#------------------------------------------------------------------------------
#$Date: 2023-12-12 14:54:19 +0200 (Tue, 12 Dec 2023) $
#$Revision: 288248 $
#$URL: file:///home/coder/svn-repositories/cod/cif/1/56/53/1565373.cif $
#------------------------------------------------------------------------------
#
# This file is available in the Crystallography Open Database (COD),
# http://www.crystallography.net/
#
# All data on this site have been placed in the public domain by the
# contributors.
#
data_1565373
loop_
_publ_author_name
'Borys, Andryj M.'
'Clark, Ewan R.'
'Saines, Paul J.'
'Alberola, Antonio'
'Rawson, Jeremy M.'
_publ_section_title
;
 A short, versatile route towards benzothiadiazinyl radicals.
;
_journal_issue                   1
_journal_name_full               'Chemical science'
_journal_page_first              149
_journal_page_last               158
_journal_paper_doi               10.1039/d1sc04248c
_journal_volume                  13
_journal_year                    2021
_chemical_formula_moiety         'C14 H8 Cl4 N2 S'
_chemical_formula_sum            'C14 H8 Cl4 N2 S'
_chemical_formula_weight         378.08
_chemical_properties_physical    Moisture-sensitive
_space_group_crystal_system      triclinic
_space_group_IT_number           2
_space_group_name_Hall           '-P 1'
_space_group_name_H-M_alt        'P -1'
_atom_sites_solution_hydrogens   geom
_audit_creation_date             2017-08-16
_audit_creation_method
;
Olex2 1.2
(compiled 2017.01.04 svn.r3372 for OlexSys, GUI svn.r5289)
;
_audit_update_record
;
2021-08-03 deposited with the CCDC.	2021-11-23 downloaded from the CCDC.
;
_cell_angle_alpha                103.868(4)
_cell_angle_beta                 94.530(5)
_cell_angle_gamma                95.061(4)
_cell_formula_units_Z            2
_cell_length_a                   8.9856(5)
_cell_length_b                   9.2182(3)
_cell_length_c                   9.3740(6)
_cell_measurement_reflns_used    5879
_cell_measurement_temperature    150.00(10)
_cell_measurement_theta_max      72.6660
_cell_measurement_theta_min      4.8830
_cell_volume                     746.85(7)
_computing_cell_refinement       'CrysAlisPro 1.171.38.41 (Rigaku OD, 2015)'
_computing_data_collection       'CrysAlisPro 1.171.38.41 (Rigaku OD, 2015)'
_computing_data_reduction        'CrysAlisPro 1.171.38.41 (Rigaku OD, 2015)'
_computing_molecular_graphics    'Olex2 (Dolomanov et al., 2009)'
_computing_publication_material  'Olex2 (Dolomanov et al., 2009)'
_computing_structure_refinement  'ShelXL (Sheldrick, 2015)'
_diffrn_ambient_environment      N~2~
_diffrn_ambient_temperature      150.00(10)
_diffrn_detector                 'CCD plate'
_diffrn_detector_area_resol_mean 5.2887
_diffrn_detector_type            AtlasS2
_diffrn_measured_fraction_theta_full 1.000
_diffrn_measured_fraction_theta_max 1.000
_diffrn_measurement_details
;
List of Runs (angles in degrees, time in seconds):

  # Type    Start    End  Width  t~exp~   \w     \q     \k     \f   Frames
#--------------------------------------------------------------------------
  1  \w   -113.00 -13.00   0.50    0.50    --  -41.14 -57.00 120.00  200
  2  \w    -69.00  32.00   0.50    0.50    --  -41.14  57.00 -90.00  202
  3  \w     23.00  97.00   0.50    0.50    --   41.14-125.00 -30.00  148
  4  \w      9.00 117.00   0.50    0.50    --   41.14  77.00  30.00  216
  5  \w     28.00 115.00   0.50    0.76    --  104.67-111.00 150.00  174
  6  \w    100.00 178.00   0.50    0.76    --  104.67 111.00  60.00  156
  7  \w     29.00 137.00   0.50    0.76    --  104.67 -77.00 150.00  216
  8  \w     28.00 133.00   0.50    0.76    --  104.67 -30.00 -90.00  210
  9  \w     72.00 178.00   0.50    0.76    --  104.67  77.00-150.00  212
 10  \w     22.00 108.00   0.50    0.76    --  104.67 -94.00  60.00  172
 11  \w     22.00 108.00   0.50    0.76    --  104.67 -94.00 -90.00  172
 12  \w     32.00 131.00   0.50    0.76    --  104.67 -45.00 150.00  198
 13  \w     22.00 108.00   0.50    0.76    --  104.67 -94.00   0.00  172
 14  \w     32.00 131.00   0.50    0.76    --  104.67 -45.00-180.00  198
 15  \w     23.00 157.00   0.50    0.76    --  104.67 -15.00  30.00  268
 16  \w   -113.00 -13.00   0.50    0.50    --  -41.14 -57.00-120.00  200
 17  \w    -33.00  66.00   0.50    0.50    --   41.14 -38.00 -30.00  198
 18  \w      9.00 117.00   0.50    0.50    --   41.14  77.00 -60.00  216
 19  \w    -33.00  66.00   0.50    0.50    --   41.14 -38.00  90.00  198
;
_diffrn_measurement_device       'four-circle diffractometer'
_diffrn_measurement_device_type  'SuperNova, Dual, Cu at zero, AtlasS2'
_diffrn_measurement_method       '\w scans'
_diffrn_orient_matrix_type
'CrysAlisPro convention (1999,Acta A55,543-557)'
_diffrn_orient_matrix_UB_11      -0.1246967000
_diffrn_orient_matrix_UB_12      -0.0338747000
_diffrn_orient_matrix_UB_13      0.0949063000
_diffrn_orient_matrix_UB_21      -0.0018905000
_diffrn_orient_matrix_UB_22      0.1697901000
_diffrn_orient_matrix_UB_23      0.0656508000
_diffrn_orient_matrix_UB_31      -0.1199724000
_diffrn_orient_matrix_UB_32      0.0048733000
_diffrn_orient_matrix_UB_33      -0.1250943000
_diffrn_radiation_monochromator  mirror
_diffrn_radiation_probe          x-ray
_diffrn_radiation_type           CuK\a
_diffrn_radiation_wavelength     1.54184
_diffrn_reflns_av_R_equivalents  0.0194
_diffrn_reflns_av_unetI/netI     0.0186
_diffrn_reflns_Laue_measured_fraction_full 1.000
_diffrn_reflns_Laue_measured_fraction_max 1.000
_diffrn_reflns_limit_h_max       9
_diffrn_reflns_limit_h_min       -10
_diffrn_reflns_limit_k_max       10
_diffrn_reflns_limit_k_min       -10
_diffrn_reflns_limit_l_max       10
_diffrn_reflns_limit_l_min       -11
_diffrn_reflns_number            7792
_diffrn_reflns_point_group_measured_fraction_full 1.000
_diffrn_reflns_point_group_measured_fraction_max 1.000
_diffrn_reflns_theta_full        65.382
_diffrn_reflns_theta_max         65.382
_diffrn_reflns_theta_min         4.886
_diffrn_source                   'micro-focus sealed X-ray tube'
_diffrn_source_type              'SuperNova (Cu) X-ray Source'
_exptl_absorpt_coefficient_mu    8.456
_exptl_absorpt_correction_T_max  0.507
_exptl_absorpt_correction_T_min  0.285
_exptl_absorpt_correction_type   gaussian
_exptl_absorpt_process_details
'CrysAlisPro 1.171.38.41 (Rigaku Oxford Diffraction, 2015)'
_exptl_crystal_colour            'clear orangish yellow'
_exptl_crystal_colour_lustre     clear
_exptl_crystal_colour_modifier   orangish
_exptl_crystal_colour_primary    yellow
_exptl_crystal_density_diffrn    1.681
_exptl_crystal_description       block
_exptl_crystal_F_000             380
_exptl_crystal_recrystallization_method
'Layering of dry hexane onto a saturated solution of the product in thionyl chloride.'
_exptl_crystal_size_max          0.239
_exptl_crystal_size_mid          0.125
_exptl_crystal_size_min          0.119
_refine_diff_density_max         0.379
_refine_diff_density_min         -0.339
_refine_diff_density_rms         0.052
_refine_ls_extinction_method     none
_refine_ls_goodness_of_fit_ref   1.066
_refine_ls_hydrogen_treatment    constr
_refine_ls_matrix_type           full
_refine_ls_number_parameters     190
_refine_ls_number_reflns         2562
_refine_ls_number_restraints     0
_refine_ls_restrained_S_all      1.066
_refine_ls_R_factor_all          0.0275
_refine_ls_R_factor_gt           0.0267
_refine_ls_shift/su_max          0.001
_refine_ls_shift/su_mean         0.000
_refine_ls_structure_factor_coef Fsqd
_refine_ls_weighting_details
'w=1/[\s^2^(Fo^2^)+(0.0372P)^2^+0.4301P] where P=(Fo^2^+2Fc^2^)/3'
_refine_ls_weighting_scheme      calc
_refine_ls_wR_factor_gt          0.0724
_refine_ls_wR_factor_ref         0.0730
_reflns_Friedel_coverage         0.000
_reflns_number_gt                2470
_reflns_number_total             2562
_reflns_threshold_expression     'I > 2\s(I)'
_iucr_refine_instructions_details
;
TITL serc010-r1-rf_a.res in P-1
    serc010-r1-rf-fixed.res
    created by SHELXL-2016/6 at 12:07:14 on 16-Aug-2017
REM Old TITL sERC010-R1-rf in P-1 #2
REM SHELXT solution in P-1
REM R1 0.095, Rweak 0.006, Alpha 0.023, Orientation as input
REM Formula found by SHELXT: C14 N2 S Cl4
CELL 1.54184 8.985555 9.218176 9.373987 103.8681 94.5298 95.0612
ZERR 2 0.000546 0.000337 0.000559 0.0041 0.0049 0.004
LATT 1
SFAC C H Cl N S
UNIT 28 16 8 4 2

L.S. 20
PLAN  20
TEMP -123.15(10)
BOND $H
LIST 6
fmap 2
acta
SHEL 1000 0.848
REM <olex2.extras>
REM <HklSrc "%.\\sERC010-R1-rf-fixed.hkl">
REM </olex2.extras>

WGHT    0.037200    0.430100
FVAR       7.00297
CL3   3    0.975574    0.930832    0.797907    11.00000    0.03570    0.02282 =
         0.02913    0.00199    0.00127   -0.00542
S1    5    0.806474    0.244559    0.536484    11.00000    0.02798    0.01979 =
         0.03395    0.00527    0.00053    0.00295
CL2   3    1.126071    0.700885    0.943641    11.00000    0.03338    0.03666 =
         0.02929    0.00657   -0.00623   -0.00303
CL4   3    0.825664    0.856720    0.402937    11.00000    0.04227    0.03723 =
         0.03028    0.01546    0.00851    0.00626
CL1   3    0.652276    0.198763    0.706423    11.00000    0.04457    0.02834 =
         0.04209    0.01326    0.00517   -0.00264
N2    4    0.667361    0.491390    0.430545    11.00000    0.02195    0.02187 =
         0.02604    0.00487    0.00395   -0.00032
N1    4    0.706795    0.229996    0.387982    11.00000    0.02978    0.02218 =
         0.03105    0.00258    0.00288    0.00350
C2    1    0.776769    0.535118    0.547401    11.00000    0.02090    0.02199 =
         0.02377    0.00517    0.00656   -0.00041
C7    1    0.813905    0.692768    0.608458    11.00000    0.02344    0.02271 =
         0.02290    0.00542    0.00706   -0.00045
C1    1    0.637807    0.349880    0.359486    11.00000    0.02219    0.02246 =
         0.02595    0.00512    0.00779    0.00099
C6    1    0.924397    0.740656    0.725648    11.00000    0.02604    0.02118 =
         0.02358    0.00326    0.00751   -0.00306
C9    1    0.521820    0.310089    0.231403    11.00000    0.02191    0.02691 =
         0.02251    0.00338    0.00698   -0.00045
C8    1    0.729292    0.799769    0.545339    11.00000    0.02756    0.02134 =
         0.02580    0.00570    0.00566    0.00075
AFIX  23
H8A   2    0.718439    0.889522    0.624891    11.00000   -1.20000
H8B   2    0.627446    0.750840    0.503579    11.00000   -1.20000
AFIX   0
C5    1    0.996932    0.637821    0.789437    11.00000    0.02328    0.03018 =
         0.02227    0.00523    0.00347   -0.00201
C3    1    0.853183    0.435859    0.610973    11.00000    0.02373    0.02113 =
         0.02705    0.00485    0.00512   -0.00001
C14   1    0.468399    0.159692    0.165574    11.00000    0.02720    0.02791 =
         0.03107   -0.00025    0.00846    0.00000
AFIX  43
H14   2    0.508343    0.081666    0.201539    11.00000   -1.20000
AFIX   0
C4    1    0.961745    0.485668    0.732000    11.00000    0.02470    0.02904 =
         0.02926    0.01012    0.00370    0.00233
AFIX  43
H4    2    1.010367    0.415871    0.773875    11.00000   -1.20000
AFIX   0
C10   1    0.462906    0.423406    0.176919    11.00000    0.02935    0.02966 =
         0.02785    0.00705    0.00490   -0.00222
AFIX  43
H10   2    0.498965    0.525666    0.220982    11.00000   -1.20000
AFIX   0
C13   1    0.357150    0.124848    0.047857    11.00000    0.03046    0.03737 =
         0.03124   -0.00787    0.00702   -0.00377
AFIX  43
H13   2    0.320442    0.022810    0.003510    11.00000   -1.20000
AFIX   0
C11   1    0.351925    0.387639    0.058724    11.00000    0.03136    0.04714 =
         0.03061    0.01558    0.00239    0.00134
AFIX  43
H11   2    0.312142    0.465192    0.021837    11.00000   -1.20000
AFIX   0
C12   1    0.299194    0.238448   -0.005457    11.00000    0.02991    0.05245 =
         0.02338    0.00301    0.00057   -0.00407
AFIX  43
H12   2    0.223030    0.213902   -0.086308    11.00000   -1.20000
AFIX   0
HKLF 4




REM  serc010-r1-rf_a.res in P-1
REM R1 =  0.0267 for    2470 Fo > 4sig(Fo)  and  0.0275 for all    2562 data
REM    190 parameters refined using      0 restraints

END  
     
WGHT      0.0371      0.4356 

REM Highest difference peak  0.379,  deepest hole -0.339,  1-sigma level  0.052
Q1    1   0.8080  0.7677  0.3564  11.00000  0.05    0.38
Q2    1   0.7966  0.9652  0.6716  11.00000  0.05    0.29
Q3    1   0.5955  0.1722  0.6253  11.00000  0.05    0.22
Q4    1   0.7366  0.2347  0.4583  11.00000  0.05    0.22
Q5    1   0.7890  0.7335  0.5801  11.00000  0.05    0.20
Q6    1   0.5695  0.3279  0.2915  11.00000  0.05    0.20
Q7    1   0.6220  0.2750  0.7481  11.00000  0.05    0.20
Q8    1   0.7878  0.4876  0.5928  11.00000  0.05    0.19
Q9    1   0.7917  0.6142  0.5834  11.00000  0.05    0.19
Q10   1   0.8490  0.7110  0.6753  11.00000  0.05    0.17
Q11   1   0.9834  0.6935  0.7420  11.00000  0.05    0.17
Q12   1   0.5217  0.3612  0.1722  11.00000  0.05    0.17
Q13   1   1.0460  0.3957  0.8206  11.00000  0.05    0.17
Q14   1   0.4979  0.2428  0.2001  11.00000  0.05    0.16
Q15   1   0.9393  0.8582  0.4380  11.00000  0.05    0.16
Q16   1   1.0783  0.9330  0.8582  11.00000  0.05    0.16
Q17   1   0.9518  0.5599  0.7792  11.00000  0.05    0.16
Q18   1   1.0274  0.6589  0.8438  11.00000  0.05    0.15
Q19   1   0.8948  0.4591  0.6599  11.00000  0.05    0.15
Q20   1   0.7346  0.5156  0.5006  11.00000  0.05    0.15

  REM The information below was added by Olex2.
  REM
  REM R1 = 0.0267 for 2470 Fo > 4sig(Fo) and 0.0275 for all 8344 data
  REM n/a parameters refined using n/a restraints
  REM Highest difference peak 0.38, deepest hole -0.34
  REM Mean Shift 0, Max Shift 0.001.

  REM +++ Tabular Listing of Refinement Information +++
  REM R1_all = 0.0275
  REM R1_gt = 0.0267
  REM wR_ref = 0.0730
  REM GOOF = 1.066
  REM Shift_max = 0.001
  REM Shift_mean = 0
  REM Reflections_all = 8344
  REM Reflections_gt = 2470
  REM Parameters = n/a
  REM Hole = -0.34
  REM Peak = 0.38
  REM Flack = n/a

  
;
_cod_data_source_file            d1sc04248c2.cif
_cod_data_source_block           serc010-r1-rf-fixed
_cod_depositor_comments
'Adding full bibliography for 1565368--1565385.cif.'
_cod_original_cell_volume        746.84(7)
_cod_database_code               1565373
_shelx_shelxl_version_number     2016/6
_chemical_oxdiff_formula         'C14 H8 Cl4 N2 S1 '
_chemical_oxdiff_usercomment     ortho-methylphenylbenzamidine-SOCl2/hexane
_shelx_space_group_comment
;
The symmetry employed for this shelxl refinement is uniquely defined
by the following loop, which should always be used as a source of
symmetry information in preference to the above space-group names.
They are only intended as comments.
;
_cell_oxdiff_angle_alpha         103.868(4)
_cell_oxdiff_angle_beta          94.530(5)
_cell_oxdiff_angle_gamma         95.061(4)
_cell_oxdiff_length_a            8.9856(5)
_cell_oxdiff_length_b            9.2182(3)
_cell_oxdiff_length_c            9.3740(6)
_cell_oxdiff_measurement_reflns_used 5879
_cell_oxdiff_volume              746.84(7)
_reflns_odcompleteness_completeness 99.96
_reflns_odcompleteness_iscentric 1
_reflns_odcompleteness_theta     66.97
_olex2_refinement_description
;
1. Fixed Uiso
 At 1.2 times of:
  All C(H) groups, All C(H,H) groups
2.a Secondary CH2 refined with riding coordinates:
 C8(H8A,H8B)
2.b Aromatic/amide H refined with riding coordinates:
 C14(H14), C4(H4), C10(H10), C13(H13), C11(H11), C12(H12)
;
_olex2_submission_special_instructions 'No special instructions were received'
_oxdiff_exptl_absorpt_empirical_details
;
Empirical correction (ABSPACK) includes:
- Absorption correction using spherical harmonics
- Frame scaling
;
_oxdiff_exptl_absorpt_empirical_full_max 1.395
_oxdiff_exptl_absorpt_empirical_full_min 0.811
loop_
_space_group_symop_operation_xyz
'x, y, z'
'-x, -y, -z'
loop_
_atom_site_label
_atom_site_type_symbol
_atom_site_fract_x
_atom_site_fract_y
_atom_site_fract_z
_atom_site_U_iso_or_equiv
_atom_site_adp_type
_atom_site_occupancy
_atom_site_site_symmetry_order
_atom_site_calc_flag
_atom_site_refinement_flags_posn
_atom_site_refinement_flags_adp
_atom_site_refinement_flags_occupancy
_atom_site_disorder_assembly
_atom_site_disorder_group
Cl3 Cl 0.97557(5) 0.93083(5) 0.79791(5) 0.03063(13) Uani 1 1 d . . . . .
S1 S 0.80647(5) 0.24456(5) 0.53648(5) 0.02761(13) Uani 1 1 d . . . . .
Cl2 Cl 1.12607(5) 0.70089(6) 0.94364(5) 0.03433(14) Uani 1 1 d . . . . .
Cl4 Cl 0.82566(6) 0.85672(6) 0.40294(5) 0.03500(14) Uani 1 1 d . . . . .
Cl1 Cl 0.65228(6) 0.19876(5) 0.70642(6) 0.03793(15) Uani 1 1 d . . . . .
N2 N 0.66736(17) 0.49139(17) 0.43054(17) 0.0236(3) Uani 1 1 d . . . . .
N1 N 0.70679(18) 0.23000(17) 0.38798(18) 0.0283(4) Uani 1 1 d . . . . .
C2 C 0.7768(2) 0.5351(2) 0.5474(2) 0.0222(4) Uani 1 1 d . . . . .
C7 C 0.8139(2) 0.6928(2) 0.6085(2) 0.0230(4) Uani 1 1 d . . . . .
C1 C 0.6378(2) 0.3499(2) 0.3595(2) 0.0235(4) Uani 1 1 d . . . . .
C6 C 0.9244(2) 0.7407(2) 0.7256(2) 0.0241(4) Uani 1 1 d . . . . .
C9 C 0.5218(2) 0.3101(2) 0.2314(2) 0.0242(4) Uani 1 1 d . . . . .
C8 C 0.7293(2) 0.7998(2) 0.5453(2) 0.0249(4) Uani 1 1 d . . . . .
H8A H 0.718439 0.889522 0.624891 0.030 Uiso 1 1 calc R . . . .
H8B H 0.627446 0.750840 0.503579 0.030 Uiso 1 1 calc R . . . .
C5 C 0.9969(2) 0.6378(2) 0.7894(2) 0.0257(4) Uani 1 1 d . . . . .
C3 C 0.8532(2) 0.4359(2) 0.6110(2) 0.0242(4) Uani 1 1 d . . . . .
C14 C 0.4684(2) 0.1597(2) 0.1656(2) 0.0299(4) Uani 1 1 d . . . . .
H14 H 0.508343 0.081666 0.201539 0.036 Uiso 1 1 calc R . . . .
C4 C 0.9617(2) 0.4857(2) 0.7320(2) 0.0272(4) Uani 1 1 d . . . . .
H4 H 1.010367 0.415871 0.773875 0.033 Uiso 1 1 calc R . . . .
C10 C 0.4629(2) 0.4234(2) 0.1769(2) 0.0292(4) Uani 1 1 d . . . . .
H10 H 0.498965 0.525666 0.220982 0.035 Uiso 1 1 calc R . . . .
C13 C 0.3571(2) 0.1248(2) 0.0479(2) 0.0361(5) Uani 1 1 d . . . . .
H13 H 0.320442 0.022810 0.003510 0.043 Uiso 1 1 calc R . . . .
C11 C 0.3519(2) 0.3876(3) 0.0587(2) 0.0356(5) Uani 1 1 d . . . . .
H11 H 0.312142 0.465192 0.021837 0.043 Uiso 1 1 calc R . . . .
C12 C 0.2992(2) 0.2384(3) -0.0055(2) 0.0370(5) Uani 1 1 d . . . . .
H12 H 0.223030 0.213902 -0.086308 0.044 Uiso 1 1 calc R . . . .
loop_
_atom_site_aniso_label
_atom_site_aniso_U_11
_atom_site_aniso_U_22
_atom_site_aniso_U_33
_atom_site_aniso_U_23
_atom_site_aniso_U_13
_atom_site_aniso_U_12
Cl3 0.0357(3) 0.0228(2) 0.0291(2) 0.00199(18) 0.00127(19) -0.00542(18)
S1 0.0280(3) 0.0198(2) 0.0340(3) 0.00527(19) 0.00053(19) 0.00295(18)
Cl2 0.0334(3) 0.0367(3) 0.0293(3) 0.0066(2) -0.00623(19) -0.0030(2)
Cl4 0.0423(3) 0.0372(3) 0.0303(3) 0.0155(2) 0.0085(2) 0.0063(2)
Cl1 0.0446(3) 0.0283(3) 0.0421(3) 0.0133(2) 0.0052(2) -0.0026(2)
N2 0.0219(8) 0.0219(8) 0.0260(8) 0.0049(6) 0.0039(6) -0.0003(6)
N1 0.0298(9) 0.0222(8) 0.0310(9) 0.0026(7) 0.0029(7) 0.0035(7)
C2 0.0209(9) 0.0220(9) 0.0238(9) 0.0052(7) 0.0066(7) -0.0004(7)
C7 0.0234(9) 0.0227(9) 0.0229(9) 0.0054(7) 0.0071(7) -0.0004(7)
C1 0.0222(9) 0.0225(9) 0.0260(9) 0.0051(7) 0.0078(7) 0.0010(7)
C6 0.0260(9) 0.0212(9) 0.0236(9) 0.0033(7) 0.0075(7) -0.0031(7)
C9 0.0219(9) 0.0269(10) 0.0225(9) 0.0034(7) 0.0070(7) -0.0005(7)
C8 0.0276(10) 0.0213(9) 0.0258(9) 0.0057(7) 0.0057(7) 0.0007(7)
C5 0.0233(9) 0.0302(10) 0.0223(9) 0.0052(7) 0.0035(7) -0.0020(8)
C3 0.0237(9) 0.0211(9) 0.0271(9) 0.0049(7) 0.0051(7) 0.0000(7)
C14 0.0272(10) 0.0279(10) 0.0311(10) -0.0002(8) 0.0085(8) 0.0000(8)
C4 0.0247(10) 0.0290(10) 0.0293(10) 0.0101(8) 0.0037(8) 0.0023(8)
C10 0.0294(10) 0.0297(10) 0.0279(10) 0.0070(8) 0.0049(8) -0.0022(8)
C13 0.0305(11) 0.0374(12) 0.0312(11) -0.0079(9) 0.0070(8) -0.0038(9)
C11 0.0314(11) 0.0471(13) 0.0306(11) 0.0156(9) 0.0024(9) 0.0013(9)
C12 0.0299(11) 0.0524(13) 0.0234(10) 0.0030(9) 0.0006(8) -0.0041(9)
loop_
_atom_type_symbol
_atom_type_description
_atom_type_scat_dispersion_real
_atom_type_scat_dispersion_imag
_atom_type_scat_source
C C 0.0181 0.0091 'International Tables Vol C Tables 4.2.6.8 and 6.1.1.4'
H H 0.0000 0.0000 'International Tables Vol C Tables 4.2.6.8 and 6.1.1.4'
Cl Cl 0.3639 0.7018 'International Tables Vol C Tables 4.2.6.8 and 6.1.1.4'
N N 0.0311 0.0180 'International Tables Vol C Tables 4.2.6.8 and 6.1.1.4'
S S 0.3331 0.5567 'International Tables Vol C Tables 4.2.6.8 and 6.1.1.4'
loop_
_exptl_crystal_face_index_h
_exptl_crystal_face_index_k
_exptl_crystal_face_index_l
_exptl_crystal_face_perp_dist
-6 1 -1 0.0952
1 -6 2 0.0607
1 6 0 0.0532
-2 5 -3 0.0611
-2 -5 -1 0.0651
5 -2 3 0.1115
5 0 -4 0.0634
3 1 -6 0.0626
4 -1 4 0.1092
-4 0 5 0.0605
loop_
_geom_angle_atom_site_label_1
_geom_angle_atom_site_label_2
_geom_angle_atom_site_label_3
_geom_angle
_geom_angle_site_symmetry_1
_geom_angle_site_symmetry_3
_geom_angle_publ_flag
N1 S1 Cl1 107.92(7) . . ?
N1 S1 C3 105.69(9) . . ?
C3 S1 Cl1 98.16(7) . . ?
C1 N2 C2 120.61(16) . . ?
C1 N1 S1 121.52(13) . . ?
N2 C2 C7 117.17(16) . . ?
N2 C2 C3 124.55(16) . . ?
C3 C2 C7 118.28(16) . . ?
C2 C7 C8 118.83(16) . . ?
C6 C7 C2 118.64(17) . . ?
C6 C7 C8 122.51(16) . . ?
N2 C1 N1 127.05(17) . . ?
N2 C1 C9 118.16(17) . . ?
N1 C1 C9 114.77(16) . . ?
C7 C6 Cl3 119.58(15) . . ?
C7 C6 C5 121.71(17) . . ?
C5 C6 Cl3 118.71(14) . . ?
C14 C9 C1 120.72(18) . . ?
C10 C9 C1 119.80(16) . . ?
C10 C9 C14 119.47(18) . . ?
Cl4 C8 H8A 109.5 . . ?
Cl4 C8 H8B 109.5 . . ?
C7 C8 Cl4 110.83(13) . . ?
C7 C8 H8A 109.5 . . ?
C7 C8 H8B 109.5 . . ?
H8A C8 H8B 108.1 . . ?
C6 C5 Cl2 120.73(14) . . ?
C4 C5 Cl2 119.07(15) . . ?
C4 C5 C6 120.17(17) . . ?
C2 C3 S1 117.88(14) . . ?
C4 C3 S1 119.60(15) . . ?
C4 C3 C2 122.50(17) . . ?
C9 C14 H14 120.1 . . ?
C13 C14 C9 119.9(2) . . ?
C13 C14 H14 120.1 . . ?
C5 C4 C3 118.64(18) . . ?
C5 C4 H4 120.7 . . ?
C3 C4 H4 120.7 . . ?
C9 C10 H10 119.8 . . ?
C11 C10 C9 120.34(19) . . ?
C11 C10 H10 119.8 . . ?
C14 C13 H13 119.9 . . ?
C14 C13 C12 120.21(19) . . ?
C12 C13 H13 119.9 . . ?
C10 C11 H11 120.1 . . ?
C12 C11 C10 119.8(2) . . ?
C12 C11 H11 120.1 . . ?
C13 C12 H12 119.9 . . ?
C11 C12 C13 120.28(19) . . ?
C11 C12 H12 119.9 . . ?
loop_
_geom_bond_atom_site_label_1
_geom_bond_atom_site_label_2
_geom_bond_distance
_geom_bond_site_symmetry_2
_geom_bond_publ_flag
Cl3 C6 1.7271(18) . ?
S1 Cl1 2.2811(7) . ?
S1 N1 1.5653(17) . ?
S1 C3 1.7339(18) . ?
Cl2 C5 1.7283(19) . ?
Cl4 C8 1.8016(19) . ?
N2 C2 1.370(2) . ?
N2 C1 1.308(2) . ?
N1 C1 1.383(2) . ?
C2 C7 1.427(3) . ?
C2 C3 1.404(3) . ?
C7 C6 1.380(3) . ?
C7 C8 1.497(3) . ?
C1 C9 1.479(3) . ?
C6 C5 1.414(3) . ?
C9 C14 1.400(3) . ?
C9 C10 1.394(3) . ?
C8 H8A 0.9900 . ?
C8 H8B 0.9900 . ?
C5 C4 1.375(3) . ?
C3 C4 1.395(3) . ?
C14 H14 0.9500 . ?
C14 C13 1.385(3) . ?
C4 H4 0.9500 . ?
C10 H10 0.9500 . ?
C10 C11 1.387(3) . ?
C13 H13 0.9500 . ?
C13 C12 1.387(3) . ?
C11 H11 0.9500 . ?
C11 C12 1.386(3) . ?
C12 H12 0.9500 . ?
loop_
_refln_index_h
_refln_index_k
_refln_index_l
_refln_F_squared_meas
_refln_F_squared_sigma
_refln_scale_group_code
0 0 -1 111260 1584.97 3
0 0 -1 111311 1601.41 4
0 0 1 113563 1599.32 16
0 0 -1 111873 1597.47 19
0 0 -1 113031 1612.78 2
0 0 -2 8997.13 236.944 3
0 0 -2 9577.24 272.554 2
0 0 -2 9617.09 263.715 4
0 0 2 9422.37 253.54 16
0 0 -2 9526.07 255.446 19
0 0 3 1563.06 116.037 16
0 0 -3 1533.27 116.678 19
0 0 -3 1617.29 113.447 3
0 0 -3 1711.67 133.956 2
0 0 4 20582 552.293 16
0 0 -4 21959.3 621.336 2
0 0 -4 20290.4 531.132 3
0 0 -5 82383.7 1521.01 3
0 0 -5 84231.2 1688.36 2
0 0 5 84395.4 1570.54 16
0 0 6 28869.7 835.578 16
0 0 -6 29940.7 947.173 2
0 0 -7 663.398 110.313 5
0 0 -7 574.716 110.619 7
0 0 -7 544.477 135.662 2
0 0 -7 462.301 99.245 12
0 0 -8 25676.6 815.615 14
0 0 -8 26596.4 816.23 12
0 0 -8 25857.4 809.991 7
0 0 -9 14995.7 589.447 14
0 0 -9 15007.2 576.965 7
0 0 -9 15967.8 597.772 12
0 0 -10 1227.35 141.855 12
0 0 -10 1179.8 139.459 7
0 0 -10 1231.78 141.423 14
0 0 10 1008.37 144.653 9
0 0 11 12.5795 28.6354 9
0 0 -11 149.719 44.0601 7
0 1 -11 8345.93 313.469 7
0 -1 11 8407.68 332.093 9
0 1 -11 8760.42 307.955 12
0 1 -10 9876.88 425.579 7
0 1 -10 9956.39 421.837 14
0 1 -10 9807.7 423.797 12
0 1 -9 319.765 93.0248 7
0 1 -9 329.183 85.7545 12
0 1 -9 331.834 89.7584 14
0 1 -8 2810.3 251.167 7
0 1 -8 2759.22 244.815 12
0 1 -7 1225.9 147.381 5
0 1 -7 1216.05 198.958 2
0 1 -7 948.179 136.281 12
0 1 -7 968.033 139.494 7
0 1 -6 174490 3085.77 2
0 -1 5 13403.9 421.591 16
0 1 -5 13143.7 427.294 3
0 1 -5 13685.5 491.958 19
0 1 -5 13269.2 517.746 2
0 -1 4 1441.6 110.46 16
0 1 -4 1510.15 118.836 3
0 1 -4 1680.95 144.467 19
0 1 -4 1511.92 146.295 2
0 1 -3 230.038 48.9198 19
0 1 -3 216.413 49.3627 2
0 1 -3 211.527 43.1014 3
0 -1 3 161.657 32.1546 16
0 1 -2 91367.8 1419.2 2
0 1 -2 90706.9 1357.27 3
0 1 -2 90587.7 1395.72 19
0 -1 2 87729.3 1297.03 16
0 1 -1 118808 1711.63 2
0 -1 1 116518 1720.18 1
0 1 -1 116202 1712.71 18
0 -1 0 13079.9 260.663 4
0 1 0 13475 259.799 16
0 1 0 12446.2 265.976 18
0 -1 0 12748.2 283.304 1
0 1 1 45429.7 785.524 16
0 -1 -1 45595.6 790.143 2
0 -1 -2 294449 4194.75 2
0 1 2 287346 4184.18 16
0 -1 -3 12046.9 432.716 4
0 -1 -3 12752.1 421.228 2
0 1 3 12218.4 410.067 16
0 -1 -3 12132.2 380.996 3
0 -1 -4 3566.22 220.47 3
0 -1 -4 3478.75 244.101 2
0 1 4 3536.74 233.495 16
0 1 5 1313.18 160.875 16
0 -1 -5 1327.86 174.145 2
0 -1 -5 1214.11 144.272 3
0 -1 -6 69436.7 1404.75 12
0 -1 -6 68267.3 1639.72 2
0 1 6 66874.2 1545.93 16
0 -1 -6 68462 1399.1 7
0 -1 -7 1234.69 163.001 14
0 1 7 1076.98 173.284 16
0 -1 -7 1247.07 176.622 11
0 -1 -7 1382.16 227.118 2
0 -1 -7 1211.32 160.083 7
0 -1 -7 1373.9 159.869 5
0 -1 -7 1089.81 148.188 12
0 -1 -8 -21.9107 56.2535 11
0 -1 -8 95.1637 54.4838 12
0 -1 -8 125.62 73.8474 7
0 -1 -8 116.426 60.921 14
0 -1 -9 12.2849 39.8685 12
0 -1 -9 23.0422 38.991 14
0 -1 -9 177.117 73.3792 7
0 -1 -9 74.1738 53.9369 11
0 1 9 18.4192 52.1481 9
0 -1 -10 10828.6 404.382 14
0 1 10 11061.5 414.952 9
0 -1 -10 10854.2 397.142 7
0 -1 -10 11119.1 407.694 12
0 2 -11 231.313 59.5667 7
0 2 -11 253.771 59.9451 12
0 2 -10 2181.01 202.023 7
0 2 -10 2192.02 198.446 12
0 2 -9 14390.1 579.206 12
0 2 -9 14480.4 592.472 7
0 2 -8 11179.3 463.009 5
0 2 -8 12071.7 653.393 2
0 2 -8 11368.7 510.999 12
0 2 -8 11244.8 525.888 7
0 -2 8 12168.4 708.786 1
0 2 -7 815.056 166.258 2
0 2 -7 705.984 114.718 5
0 2 -7 966.454 141.771 7
0 -2 7 920.077 186.761 1
0 2 -6 192.253 71.079 19
0 -2 6 60.5556 58.3643 1
0 2 -5 4021.05 223.079 3
0 2 -5 3538.35 248.106 19
0 2 -5 3732.58 261.902 2
0 -2 4 51027.5 847.439 16
0 -2 4 54360.2 1150.87 1
0 2 -4 54222.3 1112.47 2
0 2 -4 54192.7 1086.25 19
0 -2 3 205286 3137 1
0 2 -3 202475 3091.92 2
0 2 -3 203651 3073.4 19
0 2 -2 54.2208 31.5183 18
0 -2 2 53.4436 34.5747 1
0 -2 1 16066.5 303.302 4
0 2 -1 16192.4 415.666 18
0 2 -1 16144.9 306.364 16
0 -2 1 15872 411.208 1
0 -2 0 282543 3960.75 4
0 -2 0 277849 4038.3 1
0 2 0 283265 3956.28 16
0 2 0 275444 3997.91 18
0 2 1 106546 1698.5 18
0 2 1 109333 1741.98 16
0 -2 -1 110773 1778.12 2
0 -2 -1 108392 1754.86 1
0 -2 -2 193034 3003.85 4
0 -2 -2 192036 2979.46 2
0 2 2 195355 2977.49 16
0 2 2 188558 2895.81 18
0 -2 -3 404.319 92.5743 4
0 -2 -3 422.098 90.5601 2
0 2 3 210.255 65.9131 16
0 -2 -4 2290.25 223.151 2
0 -2 -4 2576.81 215.927 3
0 2 4 2579.97 223.372 16
0 2 5 56272.7 1361.52 16
0 -2 -5 56052.2 1395.11 2
0 -2 -5 54103.5 1290.74 3
0 -2 -6 1043.08 146.632 14
0 -2 -6 906.665 132.124 7
0 -2 -6 958.25 177.066 2
0 2 6 967.522 170.764 16
0 -2 -6 840.141 126.36 12
0 2 6 957.925 175.973 18
0 -2 -7 8051.04 417.465 12
0 -2 -7 7988.44 423.854 14
0 2 7 7102.56 486.038 16
0 -2 -7 8029.83 480.066 11
0 2 7 7756.31 542.497 18
0 -2 -7 7860.84 405.782 7
0 -2 -8 5223.03 331.804 7
0 -2 -8 5214.48 337.67 14
0 2 8 4302.6 315.669 9
0 -2 -8 4982.33 366.244 11
0 -2 -8 5488.89 338.847 12
0 -2 -9 2359.67 217.136 11
0 2 9 2891.91 227.253 9
0 -2 -9 2826.78 220.237 12
0 -2 -9 2547.8 206.261 7
0 -2 -9 2767.93 219.82 14
0 -2 -10 537.74 76.7647 7
0 2 10 577.121 80.9133 9
0 -2 -10 524.449 80.1257 12
0 -2 -10 576.438 84.8146 14
0 3 -11 1353.59 131.942 7
0 3 -10 7200.19 366.196 12
0 3 -10 7260.53 381.013 7
0 3 -9 408.224 108.742 12
0 3 -9 240.319 98.7502 7
0 3 -8 22967.1 714.559 5
0 3 -8 24663.8 827.63 7
0 3 -7 649.838 140.605 19
0 3 -7 558.796 123.018 7
0 -3 7 432.91 125.139 1
0 3 -7 574.518 115.594 10
0 3 -7 592.703 109.752 5
0 -3 6 2605.88 273.561 1
0 3 -6 2563.17 242.574 19
0 -3 5 5882.18 376.132 1
0 3 -5 5610.55 331.533 19
0 -3 4 16272.7 570.93 1
0 3 -4 15537 527.088 19
0 -3 3 29202.2 764.121 1
0 3 -3 29654.8 734.378 19
0 3 -2 29615 710.484 18
0 -3 2 28452.1 686.665 1
0 3 -2 28305.3 654.902 19
0 3 -1 338555 4871.8 19
0 -3 1 336890 4920.66 1
0 3 -1 333789 4702.56 16
0 -3 1 333142 4694.92 4
0 3 -1 339966 4917.24 18
0 3 0 77054.2 1372.36 18
0 -3 0 75011.8 1304.31 4
0 3 0 76310.2 1305.85 16
0 -3 0 78043.8 1409.76 1
0 3 1 46950.1 954.128 16
0 3 1 45159.2 931.268 18
0 -3 -1 45624.1 990.416 1
0 -3 -1 46241.3 966.299 4
0 3 2 44119.6 958.159 18
0 -3 -2 44414.2 1040.37 2
0 -3 -2 44063.5 1021.83 4
0 3 2 44300.3 1002.32 16
0 3 3 18215.1 630.321 16
0 -3 -3 17875.3 647.511 2
0 3 3 17662 584.414 18
0 3 4 38413.7 1047.28 16
0 -3 -4 35975.3 1061.93 2
0 3 4 35807.6 982.612 18
0 -3 -4 34868.6 1032.73 3
0 -3 -5 795.106 163.073 2
0 -3 -5 880.483 134.582 14
0 -3 -5 1006.39 136.972 7
0 -3 -5 1129.75 142.82 12
0 3 5 943.313 158.087 18
0 3 5 1451.07 204.093 16
0 -3 -5 960.298 163.023 3
0 3 5 756.218 125.142 9
0 -3 -6 10101.5 455.902 7
0 3 6 10098.9 585.223 16
0 -3 -6 10225.4 616.108 2
0 3 6 8640.11 427.794 9
0 3 6 9198.42 558.67 18
0 -3 -6 9835.84 452.771 12
0 -3 -6 9577.11 463.375 14
0 -3 -7 183259 3316.87 11
0 3 7 176369 3065.84 9
0 -3 -7 182317 3095.6 12
0 -3 -7 181625 3072.38 7
0 -3 -7 180634 3103.34 14
0 3 8 15692.4 578.249 9
0 -3 -8 15902.9 574.36 7
0 -3 -8 16568.3 593.509 12
0 -3 -8 17401.3 686.436 11
0 -3 -8 16908 604.914 14
0 -3 -9 1362.43 154.004 11
0 3 9 1265 130.533 9
0 -3 -9 1526.82 147.087 12
0 -3 -9 1552.33 149.844 14
0 -3 -9 1368.85 134.586 7
0 -3 -10 1048.49 89.6189 12
0 4 -11 35525.5 799.35 7
0 4 -10 8372.54 382.305 12
0 4 -10 8729.45 422.062 7
0 4 -9 2142.3 236.483 7
0 4 -9 1896.38 205.347 12
0 4 -8 2266.89 214.8 5
0 4 -8 2310.99 250.277 7
0 4 -7 5665 341.949 5
0 4 -7 6328.45 374.061 10
0 -4 7 6364.87 488.923 1
0 4 -7 5735.3 431.982 19
0 4 -7 6343.06 402.497 7
0 -4 6 37180.7 1168.8 1
0 4 -6 34715.2 1058.6 19
0 4 -6 37588.7 943.038 10
0 4 -6 35696.6 933.36 5
0 4 -5 6526.79 387.856 19
0 -4 5 6757.4 421.628 1
0 -4 4 151819 2703.62 1
0 4 -4 148492 2609.3 19
0 4 -3 7408.07 363.415 19
0 4 -3 7359.74 391.35 18
0 -4 3 7453.2 383.883 1
0 -4 2 6896.73 353.314 1
0 4 -2 7234.05 343.566 19
0 4 -2 7305.02 369.193 18
0 -4 1 64499.7 1329.39 1
0 4 -1 65527.3 1306.04 18
0 4 -1 62901.2 1130.93 16
0 4 -1 62010 1281.47 19
0 -4 0 28913.5 789.202 1
0 4 0 27926.3 742.827 18
0 4 0 27853 685.874 16
0 -4 0 27980.3 681.85 4
0 -4 -1 342689 5218.92 2
0 4 1 338364 5075.31 18
0 -4 -1 338290 5068.3 4
0 -4 -1 339040 5177.57 1
0 4 1 336042 5057.07 16
0 4 2 30942 861.651 16
0 -4 -2 31804.6 939.753 2
0 4 2 32375.2 859.145 18
0 -4 -3 1603.98 206.705 2
0 4 3 1689.13 200.465 16
0 4 3 1690.31 187.281 18
0 4 4 8096.49 454.112 18
0 -4 -4 8355.92 387.387 14
0 -4 -4 7849.95 508.349 3
0 4 4 8229.04 478.089 16
0 -4 -4 8255.53 380.844 12
0 -4 -4 7847.58 376.713 7
0 -4 -4 7659.07 496.456 2
0 -4 -5 61238.6 1327.99 12
0 4 5 61075.8 1588.14 16
0 4 5 58338.2 1519.67 18
0 -4 -5 59666.1 1649.9 2
0 -4 -5 61786.7 1348.54 14
0 -4 -5 61272.3 1329.39 7
0 4 5 56760.2 1273.9 9
0 -4 -5 57640.8 1604.29 3
0 -4 -6 21723.3 727.966 14
0 -4 -6 21178.1 703.019 7
0 -4 -6 21730.7 717.779 12
0 4 6 20609.1 680.797 9
0 -4 -7 9616.35 453.773 14
0 -4 -7 9742.58 513.859 11
0 4 7 8561.78 411.13 9
0 -4 -7 9934.85 455.513 12
0 -4 -7 9471.11 438.845 7
0 -4 -8 278.386 69.9778 12
0 -4 -8 287.684 74.3765 7
0 -4 -8 387.281 97.6061 11
0 -4 -8 392.026 85.8448 14
0 -4 -9 9682.53 334.416 12
0 -4 -9 9881.27 338.613 14
0 -4 -9 9779.75 357.324 11
0 5 -11 7719.94 304.069 7
0 5 -10 7877.29 393.995 7
0 5 -9 18413.7 648.089 12
0 5 -9 18575.6 602.156 5
0 5 -8 16545.3 616.583 5
0 5 -8 18539 738.439 7
0 5 -7 484.389 122.618 7
0 5 -7 398.353 106.729 10
0 5 -7 485.076 118.911 5
0 5 -7 445.458 139.315 19
0 -5 7 557.321 163.68 1
0 -5 6 56781 1558.72 1
0 5 -6 55596.6 1226.92 10
0 5 -6 51307.4 1262.13 5
0 5 -6 52107.8 1427.15 19
0 -5 5 37713.9 1160.95 1
0 5 -5 36087.4 1081.83 19
0 5 -4 9976.83 502.397 19
0 -5 4 10337 538.426 1
0 -5 3 233.1 94.6875 1
0 5 -3 267.755 82.5437 19
0 5 -3 360.981 106.495 18
0 5 -2 15849.6 608.785 18
0 5 -2 15859.1 596.562 19
0 -5 2 16475 633.049 1
0 5 -1 542.458 83.57 16
0 5 -1 577.302 110.723 19
0 -5 1 445.468 107.812 1
0 5 -1 680.137 121.431 18
0 5 0 8789.14 387.603 16
0 -5 0 9393.69 474.17 1
0 5 0 9379.27 447.357 19
0 5 0 8696.21 415.488 18
0 5 1 31554.5 887.173 16
0 5 1 32515.4 915.004 18
0 -5 -1 34265.2 1012.75 1
0 -5 -1 34630.1 1038.12 2
0 -5 -2 1507.38 212.233 2
0 5 2 1390.62 182.322 18
0 5 2 1447.33 186.416 16
0 -5 -3 3223.69 236.104 14
0 -5 -3 3187.19 235.777 12
0 -5 -3 3097.05 322.872 2
0 5 3 3497.87 300.11 18
0 -5 -3 3385.29 250.408 7
0 5 3 3582.46 313.281 16
0 -5 -4 3772.74 386.792 3
0 5 4 3955.64 354.236 16
0 -5 -4 3731.2 268.399 14
0 -5 -4 3806.95 376.614 2
0 -5 -4 3732.73 266.797 12
0 -5 -4 3874.79 307.617 6
0 -5 -4 3687.34 273.138 7
0 -5 -5 5878.02 352.513 7
0 -5 -5 5710.31 344.856 14
0 -5 -5 6105.5 355.513 12
0 -5 -6 508.848 108.194 7
0 -5 -6 597.519 114.023 12
0 -5 -6 622.224 129.574 11
0 -5 -6 627.975 119.075 14
0 -5 -7 25776.9 738.981 14
0 -5 -7 24656.6 705.716 7
0 -5 -7 26507.1 747.908 12
0 -5 -7 27459.6 813.486 11
0 -5 -8 486.857 79.7066 12
0 -5 -8 624.195 98.8499 11
0 -5 -8 605.336 88.0179 14
0 -5 -8 486.526 74.1058 7
0 6 -11 1365.97 109.323 7
0 6 -10 536.882 96.9142 7
0 6 -9 6697.42 331.017 5
0 6 -9 7207.19 414.271 7
0 6 -8 358.971 103.011 7
0 6 -8 141.334 69.5995 5
0 6 -7 1905.62 202.021 10
0 6 -7 1771.94 210.079 5
0 6 -6 249.939 83.2159 10
0 -6 6 434.768 142.778 1
0 6 -6 330.247 110.648 5
0 6 -6 309.917 87.0268 15
0 6 -6 245.3 105.516 19
0 -6 5 21323.6 883.955 1
0 6 -5 18638.6 636.724 15
0 6 -5 20361.8 832.449 19
0 6 -5 19923.3 755.966 5
0 6 -4 113696 2103.82 9
0 6 -4 119568 2402.56 19
0 -6 4 122063 2473.13 1
0 6 -4 113695 2109.28 15
0 6 -3 33305.4 1021.99 18
0 -6 3 34692.3 1087 1
0 6 -3 34398.4 1050.2 19
0 6 -2 8912.14 462.932 18
0 6 -2 9012.98 485.311 19
0 -6 2 9361.45 517.087 1
0 -6 1 1398.49 201.742 1
0 6 -1 1029.75 160.225 19
0 6 -1 1162.17 161.232 18
0 -6 0 1906.06 238.46 1
0 6 0 2118.76 215.783 18
0 6 0 1792.17 215.83 19
0 6 0 1861.51 191.545 16
0 -6 -1 211.136 98.5534 2
0 6 1 173.968 75.8444 19
0 -6 -1 167.205 64.238 12
0 -6 -1 298.161 69.5817 7
0 -6 -1 223.39 92.1229 1
0 6 1 220.283 83.1912 16
0 6 2 1326.83 189.545 16
0 -6 -2 1409.18 228.145 2
0 -6 -2 1140.1 143.058 14
0 -6 -2 1390.69 168.388 7
0 -6 -2 1446.11 165.376 12
0 -6 -3 17187.1 600.045 14
0 -6 -3 17430.1 835.6 2
0 -6 -3 16987.2 683.95 6
0 -6 -3 17586.5 620.392 12
0 -6 -3 17809.7 629.559 7
0 6 3 17493 765.042 16
0 -6 -4 7282.01 381.333 14
0 -6 -4 7536.22 396.611 12
0 -6 -4 7593.11 400.35 7
0 -6 -4 7431.56 430.893 6
0 -6 -5 4952.67 310.881 14
0 -6 -5 5328.2 322.577 7
0 -6 -5 5092.84 338.751 11
0 -6 -5 5589.03 333.539 12
0 -6 -6 18506.8 588.799 7
0 -6 -6 20028.7 630.195 12
0 -6 -6 19366 616.161 14
0 -6 -6 19032.1 645.511 11
0 -6 -7 15373.5 470.696 14
0 -6 -7 15295.1 495.051 11
0 -6 -7 15115.5 468.765 12
0 -6 -8 2032.08 126.429 11
0 -6 -8 1787.11 115.354 12
0 -6 -8 1870.09 115.773 14
0 7 -10 729.078 99.5013 7
0 7 -9 2952.21 199.174 5
0 7 -9 3599.18 266.655 7
0 7 -8 4914.84 309.326 5
0 7 -8 5748.54 381.422 7
0 7 -7 7865.59 435.067 5
0 7 -6 12424.1 586.629 5
0 7 -6 11371.1 491.66 15
0 7 -5 25946 1006.13 19
0 7 -5 25624.9 793.824 15
0 -7 5 27252.6 1065.45 1
0 7 -5 26458.8 920.213 5
0 7 -4 97245 1892.49 9
0 7 -4 100850 2249.53 19
0 7 -4 96908.8 1927.21 15
0 7 -3 49368.3 1204.84 15
0 7 -3 50650.4 1423.85 19
0 -7 3 53083.8 1485.96 1
0 -7 2 28836.4 1030.51 1
0 7 -2 27934.8 828.073 15
0 7 -2 28052 992.765 19
0 7 -1 2725.83 233.778 15
0 7 -1 2683.62 285.884 19
0 -7 1 2666.26 223.728 12
0 -7 1 3072.51 320.454 1
0 -7 0 5718.98 444.814 1
0 -7 0 4661.78 301.39 12
0 -7 0 5659.42 467.508 2
0 7 0 5145.59 399.404 19
0 7 0 5374.29 328.64 15
0 7 1 5517.19 338.6 15
0 -7 -1 5715.81 338.382 12
0 7 1 5300.03 415.089 19
0 -7 -1 5426.51 461.032 2
0 -7 -1 5484.35 311.851 14
0 -7 -2 20148.2 678.613 12
0 7 2 19384.2 671.253 15
0 -7 -2 18712.7 625.261 14
0 -7 -3 2799.17 236.866 11
0 -7 -3 2857.57 230.235 14
0 -7 -3 2796.75 259.384 6
0 -7 -3 2899.92 243.878 12
0 7 3 2642.5 228.047 15
0 -7 -3 2585.73 223.969 7
0 -7 -4 708.697 121.024 11
0 -7 -4 543.251 105.63 14
0 -7 -4 620.136 118.418 6
0 -7 -4 474.673 96.128 7
0 -7 -4 519.502 106.056 12
0 -7 -5 2801.39 200.937 7
0 -7 -5 2749.17 207.209 14
0 -7 -5 3523.3 242.732 11
0 -7 -5 3674.69 245.655 12
0 -7 -6 1630.27 141.48 14
0 -7 -6 1821.11 151.644 12
0 -7 -6 1585.71 140.653 11
0 -7 -7 3080.44 153.621 12
0 -7 -7 2873.06 147.624 11
0 8 -9 2787.66 201.838 7
0 8 -9 2699.66 160.388 5
0 8 -8 10991.1 480.448 7
0 8 -8 10171.9 415.389 5
0 8 -7 20073.1 684.041 5
0 8 -7 19643.4 607.175 15
0 8 -6 11124.9 536.18 5
0 8 -6 11753.8 485.868 15
0 8 -5 1370.52 173.928 15
0 8 -5 1546.71 213.838 5
0 8 -4 22102.7 739.443 15
0 8 -3 9403.4 461.907 15
0 8 -2 79696.6 1675.07 15
0 8 -1 15041.5 594.25 15
0 -8 0 1713.82 188.071 12
0 8 0 1884.88 201.835 15
0 -8 -1 15769.9 588.353 12
0 8 1 16004 607.336 15
0 8 2 4448.88 297.786 15
0 -8 -2 4642.27 318.678 6
0 -8 -2 4633.68 274.497 14
0 -8 -2 4251.05 287.401 12
0 -8 -3 1517.12 174.274 6
0 8 3 1682.36 167.721 15
0 -8 -3 1595.42 167.193 12
0 -8 -3 1626.43 156.689 14
0 -8 -4 10155.3 404.454 12
0 -8 -4 10451.1 385.328 14
0 -8 -4 9902.82 399.72 6
0 -8 -4 10551.3 384.193 11
0 -8 -5 3125.48 176.52 11
0 -8 -5 3238.65 179.056 14
0 -8 -5 3037.13 186.232 12
0 9 -9 57.7921 28.9924 7
0 9 -8 7226.48 315.329 7
0 9 -8 7021.95 282.83 5
0 9 -7 157.644 49.4735 15
0 9 -7 20.3887 34.551 5
0 9 -7 116.418 55.0121 7
0 9 -6 4558.04 301.364 5
0 9 -6 4301.51 262.879 15
0 9 -5 21100.8 723.816 5
0 9 -5 18017.1 619.361 15
0 9 -4 17500.9 623.401 15
0 9 -3 8173.6 418.047 15
0 9 -2 714.315 129.394 15
0 9 -1 12100.1 514.892 15
0 9 0 572.961 113.568 15
0 9 1 863.374 124.184 15
0 -9 -1 954.24 135.853 6
0 -9 -1 769.555 113.664 12
0 -9 -2 6407.38 330.26 6
0 9 2 6114.52 307.106 15
0 -9 -2 5794.98 296.39 12
0 -9 -3 17352.6 517.854 6
0 -9 -3 17665.2 505.688 12
0 -9 -4 13226.7 371.447 12
0 10 -7 169.457 50.4661 7
0 10 -7 206.749 51.6617 5
0 10 -6 2728.49 189.454 5
0 10 -6 2678.14 170.884 15
0 10 -5 20824.2 592.88 15
0 10 -5 22190 649.353 5
0 10 -4 18009.5 570.401 15
0 10 -4 18913 623.505 5
0 10 -3 6017.2 316.836 15
0 10 -2 2217.96 189.589 15
0 10 -1 1660.96 161.57 15
0 10 0 749.925 102.419 15
0 -10 0 782.948 111.596 6
0 10 1 19301.4 530.726 15
0 -10 -1 20654.9 566.909 6
0 -10 -2 588.098 76.682 6
0 11 -5 1146.21 92.0144 15
0 11 -5 997.995 93.4657 5
0 11 -4 95.3002 40.6083 5
0 -11 4 59.8119 32.8671 6
0 11 -4 116.185 38.6974 15
0 11 -3 37287.6 759.966 15
0 11 -3 36865.2 782.3 5
0 -11 2 11518.1 360.378 6
0 11 -2 11376.4 378.994 5
0 11 -2 11652.9 365.512 15
0 -11 1 1389.41 115.116 6
0 11 -1 1211.61 101.679 15
0 -11 0 3399.73 164.485 6
-1 11 0 84.2113 29.94 15
1 -11 0 68.5961 23.8778 6
-1 11 -1 10203.8 327.377 15
1 -11 1 10756.8 340.414 6
-1 11 -2 4338.78 212.797 15
1 -11 2 4346.55 215.032 6
-1 11 -2 3923.74 211.644 5
-1 11 -3 2179.07 149.644 15
-1 11 -3 2384.49 165.472 5
-1 11 -4 4410.9 204.257 15
-1 11 -4 5188.05 240.475 5
-1 11 -5 43.6582 30.4978 5
1 -10 -2 105.268 40.8392 6
-1 10 2 96.4297 40.003 15
-1 10 1 38719.8 869.409 15
1 -10 -1 41619.9 891.808 6
-1 10 0 8141.34 355.55 15
-1 10 -1 978.813 127.778 15
-1 10 -2 7476.36 362.718 15
-1 10 -3 13988.1 506.481 15
-1 10 -3 14955.7 560.257 5
-1 10 -4 451.588 147.826 5
-1 10 -4 507.779 93.0548 15
-1 10 -5 3537.41 216.671 15
-1 10 -5 3958.49 258.219 5
-1 10 -6 3209.75 190.198 7
-1 10 -6 5283.58 271.812 5
-1 10 -7 1855.17 143.474 5
1 -9 -4 2037.11 126.007 12
-1 9 3 30339.3 721.792 15
1 -9 -3 29388.6 683.736 12
1 -9 -3 30166.8 714.773 6
1 -9 -2 751.724 101.7 12
1 -9 -2 676.042 106.985 6
-1 9 2 710.341 106.878 15
-1 9 1 17247.2 593.344 15
1 -9 -1 15817.3 519.758 12
-1 9 0 816.708 133.158 15
-1 9 -1 2430.49 228.504 15
-1 9 -2 5689.39 349.028 15
-1 9 -3 330.422 91.1185 15
-1 9 -3 272.44 80.1634 9
-1 9 -4 2223.07 208.518 15
-1 9 -4 2041.11 229.653 5
-1 9 -4 1908.56 188.538 9
-1 9 -5 16268.8 570.778 15
-1 9 -5 17461.2 670.432 5
-1 9 -6 1152.35 162.338 5
-1 9 -6 813.198 110.846 15
-1 9 -7 516.339 97.0404 5
-1 9 -7 412.626 82.5696 7
-1 9 -8 2417.73 173.085 5
-1 9 -8 1971.26 150.924 7
1 -8 -5 135.294 44.8991 11
1 -8 -5 140.748 43.4488 12
1 -8 -5 160.73 43.1934 14
1 -8 -4 1702.46 155.737 11
1 -8 -4 1638.19 141.444 14
-1 8 4 1652.44 151.782 15
1 -8 -4 1704.2 154.195 12
-1 8 3 463.669 98.0495 15
1 -8 -3 415.37 82.348 12
1 -8 -3 541.617 97.4007 11
1 -8 -2 2118.61 197.436 12
-1 8 2 2259.42 213.751 15
-1 8 1 37963 1013.64 15
1 -8 -1 37360.8 946.263 12
-1 8 0 6616.78 349.732 9
-1 8 0 6895.42 392.659 15
1 -8 0 5816.64 325.882 12
-1 8 -1 23554.3 726.345 9
-1 8 -1 26134.4 808.706 15
-1 8 -2 52590.2 1224.49 9
-1 8 -2 56830.5 1303.19 15
-1 8 -3 6025.84 361.62 15
-1 8 -3 5324.2 331.467 9
-1 8 -4 290.598 83.9638 15
-1 8 -4 483.762 108.704 9
-1 8 -5 13213.3 534.626 15
-1 8 -5 14428.7 659.621 5
-1 8 -6 943.377 134.836 15
-1 8 -6 1072.55 174.785 5
-1 8 -7 1842.57 207.389 7
-1 8 -7 1888.15 209.671 5
-1 8 -8 20690.6 668.933 7
-1 8 -8 21121.5 655.896 5
-1 8 -9 6605.94 298.655 7
-1 8 -9 6284.17 274.952 5
1 -7 -7 386.002 62.0882 11
1 -7 -7 428.583 59.8462 12
1 -7 -6 340.605 70.6103 12
1 -7 -6 213.565 57.4745 11
1 -7 -6 304.46 65.4099 14
1 -7 -5 25695.5 744.019 11
1 -7 -5 26708.9 731.537 12
1 -7 -5 25151.3 694.873 14
1 -7 -4 11766.1 480.292 12
1 -7 -4 11661.6 485.958 6
1 -7 -4 11298.8 454.662 14
1 -7 -3 1318.95 162.616 12
1 -7 -3 1394.21 158.955 14
-1 7 3 1403.74 163.173 9
1 -7 -3 1292.3 170.266 6
1 -7 -2 45578.9 1083.73 12
-1 7 2 43913.3 1065.48 9
-1 7 1 87367.6 1734.98 9
-1 7 1 94393.6 2122.34 19
1 -7 -1 90395.1 1743.61 12
1 -7 -1 96641.7 2209.71 2
-1 7 0 375.768 117.669 19
-1 7 0 246.268 76.687 9
1 -7 0 356.854 83.2795 12
1 -7 0 390.929 130.364 2
1 -7 0 358.594 125.71 1
-1 7 -1 27270.6 788.697 9
-1 7 -1 31219.4 1044.49 19
-1 7 -1 29855.4 848.683 15
1 -7 1 29976.8 1038.52 1
1 -7 2 57076.9 1494.16 1
-1 7 -2 54807.1 1469.1 19
-1 7 -2 52767.9 1225.21 15
-1 7 -3 18901.6 805.749 19
-1 7 -3 17690.4 631.028 9
-1 7 -3 18978 652.049 15
1 -7 3 20333.3 837.683 1
-1 7 -4 432.066 101.453 15
-1 7 -4 510.903 144.608 19
-1 7 -4 350.174 101.849 9
1 -7 4 454.13 132.746 1
1 -7 5 9227.87 589.538 1
-1 7 -5 9011.98 461.887 9
-1 7 -5 10066.2 562.563 5
-1 7 -5 8640.55 567.692 19
-1 7 -5 9011.68 432.333 15
-1 7 -6 9942.5 431.787 10
-1 7 -6 10622.6 569.011 5
-1 7 -7 25520.4 897.292 7
-1 7 -7 25483.8 867.646 5
-1 7 -7 24770.9 740.08 10
-1 7 -8 7320.42 402.515 5
-1 7 -8 7366.85 433.395 7
-1 7 -9 6426.53 355.815 7
-1 7 -9 6113.46 312.816 5
-1 7 -10 4974.47 248.453 7
1 -6 -8 917.797 84.3448 12
1 -6 -8 833.357 81.1912 14
1 -6 -8 1017.48 93.6307 11
1 -6 -7 3014.63 199.08 12
1 -6 -7 2663.32 200.205 11
1 -6 -7 2808.05 190.22 14
1 -6 -6 343.386 88.6865 11
1 -6 -6 335.087 82.425 14
-1 6 6 470.932 89.519 9
1 -6 -6 306.242 80.5304 12
1 -6 -5 8448.83 415.943 12
1 -6 -5 8588.53 392.422 7
1 -6 -5 8093.43 396.44 14
-1 6 5 8068.77 391.68 9
1 -6 -4 26879.7 821.961 6
-1 6 4 25347.8 765.824 9
1 -6 -4 26690.4 771.722 14
1 -6 -4 27117 799.394 12
1 -6 -4 27605.8 784.327 7
-1 6 3 1455.21 168.436 9
-1 6 3 1555.05 222.557 16
1 -6 -3 1580.06 175.628 12
1 -6 -3 1309.07 222.858 2
1 -6 -3 1474.84 161.815 14
1 -6 -3 1539.96 170.418 7
-1 6 2 47031.9 1096.67 9
1 -6 -2 48210.2 1098.97 12
1 -6 -2 51114.2 1431.71 2
-1 6 2 47736.1 1276.38 16
1 -6 -2 46097.9 1068.1 7
1 -6 -2 47702.8 1070.95 14
1 -6 -1 368.154 122.317 1
-1 6 1 423.752 104.05 16
1 -6 -1 276.44 107.355 2
1 -6 0 60296.2 1500.5 1
-1 6 0 59894.1 1462.63 19
1 -6 1 199272 3463.85 1
-1 6 -1 195321 3430.42 19
1 -6 2 3875.68 320.97 1
-1 6 -2 3961.77 318.433 19
-1 6 -3 1332.73 194.033 19
1 -6 3 1513.96 209.318 1
1 -6 4 49875.8 1365.93 1
-1 6 -4 46542.9 1100.34 15
-1 6 -4 50063.6 1352.46 19
-1 6 -4 49115.1 1157.22 9
-1 6 -5 1467.97 181.026 9
-1 6 -5 1397.58 200.906 5
-1 6 -5 1400.61 211.455 19
-1 6 -5 1578.08 164.314 10
1 -6 5 1301.26 212.253 1
-1 6 -5 1358.78 156.046 15
-1 6 -6 1291.2 193.912 5
1 -6 6 1148.66 209.654 1
-1 6 -6 1422.86 168.191 10
-1 6 -6 1252.05 209.541 19
-1 6 -7 5043.77 370.773 5
-1 6 -7 5298.7 395.978 7
-1 6 -7 5728.25 351.465 10
-1 6 -8 646.122 123.741 10
-1 6 -8 295.853 92.9289 5
-1 6 -8 374.877 114.821 7
-1 6 -9 4547.29 288.835 5
-1 6 -9 5395.28 356.363 7
-1 6 -10 7987.38 368.53 7
-1 6 -10 7765.58 300.377 5
1 -5 -8 4571.87 264.172 11
1 -5 -8 4112.92 230.09 14
1 -5 -8 4546.57 242.213 12
1 -5 -7 3128.07 234.092 12
1 -5 -7 3134.13 232.637 14
1 -5 -7 3547.21 275.343 11
1 -5 -7 2840.03 200.455 7
-1 5 7 3163.96 228.316 9
1 -5 -6 3258.12 255.377 12
-1 5 6 3060.79 246.657 9
1 -5 -6 3116.59 234.832 7
1 -5 -6 3187.28 255.065 14
-1 5 5 5387.95 334.037 9
1 -5 -5 5841.57 346.443 14
1 -5 -5 6321.03 345.902 7
1 -5 -5 6119.47 352.169 12
1 -5 -4 16577.4 582.939 14
1 -5 -4 17298.6 809.34 2
-1 5 4 17057.1 748.206 16
1 -5 -4 17573 603.493 12
1 -5 -4 16830.2 584.913 7
-1 5 4 15865.4 578.788 9
1 -5 -3 5161.71 292.867 14
-1 5 3 5401.92 309.387 9
1 -5 -3 5627.11 307.729 12
1 -5 -3 5358.19 408.65 2
-1 5 3 5400.76 381.776 16
1 -5 -2 16410.9 660.214 4
-1 5 2 15673.3 623.591 16
1 -5 -2 16268 691.015 2
1 -5 -1 11217 492.212 4
-1 5 1 10322.8 460.823 16
1 -5 -1 12006.5 543.89 1
1 -5 -1 11832.8 556.011 2
1 -5 0 189941 3218.74 1
-1 5 0 188189 3002.27 18
1 -5 0 191388 3070.09 4
-1 5 0 188102 3036.06 16
-1 5 -1 16606 603.087 19
-1 5 -1 16215.2 530.896 18
1 -5 1 16864.5 618.232 1
1 -5 1 15656.4 486.694 4
1 -5 2 1520.8 182.625 1
-1 5 -2 1648.8 168.935 18
-1 5 -2 1518.6 176.575 19
-1 5 -3 8886.63 448.967 19
1 -5 3 10167.2 489.86 1
-1 5 -4 3462.93 291.749 19
1 -5 4 3443.62 303.605 1
1 -5 5 36784.2 1123.25 1
-1 5 -5 36745.1 1028.94 5
-1 5 -5 33942 944.322 9
-1 5 -5 34711.6 1054.06 19
-1 5 -6 70629.6 1603.06 5
-1 5 -6 69689.9 1710.03 19
1 -5 6 72190.2 1814.06 1
-1 5 -6 74201.9 1514.09 10
-1 5 -7 13100.9 621.146 7
-1 5 -7 11708.7 554.688 5
-1 5 -7 10922.8 620.981 19
1 -5 7 12556.7 709.959 1
-1 5 -7 13499 561.665 10
-1 5 -8 6502.02 427.179 7
-1 5 -8 5843.46 372.878 5
-1 5 -8 6326.28 390.513 10
-1 5 -9 27537.4 884.996 7
-1 5 -9 24802.6 761.149 5
-1 5 -10 321.832 67.4448 5
-1 5 -10 390.768 91.5487 7
-1 5 -11 4043.47 212.209 7
-1 4 9 305.306 57.9512 9
1 -4 -9 509.605 76.104 12
1 -4 -9 470.198 75.1627 14
1 -4 -9 477.377 84.7615 11
1 -4 -8 108.288 58.6741 14
-1 4 8 187.377 60.6179 9
1 -4 -8 94.3673 56.3779 11
1 -4 -8 60.6655 49.5106 7
1 -4 -8 63.1608 42.3602 12
1 -4 -7 28.5644 65.096 11
1 -4 -7 20.0176 49.3831 7
1 -4 -7 134.804 66.3395 12
-1 4 7 -1.51756 65.5262 9
1 -4 -7 -23.8276 44.1646 14
1 -4 -6 55429.9 1290.1 14
1 -4 -6 53581.6 1212.94 7
1 -4 -6 55768.9 1277.26 12
-1 4 6 51612.6 1248.55 9
1 -4 -5 12437.1 487.718 7
1 -4 -5 12845.8 674.847 2
-1 4 5 11926.5 503.223 9
1 -4 -5 12129.6 503.719 14
1 -4 -5 12593.5 501.987 12
-1 4 5 12739.6 647.457 16
-1 4 4 2398.58 256.429 16
1 -4 -4 2020.68 183.201 12
1 -4 -4 1933.29 180.577 14
1 -4 -4 2238.68 260.141 2
-1 4 4 2255.71 198.478 9
-1 4 4 2191.93 219.616 18
-1 4 3 146.146 66.8713 16
1 -4 -3 136.501 73.4112 4
1 -4 -3 136.991 79.5234 2
-1 4 3 87.6314 52.3637 18
-1 4 2 246026 3931.12 16
1 -4 -2 247573 4005.39 2
-1 4 2 244799 3803.81 18
1 -4 -2 252566 3980.27 4
-1 4 1 19011.2 542.684 18
1 -4 -1 19003.5 641.887 2
1 -4 -1 18812 596.141 4
1 -4 -1 18953.7 624.415 1
-1 4 1 19807.8 599.191 16
-1 4 0 2183.8 164.795 16
-1 4 0 2115.45 160.853 18
1 -4 0 2124.94 191.138 1
1 -4 0 2370.78 173.671 4
-1 4 -1 2956.2 193.527 18
1 -4 1 2997.68 221.992 1
-1 4 -1 2782.1 206.952 19
1 -4 1 2989.37 172.499 4
-1 4 -1 3367.9 176.858 16
-1 4 -2 33672 794.361 18
1 -4 2 31161.2 828.994 1
1 -4 2 32886.6 630.404 4
-1 4 -2 33199.9 828.059 19
1 -4 3 37049 945.015 1
-1 4 -3 37276 923.175 19
1 -4 4 2224.63 219.366 1
-1 4 -4 2165.31 205.326 19
-1 4 -5 36591.7 1010.38 19
1 -4 5 37943.2 1089.06 1
1 -4 6 157463 3025.74 1
-1 4 -6 157523 2764.33 5
-1 4 -6 157834 2814.13 7
-1 4 -6 154622 2892.41 19
-1 4 -7 12674.8 579.131 7
-1 4 -7 11916 617.037 19
-1 4 -7 14002.5 573.446 10
-1 4 -7 12032 535.36 5
1 -4 7 13207.6 704.958 1
-1 4 -8 4578.25 334.838 10
-1 4 -8 4171.43 335.074 7
-1 4 -8 4423.81 319.604 5
-1 4 -9 18795.9 647.245 5
-1 4 -9 21339.4 761.133 7
-1 4 -10 -31.2899 43.5227 5
-1 4 -10 -17.3929 48.3467 7
-1 4 -11 532.66 87.9507 7
1 -3 -10 446.776 63.567 12
1 -3 -10 381.307 58.7187 14
1 -3 -9 8133.99 354.614 12
1 -3 -9 7069.37 299.782 7
1 -3 -9 7984.68 353.448 14
1 -3 -9 7664.21 364.967 11
-1 3 9 8008.76 355.398 9
1 -3 -8 64.1187 53.6138 12
1 -3 -8 54.0934 61.7432 7
1 -3 -8 10.454 70.6325 11
1 -3 -8 221.427 75.9691 14
-1 3 8 60.9195 60.3535 9
1 -3 -7 42710.1 1087.51 12
1 -3 -7 41168.7 1027.87 7
-1 3 7 41656 1099.19 9
1 -3 -7 42908.8 1109.88 14
1 -3 -6 1321.03 164.538 12
-1 3 6 1454.43 218.379 16
1 -3 -6 1330.83 219.232 2
1 -3 -6 1159.89 147.734 7
1 -3 -6 1409.14 174.246 14
-1 3 6 1603.05 227.891 18
-1 3 6 1229.9 163.161 9
1 -3 -5 13756.4 494.432 7
-1 3 5 13299.7 581.764 18
1 -3 -5 13573 511.988 14
-1 3 5 12926.3 510.288 9
1 -3 -5 13747.3 507.674 12
1 -3 -5 13795 648.992 2
-1 3 5 13760.1 641.705 16
-1 3 4 14239.6 542.843 18
1 -3 -4 15700.3 672.466 4
1 -3 -4 14577.3 615.725 2
-1 3 4 15786.6 625.551 16
-1 3 3 17382.2 542.31 18
1 -3 -3 16579.8 603.012 2
1 -3 -3 18143.8 648.693 4
-1 3 3 18128.1 617.481 16
-1 3 2 5546.26 294.23 16
1 -3 -2 5426.66 295.142 2
1 -3 -2 5442.12 301.632 4
-1 3 2 5270.41 247.162 18
1 -3 -1 964.561 119.065 2
1 -3 -1 818.176 104.94 4
-1 3 1 1063.19 115.652 16
1 -3 -1 834.608 104.735 1
-1 3 1 1035.96 96.5852 18
1 -3 0 316545 4586.34 4
-1 3 0 315881 4569.69 16
1 -3 0 316927 4658.05 1
-1 3 0 322884 4557.8 18
-1 3 -1 10606.9 362.714 19
1 -3 1 10547.3 369.35 1
-1 3 -1 10657.7 287.363 16
-1 3 -1 10518.2 324.177 18
1 -3 1 10977.2 304.125 4
1 -3 2 94280.9 1440.26 4
1 -3 2 99303.5 1673.89 1
-1 3 -2 96570.3 1638.43 19
-1 3 -3 123599 2054.17 19
1 -3 3 121272 2081.8 1
1 -3 4 2572.99 214.812 1
-1 3 -4 2516.02 196.861 19
-1 3 -5 256.031 73.5052 19
1 -3 5 98.11 57.4456 1
-1 3 -6 4332.44 309.487 19
-1 3 -6 4002.9 272.883 10
1 -3 6 4004.72 337.357 1
-1 3 -7 23641.1 752.793 5
1 -3 7 25660.9 983.941 1
-1 3 -7 25128 864.685 19
-1 3 -7 25581.1 830.902 7
-1 3 -7 25579.2 794.487 10
-1 3 -8 202020 3404.82 7
-1 3 -8 192470 3261.39 12
-1 3 -8 191962 3268.27 5
-1 3 -9 1154.85 171.236 7
-1 3 -9 1261 161.533 5
-1 3 -10 628.23 117.744 7
-1 3 -10 576.487 94.221 5
-1 3 -11 236.093 66.9239 7
1 -2 -10 6243.16 276.3 12
1 -2 -10 6478.02 282.659 14
-1 2 10 6170.68 278.728 9
-1 2 9 148.375 68.6803 9
1 -2 -9 162.677 60.4117 12
1 -2 -9 204.595 74.385 11
1 -2 -9 240.083 65.3628 7
1 -2 -9 329.17 81.4101 14
-1 2 8 17799.2 670.258 9
1 -2 -8 17961.5 619.235 7
1 -2 -8 18192.7 654.555 12
1 -2 -8 18057.1 657.338 14
1 -2 -8 17281.1 697.764 11
1 -2 -7 19332.1 862.401 2
-1 2 7 18556.1 806.22 16
1 -2 -7 18997.3 678.694 14
-1 2 7 19494.5 854.784 18
1 -2 -7 20083.8 688.132 12
1 -2 -7 19540.9 647.733 7
-1 2 6 48201.3 1321.79 16
1 -2 -6 46865.3 1081.83 7
1 -2 -6 48259.6 1132.88 12
1 -2 -6 49403.2 1370.57 2
-1 2 5 29836.4 907.848 16
1 -2 -5 29983.7 929.495 2
1 -2 -5 28121.8 781.802 3
1 -2 -4 5744.97 338.928 2
1 -2 -4 5303.72 284.952 3
-1 2 4 5991.69 339.032 16
1 -2 -4 5627.43 369.542 4
1 -2 -3 108428 1939.47 2
-1 2 3 115132 1962.1 16
1 -2 -3 113498 2034.29 4
-1 2 3 107455 1788.15 17
-1 2 2 46.5015 25.4693 17
-1 2 2 35.3472 36.2606 16
1 -2 -2 124.226 48.8797 2
1 -2 -2 135.521 53.7406 4
-1 2 1 56034.6 937.8 18
1 -2 -1 59118.3 1057.79 2
1 -2 -1 59432.5 1044.8 1
-1 2 1 58989.6 1018.6 17
-1 2 1 59008.3 1048.69 16
-1 2 0 99005.6 1494.3 16
-1 2 0 94644.6 1444.05 18
1 -2 0 99203.6 1517.44 4
1 -2 0 94012.1 1528.66 1
-1 2 -1 12949.3 266.422 16
-1 2 -1 13269.5 341.293 17
-1 2 -1 13442.7 347.705 19
-1 2 -1 13236.4 295.911 18
1 -2 1 13065.8 351.715 1
1 -2 1 12958.2 301.584 4
-1 2 -2 97706.3 1523.62 19
1 -2 2 93252.6 1405.93 4
1 -2 2 94441.8 1542.28 1
-1 2 -3 100613 1205.39 2
1 -2 3 101431 1252.31 1
-1 2 -3 101237 1171.99 19
-1 2 -3 102260 1195.28 3
1 -2 4 42624.2 989.51 1
-1 2 -4 43178.5 949.726 2
-1 2 -4 42834.7 912.518 19
-1 2 -4 42570.5 909.77 3
1 -2 5 63378.9 1401.53 1
-1 2 -5 61128.5 1323.62 2
-1 2 -5 61098.3 1272.2 19
-1 2 -5 61693 1260.49 3
-1 2 -6 99574.9 1863.1 3
-1 2 -6 96908.6 1986.96 2
1 -2 6 97824.7 2063.07 1
-1 2 -6 94935.2 1866.61 19
-1 2 -7 5559.38 328.496 12
-1 2 -7 6247.32 372.076 7
1 -2 7 6491.46 467.603 1
-1 2 -7 6268.43 430.891 2
-1 2 -7 5593.96 330.266 5
-1 2 -7 5757.76 351.355 10
-1 2 -8 4325.99 297.436 5
-1 2 -8 4286.46 297.568 12
-1 2 -8 4105.27 311.379 7
-1 2 -9 86.7706 70.1853 7
-1 2 -9 18.3801 58.7148 12
-1 2 -9 31.7219 50.0407 5
-1 2 -10 2592.2 190.227 5
-1 2 -10 2689.77 224.297 7
-1 2 -11 1402.31 130.601 7
1 -1 -10 14483.9 492.168 14
1 -1 -10 15776.3 504.921 12
-1 1 10 15225.6 515.392 9
1 -1 -9 17320.4 610.581 12
1 -1 -9 15774.2 559.442 7
1 -1 -9 17171.8 617.353 14
-1 1 9 16296.2 618.802 9
1 -1 -8 1290.68 173.58 14
1 -1 -8 1453.24 173.489 7
1 -1 -8 1182.73 162.613 12
1 -1 -8 1394.51 181.005 11
-1 1 7 844.321 155.77 16
1 -1 -7 751.606 124.553 12
1 -1 -7 645.493 153.269 2
1 -1 -7 818.103 131.542 7
1 -1 -6 2970.33 227.613 12
1 -1 -6 3243.9 296.483 2
-1 1 6 2759.03 258.654 16
-1 1 5 99167.4 1917.13 16
1 -1 -5 103357 1980.86 2
-1 1 4 51381.9 1104.62 16
1 -1 -4 50482.2 984.311 3
1 -1 -4 52421.6 1212.52 4
1 -1 -4 52606.8 1132.97 2
-1 1 3 14175.1 357.463 17
1 -1 -3 14344.7 489.185 4
-1 1 3 14562.2 448.159 16
1 -1 -3 13719.9 435.103 2
1 -1 -2 577.935 81.6397 4
-1 1 2 444.627 64.5013 16
1 -1 -2 829.692 83.2683 2
-1 1 2 693.877 63.892 17
-1 1 1 177.815 31.9844 17
1 -1 -1 261.509 38.0435 2
-1 1 1 158.977 34.7356 16
1 -1 0 1556.48 84.7046 4
1 -1 0 1482.79 72.383 1
1 -1 1 23796.4 441.732 1
-1 1 -1 25012.6 432.749 2
-1 1 -1 24452 435.53 17
1 -1 1 23561.3 437.99 4
-1 1 -1 24396.4 430.42 19
-1 1 -2 243.73 41.8314 2
-1 1 -2 320.141 41.9315 19
-1 1 -3 64482.6 1162.91 3
-1 1 -3 66216.2 1131.93 19
-1 1 -3 66577.8 1184.95 2
1 -1 3 67450.6 1089.07 16
-1 1 -4 39.8834 39.8877 2
-1 1 -4 86.3421 41.7401 19
-1 1 -4 133.829 49.8128 3
1 -1 4 153.744 42.9099 16
-1 1 -5 191092 3107.32 3
1 -1 5 194865 2990.46 16
-1 1 -5 194345 3084.56 19
-1 1 -5 198169 3218.82 2
-1 1 -6 1197.27 176.422 2
-1 1 -6 1432.74 167.246 3
-1 1 -7 2873.31 298.23 2
-1 1 -7 2288.8 207.283 5
-1 1 -7 2759.9 241.093 7
-1 1 -7 2602.14 222.106 12
-1 1 -8 7036.98 381.025 12
-1 1 -8 6191.83 378.671 7
-1 1 -8 6291.13 366.601 14
-1 1 -8 6846.45 370.418 5
-1 1 -9 -27.3357 55.1195 12
-1 1 -9 33.2092 62.8344 5
-1 1 -9 4.78151 53.1313 7
-1 1 -10 9834.06 396.786 12
-1 1 -10 10094 430.493 7
1 -1 11 433.909 69.265 9
-1 1 -11 469.351 73.913 7
1 0 -11 1774.38 131.876 12
-1 0 11 2020.35 147.134 9
1 0 -10 576.339 99.2119 12
1 0 -10 496.1 91.784 7
-1 0 10 457.27 102.257 9
1 0 -10 419.763 84.4126 14
1 0 -9 1544.53 185.364 14
1 0 -9 1418.27 167.035 7
1 0 -9 1420.87 175.775 12
1 0 -8 16549.4 609.696 7
1 0 -8 16779.8 629.729 12
1 0 -7 3544.52 329.555 2
1 0 -7 4023.69 280.581 7
1 0 -7 3350.28 259.549 12
-1 0 6 157935 2762.25 16
1 0 -6 164469 2926.32 2
-1 0 5 68455.7 1371.15 16
1 0 -5 69640.9 1466.54 2
-1 0 4 1227.72 123.701 16
1 0 -4 886.048 81.3387 3
-1 0 4 1012.64 82.6133 17
1 0 -4 938.568 118.584 2
1 0 -4 1145.94 132.577 4
-1 0 3 91871.9 1408.7 17
1 0 -3 92871.8 1546.46 2
1 0 -3 92829.7 1535.7 19
1 0 -3 89485.1 1561.61 4
1 0 -3 89745.4 1375.14 3
-1 0 3 92382.3 1521.17 16
1 0 -2 805.014 74.0073 2
-1 0 2 1013.77 68.0552 17
1 0 -2 880.43 82.6142 4
1 0 -2 849.343 44.97 3
-1 0 2 860.31 77.5385 16
1 0 -1 15002.5 304.813 18
1 0 -1 15361.5 321.988 4
-1 0 1 14513.3 300.444 17
1 0 -1 15244.6 297.144 2
-1 0 1 14923.4 322.295 16
-1 0 0 53423.2 794.512 3
1 0 0 53432.8 805.308 18
1 0 0 52136.9 743.858 19
-1 0 0 54384.5 804.107 17
-1 0 -1 63528.7 932.046 2
-1 0 -1 59234.5 879.577 17
-1 0 -2 586.346 52.3642 19
-1 0 -2 586.664 65.3522 2
1 0 2 705.227 71.5585 16
-1 0 -3 11701.6 378.065 2
1 0 3 11239.1 358.872 16
-1 0 -3 11053.9 366.284 3
1 0 4 10360.6 386.325 16
-1 0 -4 10939.2 426.242 2
-1 0 -4 10561.6 400.182 3
1 0 5 258.161 72.0807 16
-1 0 -5 261.473 71.7164 3
-1 0 -5 228.281 74.4544 2
-1 0 -6 22193.2 674.851 7
1 0 6 21315.5 702.164 16
-1 0 -6 22063.4 806.812 2
-1 0 -6 21038.4 714.509 3
-1 0 -7 77140.5 1599.08 14
-1 0 -7 79969.8 1627.72 7
-1 0 -7 77865.4 1590.03 12
-1 0 -7 78140.3 1578.78 5
-1 0 -7 80325.2 1919.79 2
-1 0 -7 75372.7 1601.56 11
-1 0 -8 1658.43 196.203 7
-1 0 -8 1770.43 194.509 14
-1 0 -8 1618.11 183.41 11
-1 0 -8 1758.89 192.182 12
-1 0 -8 1734.77 187.767 5
-1 0 -9 4258.05 284.931 12
-1 0 -9 4433.12 293.156 14
-1 0 -9 4782.85 315.978 7
1 0 10 11265.1 436.634 9
-1 0 -10 11620.7 419.409 12
-1 0 -10 12463.3 456.265 7
-1 0 -11 4982.82 211.628 7
-1 -1 11 819.626 107.383 9
1 1 -11 993.248 107.659 12
1 1 -11 980.051 100.046 7
1 1 -10 10.7005 41.2344 14
1 1 -10 24.3162 36.1421 12
1 1 -10 15.7885 44.7646 7
1 1 -9 885.258 137.621 7
1 1 -9 732.153 132.428 12
1 1 -8 19069.1 668.576 7
1 1 -8 18802.1 676.212 12
1 1 -7 564.316 136.905 2
1 1 -7 405.445 95.5334 7
1 1 -6 1449.08 187.279 2
1 1 -5 2326.82 208.908 2
-1 -1 5 2443.46 174.286 16
1 1 -5 1998.82 187.133 19
1 1 -4 122298 1963.65 4
-1 -1 4 124354 1994.47 16
1 1 -4 128071 1890.44 3
1 1 -4 128125 2125.5 2
-1 -1 4 125334 1928.73 17
1 1 -4 128052 2111.7 19
-1 -1 3 187225 2781.14 17
-1 -1 3 191473 2811.51 16
1 1 -3 198543 2905.17 19
1 1 -3 197881 2916.28 2
1 1 -3 189929 2783.61 4
1 1 -2 7324.03 245.097 2
-1 -1 2 7288.13 215.034 16
1 1 -2 7616.37 200.783 4
1 1 -1 2321.66 104.76 19
-1 -1 1 2123.47 106.573 1
1 1 0 50037.2 764.279 19
-1 -1 0 46789.8 803.285 1
-1 -1 -1 42537.5 776.026 2
1 1 2 110907 1826.55 16
-1 -1 -2 114950 1821.29 2
-1 -1 -2 112194 1820.09 3
1 1 3 13847.9 464.248 16
-1 -1 -3 13524.6 455.616 3
-1 -1 -3 15020.5 477.324 2
1 1 4 48881.5 1106.37 16
-1 -1 -4 47973.9 1095.54 3
-1 -1 -4 49542.7 1133.31 2
-1 -1 -5 21634.9 726.478 3
-1 -1 -5 23339.5 784.64 2
1 1 5 22124.8 734.698 16
-1 -1 -6 3656.64 256.438 5
1 1 6 3467.04 298.641 16
-1 -1 -6 3524.34 294.419 3
-1 -1 -6 3626.6 258.109 7
-1 -1 -6 3370.92 245.526 12
-1 -1 -6 3616.82 280.598 11
-1 -1 -6 3283.55 246.232 14
-1 -1 -6 3352.98 319.481 2
-1 -1 -7 48806 1167.48 5
1 1 7 53902.4 1580.3 18
-1 -1 -7 49327.2 1183.1 12
-1 -1 -7 49405.3 1474.34 2
-1 -1 -7 50751.5 1205.75 7
-1 -1 -7 49519.4 1202.09 14
-1 -1 -7 49040.8 1261.82 11
-1 -1 -8 9153.61 441.125 12
-1 -1 -8 8724.94 468.4 11
-1 -1 -8 9085.12 448.832 14
-1 -1 -8 9310.63 456.791 7
-1 -1 -9 6319.86 351.698 11
1 1 9 5740.47 337.792 9
-1 -1 -9 6147.48 336.978 14
-1 -1 -9 6496.96 354.608 7
-1 -1 -9 6173.74 335.499 12
-1 -1 -10 116.55 46.779 12
1 1 10 173.363 54.0993 9
-1 -1 -10 194.156 57.9871 14
-1 -1 -10 65.7306 44.5914 7
1 2 -11 3688.6 211.509 12
1 2 -11 3470.33 196.758 7
1 2 -10 6581.4 342.795 7
1 2 -10 6894.54 364.548 12
1 2 -10 6630.32 351.888 14
1 2 -9 1503.83 183.061 7
1 2 -9 1654.99 191.838 12
-1 -2 8 117.807 127.119 1
1 2 -8 37.0003 56.5927 7
1 2 -8 70.3818 81.7422 2
1 2 -7 32.3835 53.6998 19
1 2 -7 79.2108 48.4809 7
1 2 -6 170053 3000.15 19
1 2 -6 174012 3044.12 2
-1 -2 6 171793 3136.67 1
1 2 -5 69873.5 1458.93 2
-1 -2 5 72286.9 1535.59 1
1 2 -5 69663.8 1449.22 19
-1 -2 4 69979.5 1388.66 1
1 2 -4 65886.7 1308.48 19
1 2 -4 68141.6 1326.33 2
1 2 -3 29609.9 689.7 2
-1 -2 3 29070.6 708.776 1
1 2 -3 28407.1 668.394 19
1 2 -3 28539.9 726.983 18
1 2 -2 79392 1173 4
-1 -2 2 101449 1470.86 1
-1 -2 1 13595.1 390.718 1
1 2 -1 13779.9 361.016 19
1 2 0 26606.6 544.162 19
-1 -2 0 23463.7 573.694 1
1 2 1 7107.32 277.247 18
-1 -2 -1 7379.37 292.648 1
1 2 1 7018.37 278.918 16
1 2 2 372829 5341.11 18
1 2 2 356409 5365.1 16
-1 -2 -2 371819 5389.45 2
-1 -2 -3 3900.1 262.145 3
1 2 3 4034.33 258.414 18
-1 -2 -3 3968.8 266.169 2
1 2 3 3905.96 254.774 16
1 2 4 6505.48 372.564 16
-1 -2 -4 6340.43 373.309 3
-1 -2 -4 6271.83 382.557 2
1 2 4 6075.01 359.613 18
1 2 5 444.206 115.008 18
-1 -2 -5 506.131 128.808 3
-1 -2 -5 324.37 107.846 2
1 2 5 327.846 103.138 16
-1 -2 -6 14552.1 679.123 3
-1 -2 -6 15115.6 581.211 14
1 2 6 15329 736.788 18
1 2 6 15370.7 697.676 16
-1 -2 -6 15902.3 583.202 5
-1 -2 -6 16209.7 586.576 7
-1 -2 -6 15252.1 566.666 12
-1 -2 -6 15346.1 655.186 11
-1 -2 -6 15791.9 752.805 2
-1 -2 -7 8162.53 427.411 14
-1 -2 -7 7493.97 465.6 11
-1 -2 -7 7150.54 393.881 12
-1 -2 -7 7872.08 418.492 7
1 2 8 2062.09 204.755 9
-1 -2 -8 2094.28 210.574 7
-1 -2 -8 2193.06 208.648 12
-1 -2 -8 2360.64 221.712 14
-1 -2 -8 1961.08 229.973 11
-1 -2 -9 10242.1 415.424 12
-1 -2 -9 10712.7 468.046 11
-1 -2 -9 10712 435.134 7
-1 -2 -9 10627.8 425.871 14
-1 -2 -10 2582.73 151.228 14
-1 -2 -10 2428.64 148.328 12
-1 -2 -10 2319.93 155.747 7
1 3 -11 6987.77 292.703 7
1 3 -11 6906.08 292.095 12
1 3 -10 15844.6 576.019 12
1 3 -10 16223.2 574.665 7
1 3 -9 2009.75 215.225 12
1 3 -9 2027.31 217.496 7
1 3 -8 15367 630.831 7
1 3 -7 13725.7 651.295 19
-1 -3 7 13948.2 714.491 1
1 3 -7 14255.2 578.737 7
1 3 -6 59638.1 1433.59 19
-1 -3 6 60879.8 1529.39 1
1 3 -5 6528.12 366.024 19
-1 -3 5 6798.24 402.248 1
1 3 -4 228497 3609.07 19
-1 -3 4 231093 3684.37 1
-1 -3 3 209.833 71.6128 1
1 3 -3 94.9857 50.1851 19
1 3 -3 165.821 67.1353 18
1 3 -2 44559.7 1014.42 18
-1 -3 2 42493.6 945.999 1
1 3 -2 42188.5 908.173 19
1 3 -1 21413 610.383 18
-1 -3 1 20459.7 588.731 1
1 3 -1 21197 554.62 19
1 3 0 31854.4 777.309 18
1 3 0 32168.5 724.596 19
1 3 0 30995.6 704.783 16
-1 -3 0 31420.1 777.488 1
1 3 1 123498 2105.49 18
-1 -3 -1 120118 2133.45 1
1 3 1 126807 2089.65 16
1 3 2 4019.49 261.458 16
-1 -3 -2 3647.7 267.415 2
1 3 2 4121.11 261.863 18
1 3 3 1940.21 199.285 18
-1 -3 -3 1748.16 209.373 2
1 3 3 1712.16 186.892 16
1 3 4 153717 2751.41 16
-1 -3 -4 143890 2805.08 3
-1 -3 -4 141179 2789.88 2
1 3 4 149260 2719.77 18
1 3 5 15093.9 684.838 16
-1 -3 -5 16185.8 650.197 11
-1 -3 -5 13928.8 535.942 12
-1 -3 -5 15230 562.274 14
1 3 5 15163.8 688.463 18
-1 -3 -5 14955.5 554.915 7
-1 -3 -5 13535.4 689.015 3
-1 -3 -5 14360.5 712.242 2
-1 -3 -6 445.706 102.048 12
-1 -3 -6 567.742 171.277 3
1 3 6 407.278 127.774 16
-1 -3 -6 404.97 109.721 11
1 3 6 489.198 139.893 18
-1 -3 -6 674.019 126.717 14
-1 -3 -6 674.913 175.037 2
-1 -3 -6 623.816 122.269 7
-1 -3 -7 10284.9 479.521 14
-1 -3 -7 9812.84 541.949 11
-1 -3 -7 9858.76 464.285 12
-1 -3 -7 10233.1 479.784 7
-1 -3 -8 7072.08 360.188 12
-1 -3 -8 6619.02 355.183 14
-1 -3 -8 6951.35 423.171 11
-1 -3 -8 6553.46 355.862 7
-1 -3 -9 4035.5 237.131 7
-1 -3 -9 4352.71 238.764 14
-1 -3 -9 4450.12 240.116 12
-1 -3 -9 4373.51 267.048 11
1 4 -11 8745.24 314.081 12
1 4 -11 9209.06 338.19 7
1 4 -10 70024.8 1435.6 7
1 4 -10 66557.3 1406.4 12
1 4 -9 5884.27 375.879 7
1 4 -8 4538.21 338.933 7
1 4 -7 483.078 122.319 7
-1 -4 7 479.62 145.116 1
1 4 -7 604.617 143.69 19
1 4 -6 1737.81 217.846 19
-1 -4 6 2042.28 254.991 1
1 4 -6 2121.87 204.253 10
1 4 -5 352.141 97.8937 19
-1 -4 5 153.501 66.9509 1
-1 -4 4 70081.7 1551.24 1
1 4 -4 70273.1 1610.9 18
1 4 -4 67478.8 1473.81 19
1 4 -3 9538.45 474.889 18
1 4 -3 8880.65 408.536 19
-1 -4 3 8723.55 427.316 1
1 4 -2 43544.6 1011.6 19
1 4 -2 45342.5 1102.87 18
-1 -4 2 43315.6 1048.93 1
1 4 -2 43145.7 833.903 16
1 4 -1 235233 3695.5 18
1 4 -1 227698 3455.66 16
-1 -4 1 234722 3687.8 1
1 4 -1 225379 3588.32 19
-1 -4 0 5597.26 329.469 1
1 4 0 5306.49 292.056 19
1 4 0 5750.82 328.68 18
1 4 0 5468.15 280.691 16
-1 -4 -1 4757.05 321.11 1
1 4 1 4660.41 282.977 16
-1 -4 -1 4920.02 337.837 2
1 4 1 5258.63 319.665 18
-1 -4 -2 66438.8 1560.4 2
1 4 2 66720.7 1456.35 16
1 4 2 66895 1473.15 18
1 4 3 18683.6 712.292 18
-1 -4 -3 18321.6 759.917 2
1 4 3 18641.9 712.42 16
-1 -4 -4 77320 1546.73 12
1 4 4 76706 1784.05 18
-1 -4 -4 74937.5 1883.76 2
-1 -4 -4 71381.5 1630.8 6
-1 -4 -4 79898.7 1563.86 14
1 4 4 79039.4 1822.58 16
-1 -4 -4 78128.9 1564.74 7
-1 -4 -4 76687.4 1963.9 3
1 4 5 19000.4 824.202 16
-1 -4 -5 18412 721.113 11
-1 -4 -5 18900.2 697.777 6
-1 -4 -5 18533.8 894.189 3
-1 -4 -5 18499 644.458 12
-1 -4 -5 18811.7 664.298 14
1 4 5 18219.3 805.582 18
-1 -4 -5 18543.2 654.933 7
-1 -4 -5 18304.8 869.115 2
-1 -4 -6 2087.89 243.59 11
-1 -4 -6 2231.9 214.72 12
-1 -4 -6 2188.19 218.099 7
-1 -4 -6 2358.24 227.178 14
-1 -4 -7 13961.7 545.034 14
-1 -4 -7 14616.8 627.207 11
-1 -4 -7 13496 546.68 7
-1 -4 -7 14243.8 545.131 12
-1 -4 -8 80.2292 45.9862 14
-1 -4 -8 87.4373 55.0029 11
-1 -4 -8 144.459 58.7525 12
-1 -4 -8 98.0693 52.8855 7
-1 -4 -9 20.4104 31.4798 7
-1 -4 -9 79.7714 36.4508 14
-1 -4 -9 16.7229 37.6445 11
-1 -4 -9 67.5796 30.9905 12
1 5 -11 4321.06 213.885 7
1 5 -10 45.9767 40.2216 12
1 5 -10 156.38 67.6099 7
1 5 -9 4179.43 313.674 7
1 5 -8 25832.6 876.895 7
1 5 -7 9183.92 419.193 15
1 5 -7 8375.21 547.93 19
1 5 -7 8193.16 405.256 5
1 5 -6 7469.54 374.777 15
1 5 -6 7707.59 396.408 5
-1 -5 6 8748.65 569.864 1
1 5 -6 8166.48 506.769 19
1 5 -5 53079.8 1393.06 19
-1 -5 5 57776.1 1509.56 1
1 5 -4 2907.2 269.137 19
-1 -5 4 3424.64 310.217 1
1 5 -4 3225.09 316.691 18
-1 -5 3 4877.17 349.396 1
1 5 -3 5202.45 376.878 18
1 5 -3 4930.41 336.84 19
1 5 -2 56741.5 1330.66 19
-1 -5 2 57098.2 1376.06 1
1 5 -1 3058.04 259.369 18
-1 -5 1 2651.72 251.387 1
1 5 -1 2679.58 233.569 19
1 5 -1 2661.27 195.15 16
1 5 0 2672.19 230.357 19
1 5 0 2563.29 212.594 16
1 5 0 2808.29 252.726 18
-1 -5 0 2706.86 260.416 1
1 5 1 238455 3925.82 19
1 5 1 238047 3914.1 16
-1 -5 -1 248965 4139.54 1
-1 -5 -1 253322 4205.99 2
1 5 1 237670 4012.06 18
1 5 2 20791.9 790.438 18
-1 -5 -2 21991.9 879.674 2
1 5 2 22414.6 791.793 16
1 5 3 7753.13 482.448 16
-1 -5 -3 7499.08 448.391 6
-1 -5 -3 7292.43 514.937 2
-1 -5 -3 7483.09 390.304 7
-1 -5 -3 7644.1 381.542 12
-1 -5 -3 7532.51 376.245 14
1 5 3 7472.63 481.579 18
-1 -5 -4 14333.9 589.212 11
-1 -5 -4 14489.1 574.061 7
-1 -5 -4 14592.1 563.545 14
1 5 4 12408.8 662.346 18
-1 -5 -4 13418.5 791.496 3
-1 -5 -4 14896.9 566.288 12
-1 -5 -4 14661.1 781.98 2
1 5 4 14296.2 707.858 16
-1 -5 -4 13918.6 629.561 6
-1 -5 -5 1113.92 159.182 14
-1 -5 -5 1087.42 153.78 12
-1 -5 -5 1474.1 193.845 6
-1 -5 -5 1166.49 166.172 7
-1 -5 -5 1554.9 199.68 11
-1 -5 -6 8816.63 423.911 12
-1 -5 -6 8234.03 420.041 14
-1 -5 -6 8766.57 434.663 7
-1 -5 -6 8768.86 457.772 11
-1 -5 -7 1933.63 192.311 11
-1 -5 -7 1919.88 177.333 12
-1 -5 -7 1677.38 168.654 7
-1 -5 -7 1960.73 181.252 14
-1 -5 -8 585.536 90.7898 11
-1 -5 -8 691.156 87.7836 12
-1 -5 -8 519.002 79.7299 7
-1 -5 -8 592.598 83.9019 14
1 6 -11 859.067 83.9238 7
1 6 -10 15136.2 507.886 7
1 6 -10 13340.3 429.743 12
1 6 -9 30513.9 893.17 7
1 6 -8 14126.3 621.644 7
1 6 -7 5384.02 325.077 15
1 6 -7 5540.02 338.054 5
-1 -6 6 3804.32 385.005 1
1 6 -6 3842.94 279.259 15
1 6 -6 3600.45 287.568 5
1 6 -6 3957.35 368.789 19
-1 -6 5 15557.3 767.723 1
1 6 -5 14720.4 706.793 19
1 6 -5 14796.5 568.598 15
-1 -6 4 10638.9 597.717 1
1 6 -4 9777.58 575.091 18
1 6 -4 10434.6 462.141 15
1 6 -4 10361.3 561.333 19
-1 -6 3 20111.7 811.551 1
1 6 -3 20101.7 784.14 19
1 6 -3 20045.3 800.848 18
1 6 -3 19733.7 649.51 15
-1 -6 2 2382.05 266.486 1
1 6 -2 2483.72 256.492 18
1 6 -2 2321.28 248.244 19
1 6 -1 4476.29 336.668 19
-1 -6 1 4378.14 356.614 1
1 6 -1 4561.35 342.388 18
1 6 0 193.391 72.6048 19
-1 -6 0 214.884 100.637 1
1 6 0 273.589 72.2561 15
1 6 0 301.472 95.9239 18
-1 -6 0 387.925 86.5619 12
1 6 0 244.369 83.5276 16
1 6 1 42338.1 1163.34 16
1 6 1 40169.3 1007.82 15
-1 -6 -1 45155.2 1370.19 2
-1 -6 -1 42652.9 1031.97 12
-1 -6 -1 43199.2 1055.33 7
-1 -6 -1 43866.9 1318.13 1
-1 -6 -1 41028.4 996.468 14
1 6 1 41598.8 1207.96 18
1 6 1 39379.7 1141.77 19
1 6 2 67.7415 40.2619 15
1 6 2 279.385 114.894 18
-1 -6 -2 183.536 62.5075 14
1 6 2 159.646 85.7751 19
-1 -6 -2 94.6008 66.2242 7
-1 -6 -2 110.501 51.4908 12
-1 -6 -2 212.62 78.1441 11
1 6 2 192.282 94.4725 16
-1 -6 -2 116.904 102.969 2
1 6 3 109196 2350.71 16
-1 -6 -3 109046 2233.98 6
-1 -6 -3 112009 2103.36 7
-1 -6 -3 111083 2547.79 2
1 6 3 107024 2284.82 19
-1 -6 -3 110051 2064.64 12
-1 -6 -3 108015 2035.72 14
-1 -6 -3 104162 2042.76 11
-1 -6 -4 5807.2 398.347 6
-1 -6 -4 6298.24 362.087 14
-1 -6 -4 6140.84 372.224 7
-1 -6 -4 6331.23 365.353 12
-1 -6 -4 6456.23 376.072 11
-1 -6 -5 3889.85 275.056 14
-1 -6 -5 4096.57 288.499 7
-1 -6 -5 4226.16 299.583 11
-1 -6 -5 3928.29 276.934 12
-1 -6 -5 3352.15 275.557 6
-1 -6 -6 2829.02 217.62 14
-1 -6 -6 2541.87 206.064 7
-1 -6 -6 2819.65 216.736 12
-1 -6 -6 2681.8 218.79 11
-1 -6 -7 15484.4 456.02 14
-1 -6 -7 15086.7 452.907 12
-1 -6 -7 14256.2 456.363 11
1 7 -10 37.8446 33.3263 7
1 7 -9 11382.9 474.358 7
1 7 -8 2261.66 232.065 7
1 7 -7 13509.9 540.025 5
1 7 -7 13769.9 532.292 15
1 7 -6 4192.05 297.986 15
1 7 -6 4034.17 312.267 5
1 7 -5 31752.4 1134.11 19
1 7 -5 31125.6 904.946 15
-1 -7 5 33225.8 1203.59 1
1 7 -4 4458.8 312.344 15
-1 -7 4 4931.08 434.504 1
1 7 -4 5155.36 420.49 18
1 7 -4 4859.5 408.505 19
1 7 -3 169416 2925.31 15
1 7 -3 163143 3158.92 18
1 7 -3 168518 3227.4 19
-1 -7 3 176002 3334.18 1
1 7 -2 3057.06 303.202 18
-1 -7 2 2543.61 298.272 1
1 7 -2 2392.81 222.503 15
1 7 -2 2229.36 265.123 19
-1 -7 1 493.518 96.9423 14
1 7 -1 639.875 149.623 19
1 7 -1 661.966 117.108 15
-1 -7 1 410.716 119.785 1
-1 -7 1 620.101 116.759 12
1 7 0 71.3971 52.1805 15
-1 -7 0 146.667 121.909 2
-1 -7 0 84.5107 56.8477 14
-1 -7 0 141.373 64.9155 12
-1 -7 0 91.305 69.9628 1
1 7 0 120.849 85.5715 19
1 7 1 17997.3 776.173 19
1 7 1 17952.1 638.071 15
-1 -7 -1 18674.6 659.894 12
-1 -7 -1 19520.6 914.196 2
-1 -7 -1 18152.4 621.775 14
-1 -7 -2 959.531 143.4 14
-1 -7 -2 878.314 136.887 7
-1 -7 -2 935.868 156.8 6
-1 -7 -2 1060.54 151.947 12
-1 -7 -3 51337.1 1210.34 12
-1 -7 -3 52161 1308.68 6
-1 -7 -3 49957.2 1154.54 11
-1 -7 -3 50575.7 1178.36 14
-1 -7 -3 50124.4 1203.2 7
-1 -7 -4 4294.77 308.143 6
-1 -7 -4 4401.84 287.223 7
-1 -7 -4 3897.75 264.496 11
-1 -7 -4 4140.65 275.834 14
-1 -7 -4 4195.77 280.998 12
-1 -7 -5 2478.13 198.803 6
-1 -7 -5 2642.67 201.559 14
-1 -7 -5 2641.39 203.551 12
-1 -7 -5 2296.36 187.903 11
-1 -7 -5 2309.51 186.541 7
-1 -7 -6 9637.81 346.254 11
-1 -7 -6 10561.7 366.979 12
-1 -7 -6 9997.08 352.298 14
1 8 -9 36970.1 851.661 7
1 8 -8 9132.04 423.911 7
1 8 -7 20412.2 645.39 5
1 8 -7 21271.9 646.612 15
1 8 -6 18.6668 38.55 15
1 8 -6 -4.01823 49.2998 5
1 8 -5 71.8244 66.5673 5
1 8 -5 8.21269 53.7835 15
1 8 -4 48210.3 1201.32 15
1 8 -3 908.799 144.49 15
1 8 -2 9972.18 478.491 15
1 8 -1 15591.4 603.319 15
-1 -8 0 10587.5 443.688 14
-1 -8 0 9733.83 466.248 12
1 8 0 9814.68 465.451 15
-1 -8 -1 15446 616.358 6
-1 -8 -1 14524 535.455 14
1 8 1 14500.9 567.05 15
-1 -8 -1 15098.2 581.905 12
-1 -8 -2 6258.46 372.212 6
1 8 2 6149.5 337.206 15
-1 -8 -2 6361.98 353.022 12
-1 -8 -2 5499.43 312.252 14
-1 -8 -3 4959.02 279.928 14
-1 -8 -3 5314.94 307.5 12
-1 -8 -3 5006.39 315.299 6
-1 -8 -4 384.917 71.9629 14
-1 -8 -4 473.205 86.9577 6
-1 -8 -4 512.966 89.9808 12
-1 -8 -5 31154.6 674.949 14
-1 -8 -5 32276 706.592 12
1 9 -9 12134.3 343.37 7
1 9 -8 569.561 89.9767 7
1 9 -7 752.455 99.2435 15
1 9 -7 782.164 101.066 5
1 9 -6 125.075 61.7836 5
1 9 -6 108.406 44.4299 15
1 9 -5 250.864 71.0207 5
1 9 -5 411.364 92.7182 15
1 9 -4 4920.98 314.712 15
1 9 -3 17341.8 621.95 15
1 9 -2 13222.2 536.507 15
1 9 -1 31785 881.824 15
1 9 0 14261.9 538.247 15
-1 -9 0 14856.6 569.544 6
-1 -9 -1 1353.88 161.279 6
-1 -9 -1 1102.8 134.211 12
-1 -9 -1 1181.46 127.037 14
1 9 1 1201.17 140.757 15
-1 -9 -2 10353.8 365.123 14
-1 -9 -2 10335.4 422.601 6
-1 -9 -2 10231.7 400.573 12
-1 -9 -3 7370.77 272.098 14
-1 -9 -3 7213.68 307.372 6
-1 -9 -3 6840.95 292.172 12
1 10 -7 19485.3 510.458 7
1 10 -7 20886.7 467.211 15
1 10 -6 253.755 54.0986 15
1 10 -6 376.808 70.7424 5
1 10 -5 11001.5 399.937 15
1 10 -5 10249.7 398.205 5
1 10 -4 8108.92 369.183 5
-1 -10 4 7092.88 307.069 6
1 10 -4 7658.24 345.088 15
-1 -10 3 314.447 71.0738 6
1 10 -3 382.155 78.3712 15
-1 -10 2 1135.94 132.624 6
1 10 -2 1217.39 138.005 15
-1 -10 1 31.449 34.1543 6
1 10 -1 11.2292 33.7587 15
1 10 0 2517.75 177.914 15
-1 -10 0 2834.19 198.507 6
1 10 1 6031.68 243.433 15
-1 -10 -1 6197.05 278.077 6
-1 -10 -2 12704 367.254 6
1 11 -5 319.195 48.1971 15
1 11 -4 3463.22 172.459 15
1 11 -4 3035.77 163.992 5
1 11 -3 17816.1 453.759 15
1 11 -3 17211.1 461.419 5
1 11 -2 33559.8 677.865 15
1 11 -2 31992.7 700.712 5
-1 -11 2 33384.2 672.07 6
-1 -11 1 16017 404.541 6
-2 11 0 1979.29 127.527 15
2 -11 0 2427.28 134.946 6
2 -11 1 31467.9 650.941 6
-2 11 -1 30856.2 641.202 15
-2 11 -2 44.8751 29.5243 15
-2 11 -2 49.5888 35.2027 5
-2 11 -3 5547.87 244.579 5
-2 11 -3 5092.9 224.177 15
-2 11 -4 7382.34 251.749 15
-2 11 -4 8522.72 301.454 5
-2 11 -5 845.273 85.3516 5
2 -10 -2 7651.25 265.265 6
-2 10 2 7176.22 282.194 15
2 -10 -1 5585.68 265.349 6
-2 10 1 5441.18 268.775 15
-2 10 0 308.538 74.1571 15
-2 10 -1 568.334 101.947 15
-2 10 -2 1891.46 174.702 15
-2 10 -2 1901.62 186.156 5
-2 10 -2 2065.71 165.31 9
-2 10 -3 2848.66 200.925 9
-2 10 -3 3057.58 219.579 15
-2 10 -3 3308.28 245.946 5
-2 10 -4 6435.8 340.016 5
-2 10 -4 5907.47 293.777 15
-2 10 -5 11870 391.83 15
-2 10 -5 12755 469.879 5
-2 10 -6 21889.2 609.501 5
-2 10 -7 8046.49 306.464 5
-2 9 4 3113.46 166.463 15
-2 9 3 1098.04 121.083 15
2 -9 -2 12808.2 462.907 6
-2 9 2 12556.3 473.583 15
-2 9 1 5946.6 335.106 15
-2 9 1 5345.7 292.42 9
-2 9 0 9670.81 420.5 9
-2 9 0 10094.3 464.487 15
-2 9 -1 81.9491 53.3979 15
-2 9 -1 115.621 59.7777 9
-2 9 -2 2379.28 220.399 15
-2 9 -2 2114.77 201.129 9
-2 9 -3 10530.5 470.938 15
-2 9 -3 9870.35 452.892 9
-2 9 -4 28055.7 828.565 9
-2 9 -4 29060.1 814.099 15
-2 9 -4 30193.6 922.937 5
-2 9 -5 9141.85 399.36 15
-2 9 -5 10547.8 502.659 5
-2 9 -6 31796 904.042 5
-2 9 -7 717.747 113.923 5
-2 9 -8 92.3313 42.0966 5
2 -8 -5 164.464 42.4435 12
2 -8 -5 192.91 54.3564 11
-2 8 4 2598.09 198.34 15
2 -8 -4 2375.8 173.131 12
-2 8 4 2483.95 179.857 9
-2 8 3 -22.3742 48.9092 15
-2 8 3 39.3516 43.8801 9
2 -8 -3 117.277 49.2512 12
2 -8 -3 -3.11417 36.6899 6
-2 8 2 1031.67 141.865 9
-2 8 1 62.5414 52.7948 9
-2 8 0 30530.6 885.876 9
-2 8 0 33696.8 944.139 15
-2 8 -1 4991.49 324.767 9
-2 8 -1 5001.3 331.322 15
-2 8 -2 3018.91 255.632 15
-2 8 -2 2912.45 254.567 9
-2 8 -3 23096.6 752.674 15
-2 8 -3 22965.2 762.226 9
-2 8 -4 20902.6 702.695 15
-2 8 -4 19747.7 718.899 9
-2 8 -5 21410.8 820.539 5
-2 8 -5 19838.6 654.419 15
-2 8 -5 19715.1 721.311 9
-2 8 -6 6480.38 423.612 5
-2 8 -6 5355 344.286 7
-2 8 -7 2829.89 260.074 5
-2 8 -7 2411.24 191.799 10
-2 8 -7 2227.61 208.253 7
-2 8 -8 17757.1 573.299 7
-2 8 -8 22093.3 680.545 5
-2 8 -9 654.643 90.7093 5
-2 8 -9 550.277 75.9649 7
2 -7 -7 7837.84 273.878 11
-2 7 6 11473 381.52 9
2 -7 -6 11463 367.424 14
2 -7 -6 11542.1 382.651 12
2 -7 -6 11126.1 411.539 11
2 -7 -5 7542.79 326.593 14
-2 7 5 6403.81 324.038 9
2 -7 -5 7136.93 332.632 12
-2 7 4 950.457 133.625 9
2 -7 -4 1344.24 152.48 12
2 -7 -3 3830.43 259.84 12
-2 7 3 3740.58 275.815 9
-2 7 2 582.804 116.59 9
2 -7 -2 511.168 101.486 12
-2 7 1 28685.9 1044.26 19
2 -7 -1 29222.8 1049.72 2
-2 7 0 3790.37 277.667 9
-2 7 0 3747.61 353.434 19
2 -7 0 3260.99 337.009 2
2 -7 0 3529.06 335.054 1
-2 7 -1 4401.04 296.661 9
-2 7 -1 4484.87 381.366 19
2 -7 1 4328.2 366.163 1
2 -7 2 31711.3 1049.29 1
-2 7 -2 29694.3 863.923 9
-2 7 -2 29818.8 854.594 15
-2 7 -2 30266.1 1049.45 19
-2 7 -3 10986.8 612.464 19
-2 7 -3 11217.8 483.746 15
-2 7 -3 10623.8 489.931 9
2 -7 3 10645.1 584.937 1
-2 7 -4 2280.27 235.07 9
-2 7 -4 2456.92 219.29 15
-2 7 -4 2407.03 295.857 19
2 -7 4 2467.78 286.079 1
-2 7 -4 2565.68 291.188 5
-2 7 -5 31912.1 856.966 10
-2 7 -5 32067.3 979.835 9
-2 7 -5 34944.5 1122.06 5
-2 7 -5 30859.8 1135 19
2 -7 5 31558.5 1118.21 1
-2 7 -6 84889 1924.81 5
-2 7 -6 80394.1 1627.87 10
-2 7 -7 2372.61 248.041 7
-2 7 -7 2636.19 275.093 5
-2 7 -7 2521.54 221.567 10
-2 7 -8 2100.33 220.595 5
-2 7 -8 1940.19 206.429 7
-2 7 -8 1989.92 190.036 10
-2 7 -9 404.822 86.0106 5
-2 7 -9 434.616 91.9753 7
-2 7 -10 560.932 71.4459 5
-2 7 -10 426.187 62.6628 7
2 -6 -8 380.695 60.9124 11
2 -6 -7 7226.8 305.87 14
-2 6 7 7641.09 318.49 9
2 -6 -7 8163.46 356.83 11
2 -6 -7 7526.97 312.72 12
-2 6 6 2944.01 226.146 9
2 -6 -6 3078.9 220.651 14
2 -6 -6 3077.79 223.339 12
-2 6 5 44387.3 1106.64 9
2 -6 -5 46192.2 1078.91 14
2 -6 -5 46875.4 1095.42 12
2 -6 -4 12513.6 488.157 14
2 -6 -4 12807.1 505.631 12
-2 6 4 11770 515.953 9
2 -6 -3 15211.6 746.268 2
-2 6 3 14366 691.393 16
-2 6 3 14754.8 576.991 9
2 -6 -3 15317.1 543.98 12
-2 6 2 1516.93 173.86 9
2 -6 -2 1725.61 226.395 4
2 -6 -2 1574.37 227.656 2
2 -6 -2 1503.73 160.472 12
-2 6 2 1472.34 202.358 16
2 -6 -1 2072.6 251.816 2
2 -6 -1 2155.08 232.401 4
-2 6 1 1840.53 187.35 9
-2 6 1 1978.19 215.769 16
2 -6 0 8362.08 505.214 2
2 -6 0 9492.83 457.032 4
2 -6 0 9542.81 509.718 1
-2 6 0 9111.22 506.098 19
-2 6 -1 56818.2 1446.29 19
2 -6 1 61870.4 1468.15 1
2 -6 2 1038.93 165.266 1
-2 6 -2 1004.41 168.972 19
-2 6 -3 7538.87 388.756 9
-2 6 -3 7450.95 461.833 19
2 -6 3 7448.58 451.981 1
2 -6 4 4482.48 361.98 1
-2 6 -4 5537.69 401.606 5
-2 6 -4 4627.38 373.797 19
-2 6 -4 4660.51 317.274 9
-2 6 -4 4529.23 283.039 10
-2 6 -5 10785.4 471.587 10
-2 6 -5 11014.8 525.608 9
-2 6 -5 10684.6 597.799 19
-2 6 -5 12790 623.677 5
2 -6 5 10755.2 597.717 1
-2 6 -6 246.556 86.6941 10
2 -6 6 -27.5436 87.3712 1
-2 6 -6 199.539 97.1632 5
-2 6 -6 108.779 58.25 7
-2 6 -7 3702.1 325.364 5
-2 6 -7 3474.11 313.091 7
-2 6 -7 3360.4 273.245 10
-2 6 -8 1031.45 156.854 10
-2 6 -8 1000.58 166.696 5
-2 6 -8 1154.35 181.633 7
-2 6 -9 5303.89 324.168 5
-2 6 -9 5583.94 346.235 7
-2 6 -10 15583.7 465.649 5
-2 6 -10 15559.8 498.108 7
2 -5 -8 646.649 103.177 11
-2 5 8 873.022 104.576 9
2 -5 -8 651.287 89.729 12
2 -5 -8 600.117 87.4997 14
2 -5 -7 4281.23 269.902 12
-2 5 7 4562.57 286.119 9
2 -5 -7 4559.47 280.227 14
-2 5 6 15397.3 589.549 9
2 -5 -6 16342.5 592.136 14
2 -5 -6 16129.3 587.334 12
-2 5 5 1224.83 163.579 9
2 -5 -5 1058.9 146.375 14
2 -5 -5 953.772 138.71 12
2 -5 -4 719.188 160.099 2
2 -5 -4 1009.21 185.12 4
-2 5 4 990.747 147.644 9
2 -5 -4 917.158 130.68 14
-2 5 4 964.05 186.086 16
2 -5 -4 773.565 122.703 12
-2 5 4 1190.17 163.148 8
2 -5 -3 33204.4 839.701 14
-2 5 3 34491.4 909.163 9
-2 5 3 35078.6 941.546 8
2 -5 -3 35847.8 1115.08 4
2 -5 -3 33099.7 845.707 12
2 -5 -3 33475.9 1083.65 2
-2 5 3 35473.4 1080.64 16
2 -5 -2 45.1842 50.5291 2
2 -5 -2 109.662 62.155 4
-2 5 2 136.523 56.9883 16
2 -5 -1 940.099 156.226 2
-2 5 1 1257.02 159.505 16
2 -5 -1 1111.69 161.628 1
2 -5 -1 1018.3 147.079 4
2 -5 0 78165.1 1614.01 1
2 -5 0 75093.4 1527.66 4
-2 5 0 76419.3 1522.64 16
2 -5 1 107459 2027.67 1
-2 5 -1 107251 2044.04 19
2 -5 1 105885 1876.53 4
2 -5 2 1700.45 188.28 1
-2 5 -2 1831.71 197.216 19
2 -5 3 69802.8 1519.45 1
-2 5 -3 67480.1 1519.05 19
-2 5 -4 13364.1 590.512 19
2 -5 4 13238.9 587.338 1
-2 5 -5 1161.74 174.386 19
-2 5 -5 1163.94 176.467 5
-2 5 -5 1023.63 143.348 13
2 -5 5 859.685 162.651 1
-2 5 -5 1046.14 146.669 10
-2 5 -5 1104.89 156.527 9
-2 5 -6 20281.9 809.595 19
2 -5 6 20529.7 856.977 1
-2 5 -6 20524.6 765.605 5
-2 5 -6 19490.9 737.529 7
-2 5 -6 22333.2 722.841 10
-2 5 -7 11159.6 559.878 5
-2 5 -7 11427.3 523.871 10
-2 5 -7 11007.8 554.108 7
-2 5 -8 12074.2 571.041 5
-2 5 -8 12937.4 608.177 7
-2 5 -8 13384.4 566.778 10
-2 5 -9 876.223 141.692 5
-2 5 -9 922.765 152.071 7
-2 5 -10 4355.91 247.268 5
-2 5 -10 5004.3 295.296 7
-2 4 9 134.106 47.3884 9
2 -4 -9 58.6784 34.0702 12
2 -4 -9 121.347 41.9924 14
2 -4 -9 115.972 37.057 11
2 -4 -8 57785.3 1223.5 12
-2 4 8 57479.2 1248.46 9
2 -4 -8 57672.6 1228.72 14
2 -4 -8 58752.2 1312.74 11
2 -4 -7 3571.68 270.691 14
-2 4 7 3833.77 283.938 9
2 -4 -7 3488.25 262.04 12
-2 4 6 10407.8 488.217 9
2 -4 -6 10007.4 467.715 14
2 -4 -6 10183.4 469.628 12
2 -4 -5 11746.9 482.445 12
-2 4 5 10109 475.163 8
2 -4 -5 10981.3 468.2 14
-2 4 5 11672.3 630.253 16
2 -4 -5 10863.1 610.339 2
-2 4 5 10979.7 490.406 9
-2 4 4 14134.5 557.351 8
2 -4 -4 16254.5 722.49 4
2 -4 -4 14659.1 514.975 14
2 -4 -4 14262.8 507.27 12
-2 4 4 14321.1 544.814 9
2 -4 -4 14169.7 654.319 2
-2 4 4 15645.1 684.203 16
2 -4 -3 70151.7 1580.14 2
-2 4 3 71879 1613.08 16
2 -4 -3 72939.4 1640.15 4
-2 4 2 119068 2191.91 16
2 -4 -2 117982 2209.9 4
2 -4 -2 116007 2182.55 2
-2 4 1 1435 157.951 17
2 -4 -1 1224.17 147.979 4
-2 4 1 1416.36 156.62 16
2 -4 -1 1399.07 161.023 2
2 -4 -1 1257.96 148.674 1
-2 4 0 91766.2 1684.36 17
2 -4 0 86920.5 1614.08 4
-2 4 0 89828.2 1631.45 16
2 -4 0 90337.8 1672.98 1
-2 4 -1 786.111 114.222 19
2 -4 1 545.024 97.2592 1
2 -4 1 695.753 93.3976 4
-2 4 -1 710.063 91.3163 16
2 -4 2 1957.34 137.007 4
-2 4 -2 1710.8 168.659 19
2 -4 2 1696.79 166.566 1
2 -4 3 83555.9 1624.83 1
-2 4 -3 81877 1607.45 19
-2 4 -4 8328.52 407.946 19
2 -4 4 8431.65 423.004 1
-2 4 -5 7573.98 410.573 19
2 -4 5 7749.72 448.487 1
-2 4 -6 6984.99 382.67 10
-2 4 -6 7140.41 376.025 13
-2 4 -6 6652.5 383.7 7
2 -4 6 6276.2 443.497 1
-2 4 -6 6411.57 384.357 5
2 -4 7 491.608 145.857 1
-2 4 -7 709.03 141.983 5
-2 4 -7 839.324 145.878 10
-2 4 -7 734.339 143.372 7
-2 4 -8 508.23 121.385 5
-2 4 -8 536.074 118.214 10
-2 4 -8 470.146 120.412 7
-2 4 -9 30.4342 48.2506 5
-2 4 -9 118.9 64.9359 7
-2 4 -10 5840.33 297.485 5
-2 4 -10 6143.37 338.345 7
-2 4 -11 90.4322 40.6044 7
2 -3 -10 223.43 48.0558 14
2 -3 -10 187.444 44.9309 12
-2 3 9 29129.5 764.19 9
2 -3 -9 29289.3 751.988 14
2 -3 -9 29635.3 746.75 12
2 -3 -9 27406.2 739.833 11
2 -3 -8 1173.85 154.317 12
-2 3 8 1177.2 157.995 9
2 -3 -8 1277.36 165.51 14
2 -3 -8 1279.4 179.162 11
-2 3 7 5191.15 346.731 9
2 -3 -7 4845.3 329.943 14
2 -3 -7 5185.78 331.143 12
-2 3 6 70438.9 1773.2 16
-2 3 6 68768.2 1508.2 9
2 -3 -6 67579.1 1472.08 14
2 -3 -6 69732.9 1473.42 12
2 -3 -6 70285.9 1771.84 2
-2 3 5 19431.6 782.21 16
-2 3 5 17949.6 634.417 9
-2 3 5 18244.2 627.655 8
2 -3 -5 19735.2 840.838 4
2 -3 -5 19463.5 619.924 12
2 -3 -5 19112 765.083 2
-2 3 4 38108.2 928.831 18
2 -3 -4 39492.9 1136.34 4
-2 3 4 39820.6 1096.37 16
2 -3 -4 37590.1 1046.28 2
-2 3 3 47862 1153.97 16
-2 3 3 46486.9 1048.56 17
-2 3 3 47129.4 972.649 18
2 -3 -3 50033.7 1199.23 4
2 -3 -3 46708.1 1113.14 2
2 -3 -2 509.297 101.472 4
-2 3 2 390.404 59.6824 18
-2 3 2 406.959 79.6529 17
-2 3 2 568.993 98.6935 16
2 -3 -2 365.321 80.8429 2
2 -3 -1 22557.3 593.812 1
-2 3 1 23712 630.98 16
2 -3 -1 22343 602.895 2
2 -3 -1 23819.5 629.764 4
-2 3 1 22857.6 604.435 17
-2 3 0 96080.2 1648.11 17
-2 3 0 96024.2 1634.11 16
2 -3 0 95484.9 1631.63 4
2 -3 0 95933.1 1629.67 1
-2 3 -1 63044.4 1167.41 17
-2 3 -1 60679.1 1085.77 16
-2 3 -1 62160.1 1169.81 19
2 -3 1 62234.8 1109.81 4
2 -3 1 60614.8 1147.53 1
2 -3 2 317710 4562.73 4
-2 3 -2 315664 4655.06 19
2 -3 2 321973 4669.26 1
-2 3 -3 16102.1 488.651 19
2 -3 3 15370.3 497.719 1
2 -3 3 14666.5 394.969 4
-2 3 -4 466.482 85.4703 19
2 -3 4 299.356 77.5633 1
-2 3 -5 18515.8 602.545 19
2 -3 5 17670.9 662.802 1
-2 3 -6 36504.1 967.013 5
-2 3 -6 37727.9 979.581 7
2 -3 6 36398.5 1108.72 1
-2 3 -6 39075.5 988.294 10
2 -3 7 1023.9 188.446 1
-2 3 -7 727.47 137.286 5
-2 3 -7 870.608 146.443 10
-2 3 -7 532.813 124.86 7
-2 3 -8 15568.6 623.51 5
-2 3 -8 15140.2 632.111 7
-2 3 -8 15030.9 620.303 10
-2 3 -9 1685.17 199.769 7
-2 3 -9 1644.2 187.594 5
-2 3 -10 671.79 104.529 5
-2 3 -10 523.893 102.353 7
-2 3 -11 3774.54 207.12 7
-2 2 10 16353.7 490.701 9
2 -2 -10 16924.9 489.193 14
2 -2 -10 16230.3 476.722 12
2 -2 -9 11365 468.603 14
2 -2 -9 11697.6 469.279 12
-2 2 9 12103.8 491.489 9
2 -2 -9 10922.3 446.565 11
-2 2 8 1407.51 186.064 9
2 -2 -8 1489.78 177.478 12
2 -2 -8 1206.93 166.107 14
2 -2 -8 1373.21 149.945 7
2 -2 -8 1466.45 192.255 11
-2 2 7 276.442 102.463 16
2 -2 -7 421.416 102.188 12
-2 2 7 201.002 86.3875 9
2 -2 -7 477.171 97.46 7
2 -2 -6 2657.05 280.613 2
-2 2 6 3164.22 303.231 16
2 -2 -6 3220.42 236.331 15
2 -2 -6 3424.08 252.131 12
-2 2 5 27949.3 899.979 16
2 -2 -5 28652.4 1009.62 4
2 -2 -5 27058.6 874.405 2
-2 2 4 51324.7 1073.06 17
-2 2 4 52805.6 1232.02 16
2 -2 -4 54801.6 1322.02 4
2 -2 -4 51180.2 1182.79 2
-2 2 3 142.599 57.5481 16
2 -2 -3 76.0278 46.5554 2
-2 2 3 124.279 48.6082 17
2 -2 -3 75.923 54.9592 4
-2 2 2 9540.04 336.382 17
2 -2 -2 9873.61 385.132 4
-2 2 2 10100.4 379.017 16
2 -2 -2 9006.42 332.338 2
2 -2 -1 9189.06 325.195 4
2 -2 -1 8459.11 273.655 2
-2 2 1 8571.77 298.453 17
-2 2 1 9099.34 324.556 16
2 -2 0 454942 6389.61 1
-2 2 0 456859 6457.19 16
2 -2 0 468819 6473.72 4
2 -2 1 16003.4 388.64 1
2 -2 1 15956.4 410.149 4
-2 2 -1 15892.7 394.246 19
-2 2 -1 16199.2 411.049 17
-2 2 -2 3976.95 181.244 17
-2 2 -2 4018.66 212.244 3
2 -2 2 3581.86 178.051 1
2 -2 2 3875.37 179.841 4
-2 2 -2 3715.62 168.908 19
-2 2 -3 3736.94 195.279 2
2 -2 3 3655.93 182.585 4
-2 2 -3 4292.04 237.589 3
-2 2 -3 3581.18 179.747 19
2 -2 3 3811.9 211.39 1
2 -2 3 4018.47 152.571 16
-2 2 -4 36997.6 796.714 19
-2 2 -4 36623.5 849.724 2
-2 2 -4 37938.5 903.537 3
2 -2 4 37003.7 899.574 1
-2 2 -5 192.278 75.4252 3
-2 2 -5 314.981 78.919 2
-2 2 -6 5632.18 372.019 2
-2 2 -6 5609.26 322.386 5
2 -2 6 5344.7 384.149 1
-2 2 -6 5705.67 328.398 7
-2 2 -6 5468.67 360.136 3
-2 2 -6 6010.02 330.928 10
-2 2 -7 529.111 135.872 3
-2 2 -7 773.302 162.652 2
2 -2 7 552.798 143.1 1
-2 2 -7 873.702 139.002 10
-2 2 -7 848.644 137.055 5
-2 2 -7 680.354 129.074 7
-2 2 -8 18655.1 691.059 7
-2 2 -8 18256.9 669.065 5
-2 2 -9 5943.73 364.806 7
-2 2 -9 5505.31 336.319 5
-2 2 -10 6655.47 318.994 5
-2 2 -10 6910.39 352.063 7
-2 2 -11 1610.29 134.491 7
2 -1 -10 18860.2 574.137 14
-2 1 10 18962.2 584.803 9
2 -1 -10 18952.2 565.177 12
-2 1 9 3155.14 260.951 9
2 -1 -9 3276.06 256.953 14
2 -1 -9 3254.88 222.274 7
2 -1 -9 3274.26 253.485 12
2 -1 -8 882.744 144.281 12
2 -1 -8 851.003 124.393 7
-2 1 7 6931.88 453.078 16
2 -1 -7 6778.49 344.866 7
2 -1 -7 6754.49 378.268 12
2 -1 -7 6918.63 473.635 2
2 -1 -6 3207.76 294.781 2
-2 1 6 3427.25 296.034 16
2 -1 -6 3435.62 246.471 12
-2 1 5 645.949 119.274 16
2 -1 -5 922.8 144.134 2
2 -1 -5 866.345 156.689 4
-2 1 4 4023.01 263.628 16
-2 1 4 4075.12 218.566 17
2 -1 -4 3917.48 288.374 4
2 -1 -4 3864.68 250.334 2
-2 1 3 2249.4 174.192 16
2 -1 -3 1854.48 170.633 4
-2 1 3 2039.81 144.748 17
2 -1 -3 2036.32 155.378 2
-2 1 2 35407.5 762.848 16
-2 1 2 33659.5 697.456 17
2 -1 -2 34621.6 760.799 4
2 -1 -2 33245.4 675.917 2
-2 1 1 696864 9595.63 16
2 -1 -1 691611 9448.34 2
2 -1 0 1939.16 65.4069 18
2 -1 0 2035.87 71.1579 1
-2 1 -1 9209.47 204.402 19
2 -1 1 9281.37 214.883 1
2 -1 1 9563.23 283.01 4
-2 1 -1 9424.8 262.79 17
-2 1 -2 436635 6109.12 2
-2 1 -2 454154 6243.12 3
-2 1 -2 442020 6084.8 17
-2 1 -2 437389 6048.56 19
-2 1 -3 64.8973 35.224 2
-2 1 -3 172.674 55.2231 3
2 -1 3 110.13 33.8029 16
2 -1 4 127858 2068.16 16
-2 1 -4 127017 2189.33 3
-2 1 -4 128012 2019.38 19
-2 1 -4 125297 2140.5 2
-2 1 -5 33787.4 910.594 2
-2 1 -5 34582.7 931.159 3
-2 1 -6 4486.22 342.534 2
-2 1 -6 4571.69 288.099 5
-2 1 -6 5072.39 304.285 7
-2 1 -6 4527.7 330.766 3
-2 1 -7 3132.53 292.72 3
-2 1 -7 2752.11 244.786 7
-2 1 -7 2525.73 222.325 10
-2 1 -7 2747.48 239.171 5
-2 1 -7 2486.02 285.104 2
-2 1 -8 4943.82 334.584 7
-2 1 -8 4732.74 320.833 5
-2 1 -9 19.1764 52.8374 5
-2 1 -9 15.4627 47.7026 7
-2 1 -10 21883.8 648.816 7
-2 1 -11 5603.1 232.927 7
2 0 -11 671.922 80.8741 14
-2 0 11 859.419 101.305 9
2 0 -11 887.513 93.2147 12
-2 0 10 625.316 113.962 9
2 0 -10 718.649 113.5 14
2 0 -10 615.499 90.3306 7
2 0 -10 922.621 126.005 12
2 0 -9 13076.1 492.441 7
2 0 -9 13932.6 555.41 12
2 0 -8 39721 995.815 7
2 0 -8 41377.1 1078.91 12
2 0 -7 42594.1 1250.48 2
2 0 -7 39579.4 990.854 7
2 0 -7 42162.6 1053.87 12
2 0 -6 19.7793 47.6078 2
-2 0 6 211.278 75.5083 16
2 0 -5 119.215 55.153 4
-2 0 5 297.769 74.964 16
2 0 -5 287.893 87.822 2
2 0 -4 47885.6 1030.26 2
-2 0 4 46461.2 1021.38 16
-2 0 4 49361.3 949.559 17
2 0 -4 45362.7 1069.45 4
-2 0 3 144961 2310.17 16
2 0 -3 144002 2286.62 19
2 0 -3 142326 2260.8 2
2 0 -3 144726 2344.26 4
-2 0 3 143729 2223.98 17
2 0 -2 927464 13249.7 18
-2 0 2 989745 13335.5 16
-2 0 2 995232 13278.6 17
2 0 -2 992574 13247.9 2
2 0 -2 921657 13302.2 4
2 0 -1 226365 3186.93 2
2 0 -1 230428 3225.97 19
-2 0 1 228482 3148.85 3
2 0 -1 223543 3247.08 18
2 0 -1 233684 3298.8 4
-2 0 0 37834.3 536.291 17
-2 0 0 38272.9 511.272 3
2 0 0 38274.7 538.956 18
-2 0 -1 345383 4867.57 17
2 0 1 345648 4931.27 18
-2 0 -1 356071 4822 2
-2 0 -2 188420 2829.99 3
-2 0 -2 183119 2611.46 17
-2 0 -2 186431 2721.21 2
2 0 3 25403.5 650.569 16
-2 0 -3 26069.5 630.526 2
-2 0 -3 25209.9 670.551 3
2 0 4 234979 3661.53 16
-2 0 -4 237139 3730.07 3
-2 0 -4 233850 3671.72 2
-2 0 -5 29118.4 866.186 2
-2 0 -5 29160.3 874.193 3
2 0 5 28930.5 820.056 16
-2 0 -6 22470.8 813.257 3
-2 0 -6 22610.3 837.655 2
-2 0 -6 23278.6 723.567 11
-2 0 -6 23664.1 719.831 7
-2 0 -6 24431.5 727.777 5
-2 0 -7 8290.08 422.122 5
-2 0 -7 8186.18 531.278 2
-2 0 -7 8114.44 405.897 14
-2 0 -7 7759.5 486.517 3
-2 0 -7 7974.76 415.92 7
-2 0 -7 8258.6 400.869 12
-2 0 -7 7872.81 420.195 11
-2 0 -8 13521.2 556.311 5
-2 0 -8 14088.3 576.544 7
-2 0 -8 13322.7 528.269 12
-2 0 -8 12619.4 536.845 11
-2 0 -9 4929.8 286.2 12
-2 0 -9 5208.02 323.988 7
-2 0 -10 1002.95 125.174 7
2 1 -11 1713.95 132.835 14
-2 -1 11 2050.13 157.104 9
2 1 -11 1791.26 141.177 12
2 1 -10 20747.6 602.636 7
2 1 -10 22371.3 686.186 14
2 1 -10 22626.2 682.27 12
2 1 -9 2313.17 207.631 7
2 1 -9 2702.94 245.181 12
2 1 -8 62227.1 1362.53 7
2 1 -8 62768.1 1419.34 12
2 1 -7 1566.98 220.858 2
2 1 -7 1097.77 144.95 7
2 1 -6 15680.2 640.526 2
-2 -1 6 15580.5 566.708 16
2 1 -5 7927.25 393.855 19
-2 -1 5 8858.71 341.107 17
-2 -1 5 8681.44 374.024 16
2 1 -5 8041.3 401.966 2
2 1 -4 4237.65 230.63 4
-2 -1 4 4179.31 230.567 16
-2 -1 4 4521.44 224.109 17
2 1 -4 4763.94 263.766 2
2 1 -4 4216.53 249.885 19
-2 -1 3 306994 4475.62 16
2 1 -3 314804 4506.19 2
2 1 -3 304811 4547.69 18
2 1 -3 308887 4506.65 19
-2 -1 3 309832 4455.13 17
2 1 -3 304952 4459.25 4
2 1 -2 896756 12224.1 19
-2 -1 2 889240 12237 1
2 1 -2 890404 12231.5 2
-2 -1 2 902039 12241.8 17
2 1 -2 891651 12206.1 4
2 1 -2 878832 12307.6 18
2 1 -1 280321 4173.76 18
2 1 -1 294289 4041.5 19
-2 -1 1 280175 4067.15 1
2 1 -1 287462 4075.34 4
-2 -1 1 291288 3998.5 3
-2 -1 0 195.922 41.861 3
2 1 0 257.56 29.9927 19
-2 -1 -1 59505.1 1091.06 3
-2 -1 -1 60753.8 1046.65 2
2 1 1 60249.4 1107.7 18
-2 -1 -2 8235.18 336.633 3
-2 -1 -2 7503.91 217.344 17
-2 -1 -2 8174.58 304.894 2
2 1 2 8131.41 325.913 18
2 1 3 207.918 65.951 18
-2 -1 -3 357.671 87.0398 3
2 1 3 176.742 59.3989 16
2 1 4 35826.7 943.507 16
-2 -1 -4 35363.8 932.964 2
-2 -1 -4 34221.1 947.878 3
2 1 5 2983.83 287.384 18
-2 -1 -5 2816.8 268.782 3
2 1 5 3164.32 273.492 16
-2 -1 -5 2992.71 275.699 2
2 1 6 2322.29 253.801 16
-2 -1 -6 2327.15 265.572 3
-2 -1 -6 2316.19 210.049 14
-2 -1 -6 2053.42 203.987 5
-2 -1 -6 2377.81 216.312 7
-2 -1 -6 2260.55 203.787 12
-2 -1 -6 2276.01 233.111 11
2 1 6 2739.43 313.151 18
-2 -1 -6 2030.38 256.047 2
-2 -1 -7 92301.3 1818.67 7
-2 -1 -7 89008.2 1801.29 5
-2 -1 -7 87625.2 1761.11 14
-2 -1 -7 87420.2 1747.38 12
-2 -1 -7 85391.1 1863.1 11
-2 -1 -8 2865.57 265.033 11
-2 -1 -8 3189.74 250.903 14
-2 -1 -8 3333.53 268.208 7
-2 -1 -8 2820.79 233.651 12
-2 -1 -9 4251.7 281.085 11
-2 -1 -9 3905.01 250.293 14
-2 -1 -9 4078.02 249.224 12
-2 -1 -9 4686.1 292.224 7
-2 -1 -10 8822.44 340.059 7
2 2 -11 11739.7 370.859 14
2 2 -11 12754 413.694 12
2 2 -11 12050.6 359.147 7
2 2 -10 250.614 77.5276 12
2 2 -10 264.106 68.2325 7
2 2 -9 4329.46 313.33 12
2 2 -9 4651.57 302.995 7
2 2 -8 38600.9 1019 7
2 2 -7 301.96 71.393 15
2 2 -7 532.56 134.944 2
2 2 -7 342.33 92.5978 7
-2 -2 7 481.119 141.335 1
2 2 -6 52029.8 1289.29 19
2 2 -6 49368.6 1265.01 2
-2 -2 6 51907.1 1358.8 1
-2 -2 5 11016.8 404.354 17
-2 -2 5 11205.3 505.235 1
2 2 -5 11198.5 476.162 2
2 2 -5 11186.6 479.093 19
-2 -2 4 24649 635.401 17
2 2 -4 25616 702.016 2
2 2 -4 25072.7 692.029 19
-2 -2 4 26610.9 742.491 1
2 2 -3 1560.12 100.313 4
-2 -2 3 1311.94 134.036 1
2 2 -3 1556.71 139.905 19
2 2 -3 1456.3 155.275 18
2 2 -2 18.5143 32.9465 18
2 2 -2 16.8655 18.6474 4
-2 -2 2 23.2134 29.7274 1
2 2 -2 15.6983 23.2117 19
-2 -2 1 44139.4 898.258 1
2 2 -1 45182.3 832.538 19
2 2 -1 44241.8 956.279 18
2 2 0 5220.27 198.357 19
2 2 0 5321.57 265.012 18
-2 -2 0 5169.78 244.674 1
2 2 1 174378 2714 18
-2 -2 -1 169149 2708.35 2
-2 -2 -1 165672 2650.47 1
2 2 2 558.759 99.5773 16
-2 -2 -2 556.451 98.4936 2
-2 -2 -2 681.596 113.545 3
2 2 2 537.489 97.2512 18
2 2 3 38249.1 983.278 18
2 2 3 38447.4 980.152 16
-2 -2 -3 37068.7 993.451 3
-2 -2 -3 36954.8 971.329 2
-2 -2 -4 126.593 56.5735 2
-2 -2 -4 105.534 61.8973 3
2 2 4 109.304 57.4908 16
2 2 4 114.327 59.0219 18
-2 -2 -5 1399.25 169.743 5
-2 -2 -5 1309.5 199.744 2
2 2 5 1417.75 202.13 16
-2 -2 -5 1499.92 162.886 7
-2 -2 -5 1402.49 152.106 12
-2 -2 -5 1180.63 192.15 3
2 2 5 1198.38 198.451 18
-2 -2 -5 1208.11 149.611 14
-2 -2 -5 1264.91 167.169 11
2 2 6 1456.03 242.901 18
-2 -2 -6 1442.07 173.404 14
-2 -2 -6 1641.47 241.561 3
-2 -2 -6 1943.52 204.549 7
-2 -2 -6 1443.64 171.043 12
-2 -2 -6 1781.96 217.333 11
2 2 6 1343.82 211.291 16
-2 -2 -6 1781.15 259.217 2
-2 -2 -6 1787.37 192.982 6
-2 -2 -7 2394.75 226.41 14
-2 -2 -7 2116.76 208.534 12
-2 -2 -7 2444.78 236.739 7
-2 -2 -7 2175.17 256.167 11
-2 -2 -8 2926.79 233.586 14
-2 -2 -8 3061.45 235.046 12
-2 -2 -8 3095.7 254.45 7
-2 -2 -8 3296.21 292.949 11
-2 -2 -9 34924.7 820.493 14
-2 -2 -9 37027.1 881.147 7
-2 -2 -9 35182.7 811.079 12
-2 -2 -9 36045.2 914.701 11
-2 -2 -10 -11.5699 30.5533 7
2 3 -11 8140.55 293.28 7
2 3 -11 8372.02 323.554 12
2 3 -10 9147.86 396.371 7
2 3 -10 9162.51 421.361 12
2 3 -9 32403 913.907 7
2 3 -8 6890.55 395.627 7
2 3 -7 2465.31 210.839 15
2 3 -7 2556.12 284.793 19
-2 -3 7 2616.94 310.472 1
2 3 -7 2464.57 228.826 7
-2 -3 6 10223.5 552.076 1
2 3 -6 10342.2 526.387 19
-2 -3 5 56849.7 1220.43 17
-2 -3 5 59303.4 1399.06 1
2 3 -5 59621.4 1349.2 19
2 3 -4 43423.9 1049.19 19
-2 -3 4 45199 1101.65 1
2 3 -3 318.911 77.8423 19
-2 -3 3 162.121 66.8179 1
2 3 -3 464.387 100.771 18
2 3 -2 98986.5 1732.03 19
2 3 -2 102051 1867.75 18
-2 -3 2 99353.8 1796.25 1
-2 -3 1 35352.9 859.678 1
2 3 -1 35283.4 781.187 19
2 3 -1 35728.4 897.665 18
-2 -3 0 52388.9 1152.49 1
2 3 0 54657.9 1175.86 18
2 3 0 52709.5 1032.11 19
2 3 1 167258 2752.86 18
2 3 1 163305 2553.33 19
2 3 1 163976 2693.08 16
-2 -3 -1 162689 2802.03 2
2 3 2 5745.9 341.308 18
2 3 2 6055.25 348.376 16
-2 -3 -2 5595.01 358.008 2
2 3 3 49847.6 1239.66 16
-2 -3 -3 49209.2 1316.76 3
2 3 3 49779.4 1247.74 18
-2 -3 -3 48064.4 1276.65 2
2 3 4 24620.4 889.388 18
2 3 4 25237.6 888.441 16
-2 -3 -4 25659.6 726.325 7
-2 -3 -4 24124.6 711.893 14
-2 -3 -4 25284.5 959.941 3
-2 -3 -4 24837.8 922.504 2
-2 -3 -4 24882.2 775.912 11
2 3 5 51910.4 1483.62 18
2 3 5 51524.1 1451.49 16
-2 -3 -5 50765 1281.94 6
-2 -3 -5 54036.8 1235.43 14
-2 -3 -5 50393.2 1538.39 3
-2 -3 -5 53289.2 1224.48 7
-2 -3 -5 53234.2 1208.17 12
-2 -3 -5 51239.6 1518.64 2
-2 -3 -5 53941.8 1331.53 11
-2 -3 -6 46639.2 1159.29 14
-2 -3 -6 45026.9 1165.31 6
-2 -3 -6 45756.9 1153.06 7
-2 -3 -6 45549.1 1123.46 12
-2 -3 -6 46833.7 1273.08 11
-2 -3 -7 17702.1 646.17 7
-2 -3 -7 15958.6 603.577 14
-2 -3 -7 16767 604.574 12
-2 -3 -7 17650.3 725.074 11
-2 -3 -8 1303.36 154.502 7
-2 -3 -8 1335.56 149.224 12
-2 -3 -8 1334.87 175.595 11
-2 -3 -9 9666.52 331.726 12
-2 -3 -9 10702.6 354.781 14
-2 -3 -9 10413.2 374.266 7
-2 -3 -9 11092.4 409.799 11
2 4 -11 4723.06 214.198 7
2 4 -11 4572.23 221.293 12
2 4 -10 1969.76 179.75 7
2 4 -10 2044.07 190.453 12
2 4 -9 26971 823.496 7
2 4 -8 13476.2 518.978 15
2 4 -8 12921.1 570.327 7
2 4 -7 8700.06 540.915 19
-2 -4 7 8929.4 583.025 1
2 4 -7 8389.02 404.776 15
2 4 -6 16684.1 577.992 15
2 4 -6 17740.5 732.746 19
-2 -4 6 17973.8 786.901 1
2 4 -5 5057.38 352.199 19
-2 -4 5 5145.85 380.267 1
2 4 -4 101298 1987.78 19
-2 -4 4 99897.2 2049.78 1
-2 -4 3 150708 2720.9 1
2 4 -3 152636 2666.25 19
2 4 -2 10101.8 471.713 18
-2 -4 2 9204.19 438.191 1
2 4 -2 9363.51 411.516 19
2 4 -1 110447 2098.21 18
2 4 -1 109207 1962.61 19
-2 -4 1 112130 2091.4 1
-2 -4 0 9155.46 455.427 1
2 4 0 8997.79 443.35 18
2 4 0 8379.1 388.231 16
2 4 0 8181.72 367.555 19
2 4 1 3209.03 227.649 19
2 4 1 3098.62 269.968 18
2 4 1 3042.33 250.394 16
-2 -4 -1 3937.42 328.338 2
-2 -4 -1 3024.21 272.777 1
2 4 2 84.5802 53.9267 18
-2 -4 -2 211.014 96.5697 2
2 4 2 117.03 76.8246 16
2 4 3 42658.1 1223.36 18
2 4 3 41994.6 1191.14 16
-2 -4 -3 42975.8 1353.33 3
-2 -4 -3 41055.4 984.861 14
-2 -4 -3 40120.9 1115.81 6
-2 -4 -3 42590.3 1022.47 7
-2 -4 -3 40832.4 978.093 12
-2 -4 -3 40680.3 1267.41 2
-2 -4 -4 37404.8 1302.82 2
-2 -4 -4 39293.3 1387.25 3
-2 -4 -4 41303 1031.85 14
-2 -4 -4 39459.8 1140.71 6
2 4 4 41307.7 1279.72 18
-2 -4 -4 41720.3 1043.43 7
-2 -4 -4 40860.9 1014.95 12
-2 -4 -4 40865 1082.52 11
2 4 4 42208.1 1269.74 16
2 4 5 86140.6 2132.33 18
-2 -4 -5 87200.1 2301.25 3
-2 -4 -5 91583 1809.08 14
-2 -4 -5 83925.2 1895.24 6
-2 -4 -5 91827.8 1816.74 7
-2 -4 -5 90806.6 1786.52 12
2 4 5 87916.4 2109.6 16
-2 -4 -5 86120.4 2231.12 2
-2 -4 -5 90782.7 1900 11
-2 -4 -6 22330.9 744.069 7
-2 -4 -6 21905.5 729.612 14
-2 -4 -6 21479.6 708.236 12
-2 -4 -6 20587.3 738.791 6
-2 -4 -6 21869.9 791.635 11
-2 -4 -7 248.37 71.431 14
-2 -4 -7 149.384 77.26 11
-2 -4 -7 225.893 76.3197 12
-2 -4 -7 135.546 61.7094 7
-2 -4 -8 1009.13 131.471 11
-2 -4 -8 833.407 110.624 7
-2 -4 -8 803.84 101.676 12
-2 -4 -8 849.865 108.869 14
2 5 -11 1212.81 101.486 7
2 5 -10 111.465 56.1551 12
2 5 -10 420.056 88.2731 7
2 5 -9 1231.36 162.414 7
2 5 -8 3729.43 263.81 15
2 5 -8 3586.62 296.237 7
2 5 -7 24170.6 749.108 15
-2 -5 6 14743.1 742.654 1
2 5 -6 14574.8 695.555 19
2 5 -6 13864.3 541.615 15
2 5 -5 27951.1 799.923 15
-2 -5 5 29049.6 1019.98 1
2 5 -5 28348.4 960.163 19
-2 -5 4 30790.2 1009.67 1
2 5 -4 30128 956.898 19
2 5 -4 33238.7 1089.03 18
2 5 -3 19716.1 772.51 18
-2 -5 3 17924 712.927 1
2 5 -3 18645.4 699.192 19
2 5 -2 168203 2969.33 18
-2 -5 2 159763 2918.77 1
2 5 -2 162253 2648.88 16
2 5 -2 159591 2838.4 19
2 5 -1 85061.3 1652.81 16
2 5 -1 82579.3 1706.09 19
2 5 -1 86770.7 1852.16 18
-2 -5 1 86749.6 1847.24 1
2 5 0 2.52075 40.689 19
2 5 0 59.1465 48.8774 16
2 5 0 5.5034 43.7805 18
-2 -5 0 34.6943 45.0688 1
2 5 1 4433.92 352.574 18
2 5 1 4138.19 317.765 16
2 5 1 4308.09 305.03 19
-2 -5 -1 4371.82 385.939 2
-2 -5 -1 4687.25 378.863 1
2 5 2 303.391 98.5668 16
-2 -5 -2 362.503 134.29 2
2 5 2 397.483 122.519 18
-2 -5 -2 539.078 108.023 14
2 5 2 314.885 95.2253 19
-2 -5 -2 564.413 103.356 12
-2 -5 -2 397.243 98.1683 7
-2 -5 -2 564.732 113.721 11
-2 -5 -2 238.001 80.4166 6
-2 -5 -3 5735.81 338.16 14
2 5 3 5893.4 449.472 18
2 5 3 6314.44 451.647 16
-2 -5 -3 5808.7 410.275 6
-2 -5 -3 6275.05 367.161 7
-2 -5 -3 5883.23 342.409 12
-2 -5 -3 5915.04 487.844 2
-2 -5 -3 6448.19 539.024 3
-2 -5 -3 6024.41 352.048 11
-2 -5 -4 18375.5 767.47 6
-2 -5 -4 18685.6 984.51 3
2 5 4 19574.1 865.136 16
-2 -5 -4 19136.2 666.844 14
-2 -5 -4 19654.5 691.695 7
2 5 4 17527.6 836.148 18
-2 -5 -4 18775.3 655.649 12
-2 -5 -4 18029.8 915.585 2
-2 -5 -4 19023.3 684.626 11
-2 -5 -5 1212.21 171.022 11
-2 -5 -5 1269.12 190.681 6
-2 -5 -5 1343.72 171.556 14
-2 -5 -5 1285.54 172.153 7
-2 -5 -5 1178.56 159.784 12
-2 -5 -6 10896.3 479.191 7
-2 -5 -6 10651.6 463.735 14
-2 -5 -6 10210.9 446.223 12
-2 -5 -6 10402.4 483.476 11
-2 -5 -6 9592.44 457.309 6
-2 -5 -7 3809.99 238.503 14
-2 -5 -7 3822.84 244.652 7
-2 -5 -7 3683.96 231.36 12
-2 -5 -7 3799.42 255.926 11
-2 -5 -8 8591.74 300.414 7
-2 -5 -8 8815.51 290.737 12
-2 -5 -8 8738.05 298.405 14
-2 -5 -8 9290.64 324.854 11
2 6 -10 466.16 78.4679 12
2 6 -10 340.157 73.4989 7
2 6 -9 6572.91 358.378 7
2 6 -8 3674.45 259.203 15
2 6 -8 4006.86 309.283 7
2 6 -7 10161.7 467.437 15
2 6 -6 44.3373 77.8283 19
2 6 -6 71.1602 49.9056 15
2 6 -5 305.399 117.196 19
2 6 -5 322.104 89.7325 15
-2 -6 5 233.058 123.684 1
2 6 -4 436.216 127.703 18
-2 -6 4 507.299 141.385 1
2 6 -4 400.158 91.7865 15
2 6 -4 595.894 135.494 19
2 6 -3 53267.7 1435.67 18
2 6 -3 51933.1 1181.59 15
-2 -6 3 50020.8 1389.53 1
2 6 -3 50322.2 1346.16 19
2 6 -2 73969.5 1500.74 15
-2 -6 2 76927.3 1779.95 1
2 6 -2 71049.7 1661.64 19
2 6 -2 75028.5 1755.02 18
-2 -6 2 68032 1440.11 14
-2 -6 1 37535 1160.12 1
-2 -6 1 33874.6 884.744 14
2 6 -1 35837.1 920.377 15
-2 -6 1 35021.2 923.725 12
2 6 -1 35937.3 1109.04 18
2 6 -1 34551 1037.5 19
-2 -6 0 22162.9 708.604 12
2 6 0 22722.2 782.91 16
-2 -6 0 22872.3 694.3 14
2 6 0 22181.6 693.49 15
2 6 0 22469.7 873.915 18
-2 -6 0 24379.9 932.443 1
2 6 0 21362.8 780.157 19
2 6 1 14422.2 656.819 16
2 6 1 16803.8 753.822 18
-2 -6 -1 15074.3 556.632 14
-2 -6 -1 15599 594.325 7
-2 -6 -1 15767.1 811.161 2
-2 -6 -1 15115.9 573.561 12
-2 -6 -1 15718 643.707 6
2 6 1 14476.5 546.466 15
2 6 1 14826.1 639.916 19
2 6 2 5929.4 433.958 16
2 6 2 5109.88 429.058 18
-2 -6 -2 5347.03 346.89 7
-2 -6 -2 5688.7 337.867 14
-2 -6 -2 5608.2 340.614 12
-2 -6 -2 5556.98 395.876 6
-2 -6 -2 5098.79 464.891 2
-2 -6 -3 295.248 86.3991 14
-2 -6 -3 199.218 71.3339 12
-2 -6 -3 425.493 127.251 6
-2 -6 -3 267.714 95.0668 7
-2 -6 -3 213.371 70.8479 11
-2 -6 -4 593.55 137.511 6
-2 -6 -4 319.634 90.5107 14
-2 -6 -4 489.181 105.091 12
-2 -6 -4 481.719 114.947 7
-2 -6 -4 464.677 102.977 11
-2 -6 -5 556.467 110.232 14
-2 -6 -5 469.681 112.109 6
-2 -6 -5 564.494 108.589 12
-2 -6 -5 478.554 103.014 7
-2 -6 -5 462.018 104.862 11
-2 -6 -6 195.433 57.5999 14
-2 -6 -6 136.871 56.6794 12
-2 -6 -6 275.742 65.2407 6
-2 -6 -6 172.365 63.4349 7
-2 -6 -6 166.58 55.9119 11
-2 -6 -7 1683.99 129.704 14
-2 -6 -7 1460.09 121.464 7
-2 -6 -7 1621.89 126.066 12
-2 -6 -7 1575.8 126.849 11
2 7 -10 5755.63 248.133 7
2 7 -9 3753.05 245.316 7
2 7 -8 3682.3 245.287 15
2 7 -8 4168.81 295.15 7
2 7 -7 589.478 112.269 15
2 7 -6 1094.81 153.599 15
2 7 -6 896.344 144.151 5
2 7 -5 55556.8 1316.09 15
2 7 -4 13547.6 711.683 18
-2 -7 4 13828.6 731.57 1
2 7 -4 14787.5 725.572 19
2 7 -4 13844.5 572.478 15
-2 -7 3 32843.4 917.19 14
-2 -7 3 36628.2 1219.12 1
2 7 -3 37360.6 997.835 15
2 7 -3 36462.9 1203.77 18
2 7 -3 36656.5 1179.43 19
2 7 -2 7712.29 407.257 15
2 7 -2 7730.24 494.935 19
2 7 -2 8071.31 520.105 18
-2 -7 2 7379.43 386.197 14
-2 -7 2 8006.3 533.739 1
2 7 -1 178.587 72.7985 19
2 7 -1 209.503 74.9401 15
-2 -7 1 189.151 70.0281 14
-2 -7 1 166.461 93.1592 1
-2 -7 1 291.006 83.3783 12
2 7 -1 230.429 94.5857 18
2 7 0 16853.9 619.635 15
-2 -7 0 17225 611.173 14
-2 -7 0 17801.2 889.505 2
-2 -7 0 17718.4 644.979 12
-2 -7 0 18754.8 857.309 1
2 7 0 17134 776.014 18
2 7 0 16382.4 722.937 19
2 7 1 9254.36 441.86 15
-2 -7 -1 9581.68 496.938 6
-2 -7 -1 9392.81 441.417 14
-2 -7 -1 8984.89 450.745 12
-2 -7 -2 908.226 140.243 14
-2 -7 -2 765.834 149.101 6
-2 -7 -2 860.184 139.413 12
-2 -7 -2 847.252 137.449 7
-2 -7 -3 50776.2 1185.79 14
-2 -7 -3 50205.9 1297.74 6
-2 -7 -3 51028.7 1208.23 7
-2 -7 -3 52768.1 1216.24 12
-2 -7 -4 15825.6 612.942 6
-2 -7 -4 16300.4 560.648 14
-2 -7 -4 16224.7 568.158 7
-2 -7 -4 15443.1 556.464 12
-2 -7 -4 15513.5 527.985 11
-2 -7 -5 1711.34 155.719 14
-2 -7 -5 1506.35 153.261 6
-2 -7 -5 1785.91 156.876 7
-2 -7 -5 1701.28 155.542 12
-2 -7 -5 1741.36 150.34 11
-2 -7 -6 383.359 66.306 12
-2 -7 -6 480.246 69.8426 14
-2 -7 -6 339.49 56.6945 11
2 8 -9 571.039 85.1573 7
2 8 -8 425.272 75.5492 15
2 8 -8 555.304 100.261 7
2 8 -7 7821.66 370.931 15
2 8 -6 21324.9 681.69 15
2 8 -6 18370.7 617.288 5
2 8 -5 4204.88 302.88 5
2 8 -5 5150.41 332.947 15
2 8 -4 1437.49 179.422 15
2 8 -3 37701.1 1023.13 15
2 8 -2 12020.1 521.74 15
-2 -8 2 11978.7 492.318 14
-2 -8 1 21882.6 695.566 14
2 8 -1 21345.1 716.134 15
-2 -8 0 3517.06 257.431 14
2 8 0 3285.83 258.347 15
-2 -8 0 3228.41 262.643 12
-2 -8 0 3457.85 281.211 6
-2 -8 -1 133.307 75.8405 6
-2 -8 -1 109.533 70.0455 12
2 8 1 90.4186 54.085 15
-2 -8 -1 162.756 65.5665 14
-2 -8 -2 172.898 62.7113 12
-2 -8 -2 222.984 84.643 6
-2 -8 -3 5131.29 313.622 6
-2 -8 -3 5601.63 292.12 14
-2 -8 -3 5482.99 299.208 12
-2 -8 -4 3240.5 198.937 14
-2 -8 -4 3097.83 208.062 6
-2 -8 -4 3176.49 201.513 12
-2 -8 -5 20553.5 499.392 12
-2 -8 -5 21843.8 495.911 14
2 9 -8 84.7604 30.9824 15
2 9 -8 85.8867 46.5015 7
2 9 -7 1323.7 129.064 15
2 9 -6 3837.95 243.929 15
2 9 -6 3538.61 219.767 5
2 9 -5 9294.22 410.476 5
2 9 -5 9818.06 429.249 15
2 9 -4 1552.37 172.752 15
2 9 -3 36412.3 946.388 15
-2 -9 3 35182.5 903.911 6
2 9 -2 12587.9 504.984 15
-2 -9 2 12783.2 512.71 6
-2 -9 1 5744.04 335.846 6
2 9 -1 5207.7 309.909 15
-2 -9 1 5222.27 286.019 14
2 9 0 9262.52 400.879 15
-2 -9 0 9728.8 436.966 6
-2 -9 0 9145.01 378.564 14
-2 -9 -1 501.268 81.8539 14
-2 -9 -1 500.456 95.3007 6
-2 -9 -2 1927.18 168.348 6
-2 -9 -2 1726.04 139.523 14
-2 -9 -3 16126.1 421.415 14
-2 -9 -3 16201.5 461.975 6
2 10 -7 8022.12 279.849 7
2 10 -6 271.236 56.5816 15
2 10 -5 1251.88 123.986 15
2 10 -5 1109.76 112.276 5
2 10 -4 2610.19 187.036 15
2 10 -4 2347.93 177.021 5
-2 -10 3 679.838 94.4519 6
2 10 -3 715.987 101.265 15
-2 -10 2 287.491 64.3856 6
2 10 -2 322.062 66.7495 15
-2 -10 1 25137 650.006 6
2 10 -1 23564.2 610.36 15
-2 -10 0 1469.98 135.126 6
2 10 0 1444.67 116.344 15
-2 -10 -1 3388.92 187.34 6
-3 11 -1 12940.9 356.464 15
-3 11 -2 430.779 61.3491 15
-3 11 -3 1479.55 108.782 5
-3 11 -4 1693.67 116.27 5
-3 10 2 9504.81 321.54 15
-3 10 1 18263.9 516.315 15
3 -10 -1 17729.1 475.57 6
-3 10 0 6689.58 288.089 9
-3 10 0 7404.3 326.582 15
-3 10 -1 21551.4 601.054 9
-3 10 -1 19586.2 589.769 5
-3 10 -2 701.641 102.89 9
-3 10 -2 603.726 97.2656 15
-3 10 -2 702.241 105.898 5
-3 10 -3 4679.62 268.431 9
-3 10 -3 5377.85 274.358 15
-3 10 -3 5062.15 285.458 5
-3 10 -4 2043.22 155.677 15
-3 10 -4 2549.86 196.302 5
-3 10 -5 2244.08 177.467 5
-3 10 -6 76.1702 37.8034 5
-3 10 -7 4376.36 201.501 5
-3 9 4 50.0412 33.6268 15
-3 9 3 107.665 44.0522 9
-3 9 3 99.6969 44.5796 15
-3 9 2 21028.6 632.589 15
-3 9 2 19863.6 589.705 9
3 -9 -2 20691.3 577.815 6
-3 9 1 13917.4 524.956 15
-3 9 1 13276.9 496.02 9
-3 9 0 848.799 131.516 15
-3 9 0 801.671 126.204 9
-3 9 -1 20251.1 674.621 15
-3 9 -1 19483.7 666.291 9
-3 9 -2 1331.91 171.353 9
-3 9 -2 1365.47 165.859 15
-3 9 -2 1453.48 183.284 5
-3 9 -3 23480.5 761.079 9
-3 9 -3 23931.1 727.792 15
-3 9 -3 24988.7 805.504 5
-3 9 -4 724.138 129.132 9
-3 9 -4 604.943 117.088 5
-3 9 -4 689.453 110.434 15
-3 9 -5 333.339 94.6681 5
-3 9 -6 3950.02 276.861 5
-3 9 -7 1407.02 150.513 5
-3 9 -8 1141.5 116.662 5
-3 8 5 1332.76 120.23 15
-3 8 5 1357.24 119.184 9
3 -8 -5 1463.82 130.123 11
-3 8 4 64.6784 40.2805 9
-3 8 3 9903.09 431.017 9
-3 8 2 5288.93 324.982 9
-3 8 1 8765.26 441.779 9
-3 8 0 1827.65 204.042 9
-3 8 -1 6254.63 373.98 15
-3 8 -1 6243.21 381.483 9
-3 8 -2 3754 286.783 15
-3 8 -2 4036.07 310.425 9
-3 8 -3 452.718 103.333 15
-3 8 -3 459.59 125.166 5
-3 8 -3 432.066 106.22 9
-3 8 -4 5036.46 354.601 9
-3 8 -4 5318.83 390.432 5
-3 8 -4 5128.56 315.264 15
-3 8 -5 665.373 149.004 5
-3 8 -5 799.569 147.251 9
-3 8 -5 674 109.766 10
-3 8 -6 9049.96 393.148 10
-3 8 -6 10609 536.986 5
-3 8 -7 1292 139.716 10
-3 8 -7 1464.79 187.761 5
-3 8 -8 4963.44 296.847 5
-3 8 -9 3692.46 208.667 5
3 -7 -7 3219.49 164.232 11
-3 7 6 22.2902 33.4664 9
-3 7 5 912.531 124.865 9
-3 7 4 580.612 113.744 9
-3 7 3 2627.52 239.855 9
-3 7 2 1184.45 165.901 9
-3 7 1 37413.9 1222.85 19
-3 7 1 34791.9 985.968 9
3 -7 -1 34648.2 1098.01 4
-3 7 0 261776 4272.23 9
-3 7 0 271047 4634.05 19
-3 7 -1 2340.86 234.348 9
-3 7 -1 2232.92 277.047 19
3 -7 1 2532.66 273.676 1
-3 7 -2 11924.4 509.189 15
3 -7 2 11965.9 603.724 1
-3 7 -2 12283.5 546.463 9
-3 7 -2 11865.3 640.888 19
-3 7 -3 10338 462.635 15
-3 7 -3 11112.3 585.446 5
-3 7 -3 10421.5 512.662 9
-3 7 -3 10668.8 616.859 19
-3 7 -3 9964 432.66 10
-3 7 -4 606.91 130.367 9
-3 7 -4 671.304 122.13 10
-3 7 -4 800.304 169.387 5
-3 7 -5 32293.3 997.44 9
-3 7 -5 32624.5 1081.18 5
-3 7 -5 30937.3 872.067 10
-3 7 -6 50792 1402 5
-3 7 -6 51337.9 1197.02 10
-3 7 -7 2629.89 276.163 5
-3 7 -7 2195.05 217.257 7
-3 7 -7 2704.37 228.256 10
-3 7 -8 9794.85 479.062 5
-3 7 -8 9638.38 408.526 10
-3 7 -9 3001.34 223.434 5
3 -6 -8 3004.21 154.535 11
-3 6 7 590.979 89.5373 9
3 -6 -7 741.33 89.3479 14
3 -6 -7 736.519 89.4628 12
3 -6 -7 642.233 100.401 11
3 -6 -6 26629.2 686.968 14
3 -6 -6 26114.9 681.95 12
-3 6 6 25102.9 735.852 9
3 -6 -5 13119.4 480.092 14
-3 6 5 13483.5 542.186 9
3 -6 -5 13084.1 484.273 12
-3 6 4 6546.59 385.287 9
3 -6 -4 6480.96 333.847 12
-3 6 3 206.029 86.7682 16
-3 6 3 233.472 84.4569 8
-3 6 3 90.0239 65.7783 9
-3 6 2 1383.54 206.09 16
-3 6 2 1577.92 182.786 8
3 -6 -2 1983.06 245.793 4
3 -6 -2 1650.06 222.062 2
-3 6 2 1538.78 191.173 9
-3 6 1 31497.3 871.759 8
-3 6 1 32001.9 985.801 16
3 -6 -1 31638.8 1005.09 2
3 -6 -1 32522.8 1005.04 4
-3 6 1 31736.9 908.635 9
-3 6 0 5560.34 406.266 19
3 -6 0 4802.57 354.817 2
-3 6 0 5073.53 300.924 8
3 -6 0 5671.98 381.924 1
3 -6 0 5550.75 359.684 4
-3 6 0 5213.5 330.922 9
-3 6 -1 534.744 128.253 19
3 -6 1 904.693 156.152 1
-3 6 -1 690.037 124.698 9
-3 6 -2 81389.3 1570.98 13
3 -6 2 77200.8 1715.01 1
-3 6 -2 77229.4 1633.81 9
-3 6 -2 78703.9 1820.28 19
3 -6 3 216.747 89.06 1
-3 6 -3 256.728 110.312 5
-3 6 -3 286.735 85.3903 13
-3 6 -3 209.795 71.3276 10
-3 6 -3 161.26 69.0292 9
-3 6 -3 280.722 96.2555 19
-3 6 -4 417.835 113.943 19
-3 6 -4 423.549 108.638 9
-3 6 -4 403.481 97.8785 10
-3 6 -4 534.767 143.659 5
-3 6 -4 746.646 128.003 13
3 -6 4 531.8 132.294 1
-3 6 -5 4687.33 380.658 5
-3 6 -5 4986.97 337.76 13
-3 6 -5 4415.94 305.467 10
-3 6 -5 4793.43 354.798 9
-3 6 -6 34702.6 1100.16 5
-3 6 -6 31897.9 960.055 7
-3 6 -6 33735.2 946.42 10
-3 6 -7 3585.51 323.901 5
-3 6 -7 3296.3 279.533 7
-3 6 -7 3338.39 271.683 10
-3 6 -8 21162.4 770.42 5
-3 6 -8 20761 686.65 10
-3 6 -9 864.183 131.206 5
-3 6 -9 847.659 121.75 7
-3 6 -10 10949.8 373.19 5
-3 5 8 9115.95 349.846 9
3 -5 -8 8251.82 312.977 14
3 -5 -8 8335.96 307.36 12
3 -5 -8 8988.96 354.413 11
-3 5 7 7865.44 382.104 9
3 -5 -7 7592.39 350.592 14
3 -5 -7 7317.3 337.097 12
-3 5 6 1144.93 160.548 9
3 -5 -6 1245.41 154.939 14
3 -5 -6 1436.07 160.865 12
3 -5 -5 4311.91 279.994 12
-3 5 5 4328.67 312.938 9
-3 5 5 4424.54 320.103 8
3 -5 -5 4078.74 278.045 14
-3 5 4 35367.2 970.48 9
3 -5 -4 31867.3 848.974 14
-3 5 4 32561.8 1112.62 16
3 -5 -4 34973.7 1174.23 4
3 -5 -4 33313.6 857.381 12
3 -5 -4 33543.1 1108.81 2
-3 5 4 33493.9 972.892 8
-3 5 3 45768.9 1139.22 9
-3 5 3 48570.8 1168.66 8
-3 5 3 45088.7 1298.81 16
3 -5 -3 45829.9 1307.37 4
3 -5 -3 45401.3 1274.12 2
-3 5 2 2990.2 241.51 9
-3 5 2 2734.68 225.459 8
-3 5 2 2539.64 259.893 16
3 -5 -2 2634.12 264.916 4
3 -5 -2 2773.56 260.754 2
3 -5 -1 3051.66 257.012 2
3 -5 -1 2851.48 253.547 4
-3 5 1 2656.28 247.444 16
-3 5 0 60970.2 1363.37 16
3 -5 0 57157.2 1313.34 2
3 -5 0 57459.7 1302.46 4
3 -5 0 59829.7 1328.19 1
3 -5 1 5152.92 299.85 4
3 -5 1 5595.65 331.559 1
-3 5 -1 5423.97 357.125 19
-3 5 -2 184.597 70.7514 19
3 -5 2 500.021 105.361 1
3 -5 3 140.039 71.1739 1
-3 5 -3 78.0268 61.1323 19
3 -5 4 25096 835.433 1
-3 5 -4 25524.5 803.291 9
-3 5 -4 25911.6 846 5
-3 5 -4 27864.4 773.586 13
-3 5 -4 25318.5 858.654 19
-3 5 -4 25026.5 757.65 10
-3 5 -5 2463.4 245.148 9
-3 5 -5 2200.4 212.118 13
-3 5 -5 2427.58 252.914 5
-3 5 -5 2637.54 242.92 10
-3 5 -6 36783.8 1099.18 5
-3 5 -6 38672.9 1025.35 13
-3 5 -6 36134.7 1019.02 7
-3 5 -6 37804.9 1026.26 10
-3 5 -7 4234.06 343.746 5
-3 5 -7 3680.34 300.766 7
-3 5 -7 4217.65 312.23 10
-3 5 -8 30811 966.37 5
-3 5 -8 33090.7 925.089 10
-3 5 -9 1335.68 163.727 7
-3 5 -9 1311.14 172.491 5
-3 5 -10 85.9182 47.4227 5
-3 5 -10 38.4371 42.5799 7
-3 4 9 2356.1 160.271 9
3 -4 -9 2051.02 143.054 14
3 -4 -9 2095.53 139.037 12
3 -4 -9 2296.92 150.2 11
-3 4 8 11791.7 468.051 9
3 -4 -8 11800.6 448.674 14
3 -4 -8 11949.3 437.938 12
3 -4 -8 12662.2 497.039 11
-3 4 7 29.7796 47.047 9
3 -4 -7 41.1778 43.2992 14
3 -4 -7 35.266 34.6085 12
3 -4 -6 599.687 115.928 14
-3 4 6 761.313 136.25 9
-3 4 6 623.205 119.164 8
3 -4 -6 762.259 122.924 12
-3 4 5 10516.4 494.081 9
-3 4 5 10564.6 493.645 8
3 -4 -5 10632.8 459.794 14
3 -4 -5 11061.6 641.813 4
3 -4 -5 10369.3 444.75 12
3 -4 -5 9892.37 568.705 2
-3 4 5 10752 615.457 16
-3 4 4 2203.25 212.062 9
-3 4 4 2439.92 226.237 8
-3 4 4 2563.48 277.744 16
3 -4 -4 2064.31 185.302 14
3 -4 -4 2477.69 279.907 4
3 -4 -4 2143.14 184.981 12
3 -4 -4 2523.89 259.451 2
-3 4 3 45568.5 1239.03 16
3 -4 -3 47306.3 1264.3 4
3 -4 -3 45790.8 1167.96 2
-3 4 3 44461.7 1160.88 17
-3 4 2 72219 1538.57 17
-3 4 2 71632.4 1585.11 16
3 -4 -2 73095.4 1494.16 2
3 -4 -2 73677.2 1592.84 4
-3 4 1 83922.5 1641.06 17
3 -4 -1 79044.4 1556.72 2
3 -4 -1 81774.8 1638.75 4
-3 4 1 82947.7 1667.64 16
-3 4 0 361.191 85.415 17
-3 4 0 330.446 85.0168 16
3 -4 0 301.811 74.8305 1
3 -4 0 456.393 90.635 4
3 -4 0 243.198 68.1868 2
-3 4 -1 10959 454.353 19
-3 4 -1 10660.1 444.474 17
3 -4 1 9965.89 398.874 4
3 -4 1 11282 418.16 1
-3 4 -2 654.646 109.417 19
3 -4 2 422.245 80.9369 4
3 -4 2 439.462 85.9259 1
3 -4 3 15057.8 539.441 1
-3 4 -3 15454.6 552.566 19
-3 4 -4 26553.6 775.612 19
3 -4 4 27144.9 810.469 1
-3 4 -5 7825.11 415.227 5
-3 4 -5 8027.54 385.404 13
-3 4 -5 7158.47 387.293 10
3 -4 5 7317.94 432.744 1
-3 4 -6 25042.1 829.339 5
-3 4 -6 25174.8 773.331 13
-3 4 -6 24788.4 781.933 7
-3 4 -6 25455.9 807.279 10
-3 4 -7 169513 3022.81 5
-3 4 -7 167092 2917.09 13
-3 4 -7 163084 2940.71 7
-3 4 -7 168872 2950.06 10
-3 4 -8 217.339 91.8399 10
-3 4 -8 504.705 123.332 5
-3 4 -8 267.498 92.5141 7
-3 4 -9 2216.2 217.997 5
-3 4 -9 2216.76 216.983 7
-3 4 -10 17479.9 540.166 5
-3 4 -10 16870.7 541.592 7
3 -3 -10 961.511 83.9198 14
-3 3 9 14297.9 486.788 9
3 -3 -9 13587.2 462.165 14
3 -3 -9 13687.8 451.279 12
3 -3 -9 12899.4 435.021 11
-3 3 8 20919.6 687.826 9
3 -3 -8 18927.8 641.932 14
3 -3 -8 19356.3 632.895 12
3 -3 -7 1036.22 151.377 14
3 -3 -7 1045.59 148.725 12
-3 3 7 1090.28 167.526 9
-3 3 6 40378.8 1037.26 8
-3 3 6 40225.1 1280.05 16
3 -3 -6 40462.1 1353.99 4
3 -3 -6 39217.6 1004.86 12
-3 3 6 40768.8 1075.83 9
3 -3 -6 39041.7 1223.87 2
-3 3 5 36594 972.804 9
-3 3 5 35815.8 1143.73 16
3 -3 -5 36417.3 945.096 15
-3 3 5 34654.6 952.581 8
3 -3 -5 38264.6 1221.52 4
3 -3 -5 35566.5 1082.34 2
3 -3 -5 35834 902.278 12
-3 3 4 92931.2 1815.5 17
-3 3 4 90197.2 1941.51 16
3 -3 -4 91038.6 1979.19 4
3 -3 -4 88149.5 1824.97 2
-3 3 3 17318.4 649.283 16
-3 3 3 16534.5 583.315 17
3 -3 -3 17062.6 650.346 4
3 -3 -3 16648.9 574.106 2
-3 3 2 9688.38 440.495 16
-3 3 2 8635.27 387.77 17
3 -3 -2 8971.09 418.109 4
3 -3 -2 8844.44 363.039 2
-3 3 1 33324.3 821.65 17
-3 3 1 34953.3 872.884 16
3 -3 -1 32397.3 736.546 2
3 -3 -1 34765.7 851.696 4
3 -3 0 671.314 100.005 4
-3 3 0 737.396 104.837 17
-3 3 0 841.041 114.999 16
3 -3 0 854.812 90.3749 2
3 -3 0 790.336 90.4916 1
-3 3 -1 278831 4185.68 17
-3 3 -1 273088 4156.38 19
3 -3 1 282644 4172.52 4
3 -3 1 280279 4072.37 1
-3 3 -2 2990.26 201.119 17
3 -3 2 2817.95 180.041 1
3 -3 2 2567.6 183.163 4
-3 3 -2 2936.76 185.959 19
3 -3 3 17949.4 535.71 4
-3 3 -3 19555.2 532.391 19
3 -3 3 18611.7 552.896 1
-3 3 -4 11338.2 499.805 3
3 -3 4 10986.2 453.855 1
-3 3 -5 67619.4 1537.36 3
3 -3 5 64096.4 1465.52 1
-3 3 -6 121603 2255.91 5
-3 3 -6 121547 2186.02 13
-3 3 -6 117419 2199.72 7
-3 3 -6 121863 2237.3 10
-3 3 -7 27224.7 847.391 7
-3 3 -7 28116.1 880.79 5
-3 3 -7 27742.3 850.492 10
-3 3 -8 14022.1 598.322 5
-3 3 -8 13635.8 581.124 7
-3 3 -8 14576.6 583.6 10
-3 3 -9 10407.1 478.601 5
-3 3 -9 10891.5 487.02 7
-3 3 -10 6028.43 300.955 5
-3 3 -10 6055.21 309.601 7
-3 2 10 7763.39 311.76 9
3 -2 -10 7727.32 303.39 14
3 -2 -10 7349.54 285.729 12
-3 2 9 3372.19 247.14 9
3 -2 -9 2741.16 218.146 14
3 -2 -9 3233.01 229.259 12
3 -2 -8 24279.6 760.117 12
-3 2 8 26132.4 816.162 9
-3 2 7 3188.77 270.691 9
3 -2 -7 2997.36 240.098 15
3 -2 -7 2990.39 249.467 12
3 -2 -6 27273.9 800.186 15
-3 2 6 29165 864.629 9
-3 2 6 28406.6 1000.15 16
3 -2 -6 29113.7 1099.83 4
3 -2 -6 28302.9 803.571 12
3 -2 -6 27824.8 960.552 2
3 -2 -5 12785.3 646.099 4
-3 2 5 13325.6 519.144 9
-3 2 5 13940.5 629.736 16
3 -2 -5 12960.3 571.416 2
-3 2 4 26083.9 832.12 16
3 -2 -4 26591.5 870.678 4
3 -2 -4 25615.9 754.316 2
-3 2 4 26594 753.462 17
-3 2 3 74048.1 1507.29 16
3 -2 -3 74555.2 1513.64 4
3 -2 -3 72356 1356.83 2
-3 2 2 60118.6 1247.41 16
-3 2 2 59712.9 1185 17
3 -2 -2 60070 1241.97 4
3 -2 -2 57645.5 1081.12 2
-3 2 1 180.054 56.6304 16
3 -2 -1 189.456 36.9571 2
-3 2 1 192.689 56.5391 17
3 -2 -1 292.184 66.0745 4
-3 2 0 122417 1781.77 17
3 -2 0 122854 1809.84 4
-3 2 -1 9681.64 355.526 3
-3 2 -1 9872.13 340.576 17
3 -2 1 10116.3 259.332 1
-3 2 -1 9497.73 287.962 19
3 -2 1 9690.68 352.739 4
3 -2 2 6140.38 227.288 1
-3 2 -2 5860.63 250.547 17
-3 2 -2 6426.61 302.283 3
-3 2 -2 5869.18 202.731 19
3 -2 2 5571.83 267.69 4
-3 2 -3 11636.2 358.787 17
-3 2 -3 12311.7 461.977 3
3 -2 3 11075.2 369.328 1
-3 2 -3 11559.7 312.481 19
3 -2 3 10562.8 388.92 4
-3 2 -4 3881.81 224.339 2
-3 2 -4 4314.82 291.449 3
3 -2 4 4380.3 261.104 1
-3 2 -5 12303.8 555.839 3
-3 2 -5 12776.4 494.791 2
3 -2 5 12717.2 537.175 1
-3 2 -6 80.6832 55.5818 10
-3 2 -6 -33.1323 58.9582 2
-3 2 -6 158.995 83.8021 3
-3 2 -6 80.9014 64.1047 6
-3 2 -6 81.494 65.4102 7
-3 2 -7 68329.6 1738.06 3
-3 2 -7 72645.7 1567.25 5
-3 2 -7 71293.2 1553.22 7
-3 2 -7 72109.5 1536.3 10
-3 2 -8 182.7 78.8322 10
-3 2 -8 387.334 109.189 7
-3 2 -8 311.297 91.3056 5
-3 2 -9 3460.9 263.521 5
-3 2 -9 3413.84 264.141 7
-3 2 -10 1898.15 167.816 5
-3 2 -10 2097.17 177.904 7
-3 1 10 2622.46 193.912 9
3 -1 -10 2410.33 183.237 14
3 -1 -10 2528.81 181.604 12
-3 1 9 1203.15 156.225 9
3 -1 -9 834.641 124.773 12
3 -1 -8 1015.67 139.22 15
-3 1 8 1013.09 159.892 9
3 -1 -8 852.082 135.145 12
3 -1 -7 117.729 62.1478 15
3 -1 -7 52.9343 69.7481 2
3 -1 -7 147.565 60.8673 12
-3 1 7 114.137 86.3277 16
3 -1 -6 10619.9 451.173 15
3 -1 -6 10791.4 542.818 2
3 -1 -6 11460.7 621.92 4
3 -1 -6 10668.8 456.006 12
-3 1 6 11416.4 573.704 16
-3 1 5 337.99 97.412 16
3 -1 -5 293.823 84.2645 2
3 -1 -5 455.83 123.142 4
-3 1 4 122558 2162.25 16
3 -1 -4 116597 2190.66 4
3 -1 -4 116351 2028.56 2
-3 1 3 156945 2607.21 16
-3 1 3 155912 2518.79 17
3 -1 -3 154297 2608 4
3 -1 -3 153511 2448.72 2
3 -1 -2 585.77 91.8045 4
-3 1 2 434.369 82.3873 16
3 -1 -2 355.973 54.1647 2
-3 1 2 330.183 68.4237 17
-3 1 1 15192.8 449.293 17
3 -1 -1 14513.5 312.614 18
3 -1 -1 15181.6 305.583 2
3 -1 0 57.3609 22.2387 18
-3 1 0 100.847 36.0132 3
-3 1 0 28.6571 23.0721 17
3 -1 0 88.6913 40.5536 4
3 -1 1 705.521 73.0456 18
-3 1 -1 869.359 94.2398 3
-3 1 -1 923.401 95.074 17
3 -1 1 936.996 101.516 4
3 -1 2 166138 2524.7 18
-3 1 -2 161569 2358.42 2
-3 1 -2 165318 2598.32 3
3 -1 2 161226 2374.68 1
-3 1 -2 165179 2462.3 17
-3 1 -3 326.829 76.9104 3
-3 1 -3 240.608 50.1749 2
-3 1 -3 365.012 49.1112 17
3 -1 4 30733.8 784.298 16
-3 1 -4 31340.9 871.512 3
-3 1 -4 29903.4 749.224 2
-3 1 -5 226.077 84.0196 3
-3 1 -5 254.491 77.7211 2
-3 1 -6 11514.9 482.639 7
-3 1 -6 10987.3 576.112 3
-3 1 -6 12144.9 505.011 5
-3 1 -6 10709.2 532.174 2
-3 1 -6 11064.5 465.563 11
-3 1 -6 11467.8 481.948 6
-3 1 -6 11112.2 458.659 10
3 -1 7 12564.2 721.621 18
-3 1 -7 13528.7 562.862 5
-3 1 -7 12784.5 667.015 3
-3 1 -7 13194.2 557.643 7
-3 1 -7 12911.9 523.633 11
-3 1 -7 14033.2 541.897 6
-3 1 -7 13310.2 531.981 10
-3 1 -8 8709.88 446.845 5
-3 1 -8 9201 456.149 7
-3 1 -8 8360.19 402.043 11
-3 1 -9 3828.86 274.208 5
-3 1 -9 3904.75 276.917 7
-3 1 -10 1059.24 124.399 7
-3 0 11 7450.17 274.615 9
3 0 -11 7058.41 255.553 14
3 0 -11 7510.84 265.942 12
3 0 -10 2716.61 206.276 14
3 0 -10 2604.41 199.41 12
-3 0 10 2845.66 216.607 9
3 0 -9 43.2144 60.1034 12
-3 0 9 -5.44939 56.0076 9
3 0 -8 2774.08 224.864 15
3 0 -8 2911.06 251.714 12
3 0 -7 5569.31 324.528 15
3 0 -7 5339.33 331.477 12
3 0 -7 5238.5 398.374 2
-3 0 6 21597.8 771.733 16
3 0 -6 20209.7 749.028 2
3 0 -6 20980.5 642.969 15
3 0 -5 35856.7 964.791 2
-3 0 5 38460.9 930.536 17
3 0 -5 38998.6 1063.98 4
-3 0 5 37052.5 1004.52 16
3 0 -4 41094.1 946.119 2
-3 0 4 42406.7 1021.71 16
-3 0 4 42166.9 947.995 17
3 0 -4 41391.1 1027.92 4
-3 0 3 5649.89 301.505 16
3 0 -3 5351.63 248.199 2
-3 0 3 5920.58 278.789 17
3 0 -3 5912.29 298.019 4
3 0 -2 88274.2 1423.21 2
3 0 -2 88210.6 1469.06 18
3 0 -2 92319.9 1576.39 4
-3 0 2 86461.9 1529.33 17
3 0 -1 154907 2265.25 18
-3 0 1 160380 2339.14 17
3 0 -1 156290 2351.03 4
-3 0 0 3223.09 162.153 3
3 0 0 3302.65 177.485 18
-3 0 0 3427.67 180.615 17
3 0 0 3372.37 188.221 4
3 0 1 414.606 70.5444 18
-3 0 -1 334.523 56.7519 17
-3 0 -1 381.947 35.285 2
3 0 2 137157 2216.07 18
-3 0 -2 133012 2039.64 2
-3 0 -2 136061 2239.64 3
-3 0 -2 134765 2057.62 17
-3 0 -3 128403 2226.2 3
3 0 3 123455 2182.61 18
-3 0 -3 124342 2040.06 2
3 0 4 33509 947.361 18
3 0 4 32307.5 889.032 16
-3 0 -4 32191.6 928.002 3
-3 0 -4 31532 826.089 2
-3 0 -5 6601.84 382.704 2
3 0 5 6622.87 441.25 18
3 0 5 5898.94 370.159 16
-3 0 -5 6290 408.905 3
-3 0 -6 2244.05 265.448 3
-3 0 -6 2413.98 260.569 2
3 0 6 2686.84 315.179 18
-3 0 -6 2321.3 221.944 5
-3 0 -6 2653.92 230.694 7
-3 0 -6 2483.25 230.828 11
-3 0 -6 2440.87 225.645 6
-3 0 -7 7513.36 415.076 5
-3 0 -7 7663.18 414.464 7
-3 0 -7 7081.05 404.042 11
-3 0 -7 7645.01 394.301 6
-3 0 -8 12214.2 531.245 5
-3 0 -8 12251.5 527.724 7
-3 0 -8 11763.1 514.69 11
-3 0 -9 18058.6 606.217 7
-3 0 -9 16725.7 554.495 11
-3 0 -10 4319.02 232.289 7
-3 -1 11 2249.79 153.886 9
3 1 -11 2061.9 139.953 14
3 1 -11 2184.75 147.956 12
-3 -1 10 420.603 94.1534 9
3 1 -10 491.08 94.3003 12
3 1 -9 208.06 84.8662 12
3 1 -8 32804.6 878.835 15
3 1 -8 32067.7 846.194 7
3 1 -8 32407.9 935.876 12
-3 -1 7 6981.97 494.027 1
3 1 -7 8325.35 395.405 15
3 1 -7 6809.63 453.407 2
3 1 -6 22025.2 781.363 2
-3 -1 6 22696.6 833.529 1
3 1 -6 21431.9 648.45 15
-3 -1 5 3877.94 253.052 17
3 1 -5 3641.66 267.365 2
3 1 -5 3678.76 273.775 19
-3 -1 4 70233.4 1347.43 17
3 1 -4 66857.6 1346.91 2
3 1 -4 66294.5 1361.3 19
3 1 -4 70139.5 1364.24 4
-3 -1 3 151997 2457.66 17
3 1 -3 155094 2431.29 2
-3 -1 3 149540 2441.35 1
3 1 -3 156543 2461.27 4
3 1 -3 156900 2503.39 18
3 1 -3 147497 2439.84 19
-3 -1 2 33879.2 712.938 17
3 1 -2 33720.7 657.521 19
-3 -1 2 32267.1 635.32 1
3 1 -2 36025.6 704.707 4
3 1 -2 35286.6 740.995 18
3 1 -1 78389.3 1446.21 18
-3 -1 1 80980.7 1329.12 1
-3 -1 1 82090.9 1294.62 3
3 1 -1 81355.6 1405.41 4
3 1 -1 82121.1 1300.87 19
-3 -1 1 81935.4 1418.48 17
3 1 0 18394.8 535.894 18
-3 -1 0 18265.7 467.485 3
3 1 0 17289.6 339.379 19
-3 -1 0 18096.3 381.83 1
-3 -1 0 18735.1 484.812 17
3 1 1 26747.2 685.758 18
-3 -1 -1 25594 649.943 3
-3 -1 -1 25224.2 585.24 17
-3 -1 -1 24829.8 556.775 2
-3 -1 -2 23926.7 547.044 17
-3 -1 -2 24638.3 702.395 3
3 1 2 26233.4 707.577 18
-3 -1 -2 24340.8 604.236 2
-3 -1 -3 19905.2 677.287 3
3 1 3 19964 668.952 16
3 1 3 20822.2 672.548 18
-3 -1 -3 19666 591.566 2
-3 -1 -4 124753 2394.86 3
3 1 4 122800 2347.03 16
3 1 4 126830 2406.08 18
-3 -1 -4 122917 2264.91 2
3 1 5 1380.74 210.595 18
3 1 5 1290.51 192.217 16
-3 -1 -5 1243.36 197.006 3
-3 -1 -5 1155 149.043 5
-3 -1 -5 1004.89 163.331 2
-3 -1 -5 1176.86 144.692 7
-3 -1 -5 1236.36 162.732 11
-3 -1 -5 1013.78 143.748 6
3 1 6 3092.71 345.91 18
3 1 6 2585.35 283.111 16
-3 -1 -6 2779.85 313.056 3
-3 -1 -6 3327.97 268.626 5
-3 -1 -6 3218.54 246.213 14
-3 -1 -6 2841.87 244.654 7
-3 -1 -6 3258.29 280.078 11
-3 -1 -6 2842.95 249.675 6
-3 -1 -6 2986.13 329.958 2
-3 -1 -7 10689 513.582 5
-3 -1 -7 10583.5 462.225 14
-3 -1 -7 11079 507.645 7
-3 -1 -7 10646.9 531.619 11
-3 -1 -7 11086.5 490.859 6
-3 -1 -8 1362.2 171.785 7
-3 -1 -8 1197.23 172.053 11
-3 -1 -9 263.104 77.8458 7
-3 -1 -9 239.418 62.4931 11
-3 -1 -10 16.1516 33.509 7
-3 -2 11 58.1721 39.979 9
3 2 -11 -10.2274 26.8842 14
3 2 -11 50.0992 33.5646 12
3 2 -10 756.321 113.805 12
3 2 -10 746.309 98.4783 7
3 2 -9 125.276 68.6686 12
3 2 -9 102.877 58.6927 7
3 2 -8 6549.78 356.999 15
3 2 -8 6034.41 341.338 7
3 2 -7 2.07358 39.2787 15
-3 -2 7 -9.55661 82.6431 1
3 2 -7 13.6737 44.7552 7
3 2 -6 16181.8 553.739 15
-3 -2 6 16556.4 708.039 1
3 2 -6 16740 675.902 19
3 2 -5 52054.8 1236.23 19
-3 -2 5 51365 1158.69 17
-3 -2 5 52362.1 1273.8 1
3 2 -4 28198.1 827.822 18
-3 -2 4 27481.3 748.594 17
3 2 -4 27845.7 771.494 19
-3 -2 4 28713 796.245 1
-3 -2 3 1712.38 157.618 17
-3 -2 3 1828.97 164.828 1
3 2 -3 2004.2 147.276 4
3 2 -3 1759.24 174.78 18
3 2 -3 1760.61 155.997 19
-3 -2 2 50718.4 1032.5 1
-3 -2 2 52018.5 1058.05 17
-3 -2 2 49585 863.791 3
3 2 -2 53751.6 1123.85 18
3 2 -2 50525.2 970.746 4
3 2 -2 50490.7 991.249 19
-3 -2 1 3043.54 171.711 3
-3 -2 1 3390.13 207.514 1
3 2 -1 3120.2 227.462 18
3 2 -1 3520.31 176.422 19
3 2 0 9148.88 402.763 18
-3 -2 0 9256.83 349.883 1
-3 -2 0 9020.86 351.065 3
3 2 0 9312.35 277.067 19
-3 -2 -1 34680.9 787.195 17
3 2 1 36885.5 924.537 18
-3 -2 -1 37246.3 896.757 3
3 2 1 36123.7 663.867 19
-3 -2 -1 34909.5 853.738 2
3 2 2 1521.82 176.45 18
-3 -2 -2 1482.72 174.629 3
-3 -2 -2 1387.37 154.229 2
-3 -2 -2 1493.46 127.479 17
-3 -2 -3 140707 2629.74 3
3 2 3 138785 2591.35 16
-3 -2 -3 136170 2503.57 2
-3 -2 -4 45883.8 1302.05 3
3 2 4 47525.6 1295.01 18
3 2 4 46347.4 1258.51 16
-3 -2 -4 43870.8 1203.14 2
3 2 5 20448 863.624 18
3 2 5 18761.8 801.939 16
-3 -2 -5 19617.2 680.459 5
-3 -2 -5 18721.7 850.032 3
-3 -2 -5 18745.1 630.674 14
-3 -2 -5 18143.9 682.265 6
-3 -2 -5 18269.7 635.332 7
-3 -2 -5 18336 606.358 12
-3 -2 -5 19460.5 712.9 11
-3 -2 -5 18600.1 792.263 2
3 2 6 51096.3 1495.11 16
-3 -2 -6 51810.6 1217.08 14
-3 -2 -6 54900.5 1275.49 7
-3 -2 -6 53657.3 1212.9 12
-3 -2 -6 56037.1 1387.61 11
-3 -2 -6 48616 1548.04 3
-3 -2 -6 52475.5 1300.42 6
-3 -2 -7 6035.54 347.642 14
-3 -2 -7 6464.6 380.012 7
-3 -2 -7 6037.54 335.422 12
-3 -2 -7 6546.18 422.073 11
-3 -2 -7 6059.07 361.918 6
-3 -2 -8 205.701 60.3184 14
-3 -2 -8 186.805 52.1449 12
-3 -2 -8 225.181 80.2887 7
-3 -2 -8 207.531 86.5688 11
-3 -2 -9 2551.24 184.037 7
-3 -2 -9 2468 191.972 11
-3 -3 11 4857.38 222.65 9
3 3 -11 5491.23 243.57 12
3 3 -10 8323.08 343.48 7
3 3 -10 8912.24 396.395 12
3 3 -9 8902.83 395.637 15
3 3 -9 8740.43 407.091 7
3 3 -8 15950.3 596.218 7
3 3 -8 16324.1 593.751 15
3 3 -7 406.731 125.701 19
3 3 -7 794.16 127.2 15
-3 -3 7 408.016 123.582 1
3 3 -6 22056.2 810.83 19
-3 -3 6 22523.8 850.144 1
3 3 -6 20988.7 660.759 15
-3 -3 5 24699.2 766.183 17
-3 -3 5 26104.9 864.647 1
3 3 -5 25582.6 828.94 19
-3 -3 4 37354.4 956.366 17
3 3 -4 39436.4 1085.45 18
-3 -3 4 40075 1044.75 1
3 3 -4 37092.5 970.9 19
-3 -3 3 42357.2 1041.86 1
3 3 -3 43060.1 1003.31 19
3 3 -2 7603.84 393.119 18
-3 -3 2 7414.49 361.617 1
3 3 -2 7149.3 284.111 4
3 3 -2 7291.98 326.406 19
3 3 -1 40662.7 1034.64 18
-3 -3 1 41645.3 999.147 1
3 3 -1 39977.9 868.471 19
3 3 0 14896.8 582.254 18
-3 -3 0 15091.5 558.975 1
3 3 0 15053.9 443.825 19
3 3 1 160679 2772.07 18
-3 -3 -1 157444 2738.97 3
3 3 1 155125 2424.35 19
-3 -3 -2 193.142 81.7728 2
-3 -3 -2 255.057 99.3462 3
3 3 2 84.5063 58.8252 18
3 3 3 4014.7 336.075 18
3 3 3 3512.25 315.015 16
-3 -3 -3 3307.46 324.513 3
-3 -3 -3 3450.31 314.493 2
-3 -3 -4 12369.6 569.842 6
3 3 4 13306.5 673.599 18
3 3 4 11716.6 624.223 16
-3 -3 -4 13085.1 711.856 3
-3 -3 -4 12281.6 493.877 14
-3 -3 -4 13125.2 516.522 7
-3 -3 -4 12652.4 487.335 12
-3 -3 -4 12774.2 661.777 2
-3 -3 -4 13146.5 552.175 11
3 3 5 5969.8 478.741 18
3 3 5 6211.97 475.977 16
-3 -3 -5 5078.46 477.975 3
-3 -3 -5 5418.86 334.472 14
-3 -3 -5 6045.91 356.755 7
-3 -3 -5 5676.86 333.519 12
-3 -3 -5 5798.96 386.182 11
-3 -3 -5 5379.17 466.216 2
-3 -3 -5 5883.02 399.667 6
-3 -3 -6 8937.28 442.017 14
-3 -3 -6 9285.48 435.771 12
-3 -3 -6 8729.08 450.001 7
-3 -3 -6 9555.19 511.655 11
-3 -3 -6 8825.46 485.003 6
-3 -3 -7 572.314 105.209 14
-3 -3 -7 659.041 108.808 12
-3 -3 -7 778.134 129.904 6
-3 -3 -7 707.404 126.754 7
-3 -3 -7 832.065 150.058 11
-3 -3 -8 7542.79 331.355 14
-3 -3 -8 7994.27 366.647 7
-3 -3 -8 7597.9 317.402 12
-3 -3 -8 8381.88 410.457 11
-3 -3 -9 13255.9 390.586 7
-3 -3 -9 12345.4 394.468 11
3 4 -11 62.6064 27.5375 12
3 4 -10 1766.59 154.343 7
3 4 -10 1736.06 168.192 12
3 4 -9 36229.5 892.22 15
3 4 -9 35395 928.808 7
3 4 -8 4916.56 314.67 15
3 4 -8 5356.39 341.522 7
3 4 -7 19314.7 664.389 15
3 4 -7 19873 848.161 19
-3 -4 7 20369.5 899.829 1
3 4 -6 32552.4 883.403 15
3 4 -6 31572.1 1048.43 19
-3 -4 6 31793.3 960.77 17
-3 -4 6 32267.9 1099.98 1
3 4 -5 2636.94 258.786 19
3 4 -5 2348.44 278.901 18
-3 -4 5 2667.47 279.249 1
3 4 -5 2369.88 205.085 15
-3 -4 5 2948.05 257.311 17
3 4 -4 14312.3 657.231 18
-3 -4 4 14137.8 613.575 1
3 4 -4 13539.9 574.124 19
-3 -4 3 81963.7 1713.14 1
3 4 -3 82885.2 1799.98 18
3 4 -3 78035.8 1626 19
3 4 -2 959.888 129.269 19
-3 -4 2 1032.77 153.094 1
3 4 -2 1241.58 178.333 18
3 4 -1 33174.1 973.881 18
-3 -4 1 32007.4 931.502 1
3 4 -1 30419.5 810.609 19
3 4 0 61.5321 53.4421 18
3 4 0 37.1766 41.8779 19
-3 -4 0 120.747 81.3144 1
3 4 1 11227.4 559.855 18
-3 -4 -1 10824.6 591.369 2
3 4 1 10672.4 521.471 16
-3 -4 -2 1262.17 178.911 6
3 4 2 1341.31 208.427 18
3 4 2 1322.15 195.871 16
-3 -4 -2 1425.35 221.763 2
-3 -4 -2 1097.55 193.525 3
3 4 3 227119 3941.5 16
3 4 3 221016 3974.39 18
-3 -4 -3 225561 4197.97 3
-3 -4 -3 222441 3543.53 14
-3 -4 -3 215376 3766.24 6
-3 -4 -3 221999 3585.84 7
-3 -4 -3 218358 3512.64 12
-3 -4 -3 215513 4043.04 2
-3 -4 -3 213063 3566.03 11
-3 -4 -4 21058.3 819.741 6
3 4 4 20490.3 910.114 18
3 4 4 22409.5 917.363 16
-3 -4 -4 21444.1 1028.37 3
-3 -4 -4 21428.4 702.315 14
-3 -4 -4 20424.4 703.044 7
-3 -4 -4 20610.1 678.369 12
-3 -4 -4 19276.8 936.662 2
-3 -4 -4 20792.6 730.23 11
-3 -4 -5 36140.8 984.164 14
-3 -4 -5 36723 1005.36 7
-3 -4 -5 36697.8 969.709 12
-3 -4 -5 36565.1 1052.14 11
-3 -4 -5 34468.7 1102.9 6
-3 -4 -6 16.6841 49.2545 6
-3 -4 -6 0.99132 42.5872 14
-3 -4 -6 5.14366 38.8867 12
-3 -4 -6 51.048 56.067 7
-3 -4 -6 102.437 68.3573 11
-3 -4 -7 4976.79 286.61 14
-3 -4 -7 5228.76 308.964 7
-3 -4 -7 5144.93 278.864 12
-3 -4 -7 5215.06 325.8 11
-3 -4 -7 4661.77 277.943 6
-3 -4 -8 1336.39 116.701 14
-3 -4 -8 1229.98 123.068 7
-3 -4 -8 1149.3 103.552 12
-3 -4 -8 1254.62 131.986 11
3 5 -10 3093.45 195.425 7
3 5 -10 3184.48 211.289 12
3 5 -9 1920.47 172.142 15
3 5 -9 1840.85 184.687 7
3 5 -8 6167.76 350.57 15
3 5 -8 6648.38 381.948 7
3 5 -7 24474.8 770.28 15
-3 -5 6 3813.9 372.788 1
-3 -5 6 3775.52 331.403 17
3 5 -6 4159.72 369.371 19
3 5 -6 4183.41 296.014 15
3 5 -5 5022.45 433.874 18
-3 -5 5 3947.58 324.644 17
-3 -5 5 4501.95 385.563 1
3 5 -5 4106.93 289.123 15
3 5 -5 4128 348.58 19
3 5 -4 115.654 68.11 18
-3 -5 4 105.528 66.5495 1
3 5 -4 206.508 71.7252 15
3 5 -4 100.324 70.7943 19
3 5 -3 53270.1 1193.3 15
-3 -5 3 51366.4 1363.56 1
3 5 -3 51520.9 1310.85 19
3 5 -2 16163.8 578.245 16
3 5 -2 15767.4 686.105 18
-3 -5 2 15858.1 667.857 1
3 5 -2 15769.5 619.918 19
3 5 -1 33035.4 942.57 16
-3 -5 1 34839.7 1062.21 1
3 5 -1 32681.7 930.716 19
3 5 -1 33104.7 1055.29 18
3 5 0 1236.34 195.768 18
3 5 0 1232.63 179.172 16
-3 -5 0 1312.59 151.456 14
-3 -5 0 1446.91 162.538 7
-3 -5 0 1103.16 186.887 1
-3 -5 0 1260.03 148.231 12
3 5 0 1242.2 164.405 19
3 5 1 559.057 147.767 18
-3 -5 -1 690.953 131.393 6
3 5 1 784.5 149.858 16
-3 -5 -1 686.882 176.823 2
-3 -5 -1 502.413 104.045 14
-3 -5 -1 457.526 98.946 12
-3 -5 -1 804.538 127.696 7
3 5 2 175.957 101.16 18
3 5 2 180.086 91.0171 16
-3 -5 -2 148.588 77.2987 14
-3 -5 -2 241.857 109.236 3
-3 -5 -2 193.488 115.443 2
-3 -5 -2 312.734 103.322 6
-3 -5 -2 227.741 77.9442 12
-3 -5 -2 296.451 86.6456 7
-3 -5 -2 196.617 75.7881 11
3 5 3 23196.8 984.991 18
3 5 3 24998.8 973.122 16
-3 -5 -3 24817.6 1120.47 3
-3 -5 -3 24341.6 765.077 14
-3 -5 -3 22896 882.703 6
-3 -5 -3 26228 811.343 7
-3 -5 -3 23470 741.072 12
-3 -5 -3 23751.7 1059.12 2
-3 -5 -3 23007.3 741.546 11
-3 -5 -4 717.28 127.638 14
-3 -5 -4 714.841 122.598 12
-3 -5 -4 526.661 119.868 7
-3 -5 -4 507.601 125.795 6
-3 -5 -4 757.519 130.972 11
-3 -5 -5 15451.6 588.578 14
-3 -5 -5 15044 588.191 7
-3 -5 -5 14322.2 552.276 12
-3 -5 -5 14518.3 580.043 11
-3 -5 -5 13783.4 641.126 6
-3 -5 -6 2476.05 207.438 14
-3 -5 -6 2494.1 214.691 7
-3 -5 -6 2502.24 203.246 12
-3 -5 -6 2525.71 219.107 11
-3 -5 -6 2587.12 233.012 6
-3 -5 -7 1436.23 130.355 14
-3 -5 -7 1526.4 143.812 7
-3 -5 -7 1198.09 115.886 12
-3 -5 -7 1267.02 134.201 11
3 6 -10 5468.65 243.759 7
3 6 -10 4946.35 239.524 12
3 6 -9 19976.6 573.017 15
3 6 -9 20164.6 621.581 7
3 6 -8 15549.9 560.205 15
3 6 -8 15982.1 596.465 7
3 6 -7 43270 1096.7 15
3 6 -6 16066.5 621.544 15
3 6 -5 22301.3 952.341 18
3 6 -5 22050.1 738.747 15
-3 -6 5 20985.6 904.811 1
3 6 -5 21331.5 877.96 19
3 6 -4 107.78 82.6724 19
3 6 -4 72.6656 55.085 15
-3 -6 4 174.709 95.2177 1
3 6 -3 1041.27 177.871 19
3 6 -3 1387.82 218.457 18
3 6 -3 1150.44 158.054 15
-3 -6 3 1105.33 152.962 14
-3 -6 3 1281.38 205.444 1
3 6 -2 16882.6 765.685 18
-3 -6 2 17089.2 753.275 1
3 6 -2 16832.3 608.591 15
-3 -6 2 16681.9 606.272 14
3 6 -2 16408.1 691.658 19
-3 -6 1 36940.9 986.589 6
3 6 -1 36002.7 952.299 15
-3 -6 1 35911.7 946.654 14
-3 -6 1 37682.1 1191.74 1
3 6 -1 36618.5 1065.87 19
3 6 -1 35961.4 1169.92 18
-3 -6 1 35013.6 961.254 12
3 6 0 9420.03 576.307 18
3 6 0 9166.81 509.297 16
3 6 0 9907.15 445.921 15
-3 -6 0 9479.99 444.046 14
-3 -6 0 9040.25 470.234 6
-3 -6 0 8556.84 601.705 2
-3 -6 0 9687.76 454.939 12
-3 -6 0 11171.4 630.212 1
3 6 1 11880.9 662.744 18
-3 -6 -1 11118.7 549.846 6
3 6 1 11428.5 605.17 16
-3 -6 -1 11315.2 496.804 14
-3 -6 -1 10899 663.343 3
-3 -6 -1 11447.6 509.463 7
-3 -6 -1 10762.1 695.369 2
-3 -6 -1 11191.9 494.892 12
-3 -6 -2 5219.76 392.753 6
-3 -6 -2 6160.16 363.462 14
-3 -6 -2 6225.03 372.972 7
-3 -6 -2 5378.04 337.367 12
-3 -6 -3 797.188 147.835 6
-3 -6 -3 885.416 138.079 12
-3 -6 -3 1014.94 156.06 7
-3 -6 -3 863.497 143.189 14
-3 -6 -3 1007.43 137.761 11
-3 -6 -4 7918.49 474.313 6
-3 -6 -4 8746.74 423.36 14
-3 -6 -4 8185.39 417.89 7
-3 -6 -4 7750.3 396.301 12
-3 -6 -4 7666.14 387.458 11
-3 -6 -5 36543 913.048 14
-3 -6 -5 37238.5 922.901 7
-3 -6 -5 35697.8 891.228 12
-3 -6 -5 34473.9 874.547 11
-3 -6 -5 34726.5 975.405 6
-3 -6 -6 1113.71 120.474 14
-3 -6 -6 1079.53 122.083 7
-3 -6 -6 947.377 107.996 12
-3 -6 -6 885.229 108.247 11
-3 -6 -6 1035.15 116.526 6
3 7 -9 4407.25 219.84 15
3 7 -9 4737.28 251.693 7
3 7 -8 764.212 114.013 15
3 7 -8 737.962 122.402 7
3 7 -7 3947.88 279.106 15
3 7 -6 1069.9 153.014 15
3 7 -5 129371 2399.42 15
3 7 -4 30.3633 44.7865 15
3 7 -3 1639.98 190.08 15
-3 -7 3 1734.79 193.459 14
3 7 -3 1827.54 246.348 19
3 7 -3 1691.56 251.844 18
3 7 -2 15962.6 608.137 15
-3 -7 2 15522.3 760.979 1
-3 -7 2 15112.5 591.092 14
3 7 -2 15691.2 763.33 18
-3 -7 2 15080.4 581.397 6
-3 -7 1 26983.2 840.428 6
3 7 -1 26889 820.126 15
-3 -7 1 28030.1 829.544 14
-3 -7 0 39440.1 1086.55 6
3 7 0 39609.7 1020.39 15
-3 -7 0 39583.4 1030.57 14
-3 -7 0 39466.3 1053.09 12
-3 -7 -1 13299.9 541.259 14
-3 -7 -1 13177.5 547.744 12
-3 -7 -1 13713.8 604.775 6
-3 -7 -2 20549.4 757.142 6
-3 -7 -2 19940.1 673.406 14
-3 -7 -2 19957.7 679.712 12
-3 -7 -3 202.671 73.0381 14
-3 -7 -3 103.589 53.7082 12
-3 -7 -3 213.701 82.7248 6
-3 -7 -4 11046.9 435.207 14
-3 -7 -4 11169.3 437.376 12
-3 -7 -4 10341.5 382.378 11
-3 -7 -4 11128.7 480.915 6
-3 -7 -5 762.303 98.6387 14
-3 -7 -5 613.968 92.133 6
-3 -7 -5 535.483 81.219 12
-3 -7 -5 604.741 82.0873 11
-3 -7 -6 417.363 58.4381 14
3 8 -9 3935.81 191.97 7
3 8 -8 25713.6 676.406 7
3 8 -8 26021 644.263 15
3 8 -7 39517.2 936.199 15
3 8 -6 12829.7 510.219 15
3 8 -5 17792.5 635.79 15
3 8 -4 2222.85 214.844 15
-3 -8 3 10048.4 461.181 14
-3 -8 3 11212.9 459.918 6
3 8 -3 11289.7 498.11 15
3 8 -2 703.129 123.264 15
-3 -8 2 714.919 128.225 14
-3 -8 2 595.996 110.989 6
-3 -8 1 9209.37 453.885 6
3 8 -1 10049 457.043 15
-3 -8 1 10078.9 455.113 14
-3 -8 0 4221.42 301.045 6
3 8 0 3515.45 255.44 15
-3 -8 0 3754.19 267.812 14
-3 -8 -1 19891 640.982 14
-3 -8 -1 19627.5 652.069 12
-3 -8 -1 20380.8 694.455 6
-3 -8 -2 16451.9 545.351 14
-3 -8 -2 15678.2 580.638 6
-3 -8 -2 15664.3 545.887 12
-3 -8 -3 4456.39 245.684 14
-3 -8 -3 4647 256.223 12
-3 -8 -3 4188.79 263.881 6
-3 -8 -4 22008.4 544.049 14
-3 -8 -4 21270.3 541.792 12
-3 -8 -4 22008.1 566.196 6
3 9 -8 15418.7 384.741 15
3 9 -8 15478.1 415.594 7
3 9 -7 -13.0947 27.2434 15
3 9 -6 1263.12 133.415 15
3 9 -5 7725.66 358.859 15
3 9 -4 225.41 64.7322 15
-3 -9 3 29453.6 744.543 6
3 9 -3 29191.3 789.87 15
3 9 -2 16402.4 553.548 15
-3 -9 2 15900.9 530.622 14
-3 -9 2 16947.2 557.094 6
-3 -9 1 11104.4 427.21 14
-3 -9 1 11652.1 461.31 6
3 9 -1 11335.3 435.658 15
-3 -9 0 9722.27 382.661 14
-3 -9 0 9713.06 412.432 6
-3 -9 -1 573.505 86.6274 14
-3 -9 -1 464.309 87.3382 6
-3 -9 -2 3974.44 222.536 6
-3 -9 -2 3467.48 186.988 14
-3 -9 -3 3525.67 174.012 6
3 10 -6 17304.7 434.33 15
3 10 -5 1286.28 114.7 15
3 10 -4 2019.65 148.092 15
3 10 -4 1829.37 129.929 5
3 10 -3 2480.11 165.578 15
-3 -10 3 2414.97 150.18 8
-3 -10 2 12182 373.474 6
3 10 -2 11618 371.736 15
-3 -10 1 20707.4 524.355 6
3 10 -1 20015.9 479.241 15
-3 -10 0 5383.35 230.93 6
-4 10 2 4065.06 187.74 15
-4 10 1 468.815 75.2533 15
-4 10 1 374.118 62.8637 9
-4 10 0 5758.59 268.065 15
-4 10 0 4753.76 242.47 9
-4 10 -1 8305.19 336.96 15
-4 10 -1 8416.32 349.107 9
-4 10 -2 17.6748 29.5929 9
-4 10 -2 -21.7042 35.7491 15
-4 10 -2 1.84853 43.9166 5
-4 10 -3 1309.88 138.684 9
-4 10 -3 1095.26 109.494 15
-4 10 -3 1151.68 118.455 5
-4 10 -4 232.575 59.8625 5
-4 10 -5 3728.72 205.812 5
-4 10 -6 5097.33 219.001 5
-4 9 4 3461.12 170.729 15
-4 9 3 3417.77 196.242 9
-4 9 3 3644.88 212.793 15
-4 9 2 5113.42 279.992 15
-4 9 2 4830.07 267.914 9
-4 9 1 6.00368 38.6588 9
-4 9 1 64.2043 45.948 15
-4 9 0 11.7393 40.0445 9
-4 9 0 13.0735 38.137 15
-4 9 -1 1568.03 172.221 15
-4 9 -1 1599.53 165.464 5
-4 9 -1 1618.28 181.521 9
-4 9 -2 10355.9 470.666 9
-4 9 -2 9765.22 425.511 15
-4 9 -2 9645.89 436.363 5
-4 9 -3 11401.5 498.942 9
-4 9 -3 11132.4 439.215 15
-4 9 -3 10497.5 465.908 5
-4 9 -4 4457.26 303.08 9
-4 9 -4 4091.48 279.809 5
-4 9 -5 8756.66 406.781 5
-4 9 -6 12275.5 462.704 5
-4 9 -7 180.122 55.603 5
-4 8 5 10467.1 347.329 15
-4 8 5 10359.3 340.641 9
-4 8 4 6272.94 306.382 9
-4 8 3 16466.8 576.259 9
-4 8 2 415.209 96.4875 9
-4 8 1 234.027 81.6504 9
-4 8 0 1029.08 160.989 9
-4 8 -1 447.37 101.947 15
-4 8 -1 417.145 115.215 9
-4 8 -1 541.931 112.833 5
-4 8 -2 2013.32 203.198 15
-4 8 -2 2327.52 232.213 5
-4 8 -2 2279.64 239.631 9
-4 8 -3 13535.8 528.358 15
-4 8 -3 13777.4 599.496 5
-4 8 -3 13859.6 610.116 9
-4 8 -4 3189.78 285.053 9
-4 8 -4 3003.19 274.455 5
-4 8 -4 2565.61 214.507 10
-4 8 -5 23323.8 809.082 5
-4 8 -5 21632.6 668.043 10
-4 8 -6 9494.38 476.842 5
-4 8 -6 8495.77 378.667 10
-4 8 -7 7220.17 382.392 5
-4 8 -7 5799.53 289.624 10
-4 8 -8 6753.81 317.846 5
-4 8 -8 4904.01 239.361 10
-4 7 6 4688.08 237.813 9
-4 7 5 817.247 118.411 9
-4 7 4 5173.07 319.208 9
-4 7 3 33877.4 962.585 9
-4 7 2 27153.2 852.784 9
-4 7 1 2616.42 250.143 9
-4 7 0 76424.8 1683.97 9
-4 7 0 76417 1893.5 19
-4 7 -1 16097.8 650.993 9
-4 7 -1 16298.3 759.898 19
-4 7 -2 1085.42 169.323 9
-4 7 -2 1154.29 153.151 15
-4 7 -2 1093.8 177.24 5
-4 7 -2 1120.38 156.416 10
-4 7 -3 12769.2 594.239 9
-4 7 -3 12276 526.851 13
-4 7 -3 12383.3 597.738 5
-4 7 -3 11745 505.309 10
-4 7 -4 4275.01 357.377 5
-4 7 -4 4881.79 331.51 13
-4 7 -4 4746.15 361.537 9
-4 7 -4 4386.59 305.057 10
-4 7 -5 2059.12 239.824 9
-4 7 -5 1502.17 215.474 5
-4 7 -5 2020.81 209.955 10
-4 7 -6 579.189 112.462 10
-4 7 -6 484.534 128.311 5
-4 7 -7 15945.2 661.73 5
-4 7 -7 16484.9 578.088 10
-4 7 -8 736.234 112.827 10
-4 7 -8 885.727 139.255 5
-4 7 -9 403.523 78.0884 5
-4 6 7 417.821 75.8699 9
-4 6 6 10878.8 442.969 9
-4 6 5 339.887 96.962 9
-4 6 4 14047.9 580.565 9
-4 6 4 13794.1 587.605 8
-4 6 3 1302.28 183.669 9
-4 6 3 1270.25 173.423 8
-4 6 2 5748.22 366.707 9
-4 6 2 5525.5 425.824 16
-4 6 2 5509.34 346.006 8
4 -6 -2 5156.28 406.799 4
-4 6 1 13120.7 532.824 8
4 -6 -1 12923.7 627.625 4
-4 6 1 13448.2 573.981 9
-4 6 0 881.839 170.721 19
-4 6 0 982.928 142.523 10
-4 6 0 1002.93 151.366 9
-4 6 0 904.257 134.821 8
4 -6 0 747.656 145.676 4
-4 6 -1 366.945 116.444 19
-4 6 -1 348.549 82.4374 10
-4 6 -1 371.341 106.551 9
-4 6 -1 298.065 81.2373 8
-4 6 -2 70572.1 1554.07 5
-4 6 -2 67741 1405.3 13
-4 6 -2 69916.3 1568.44 9
-4 6 -2 69207.1 1684.32 19
-4 6 -3 36427.1 1054.86 9
-4 6 -3 34779 1043.14 5
-4 6 -3 35251.6 945.062 13
-4 6 -3 34678 950.941 10
-4 6 -4 12453.2 596.02 9
-4 6 -4 13566.3 628.66 5
-4 6 -4 13277.7 552.141 13
-4 6 -4 13033.5 550.742 10
-4 6 -5 6066.43 424.232 9
-4 6 -5 5834.54 419.222 5
-4 6 -5 7311.29 411.413 13
-4 6 -5 6691.4 395.301 10
-4 6 -6 868.407 148.502 10
-4 6 -6 909.629 179.493 5
-4 6 -6 1059.23 161.277 13
-4 6 -7 8718.27 501.41 5
-4 6 -7 8713.56 440.418 10
-4 6 -8 3057.75 271.254 5
-4 6 -8 2967.61 236.507 10
-4 6 -9 4684.24 285.971 5
-4 5 8 332.116 67.3514 9
4 -5 -8 312.585 58.3803 14
4 -5 -8 244.585 59.9839 11
-4 5 7 581.612 102.853 9
4 -5 -7 614.038 91.4008 14
4 -5 -7 649.716 86.4604 12
-4 5 6 20598.9 692.993 9
4 -5 -6 19928.2 610.661 14
4 -5 -6 20409.7 597.527 12
-4 5 5 10156 491.87 9
-4 5 5 10281 501.249 8
-4 5 4 1276.87 177.107 9
-4 5 4 1392.77 188.498 8
4 -5 -4 1833.91 254.267 4
-4 5 3 1293.6 176.758 9
-4 5 3 1161.92 162.169 8
-4 5 3 987.638 189.386 16
4 -5 -3 1363.73 217.597 4
-4 5 2 29882 987.459 17
-4 5 2 32175.4 907.402 9
-4 5 2 31283.1 1051.14 16
-4 5 2 31638 882.009 8
4 -5 -2 31428 1024.08 4
-4 5 1 14037.8 626.096 17
-4 5 1 13930.1 641.848 16
-4 5 1 13452.9 516.595 8
4 -5 -1 14201.8 618.373 4
-4 5 1 14036.3 555.971 9
4 -5 0 53081 1300.5 4
-4 5 0 55941.2 1379.71 17
4 -5 1 216.05 76.3467 4
-4 5 -1 22.5101 51.1904 19
-4 5 -2 109920 2164.19 19
4 -5 2 105812 1982.14 4
-4 5 -2 105941 2079.67 9
-4 5 -3 4498.48 323.774 9
-4 5 -3 4574.4 317.04 5
-4 5 -3 4310.25 277.906 13
-4 5 -3 4128.33 298.193 10
-4 5 -4 8801.45 490.451 9
-4 5 -4 9494.46 473.061 10
-4 5 -4 10171.8 502.366 5
-4 5 -4 10579 464.853 13
-4 5 -5 2972.86 290.444 9
-4 5 -5 3495.23 291.191 10
-4 5 -5 3077.33 287.074 5
-4 5 -5 3730.33 282.174 13
-4 5 -6 8636.06 492.131 5
-4 5 -6 9120.88 461.937 13
-4 5 -6 8932.59 473.281 10
-4 5 -7 135.861 86.9128 10
-4 5 -7 142.499 82.6458 5
-4 5 -7 333.469 92.8131 13
-4 5 -8 7159.88 426.72 5
-4 5 -8 8284.76 420.323 10
-4 5 -9 556.819 109.642 10
-4 5 -9 789.517 133.117 5
-4 5 -10 2503.14 174.541 5
-4 4 9 1.66743 32.9504 9
4 -4 -9 -5.14124 27.1966 14
-4 4 8 6587.35 327.127 9
4 -4 -8 6382.28 297.071 14
4 -4 -8 6185.13 276.124 12
4 -4 -7 671.502 112.796 14
4 -4 -7 646.846 104.204 12
-4 4 7 602.946 115.924 9
-4 4 6 7204.06 408.064 9
-4 4 6 6618.99 385.915 8
4 -4 -6 7114.8 369.756 14
4 -4 -6 6650.57 342.866 12
-4 4 5 414.961 109.25 8
4 -4 -5 532.712 102.901 14
4 -4 -5 315.003 107.335 4
-4 4 4 84286.5 1738.13 9
-4 4 4 82121 1729.56 8
-4 4 4 82183.1 1976.12 16
-4 4 4 83059.4 1860.17 17
4 -4 -4 82572.3 1962.81 4
-4 4 3 4142.99 292.184 9
-4 4 3 4175.78 353.699 16
-4 4 3 4028.05 282.96 8
-4 4 3 4272.33 333.355 17
4 -4 -3 4375.63 352.91 4
4 -4 -2 73.9313 60.5564 4
-4 4 2 119.743 62.4446 17
-4 4 2 108.134 59.7603 16
-4 4 1 1580.16 185.722 17
-4 4 1 1650.47 205.398 16
4 -4 -1 1857.06 200.335 4
-4 4 0 49345 1181.29 17
4 -4 0 46748.4 1138.88 4
-4 4 -1 6265.2 351.989 19
-4 4 -1 5992.19 355.299 17
4 -4 1 5889.94 334.644 4
-4 4 -2 12249.9 514.836 17
4 -4 2 12476.2 490.798 4
4 -4 3 9597.27 424.319 4
-4 4 -4 109094 2139.03 9
-4 4 -4 112147 2110.21 5
-4 4 -4 115598 2063.2 13
-4 4 -4 115008 2132.24 10
-4 4 -5 8602.05 451.041 5
-4 4 -5 8742.37 422.917 13
-4 4 -5 8380.29 440.225 10
-4 4 -6 1157.98 172.506 10
-4 4 -6 1152.88 173.264 5
-4 4 -6 1052.39 154.913 13
-4 4 -7 60.1611 60.5239 10
-4 4 -7 201.534 80.4504 5
-4 4 -7 202.422 70.7717 7
-4 4 -8 17077 667.037 5
-4 4 -8 15758 584.624 7
-4 4 -8 16982.9 628.648 10
-4 4 -9 1357.88 165.108 5
-4 4 -9 1210.06 141.906 7
-4 4 -10 9680.14 370.396 5
4 -3 -9 3411.76 203.363 14
4 -3 -9 3414.66 191.917 12
-4 3 8 2263.41 208.621 9
4 -3 -8 2135.57 192.526 14
4 -3 -8 2152.68 179.73 12
-4 3 7 84.4204 66.3868 9
4 -3 -7 45.7849 48.4591 14
4 -3 -7 91.3032 48.8439 12
-4 3 6 15288.7 607.716 8
4 -3 -6 15958.2 614.042 15
4 -3 -6 15199 553.996 12
-4 3 5 6532.37 381.845 9
-4 3 5 6055.7 462.498 16
-4 3 5 6491.47 379.88 8
4 -3 -5 6131.87 361.691 15
4 -3 -5 5963.95 454.857 4
4 -3 -5 5776.87 313.441 12
-4 3 4 111.057 64.8277 9
-4 3 4 187.904 64.2101 17
-4 3 4 77.7281 84.3981 16
4 -3 -4 71.0724 51.1228 15
-4 3 4 154.849 70.4287 8
4 -3 -4 123.495 64.5965 4
4 -3 -3 744.089 138.886 4
-4 3 3 865.092 139.177 17
-4 3 2 64712.4 1412.58 17
-4 3 2 65724.8 1504.85 16
4 -3 -2 65881.6 1453.08 4
-4 3 1 13139.2 553.694 16
4 -3 -1 12648.5 511.191 4
-4 3 1 12789.7 505.043 17
-4 3 0 11018.1 458.016 17
4 -3 0 10993.8 455.187 4
-4 3 -1 43407.8 1014.8 17
4 -3 1 43744 1035.83 4
-4 3 -1 42630.8 943.037 19
-4 3 -2 137694 2353.43 17
4 -3 2 136924 2383.93 4
-4 3 -3 19558.9 599.035 17
4 -3 3 18596.7 613.81 4
-4 3 -4 11775.8 555.294 3
4 -3 4 10849.1 458.342 4
-4 3 -5 11149.1 589.057 3
-4 3 -5 10829.1 487.499 5
-4 3 -5 11273.2 469.463 13
-4 3 -5 11881.1 509.913 10
-4 3 -6 9830.48 486.022 5
-4 3 -6 9651.21 448.411 13
-4 3 -6 9287.89 432.157 7
-4 3 -6 10369.6 491.036 10
-4 3 -7 2334.93 243.194 5
-4 3 -7 2170.14 208.519 13
-4 3 -7 2308.77 215.542 7
-4 3 -7 2123.93 219.887 10
-4 3 -8 4596.51 331.658 5
-4 3 -8 4009.37 284.572 7
-4 3 -8 4172.9 307.902 10
-4 3 -9 3213.44 248.577 5
-4 3 -9 3024.04 227.356 7
-4 3 -10 17873.3 521.644 5
-4 3 -10 15449.7 453.258 7
-4 2 10 470.598 72.565 9
4 -2 -10 537.428 71.0845 14
4 -2 -10 532.401 66.8795 12
-4 2 9 9262.32 397.818 9
4 -2 -9 9010.82 378.8 14
4 -2 -9 8294.22 350.665 12
-4 2 8 39456.8 1025.4 9
4 -2 -8 37458.3 949.861 12
-4 2 7 7453.84 418.725 9
4 -2 -7 7622.9 405.359 15
4 -2 -7 7038.98 374.907 12
-4 2 6 6069.54 456.763 16
4 -2 -6 5546.83 341.115 15
-4 2 6 5389.61 350.879 9
-4 2 6 5580.92 342.15 8
4 -2 -6 5490.47 452.929 4
4 -2 -6 5180.25 309.699 12
-4 2 5 5159.32 322.318 8
-4 2 5 5213.02 399.687 16
-4 2 5 4925.05 320.372 9
4 -2 -5 5296.82 318.925 15
4 -2 -5 5322.91 414.738 4
4 -2 -5 5431.27 297.258 12
-4 2 4 160.454 70.8303 16
4 -2 -4 12.8859 34.9753 2
-4 2 4 146.581 77.1511 17
4 -2 -4 52.1712 58.3413 4
4 -2 -3 962.024 147.549 4
-4 2 3 574.101 118.678 16
-4 2 3 751.943 121.993 17
-4 2 2 5273.05 309.183 17
-4 2 2 5030.97 328.395 16
4 -2 -2 5060.78 310.405 4
-4 2 1 462.65 94.1296 17
4 -2 -1 468.618 94.3677 4
-4 2 0 10817.5 428.888 17
4 -2 0 13676.3 494.487 4
-4 2 -1 145776 2372.42 3
-4 2 -1 147324 2361.67 17
-4 2 -2 16459.5 560.582 3
-4 2 -2 16792.8 516.039 17
4 -2 2 16119.6 544.886 4
4 -2 3 1382.3 144.134 18
-4 2 -3 1440.26 135.071 17
-4 2 -3 1434.75 170.412 3
4 -2 3 1212.54 150.968 4
4 -2 4 84478.2 1706.76 18
-4 2 -4 86288.6 1796.09 3
4 -2 4 81392.9 1683.72 4
4 -2 5 2259.63 246.939 18
-4 2 -5 1891.1 236.913 3
-4 2 -5 1780.12 187.564 5
-4 2 -5 1773.72 177.065 13
-4 2 -5 1749.77 170.482 11
-4 2 -5 1841.25 196.876 6
-4 2 -5 1880.04 195.258 10
4 -2 6 5514.1 433.689 18
-4 2 -6 5528.47 434.677 3
-4 2 -6 5974.02 337.993 13
-4 2 -6 5839.23 336.465 7
-4 2 -6 5346.51 348.357 5
-4 2 -6 5685.69 329.271 11
-4 2 -6 5970.57 354.619 10
-4 2 -7 10940.5 516.632 5
-4 2 -7 10559.9 477.144 7
-4 2 -7 10159.2 447.048 11
-4 2 -7 10474.4 476.069 10
-4 2 -8 93.3068 61.4669 10
-4 2 -8 123.715 71.1266 5
-4 2 -8 -14.5192 52.3159 7
-4 2 -9 12232.3 492.081 5
-4 2 -9 10888.2 447.159 7
-4 2 -10 1163 114.322 7
-4 1 10 5398.43 262.509 9
4 -1 -10 5385.65 258.227 14
4 -1 -10 5239.65 244.428 12
-4 1 9 9654.57 428.078 9
4 -1 -9 9374.23 400.02 12
4 -1 -8 923.509 136.453 15
4 -1 -8 897.485 137.568 12
-4 1 7 7869.19 426.482 9
4 -1 -7 7488.31 392.761 12
4 -1 -7 8543.36 423.922 15
-4 1 6 40648.1 1227.48 16
-4 1 6 40477.9 1052.33 9
4 -1 -6 40543.3 1018.88 15
4 -1 -6 39589 982.151 12
4 -1 -6 38953.4 1117.84 2
-4 1 5 6460.76 381.362 17
-4 1 5 6313.15 422.058 16
-4 1 5 5767.6 334.151 9
4 -1 -5 6582.52 340.88 15
4 -1 -5 6199.69 427.567 4
4 -1 -5 5728.49 350.118 2
4 -1 -4 58401.9 1237 2
-4 1 4 61207.9 1437.06 16
4 -1 -4 58167.8 1395.41 4
-4 1 4 59963.3 1343.97 17
4 -1 -3 21612.8 569.903 2
-4 1 3 21666.9 674.837 17
4 -1 -3 21236.1 694.321 4
-4 1 3 22962.6 746.33 16
-4 1 2 29802.8 784.668 17
4 -1 -2 30143.2 806.7 4
-4 1 1 10596.7 411.337 17
4 -1 -1 9600.79 262.859 18
4 -1 -1 10356.2 418.418 4
-4 1 0 5794.89 287.459 17
-4 1 0 5705.57 253.212 3
4 -1 0 4911.35 190.382 18
4 -1 0 5274.23 288.355 4
4 -1 1 22346.9 546.505 18
-4 1 -1 20977.2 590.547 17
-4 1 -1 20571.7 586.432 3
4 -1 1 21318.5 620.146 4
4 -1 2 23174 622.639 18
-4 1 -2 23422.9 679.192 3
4 -1 2 22965.8 688.541 4
-4 1 -2 24553.9 620.51 17
4 -1 3 210400 3378.79 18
-4 1 -3 211030 3461.84 3
4 -1 4 14728.5 602.196 18
4 -1 4 13616.8 551.265 16
-4 1 -4 14694.5 620.737 3
4 -1 5 8965.25 525.09 18
-4 1 -5 7973.17 493.434 3
-4 1 -5 8586.96 410.174 5
-4 1 -5 7843.47 372.19 13
-4 1 -5 8026.61 371.4 7
-4 1 -5 8358.75 397.842 11
-4 1 -5 7982.41 408.399 6
-4 1 -5 7856.82 374.733 10
4 -1 6 3511.98 363.415 18
-4 1 -6 3581.46 282.01 5
-4 1 -6 3520.23 260.183 7
-4 1 -6 3602.5 272.113 11
-4 1 -6 3229.59 343.111 3
-4 1 -6 3570.2 284.007 6
-4 1 -6 3391.6 251.953 10
-4 1 -7 30099.3 904.038 5
-4 1 -7 30473.2 873.51 7
-4 1 -7 30845.6 896.199 6
-4 1 -8 6430.55 379.637 5
-4 1 -8 6229.79 358.268 7
-4 1 -8 6218.02 343.899 11
-4 1 -9 9282.14 416.188 5
-4 1 -9 8901.48 389.756 7
-4 1 -10 2608.16 161.209 7
-4 0 10 4971.56 262.732 9
4 0 -10 5009.49 268.075 14
4 0 -10 4789.73 251.881 12
-4 0 9 2044.75 195.088 9
4 0 -9 2066.34 182.798 15
4 0 -9 1975.44 187.975 12
-4 0 8 14282.3 576.429 9
4 0 -8 14114.6 548.064 15
4 0 -8 13926.4 555.25 12
4 0 -7 17804.1 739.067 2
4 0 -7 17415.5 622.257 15
-4 0 7 16284.5 771.555 1
4 0 -7 16693.3 609.839 12
4 0 -6 28827.5 912.448 2
4 0 -6 29064 815.739 15
4 0 -5 46427.6 1147.23 2
-4 0 5 48893 1193.3 17
4 0 -5 49957.9 1269.93 4
4 0 -4 77201.2 1498.71 2
-4 0 4 78625.3 1586.01 17
4 0 -4 77904.9 1624.16 4
-4 0 3 389304 5771.23 17
4 0 -3 391190 5591.59 2
-4 0 3 388861 5628.3 1
4 0 -3 384882 5794.49 4
-4 0 2 29080.8 745.514 17
4 0 -2 27659.6 745.96 4
4 0 -2 27130.3 645.329 18
-4 0 1 8120.06 266.379 3
-4 0 1 8582.39 358.403 17
4 0 -1 7925.79 298.497 18
4 0 -1 8771.24 365.761 4
-4 0 0 3961.74 206.252 3
-4 0 0 4110.36 236.525 17
4 0 0 3910.53 221.549 18
4 0 0 3873.84 243.469 4
4 0 1 45919.1 1004.46 18
-4 0 -1 46375.7 971.496 17
-4 0 -1 45656.4 985.856 3
4 0 2 77484.6 1525.35 18
-4 0 -2 78258.2 1553.35 3
-4 0 -2 79599.1 1411.16 17
4 0 3 22004.2 719.262 18
-4 0 -3 22043.3 737.76 3
4 0 4 4240.18 331.934 18
4 0 4 4048.3 320.578 16
-4 0 -4 4289.71 338.666 3
4 0 5 17444.8 776.936 18
-4 0 -5 16467.9 743 3
-4 0 -5 16850.3 604.894 5
-4 0 -5 16953.7 579.122 7
-4 0 -5 17211.3 620.882 11
-4 0 -5 17575 635.87 6
4 0 6 545.931 160.262 18
-4 0 -6 438.29 137.405 3
-4 0 -6 534.518 117.095 5
-4 0 -6 305.13 86.0435 7
-4 0 -6 457.569 107.472 11
-4 0 -6 493.53 110.003 6
-4 0 -7 3702.21 297.011 5
-4 0 -7 3663.85 281.192 7
-4 0 -7 3707.11 294.766 11
-4 0 -7 3672.06 287.093 6
-4 0 -8 1681.77 197.127 5
-4 0 -8 1982.21 199.579 7
-4 0 -8 1744.71 189.014 11
-4 0 -9 52996.8 1111.57 7
-4 0 -9 51982.2 1083.74 11
4 1 -11 2409.42 137.291 14
4 1 -11 2309.8 135.424 12
-4 -1 10 15425.1 499.401 9
4 1 -10 16127.7 511.594 12
4 1 -9 62224.4 1313.01 15
4 1 -9 62398.9 1365.77 12
4 1 -8 187.472 74.2808 15
4 1 -8 345.62 97.5916 12
4 1 -7 5048.65 316.677 15
-4 -1 7 4317.77 387.316 1
4 1 -6 4663.57 292.589 15
-4 -1 6 4608.57 364.607 1
-4 -1 5 9961.29 485.597 1
-4 -1 5 9547.3 457.266 17
4 1 -4 480828 7105.84 19
-4 -1 4 484549 7095.93 1
4 1 -4 490298 7103.07 4
-4 -1 4 480443 7125.6 17
-4 -1 3 2683.25 214.84 17
4 1 -3 2409.36 198.735 18
-4 -1 3 2932.87 195.222 1
4 1 -3 2925.43 215.672 4
4 1 -3 2858.44 204.461 19
-4 -1 2 122908 1992.74 1
-4 -1 2 126350 2167.21 17
4 1 -2 125287 2034.28 19
4 1 -2 128701 2149.68 4
4 1 -2 124910 2135.99 18
-4 -1 1 84783.3 1423.66 3
-4 -1 1 88720.5 1607.56 17
4 1 -1 87515.9 1385.59 19
4 1 -1 89648.8 1604.2 4
-4 -1 0 5908.33 294.825 17
-4 -1 0 6348.22 283.998 3
4 1 0 6400.35 334.629 18
4 1 1 122363 2166.86 18
-4 -1 -1 118515 2023.15 17
-4 -1 -1 117674 2086.46 3
4 1 2 16837.1 612.147 18
-4 -1 -2 15690.7 478.271 17
-4 -1 -2 15504.8 589.006 3
4 1 3 36659.5 1030.47 18
4 1 3 33334.2 1015.26 16
-4 -1 -3 35812.6 1033.57 3
4 1 4 5356.4 399.372 18
4 1 4 5415.6 396.336 16
-4 -1 -4 5334.66 306.825 5
-4 -1 -4 5129.63 396.008 3
-4 -1 -4 5205.78 317.645 11
-4 -1 -4 5123.8 321.339 6
4 1 5 39733.3 1290.05 18
4 1 5 36349.6 1176.77 16
-4 -1 -5 37657.2 1240.87 3
-4 -1 -5 39701 1016.36 5
-4 -1 -5 38398.5 980.92 7
-4 -1 -5 39541.8 1060.7 11
-4 -1 -5 37232.9 1039.38 6
-4 -1 -6 382.874 99.0102 6
-4 -1 -6 695.716 136.932 5
-4 -1 -6 497.934 113.722 7
-4 -1 -6 432.916 112.918 11
-4 -1 -7 145.101 84.8677 6
-4 -1 -7 139.185 92.4655 5
-4 -1 -7 83.2003 56.6444 7
-4 -1 -7 24.23 54.221 11
-4 -1 -8 490.347 104.04 7
-4 -1 -8 576.796 118.291 11
-4 -1 -9 313.853 69.7781 7
-4 -1 -9 446.712 84.3045 11
4 2 -11 221.951 45.7361 14
4 2 -11 191.9 42.9773 12
-4 -2 10 155.851 59.1425 9
4 2 -10 189.479 61.3886 12
4 2 -9 13974.5 512.379 15
4 2 -9 14407.2 551.214 12
4 2 -8 13184.9 530.871 15
4 2 -7 16199.6 599.133 15
-4 -2 7 15643.9 747.382 1
4 2 -6 142.586 55.2778 15
-4 -2 6 763.422 153.369 1
-4 -2 5 1238.54 165.632 17
4 2 -5 925.841 123.133 15
-4 -2 5 1033.88 160.218 1
4 2 -5 1140.88 163.884 19
4 2 -4 1489.99 183.668 18
-4 -2 4 1533.64 174.489 17
4 2 -4 1433.83 167.777 19
-4 -2 4 1476.83 170.841 1
4 2 -3 81709.4 1638.51 18
-4 -2 3 77574.1 1583.81 17
4 2 -3 78191.6 1521.12 19
4 2 -3 81157.6 1504.69 4
-4 -2 3 79598.8 1536.54 1
4 2 -2 7366.83 378.123 18
-4 -2 2 7963.21 377.6 17
-4 -2 2 7911.4 340.811 1
4 2 -2 7527.85 336.65 4
4 2 -2 7594.62 319.666 19
4 2 -1 35242.7 726.244 19
4 2 -1 35430.3 941.427 18
-4 -2 1 32788.3 755.25 3
-4 -2 1 34848.6 876.961 17
4 2 -1 34401.8 848.152 4
4 2 0 65697.5 1411.62 18
-4 -2 0 64185.7 1279.51 3
-4 -2 0 63604.6 1292.68 17
4 2 1 6609.73 391.837 18
-4 -2 -1 6528.18 324.526 17
-4 -2 -1 6696.46 366.24 3
-4 -2 -1 6537.02 313.979 2
4 2 2 9349.87 489.374 18
-4 -2 -2 9608.24 487.876 3
-4 -2 -2 9150.3 405.878 2
4 2 3 1079.98 182.73 16
-4 -2 -3 1077.89 180.41 3
4 2 3 1278.16 189.77 18
4 2 4 2392.02 284.778 18
4 2 4 2290.43 272.011 16
-4 -2 -4 3002.15 248.633 5
-4 -2 -4 2411.73 296.449 3
-4 -2 -4 2315.53 199.902 14
-4 -2 -4 2530.81 218.482 7
-4 -2 -4 2495.75 234.517 11
-4 -2 -4 2432.91 238.423 6
4 2 5 9059.03 608.682 18
4 2 5 9271.53 581.115 16
-4 -2 -5 8725.08 481.825 6
-4 -2 -5 8865.73 417.044 14
-4 -2 -5 8959.62 439.538 7
-4 -2 -5 9920.03 498.212 11
-4 -2 -5 9284.97 619.849 3
-4 -2 -6 20840.4 673.738 14
-4 -2 -6 20942.9 715.7 7
-4 -2 -6 21469.9 785.512 11
-4 -2 -6 19638.5 754.685 6
-4 -2 -7 5486.67 335.149 7
-4 -2 -7 5655.1 377.309 11
-4 -2 -7 5154.08 340.315 6
-4 -2 -8 210.257 68.5501 7
-4 -2 -8 87.5988 59.3703 11
-4 -2 -9 10931.6 354.154 7
-4 -2 -9 10950.8 369.729 11
4 3 -11 144.084 39.6012 12
-4 -3 10 3879.19 217.37 9
4 3 -10 3842.87 239.658 12
4 3 -9 3713.9 249.101 15
4 3 -8 10437.7 466.629 15
4 3 -7 71915.5 1539.43 15
-4 -3 7 73961.6 1869.52 1
-4 -3 6 11620.9 559.499 17
4 3 -6 11933.1 495.568 15
-4 -3 6 11727.6 622.734 1
4 3 -6 10769.9 575.897 19
-4 -3 5 716.379 137.017 17
4 3 -5 755.283 116.796 15
4 3 -5 758.554 136.713 19
-4 -3 5 830.117 148.799 1
4 3 -4 7790.84 452.934 18
-4 -3 4 7168.77 404.438 17
4 3 -4 6956.05 388.912 19
-4 -3 4 7514.39 420.616 1
4 3 -3 10386.1 512.146 18
-4 -3 3 10784.9 488.647 17
-4 -3 3 10776.9 476.94 1
4 3 -3 10712.3 450.361 19
4 3 -2 52995.7 1297.25 18
4 3 -2 55189.2 1153.62 19
-4 -3 2 54071.6 1253.79 17
-4 -3 2 55364.5 1235.85 1
4 3 -2 53956.6 1138.55 4
4 3 -1 32785.1 970.701 18
-4 -3 1 33406.7 888.756 1
-4 -3 1 31700 882.668 17
-4 -3 1 30431.6 796.94 3
4 3 0 4941.41 354.424 18
-4 -3 0 4964.82 313.238 17
-4 -3 0 4696.51 311.854 3
-4 -3 0 4746.08 337.787 2
4 3 1 46980.5 1272.5 18
-4 -3 -1 45924.8 1117.6 17
-4 -3 -1 47503.1 1237.08 3
-4 -3 -1 46633.6 1202.55 2
4 3 2 43178.3 1244.94 16
-4 -3 -2 43105.7 1260.37 3
4 3 2 43548.3 1261.46 18
-4 -3 -2 43565.4 1177.99 2
-4 -3 -3 7685.08 439.762 6
4 3 3 7651.2 508.799 18
4 3 3 8578.89 537.947 16
-4 -3 -3 6995.59 506.127 3
-4 -3 -3 7237.28 366.766 14
-4 -3 -3 7080.39 370.824 7
-4 -3 -3 7172.24 348.117 12
-4 -3 -3 7544.7 393.609 11
4 3 4 63629.3 1754.28 18
4 3 4 63441.1 1705.52 16
-4 -3 -4 61863.9 1809.56 3
-4 -3 -4 61241.6 1353.57 14
-4 -3 -4 61162.1 1375.81 7
-4 -3 -4 61651.4 1312.89 12
-4 -3 -4 64595 1452.02 11
-4 -3 -4 61591.7 1524.16 6
-4 -3 -5 1797.09 190.546 14
-4 -3 -5 2044.05 214.978 7
-4 -3 -5 1692.25 177.778 12
-4 -3 -5 1504.62 196.107 11
-4 -3 -5 1694.33 223.486 6
-4 -3 -6 8823.64 419.867 14
-4 -3 -6 9362.33 455.808 7
-4 -3 -6 9570.8 413.027 12
-4 -3 -6 9920.11 503.998 11
-4 -3 -6 8830.25 493.682 6
-4 -3 -7 66.887 50.2673 6
-4 -3 -7 55.4783 36.6795 14
-4 -3 -7 61.4232 60.3881 7
-4 -3 -7 37.5763 56.485 11
-4 -3 -8 13246 436.818 7
-4 -3 -8 12808.9 468.883 11
4 4 -10 741.518 103.944 12
4 4 -9 331.262 80.481 15
4 4 -9 337.125 70.8893 7
4 4 -8 311.906 80.5812 15
4 4 -8 294.752 90.2807 7
4 4 -7 6925.42 387.341 15
4 4 -7 6950.17 376.881 7
-4 -4 6 1080.76 174.125 17
4 4 -6 1174.65 157.199 15
-4 -4 6 1000.68 198.677 1
4 4 -6 1125.14 191.17 19
4 4 -5 27337.3 1009.78 18
-4 -4 5 26474.5 902.494 17
4 4 -5 27781.1 808.762 15
4 4 -5 25175.5 892.884 19
4 4 -4 4570.34 375.268 18
-4 -4 4 4331.69 332.293 17
-4 -4 4 4503.57 346.256 1
4 4 -4 4766.23 295.142 15
-4 -4 4 4212.85 270.203 8
4 4 -4 4385.17 322.933 19
4 4 -3 119026 2365.7 18
4 4 -3 114403 2163.86 19
-4 -4 3 110718 2225.43 1
-4 -4 3 115261 2248.4 17
4 4 -2 266072 4369.71 18
4 4 -2 259623 4096.78 19
-4 -4 2 259314 4250.34 1
4 4 -1 25348 896.27 18
-4 -4 1 25409.6 845.942 1
-4 -4 1 23714.5 768.029 3
-4 -4 0 24910.6 851.645 3
-4 -4 0 23057.4 902.079 2
4 4 0 25116.7 912.497 18
4 4 1 191.835 97.8779 18
-4 -4 -1 240.405 79.6492 6
4 4 1 205.163 85.5254 16
-4 -4 -1 234.217 91.8294 2
-4 -4 -1 189.694 95.0483 3
-4 -4 -1 251.413 69.6851 14
-4 -4 -1 171.773 62.4384 12
-4 -4 -1 177.958 57.1715 7
-4 -4 -2 337.282 98.1625 6
4 4 2 654.077 156.647 18
4 4 2 436.098 130.347 16
-4 -4 -2 418.253 133.775 2
-4 -4 -2 396.919 141.388 3
-4 -4 -2 327.82 88.4215 14
-4 -4 -2 387.395 89.5795 12
-4 -4 -2 480.483 102.732 7
-4 -4 -2 327.841 73.8268 11
-4 -4 -3 178160 3274.99 6
4 4 3 184371 3540.89 18
4 4 3 181753 3455.95 16
-4 -4 -3 178233 3643.25 3
-4 -4 -3 177540 3009.51 14
-4 -4 -3 177841 3042.6 7
-4 -4 -3 175843 2960.31 12
-4 -4 -3 174742 3019.21 11
-4 -4 -4 1806.28 196.469 14
-4 -4 -4 2071.95 217.766 7
-4 -4 -4 2106.01 200.624 12
-4 -4 -4 1924.38 207.979 11
-4 -4 -4 2064.85 256.086 6
-4 -4 -5 9890.38 460.224 14
-4 -4 -5 10341.1 483.647 7
-4 -4 -5 10031 441.516 12
-4 -4 -5 10367.5 497.712 11
-4 -4 -5 9733.45 547.1 6
-4 -4 -6 1732.9 173.696 14
-4 -4 -6 2181.52 205.827 7
-4 -4 -6 1775.03 167.348 12
-4 -4 -6 2065.6 208.392 11
-4 -4 -6 1937.67 219.827 6
-4 -4 -7 3470.38 207.073 14
-4 -4 -7 3261.92 220.656 7
-4 -4 -7 3507.57 239.21 11
-4 -4 -7 3087.93 217.441 6
-4 -4 -8 14514.8 389.946 7
-4 -4 -8 14577.8 406.094 11
4 5 -10 20253.1 547.501 12
4 5 -9 856.984 112.237 15
4 5 -9 823.655 110.846 7
4 5 -8 3212.32 249.072 15
4 5 -8 2913.11 232.118 7
4 5 -7 202.759 68.9213 15
4 5 -6 556.12 114.99 15
4 5 -5 3284.69 342.72 18
-4 -5 5 3005.47 303.954 17
4 5 -5 2989.31 250.018 15
-4 -5 5 3004.63 319.445 1
4 5 -5 3020.6 304.343 19
4 5 -4 211.817 99.4008 18
4 5 -4 152.657 66.6158 15
-4 -5 4 86.2915 60.5805 1
-4 -5 4 114.658 68.1468 17
4 5 -4 109.36 80.7792 19
-4 -5 4 197.485 59.6219 8
4 5 -3 9887.66 450.698 15
-4 -5 3 9319.96 453.789 14
4 5 -3 9524.18 564.267 18
-4 -5 3 10465.9 549.673 1
4 5 -3 9504.34 494.286 19
-4 -5 2 8039.05 475.458 1
4 5 -2 8649.82 520.796 18
4 5 -2 7599.29 388.056 15
-4 -5 2 8031.04 408.647 14
4 5 -1 40827.8 1237.12 18
-4 -5 1 37682.8 980.675 6
4 5 -1 38182.6 1117.52 16
4 5 -1 39350.9 983.115 15
-4 -5 1 38015.9 1105.43 3
-4 -5 1 39152.3 1002.46 14
4 5 0 43178.4 1332.74 18
-4 -5 0 43191.6 1118.9 6
-4 -5 0 42013 1266.3 3
-4 -5 0 44624.9 1083.86 14
-4 -5 0 41313.5 1363.84 2
-4 -5 0 43885.1 1067.64 12
4 5 0 43913.5 1268.53 16
-4 -5 -1 20737.5 766.929 6
4 5 1 21113.8 912.847 18
4 5 1 21723.1 886.689 16
-4 -5 -1 19564.9 887.783 3
-4 -5 -1 21277.6 699.951 14
-4 -5 -1 21196.5 703.893 7
-4 -5 -1 22398.2 975.089 2
-4 -5 -1 23924 729.699 12
-4 -5 -2 34474.8 1073.21 6
4 5 2 33740.8 1163.35 16
-4 -5 -2 32293.7 1247.43 3
4 5 2 32948.7 1199.74 18
-4 -5 -2 34358.9 940.266 14
-4 -5 -2 33454.7 942.26 7
-4 -5 -2 32010.4 894.532 12
-4 -5 -2 32188.2 863.328 11
-4 -5 -3 989.821 184.847 6
-4 -5 -3 946.128 144.057 14
-4 -5 -3 693.584 123.921 12
-4 -5 -3 842.651 141.576 7
-4 -5 -3 756.89 132.103 11
-4 -5 -4 9033.98 437.74 14
-4 -5 -4 9332.8 455.255 7
-4 -5 -4 8268.24 406.896 12
-4 -5 -4 8339.95 417.95 11
-4 -5 -4 8829.71 520.523 6
-4 -5 -5 702.096 137.082 6
-4 -5 -5 992.017 136.45 14
-4 -5 -5 1075.67 148.107 7
-4 -5 -5 806.271 116.705 12
-4 -5 -5 955.777 136.489 11
-4 -5 -6 748.478 102.95 14
-4 -5 -6 899.12 118.178 7
-4 -5 -6 836.795 103.197 12
-4 -5 -6 931.977 132.108 6
-4 -5 -6 734.952 109.345 11
-4 -5 -7 2965 156.809 14
-4 -5 -7 3261.19 178.195 7
-4 -5 -7 2981.36 174.669 11
4 6 -10 8608.52 294.507 12
4 6 -9 641.273 91.1367 15
4 6 -9 548.475 83.8886 7
4 6 -8 8231.05 386.401 15
4 6 -8 7528.81 366.082 7
4 6 -7 13625.1 549.19 15
4 6 -6 1043.49 152.432 15
4 6 -5 551.379 118.575 15
-4 -6 4 10361.7 598.53 17
4 6 -4 11055.7 503.525 15
4 6 -4 9919.23 569.394 19
4 6 -4 11108.2 642.603 18
4 6 -3 16163.7 614.265 15
-4 -6 3 16074.1 628.439 14
4 6 -3 17595.7 809.855 18
4 6 -2 10233 474.528 15
-4 -6 2 10138 478.845 14
4 6 -2 10548.1 619.073 18
4 6 -1 30123.1 1091.73 18
-4 -6 1 28880.8 863.94 6
4 6 -1 31555.6 871.08 15
-4 -6 1 30674 883.334 14
4 6 0 29814.1 1037.18 16
-4 -6 0 29539.8 1087.96 3
-4 -6 0 31848.3 900.065 14
4 6 0 32062.6 1146.85 18
-4 -6 0 29289.1 1140.36 2
-4 -6 0 30640.5 935.135 6
-4 -6 0 30761.4 889.606 12
-4 -6 -1 3857.02 323.52 6
-4 -6 -1 4218.67 300.346 14
-4 -6 -1 3663.58 278.369 12
-4 -6 -2 1457.16 204.437 6
-4 -6 -2 1350.21 171.554 14
-4 -6 -2 1811.16 195.489 7
-4 -6 -2 1372.01 168.893 12
-4 -6 -3 337.178 111.706 6
-4 -6 -3 346.253 88.6155 14
-4 -6 -3 336.303 91.6221 12
-4 -6 -3 266.687 87.9648 7
-4 -6 -3 361.676 86.0503 11
-4 -6 -4 1080.85 143.069 14
-4 -6 -4 1381.72 162.152 7
-4 -6 -4 1329.98 154.053 12
-4 -6 -4 1342.66 145.003 11
-4 -6 -4 1532.15 198.978 6
-4 -6 -5 50389.5 1054.28 14
-4 -6 -5 51464.5 1060.74 7
-4 -6 -5 48802.8 1014.66 12
-4 -6 -5 48557.9 1129.3 6
-4 -6 -6 198.753 52.1861 6
-4 -6 -6 216.121 51.519 14
-4 -6 -6 236.081 44.8462 12
-4 -6 -6 223.631 46.0399 11
4 7 -9 73.0944 31.2096 15
4 7 -9 57.8233 36.642 7
4 7 -8 1685.12 155.448 15
4 7 -8 1557.67 149.401 7
4 7 -7 11838.9 480.939 15
4 7 -6 48.3764 53.6581 15
4 7 -5 12352 527.344 15
4 7 -4 22.2575 49.4579 15
-4 -7 4 229.9 82.7959 8
4 7 -3 18784.6 660.788 15
-4 -7 3 17460 660.309 14
-4 -7 2 12841.3 518.101 6
4 7 -2 13538.2 550.196 15
-4 -7 2 13926.2 575.663 14
4 7 -1 19253 656.71 15
-4 -7 1 18434.5 665.724 6
-4 -7 1 18490.2 668.402 14
-4 -7 0 728.033 135.064 6
-4 -7 0 759.552 127.725 14
-4 -7 -1 13048.2 569.886 6
-4 -7 -1 12885.4 525.252 14
-4 -7 -1 13071.3 530.936 12
-4 -7 -2 11755.5 530.685 6
-4 -7 -2 11606 478.443 14
-4 -7 -2 10508.4 454.499 12
-4 -7 -3 2764.66 215.058 14
-4 -7 -3 2482.64 200.305 12
-4 -7 -3 2925.44 245.031 6
-4 -7 -4 3505.81 216.042 14
-4 -7 -4 3026.02 196.685 12
-4 -7 -4 3239.47 227.413 6
-4 -7 -5 21879.6 514.232 14
-4 -7 -5 20203.5 511.613 6
4 8 -8 13533.1 404.321 15
4 8 -8 12049.4 383.008 7
4 8 -7 17790.1 545.573 15
4 8 -6 5991.56 320.735 15
4 8 -5 23413.4 709.143 15
4 8 -4 256.315 78.5983 15
-4 -8 4 265.415 70.5087 8
4 8 -3 5518.43 323.524 15
-4 -8 3 5352.34 326.092 14
4 8 -2 1347.89 158.115 15
-4 -8 2 1401.74 165.792 14
-4 -8 2 1252.53 144.58 6
-4 -8 1 5947.36 337.843 6
4 8 -1 6275.39 329.254 15
-4 -8 1 6041.49 339.125 14
-4 -8 0 477.629 99.3963 6
-4 -8 0 444.15 96.6191 14
-4 -8 -1 5176.13 311.87 6
-4 -8 -1 5473.52 299.698 14
-4 -8 -2 6765.6 315.448 14
-4 -8 -2 7287.68 350.87 6
-4 -8 -3 485.018 83.7182 6
-4 -8 -3 384.945 67.5214 14
-4 -8 -4 2086.8 124.216 14
4 9 -7 481.79 69.6668 15
4 9 -7 497.858 69.5108 7
4 9 -6 4792.35 238.908 15
4 9 -5 6657.4 302.722 15
4 9 -4 309.532 67.9617 15
-4 -9 4 207.799 52.9434 8
4 9 -3 8122.69 344.025 15
-4 -9 3 7874.99 334.648 8
4 9 -2 9987.86 377.567 15
-4 -9 2 10040.3 368.855 6
-4 -9 1 11114.3 403.766 6
-4 -9 1 10601.3 393.914 14
-4 -9 0 1735.27 150.873 6
-4 -9 0 1668.55 141.612 14
-4 -9 -1 12994.2 394.934 14
-4 -9 -1 13524.3 424.212 6
-4 -9 -2 22.1301 22.596 6
-4 -9 -2 13.5435 24.1371 14
4 10 -5 14861.4 372.128 15
4 10 -4 312.721 50.3286 15
4 10 -3 21.1197 22.5969 15
-4 -10 2 5804.21 219.844 8
-4 -10 1 2389.66 132.463 8
-5 10 1 1216.37 100.798 9
-5 10 1 1152.24 98.1961 15
-5 10 0 18079.2 476.176 15
-5 10 0 21105.9 524.269 9
-5 10 -1 5148.13 248.64 9
-5 10 -1 4429.11 209.174 15
-5 10 -2 6191.24 285.497 9
-5 10 -3 142.113 46.656 9
-5 9 3 5.98141 24.0447 9
-5 9 3 91.6936 37.8585 15
-5 9 2 34.9206 28.246 9
-5 9 2 6.50522 32.5288 15
-5 9 1 2327.93 193.282 9
-5 9 1 2386.74 185.78 15
-5 9 0 11328.1 435.498 15
-5 9 0 11277.7 460.012 9
-5 9 -1 16.5397 38.4926 9
-5 9 -1 21.2582 32.4303 15
-5 9 -2 20101.4 654.681 9
-5 9 -2 17289.6 538.156 15
-5 9 -3 6123.8 345.52 9
-5 9 -3 5525.43 286.201 5
-5 9 -4 4956.43 302.688 9
-5 9 -4 4292.3 250.957 5
-5 9 -5 1228.67 130.282 5
-5 9 -5 930.74 101.94 10
-5 9 -6 5201.78 245.506 5
-5 9 -6 3967.58 192.565 10
-5 8 5 4666.19 206.418 15
-5 8 5 4925.15 208.155 9
-5 8 4 3130.54 202.306 9
-5 8 3 4156.31 263.244 9
-5 8 2 503.89 103.495 9
-5 8 1 11487.7 504.325 9
-5 8 0 73.7591 63.9728 9
-5 8 -1 2542.81 221.074 15
-5 8 -1 3259.82 278.792 9
-5 8 -2 32909.3 865.843 15
-5 8 -2 31388.6 840.763 10
-5 8 -3 439.916 98.1343 10
-5 8 -3 743.27 145.35 9
-5 8 -3 664.426 122.537 5
-5 8 -4 657.508 131.647 9
-5 8 -4 527.007 106.074 5
-5 8 -5 2528.89 226.593 5
-5 8 -5 2427.8 200.848 10
-5 8 -6 101.649 45.2906 10
-5 8 -6 130.318 65.0335 5
-5 8 -7 2830.89 203.774 5
-5 8 -7 2672.1 180.767 10
-5 8 -8 9230.73 313.328 5
-5 8 -8 8630.58 287.973 10
-5 7 6 166.9 43.0141 9
-5 7 5 597.615 94.2146 9
-5 7 4 1830.46 181.433 9
-5 7 3 5540.92 346.641 9
-5 7 2 27217.4 851.042 9
-5 7 2 26001.9 810.958 8
-5 7 1 6932.03 387.487 8
-5 7 1 7076.46 414.827 9
-5 7 0 936.802 140.109 10
-5 7 0 916.315 151.913 9
-5 7 0 929.752 140.306 8
-5 7 -1 4250.98 328.051 9
-5 7 -1 3507.04 268.83 10
-5 7 -2 350.424 100.607 10
-5 7 -2 219.834 72.4774 13
-5 7 -3 10775.9 554.62 9
-5 7 -3 10804 507.477 5
-5 7 -3 10373.2 478.038 13
-5 7 -3 10346.5 486.036 10
-5 7 -4 55911.3 1373.44 5
-5 7 -4 56451.5 1323.94 13
-5 7 -4 55096.7 1316.54 10
-5 7 -5 24.6356 60.7848 9
-5 7 -5 87.5747 55.7085 10
-5 7 -5 20.2748 70.9539 5
-5 7 -5 60.8165 58.8135 13
-5 7 -6 7726.87 434.351 5
-5 7 -6 7723.21 395.127 10
-5 7 -7 9471.66 451.059 5
-5 7 -7 9604.87 413.643 10
-5 7 -8 14617.1 501.578 5
-5 7 -8 13525.5 451.649 10
-5 6 7 2006.92 143.784 9
-5 6 6 10030.1 403.805 9
-5 6 5 1386.9 164.248 9
-5 6 4 7332.85 408.78 9
-5 6 4 7552.9 418.347 8
-5 6 3 90976.5 1886.03 9
-5 6 3 91074.2 1869.07 8
-5 6 2 64459.1 1407.81 10
-5 6 2 65575.7 1507.34 9
-5 6 2 65349.9 1476.26 8
-5 6 1 19516.1 671.369 10
-5 6 1 19730.9 726.494 9
-5 6 1 19745.1 688.74 8
5 -6 -1 18760.8 801.056 4
-5 6 0 804.14 141.018 10
-5 6 0 748.671 143.866 9
-5 6 0 605.491 114.559 8
5 -6 0 663.381 142.557 4
-5 6 -1 380.022 98.8297 10
-5 6 -1 339.696 102.273 9
-5 6 -2 230.443 91.5921 10
-5 6 -2 333.141 88.7384 13
-5 6 -2 206.421 90.6027 9
-5 6 -3 52.1649 69.7425 10
-5 6 -3 128.681 73.4062 9
-5 6 -3 96.5372 74.9052 5
-5 6 -3 190.869 70.3025 13
-5 6 -4 1027.69 164.073 10
-5 6 -4 917.926 177.891 9
-5 6 -4 1120.69 173.594 5
-5 6 -4 791.897 141.401 13
-5 6 -5 2847.17 292.03 9
-5 6 -5 2810.03 274.784 5
-5 6 -5 3148.02 274.81 13
-5 6 -5 3029.88 272.149 10
-5 6 -6 3449.81 301.196 5
-5 6 -6 3754.87 293.822 13
-5 6 -6 3614.34 292.842 10
-5 6 -7 15863.8 645.81 5
-5 6 -7 17208.9 619.539 10
-5 6 -8 8488.69 413.928 5
-5 6 -8 7928.36 375.099 10
-5 6 -9 12307.5 424.405 5
-5 5 8 13544.8 385.304 9
5 -5 -8 12468.6 354.716 11
-5 5 7 40.3539 36.5569 9
-5 5 6 19692.5 651.496 9
-5 5 6 18104.9 627.516 8
-5 5 5 111.23 70.5231 9
-5 5 5 116.276 70.7767 8
-5 5 4 229.791 88.5629 9
-5 5 4 189.237 82.7228 8
-5 5 3 10.3865 66.9922 17
-5 5 3 22.3601 73.6401 16
-5 5 3 93.9125 66.7691 9
-5 5 3 39.8972 60.0361 8
5 -5 -3 195.592 85.1588 4
-5 5 2 3115.82 316.248 17
-5 5 2 3068.78 268.815 9
-5 5 2 3284.44 266.698 8
5 -5 -2 3643.78 340.813 4
-5 5 1 16353.3 639.858 9
-5 5 1 16098.9 592.16 8
-5 5 1 15764.5 711.148 17
5 -5 -1 16801.4 718 4
-5 5 0 20108.3 688.19 10
-5 5 0 19712.8 795.777 17
-5 5 0 19796.6 726.206 9
-5 5 0 19390.1 630.445 8
5 -5 0 18560.7 739.626 4
-5 5 -1 24068 881.579 17
-5 5 -1 25431.1 844.283 9
-5 5 -1 23022.5 682.702 13
5 -5 1 23866.7 820.618 4
-5 5 -1 24116.7 788.165 10
-5 5 -2 5752.27 393.704 9
-5 5 -2 5703.39 325.437 13
5 -5 2 5347.22 356.527 4
-5 5 -2 6415.04 390.442 10
-5 5 -3 784.501 138.786 10
-5 5 -3 852.247 142.157 5
-5 5 -3 794.818 158.075 9
-5 5 -3 836.887 133.042 13
-5 5 -4 15116.3 678.701 9
-5 5 -4 15304.5 616.995 5
-5 5 -4 16500.2 619.44 13
-5 5 -4 15787.5 644.14 10
-5 5 -5 4866.16 350.336 5
-5 5 -5 5157.84 344.117 13
-5 5 -5 4643.21 343.169 10
-5 5 -6 136.987 78.3772 10
-5 5 -6 182.657 86.2026 5
-5 5 -6 89.3947 66.5698 13
-5 5 -7 3747.95 307.555 5
-5 5 -7 3684.35 283.607 13
-5 5 -7 3683.29 289.77 10
-5 5 -8 1728.9 196.02 5
-5 5 -8 1877.74 192.643 10
-5 5 -9 20492.7 614.518 5
-5 4 8 492.351 86.7892 9
5 -4 -8 537.933 77.3563 14
-5 4 7 3465.26 253.129 9
-5 4 7 3299.98 232.055 8
5 -4 -7 3349.76 216.741 14
-5 4 6 489.783 113.617 9
-5 4 6 420.658 107.929 8
5 -4 -6 550.572 97.1681 14
-5 4 5 9793.24 482.149 9
-5 4 5 9736.78 495.91 8
-5 4 4 65980.1 1681.79 17
-5 4 4 64473.8 1494.67 9
-5 4 4 67163.7 1792.66 16
-5 4 4 68447.4 1537.07 8
5 -4 -4 67613.9 1746.06 4
-5 4 3 13059 644.341 17
-5 4 3 14661.2 587.732 9
-5 4 3 14172.2 717.574 16
-5 4 3 14951.2 590.95 8
5 -4 -3 15646.3 712.419 4
-5 4 2 50323.4 1355.3 17
-5 4 2 52742.6 1241.27 9
-5 4 2 51880.5 1199.58 8
5 -4 -2 51420 1373.42 4
-5 4 1 6134.27 405.072 17
-5 4 1 5814.28 354.976 9
-5 4 1 5683.7 318.636 8
5 -4 -1 6126.6 398.414 4
-5 4 0 12173.6 570.216 17
5 -4 0 12415.4 565.544 4
-5 4 -1 25672.9 852.703 17
5 -4 1 25982.5 838.06 4
5 -4 2 363.911 91.0077 4
-5 4 -2 179.486 70.1539 10
-5 4 -2 341.721 94.4054 17
-5 4 -2 435.74 98.2699 13
-5 4 -3 16017.8 633.934 9
-5 4 -3 16012.4 571.96 5
-5 4 -3 16857 592.06 13
-5 4 -3 17018.6 578.355 11
5 -4 3 16246.2 631.233 4
-5 4 -3 15876.7 627.429 10
-5 4 -4 29951.4 943.324 9
-5 4 -4 31191.2 891.727 5
-5 4 -4 32701.3 898.98 13
-5 4 -4 31711.2 837.682 11
-5 4 -4 31128.7 945.315 10
-5 4 -5 43986.1 1153.49 5
-5 4 -5 45414.5 1137.92 13
-5 4 -5 45126.7 1200.19 10
-5 4 -6 4677.68 339.215 5
-5 4 -6 4287.87 309.564 13
-5 4 -6 3784.82 311.811 10
-5 4 -7 25443.8 838.731 5
-5 4 -7 25452.9 790.62 13
-5 4 -7 24981.4 814.427 10
-5 4 -8 2307.3 224.898 5
-5 4 -8 2081.57 208.206 10
-5 4 -9 1052.84 140.227 5
-5 3 9 2299.85 158.492 9
5 -3 -9 2136.21 138.103 14
-5 3 8 9155.72 397.444 9
5 -3 -8 8769.98 361.347 14
5 -3 -8 8634.51 330.287 12
-5 3 7 6666.26 358.055 8
5 -3 -7 7266.73 361.186 14
5 -3 -7 7497.61 340.069 12
-5 3 6 22989 766.018 9
5 -3 -6 23211.4 766.653 15
-5 3 6 21484.4 753.353 8
-5 3 5 685.936 164.227 16
-5 3 5 807.652 139.356 9
5 -3 -5 752.241 134.221 15
-5 3 5 759.608 138.113 8
5 -3 -5 871.644 177.495 4
-5 3 4 36839.4 1141.39 17
5 -3 -4 39902.5 1026.68 15
-5 3 4 39589.1 1047.72 9
-5 3 4 38598.7 1253.72 16
-5 3 4 39609.7 1053.47 8
5 -3 -4 39094.3 1212.74 4
-5 3 3 66317.8 1598.16 17
-5 3 3 70283.7 1479.22 9
5 -3 -3 66928 1445.47 15
-5 3 3 71967.8 1485.25 8
5 -3 -3 69620 1655.38 4
5 -3 -2 11987.1 555.817 4
-5 3 2 10953.4 530.426 17
-5 3 1 28266.2 884.406 17
5 -3 -1 29409.7 891.19 4
5 -3 0 7194.86 406.369 4
-5 3 0 6940.31 397.33 17
-5 3 -1 4802.33 323.023 17
5 -3 1 4764.83 328.121 4
-5 3 -2 46536 1135.34 17
5 -3 2 45238 1156.47 4
5 -3 3 3423.45 279.413 4
-5 3 -3 3573.6 275.906 10
-5 3 -4 113956 2090.14 5
-5 3 -4 115619 2111.62 13
-5 3 -4 115459 2043.23 11
-5 3 -4 113154 2164.67 10
-5 3 -5 91828.3 1841.13 5
-5 3 -5 90342.7 1816.61 13
-5 3 -5 92501.9 1762.64 11
-5 3 -5 90537.6 1882.43 10
-5 3 -6 10599.9 510.138 5
-5 3 -6 9143.62 454.361 13
-5 3 -6 9698.62 433.451 11
-5 3 -6 9810.92 492.647 10
-5 3 -7 211.76 84.4235 10
-5 3 -7 70.3439 58.1156 5
-5 3 -7 188.065 79.0737 13
-5 3 -8 1696.85 189.78 5
-5 3 -8 1498.61 174.13 10
-5 3 -9 16454.6 552.877 5
-5 2 9 33.862 38.4152 9
5 -2 -9 23.9438 26.0419 14
5 -2 -9 24.8046 27.7487 12
-5 2 8 513.174 100.794 9
5 -2 -8 355.885 76.0924 12
-5 2 7 2256.69 222.467 9
5 -2 -7 2362.27 222.513 15
-5 2 7 2065.41 204.213 8
5 -2 -7 2182.44 192.129 12
-5 2 6 3144.57 267.383 9
5 -2 -6 3016.31 256.155 15
-5 2 6 3085.92 262.16 8
5 -2 -6 2751.26 216.549 12
-5 2 5 2519.88 265.542 17
-5 2 5 2579.49 235.363 9
5 -2 -5 2493.35 226.604 15
-5 2 5 2434.88 230.727 8
5 -2 -5 2671.06 299.416 4
-5 2 4 35.6034 54.5269 9
5 -2 -4 65.0893 52.0004 15
-5 2 4 88.2651 51.9724 8
-5 2 4 50.8131 50.2936 17
5 -2 -3 106.924 67.1056 4
-5 2 3 104.298 45.9524 17
5 -2 -2 227089 3737.42 4
-5 2 2 220979 3705.87 17
-5 2 1 144437 2583.06 17
5 -2 -1 145072 2595.02 4
-5 2 0 2069.73 206.097 17
5 -2 0 2152.42 215.676 4
-5 2 -1 8227.49 405.947 17
5 -2 1 8059.06 422.511 4
-5 2 -2 1034.67 150.868 3
-5 2 -2 1054.95 138.534 17
5 -2 2 1016.68 150.839 4
-5 2 -3 2380.48 241.626 3
5 -2 3 2135.99 224.297 4
-5 2 -4 83606.5 1884.72 3
-5 2 -4 84079.2 1644.52 5
-5 2 -4 83269.2 1657.02 13
-5 2 -4 83182.6 1627.63 11
-5 2 -4 88208.1 1735.55 6
5 -2 4 79989.1 1793.91 4
-5 2 -4 78973.1 1665.72 10
-5 2 -5 55.6586 61.3168 10
-5 2 -5 89.8393 91.3193 3
-5 2 -5 59.5969 55.576 5
-5 2 -5 322.51 92.2344 13
-5 2 -5 116.794 79.1293 6
-5 2 -5 51.3909 56.6015 11
-5 2 -6 21474.7 738.459 5
-5 2 -6 20728.8 694.621 13
-5 2 -6 20211 686.778 11
-5 2 -6 20896.5 710.237 10
-5 2 -7 689.998 125.09 10
-5 2 -7 707.191 134.606 5
-5 2 -7 709.444 119.89 11
-5 2 -8 3272.05 260.126 5
-5 2 -8 2816.7 214.92 7
-5 2 -9 1695.4 166.389 5
-5 1 10 266.345 53.0065 9
5 -1 -10 314.007 57.6965 14
5 -1 -10 261.115 46.686 12
-5 1 9 741.868 107.515 9
5 -1 -9 661.036 94.3747 12
-5 1 8 14150.3 541.359 9
5 -1 -8 13382 522.91 15
5 -1 -8 12637.2 483.348 12
-5 1 7 1215.51 159.733 9
5 -1 -7 1126.24 154.273 15
5 -1 -7 899.722 130.056 12
-5 1 6 5784.67 353.206 9
-5 1 6 5946.77 355.51 8
5 -1 -6 5641.91 345.873 15
5 -1 -6 5585.44 312.662 12
-5 1 5 3252.73 296.82 17
-5 1 5 3158.24 251.413 9
5 -1 -5 2910.64 237.911 15
-5 1 5 2802.23 238.942 8
5 -1 -5 2897.73 295.307 4
-5 1 4 6433.44 405.067 17
5 -1 -4 6072.86 327.058 15
-5 1 4 6346.88 345.993 8
5 -1 -4 5824.87 394.389 4
-5 1 3 29661.1 891.413 17
5 -1 -3 27805.8 875.337 4
-5 1 2 29045.8 851.003 17
5 -1 -2 27824.9 837.119 4
-5 1 1 24082.7 749.85 17
5 -1 -1 24169.9 753.815 4
-5 1 0 102039 1897.3 17
5 -1 0 101031 1906.11 4
-5 1 -1 2920.71 230.543 17
-5 1 -1 2622.97 211.023 3
5 -1 1 2805.35 236.761 4
-5 1 -2 1023.88 148.357 3
-5 1 -2 1066.27 134.999 17
5 -1 2 839.491 148.691 4
-5 1 -3 38290.5 1087.29 3
5 -1 3 39303.5 1108.01 4
-5 1 -4 37388.1 1150.49 3
-5 1 -4 36588.9 935.112 5
-5 1 -4 36081.8 953.733 13
-5 1 -4 37810.6 957.884 11
-5 1 -4 39433.9 1014.15 6
5 -1 4 36081 1130.17 4
-5 1 -5 13888.3 713.888 3
-5 1 -5 13575.3 546.782 5
-5 1 -5 12226.7 518.298 13
-5 1 -5 13720.5 555.635 11
-5 1 -5 13713 582.36 6
5 -1 5 13114.8 664.842 4
-5 1 -6 803.339 144.451 6
-5 1 -6 811.227 141.519 5
-5 1 -6 860.375 139.3 11
-5 1 -7 1328.43 175.457 5
-5 1 -7 1213.75 163.603 11
-5 1 -7 1093.1 144.3 7
-5 1 -8 11603.6 490.284 5
-5 1 -8 11070 439.93 7
-5 1 -8 10493.6 438.704 11
-5 1 -9 2167.33 157.554 7
-5 0 10 2034.6 142.001 9
5 0 -10 2483.61 165.442 14
5 0 -10 2300.96 149.801 12
-5 0 9 255.657 70.0621 9
5 0 -9 149.161 50.7224 15
5 0 -9 133.059 50.3733 12
-5 0 8 457.676 98.3602 9
5 0 -8 558.364 108.575 15
5 0 -8 428.639 94.0652 12
-5 0 7 579.176 113.047 9
5 0 -7 586.871 113.286 15
5 0 -7 413.816 96.1625 12
-5 0 6 7996.32 405.043 9
5 0 -6 7551.22 394.609 15
-5 0 6 7828.78 402.176 8
-5 0 5 8885.77 492.765 17
5 0 -5 8507.38 403.898 15
-5 0 5 9044.54 425.931 8
-5 0 4 45683.2 1193.54 17
5 0 -4 45605.4 1180.98 4
-5 0 3 4092.66 298.064 17
5 0 -3 3710.38 281.686 4
-5 0 2 1309.7 161.573 17
5 0 -2 1365.93 169.202 4
5 0 -1 14416.4 461.194 18
-5 0 1 15285.8 568.249 17
5 0 -1 15521.7 570.152 4
5 0 0 10602.3 410.594 18
-5 0 0 10689.2 457.692 17
-5 0 0 10547.5 400.933 3
5 0 0 10727 473.015 4
5 0 1 126057 2230.09 18
-5 0 -1 123978 2202.76 17
5 0 1 129008 2319.44 4
5 0 2 3337.05 265.751 18
-5 0 -2 3445.78 239.74 17
-5 0 -2 3306.01 267.373 3
5 0 2 3751.43 302.371 4
5 0 3 64760.6 1531.92 18
-5 0 -3 64288.2 1550.64 3
-5 0 -3 66700.2 1375.77 11
-5 0 -3 67014.9 1410.02 6
5 0 4 26330.8 947.54 18
5 0 4 23470.4 905.32 16
-5 0 -4 26159 954.354 3
-5 0 -4 25532.9 754.297 5
-5 0 -4 24354.8 758.162 13
-5 0 -4 27162 799.362 11
-5 0 -4 27256.1 829.632 6
-5 0 -5 574.069 121.744 6
-5 0 -5 635.223 154.515 3
-5 0 -5 486.428 105.243 5
-5 0 -5 819.67 145.196 11
-5 0 -6 10662.1 498.692 5
-5 0 -6 10768.7 469.751 7
-5 0 -6 10286.6 503.889 11
-5 0 -6 10109.4 510.601 6
-5 0 -7 2874.93 257.325 5
-5 0 -7 2227 208.044 7
-5 0 -7 2531.33 241.069 11
-5 0 -7 2590.84 242.144 6
-5 0 -8 73.1584 47.8687 7
-5 0 -8 -33.3433 56.7112 11
-5 0 -9 5937.04 249.477 7
-5 0 -9 6379.36 261.135 11
-5 -1 10 13280.6 394.868 9
5 1 -10 14334.9 431.985 12
-5 -1 9 5707.94 297.341 9
5 1 -9 5695.27 305.49 15
5 1 -9 5433.58 300.188 12
-5 -1 8 408.778 94.0528 9
5 1 -8 414.12 96.8178 15
5 1 -8 393.149 92.6605 12
-5 -1 7 16635.3 594.314 9
5 1 -7 15994.9 605.6 15
5 1 -6 5237.77 326.051 15
-5 -1 6 5012.81 314.696 8
-5 -1 5 -1.30996 36.7041 17
-5 -1 5 67.1029 41.9976 8
-5 -1 4 24706.5 821.724 17
5 1 -4 24537.3 773.807 4
5 1 -3 39569.5 984.663 18
-5 -1 3 40733 1074.89 17
5 1 -3 40221.3 1029.22 4
5 1 -2 30038.1 816.86 18
-5 -1 2 32258.1 904.773 17
5 1 -2 31475.9 875.34 4
5 1 -1 6364.52 339.021 18
-5 -1 1 6504.6 365.721 17
5 1 -1 6836.34 369.663 4
5 1 0 15328.7 587.12 18
-5 -1 0 16506.1 593.957 17
-5 -1 0 16272.2 532.904 3
5 1 0 16660.3 613.465 4
5 1 1 6634.66 395.818 18
-5 -1 -1 6355.1 346.007 17
-5 -1 -1 6576.5 366.403 3
5 1 2 577.549 128.204 18
-5 -1 -2 632.972 124.24 3
5 1 3 13951.2 663.163 18
5 1 3 14790.3 697.983 16
-5 -1 -3 15224.7 534.868 5
-5 -1 -3 15265.3 692.938 3
-5 -1 -3 14264 557.949 13
-5 -1 -3 16071.1 575.509 11
-5 -1 -3 15940.3 598.394 6
5 1 4 312.514 129.506 18
-5 -1 -4 194.321 88.1783 6
5 1 4 227.7 110.486 16
-5 -1 -4 202.789 105.357 3
-5 -1 -4 134.028 63.8769 5
-5 -1 -4 162.198 80.7327 13
-5 -1 -4 141.438 55.0341 7
-5 -1 -4 87.5239 50.1584 11
5 1 5 106287 2510.19 18
-5 -1 -5 108820 2103.29 5
-5 -1 -5 107441 2028.8 7
-5 -1 -5 112387 2171.3 11
-5 -1 -5 106987 2178.28 6
-5 -1 -6 33927.8 972.094 5
-5 -1 -6 32428.6 904.464 7
-5 -1 -6 33252.8 996.713 11
-5 -1 -6 32020.5 990.663 6
-5 -1 -7 1860.02 189.126 7
-5 -1 -7 2132.42 220.808 11
-5 -1 -7 1784.22 204.14 6
-5 -1 -8 3497.15 222.887 7
-5 -1 -8 3523.59 252.719 11
5 2 -10 11.9947 31.7248 15
5 2 -10 6.48954 27.7772 12
5 2 -9 11750.5 453.643 15
5 2 -9 11637.1 457.718 12
5 2 -8 1353.29 161.399 15
5 2 -7 3167.6 259.6 15
-5 -2 6 21043.1 810.999 17
5 2 -6 21709.3 711.928 15
-5 -2 5 36122.3 1083.25 17
5 2 -5 36412.2 951.85 15
-5 -2 5 36288.2 931.021 8
5 2 -4 5200.89 356.378 18
-5 -2 4 5586.16 376.232 17
5 2 -4 4900.61 295.638 15
-5 -2 4 5086.1 300.706 8
5 2 -4 5153.88 339.574 19
5 2 -3 8211.98 437.278 18
-5 -2 3 8120.93 442.541 17
5 2 -3 7743.37 393.244 4
5 2 -2 25429.4 814.863 18
-5 -2 2 27023.5 844.012 17
5 2 -2 27025.1 795.794 4
5 2 -1 64359.1 1467.13 18
-5 -2 1 63602.5 1432.47 17
5 2 -1 62877.3 1401.22 4
5 2 0 9174.8 488.455 18
-5 -2 0 9285.36 454.798 17
-5 -2 0 9045.93 419.475 3
5 2 0 9940.1 480.446 4
5 2 1 1199.17 182.219 18
-5 -2 -1 897.34 136.673 17
-5 -2 -1 1203.3 168.718 3
5 2 2 693.1 151.819 18
-5 -2 -2 836.734 133.503 6
-5 -2 -2 843.576 155.398 3
-5 -2 -2 732.272 127.352 13
-5 -2 -2 961.31 133.009 11
5 2 3 109103 2437.96 18
5 2 3 114998 2501.09 16
-5 -2 -3 113743 2473.86 3
-5 -2 -3 114100 2046.57 14
-5 -2 -3 110446 2138.51 13
-5 -2 -3 113732 2055.91 7
-5 -2 -3 119261 2158.17 11
-5 -2 -3 118993 2239.7 6
5 2 4 1970.05 277.521 18
5 2 4 1840.06 264.955 16
-5 -2 -4 2193.81 296.806 3
-5 -2 -4 1860.99 193.595 7
-5 -2 -4 1900.82 210.158 11
-5 -2 -4 1919.56 226.682 6
-5 -2 -5 2848.37 246.523 7
-5 -2 -5 2925.88 279.994 11
-5 -2 -5 2721.96 278.049 6
-5 -2 -6 493.901 129.553 6
-5 -2 -6 585.245 116.253 7
-5 -2 -6 592.781 129.189 11
-5 -2 -7 12670.4 482.982 7
-5 -2 -7 13650.6 551.366 11
-5 -2 -7 12187.6 524.43 6
-5 -2 -8 1548.6 134.663 7
-5 -2 -8 1736.79 162.305 11
5 3 -10 6014.62 247.551 15
5 3 -10 6023.86 271.683 12
5 3 -9 68.5397 45.5532 15
5 3 -9 18.7858 37.3776 12
5 3 -8 20687.8 683.3 15
5 3 -7 58715.6 1349.84 15
-5 -3 6 208.859 93.9815 17
5 3 -6 478.743 103.265 15
5 3 -5 2.70046 55.2051 19
-5 -3 5 92.647 71.8623 17
5 3 -5 213.454 69.2403 15
-5 -3 5 52.5189 51.6627 8
5 3 -4 28599.6 964.068 18
-5 -3 4 28648.3 949.418 17
5 3 -4 29096 823.299 15
-5 -3 4 28774 804.657 8
5 3 -4 29921.2 915.207 19
5 3 -3 1883.91 227.555 18
-5 -3 3 2075.01 231.336 17
5 3 -3 1841.68 182.325 15
-5 -3 3 1670.56 178.972 14
-5 -3 3 1947.06 185.061 8
5 3 -2 7570.34 451.964 18
-5 -3 2 7949.98 452.001 17
5 3 -2 7782.37 401.696 4
5 3 -1 25862.8 901.101 18
-5 -3 1 25444.3 853.95 17
5 3 -1 26074.1 821.167 4
5 3 0 561.792 136.425 18
-5 -3 0 522.607 117.288 17
-5 -3 0 873.709 141.1 3
5 3 1 19709 837.795 18
-5 -3 -1 21649.3 766.05 17
-5 -3 -1 21054.7 811.671 3
-5 -3 -1 21682 663.447 14
-5 -3 -1 22019.6 655.66 11
-5 -3 -1 21550.3 718.229 6
5 3 2 2396.11 293.426 18
5 3 2 2507.8 298.616 16
-5 -3 -2 2832.85 308.853 3
-5 -3 -2 2365.58 208.984 14
-5 -3 -2 3422.03 288.167 13
-5 -3 -2 2360.32 212.594 7
-5 -3 -2 2640.55 224.428 11
-5 -3 -2 2695.3 254.532 6
5 3 3 7749.09 546.946 18
5 3 3 8501.26 580.388 16
-5 -3 -3 7869.69 571.289 3
-5 -3 -3 8169.34 402.821 14
-5 -3 -3 8132.72 408.927 7
-5 -3 -3 8032.98 420.533 11
-5 -3 -3 7935.51 472.061 6
-5 -3 -4 3018.7 242.209 14
-5 -3 -4 2860 248.749 7
-5 -3 -4 3141.71 275.973 11
-5 -3 -4 2962.26 299.883 6
-5 -3 -5 40293.5 1004.8 14
-5 -3 -5 41489.8 1059.5 7
-5 -3 -5 41633.7 1117.31 11
-5 -3 -5 40799.2 1196.24 6
-5 -3 -6 1292.32 142.985 14
-5 -3 -6 1189.43 153.777 7
-5 -3 -6 1406.62 176.819 11
-5 -3 -6 1316.49 187.405 6
-5 -3 -7 6128.93 299.951 7
-5 -3 -7 6869.41 345.704 11
-5 -3 -7 5874.15 325.766 6
-5 -3 -8 4963.48 228.196 11
5 4 -10 4343.83 197.825 15
5 4 -10 4509.69 222.526 12
5 4 -9 558.828 92.772 15
5 4 -8 338.24 87.4046 15
5 4 -7 23150.7 758.593 15
5 4 -6 15979.3 616.31 15
5 4 -5 31026.1 1092.02 18
-5 -4 5 31201.4 1052.13 17
5 4 -5 31879.3 902.655 15
-5 -4 5 30363.3 852.325 8
5 4 -4 53.1551 64.3743 18
-5 -4 4 75.5076 63.4638 17
5 4 -4 16.3005 43.4239 15
-5 -4 4 45.1323 44.3448 8
5 4 -3 13076.3 657.199 18
5 4 -3 12848.7 520.894 15
-5 -4 3 12909.6 544.794 14
-5 -4 3 12783.2 511.032 8
-5 -4 3 12750.1 625.541 17
5 4 -2 78.385 52.6111 18
-5 -4 2 205.524 82.8139 17
5 4 -2 95.669 55.8061 15
-5 -4 2 275.762 84.4668 14
5 4 -1 17214.4 764.506 18
-5 -4 1 16944.1 723.073 17
-5 -4 1 17652.9 619.582 14
5 4 -1 17220.2 668.575 4
-5 -4 0 3204.94 260.452 6
5 4 0 3499.56 350.22 18
-5 -4 0 3377.41 309.445 17
-5 -4 0 3373.72 304.739 3
-5 -4 0 3564.03 261.603 14
-5 -4 0 3459.53 247.686 12
-5 -4 -1 51830.7 1287.07 6
5 4 1 52646.1 1508 16
-5 -4 -1 49260.7 1439.15 3
5 4 1 50914.8 1499.43 18
-5 -4 -1 51087.1 1192.1 14
-5 -4 -1 51176.2 1176.14 7
-5 -4 -1 49696.5 1145.71 12
5 4 2 516.909 148.387 18
-5 -4 -2 674.637 144.808 6
5 4 2 650.056 165.979 16
-5 -4 -2 373.481 137.754 3
-5 -4 -2 615.853 118.434 14
-5 -4 -2 744.334 148.466 13
-5 -4 -2 710.315 116.673 12
-5 -4 -2 624.085 118.393 7
-5 -4 -2 666.703 114.673 11
-5 -4 -3 6427.62 364.927 14
-5 -4 -3 6236.6 370.007 7
-5 -4 -3 6065.64 339.392 12
-5 -4 -3 6112.54 360.744 11
-5 -4 -3 6794.2 452.477 6
-5 -4 -4 12459.1 514.955 14
-5 -4 -4 12838.1 535.989 7
-5 -4 -4 13179.5 545.392 11
-5 -4 -4 11795.7 611.865 6
-5 -4 -5 29014 795.373 14
-5 -4 -5 31562.4 857.002 7
-5 -4 -5 28469.3 843.067 11
-5 -4 -5 28807.4 955.407 6
-5 -4 -6 1711.58 149.088 14
-5 -4 -6 1980.09 177.309 7
-5 -4 -6 1832.06 174.749 11
-5 -4 -6 1808.02 194.841 6
-5 -4 -7 7548.71 284.465 7
-5 -4 -7 7876.56 306.529 11
-5 -4 -7 7517.63 299.069 6
5 5 -10 1367.4 111.86 12
5 5 -9 267.061 63.8833 15
5 5 -8 -38.0313 38.7634 15
5 5 -7 11379.2 498.806 15
5 5 -6 21000.9 720.613 15
5 5 -5 91228.8 1847.19 15
-5 -5 5 91777.9 1790.1 8
5 5 -4 10065.7 608.99 18
-5 -5 4 10288.5 590.024 17
5 5 -4 9572.96 465.994 15
-5 -5 4 9720.79 456.931 8
5 5 -3 1634.26 244.905 18
-5 -5 3 1421.92 220.148 17
5 5 -3 1320.8 170.153 15
-5 -5 3 1229.81 168.496 14
-5 -5 3 1269.06 165.336 8
5 5 -2 9077.34 569.895 18
-5 -5 2 8093.85 519.19 17
5 5 -2 8822.07 430.255 15
-5 -5 2 8825.88 447.785 14
5 5 -1 666.796 172.685 18
-5 -5 1 676.28 123.094 6
-5 -5 1 561.25 134.755 17
5 5 -1 905.004 182.134 16
-5 -5 1 641.089 116.642 14
-5 -5 0 25412.1 819.299 6
5 5 0 23994.7 995.413 18
-5 -5 0 23386.3 913.506 17
5 5 0 26132.3 998.819 16
-5 -5 0 25889.2 797.591 14
-5 -5 -1 41523.7 1148.43 6
-5 -5 -1 41560.4 1063.51 14
-5 -5 -1 38468.5 1003.91 12
-5 -5 -2 1188.67 185.834 6
-5 -5 -2 1054.4 151.5 14
-5 -5 -2 990.153 146.489 7
-5 -5 -2 1178.65 149.53 12
-5 -5 -3 7860.58 403.288 14
-5 -5 -3 7981.87 406.342 7
-5 -5 -3 7527.22 374.113 12
-5 -5 -3 7731.7 381.75 11
-5 -5 -3 8588.64 500.765 6
-5 -5 -4 10343.5 443.447 14
-5 -5 -4 10894.6 462.646 7
-5 -5 -4 10135 414.851 12
-5 -5 -4 10060.3 433.907 11
-5 -5 -4 10573 540.217 6
-5 -5 -5 59.2539 54.3984 6
-5 -5 -5 27.2257 38.2885 14
-5 -5 -5 19.248 36.5849 7
-5 -5 -5 63.4608 51.9031 11
-5 -5 -6 1972.33 135.71 14
-5 -5 -6 1861.69 140.836 7
-5 -5 -6 1723.41 135.752 11
-5 -5 -6 1740.49 151.334 6
5 6 -9 5462.93 248.384 15
5 6 -8 14672.7 504.553 15
5 6 -7 2872.72 234.483 15
5 6 -6 3546.76 275.266 15
5 6 -5 7941.28 418.121 15
-5 -6 5 7605.39 383.65 8
5 6 -4 9624.61 467.193 15
-5 -6 4 9143.96 443.761 8
5 6 -3 51482.9 1228.34 15
-5 -6 3 48547.9 1240.27 14
5 6 -2 4955.35 320.676 15
-5 -6 2 4657.14 328.087 14
-5 -6 1 22428 736.508 6
-5 -6 1 23394.8 775.762 14
-5 -6 0 21664.5 756.543 6
-5 -6 0 22727.9 748.951 14
-5 -6 -1 1638.04 207.674 6
-5 -6 -1 1505.83 177.971 14
-5 -6 -2 6061.59 346.284 14
-5 -6 -2 5368.14 315.899 12
-5 -6 -2 5827.55 386.263 6
-5 -6 -3 37.6017 64.0933 6
-5 -6 -3 84.715 53.4153 14
-5 -6 -3 -0.19888 35.658 12
-5 -6 -4 11047.4 412.854 14
-5 -6 -4 9387.98 361.491 12
-5 -6 -4 9887.52 355.323 11
-5 -6 -4 11036.9 470.748 6
-5 -6 -5 1173 109.908 14
-5 -6 -5 1109.2 97.4588 11
-5 -6 -5 1263.77 129.142 6
5 7 -8 40834.3 875.198 15
5 7 -7 13793.9 487.761 15
5 7 -6 26851.8 764.602 15
5 7 -5 4459.63 292.059 15
-5 -7 5 4628.7 272.211 8
5 7 -4 2228.23 209.796 15
-5 -7 4 2252.35 205.83 8
5 7 -3 9184.95 433.878 15
-5 -7 3 9001.34 453.387 14
-5 -7 3 9709.08 452.216 8
5 7 -2 1950.58 192.876 15
-5 -7 2 2053.4 210.342 14
-5 -7 1 5780.2 335.07 6
-5 -7 1 5920.07 354.668 14
-5 -7 0 20209.7 688.109 6
-5 -7 0 22690.6 713.403 14
-5 -7 -1 16127.1 565.696 14
-5 -7 -1 15085.9 579.871 6
-5 -7 -2 10268.4 419.943 14
-5 -7 -2 9095.9 424.32 6
-5 -7 -3 656.565 108.103 6
-5 -7 -3 730.286 102.138 14
-5 -7 -3 496.216 75.958 8
-5 -7 -4 3635.84 189.306 14
-5 -7 -4 3315.36 194.365 6
5 8 -8 1068.78 90.3828 15
5 8 -7 7713.69 299.23 15
5 8 -7 5932.68 246.561 7
5 8 -6 28505.1 710.968 15
5 8 -5 5096.73 277.047 15
5 8 -4 3738.62 243.232 15
-5 -8 4 3920.61 239.252 8
5 8 -3 1424.58 148.89 15
-5 -8 3 1493.37 155.393 8
5 8 -2 6283.83 304.889 15
-5 -8 2 5667.57 318.569 14
-5 -8 2 6603.72 334.083 8
-5 -8 1 16699.7 559.488 14
-5 -8 1 16324.2 525.023 6
-5 -8 0 10605.8 417.657 14
-5 -8 0 10561.9 415.805 6
-5 -8 -1 7544.55 325.733 14
-5 -8 -1 6846.01 318.579 6
-5 -8 -2 42356.8 850.304 14
-5 -8 -2 40753 860.333 6
-5 -8 -3 263.789 48.9346 6
-5 -8 -3 280.845 49.5675 14
5 9 -6 207.027 44.9869 15
5 9 -5 5486.22 235.69 15
5 9 -4 12202.3 377.128 15
-5 -9 4 12186.9 354.395 8
5 9 -3 568.293 76.564 15
-5 -9 3 510.237 75.4062 8
-5 -9 2 5707.98 255.772 8
-5 -9 1 8708.73 319.026 8
-5 -9 0 7287.83 269.542 14
-5 -9 0 8168.94 288.503 8
-5 -9 0 7918.6 266.298 6
-6 10 -1 1038.03 97.0977 9
-6 10 -2 3029.45 171.361 9
-6 9 2 3498.79 183.915 15
-6 9 2 4024.15 207.757 9
-6 9 1 377.126 71.904 9
-6 9 1 435.71 72.5117 15
-6 9 0 7764.62 343.282 9
-6 9 0 5902.96 266.831 15
-6 9 -1 171.175 62.9885 9
-6 9 -2 72.9221 45.7242 9
-6 9 -3 398.652 83.2667 9
-6 9 -4 2303.04 151.544 10
-6 9 -5 1979.8 129.862 10
-6 8 4 2321.72 154.901 9
-6 8 3 5631.74 282.929 9
-6 8 2 6378.74 328.136 9
-6 8 1 4712.98 301.401 9
-6 8 0 2357.16 216.411 9
-6 8 0 2213.62 192.57 15
-6 8 -1 846.779 116.842 10
-6 8 -1 906.782 142.266 9
-6 8 -2 46164.3 1133.42 9
-6 8 -2 41254.5 993.034 10
-6 8 -3 2049.12 211.915 9
-6 8 -3 2066.07 187.987 10
-6 8 -4 9290.67 444.001 9
-6 8 -4 7093.88 350.554 10
-6 8 -5 231.51 64.6332 10
-6 8 -5 174.168 54.5755 5
-6 8 -6 372.235 71.9017 10
-6 8 -6 515.78 80.2019 5
-6 8 -7 513.049 71.3061 10
-6 7 5 3007.76 188.601 9
-6 7 4 9662.56 402.346 9
-6 7 3 157.432 69.2272 9
-6 7 2 34497.1 941.292 9
-6 7 2 32335.9 889.443 8
-6 7 2 31789.8 817.192 10
-6 7 1 20795.5 721.146 9
-6 7 1 19469.3 658.477 8
-6 7 1 20381.5 651.576 10
-6 7 0 1241.02 176.58 9
-6 7 0 1098.32 145.892 8
-6 7 0 1217.28 159.036 10
-6 7 -1 150.009 72.7813 10
-6 7 -1 206.587 86.2628 9
-6 7 -2 17098.5 596.999 13
-6 7 -2 17187.2 643.098 10
-6 7 -3 5586.79 387.984 9
-6 7 -3 4963.14 316.432 13
-6 7 -3 5328 343.688 10
-6 7 -4 35789.7 1074.73 9
-6 7 -4 34855.9 916.533 5
-6 7 -4 36752.5 963.051 13
-6 7 -4 35715 981.163 10
-6 7 -5 1309.66 160.144 5
-6 7 -5 1486.7 176.206 13
-6 7 -5 1277.68 166.272 10
-6 7 -6 3663.15 254.079 5
-6 7 -6 4357.51 276.744 10
-6 7 -7 515.041 87.3625 10
-6 7 -7 600.536 97.6307 5
-6 7 -8 388.92 67.0209 10
-6 6 6 5310.61 259.858 9
-6 6 5 1790.5 172.079 9
-6 6 5 1723.32 173.2 8
-6 6 4 7845.06 363.311 10
-6 6 4 8946.88 430.124 9
-6 6 4 8797.53 430.868 8
-6 6 3 3905.14 274.593 10
-6 6 3 3879.06 299.001 9
-6 6 3 3892.19 295.358 8
-6 6 2 8058.32 419.245 10
-6 6 2 8767.02 459.897 9
-6 6 2 8601.96 446.577 8
-6 6 1 3230.94 283.735 9
-6 6 1 3028.96 255.106 8
-6 6 1 3078.46 263.808 10
-6 6 0 7771.91 452.018 9
-6 6 0 8313.01 414.437 8
-6 6 0 8694.24 448.696 10
-6 6 -1 864.229 149.255 10
-6 6 -1 879.867 162.633 9
-6 6 -2 21514.3 819.638 9
-6 6 -2 21731.2 703.673 13
-6 6 -2 22642.5 783.448 10
-6 6 -3 9776.71 543.456 9
-6 6 -3 9715.77 467.165 13
-6 6 -3 10309.4 515.201 10
-6 6 -4 50551.1 1378.8 9
-6 6 -4 50523.5 1209.24 5
-6 6 -4 52777.6 1262.82 13
-6 6 -4 52870 1324.62 10
-6 6 -5 2749.93 241.332 5
-6 6 -5 2815.94 256.117 13
-6 6 -5 2672.32 257.399 10
-6 6 -6 3060.29 252.042 5
-6 6 -6 3533.56 270.46 13
-6 6 -6 3246.25 269.534 10
-6 6 -7 3913.45 265.099 5
-6 6 -7 4370.53 282.942 10
-6 6 -8 50.5286 44.7383 10
-6 6 -8 26.648 52.1041 5
-6 5 7 73.8315 41.697 9
-6 5 6 5606.13 305.676 9
-6 5 6 5538.71 305.333 8
-6 5 5 3048.24 247.044 9
-6 5 5 3512.27 271.362 8
-6 5 4 68.5249 58.0008 9
-6 5 4 102.358 67.2101 8
-6 5 3 148.904 66.3273 9
-6 5 3 167.176 78.7935 8
-6 5 2 40765.4 1111.39 9
-6 5 2 41161.4 1080.63 8
6 -5 -1 560.007 146.739 4
-6 5 1 1024.37 160.406 10
-6 5 1 923.809 179.912 17
-6 5 1 1059.35 167.556 9
-6 5 1 844.061 139.367 8
6 -5 0 167.063 89.9132 4
-6 5 0 279.163 95.5157 10
-6 5 0 235.442 105.757 17
-6 5 0 344.865 111.639 9
-6 5 0 370.124 95.6644 8
-6 5 -1 13476 680.688 17
-6 5 -1 14315.4 642.64 9
-6 5 -1 12931.8 511.185 13
6 -5 1 13367.2 641.946 4
-6 5 -1 15100 626.273 10
-6 5 -2 5883.81 410.566 9
-6 5 -2 6046.34 352.789 13
-6 5 -2 6818.98 421.442 10
-6 5 -3 15294.9 675.187 9
-6 5 -3 14361.2 586.87 13
-6 5 -4 6064.55 414.012 9
-6 5 -4 5826.2 347.39 5
-6 5 -4 6121.85 377.135 13
-6 5 -4 5862.23 404.172 10
-6 5 -5 107.309 76.0462 10
-6 5 -5 256.044 80.7812 5
-6 5 -5 112.133 67.2342 13
-6 5 -6 33561.9 953.959 5
-6 5 -6 34789.9 970.272 13
-6 5 -6 34357.9 1003.73 10
-6 5 -7 924.326 142.48 10
-6 5 -7 1198.61 159.871 5
-6 5 -7 1150.16 153.051 13
-6 5 -8 1221.37 142.652 5
-6 5 -8 1137.54 139.062 10
-6 4 8 5224.72 231.767 9
-6 4 7 74.0444 49.2365 9
-6 4 7 188.456 60.0118 8
-6 4 6 503.655 104.104 9
-6 4 6 467.687 104.602 8
-6 4 5 2367.34 229.587 9
-6 4 5 2196.12 228.066 8
-6 4 4 13787.9 581.915 9
-6 4 4 14927 619.197 8
-6 4 3 44.6594 73.9805 17
-6 4 3 48.7306 49.9288 9
6 -4 -3 -29.7419 67.3244 4
-6 4 2 1118.56 188.797 17
-6 4 2 1148.34 172.784 9
-6 4 2 1378.4 176.588 8
6 -4 -2 1369.4 211.424 4
-6 4 1 222.132 97.9968 17
-6 4 1 420.172 115.838 9
-6 4 1 471.214 103.581 8
-6 4 0 18773.1 713.811 10
-6 4 0 18134.4 762.053 17
-6 4 0 16320.5 581.334 8
-6 4 0 17038.1 567.876 13
-6 4 0 17420.5 687.222 9
6 -4 0 17783.8 744.415 4
-6 4 -1 18382.9 766.94 17
-6 4 -1 19003.2 719.783 9
-6 4 -1 18520.3 620.758 13
6 -4 1 17923.3 742.077 4
6 -4 2 -31.5639 54.0546 4
-6 4 -2 -35.0672 62.452 10
-6 4 -2 83.7378 77.6176 17
-6 4 -2 -3.04285 67.063 9
-6 4 -2 -3.92712 48.5554 13
-6 4 -3 22701.7 787.474 9
-6 4 -3 23088.7 752.389 13
-6 4 -3 23117.1 736.951 11
-6 4 -3 24099.4 844.943 10
-6 4 -4 21160.6 691.034 5
-6 4 -4 21776.8 737.929 13
-6 4 -4 19184.7 668.052 11
-6 4 -4 21210.1 796.887 10
-6 4 -5 8159.03 425.926 5
-6 4 -5 8329.2 444.034 13
-6 4 -5 7964.61 401.552 11
-6 4 -5 7865.25 466.974 10
-6 4 -6 11978 528.956 5
-6 4 -6 12242 535.623 13
-6 4 -6 11518.8 550.185 10
-6 4 -7 2249.13 215.185 5
-6 4 -7 2173.71 210.102 13
-6 4 -7 2179.52 216.483 10
-6 4 -8 8427.55 385.486 5
-6 4 -8 7657.34 364.444 10
-6 4 -9 4491.47 231.245 5
-6 3 8 785.156 101.261 9
6 -3 -8 904.981 96.5897 14
-6 3 7 28205.7 771.594 9
-6 3 7 25941.8 753.607 8
6 -3 -7 26626.5 686.623 14
-6 3 6 38576.6 1014.48 9
6 -3 -6 40288.6 1050.43 15
-6 3 6 38920.1 1046.27 8
-6 3 5 583.92 121.104 9
6 -3 -5 609.973 125.389 15
-6 3 5 641.425 128.063 8
-6 3 4 8974.28 550.819 17
-6 3 4 10130.9 480.85 9
6 -3 -4 9039.36 457.376 15
-6 3 4 10078.1 491.884 8
6 -3 -4 8721.8 550.595 4
6 -3 -3 74.3695 79.5318 4
-6 3 3 57.5103 54.5721 17
-6 3 3 191.874 83.7905 9
6 -3 -3 140.94 64.2401 15
-6 3 3 192.124 79.5251 8
-6 3 2 4629.35 370.179 17
-6 3 2 4747.06 324.873 9
6 -3 -2 4503.8 295.68 15
-6 3 2 4460.05 303.548 8
6 -3 -2 4662.96 371.559 4
-6 3 1 6697.86 440.186 17
-6 3 1 6147.05 338.318 8
6 -3 -1 6668.84 435.405 4
6 -3 0 820.995 151.677 4
-6 3 0 881.954 161.207 17
-6 3 0 817.616 117.718 8
-6 3 0 899.968 125.222 13
-6 3 -1 3244.9 284.784 10
-6 3 -1 3189.33 291.708 17
-6 3 -1 3300.27 245.169 13
-6 3 -1 3515.27 270.515 11
6 -3 1 3239.35 298.591 4
6 -3 2 328.949 94.2182 4
-6 3 -2 157.571 88.4629 10
-6 3 -2 288.625 98.6027 17
-6 3 -2 415.771 95.2028 13
-6 3 -2 212.076 80.0397 11
-6 3 -3 95634.1 1833.1 13
-6 3 -3 92902.2 1795.58 11
6 -3 3 84920 1941.61 4
-6 3 -3 85707.5 1897.76 10
-6 3 -4 20487.5 672.424 5
-6 3 -4 20601.9 714.093 13
-6 3 -4 18518.9 652.755 11
-6 3 -4 19660.6 751.158 10
-6 3 -5 2336.44 224.774 5
-6 3 -5 2360.34 237.746 13
-6 3 -5 2073.07 208.87 11
-6 3 -5 2158.71 237.65 10
-6 3 -6 4262.8 306.758 5
-6 3 -6 4533.21 317.695 13
-6 3 -6 4373.32 294.204 11
-6 3 -6 4027.93 310.81 10
-6 3 -7 68.8826 59.8341 10
-6 3 -7 177.917 69.2161 5
-6 3 -7 34.221 43.0341 13
-6 3 -7 17.261 45.6347 11
-6 3 -8 3767.71 255.821 5
-6 3 -8 3325.81 222.913 10
-6 3 -9 22087 582.447 5
-6 2 9 639.292 80.3825 9
6 -2 -9 520.467 70.5695 14
-6 2 8 389.708 76.9371 9
-6 2 7 14780.8 544.866 9
6 -2 -7 14931.6 566.102 15
-6 2 7 13841.1 538.468 8
-6 2 6 219.69 83.6806 9
6 -2 -6 180.454 67.42 15
-6 2 6 155.146 77.1745 8
-6 2 5 6414.95 370.276 9
6 -2 -5 6223.88 370.926 15
-6 2 5 6105.59 380.591 8
6 -2 -5 6119.35 462.228 4
-6 2 4 11130.4 599.665 17
-6 2 4 11190.2 491.035 9
6 -2 -4 10821.5 488.374 15
-6 2 4 10913.5 501.238 8
6 -2 -4 9531.68 560.836 4
-6 2 3 11570.1 592.685 17
6 -2 -3 11342.5 487.793 15
-6 2 3 12874.5 525.703 8
6 -2 -3 12076.9 604.463 4
-6 2 2 28306.4 946.059 17
6 -2 -2 26680.5 772.243 15
-6 2 2 28564.5 809.524 8
6 -2 -2 28678.4 942.3 4
-6 2 1 4682.57 356.189 17
-6 2 1 4624.09 282.173 8
6 -2 -1 4800.58 354.62 4
-6 2 0 7733.06 453.087 17
-6 2 0 7574.44 394.539 11
6 -2 0 7799.41 459.198 4
6 -2 1 99.6577 53.6106 4
-6 2 -1 280.618 106.74 10
-6 2 -1 19.161 36.3664 17
-6 2 -1 52.8612 47.4452 13
-6 2 -1 219.708 79.739 11
6 -2 2 238.783 87.4917 4
-6 2 -2 359.335 111.551 10
-6 2 -2 474.813 107.296 17
-6 2 -2 440.687 98.77 13
-6 2 -2 655.214 122.787 11
6 -2 3 144.54 81.07 4
-6 2 -3 297.498 97.914 10
-6 2 -3 452.302 119.767 6
-6 2 -3 288.925 109.767 3
-6 2 -3 308.009 93.6517 13
-6 2 -3 258.545 86.2956 11
-6 2 -4 268.983 99.4194 10
6 -2 4 445.004 130.842 4
-6 2 -4 230.708 95.4702 6
-6 2 -4 224.11 100.549 3
-6 2 -4 395.51 99.6876 5
-6 2 -4 402.854 102.721 13
-6 2 -4 375.362 89.8478 11
-6 2 -5 36699.6 982.438 5
-6 2 -5 34469.5 991.908 13
-6 2 -5 35554.6 983.101 11
-6 2 -5 34405 981.364 10
-6 2 -6 690.706 129.545 10
-6 2 -6 556.239 119.355 5
-6 2 -6 425.078 109.194 13
-6 2 -6 464.453 108.192 11
-6 2 -7 2487.97 226.908 5
-6 2 -7 2333.91 205.626 11
-6 2 -8 114.66 62.0977 5
-6 1 9 14453.2 420.552 9
-6 1 8 -3.7967 50.8349 9
6 -1 -8 9.19045 34.6586 15
-6 1 7 4456.18 288.54 9
6 -1 -7 4535.2 306.473 15
-6 1 7 4268.05 289.603 8
-6 1 6 39526.8 1007.24 9
6 -1 -6 37879.5 1022.56 15
-6 1 6 37593.1 1027.55 8
-6 1 5 10377.4 581.812 17
6 -1 -5 10065.3 470.09 15
-6 1 5 10973.3 500.419 8
6 -1 -5 9463.84 556.541 4
-6 1 4 9661.32 546.757 17
6 -1 -4 9254.54 438.486 15
-6 1 4 9631.49 459.046 8
6 -1 -4 8878.19 515.171 4
6 -1 -3 2356.64 205.275 15
-6 1 3 2670.58 227.329 8
6 -1 -3 2371.36 253.48 4
-6 1 3 2331.12 258.395 17
-6 1 2 29978.3 963.575 17
-6 1 2 29539.9 805.605 8
6 -1 -2 29354.6 940.046 4
-6 1 1 57372.1 1419.77 17
6 -1 -1 56142.7 1395.07 4
-6 1 0 7073.11 426.213 17
6 -1 0 6855.34 425.409 4
-6 1 -1 1891.83 200.193 3
-6 1 -1 1824.67 208.331 17
-6 1 -1 1731.47 183.238 13
-6 1 -1 1761.58 183.4 11
6 -1 1 1798.06 218.609 4
-6 1 -2 10713.9 534.823 3
-6 1 -2 11583 497.239 13
-6 1 -2 11782 481.691 11
-6 1 -2 11365.8 478.893 6
6 -1 2 11213.1 587.049 4
-6 1 -3 6207.9 436.512 3
-6 1 -3 7090.9 397.253 13
-6 1 -3 7266.11 394.972 11
-6 1 -3 6914.87 394.03 6
6 -1 3 6947.19 484.059 4
6 -1 4 -23.5362 62.6251 4
-6 1 -4 36.8195 53.7526 6
-6 1 -4 114.727 83.5526 3
-6 1 -4 -14.4464 51.8164 5
-6 1 -4 -15.3084 66.4576 13
-6 1 -4 28.0686 47.225 11
-6 1 -5 12038.4 522.237 5
-6 1 -5 11329.5 522.073 13
-6 1 -5 12474.7 550.8 11
-6 1 -5 12446.4 578.231 6
-6 1 -6 428.404 110.645 6
-6 1 -6 453.834 108.594 5
-6 1 -6 314.92 92.6226 13
-6 1 -6 562.866 121.944 11
-6 1 -7 14919.6 573.922 5
-6 1 -7 14401.1 553.118 11
-6 1 -8 4342.42 247.669 11
6 0 -10 3798.95 173.523 14
6 0 -9 1600.85 145.145 15
6 0 -9 1447.92 125.462 12
-6 0 8 6176.7 309.629 9
6 0 -8 6528.83 345.588 15
6 0 -8 5935.85 299.112 12
6 0 -7 6089.03 355.839 15
-6 0 7 5585.24 329.991 8
6 0 -7 5612.6 309.385 12
6 0 -6 1730.34 193.29 15
-6 0 6 1764.05 197.258 8
-6 0 5 151811 2947.35 17
6 0 -5 149507 2654.51 15
-6 0 5 151777 2674.15 8
6 0 -4 1268 185.651 4
-6 0 4 1531.69 218.183 17
6 0 -4 1341.95 162.991 15
-6 0 4 1330.75 162.611 8
-6 0 3 1375.24 195.152 17
6 0 -3 1464.68 164.663 15
-6 0 3 1550.02 168.597 8
6 0 -3 1323.01 189.943 4
6 0 -2 96.0782 57.4935 4
-6 0 2 288.41 100.553 17
-6 0 1 6614.91 414.368 17
6 0 -1 6990.46 421.817 4
-6 0 0 171820 3093.47 17
6 0 0 177477 3133.08 4
-6 0 -1 70402.4 1587.26 17
-6 0 -1 70590.4 1540.48 3
-6 0 -1 70370.9 1493.46 13
-6 0 -1 72604.9 1466.25 11
6 0 1 74356.9 1705.85 4
-6 0 -2 3588.72 310.332 3
-6 0 -2 4398.4 306.525 13
-6 0 -2 4523.26 294.126 11
-6 0 -2 4334.36 293.549 6
6 0 2 3919.41 351.886 4
6 0 3 1211.83 221.734 4
-6 0 -3 987.948 176.502 3
-6 0 -3 1296.91 173.74 13
-6 0 -3 1129.58 156.239 11
-6 0 -3 1218.7 170.107 6
-6 0 -4 2906.06 337.382 3
-6 0 -4 3604.91 271.184 5
-6 0 -4 3453.64 285.527 13
-6 0 -4 3905.83 297.196 11
-6 0 -4 3607.9 299.38 6
6 0 4 3692.53 378.806 4
-6 0 -5 10470.8 488.085 5
-6 0 -5 9816.15 472.518 13
-6 0 -5 10742 518.161 11
-6 0 -5 10395.9 533.05 6
-6 0 -6 6916.59 395.049 5
-6 0 -6 7138.31 411.235 11
-6 0 -6 6603.29 408.897 6
-6 0 -7 10147.8 460.246 11
-6 0 -8 206.324 64.6486 11
6 1 -9 932.081 113.609 15
6 1 -9 763.414 96.6723 12
6 1 -8 9904.27 438.127 15
6 1 -8 9265.94 396.606 12
6 1 -7 22954.1 745.442 15
6 1 -6 126032 2316.26 15
-6 -1 6 123589 2284.93 8
-6 -1 5 41793.4 1267.7 17
6 1 -5 42671.8 1085.85 15
-6 -1 5 44007.1 1092.9 8
-6 -1 4 261.503 88.7643 17
6 1 -4 322.596 84.4596 15
-6 -1 4 247.325 79.8159 8
-6 -1 3 38167.1 1142.15 17
6 1 -3 40406.4 992.48 15
-6 -1 3 39503.6 987.036 8
6 1 -3 36925.9 1068.28 4
-6 -1 2 23262.9 833.959 17
-6 -1 2 23458.6 702.799 8
6 1 -2 21462.6 789.142 4
-6 -1 1 18709.2 731.938 17
-6 -1 1 18811.4 611.927 8
6 1 -1 18481.4 717.659 4
6 1 0 238.013 89.5377 4
6 1 0 167.534 68.7691 18
-6 -1 0 231.091 81.439 17
-6 -1 0 149.657 63.4798 13
6 1 1 15306.5 661.43 18
-6 -1 -1 14154.2 611.811 17
-6 -1 -1 14732.9 606.441 3
-6 -1 -1 15094.5 531.229 8
-6 -1 -1 15056.1 593.352 13
-6 -1 -1 15761.4 555.068 11
6 1 1 15062.5 686.458 4
-6 -1 -1 15038.1 551.77 6
6 1 2 44117.8 1284.45 18
-6 -1 -2 42712.5 1237.43 3
-6 -1 -2 46147.8 1172.53 13
-6 -1 -2 44297.4 1096.33 11
-6 -1 -2 45180.8 1136.06 6
6 1 3 298.937 118.586 4
6 1 3 269.296 110.458 18
-6 -1 -3 347.223 98.3585 6
6 1 3 147.932 73.9541 16
-6 -1 -3 240.31 92.9662 3
-6 -1 -3 274.155 88.5539 13
-6 -1 -3 262.279 87.883 11
-6 -1 -4 14226.7 595.519 13
-6 -1 -4 14562.8 605.179 11
-6 -1 -4 14183 632.688 6
-6 -1 -5 3476.24 290.005 11
-6 -1 -5 2966.27 282.497 6
-6 -1 -6 2954.27 263.159 11
-6 -1 -6 2770.11 260.461 6
-6 -1 -7 7935.37 394.597 11
-6 -1 -7 7891.11 403.87 6
-6 -1 -8 5940.05 279.562 11
6 2 -10 430.177 58.9434 12
6 2 -9 23.0301 29.5138 15
6 2 -9 28.5026 27.6853 12
6 2 -8 12242.5 492.412 15
6 2 -8 11525.6 454.803 12
6 2 -7 1942.21 204.837 15
6 2 -6 2008.08 211.025 15
-6 -2 6 2134.25 210.466 8
-6 -2 5 17805.2 783.574 17
6 2 -5 18123.9 654.712 15
-6 -2 5 19098 657.627 8
-6 -2 4 3430.55 323.611 17
6 2 -4 3435.4 266.209 15
-6 -2 4 2990.09 244.061 8
6 2 -3 30926.4 956.069 18
-6 -2 3 30883.6 1022.44 17
6 2 -3 29577.6 848.638 15
-6 -2 3 31137.4 860.277 8
6 2 -2 44242.7 1187.12 18
-6 -2 2 44896.7 1257.14 17
-6 -2 2 41992 1054.72 8
6 2 -2 44034.7 1188.63 4
6 2 -1 3089.02 283.245 18
-6 -2 1 2947.02 289.917 17
-6 -2 1 2386.96 204.717 14
-6 -2 1 2980.29 234.539 8
6 2 -1 2856.59 273.181 4
6 2 0 481.447 126.392 4
6 2 0 506.322 129.829 18
-6 -2 0 573.524 131.614 17
-6 -2 0 894.341 126.346 14
-6 -2 0 418.098 92.1771 8
-6 -2 0 412.584 94.4717 11
6 2 1 37018.3 1177.18 18
-6 -2 -1 36472.3 1082.63 3
-6 -2 -1 37814.7 917.71 14
-6 -2 -1 37749 955.92 8
-6 -2 -1 37807.8 1064.85 13
-6 -2 -1 36947.1 949.51 11
6 2 1 38154.5 1193.48 4
-6 -2 -1 36541.2 980.171 6
6 2 2 8690.93 560.632 18
-6 -2 -2 8231.2 523.324 3
-6 -2 -2 9371.21 493.853 13
-6 -2 -2 9194.23 443.412 11
-6 -2 -2 8638.05 455.718 6
6 2 3 29424.6 1129.78 18
6 2 3 29172.2 1145.06 16
-6 -2 -3 28667.4 1096.59 3
-6 -2 -3 30635.1 950.371 13
-6 -2 -3 31957.2 921.531 11
-6 -2 -3 32042 986.786 6
-6 -2 -4 7629.64 425.564 11
-6 -2 -4 7639.7 462.968 6
-6 -2 -5 6503.89 346.76 7
-6 -2 -5 7374.27 417.341 11
-6 -2 -5 7180.1 444.575 6
-6 -2 -6 2603.91 202.203 7
-6 -2 -6 2782.43 240.849 11
-6 -2 -6 2820.23 260.889 6
-6 -2 -7 -1.05913 44.54 6
-6 -2 -7 -20.8637 44.8824 11
6 3 -9 1521.76 143.361 15
6 3 -9 1187.68 123.773 12
6 3 -8 390.333 86.2571 15
6 3 -7 202.701 76.7442 15
6 3 -6 5382.6 344.35 15
-6 -3 6 5220.51 322.922 8
6 3 -5 9557.34 464.451 15
-6 -3 5 9091.93 441.668 8
6 3 -4 8255.88 505.387 18
-6 -3 4 8145.49 519.526 17
6 3 -4 8032.73 419.756 15
-6 -3 4 8498.84 423.052 8
6 3 -3 389.995 118.403 18
-6 -3 3 359.98 122.939 17
6 3 -3 211.815 71.4141 15
-6 -3 3 342.254 94.2559 8
6 3 -2 11422.4 599.9 18
-6 -3 2 10504.9 580.163 17
-6 -3 2 9896.17 458.276 14
-6 -3 2 10822.6 489.345 8
6 3 -1 76915.4 1824.39 18
-6 -3 1 75104.2 1807.64 17
-6 -3 1 73850 1545.06 14
-6 -3 1 77283.5 1585.96 8
6 3 -1 77318.4 1761.9 4
6 3 0 32949.1 1135.82 18
-6 -3 0 35349.3 1128.05 17
-6 -3 0 34867 923.515 14
-6 -3 0 35801.1 954.017 8
6 3 0 34853.9 1116.12 4
-6 -3 0 35320.6 933.698 6
6 3 1 720.861 158.498 4
6 3 1 535.268 149.676 18
-6 -3 -1 713.379 136.538 6
-6 -3 -1 457.535 101.598 14
-6 -3 -1 963.636 144.185 8
-6 -3 -1 523.306 127.708 13
-6 -3 -1 674.884 122.421 11
6 3 2 22898.7 983.383 18
-6 -3 -2 24272.3 980.055 3
-6 -3 -2 24436.1 742.428 14
-6 -3 -2 24812.6 768.721 8
-6 -3 -2 25804.3 881.728 13
-6 -3 -2 24586.1 765.21 11
-6 -3 -2 25089.2 854.206 6
-6 -3 -3 302.863 104.644 6
-6 -3 -3 313.339 82.7542 14
-6 -3 -3 202.022 78.7464 13
-6 -3 -3 361.382 100.407 11
-6 -3 -4 745.445 160.872 6
-6 -3 -4 733.122 119.686 14
-6 -3 -4 721.805 121.448 7
-6 -3 -4 751.162 135.446 11
-6 -3 -5 9892.43 419.029 7
-6 -3 -5 10126.3 464.772 11
-6 -3 -5 9911.89 516.901 6
-6 -3 -6 3902.36 227.922 7
-6 -3 -6 4563.14 276.421 11
-6 -3 -6 4043.4 291.977 6
-6 -3 -7 30346.8 698.658 11
-6 -3 -7 30236.2 714.21 6
6 4 -9 4147.28 229.225 15
6 4 -9 4415.61 229.599 12
6 4 -8 11465.9 454.966 15
6 4 -7 5546.27 336.223 15
6 4 -6 149.922 71.6654 15
-6 -4 6 153.467 63.213 8
6 4 -5 102.683 64.4027 15
-6 -4 5 239.408 82.3999 8
6 4 -4 18478.3 671.225 15
-6 -4 4 19159.6 670.734 8
6 4 -3 4384.87 388.253 18
-6 -4 3 4703.46 399.611 17
6 4 -3 3943.53 291.678 15
-6 -4 3 4626.18 313.688 8
6 4 -2 3881.82 366.559 18
-6 -4 2 4121.95 371.549 17
-6 -4 2 3753.96 289.491 14
-6 -4 2 3828.86 286.582 8
6 4 -1 12917.7 684.776 18
-6 -4 1 13751.6 692.356 17
-6 -4 1 13128.4 548.471 14
-6 -4 1 14179.5 573.335 8
6 4 0 66509.2 1768.19 18
-6 -4 0 63086.9 1673.45 17
-6 -4 0 65273.8 1436.92 14
6 4 0 64299.4 1645.85 4
-6 -4 0 66259.2 1453.12 6
-6 -4 -1 132300 2417.96 14
-6 -4 -1 139286 2644.03 13
-6 -4 -1 134708 2530.9 6
-6 -4 -2 45520.2 1119.68 14
-6 -4 -2 47133.3 1160.63 8
-6 -4 -2 46743 1086.72 7
-6 -4 -2 46536.7 1226.63 13
-6 -4 -2 46417 1098.56 11
-6 -4 -2 45825.2 1248.63 6
-6 -4 -3 886.945 166.547 6
-6 -4 -3 819.837 128.178 14
-6 -4 -3 640.356 112.789 7
-6 -4 -3 903.362 136.593 11
-6 -4 -4 1062.09 171.242 6
-6 -4 -4 1229.97 142.689 14
-6 -4 -4 1096.95 136.4 7
-6 -4 -4 1150.59 145.201 11
-6 -4 -5 18993.3 539.604 14
-6 -4 -5 19306.3 563.358 7
-6 -4 -5 19154.2 592.566 11
-6 -4 -5 20506.9 705.694 6
-6 -4 -6 1502.47 131.592 11
-6 -4 -6 1556.14 153.427 6
6 5 -9 13917.1 415.293 15
6 5 -8 4290.62 256.43 15
6 5 -7 4.11109 33.6415 15
6 5 -6 150.201 71.8778 15
-6 -5 6 177.166 67.4449 8
6 5 -5 72900.2 1558.75 15
-6 -5 5 71498 1510.27 8
6 5 -4 6610.52 381.23 15
-6 -5 4 6590.21 375.812 8
6 5 -3 1452.82 176.965 15
-6 -5 3 1635.42 190.428 8
-6 -5 2 1635.81 194.861 14
-6 -5 2 1628.07 191.038 8
-6 -5 1 5459.72 354.434 14
-6 -5 1 5974.95 368.221 8
-6 -5 0 246.857 83.6507 6
-6 -5 0 241.75 83.4433 14
-6 -5 -1 4261.91 295.121 14
-6 -5 -1 4045.52 314.758 13
-6 -5 -1 4108.35 314.01 6
-6 -5 -2 18224.8 624.006 14
-6 -5 -2 18214.5 637.592 8
-6 -5 -2 17446.4 687.132 6
-6 -5 -3 6692.4 341.81 14
-6 -5 -3 6875.42 326.024 11
-6 -5 -3 7395.56 424.013 6
-6 -5 -4 7153.4 320.184 14
-6 -5 -4 6706.89 305.735 11
-6 -5 -5 399.172 83.6848 6
-6 -5 -5 346.654 59.5872 14
-6 -5 -5 326.008 65.4951 11
6 6 -8 1644 141.345 15
6 6 -7 186.878 63.6351 15
6 6 -6 252.531 78.5064 15
6 6 -5 3842.15 273.122 15
-6 -6 5 4007.45 264.254 8
6 6 -4 161.344 74.4308 15
-6 -6 4 42.3629 44.9305 8
6 6 -3 22543.4 714.377 15
-6 -6 3 23402.3 748.287 8
-6 -6 2 5428.32 348.828 14
-6 -6 2 6240.06 369.147 8
-6 -6 1 4865.13 323.922 14
-6 -6 1 4773.4 321.333 8
-6 -6 0 18228.5 642.495 14
-6 -6 0 17792.2 628.553 6
-6 -6 -1 99.5458 56.4834 6
-6 -6 -1 173.216 66.4762 14
-6 -6 -1 152.325 64.7273 8
-6 -6 -2 946.609 125.875 14
-6 -6 -2 977.047 125.169 8
-6 -6 -2 1087.92 149.956 6
-6 -6 -3 12737.5 441.472 14
-6 -6 -3 13369.6 499.464 6
-6 -6 -4 1092.99 105.967 14
-6 -6 -4 1309.01 130.522 6
6 7 -8 535.028 67.2377 15
6 7 -7 524.655 81.3712 15
6 7 -6 785.145 108.128 15
6 7 -5 4984.04 279.852 15
-6 -7 5 4888.54 261.382 8
6 7 -4 4512.29 271.743 15
-6 -7 4 4483.81 270.35 8
6 7 -3 22444.3 654.28 15
-6 -7 3 23311.4 693.941 8
-6 -7 2 109.358 55.6543 14
-6 -7 2 158.732 67.774 8
-6 -7 1 7485.23 374.079 14
-6 -7 1 7844.07 379.627 8
-6 -7 0 9735.65 414.148 14
-6 -7 0 9551.22 405.931 8
-6 -7 0 8581.25 354.566 13
-6 -7 0 9170.71 384.681 6
-6 -7 -1 5381.08 283.471 14
-6 -7 -1 4974.73 269.481 8
-6 -7 -1 4811.93 269.849 6
-6 -7 -2 30.8971 37.7418 6
-6 -7 -2 42.8196 34.435 14
-6 -7 -2 51.297 35.9652 8
-6 -7 -3 291.276 61.2016 6
-6 -7 -3 298.542 53.902 14
6 8 -6 15858.4 426.836 15
6 8 -5 6311.93 265.754 15
6 8 -4 1379.82 122.99 15
-6 -8 4 1407.71 125.461 8
-6 -8 3 4414.45 238.167 8
-6 -8 2 3382.03 208.891 8
-6 -8 1 9874.5 365.063 8
-6 -8 0 2700.38 175.345 14
-6 -8 0 2859.83 178.287 8
-6 -8 0 2588.71 153.837 6
-6 -8 -1 179.02 45.555 6
-6 -8 -1 182.595 47.4093 14
-6 -8 -1 227.695 53.0815 8
-7 9 1 70.6017 34.6582 9
-7 9 0 2291.51 155.38 9
-7 9 -1 1037.27 110.663 9
-7 9 -2 197.404 58.7215 9
-7 8 3 24.8502 32.7353 9
-7 8 3 67.2115 32.1755 15
-7 8 2 2102.42 163.038 9
-7 8 2 2021.19 147.678 15
-7 8 1 2673.01 198.813 9
-7 8 1 2361.76 166.776 15
-7 8 0 819.964 102.986 10
-7 8 0 898.696 121.884 9
-7 8 -1 86.6554 53.8877 10
-7 8 -1 3.71233 40.3231 9
-7 8 -2 112.869 50.9811 10
-7 8 -2 169.719 66.8129 9
-7 8 -3 6360.17 326.654 9
-7 8 -3 5441.74 284.329 10
-7 8 -4 153.812 60.0185 10
-7 8 -5 208.934 57.7734 10
-7 8 -6 3771.85 176.848 10
-7 7 4 7107.3 295.032 9
-7 7 3 9329.02 384.351 9
-7 7 2 4794.16 288.267 9
-7 7 2 4643.61 275.015 8
-7 7 2 4690.14 260.945 10
-7 7 1 13378.5 522.49 9
-7 7 1 12394.1 470.596 8
-7 7 1 12966.8 487.601 10
-7 7 0 5619.4 341.265 9
-7 7 0 5229.89 317.112 10
-7 7 -1 745.411 127.138 10
-7 7 -1 802.15 137.638 9
-7 7 -2 7581.28 414.234 9
-7 7 -2 6955.76 337.29 13
-7 7 -2 7134.96 382.465 10
-7 7 -3 1790.88 201.525 9
-7 7 -3 1914.09 180.548 13
-7 7 -3 2270.36 214.203 10
-7 7 -4 676.427 118.277 10
-7 7 -4 630.238 107.169 13
-7 7 -5 1148.07 138.185 10
-7 7 -6 115.662 45.3823 10
-7 7 -7 1196.24 106.243 10
-7 6 6 1505.67 108.907 9
-7 6 5 14728.9 460.743 9
-7 6 4 60073.1 1240.96 9
-7 6 4 64294.1 1284.88 8
-7 6 3 8416.79 396.82 10
-7 6 3 8676.72 411.275 9
-7 6 3 8615.43 413.519 8
-7 6 2 7397.34 395.045 9
-7 6 2 7190.66 382.583 8
-7 6 2 6808.08 374.15 10
-7 6 1 10507.1 491.221 9
-7 6 1 10308 462.611 8
-7 6 1 10684.2 493.412 10
-7 6 0 7906.03 437.71 9
-7 6 0 7234.15 375.156 8
-7 6 0 7557.69 418.753 10
-7 6 -1 22270.5 790.959 9
-7 6 -1 24098.8 796.215 10
-7 6 -2 11475.1 554.785 9
-7 6 -2 11596.6 483.752 13
-7 6 -2 12096.4 553.445 10
-7 6 -3 4677.89 349.686 9
-7 6 -3 4700.08 307.196 13
-7 6 -3 4870.41 349.346 10
-7 6 -4 11891.3 505.013 13
-7 6 -4 13087.3 574.072 10
-7 6 -5 13.5167 49.4348 10
-7 6 -5 65.2081 43.3729 13
-7 6 -6 802.344 123.212 10
-7 6 -6 823.808 108.642 5
-7 6 -6 749.312 120.038 13
-7 6 -7 285.51 74.1912 10
-7 6 -7 232.327 59.7419 5
-7 5 6 1452.04 126.304 10
-7 5 6 1982.78 153.153 9
-7 5 6 1854.38 154.781 8
-7 5 5 2129.38 183.835 9
-7 5 5 2274.87 199.039 8
-7 5 4 451.309 96.6138 9
-7 5 4 401.428 98.642 8
-7 5 3 8548.68 432.07 9
-7 5 3 8957.05 451.943 8
-7 5 2 9602.04 488.084 10
-7 5 2 8767.16 452.676 9
-7 5 2 9188.85 454.489 8
-7 5 1 2494.85 248.736 10
-7 5 1 2435.7 240.764 9
-7 5 1 2276.78 220.048 8
-7 5 0 19667.3 747.128 9
-7 5 0 19293.8 661.294 8
-7 5 0 21186.3 767.869 10
-7 5 -1 10872.4 548.918 9
-7 5 -1 11859.7 484.706 13
-7 5 -1 12811.4 585.319 10
-7 5 -2 2407.41 257.14 9
-7 5 -2 2700.32 235.727 13
-7 5 -2 2623.8 273.339 10
-7 5 -3 516.931 146.86 10
-7 5 -3 380.597 107.466 13
-7 5 -4 380.873 117.933 10
-7 5 -4 331.972 99.1876 13
-7 5 -5 10492.4 487.298 13
-7 5 -5 10347 519.958 10
-7 5 -6 15381.9 518.715 5
-7 5 -6 16557.5 586.507 13
-7 5 -6 16736.7 620.172 10
-7 5 -7 76.6034 50.0633 10
-7 5 -7 107.879 56.2439 5
-7 5 -7 32.8578 36.6629 13
-7 4 7 9487.35 325.405 9
-7 4 7 8389.41 316.571 8
-7 4 6 8363.85 360.62 9
-7 4 6 8463.79 382.808 8
-7 4 5 2142.43 198.166 9
-7 4 5 2168.91 212.552 8
-7 4 4 141.482 73.3324 9
-7 4 4 94.899 74.1283 8
-7 4 3 7492.6 412.414 9
-7 4 3 8214.86 436.968 8
-7 4 2 11264.6 520.035 9
-7 4 2 11106.5 509.383 8
-7 4 1 23792.3 834.194 10
-7 4 1 22684.5 786.433 9
-7 4 1 22040.7 726.679 8
-7 4 0 3742.1 316.607 10
-7 4 0 3167.32 338.112 17
-7 4 0 3196.69 249.994 8
-7 4 0 3293.32 246.229 13
7 -4 0 3521.92 342.335 4
-7 4 -1 5121.12 414.441 17
-7 4 -1 4600.9 310.56 13
-7 4 -1 5112.64 378.93 10
-7 4 -2 36655.3 1000.38 13
-7 4 -2 37403.3 1135.94 10
-7 4 -3 10484.6 498.255 13
-7 4 -3 10838.4 582.206 10
-7 4 -4 469.375 133.631 10
-7 4 -4 482.517 115.558 13
-7 4 -5 201.98 94.2885 10
-7 4 -5 291.296 77.9253 5
-7 4 -5 280.041 92.7618 13
-7 4 -6 13218.4 493.363 5
-7 4 -6 13041.1 530.92 13
-7 4 -6 13062.4 556.184 10
-7 4 -7 2438.16 187.254 5
-7 4 -7 2498.85 200.864 13
-7 4 -7 2263.61 195.051 10
-7 4 -8 2715.83 170.462 5
-7 3 7 45.7621 32.1364 9
-7 3 7 125.893 52.5788 8
-7 3 6 2645.72 208.486 9
-7 3 6 2337.87 212.162 8
-7 3 5 8458.92 408.167 9
7 -3 -5 9033.97 447.034 15
-7 3 5 8465.89 442.586 8
-7 3 4 6079.18 357.385 9
7 -3 -4 6236.58 379.76 15
-7 3 4 6079.62 382.244 8
7 -3 -3 35488.5 994.934 15
-7 3 3 35731.9 1001.76 8
-7 3 2 40757.7 1269.27 17
7 -3 -2 36583.4 988.175 15
-7 3 2 39591 1038.79 8
7 -3 -2 38333.5 1216.67 4
7 -3 -1 515.681 141.965 4
-7 3 1 595.401 150.862 17
-7 3 1 542.826 111.941 8
-7 3 0 51547.2 1448.79 17
-7 3 0 49921.7 1171.37 8
-7 3 0 49039.5 1166.63 13
7 -3 0 52018.6 1426.05 4
-7 3 -1 8180.21 519.113 17
-7 3 -1 8634.4 431.664 13
7 -3 1 8609.46 530.629 4
-7 3 -1 9913.96 542.179 10
-7 3 -2 7600.93 416.496 13
-7 3 -2 8024.17 432.741 11
7 -3 2 6922.57 482.259 4
-7 3 -2 7959.43 488.216 10
-7 3 -3 174521 3022.47 13
-7 3 -3 172243 2995.69 11
-7 3 -3 167414 3164.8 10
-7 3 -4 9361.83 482.049 13
-7 3 -4 8815.82 447.398 11
-7 3 -4 9758.55 526.081 10
-7 3 -5 13155.7 509.431 5
-7 3 -5 13644.2 573.317 13
-7 3 -5 13065.3 544.007 11
-7 3 -5 13697.2 597.973 10
-7 3 -6 973.746 146.735 10
-7 3 -6 1095.54 140.338 5
-7 3 -6 898.198 138.967 13
-7 3 -6 998.422 139.402 11
-7 3 -7 975.676 123.502 5
-7 3 -7 1081.55 134.642 13
-7 3 -7 921.969 109.801 11
-7 2 7 962.547 113.466 9
7 -2 -7 913.9 126.429 15
-7 2 7 975.308 127.234 8
7 -2 -6 9259.27 441.02 15
-7 2 6 8929.67 436.769 8
7 -2 -5 458.792 107.863 15
-7 2 5 482.352 115.609 8
7 -2 -4 96.2287 64.24 15
-7 2 4 82.3396 65.6694 8
-7 2 3 29279.7 1057.21 17
7 -2 -3 28708.5 858.317 15
-7 2 3 29362.9 875.102 8
7 -2 -3 27392.1 1006.1 4
7 -2 -2 1616.01 227.082 4
-7 2 2 1690.86 236.857 17
7 -2 -2 1541.97 174.611 15
-7 2 2 1567.9 183.04 8
-7 2 1 27147.9 988.648 17
-7 2 1 25871 781.273 8
-7 2 1 26184.8 762.436 13
7 -2 -1 27589.2 980.293 4
-7 2 0 11904.2 598.011 10
-7 2 0 10684.9 594.264 17
-7 2 0 10742.4 460.321 8
-7 2 0 11300.1 489.856 13
7 -2 0 11818.5 627.197 4
-7 2 -1 6882.55 465.705 17
-7 2 -1 7572.95 411.567 13
-7 2 -1 7558.61 416.011 11
7 -2 1 7329 490.103 4
-7 2 -1 7621.6 470.842 10
-7 2 -2 75472.9 1622.13 13
-7 2 -2 76352.1 1616.29 11
7 -2 2 70950.3 1822.67 4
-7 2 -2 74120.8 1713.72 10
-7 2 -3 461.426 120.716 10
-7 2 -3 514.414 120.172 13
-7 2 -3 573.637 116.201 11
-7 2 -4 780.748 145.253 10
-7 2 -4 669.791 138.466 13
-7 2 -4 590.811 127.697 11
-7 2 -5 9731.8 435.396 5
-7 2 -5 10060.2 492.359 13
-7 2 -5 9732.83 475.805 11
-7 2 -5 9628.49 451.725 10
-7 2 -6 8524.34 395.813 5
-7 2 -6 7899.56 406.042 13
-7 2 -6 7604.93 393.081 11
-7 2 -7 6928.7 334.43 5
-7 2 -7 6348.61 314.398 11
7 -1 -8 3163.04 213.221 15
7 -1 -7 2165.66 198.635 15
-7 1 7 2323.22 198.831 8
7 -1 -6 265.306 78.3764 15
-7 1 6 254.171 88.567 8
7 -1 -5 11182.1 511.065 15
-7 1 5 11429.8 517.578 8
7 -1 -4 24236.3 787.29 15
-7 1 4 25026 796.761 8
-7 1 3 5996.8 456.039 17
7 -1 -3 5949.94 353.985 15
-7 1 3 6453.88 379.203 8
7 -1 -3 5650.1 425.313 4
-7 1 2 4863.39 405.177 17
-7 1 2 5208.44 327.984 8
-7 1 2 4941.28 301.023 13
7 -1 -2 4436.41 374.952 4
7 -1 -1 204.769 97.2981 4
-7 1 1 280.632 100.829 17
-7 1 1 156.366 68.3978 8
-7 1 1 270.343 93.002 13
-7 1 0 8192.33 481.759 10
-7 1 0 7990.98 508.326 17
-7 1 0 7995.19 393.607 8
-7 1 0 8671.12 436.886 13
-7 1 0 8768.77 446.855 11
7 -1 0 9135.73 546.952 4
-7 1 -1 13757.7 658.889 17
-7 1 -1 14829.3 596.967 13
-7 1 -1 15028.9 596.49 11
7 -1 1 15016.6 728.576 4
-7 1 -1 15115.6 563.278 6
-7 1 -1 15747.1 650.844 10
7 -1 2 1416.21 224.997 4
-7 1 -2 1522.19 222.95 3
-7 1 -2 1556.2 196.302 13
-7 1 -2 1343.22 179.31 11
-7 1 -2 1557.41 190.064 6
-7 1 -3 8934.2 476.772 13
-7 1 -3 9245.87 468.483 11
-7 1 -3 8997.39 475.114 6
-7 1 -4 499.815 120.824 6
-7 1 -4 831.659 146.273 13
-7 1 -4 568.318 123.859 11
-7 1 -5 50368.1 1168.27 5
-7 1 -5 48016.9 1226 13
-7 1 -5 51162.9 1239.01 11
-7 1 -6 3565.28 256.582 5
-7 1 -6 3245.31 251.817 13
-7 1 -6 3192.11 263.178 11
-7 1 -7 222.71 70.2255 11
7 0 -8 1381.38 146.195 15
7 0 -7 3456.43 256.476 15
-7 0 7 3324.63 241.657 8
7 0 -6 49.354 58.3477 15
-7 0 6 29.1326 53.7652 8
7 0 -5 29881.6 895.776 15
-7 0 5 31597.1 913.729 8
7 0 -4 1688.35 196.197 15
-7 0 4 1914.12 206.931 8
-7 0 3 7827.31 521.592 17
7 0 -3 7742.29 402.395 15
-7 0 3 7998.13 418.038 8
-7 0 3 7076.66 365.447 13
7 0 -3 7509.43 482.779 4
-7 0 2 28943.3 1030.51 17
-7 0 2 28004.7 830.123 8
-7 0 2 25966.3 791.565 13
7 0 -2 27094.2 967.971 4
-7 0 1 52373.3 1458.24 17
-7 0 1 52391.4 1213.15 8
-7 0 1 51806.1 1241.06 13
7 0 -1 52559.1 1439.94 4
-7 0 0 2721.73 296.839 17
-7 0 0 2754.6 227.66 8
-7 0 0 2980.43 258.497 13
-7 0 0 2757.9 245.197 11
7 0 0 2969.87 312.157 4
7 0 1 111.097 81.4336 4
-7 0 -1 227.135 86.1403 6
-7 0 -1 193.451 70.2204 8
-7 0 -1 129.309 73.5182 13
-7 0 -1 337.976 97.3328 11
-7 0 -2 9223.29 537.551 3
-7 0 -2 9751.62 497.483 13
-7 0 -2 9794.22 473.519 11
-7 0 -2 9126.94 463.136 6
7 0 2 10544.5 633.331 4
-7 0 -3 1829.26 218.65 13
-7 0 -3 1682.42 201.951 11
-7 0 -3 1822.91 214.676 6
-7 0 -4 5411.76 373.09 13
-7 0 -4 4859.01 338.982 11
-7 0 -4 4843.78 356.306 6
-7 0 -5 6209.39 372.648 13
-7 0 -5 6329.77 386.363 11
-7 0 -5 6149.55 395.625 6
-7 0 -6 1436.23 172.159 11
-7 0 -7 35102.3 852.444 11
7 1 -9 4008.39 210.73 15
7 1 -8 8565.99 377.722 15
7 1 -7 26230.5 783.806 15
-7 -1 7 26303.6 743.145 8
7 1 -6 1660.39 191.471 15
-7 -1 6 1702.08 187.883 8
7 1 -5 955.064 147.521 15
-7 -1 5 848.57 140.327 8
7 1 -4 2000.67 210.656 15
-7 -1 4 2037.37 212.122 8
-7 -1 3 24549.1 951.009 17
7 1 -3 21974.7 722.803 15
-7 -1 3 22414.8 740.461 8
-7 -1 3 22627.4 730.951 13
7 1 -3 21817.6 836.819 4
-7 -1 2 3077.53 323.496 17
-7 -1 2 2803.89 242.141 8
-7 -1 2 2883.28 252.549 13
7 1 -2 2985.54 301.482 4
-7 -1 1 4853.13 403.092 17
-7 -1 1 5072.96 324.801 8
-7 -1 1 5344.89 351.288 13
-7 -1 1 5549.27 338.291 11
7 1 -1 5412.33 416.082 4
7 1 0 967.847 183.513 4
-7 -1 0 1249.74 201.071 17
-7 -1 0 1272.3 162.287 8
-7 -1 0 996.922 160.069 13
-7 -1 0 1110.95 154.218 11
-7 -1 -1 54215.8 1244.66 8
-7 -1 -1 56071.6 1380.73 13
-7 -1 -1 55902 1293.03 11
7 1 1 56766.7 1585.14 4
-7 -1 -1 54276.9 1261.96 6
-7 -1 -2 2202.78 244.402 13
-7 -1 -2 2011.6 214.351 11
-7 -1 -2 2129.47 227.665 6
-7 -1 -3 2724.92 271.895 13
-7 -1 -3 2695.5 248.3 11
-7 -1 -3 2622.05 259.417 6
-7 -1 -4 14758.8 627.825 13
-7 -1 -4 16444.7 634.228 11
-7 -1 -4 15666.7 658.153 6
-7 -1 -5 20999.7 715.39 11
-7 -1 -5 19860.1 739.001 6
-7 -1 -6 2984.44 234.439 11
-7 -1 -6 2718.26 238.884 6
-7 -1 -7 5157.64 266.513 11
7 2 -9 2273.7 157.194 15
7 2 -8 121.387 44.986 15
7 2 -8 153.454 52.3048 12
7 2 -7 2674.21 223.219 15
-7 -2 7 2651.21 207.525 8
7 2 -6 10044.1 473.708 15
-7 -2 6 9994.31 456.556 8
7 2 -5 61847.1 1412.75 15
-7 -2 5 61249.6 1389.36 8
7 2 -4 384.319 99.8427 15
-7 -2 4 467.142 111.527 8
-7 -2 3 14337.8 722.334 17
7 2 -3 13790.6 556.735 15
-7 -2 3 13752.7 565.78 8
-7 -2 2 13912.1 706.519 17
-7 -2 2 13772.8 559.512 8
7 2 -2 13243.4 653.372 4
-7 -2 1 4076.22 374.272 17
-7 -2 1 3881.89 287.854 8
-7 -2 1 4111.32 326.72 13
7 2 -1 4042.59 359.758 4
7 2 0 139.686 66.2157 4
-7 -2 0 101.906 96.3554 17
-7 -2 0 63.7485 50.1119 8
-7 -2 0 200.744 76.5022 13
-7 -2 0 179.784 76.2276 11
-7 -2 -1 15011.1 579.15 8
-7 -2 -1 16057.4 688.984 13
-7 -2 -1 16061.9 601.251 11
-7 -2 -1 15651.8 602.719 6
-7 -2 -2 941.445 156.551 6
-7 -2 -2 1050.63 177.56 13
-7 -2 -2 966.65 153.816 11
-7 -2 -3 24625.5 860.57 13
-7 -2 -3 26163.2 812.2 11
-7 -2 -3 25838.7 868.266 6
-7 -2 -4 10044.2 481.304 13
-7 -2 -4 11812.4 509.994 11
-7 -2 -4 11127.4 547.213 6
-7 -2 -5 1668.93 180.807 11
-7 -2 -5 1508.82 189.205 6
-7 -2 -6 -19.9739 39.8545 6
-7 -2 -6 32.7267 36.1514 11
-7 -2 -7 5319.15 231.963 11
7 3 -9 8975.31 317.595 15
7 3 -8 786.896 107.018 15
7 3 -8 794.4 98.0762 12
7 3 -7 1127.82 141.599 15
7 3 -6 8661.26 430.674 15
-7 -3 6 9147.12 421.734 8
7 3 -5 19467.2 688.75 15
-7 -3 5 19513.4 673.299 8
7 3 -4 3353.02 270.707 15
-7 -3 4 3612.43 281.399 8
7 3 -3 18661 656.71 15
-7 -3 3 18656.6 674.85 8
-7 -3 2 1834.75 201.445 8
-7 -3 1 12544.8 524.119 14
-7 -3 1 14133.9 572.993 8
-7 -3 0 3846.17 278.66 14
-7 -3 0 3683.74 283.332 8
-7 -3 0 3947.34 339.787 13
-7 -3 -1 17981 620.57 14
-7 -3 -1 19045 670.354 8
-7 -3 -1 19519.4 779.502 13
-7 -3 -1 18620.4 629.446 11
-7 -3 -1 18565.2 675.186 6
-7 -3 -2 595.531 128.967 6
-7 -3 -2 750.239 122.844 8
-7 -3 -2 857.261 155.457 13
-7 -3 -2 486.956 103.384 11
-7 -3 -3 12507.7 549.357 13
-7 -3 -3 11887.1 498.246 11
-7 -3 -3 12039.6 561.243 6
-7 -3 -4 8471.1 396.975 11
-7 -3 -4 8605.94 457.865 6
-7 -3 -5 3270.96 222.636 11
-7 -3 -5 3323.16 259.67 6
-7 -3 -6 11808.1 382.007 11
-7 -3 -6 13215.5 447.116 6
7 4 -9 1089.27 98.0243 15
7 4 -8 5799.2 280.73 15
7 4 -7 222.802 66.7976 15
7 4 -6 12094.2 500.336 15
-7 -4 6 12456.5 477.534 8
7 4 -5 14374.1 570.203 15
-7 -4 5 14672.7 560.425 8
7 4 -4 20360.3 700.218 15
-7 -4 4 21158.4 707.416 8
7 4 -3 39244.4 1017.37 15
-7 -4 3 41541.6 1074.03 8
-7 -4 2 4214.9 307.262 8
-7 -4 1 9894.51 470.786 14
-7 -4 1 10277 484.94 8
-7 -4 0 21828.2 723.522 14
-7 -4 0 22699.3 751.907 8
-7 -4 0 24023.3 860.02 13
-7 -4 0 23052.8 716.993 6
-7 -4 -1 5458.07 326.691 14
-7 -4 -1 5944.68 354.258 8
-7 -4 -1 5638.56 353.14 6
-7 -4 -2 246.823 85.5044 6
-7 -4 -2 263.067 80.9218 14
-7 -4 -2 436.543 97.7688 8
-7 -4 -2 167.249 68.4497 13
-7 -4 -2 229.687 68.2146 11
-7 -4 -3 1294.54 140.675 14
-7 -4 -3 1288.46 141.804 11
-7 -4 -3 1353.63 175.349 6
-7 -4 -4 2923.13 195.725 11
-7 -4 -4 2880.78 234.729 6
-7 -4 -5 3362.51 186.14 11
-7 -4 -5 4172.49 244.297 6
7 5 -8 4690.21 228.461 15
7 5 -7 7207.89 329.545 15
7 5 -6 10085.3 428.127 15
-7 -5 6 10332.6 398.688 8
7 5 -5 2093.41 196.291 15
-7 -5 5 2018.99 188.219 8
7 5 -4 14857.2 559.052 15
-7 -5 4 15307.7 574.574 8
-7 -5 3 378.711 96.521 8
-7 -5 2 5923.26 356.763 8
-7 -5 1 26973.5 816.989 14
-7 -5 1 28951.2 848.129 8
-7 -5 0 408.079 89.1937 6
-7 -5 0 284.079 87.2505 14
-7 -5 0 333.016 89.0332 8
-7 -5 0 359.788 106.092 13
-7 -5 -1 33272.5 877.302 14
-7 -5 -1 34731.6 903.939 8
-7 -5 -1 35427.9 943.12 13
-7 -5 -1 33531.8 902.825 6
-7 -5 -2 19050.6 587.388 14
-7 -5 -2 20200 602.847 8
-7 -5 -2 19637.6 648.37 6
-7 -5 -3 1919.34 152.11 14
-7 -5 -3 1828.78 175.331 6
-7 -5 -4 29.9204 34.4835 6
7 6 -8 760.746 76.2061 15
7 6 -7 -0.13513 29.1242 15
7 6 -6 13414.7 451.303 15
7 6 -5 7791.98 350.959 15
-7 -6 5 7414.5 333.835 8
7 6 -4 3530.25 234.923 15
-7 -6 4 3572.12 244.091 8
-7 -6 3 3741.22 258.476 8
-7 -6 2 3954.75 268.267 8
-7 -6 1 108.087 52.2719 8
-7 -6 1 134.242 61.0895 13
-7 -6 0 1001.44 129.762 14
-7 -6 0 1112.24 137.591 8
-7 -6 0 993.273 129.385 13
-7 -6 -1 2837.38 202.667 14
-7 -6 -1 2716.09 196.216 8
-7 -6 -1 2899.06 201.55 6
-7 -6 -2 20510.7 548.121 14
-7 -6 -2 20245.8 516.675 8
-7 -6 -2 20136.3 563.426 6
-7 -6 -3 3471.2 170.765 14
-7 -6 -3 3836.9 197.744 6
7 7 -6 1695.42 123.229 15
7 7 -5 2976.05 176.389 15
-7 -7 5 2993.22 171.43 8
7 7 -4 18238.8 488.636 15
-7 -7 4 18008.1 516.305 8
-7 -7 3 13771.9 455.073 8
-7 -7 2 2266.45 173.198 8
-7 -7 2 1915.05 160.522 13
-7 -7 1 1955.81 158.898 8
-7 -7 1 1994.53 152.263 13
-7 -7 0 16.5697 33.9236 14
-7 -7 0 27.177 26.9935 8
-7 -7 -1 857.974 93.054 14
-7 -7 -1 915.237 88.8724 8
-7 -8 4 941.48 88.8452 13
-7 -8 3 3300.77 164.003 8
-7 -8 3 2746.35 151.628 13
-7 -8 2 8329.59 278.325 8
-7 -8 1 5566.85 213.074 8
-8 8 1 27.4983 21.0806 9
-8 8 0 14515.1 408.937 9
-8 8 0 12251.3 358.055 10
-8 8 -1 1033.04 108.105 9
-8 8 -1 986.618 104.173 10
-8 8 -2 378.644 66.8817 10
-8 8 -2 408.289 68.5576 9
-8 8 -3 7493.93 278.089 10
-8 8 -4 4626.02 196.815 10
-8 7 3 2808.23 160.963 9
-8 7 2 1574.7 135.309 9
-8 7 2 1320.18 122.955 10
-8 7 1 -3.67078 34.4141 10
-8 7 1 36.2474 30.3691 9
-8 7 0 80.2185 49.7446 10
-8 7 0 17.9657 30.3094 9
-8 7 -1 8821.49 376.947 9
-8 7 -1 8729.3 383.537 10
-8 7 -2 4284.5 256.328 9
-8 7 -2 5011.15 285.372 10
-8 7 -3 1168.7 134.203 10
-8 7 -4 28.5384 33.9761 10
-8 7 -5 3040.96 184.916 10
-8 6 4 21765.4 534.379 9
-8 6 4 23177.8 589.106 8
-8 6 3 510.949 86.1244 10
-8 6 3 446.717 78.2952 9
-8 6 3 628.034 97.5029 8
-8 6 2 76.554 60.5233 10
-8 6 2 7.8806 39.8001 9
-8 6 2 28.5667 38.2577 8
-8 6 1 995.678 139.096 10
-8 6 1 1072.49 136.587 9
-8 6 1 989.703 126.832 8
-8 6 0 13235.9 514.744 9
-8 6 0 14737.7 563.524 10
-8 6 -1 295.163 86.6064 10
-8 6 -2 208.544 73.3956 10
-8 6 -2 55.5039 44.7585 13
-8 6 -3 7659.78 363.433 13
-8 6 -3 8785.02 427.786 10
-8 6 -4 848.857 130.48 10
-8 6 -4 800.899 117.029 13
-8 6 -5 21621.6 621.853 13
-8 6 -5 23520.3 662.193 10
-8 6 -6 3769.94 214.86 10
-8 5 5 1423.28 130.425 10
-8 5 5 1407.44 117.448 9
-8 5 5 1709.12 149.057 8
-8 5 4 2186.67 193.061 10
-8 5 4 2158.76 167.252 9
-8 5 4 2550.02 203.445 8
-8 5 3 166.899 70.5126 10
-8 5 3 161.919 62.8985 9
-8 5 3 139.334 61.0281 8
-8 5 2 4836.4 324.764 10
-8 5 2 5025.28 300.612 9
-8 5 2 4674.93 300.168 8
-8 5 1 3361.28 249.996 8
-8 5 1 3924.94 302.633 10
-8 5 0 1630.39 173.394 8
-8 5 0 2025.84 222.095 10
-8 5 -1 2655.81 215.747 13
-8 5 -1 2730.97 262.297 10
-8 5 -2 6.93208 68.5826 10
-8 5 -2 103.737 58.2842 13
-8 5 -3 15248 569.006 13
-8 5 -3 16090.3 650.812 10
-8 5 -4 127.799 68.5012 10
-8 5 -4 101.475 55.9693 13
-8 5 -5 3405.98 240.176 13
-8 5 -5 3720.38 271.398 10
-8 5 -6 762.002 109.07 10
-8 5 -6 767.715 104.491 13
-8 4 6 1585.86 138.136 8
-8 4 5 11114.7 445.055 8
-8 4 4 15103.9 564.506 8
-8 4 3 7.8978 44.2417 8
-8 4 2 12384.5 562.956 10
-8 4 2 11148.4 495.81 8
-8 4 1 1381.99 193.934 10
-8 4 1 1225.76 162.209 8
-8 4 0 1034.44 174.732 10
-8 4 0 660.711 116.837 8
-8 4 0 1054.04 140.979 13
-8 4 -1 13062.7 527.748 13
-8 4 -1 14078.6 639.417 10
-8 4 -2 645.833 147.991 10
-8 4 -2 71.0577 56.1512 13
-8 4 -3 5699.88 355.919 13
-8 4 -3 6107.23 413.907 10
-8 4 -4 233.977 87.8606 10
-8 4 -4 168.688 70.2147 13
-8 4 -5 16521.8 586.09 13
-8 4 -5 17580.5 632.02 10
-8 4 -6 439.465 87.4252 10
-8 4 -6 612.076 101.623 13
-8 3 7 -6.44804 34.3003 8
-8 3 6 6116.49 307.519 8
-8 3 5 22043.2 692.602 8
-8 3 4 4403.02 306.59 8
-8 3 3 1186.57 161.837 8
-8 3 2 1468.8 178.474 8
-8 3 1 6356.27 429.009 10
-8 3 1 4997.1 325.972 8
-8 3 0 5901.81 346.813 8
-8 3 0 6189.08 352.589 13
-8 3 0 6931.92 449.767 10
-8 3 -1 849.004 162.3 10
-8 3 -1 628.413 124.815 13
-8 3 -2 323.672 119.36 10
-8 3 -2 223.438 89.2487 13
-8 3 -3 3769.2 300.821 13
-8 3 -3 3810.84 326.573 10
-8 3 -4 636.045 132.398 10
-8 3 -4 387.364 99.2807 13
-8 3 -5 2854.33 240.802 13
-8 3 -5 2488.19 219.272 10
-8 3 -6 589.707 105.21 13
-8 2 7 3579.04 209.142 8
-8 2 6 155.455 59.0962 8
8 -2 -5 7736.64 400.808 15
-8 2 5 7109.49 384.695 8
8 -2 -4 8762.93 445.818 15
-8 2 4 8807.18 444.9 8
8 -2 -3 13158.8 546.02 15
-8 2 3 14192.9 577.002 8
-8 2 2 473.504 107.949 8
-8 2 1 2326.58 219.717 8
-8 2 1 2247.39 212.443 13
-8 2 0 24837.8 773.365 8
-8 2 0 27437.8 832.073 13
-8 2 0 27712.3 957.031 10
-8 2 -1 65355.6 1481.48 13
-8 2 -1 65101.9 1594.94 10
-8 2 -2 242.965 103.685 10
-8 2 -2 228.132 90.7683 13
-8 2 -2 225.914 96.0428 11
-8 2 -3 289.319 97.169 10
-8 2 -3 200.702 94.4805 13
-8 2 -3 231.876 92.8352 11
-8 2 -4 3230.21 273.055 13
-8 2 -4 3195.41 270.152 11
-8 2 -5 97.2722 65.7072 13
-8 2 -5 148.754 71.5706 11
-8 2 -6 54.4801 37.4483 13
-8 2 -6 8.81093 39.5379 11
8 -1 -7 681.17 102.787 15
-8 1 7 548.986 89.3524 8
8 -1 -6 196.137 63.3393 15
-8 1 6 133.51 62.4515 8
8 -1 -5 15814.7 601.084 15
-8 1 5 15254.3 586.666 8
8 -1 -4 4164.5 304.65 15
-8 1 4 4129.35 304.949 8
8 -1 -3 29344.3 858.459 15
-8 1 3 31187.7 907.213 8
-8 1 2 187.362 76.0313 8
-8 1 2 146.717 60.4474 13
-8 1 1 16159.2 696.675 10
-8 1 1 15295.6 590.575 8
-8 1 1 14891.8 589.982 13
-8 1 0 3665.39 272.852 8
-8 1 0 3931.47 304.325 13
-8 1 0 4674.17 352.929 10
-8 1 -1 203.237 89.7497 13
-8 1 -1 247.541 85.2882 11
-8 1 -2 16736.7 674.812 13
-8 1 -2 18314.2 676.72 11
-8 1 -3 16971.9 670.907 13
-8 1 -3 16860.1 652.748 11
-8 1 -4 8741.45 453.777 13
-8 1 -4 8554.9 439.545 11
-8 1 -5 11364.4 497.539 13
-8 1 -5 11987.6 497.408 11
-8 1 -6 565.143 98.5679 13
-8 1 -6 538.783 101.605 11
-8 1 -7 2829.08 172.496 11
8 0 -8 24190.7 601.927 15
8 0 -7 19527.3 594.755 15
-8 0 7 18140.9 548.07 8
8 0 -6 8240.11 404.055 15
-8 0 6 7850.42 383.959 8
8 0 -5 1543.88 184.028 15
-8 0 5 1454.76 176.779 8
8 0 -4 2549.12 237.023 15
-8 0 4 2975.24 256.255 8
8 0 -3 1529.98 176.746 15
-8 0 3 1603.72 189.651 8
-8 0 3 1644.29 178.805 13
-8 0 2 532.066 114.647 8
-8 0 2 545.614 112.581 13
-8 0 1 26613.5 815.941 8
-8 0 1 26455.1 840.758 13
-8 0 0 192.869 71.0446 8
-8 0 0 249.621 97.6628 13
-8 0 0 191.084 85.4091 11
-8 0 -1 36704.4 958.692 8
-8 0 -1 38909.3 1096.96 13
-8 0 -1 39250.6 1045.38 11
-8 0 -2 8464.05 474.408 13
-8 0 -2 8188.52 436.705 11
-8 0 -2 8547.33 441.058 6
-8 0 -3 9468.89 499.311 13
-8 0 -3 9905.52 479.943 11
-8 0 -3 9856.7 487.757 6
-8 0 -4 7895.12 433.071 13
-8 0 -4 8692.26 436.034 11
-8 0 -5 113.915 59.9598 13
-8 0 -5 -23.2077 58.8698 11
-8 0 -6 4605.1 260.982 11
8 1 -8 14439.9 442.642 15
8 1 -7 19333.4 591.858 15
-8 -1 7 18061.3 539.906 8
8 1 -6 8871.72 415.072 15
-8 -1 6 8248.8 389.502 8
8 1 -5 8423.63 424.987 15
-8 -1 5 8451.49 419.988 8
8 1 -4 11745.5 514.831 15
-8 -1 4 12081.4 526.75 8
-8 -1 3 1991.01 207.112 8
-8 -1 3 1483.51 176.344 13
-8 -1 2 14327 579.66 8
-8 -1 2 13401.7 572.709 13
-8 -1 1 14791.1 588.912 8
-8 -1 1 15906.5 644.377 13
-8 -1 0 15442.2 593.996 8
-8 -1 0 16147 667.167 13
-8 -1 0 15787.3 614.163 11
-8 -1 -1 318.125 92.8893 6
-8 -1 -1 358.444 93.556 8
-8 -1 -1 441.294 123.431 13
-8 -1 -1 510.887 117.112 11
-8 -1 -2 11371.1 558.115 13
-8 -1 -2 11065.9 499.278 11
-8 -1 -2 10943.9 502.742 6
-8 -1 -3 11039.7 542.433 13
-8 -1 -3 11428 505.69 11
-8 -1 -3 11254 518.56 6
-8 -1 -4 1087.64 157.557 13
-8 -1 -4 1476.59 173.541 11
-8 -1 -4 1496.83 184.711 6
-8 -1 -5 14976.4 526.499 11
-8 -1 -6 1694.96 145.409 11
8 2 -8 33167.5 738.118 15
8 2 -7 1694.47 159.04 15
-8 -2 7 1391.29 132.327 8
8 2 -6 1251 149.724 15
-8 -2 6 1422.1 151.271 8
8 2 -5 -14.0352 46.3859 15
-8 -2 5 81.5805 53.9536 8
8 2 -4 6034.03 351.768 15
-8 -2 4 5527.31 346.581 8
-8 -2 4 5578.24 330.848 13
-8 -2 3 921.937 147.345 8
-8 -2 3 1033.14 158.279 13
-8 -2 2 2763.43 245.222 8
-8 -2 2 3272.57 279.865 13
-8 -2 1 2008.42 209.361 8
-8 -2 1 1818.36 221.46 13
-8 -2 0 4823.12 320.787 8
-8 -2 0 5850.1 397.239 13
-8 -2 0 5344.42 324.28 11
-8 -2 -1 33252.2 911.856 8
-8 -2 -1 36394.2 1084.8 13
-8 -2 -1 34324 922.607 11
-8 -2 -1 33442.5 905.105 6
-8 -2 -2 19334.6 743.592 13
-8 -2 -2 18435.6 637.207 11
-8 -2 -2 18210.7 652.43 6
-8 -2 -3 1013.06 148.03 6
-8 -2 -3 808.763 144.753 13
-8 -2 -3 898.308 137.551 11
-8 -2 -4 4775.61 281.36 13
-8 -2 -4 5288.63 297.177 11
-8 -2 -4 5547.64 332.464 6
-8 -2 -5 31.7821 37.2705 6
-8 -2 -5 -0.48383 39.3282 11
8 3 -8 1612.94 127.77 15
8 3 -7 2241.48 175.495 15
8 3 -6 1340.85 149.382 15
-8 -3 6 1521.92 151.937 8
8 3 -5 9158.42 421.496 15
-8 -3 5 9064.63 416.344 8
-8 -3 5 9062.61 393.177 13
8 3 -4 170.443 60.4829 15
-8 -3 4 116.742 58.2267 8
-8 -3 4 169.477 69.4228 13
-8 -3 3 1396.13 175.225 8
-8 -3 3 1562.63 191.908 13
-8 -3 2 2946.72 252.808 8
-8 -3 2 3343.74 286.87 13
-8 -3 1 17311 639.371 8
-8 -3 1 17923.5 707.694 13
-8 -3 0 17242.1 627.277 8
-8 -3 0 17761 712.51 13
-8 -3 -1 10296.3 450.042 8
-8 -3 -1 10716.9 538.168 13
-8 -3 -1 9546.36 427.029 6
-8 -3 -2 11884.6 536.679 13
-8 -3 -2 11891.5 453.851 11
-8 -3 -2 11700.3 490.096 6
-8 -3 -3 14387.7 523.767 13
-8 -3 -3 14209.8 486.397 11
-8 -3 -3 15440.1 555.965 6
-8 -3 -4 1060.76 119.267 11
-8 -3 -4 1167.06 140.136 6
-8 -3 -5 1905.27 136.76 11
8 4 -8 619.001 71.6686 15
8 4 -7 12397.5 407.628 15
8 4 -6 1146.94 128.917 15
-8 -4 6 1149.25 122.234 8
8 4 -5 3235.03 230.402 15
-8 -4 5 3841.58 252.174 8
-8 -4 5 3277.03 229.75 13
8 4 -4 156.248 62.5993 15
-8 -4 4 89.4488 59.9322 8
-8 -4 4 54.3935 53.8432 13
-8 -4 3 23568.9 730.809 8
-8 -4 3 21382.4 727.562 13
-8 -4 2 11703.5 502.844 8
-8 -4 2 13333 565.18 13
-8 -4 1 2475.15 221.994 8
-8 -4 1 2805.19 256.657 13
-8 -4 0 17882.7 614.818 8
-8 -4 0 18565.9 683.905 13
-8 -4 -1 1388.71 143.674 14
-8 -4 -1 1475.77 159.131 8
-8 -4 -1 1762.49 193.7 13
-8 -4 -1 1518.45 152.324 6
-8 -4 -2 2806.71 210.663 13
-8 -4 -2 2598.95 201.762 6
-8 -4 -3 4889.48 264.814 6
-8 -4 -4 6111.85 262.095 6
8 5 -7 19735.4 483.027 15
8 5 -6 14193.5 433.895 15
-8 -5 6 15052.6 419.579 8
8 5 -5 751.19 98.5539 15
-8 -5 5 768.649 104.004 8
-8 -5 5 628.659 97.6971 13
-8 -5 4 12132.1 454.8 8
-8 -5 4 11849.5 463.958 13
-8 -5 3 16855.8 564.364 8
-8 -5 3 15403.8 561.515 13
-8 -5 2 130.977 63.0683 8
-8 -5 2 218.915 78.8239 13
-8 -5 1 78685.9 1536.61 8
-8 -5 1 77983.1 1575.33 13
-8 -5 0 1033.64 126.499 8
-8 -5 0 1080.6 138.194 13
-8 -5 -1 202.002 54.4038 8
-8 -5 -1 203.124 63.8328 13
-8 -5 -2 1545.1 128.886 6
-8 -6 5 335.87 58.5335 8
-8 -6 5 342.239 61.4065 13
-8 -6 4 1218.99 122.723 8
-8 -6 4 1218.55 123.747 13
-8 -6 3 1009.21 115.316 8
-8 -6 3 728.858 102.118 13
-8 -6 2 1125.05 122.053 8
-8 -6 2 1143.02 123.126 13
-8 -6 1 1289.57 126.206 8
-8 -6 1 1095 115.537 13
-8 -6 0 1039.44 107.939 8
-8 -6 0 1010.52 101.202 13
-8 -7 4 19626.6 464.091 13
-8 -7 3 2730.55 148.825 8
-8 -7 3 2431.33 144.29 13
-8 -7 2 8254.79 274.032 8
-8 -7 2 7489.21 255.143 13
-9 7 1 1985.9 131.461 10
-9 7 0 13129.6 390.99 10
-9 7 -1 12694.5 394.559 10
-9 7 -2 259.299 60.2331 10
-9 7 -3 186.137 48.7272 10
-9 6 3 2304.68 143.011 8
-9 6 3 2378.98 148.902 10
-9 6 2 1629.03 127.559 8
-9 6 2 1950.5 154.134 10
-9 6 1 365.213 77.585 10
-9 6 0 5476.98 291.306 10
-9 6 -1 765.03 109.931 10
-9 6 -2 10451.2 354.967 13
-9 6 -2 12843.6 454.228 10
-9 6 -3 5449.77 250.462 13
-9 6 -3 6075.5 293.085 10
-9 6 -4 108.96 49.1441 10
-9 6 -4 26.9974 37.9634 13
-9 5 4 1772.24 138.275 8
-9 5 4 1663.23 133.911 10
-9 5 3 45.4744 37.9319 10
-9 5 3 -13.8586 28.7139 8
-9 5 2 5280.19 276.463 8
-9 5 2 5690.74 307.979 10
-9 5 1 867.87 129.242 10
-9 5 1 735.93 101.05 8
-9 5 0 5070.51 316.038 10
-9 5 -1 17354 526.453 13
-9 5 -1 21302.5 682.288 10
-9 5 -2 531.333 108.64 10
-9 5 -2 416.372 85.4898 13
-9 5 -3 8963.18 369.729 13
-9 5 -3 9661.82 423.797 10
-9 5 -4 1512.24 142.585 13
-9 5 -4 1472.47 150.604 10
-9 5 -5 52.8126 30.5249 10
-9 5 -5 31.1727 35.3948 13
-9 4 5 2584.17 170.168 10
-9 4 5 2470.76 166.662 8
-9 4 4 574.445 103.419 10
-9 4 4 545.992 91.901 8
-9 4 3 442.809 94.763 10
-9 4 3 406.348 77.4395 8
-9 4 2 4424.92 275.431 8
-9 4 2 4466.33 300.486 10
-9 4 1 10304.5 428.153 8
-9 4 1 11424.1 508.273 10
-9 4 0 508.393 115.373 10
-9 4 0 270.835 67.2741 13
-9 4 -1 607.27 128.267 10
-9 4 -1 534.312 100.156 13
-9 4 -2 363.108 105.821 10
-9 4 -2 497.441 98.9599 13
-9 4 -3 2080.16 194.709 13
-9 4 -3 2206.95 213.135 10
-9 4 -4 27.1811 40.3898 10
-9 4 -4 -2.2573 35.8884 13
-9 4 -5 14041.5 443.399 13
-9 4 -5 11368.6 374.907 10
-9 3 6 1372 119.258 10
-9 3 6 1676.3 130.516 8
-9 3 5 2099.89 178.774 10
-9 3 5 2348.26 181.658 8
-9 3 4 861.079 131.019 10
-9 3 4 618.708 105.93 8
-9 3 3 153.459 79.7992 10
-9 3 3 112.451 51.97 8
-9 3 2 556.545 118.055 10
-9 3 2 501.484 101.986 8
-9 3 1 149.519 81.4134 10
-9 3 1 61.6777 59.0678 8
-9 3 0 6238.74 327.48 8
-9 3 0 6278.49 338.414 13
-9 3 -1 97344.6 1855.91 13
-9 3 -1 97204.7 2008.59 10
-9 3 -2 19166.4 651.629 13
-9 3 -2 19178.7 700.671 10
-9 3 -3 4874.45 308.258 13
-9 3 -3 4623.9 303.117 10
-9 3 -4 104.187 53.0777 13
-9 3 -5 8660.61 357.513 13
-9 2 6 76.7166 33.8204 8
-9 2 5 40375.2 941.898 8
-9 2 4 802.657 124.468 8
-9 2 3 3462.64 281.369 10
-9 2 3 3468.31 260.378 8
-9 2 2 6743.44 406.132 10
-9 2 2 6371.79 358.709 8
-9 2 1 1321.41 188.418 10
-9 2 1 1492.89 170.386 8
-9 2 1 1372.72 156.923 13
-9 2 0 10409.2 463.166 13
-9 2 0 10867.9 524.585 10
-9 2 -1 17002.3 627.461 13
-9 2 -1 16652 645.282 10
-9 2 -2 721.989 128.063 10
-9 2 -2 768.386 131.223 13
-9 2 -3 6360.85 363.566 13
-9 2 -4 67.2056 52.3038 13
-9 2 -5 508.923 89.7157 13
-9 1 6 3789.56 224.344 8
9 -1 -5 2351.41 195.257 15
-9 1 5 2255.15 192.802 8
9 -1 -4 1103.58 137.914 15
-9 1 4 1105.82 146.72 8
-9 1 3 36518.7 1003.54 10
-9 1 3 37684.3 980.96 8
-9 1 2 812.803 142.631 10
-9 1 2 658.671 125.628 8
-9 1 2 895.184 128.914 13
-9 1 1 1533.94 178.666 8
-9 1 1 1725.99 189.721 13
-9 1 1 1899.32 205.388 10
-9 1 0 5523.45 323.953 8
-9 1 0 5653.86 351.399 13
-9 1 -1 4606.79 321.471 13
-9 1 -2 47.5755 48.8467 13
-9 1 -3 2087.76 211.535 13
-9 1 -3 2338.15 221.059 11
-9 1 -4 1702.5 180.466 13
-9 1 -4 2006.55 192.273 11
-9 1 -5 -3.12226 40.5012 13
-9 0 7 540.038 71.8682 8
9 0 -6 6550.03 306.219 15
-9 0 6 6188.8 294.483 8
9 0 -5 11323.5 446.48 15
-9 0 5 12043.4 462.542 8
9 0 -4 293.58 71.8738 15
-9 0 4 563.089 104.452 8
-9 0 3 6092.87 340.969 10
-9 0 3 6342.88 357.54 8
-9 0 3 6145.72 319.37 13
-9 0 2 195.35 74.8891 8
-9 0 2 233.5 76.832 13
-9 0 1 26157.5 787.289 8
-9 0 1 26226.5 810.328 13
-9 0 0 1148.31 151.177 8
-9 0 0 1580.83 194.098 13
-9 0 -1 0.28855 69.6905 13
-9 0 -2 1107.24 160.869 13
-9 0 -2 853.436 136.871 11
-9 0 -3 3987.12 288.374 13
-9 0 -3 3800.43 265.92 11
-9 0 -4 6239.25 332.771 13
-9 0 -4 6916.44 337.944 11
-9 0 -5 495.576 86.4524 11
9 1 -7 727.385 86.1551 15
9 1 -6 9718.38 374.82 15
-9 -1 6 9269.45 362.966 8
9 1 -5 342.423 75.589 15
-9 -1 5 409.076 88.7821 8
-9 -1 4 1610.21 173.206 8
-9 -1 3 51174.6 1171.32 8
-9 -1 3 46914.9 1099.66 13
-9 -1 2 3015.44 244.252 8
-9 -1 2 2775.28 238.054 13
-9 -1 1 19739.3 664.899 8
-9 -1 1 20671.7 714.415 13
-9 -1 0 777.342 121.278 8
-9 -1 0 677.975 131.557 13
-9 -1 -1 203.554 80.2756 13
-9 -1 -2 22565.1 760.135 13
-9 -1 -2 22374.3 685.466 11
-9 -1 -3 7546.02 389.935 13
-9 -1 -3 7944.48 365.053 11
-9 -1 -4 444.853 87.6657 13
-9 -1 -4 561.413 93.7813 11
-9 -1 -5 4473.38 210.435 11
9 2 -7 3134.89 171.143 15
9 2 -6 1136.59 118.842 15
-9 -2 6 1043.91 113.648 8
9 2 -5 2745.15 195.088 15
-9 -2 5 2682.28 201.664 8
-9 -2 4 11884.1 470.76 8
-9 -2 4 11755.9 435.009 13
-9 -2 3 899.279 129.829 8
-9 -2 3 851.858 128.53 13
-9 -2 2 918.416 132.89 8
-9 -2 2 772.79 130.988 13
-9 -2 1 1396.43 163.229 8
-9 -2 1 1315.54 173.125 13
-9 -2 0 2982.89 229.404 8
-9 -2 0 3758.27 294.101 13
-9 -2 -1 21035.4 723.282 13
-9 -2 -2 2088.05 205.807 13
-9 -2 -2 1980.02 172.282 11
-9 -2 -3 3634.28 233.606 13
-9 -2 -3 3017.55 200.701 11
-9 -2 -4 3173.97 176.458 11
9 3 -6 3553.16 191.451 15
-9 -3 6 3278.17 187.076 8
-9 -3 5 15.2087 31.1613 8
-9 -3 4 21239.2 626.745 8
-9 -3 4 19812.3 589.863 13
-9 -3 3 2544.43 206.98 8
-9 -3 3 2380.33 204.743 13
-9 -3 2 13865.1 510.472 8
-9 -3 2 13076.2 522.562 13
-9 -3 1 18469.2 599.001 8
-9 -3 1 18449.1 646.024 13
-9 -3 0 1027.41 126.933 8
-9 -3 0 1023.63 146.113 13
-9 -3 -1 6941.87 363.345 13
-9 -3 -2 13241 464.882 13
-9 -4 5 1186.99 116.072 8
-9 -4 5 1035.66 101.321 13
-9 -4 4 1504.04 140.021 8
-9 -4 4 1325.09 132.802 13
-9 -4 3 3630.83 229.684 8
-9 -4 3 3213.51 222.372 13
-9 -4 2 15620.8 513.262 8
-9 -4 2 15010.6 525.533 13
-9 -4 1 1122.77 126.853 8
-9 -4 1 1138.31 137.434 13
-9 -4 0 293.531 68.318 8
-9 -4 0 421.129 88.2744 13
-9 -4 -1 88.3252 39.2523 13
-9 -5 5 856.314 82.7875 8
-9 -5 4 4096.43 205.821 8
-9 -5 4 3654.38 193.038 13
-9 -5 3 9332.79 338.359 8
-9 -5 3 9199.22 341.222 13
-9 -5 2 6130.55 268.636 8
-9 -5 2 5739.78 269.555 13
-9 -5 1 6597.32 271.479 8
-9 -5 1 6583.95 279.486 13
-9 -5 0 5622.27 221.737 8
-9 -5 0 5509.72 230.29 13
-10 5 2 2669.47 164.483 10
-10 5 1 2690.79 173.349 10
-10 5 0 2024.63 158.054 10
-10 5 -1 230.115 58.6289 10
-10 5 -2 2144.33 152.915 10
-10 4 3 9775.27 330.124 8
-10 4 3 10806.6 358.078 10
-10 4 2 122.911 51.9227 10
-10 4 2 151.563 52.0941 8
-10 4 1 3290.86 216.398 10
-10 4 0 10066.9 399.073 10
-10 4 -1 1360.79 122.977 13
-10 4 -1 1525.84 151.41 10
-10 4 -2 105.379 52.438 10
-10 4 -2 187.499 57.9791 13
-10 4 -3 6.39503 30.0231 13
-10 3 4 3476.36 191.188 8
-10 3 4 3016.18 181.278 10
-10 3 3 4655.49 242.453 8
-10 3 3 4624.33 247.612 10
-10 3 2 447.854 81.9647 10
-10 3 2 446.35 78.6373 8
-10 3 1 1445.35 135.501 8
-10 3 1 1795.29 169.457 10
-10 3 0 6251.71 279.079 13
-10 3 0 6644.49 330.35 10
-10 3 -1 938.944 119.196 10
-10 3 -1 926.224 113.961 13
-10 3 -2 10487.1 387.203 13
-10 3 -3 6298.11 281.338 13
-10 3 -4 1048.05 105.701 13
-10 2 5 223.928 49.0963 10
-10 2 5 300.835 56.624 8
-10 2 4 181.128 51.528 10
-10 2 4 185.437 56.1135 8
-10 2 3 1481.02 145.183 8
-10 2 3 1271.35 132.277 10
-10 2 2 1849.89 163.508 8
-10 2 2 1888.61 168.429 10
-10 2 1 18803.2 559.495 8
-10 2 1 19541.9 543.621 13
-10 2 1 19848 592.608 10
-10 2 0 4927.08 270.989 13
-10 2 0 5298.86 277.053 10
-10 2 -1 5135.9 283.1 13
-10 2 -2 12357.8 447.079 13
-10 2 -3 105.942 49.8471 13
-10 2 -4 1463.17 126.156 13
-10 1 5 1640.34 132.901 8
-10 1 5 1026.78 96.1906 10
-10 1 4 2748.56 189.205 8
-10 1 4 2319.95 161.307 10
-10 1 3 636.394 92.5786 10
-10 1 3 764.087 110.607 8
-10 1 2 21.649 38.3078 8
-10 1 1 685.934 99.7542 8
-10 1 1 632.984 100.005 13
-10 1 0 1807.8 169.074 13
-10 1 -1 2503.76 202.302 13
-10 1 -2 4514.01 266.916 13
-10 1 -3 12589.3 436.283 13
-10 0 5 45.3719 34.0558 8
-10 0 4 1666.53 150.335 8
-10 0 3 14033.1 479.972 8
-10 0 2 175.205 56.8379 8
-10 0 2 189.568 59.262 13
-10 0 1 43.4598 31.3818 8
-10 0 1 56.2629 55.0371 13
-10 0 0 233.932 71.3734 13
-10 0 -1 5447.25 302.583 13
-10 0 -2 9277.92 388.306 13
-10 0 -3 102.75 51.0769 13
-10 -1 5 238.6 52.0643 8
-10 -1 4 2970.63 196.075 8
-10 -1 3 129.679 49.3396 8
-10 -1 3 90.9258 42.255 13
-10 -1 2 1487.96 145.716 8
-10 -1 2 1479.52 144.063 13
-10 -1 1 7039.56 320.846 8
-10 -1 1 7763.3 355.94 13
-10 -1 0 5112.74 251.377 8
-10 -1 0 5545.96 303.548 13
-10 -1 -1 2627.32 204.097 13
-10 -1 -2 3405.52 216.445 13
-10 -2 5 190.338 46.9979 8
-10 -2 4 13.2357 30.5656 8
-10 -2 3 2603.27 182.532 8
-10 -2 3 2462.18 166.967 13
-10 -2 2 634.431 92.4811 8
-10 -2 2 623.391 95.8252 13
-10 -2 1 1254.99 124.824 8
-10 -2 1 1242.46 134.883 13
-10 -2 0 3690.43 196.088 8
-10 -2 0 3931.44 239.298 13
-10 -2 -1 5167.82 262.544 13
-10 -2 -2 3470.29 187.66 13
-10 -3 4 10912 348.597 8
-10 -3 3 544.169 78.8968 8
-10 -3 3 543.207 79.559 13
-10 -3 2 10.3309 32.3167 8
-10 -3 2 55.8107 42.2899 13
-10 -3 1 4182.78 208.156 8
-10 -3 1 4386.35 230.405 13
-10 -3 0 38.1269 32.45 13
-10 -3 -1 1151.63 100.911 13
-10 -4 3 560.517 69.4651 8
-10 -4 2 45564.8 853.677 13
loop_
_exptl_oxdiff_crystal_face_indexfrac_h
_exptl_oxdiff_crystal_face_indexfrac_k
_exptl_oxdiff_crystal_face_indexfrac_l
_exptl_oxdiff_crystal_face_x
_exptl_oxdiff_crystal_face_y
_exptl_oxdiff_crystal_face_z
-5.7068 1.2524 -0.6894 0.6038 0.1782 0.7770
0.6076 -5.9822 1.5339 0.2725 -0.9162 -0.2939
0.5485 5.7407 -0.2301 -0.2847 0.9586 -0.0091
-2.0563 5.4245 -3.0431 -0.2161 0.7251 0.6538
-1.5804 -5.0312 -1.0053 0.2721 -0.9173 0.2908
4.9475 -1.5397 2.7881 -0.3002 -0.0877 -0.9498
4.6813 -0.0895 -3.9595 -0.9565 -0.2840 -0.0668
2.7218 0.6252 -5.5697 -0.8892 -0.2647 0.3732
3.7753 -0.9502 4.2812 -0.0323 0.1126 -0.9931
-3.7931 -0.2762 4.8907 0.9465 0.2814 -0.1581
