#------------------------------------------------------------------------------
#$Date: 2022-01-01 07:13:54 +0200 (Sat, 01 Jan 2022) $
#$Revision: 271676 $
#$URL: file:///home/coder/svn-repositories/cod/cif/1/56/58/1565884.cif $
#------------------------------------------------------------------------------
#
# This file is available in the Crystallography Open Database (COD),
# http://www.crystallography.net/. The original data for this entry
# were provided by IUCr Journals, http://journals.iucr.org/.
#
# The file may be used within the scientific community so long as
# proper attribution is given to the journal article from which the
# data were obtained.
#
data_1565884
loop_
_publ_author_name
'Olejniczak, Anna'
'Katrusiak, Anna'
'Podsiad\/lo, Marcin'
'Katrusiak, Andrzej'
_publ_section_title
;
 Stochastic hydration of a high-nitrogen-content molecular compound
 recrystallized under pressure
;
_journal_issue                   1
_journal_name_full               IUCrJ
_journal_page_first              49
_journal_page_last               54
_journal_paper_doi               10.1107/S2052252521010381
_journal_volume                  9
_journal_year                    2022
_chemical_formula_moiety         'C4 H2 Cl N5'
_chemical_formula_sum            'C4 H2 Cl N5'
_chemical_formula_weight         155.56
_chemical_name_systematic        6-chloro-1,2,3,4-tetrazolo[1,5-b]pyridazine
_space_group_crystal_system      orthorhombic
_space_group_IT_number           62
_space_group_name_Hall           '-P 2ac 2n'
_space_group_name_H-M_alt        'P n m a'
_atom_sites_solution_hydrogens   geom
_atom_sites_solution_primary     direct
_audit_creation_date             2021-06-08
_audit_creation_method
;
Olex2 1.3
(compiled 2020.11.12 svn.r5f609507 for OlexSys, GUI svn.r6272)
;
_cell_angle_alpha                90
_cell_angle_beta                 90
_cell_angle_gamma                90
_cell_formula_units_Z            4
_cell_length_a                   10.668(2)
_cell_length_b                   6.2042(7)
_cell_length_c                   8.780(4)
_cell_measurement_reflns_used    734
_cell_measurement_temperature    296(2)
_cell_measurement_theta_max      23.0650
_cell_measurement_theta_min      4.4200
_cell_volume                     581.1(3)
_computing_cell_refinement       'CrysAlisPro 1.171.40.67a (Rigaku OD, 2019)'
_computing_data_collection       'CrysAlisPro 1.171.40.67a (Rigaku OD, 2019)'
_computing_data_reduction        'CrysAlisPro 1.171.40.67a (Rigaku OD, 2019)'
_computing_molecular_graphics    'Olex2 1.3 (Dolomanov et al., 2009)'
_computing_publication_material  'Olex2 1.3 (Dolomanov et al., 2009)'
_computing_structure_refinement  'SHELXL 2018/3 (Sheldrick, 2015)'
_computing_structure_solution    'SHELXT 2018/2 (Sheldrick, 2018)'
_diffrn_ambient_environment      'diamond-anvil cell'
_diffrn_ambient_pressure         540000
_diffrn_ambient_temperature      296(2)
_diffrn_detector                 'CCD plate'
_diffrn_detector_area_resol_mean 16.2413
_diffrn_detector_type            Eos
_diffrn_measured_fraction_theta_full 0.509
_diffrn_measured_fraction_theta_max 0.456
_diffrn_measurement_details
;
List of Runs (angles in degrees, time in seconds):

  # Type    Start    End  Width  t~exp~   \w     \q     \k     \f   Frames
--------------------------------------------------------------------------
  1  \f    -35.00  19.75   0.75   35.00   0.00 -30.00   0.00    --    73
  2  \f    140.00 200.00   0.75   35.00   0.00 -30.00   0.00    --    80
  3  \f    160.00 217.00   0.75   35.00   0.00  30.00   0.00    --    76
  4  \f    -20.00  34.75   0.75   35.00   0.00  30.00   0.00    --    73
  5  \w    -24.00  24.00   0.75   35.00    --   30.00  39.46 -12.90   64
  6  \w    -24.00  24.00   0.75   35.00    --   30.00  39.46 167.10   64
  7  \w    -50.00  10.00   0.75   35.00    --  -30.00  39.46 167.10   80
  8  \w    -50.00  10.00   0.75   35.00    --  -30.00  39.46 -12.90   80
  9  \w    -64.00  -8.50   0.75   35.00    --  -30.00  81.40 -28.90   74
 10  \w    -64.00  -8.50   0.75   35.00    --  -30.00  81.40 151.10   74
 11  \w    -19.00   8.00   0.75   35.00    --   30.00  81.40 151.10   36
 12  \w    -19.00   8.00   0.75   35.00    --   30.00  81.40 -28.90   36
 13  \w    -43.00 -21.25   0.75   35.00    --   30.00 134.60 -56.90   29
 14  \w    -43.00 -21.25   0.75   35.00    --   30.00 134.60 123.10   29
 15  \w    -90.00 -36.00   0.75   35.00    --  -30.00 134.60 123.10   72
 16  \w    -90.00 -36.00   0.75   35.00    --  -30.00 134.60 -56.90   72
;
_diffrn_measurement_device       'four-circle diffractometer'
_diffrn_measurement_device_type  'KM-4 CCD'
_diffrn_measurement_method
;
HP omega scans - for more details see:
A. Budzianowski, A. Katrusiak in High-Pressure Crystallography
(Eds.: A. Katrusiak, P. F. McMillan),
Dordrecht: Kluwer Acad. Publ., 2004 pp.157-168       
;
_diffrn_orient_matrix_type
'CrysAlisPro convention (1999,Acta A55,543-557)'
_diffrn_orient_matrix_UB_11      0.0333657000
_diffrn_orient_matrix_UB_12      0.0095614000
_diffrn_orient_matrix_UB_13      0.0695271000
_diffrn_orient_matrix_UB_21      -0.0423276000
_diffrn_orient_matrix_UB_22      -0.0729669000
_diffrn_orient_matrix_UB_23      0.0349857000
_diffrn_orient_matrix_UB_31      0.0389363000
_diffrn_orient_matrix_UB_32      -0.0875212000
_diffrn_orient_matrix_UB_33      -0.0215685000
_diffrn_radiation_monochromator  graphite
_diffrn_radiation_probe          x-ray
_diffrn_radiation_type           'Mo K\a'
_diffrn_radiation_wavelength     0.71073
_diffrn_reflns_av_R_equivalents  0.0418
_diffrn_reflns_av_unetI/netI     0.0248
_diffrn_reflns_Laue_measured_fraction_full 0.509
_diffrn_reflns_Laue_measured_fraction_max 0.456
_diffrn_reflns_limit_h_max       12
_diffrn_reflns_limit_h_min       -11
_diffrn_reflns_limit_k_max       7
_diffrn_reflns_limit_k_min       -7
_diffrn_reflns_limit_l_max       6
_diffrn_reflns_limit_l_min       -6
_diffrn_reflns_number            2992
_diffrn_reflns_point_group_measured_fraction_full 0.509
_diffrn_reflns_point_group_measured_fraction_max 0.456
_diffrn_reflns_theta_full        25.242
_diffrn_reflns_theta_max         27.115
_diffrn_reflns_theta_min         4.453
_diffrn_source                   'fine-focus sealed X-ray tube'
_diffrn_source_type              'Enhance (Mo) X-ray Source'
_exptl_absorpt_coefficient_mu    0.567
_exptl_absorpt_correction_T_max  1.00000
_exptl_absorpt_correction_T_min  0.71010
_exptl_absorpt_correction_type   multi-scan
_exptl_absorpt_process_details
;
CrysAlisPro 1.171.40.67a (Rigaku Oxford Diffraction, 2019)
Empirical absorption correction using spherical harmonics,
 implemented in SCALE3 ABSPACK scaling algorithm.
;
_exptl_crystal_colour            colorless
_exptl_crystal_density_diffrn    1.778
_exptl_crystal_description       plate
_exptl_crystal_F_000             312
_exptl_crystal_size_max          0.40
_exptl_crystal_size_mid          0.25
_exptl_crystal_size_min          0.20
_refine_diff_density_max         0.158
_refine_diff_density_min         -0.133
_refine_diff_density_rms         0.040
_refine_ls_extinction_method     none
_refine_ls_goodness_of_fit_ref   1.082
_refine_ls_hydrogen_treatment    constr
_refine_ls_matrix_type           full
_refine_ls_number_parameters     61
_refine_ls_number_reflns         321
_refine_ls_number_restraints     0
_refine_ls_restrained_S_all      1.082
_refine_ls_R_factor_all          0.0693
_refine_ls_R_factor_gt           0.0382
_refine_ls_shift/su_max          0.000
_refine_ls_shift/su_mean         0.000
_refine_ls_structure_factor_coef Fsqd
_refine_ls_weighting_details
'w=1/[\s^2^(Fo^2^)+(0.0468P)^2^+0.1183P] where P=(Fo^2^+2Fc^2^)/3'
_refine_ls_weighting_scheme      calc
_refine_ls_wR_factor_gt          0.0817
_refine_ls_wR_factor_ref         0.0940
_reflns_Friedel_coverage         0.000
_reflns_number_gt                225
_reflns_number_total             321
_reflns_threshold_expression     'I > 2\s(I)'
_cod_data_source_file            lt5042.cif
_cod_data_source_block           C4H2N5Cl1@0_54GPa_phase_alpha_prim_xH2O
_cod_database_code               1565884
_shelx_shelxl_version_number     2018/3
_chemical_oxdiff_formula         C4H2N5Cl1
_shelx_space_group_comment
;
The symmetry employed for this shelxl refinement is uniquely defined
by the following loop, which should always be used as a source of
symmetry information in preference to the above space-group names.
They are only intended as comments.
;
_reflns_odcompleteness_completeness 44.23
_reflns_odcompleteness_iscentric 1
_reflns_odcompleteness_theta     27.06
_olex2_refinement_description
;
1. Fixed Uiso
 At 1.2 times of:
  All C(H) groups
2.a Aromatic/amide H refined with riding coordinates:
 C7(H7), C8(H8)
;
_shelx_res_file
;
TITL 1a in Pnma #62
    1a.res
    created by SHELXL-2018/3 at 12:07:41 on 29-Jun-2021
REM reset to Pnma #62
CELL 0.71073 10.667961 6.204194 8.780219 90 90 90
ZERR 4 0.002011 0.000689 0.003647 0 0 0
LATT 1
SYMM 0.5-X,-Y,0.5+Z
SYMM 0.5+X,0.5-Y,0.5-Z
SYMM -X,0.5+Y,-Z
SFAC C H Cl N
UNIT 16 8 4 20

L.S. 44
PLAN  5
CONF
BOND
MORE -1
BOND $H
fmap 2 53
acta
REM <olex2.extras>
REM <HklSrc "%.\\1a.hkl">
REM </olex2.extras>

WGHT    0.046800    0.118300
FVAR       7.71369
CL1   3    0.614317    0.750000    0.912271    10.50000    0.08949    0.06862 =
         0.04283    0.00000   -0.00391    0.00000
C6    1    0.626672    0.750000    0.720773    10.50000    0.06680    0.03799 =
         0.00615    0.00000    0.00051    0.00000
C7    1    0.747779    0.750000    0.648457    10.50000    0.02216    0.05476 =
         0.08059    0.00000   -0.00778    0.00000
AFIX  43
H7    2    0.820363    0.750000    0.707122    10.50000   -1.20000
AFIX   0
N6    4    0.535528    0.750000    0.495128    10.50000    0.04288    0.03822 =
         0.01057    0.00000   -0.00310    0.00000
N1    4    0.614479    0.750000    0.265197    10.50000    0.07842    0.05368 =
         0.03985    0.00000   -0.01155    0.00000
N5    4    0.519408    0.750000    0.643059    10.50000    0.03821    0.04155 =
         0.03121    0.00000   -0.00249    0.00000
C8    1    0.755220    0.750000    0.497946    10.50000    0.03995    0.05558 =
         0.05492    0.00000    0.00835    0.00000
AFIX  43
H8    2    0.832933    0.750000    0.449951    10.50000   -1.20000
AFIX   0
N2    4    0.492178    0.750000    0.264109    10.50000    0.07986    0.05286 =
         0.05737    0.00000   -0.01176    0.00000
N3    4    0.437260    0.750000    0.395362    10.50000    0.04423    0.04807 =
         0.09733    0.00000   -0.02166    0.00000
C9    1    0.644655    0.750000    0.411792    10.50000    0.03245    0.03845 =
         0.09230    0.00000    0.00130    0.00000
HKLF 4




REM  1a in Pnma #62
REM wR2 = 0.0940, GooF = S = 1.082, Restrained GooF = 1.082 for all data
REM R1 = 0.0382 for 225 Fo > 4sig(Fo) and 0.0693 for all 321 data
REM 61 parameters refined using 0 restraints

END

WGHT      0.0468      0.1183

REM Highest difference peak  0.158,  deepest hole -0.133,  1-sigma level  0.040
Q1    1   0.6150  0.7500  0.1996  10.50000  0.05    0.16
Q2    1   0.6976  0.7500  0.9345  10.50000  0.05    0.16
Q3    1   0.7015  0.7500  0.2574  10.50000  0.05    0.15
Q4    1   0.5988  0.7500  0.5756  10.50000  0.05    0.15
Q5    1   0.6572  0.7500  0.8378  10.50000  0.05    0.15
;
_shelx_res_checksum              48201
_shelx_hkl_file
;
  -2   0   1 51669.9 949.055   5
  -3   0   1 132036. 1737.46  12
   3   0  -1 125288. 1706.56   9
  -3   0   1 131090. 1552.84   2
  -3   0   1 125874. 1471.18  13
  -3   0   1 132320. 1573.23   4
   3   0  -1 135370. 1620.31   3
   3   0  -1 133059. 1564.09   1
   3   0  -1 131924. 1787.65   8
  -3   0   1 134605. 1804.85   5
  -4   0   1 32258.4 898.188  13
   4   0  -1 32881.7 1025.68   8
   4   0  -1 30499.3 964.215   9
   4   0  -1 31756.5 920.632  15
   4   0  -1 34729.8 920.463   1
  -4   0   1 32658.4 913.761   4
  -4   0   1 32600.5 1031.18   5
   4   0  -1 33344.3 844.191  16
  -4   0   1 31213.1 974.395  12
   4   0  -1 32969.5 923.746   3
  -4   0   1 35320.6 928.852   2
  -5   0   1 37123.0 1207.25  12
   5   0  -1 34357.1 1050.80   1
  -5   0   1 39012.5 1296.48   5
  -5   0   1 37555.8 1095.08   2
  -6   0   1 2141.32 330.749   2
   6   0  -1 1852.45 346.427   9
   6   0  -1 1604.92 282.865   1
   6   0  -1 1613.33 330.314   8
  -6   0   1 1382.02 292.184  12
   6   0  -1 1525.58 262.928  16
  -6   0   1 1373.45 314.281   5
  -2   0   2 10422.7 471.303   4
   2   0  -2 12001.0 514.174   9
   2   0  -2 10690.0 466.389   1
   2   0  -2 11269.8 523.781   8
   2   0  -2 11271.9 480.624   3
  -2   0   2 9979.10 469.910   2
   3   0  -2 45563.9 927.360  16
   3   0  -2 45250.7 1005.71   1
  -3   0   2 43612.7 993.522   2
   3   0  -2 49245.9 1068.83   3
   3   0  -2 45724.9 1150.84   8
   3   0  -2 46176.4 905.003  15
  -3   0   2 46244.6 1152.56   5
  -3   0   2 46810.1 1037.44   4
  -3   0   2 45018.4 891.580  14
   3   0  -2 44350.2 1114.12   9
  -4   0   2 637.708 150.384  13
   4   0  -2 909.660 186.670   3
   4   0  -2 790.501 154.417  16
  -4   0   2 983.759 167.197  14
   4   0  -2 676.646 207.771   8
  -4   0   2 742.666 183.367   2
  -4   0   2 892.497 203.898  12
   4   0  -2 848.076 164.381  15
   4   0  -2 915.648 219.303   9
  -4   0   2 1097.53 202.223   4
   4   0  -2 806.425 188.935   1
  -4   0   2 683.521 193.123   5
   5   0  -2 115181. 1916.60   1
   5   0  -2 120205. 1839.55  15
   5   0  -2 116729. 2228.44   8
   5   0  -2 117422. 2173.77   9
  -5   0   2 117528. 1968.22   4
   5   0  -2 118180. 1804.38  16
   5   0  -2 120448. 2009.78   3
  -5   0   2 110234. 2177.62   5
  -5   0   2 121743. 1914.45  13
  -5   0   2 117228. 2161.55  12
  -5   0   2 118744. 1944.12   2
   6   0  -2 10282.2 596.762  16
   6   0  -2 9581.92 719.332   8
   6   0  -2 9789.74 636.161   1
  -6   0   2 10649.0 647.915  13
  -6   0   2 9793.81 739.671   5
   6   0  -2 10062.1 646.319   3
   6   0  -2 9234.37 683.628   9
  -6   0   2 9813.45 638.158   4
  -6   0   2 9374.07 616.642   2
  -6   0   2 9331.69 678.810  12
   6   0  -2 10334.5 673.305  15
   7   0  -2 15844.3 890.023   3
   7   0  -2 16331.0 872.950   1
  -7   0   2 15595.3 954.953  12
  -7   0   2 14579.6 948.496   5
  -7   0   2 15362.4 842.461   2
   7   0  -2 14200.7 915.768   9
   7   0  -2 14376.5 961.109   8
   8   0  -2 1817.73 466.351   8
  -8   0   2 1637.94 446.464   5
  -8   0   2 1727.15 333.727   2
  -8   0   2 2015.82 441.591  12
   8   0  -2 1617.28 412.079   9
  -9   0   2 1333.08 496.743   5
   9   0  -2 790.858 451.766   8
   9   0  -2 385.300 379.464   9
  -3   0   3 28.7609 132.160   4
   3   0  -3-98.3447 94.4243  15
   3   0  -3 97.3097 128.249   3
  -3   0   3-186.116 175.052   5
   3   0  -3-107.338 164.189   8
   3   0  -3-93.2485 139.163   9
   4   0  -3 34991.5 1008.22  16
   4   0  -3 34571.1 751.198   6
   4   0  -3 33704.7 1047.62   1
  -4   0   3 34965.8 1080.01   4
  -4   0   3 32109.6 1074.91   2
   4   0  -3 33365.8 1155.23   9
   4   0  -3 36982.9 972.372  15
   4   0  -3 34325.3 1097.52   3
   4   0  -3 34152.2 1209.97   8
  -4   0   3 33993.3 1197.03   5
   5   0  -3 760.508 274.482   8
   5   0  -3 390.800 229.469   9
  -5   0   3 254.320 183.618   2
   5   0  -3 306.063 158.263  16
  -5   0   3 495.533 160.938  14
  -5   0   3 400.897 207.410   4
  -5   0   3 64.5886 221.251   5
   5   0  -3 101.822 199.337   3
   5   0  -3 527.055 182.821   1
   5   0  -3 484.560 180.450  15
   6   0  -3 5705.41 461.329  16
   6   0  -3 5165.60 577.691   8
   6   0  -3 5749.75 579.849   9
  -6   0   3 5688.38 508.750   4
  -6   0   3 5220.47 568.534  12
  -6   0   3 5360.48 596.539   5
   6   0  -3 5878.83 528.474   3
   6   0  -3 5695.31 513.978   1
  -6   0   3 5158.36 496.156   2
   7   0  -3 489.226 286.728   8
   7   0  -3 587.728 258.136   1
  -7   0   3 436.141 328.353  12
  -7   0   3 787.097 316.749   2
  -7   0   3 1103.03 368.123   5
   7   0  -3 475.032 264.227   9
   7   0  -3 241.733 200.144   3
  -7   0   3 692.309 280.753   4
  -8   0   3 6562.15 753.298   5
   8   0  -3 6279.22 711.782   8
  -8   0   3 6108.46 680.718  12
   8   0  -3 6793.56 734.739   9
   9   0  -3 1758.99 470.404   8
   9   0  -3 1443.72 460.905   9
  -9   0   3 1535.66 517.638  12
  -9   0   3 712.704 362.830   5
 -10   0   3 368.932 434.070   5
  10   0  -3 703.700 474.811   9
  10   0  -3 427.643 423.217   8
 -10   0   3-82.8774 352.501  12
  -4   0   4 7861.50 638.583   5
  -4   0   4 7008.63 574.851   4
   4   0  -4 7906.27 521.270  15
   4   0  -4 7091.46 564.678   3
   4   0  -4 7813.03 644.579   8
   5   0  -4 5906.24 593.332   9
  -5   0   4 5180.74 512.481   4
  -5   0   4 5423.86 631.904   5
   5   0  -4 5921.69 569.579   3
   5   0  -4 4251.44 506.026   8
  -6   0   4 1370.53 353.941   4
   6   0  -4 680.076 302.203   8
   6   0  -4 846.004 255.541   1
  -6   0   4 1266.45 342.107   2
   6   0  -4 1419.00 380.333   9
   6   0  -4 1394.25 336.366   3
  -6   0   4 1362.82 403.662   5
  -7   0   4 3473.22 563.913   5
  -7   0   4 4431.86 557.218   2
   7   0  -4 4484.04 538.293   3
  -7   0   4 4401.89 582.895  12
   7   0  -4 4456.89 621.016   8
   7   0  -4 4055.03 570.331   9
   8   0  -4-1956.16 550.833   8
  -8   0   4 9187.90 977.297  12
   9   0  -4 6599.66 814.413   8
   9   0  -4 6608.57 800.790   9
  -9   0   4 5550.06 790.098  12
  -9   0   4 6112.03 790.154   5
 -10   0   4-124.276 390.908   5
  10   0  -4 712.045 455.093   8
  10   0  -4 2.18728 401.208   9
 -10   0   4 450.327 430.346  12
 -11   0   4 1489.67 560.974   5
 -11   0   4 307.985 398.460  12
  11   0  -4 253.570 489.187   9
  11   0  -4 1352.27 632.628   8
  12   0  -4 1057.03 789.473   9
  -6   0   5 5301.85 707.233   5
   6   0  -5 5278.38 649.197   9
  -6   0   5 5725.24 637.602   4
   6   0  -5 4565.47 562.608   3
   6   0  -5 5343.82 675.507   8
  -7   0   5 3166.97 592.093   5
   7   0  -5 2703.92 541.751   8
   7   0  -5 2756.73 538.966   9
  -8   0   5 1131.61 484.972  12
   8   0  -5 2107.40 541.472   8
  -8   0   5 2503.96 605.271   5
   8   0  -5 1968.81 484.565   9
  -9   0   5 2909.02 675.110  12
  -9   0   5 4937.25 742.516   5
   9   0  -5 3979.56 681.034   9
   9   0  -5 4749.76 729.544   8
 -10   0   5 43.2178 398.006   5
  10   0  -5 102.563 413.103   8
  10   0  -5 669.538 411.280   9
 -10   0   5 369.554 466.929  12
 -11   0   5 418.376 447.214  12
  11   0  -5 481.450 498.440   8
  11   0  -5-200.182 452.507   9
 -11   0   5 325.501 478.417   5
  -8   0   6 1590.08 617.913  12
  -8   0   6 1232.58 542.676   5
   8   0  -6 2171.44 521.922   8
  -9   0   6 17.5938 447.999  12
   9   0  -6 832.357 458.905   9
  -9   0   6 549.047 457.263   5
   9   0  -6-401.877 498.336   8
  10   0  -6 2998.17 671.495   9
 -10   0   6 2488.93 713.390  12
  10   0  -6 3518.22 724.057   8
 -10   0   6 2734.13 714.002   5
 -11   0   6 163.707 493.474  12
  11   0  -6-219.731 563.133   9
  11   0  -6 336.680 454.926   8
   2   1   0 712299. 3878.52   3
  -2  -1   0 697002. 3766.99   4
  -2   1   0 689914. 3777.40  13
  -3   1   0-79.0342 92.9995  12
   3  -1   0 79.3387 97.6761  16
   3  -1   0 13.7439 103.460  15
   3  -1   0 26.5379 83.8086   9
  -3   1   0 6.02341 95.8086  13
   4  -1   0 6538.42 467.049   9
  -4   1   0 7977.65 515.311  12
   1   1  -1 20023.6 554.297   6
   1  -1  -1 20172.7 582.462  15
   1  -1  -1 20134.8 597.241  16
  -1  -1   1 20450.1 594.510   4
  -1   1   1 19030.2 564.012  14
   1   1  -1 20069.5 596.216   3
  -2  -1   1 35944.5 805.514   7
   2   1  -1 37279.0 868.648   8
   2   1  -1 36897.2 894.108   1
  -2  -1   1 37631.1 865.610   5
  -2  -1   1 36257.6 887.267   2
   2   1  -1 36858.1 806.428   6
   2  -1  -1 34855.5 842.798  15
   2  -1  -1 36571.7 881.566  16
   2  -1  -1 35780.6 862.994   9
   2   1  -1 37389.8 920.557   3
  -2  -1   1 36239.8 886.364   4
  -3  -1   1 120303. 1818.91   5
   3   1  -1 112048. 1743.17   8
  -3  -1   1 117126. 1490.07  12
   3   1  -1 117186. 1762.29   1
  -3   1   1 113189. 1763.80  12
   3  -1  -1 119252. 1729.62  15
   3  -1  -1 115306. 1749.79  16
   3  -1  -1 115742. 1574.85   8
  -3   1   1 118127. 1757.08  13
   3   1  -1 118102. 1567.33   6
  -3   1   1 113253. 1558.58   5
   3   1  -1 112249. 1791.91   3
  -3  -1   1 115239. 1774.83   4
   3  -1  -1 119244. 1793.37   9
   3   1  -1 119208. 1517.54   9
  -3  -1   1 116315. 1542.11   7
  -3  -1   1 114724. 1778.74   2
   4  -1  -1 723.008 207.561   9
  -4  -1   1 750.536 216.870   5
   4  -1  -1 754.285 169.498   8
  -4  -1   1 531.651 126.431  12
   4   1  -1 807.092 205.942   3
   4  -1  -1 740.420 201.714  16
   4   1  -1 732.621 165.495   6
   4   1  -1 899.972 190.370   9
  -4  -1   1 722.113 198.951   2
  -4  -1   1 683.475 158.266   7
   4   1  -1 536.753 184.474   8
   4  -1  -1 943.159 201.577  15
  -4   1   1 898.108 231.581  12
  -4   1   1 766.082 193.294  13
   4   1  -1 691.809 187.733   1
  -4   1   1 769.238 254.589   5
  -4  -1   1 809.390 219.395   4
   5   1  -1 27433.6 1045.20   1
   5  -1  -1 27230.7 1042.27   9
   5   1  -1 27683.8 1113.96   8
   5  -1  -1 27218.4 989.294  16
  -5   1   1 27980.4 782.108   2
  -5  -1   1 25500.6 1018.82   2
  -5  -1   1 27251.5 1118.84   5
  -5  -1   1 28401.7 899.755   7
   5   1  -1 26942.5 1057.98   3
   5  -1  -1 26151.3 1036.66  15
  -5  -1   1 26419.8 1046.40   4
   5  -1  -1 25027.8 945.317   8
   5  -1  -1 27348.6 768.984   1
  -5   1   1 27028.9 1013.93   5
   5   1  -1 27324.3 985.684   9
  -5   1   1 27571.8 1055.12  13
  -5   1   1 26238.2 1062.26  12
   6  -1  -1 3372.27 431.347   9
   6  -1  -1 2786.33 305.097   1
   6   1  -1 3859.48 489.297   1
  -6  -1   1 3016.35 425.755   2
  -6  -1   1 3090.06 467.905   5
   6   1  -1 3637.64 499.926   8
   6  -1  -1 3009.42 397.822   8
  -6   1   1 2946.42 304.748   2
  -6   1   1 3100.75 431.440  12
   6  -1  -1 3716.09 434.533  16
  -6   1   1 3133.24 414.748   5
   6   1  -1 3026.74 414.043   9
  -6  -1   1 3393.35 353.861   7
   7  -1  -1 9148.33 761.322   9
   7  -1  -1 9128.12 755.662   8
   7  -1  -1 8104.17 648.614  16
  -7   1   1 7272.86 689.004  12
   1   1  -2 104341. 1611.13   3
   1   1  -2 103981. 1545.06   1
  -1  -1   2 103263. 1689.04   4
  -1  -1   2 100836. 1636.87   2
   2   1  -2-29.6544 112.014   3
   2   1  -2 184.321 107.807   6
   2  -1  -2 44.4523 94.1624   9
  -2  -1   2 15.2960 117.602   5
  -2  -1   2 94.7355 94.9591   2
   2   1  -2-8.06406 96.0822   8
   2  -1  -2 112.728 94.4138  15
   2   1  -2-52.9655 116.335   1
   2  -1  -2 138.745 113.848  16
  -2   1   2 64.8417 96.7567  14
  -2  -1   2 81.1269 104.392   4
   2   1  -2 55.2126 62.8255   9
  -2  -1   2 80.5113 98.5082   7
   3   1  -2 64269.9 1216.18   9
  -3  -1   2 65427.6 1435.37   4
  -3  -1   2 69387.4 1281.46   7
   3   1  -2 67811.9 1453.97   8
   3   1  -2 62722.9 1386.58   1
  -3   1   2 67277.5 1360.81  14
  -3  -1   2 69895.9 1473.90   2
   3   1  -2 66191.4 1217.23   6
   3  -1  -2 67531.9 1473.79   9
   3  -1  -2 67860.9 1373.75  15
   3  -1  -2 67831.9 1418.44  16
  -3   1   2 67112.8 1341.63   5
   3   1  -2 60151.8 1408.95   3
   3  -1  -2 66058.5 1322.83   8
  -3   1   2 65019.8 1111.81  11
  -3  -1   2 67129.9 1456.66   5
  -4  -1   2 5271.92 462.426   5
  -4  -1   2 5566.22 408.158  12
   4  -1  -2 5665.83 452.972  16
   4   1  -2 5495.17 414.954   9
  -4  -1   2 5516.40 384.694   7
  -4   1   2 5618.50 440.626  14
  -4   1   2 5788.35 331.109   4
   4  -1  -2 5032.51 459.763   9
   4   1  -2 5655.16 496.396   3
  -4  -1   2 5174.34 455.076   2
   4  -1  -2 5375.06 327.482   1
  -4  -1   2 5216.52 450.237   4
   4   1  -2 6107.08 395.575   6
  -4   1   2 5648.24 335.912   2
  -4   1   2 5690.52 326.756  11
   4   1  -2 5060.77 459.925   8
   4  -1  -2 5745.48 320.290  10
   4  -1  -2 5451.74 426.530   8
   4   1  -2 5307.17 465.260   1
   4  -1  -2 5676.14 438.965  15
  -4   1   2 5687.03 456.591   5
   4  -1  -2 5911.06 342.978   3
  -5  -1   2 65030.4 1528.83  12
   5   1  -2 65777.7 1369.33   6
  -5   1   2 64413.0 1706.01  12
  -5   1   2 64812.2 1255.82   4
  -5   1   2 65874.5 1242.69   2
   5  -1  -2 65840.0 1580.86  15
   5   1  -2 65137.8 1653.15   1
   5   1  -2 65111.9 1535.25   9
  -5  -1   2 63831.1 1695.04   5
  -5   1   2 65264.8 1593.36  13
   5  -1  -2 67116.6 1626.45   8
   5  -1  -2 64741.8 1269.96  10
  -5   1   2 62723.0 1581.45   5
   5  -1  -2 66593.3 1604.60  16
   5  -1  -2 66141.4 1729.46   9
  -5  -1   2 67307.9 1354.26   7
  -5  -1   2 63355.5 1601.43   2
   5   1  -2 67517.8 1700.81   3
   5  -1  -2 65334.1 1228.43   1
  -5  -1   2 64739.6 1652.56   4
   5   1  -2 64133.2 1729.92   8
   5  -1  -2 63663.7 1259.85   3
   6  -1  -2 5892.96 562.586   8
  -6   1   2 5259.30 568.248  12
   6  -1  -2 5481.57 510.955  15
   6   1  -2 4871.25 529.802   3
  -6  -1   2 5228.38 510.149  12
  -6   1   2 4901.97 525.627   5
   6   1  -2 5065.74 559.445   8
  -6   1   2 5631.56 539.281  13
   6   1  -2 5809.26 548.620   1
   6   1  -2 4882.52 501.162   9
   6  -1  -2 5298.28 556.068   9
  -6  -1   2 5140.33 537.258   4
   6  -1  -2 5410.20 520.389  16
  -6  -1   2 5638.37 581.841   5
  -6  -1   2 5187.45 523.070   2
  -7   1   2 182.350 265.134   5
   7  -1  -2 246.188 235.355  15
   7  -1  -2-66.8609 241.073   9
   7  -1  -2 98.1019 220.489  16
   7   1  -2-103.940 253.709   1
   7   1  -2 305.965 286.269   8
   7  -1  -2 166.221 264.001   8
   7   1  -2-259.708 269.973   9
  -7  -1   2-29.9646 247.808   2
  -7   1   2 183.097 210.185  13
  -7  -1   2 116.942 279.377   5
  -7  -1   2 387.649 279.848  12
  -7   1   2 226.294 254.054  12
   7   1  -2-116.206 208.065   3
  -7  -1   2 202.949 238.937   4
  -8   1   2 4297.31 566.317   5
   8  -1  -2 4263.16 576.720   8
  -8  -1   2 4325.03 562.465   2
   8  -1  -2 4377.86 531.960  16
   8   1  -2 5445.81 723.569   8
  -8   1   2 5109.19 620.813  12
   8   1  -2 4941.83 626.326   1
  -8  -1   2 4383.50 606.545   5
   8  -1  -2 3778.13 584.679   9
   8   1  -2 5764.62 670.840   9
   9  -1  -2 480.199 368.765   9
  -9   1   2 288.556 357.504  12
   9  -1  -2-333.992 322.871   8
   3   1  -3 604.357 151.678   6
   3   1  -3 453.988 186.235   3
   3  -1  -3 568.718 170.618  15
  -3  -1   3 706.405 222.864   5
  -3  -1   3 629.654 230.110   4
   3  -1  -3 1081.42 238.001   9
  -3  -1   3 293.541 167.096   2
   3  -1  -3 663.990 175.334  16
   3   1  -3 295.372 141.717   1
   3   1  -3 588.917 198.304   8
  -3   1   3 438.647 175.693   5
   4  -1  -3 2059.21 265.954   3
  -4   1   3 1616.91 265.192  14
   4   1  -3 1512.42 253.818   9
  -4  -1   3 1749.72 349.644   5
   4  -1  -3 1591.06 304.025   9
   4   1  -3 1198.87 285.912   3
   4   1  -3 1213.31 265.554   1
   4   1  -3 1739.50 326.304   8
  -4   1   3 1932.00 243.242   4
   4  -1  -3 1709.45 196.858  10
  -4  -1   3 1556.15 281.105   7
   4  -1  -3 1547.16 262.304   8
  -4   1   3 1665.45 282.976   5
  -4  -1   3 1360.45 293.276   2
   4  -1  -3 1371.10 258.303  15
  -4  -1   3 1752.33 315.747   4
   4  -1  -3 1776.04 292.669  16
   4   1  -3 1559.39 228.177   6
   5   1  -3 8646.82 517.921   6
  -5   1   3 7803.75 527.085   2
   5   1  -3 7461.37 618.010   1
  -5   1   3 8374.49 646.643   5
   5  -1  -3 7490.66 586.195  16
   5   1  -3 8639.66 673.676   8
   5  -1  -3 8182.23 632.042   8
  -5  -1   3 7339.56 620.614   4
  -5   1   3 7486.45 567.889  14
   5  -1  -3 8244.31 585.572  15
  -5  -1   3 8006.92 542.411   7
  -5  -1   3 7925.22 645.052   2
   5   1  -3 7143.49 570.015   9
  -5  -1   3 7913.70 602.737  12
   5   1  -3 8062.62 654.182   3
   5  -1  -3 7902.05 655.369   9
   5  -1  -3 8435.24 506.223   3
  -5  -1   3 7967.16 666.965   5
   6   1  -3 698.532 293.763   3
  -6  -1   3 709.466 296.384   4
   6  -1  -3 673.069 297.108   8
  -6   1   3 980.227 308.005  13
   6   1  -3 441.564 246.504   9
  -6  -1   3 740.407 297.497   2
  -6  -1   3 625.706 298.245   5
   6   1  -3 1214.84 326.851   1
  -6   1   3 554.540 278.035   5
   6  -1  -3 596.972 230.202  16
   6  -1  -3 811.361 299.862   9
  -6  -1   3 1231.83 324.288  12
  -6   1   3 956.538 292.820  14
  -6   1   3 1012.30 342.205  12
   6   1  -3 897.851 363.037   8
   6  -1  -3 976.470 277.922  15
   7  -1  -3 2795.32 502.955   9
  -7  -1   3 2428.60 436.685   4
  -7  -1   3 2798.52 490.657   5
  -7   1   3 2790.80 483.370   5
   7   1  -3 2797.94 472.897   9
  -7   1   3 2402.12 472.135  12
   7   1  -3 3009.19 471.696   1
   7   1  -3 2559.51 494.649   8
  -7  -1   3 2499.18 424.786  12
  -7   1   3 2768.28 431.995  14
  -7   1   3 2880.70 445.627  13
  -7  -1   3 2815.92 486.165   2
   7  -1  -3 2683.16 457.683   8
   7  -1  -3 3011.43 430.580  15
   7  -1  -3 2622.72 401.395  16
   7   1  -3 2604.84 473.640   3
  -8  -1   3 16614.6 1044.87   2
  -8   1   3 16630.1 1129.19  12
   8   1  -3 16167.6 1063.05   3
   8   1  -3 18570.3 1117.72   9
  -8  -1   3 19307.9 1156.04   4
   8  -1  -3 18996.4 1065.82  16
  -8   1   3 17025.4 1097.52   5
   8   1  -3 18751.7 1102.96   1
  -8  -1   3 15365.0 1125.80   5
   8  -1  -3 16233.2 1133.09   9
  -8  -1   3 18185.8 1094.06  12
   8  -1  -3 17468.6 1109.98   8
   8   1  -3 16781.0 1177.15   8
   9  -1  -3 346.286 389.129   9
   9   1  -3-416.785 318.398   1
   9   1  -3-215.110 348.694   9
   9   1  -3-984.001 419.060   3
  -9   1   3 33.3060 379.582  12
  -9  -1   3 222.830 319.094  12
  -9  -1   3-289.882 396.722   5
  -9   1   3-604.291 395.271   5
  -9  -1   3-156.970 354.065   2
   9   1  -3 208.323 371.123   8
   9  -1  -3 724.521 417.695   8
  10   1  -3 7317.13 955.677   8
  10  -1  -3 6114.91 788.922   8
 -10   1   3 5454.73 856.859  12
  10   1  -3 8053.19 925.890   9
 -10  -1   3 7256.68 799.616   2
 -10  -1   3 7283.98 915.548   5
  10  -1  -3 6689.20 892.770   9
 -10   1   3 7004.36 833.350   5
  11  -1  -3-339.269 539.145   9
   4   1  -4 7552.98 642.621   3
  -4   1   4 6669.52 600.267   5
   4  -1  -4 6963.32 550.377  15
  -4  -1   4 6560.65 619.263   2
  -4  -1   4 6679.94 618.423   5
   4   1  -4 7255.95 501.287   6
  -4  -1   4 6487.33 593.467   4
   4  -1  -4 7078.65 634.342   9
   4   1  -4 6363.68 564.527   1
   4   1  -4 7757.07 643.065   8
   5   1  -4 16654.2 945.818   1
   5  -1  -4 16642.8 876.133  15
   5   1  -4 14893.4 879.832   9
  -5  -1   4 16371.8 988.332   2
   5  -1  -4 16178.5 923.483   8
   5   1  -4 13779.2 903.267   3
   5   1  -4 15574.3 980.303   8
   5  -1  -4 14956.0 954.518   9
  -5  -1   4 15953.2 944.400   4
  -5  -1   4 16521.7 1007.91   5
  -5   1   4 16111.4 960.165   5
  -6   1   4 2537.25 394.954  14
   6   1  -4 3003.80 477.420   1
   6  -1  -4 2648.53 487.047   9
  -6  -1   4 2347.83 461.226   5
   6   1  -4 3054.39 463.582   9
  -6  -1   4 2605.88 414.250  12
  -6   1   4 3250.69 513.615   5
   6  -1  -4 2855.10 457.746   8
   6   1  -4 2181.12 437.710   8
  -6  -1   4 3000.48 495.253   4
   6  -1  -4 2155.94 396.741  16
   6  -1  -4 2890.07 404.915  15
   6   1  -4 2249.62 434.081   3
  -6  -1   4 2367.22 463.440   2
   7   1  -4 2183.94 491.011   3
   7   1  -4 1552.70 388.790   1
  -7  -1   4 1435.19 423.112   2
   7   1  -4 1025.42 340.878   9
   7  -1  -4 874.771 386.513   9
  -7  -1   4 2132.83 470.139   5
  -7   1   4 1507.17 433.383   5
  -7  -1   4 989.113 363.736   4
   7  -1  -4 1594.10 432.839   8
   7  -1  -4 1233.01 317.423  16
  -7   1   4 1245.73 413.846  12
  -7  -1   4 1352.68 364.324  12
   7   1  -4 646.184 320.678   8
  -8  -1   4 105.295 359.984   5
  -8   1   4 300.429 333.092   5
   8   1  -4 393.026 321.270   1
  -8  -1   4-112.466 311.534   4
  -8   1   4 504.794 382.974  12
   8   1  -4-20.0912 311.553   3
  -8  -1   4 31.9789 291.931   2
  -8  -1   4 116.048 301.212  12
   8  -1  -4 1027.85 404.996   8
   8   1  -4 682.617 383.533   9
   8  -1  -4 501.806 342.628   9
   8   1  -4 92.2270 357.650   8
   9  -1  -4 2123.28 537.654   8
   9  -1  -4 1542.06 483.502   9
   9   1  -4 2846.63 620.409   8
  -9  -1   4 1590.70 550.647   5
  -9  -1   4 2476.67 543.062  12
  -9   1   4 1577.41 501.174   5
  -9  -1   4 1529.79 440.349   2
  -9   1   4 1584.59 573.086  12
   9   1  -4 2405.02 505.591   9
   9   1  -4 2148.72 522.946   3
  10   1  -4 133.067 448.616   8
 -10   1   4 1335.44 514.439   5
 -10  -1   4 14.0431 429.044   5
  10  -1  -4 104.814 401.245   9
 -10  -1   4-84.5162 364.374  12
  10  -1  -4-158.710 367.021   8
 -10   1   4 406.251 440.168  12
  10   1  -4 1025.55 473.539   9
 -11  -1   4-465.937 571.693   5
  11  -1  -4 1278.62 572.041   9
 -11   1   4 1419.82 592.942  12
  11   1  -4 147.706 500.369   8
 -11   1   4 658.149 536.257   5
  11   1  -4 457.264 431.142   9
  11  -1  -4 250.508 496.880   8
  12  -1  -4 98.9748 543.976   9
  -6  -1   5 1946.94 491.392   5
  -6   1   5 1930.51 456.636   5
   6  -1  -5 1585.86 424.107   9
   6   1  -5 1640.79 452.051   8
   6   1  -5 2462.11 497.087   3
  -6  -1   5 1382.67 416.074   4
  -7  -1   5 8300.99 842.178   2
  -7  -1   5 8388.84 801.697   4
  -7  -1   5 8226.83 860.445   5
   7  -1  -5 7142.53 776.447   8
   7   1  -5 9201.09 842.060   9
  -7  -1   5 8242.22 784.672  12
   7   1  -5 8151.93 865.773   8
   7   1  -5 9722.48 886.596   3
   7   1  -5 7937.28 773.790   1
   7  -1  -5 7958.75 846.572   9
  -7   1   5 7593.84 819.623   5
   8   1  -5 2042.22 567.184   8
  -8   1   5 1008.09 460.053   5
   8  -1  -5 1695.74 503.634   9
   8  -1  -5 3223.94 636.254   8
  -8  -1   5 1760.33 475.455   2
  -8  -1   5 2312.77 518.278   4
  -8  -1   5 2043.07 523.927  12
   8   1  -5 2082.69 504.370   9
   8   1  -5 1783.49 455.168   1
  -8   1   5 1111.18 471.614  12
  -8  -1   5 559.773 386.192   5
   8   1  -5 2957.82 608.784   3
   9   1  -5 1218.26 441.595   9
  -9  -1   5 244.398 400.069   5
  -9   1   5 319.451 438.682   5
  -9  -1   5 781.931 428.292   2
   9   1  -5 1013.09 533.934   8
  -9   1   5 612.260 522.346  12
   9  -1  -5 265.633 395.276   9
  -9  -1   5 239.729 356.147  12
   9  -1  -5 624.414 376.661   8
   9   1  -5 848.499 416.301   3
  10  -1  -5 356.719 389.892   9
 -10   1   5-682.641 533.082   5
 -10   1   5-599.082 634.139  12
 -10  -1   5 752.842 505.271   5
  10  -1  -5 557.809 406.718   8
  10   1  -5-163.069 423.348   8
 -11  -1   5 81.3774 504.446   5
 -11   1   5-60.6630 503.910   5
  11  -1  -5 25.7336 520.815   8
 -11   1   5 315.489 542.580  12
  11  -1  -5 289.843 507.239   9
  11   1  -5 1195.38 638.464   8
  12  -1  -5 1303.44 641.446   8
  -8  -1   6 4719.72 768.892   5
   8   1  -6 6233.21 839.720   3
   8   1  -6 3905.65 704.992   8
  -8  -1   6 4655.40 727.431  12
  -9   1   6 151.962 452.633   5
  -9  -1   6-410.965 505.240   5
   9  -1  -6 580.874 478.908   9
  -9   1   6-133.609 438.709  12
   9   1  -6 185.723 430.858   8
  10  -1  -6 327.742 423.620   8
 -10  -1   6-787.029 690.117   5
  10  -1  -6 1353.98 606.381   9
 -10   1   6 1057.82 502.716   5
 -10   1   6 383.652 540.686  12
  10   1  -6 42.5821 481.929   8
 -11   1   6 640.326 525.337   5
  11  -1  -6 76.0089 526.007   8
  -1  -2   0 11.6641 90.3730   2
   1  -2   0 94.3090 103.197  16
   1   2   0 58.7740 107.326  11
   1  -2   0 55.0619 84.6022   7
  -1  -2   0 119.794 90.0459   4
  -1   2   0-79.7330 102.706   6
   1   2   0-76.6752 116.194   6
  -1  -2   0 58.3276 101.734   7
   1  -2   0 20.5231 99.1268  15
   1   2   0 30.6698 79.7976   1
  -1  -2   0 125.703 125.260  10
   1   2   0-29.6320 81.0086   3
   1  -2   0 44.7802 108.160  10
  -2   2   0 77569.4 1227.60   6
   2  -2   0 80916.9 1314.12   9
  -2  -2   0 79112.7 1506.44   2
  -2  -2   0 75072.2 1491.31   4
   2   2   0 77676.9 1449.86  11
   2  -2   0 76429.3 1523.44  16
   2  -2   0 76006.3 1318.36   7
   2   2   0 76697.7 1531.61   6
  -2   2   0 80216.4 1557.51  13
  -2  -2   0 76812.2 1543.14   7
  -2  -2   0 75049.1 1381.41  10
   2   2   0 79985.6 1538.74   3
   2   2   0 75541.8 1436.88   1
   2  -2   0 77961.0 1497.32  10
  -2   2   0 76280.9 1272.68  12
   2  -2   0 77075.4 1516.23  15
   2   2   0 78130.6 1282.71   8
   3  -2   0-27.2928 121.307  10
   3  -2   0 27.3836 123.051   9
  -3  -2   0 167.455 154.314   2
   3   2   0 95.2402 142.380   6
  -3   2   0 5.35834 146.701  13
   3  -2   0-1.27841 133.485  15
  -3  -2   0 0.80630 124.278   7
   3  -2   0-69.4824 142.719  16
  -3   2   0-160.139 120.551  12
   3   2   0-60.8227 96.3738   1
   3   2   0 139.251 147.599   3
   4  -2   0 3921.60 396.906   9
   4  -2   0 3416.75 437.178  15
  -4   2   0 4364.64 436.533  12
   4  -2   0 3548.67 422.505  16
  -4   2   0 4559.25 474.545  13
   4  -2   0 3906.30 326.219   8
   5  -2   0 21.0782 212.798  15
   5  -2   0-140.540 172.099   9
   5  -2   0-289.421 233.749  16
   0  -2   1-77.5114 82.3242   4
   0   2  -1 41.4231 93.0934   3
   0   2   1 2.32836 85.1001   6
   0  -2  -1-130.760 128.239  10
   0   2   1 8.32007 117.724  11
   0  -2   1-41.2515 85.8851  16
   0  -2  -1-39.6956 91.6229  15
   0  -2   1 75.7215 94.9227   7
   0  -2  -1-9.08066 80.6032  16
   0   2  -1-174.312 101.119   1
   0  -2  -1-127.539 97.0748   7
   0   2  -1 70.2996 75.0377  13
   0   2  -1-153.913 125.341   6
   0  -2   1 74.4042 97.2813  15
   0  -2   1 4.02889 91.0827   2
   0   2   1 101.866 93.2141  14
   0  -2   1 19.8414 88.2528  10
   1  -2  -1 36548.9 862.892   9
  -1   2  -1 34269.7 823.456   3
  -1  -2   1 36207.5 961.103   4
  -1  -2   1 36521.9 946.701   2
   1  -2  -1 37713.0 998.065  10
   1  -2  -1 38743.4 890.002   7
   1  -2   1 33919.0 964.264  15
   1  -2  -1 35608.4 985.682  15
   1   2  -1 37713.4 1022.15   6
  -1  -2   1 35180.2 998.351   7
   1   2  -1 37121.1 996.614   3
   1  -2   1 35304.1 1036.84   7
  -1  -2   1 38192.2 956.384  10
   1  -2   1 35320.9 865.865   4
  -1   2   1 37988.6 1013.88  11
   1  -2   1 35950.0 964.667  16
  -1   2   1 34587.8 854.644   6
  -1   2   1 34743.6 967.419  14
   1  -2  -1 35961.0 996.526  16
  -1   2  -1 35500.1 945.586  13
   1  -2   1 34482.5 1040.59  10
   1   2  -1 36531.3 951.090   1
  -1  -2   1 37617.4 775.506   5
   2   2  -1 26756.1 903.881   6
   2  -2   1 26780.5 1017.84  16
   2  -2  -1 27003.8 860.099  10
  -2   2   1 28057.7 887.414  11
   2   2  -1 26558.1 782.721   8
   2  -2  -1 26598.2 813.654   9
  -2  -2   1 25808.0 904.907   4
  -2  -2   1 25405.4 883.917   2
   2   2  -1 25231.3 889.139   1
  -2  -2   1 26506.4 896.817   7
   2  -2  -1 26507.1 675.317   7
  -2  -2   1 25970.5 771.926  10
   2   2  -1 27016.1 950.012   3
  -2   2   1 26760.6 691.279   6
  -2  -2   1 27147.6 785.298   5
   2  -2  -1 25330.7 898.667  15
   2  -2  -1 27560.0 939.011  16
   2   2  -1 25937.3 761.004  11
  -2   2   1 27766.5 929.933  14
   2  -2   1 25419.8 1015.20  10
   3  -2  -1 66226.7 1453.20   9
   3  -2  -1 67521.9 1099.03   8
   3   2  -1 64632.2 1394.53   8
   3  -2  -1 65709.4 1526.88  15
  -3  -2   1 62898.8 1521.73   2
   3   2  -1 63784.8 1511.47   1
   3  -2  -1 68000.9 1572.04  16
   3   2  -1 62958.5 1447.08   6
   3   2  -1 62293.4 1536.63   3
  -3  -2   1 66868.9 1425.98   5
   3   2  -1 65268.7 1236.69  11
  -3  -2   1 61850.8 1448.19   7
  -3  -2   1 66499.3 1552.01   4
  -3   2   1 67017.3 1453.28  12
  -3  -2   1 66287.9 1211.89  10
  -3   2   1 63851.0 1085.10   5
   3  -2  -1 66597.9 1392.17  10
  -4  -2   1 16079.7 802.161   5
   4   2  -1 16339.6 623.972   9
   4  -2  -1 17213.2 821.548   9
   4   2  -1 15631.9 780.737   8
   4  -2  -1 17320.7 672.356   8
  -4  -2   1 17186.6 868.295   2
  -4  -2   1 15509.1 766.213   7
   4   2  -1 15715.3 809.195   1
  -4   2   1 15554.2 787.798  12
  -4   2   1 16669.9 867.394  13
   4  -2  -1 16791.3 838.254  15
   4  -2  -1 16226.5 829.111  16
   4   2  -1 15314.5 822.829   3
  -4  -2   1 15766.0 844.973   4
  -4  -2   1 17502.1 633.365  10
   4  -2  -1 16531.5 746.498  10
  -4   2   1 16012.6 650.747   5
   4   2  -1 15686.3 772.977   6
   5   2  -1 24296.1 903.580   9
   5  -2  -1 22350.6 1020.91   9
   5   2  -1 23063.9 1059.73   1
  -5   2   1 25092.3 1128.10  13
   5   2  -1 22925.0 1037.79   8
   5  -2  -1 24382.9 906.093   8
  -5  -2   1 24286.1 1122.55   2
  -5  -2   1 22671.5 1080.31   4
  -5   2   1 23056.2 907.834   5
   5   2  -1 22762.7 988.261   6
   5   2  -1 24371.0 1113.76   3
  -5  -2   1 23268.8 986.350   7
  -5   2   1 23097.2 1055.08  12
  -5  -2   1 21743.4 1038.44   5
   5  -2  -1 23060.4 1055.99  16
   5  -2  -1 22735.2 993.161  10
   5  -2  -1 24516.6 1087.85  15
  -6  -2   1 978.039 315.267   5
  -6  -2   1 322.997 246.439   2
   6   2  -1 583.599 286.765   8
   6  -2  -1 744.689 291.198  16
   6  -2  -1 1177.17 321.454   9
   6  -2  -1 965.864 349.223  15
  -6   2   1 866.847 337.479  13
  -6   2   1 1214.23 331.651  12
   6  -2  -1 794.519 261.894   8
   6   2  -1 968.540 315.783   3
   6   2  -1 418.622 259.978   1
   6   2  -1 720.390 261.548   9
  -6  -2   1 1027.62 286.172   7
   7  -2  -1 223.771 285.611  16
   7  -2  -1 309.500 300.815   9
   7  -2  -1 300.999 230.021   8
  -7   2   1 0.42547 263.395  12
   0  -2   2 1408.27 258.048   7
  -1  -2   2 8607.90 545.428   2
   1   2  -2 8829.65 533.313   1
   1   2  -2 9477.57 571.000   3
   1   2  -2 8945.43 543.956   6
  -1  -2   2 8606.02 531.313   4
  -1  -2   2 8536.59 562.081   7
  -1  -2   2 8436.02 532.685  10
   2  -2  -2 4421.44 422.212  16
   2  -2  -2 4459.69 399.899   9
   2   2  -2 4711.04 441.366   3
   2   2  -2 3902.59 354.096   8
  -2  -2   2 4911.07 386.722   5
  -2  -2   2 5057.27 441.380   7
   2  -2  -2 4175.73 289.377   7
   2  -2  -2 4816.39 385.938  10
  -2  -2   2 4461.20 429.653   4
   2   2  -2 4089.75 378.345   6
  -2  -2   2 3784.67 394.178   2
  -2   2   2 3631.59 377.308  14
  -2   2   2 4938.14 419.652  11
   2   2  -2 4389.39 420.859   1
  -2  -2   2 4295.67 343.211  10
   2  -2  -2 4137.85 401.056  15
   3  -2  -2 24979.1 964.070   9
   3   2  -2 24393.9 987.643   1
   3  -2  -2 25055.7 869.811  10
   3   2  -2 24888.4 943.757   6
   3   2  -2 23813.7 910.716   8
  -3  -2   2 25315.3 1015.78   4
   3  -2  -2 24054.2 984.428  15
   3   2  -2 23083.7 662.412   9
  -3  -2   2 25192.7 753.060  10
   3  -2  -2 23368.4 789.188   8
   3  -2  -2 24413.2 999.816  16
  -3   2   2 23896.7 870.148  11
  -3  -2   2 24607.7 676.337  12
  -3   2   2 25091.1 999.490  14
   3   2  -2 25300.6 725.872  11
  -3  -2   2 25869.5 1012.28   2
  -3  -2   2 25088.1 962.998   7
   3   2  -2 24035.8 1009.04   3
  -3   2   2 24419.4 767.542   5
  -3  -2   2 24916.9 935.157   5
   4  -2  -2 323.922 192.996   8
  -4  -2   2 328.501 213.303   4
   4   2  -2 357.025 187.765   6
   4  -2  -2 296.703 209.073   9
  -4  -2   2 419.592 166.658   5
  -4   2   2 459.515 180.473   5
   4   2  -2 477.840 154.679   9
  -4   2   2 84.1115 171.243  14
   4   2  -2 645.775 244.838   8
  -4   2   2 521.911 169.892  11
   4  -2  -2 326.053 202.726  15
   4   2  -2 445.484 205.314   3
   4   2  -2 323.935 181.961   1
  -4  -2   2 300.955 136.282  12
  -4  -2   2 321.153 177.214   7
   4  -2  -2 238.436 141.829  10
   4  -2  -2 274.174 209.391  16
  -4  -2   2 469.000 134.176  10
  -4  -2   2 114.932 190.439   2
   5  -2  -2 70070.4 1881.69   9
  -5   2   2 73192.5 1525.20  11
   5   2  -2 65415.5 1785.78   8
   5  -2  -2 70753.2 1627.66   8
  -5  -2   2 72590.3 1923.99   4
  -5   2   2 71753.6 1902.38  13
   5  -2  -2 72039.5 1562.69  10
  -5  -2   2 71357.8 1712.46   7
  -5  -2   2 65476.6 1804.44   5
   5   2  -2 72990.2 1969.28   3
  -5  -2   2 69977.7 1890.60   2
  -5   2   2 73522.8 1656.15   5
   5  -2  -2 71405.6 1846.00  15
  -5  -2   2 66952.3 1517.70  12
  -5   2   2 69274.8 1868.70  12
   5   2  -2 71858.6 1518.73   9
   5   2  -2 69764.3 1881.66   1
   5  -2  -2 71088.8 1880.16  16
   5   2  -2 70930.0 1705.83   6
   6   2  -2 4934.76 456.672   9
   6  -2  -2 6148.60 622.835   9
   6   2  -2 5290.44 591.557   3
   6   2  -2 5547.64 600.102   8
   6  -2  -2 6132.03 544.936   8
  -6   2   2 6211.08 558.278   5
   6  -2  -2 5311.36 582.935  16
  -6  -2   2 5681.51 632.549   4
  -6  -2   2 5738.32 545.597   7
   6  -2  -2 5851.30 608.835  15
  -6  -2   2 5459.89 611.846   2
  -6   2   2 5558.38 605.639  12
  -6   2   2 5654.20 604.596  13
   6   2  -2 5992.35 540.988   6
  -6  -2   2 5151.15 569.605   5
   6   2  -2 5776.78 618.700   1
   7  -2  -2 7672.12 746.699   9
   7   2  -2 9330.75 844.649   8
  -7  -2   2 10898.6 898.061   4
   7  -2  -2 10670.4 772.207   8
  -7  -2   2 11338.6 888.611   2
  -7  -2   2 9556.64 855.907   5
  -7   2   2 9621.31 811.280  13
   7   2  -2 10039.3 877.585   3
   7   2  -2 9797.96 832.883   1
  -7   2   2 9367.38 822.858  12
  -7   2   2 10510.1 787.296   5
   7  -2  -2 9493.47 780.645  16
   7  -2  -2 9994.37 835.493  15
  -8  -2   2 1564.37 453.272   5
   8  -2  -2 1377.55 411.082  16
   8  -2  -2 1105.77 399.479   9
   8   2  -2 1550.87 490.459   8
   8  -2  -2 944.196 331.414   8
   8  -2  -2 913.380 368.028  15
  -8  -2   2 1255.50 406.350   2
  -8   2   2 1578.72 440.041  13
  -8   2   2 1376.81 369.475   5
  -8   2   2 1317.68 455.843  12
   8   2  -2 953.304 409.557   3
   8   2  -2 1381.67 455.182   1
   9  -2  -2 510.706 392.331   9
  -9   2   2 600.086 410.457  12
   9  -2  -2 301.747 335.376  16
  -2  -2   3 68547.7 1609.57   5
  -2  -2   3 72785.8 1802.17   2
  -2  -2   3 67650.6 1803.36   7
  -2  -2   3 65641.3 1748.33   4
   2   2  -3 70169.2 1681.48   1
   2   2  -3 68180.4 1724.61   3
   2   2  -3 70610.2 1646.26   6
   3  -2  -3-26.7303 168.458  15
   3   2  -3 105.786 191.142   6
   3   2  -3 318.385 248.485   3
  -3  -2   3-223.013 186.144   5
  -3   2   3-4.93312 142.371   5
   3  -2  -3-112.349 185.825  16
  -3  -2   3 128.792 183.185   7
  -3   2   3-76.7832 187.495  14
  -3  -2   3 234.913 239.846   4
   3   2  -3 28.9902 192.145   1
   3  -2  -3 264.861 198.619   9
   3   2  -3 37.1169 163.135   8
   3  -2  -3 65.8938 140.362  10
  -3  -2   3 65.1168 175.026   2
  -4  -2   3 21419.4 994.389   7
   4  -2  -3 21716.1 1045.45   9
   4   2  -3 19496.2 781.750   9
   4   2  -3 20468.2 1003.30   8
  -4  -2   3 20583.4 1033.79   2
  -4  -2   3 21584.5 1048.26   4
  -4  -2   3 22068.3 1035.27   5
   4  -2  -3 20489.7 1012.17  16
   4  -2  -3 20217.2 985.089  15
   4   2  -3 20483.5 1019.71   1
   4   2  -3 19926.1 901.665   6
  -4   2   3 18102.7 939.227  14
   4   2  -3 20807.9 1044.78   3
  -4  -2   3 20745.8 803.423  12
   4  -2  -3 21549.7 841.102  10
  -4   2   3 19577.9 851.837   5
   5   2  -3 167.968 168.884   9
  -5  -2   3 550.383 273.956   5
   5   2  -3 333.965 237.180   3
   5  -2  -3 336.745 275.480   9
  -5   2   3 171.809 224.895   5
   5   2  -3 379.307 305.558   8
   5  -2  -3 98.5141 224.936  16
   5   2  -3 132.911 221.714   1
  -5  -2   3 418.152 290.769   4
  -5  -2   3 21.0131 213.579   7
  -5   2   3 295.207 246.220  14
   5  -2  -3 132.735 178.309   8
  -5  -2   3 449.119 259.061   2
   5  -2  -3 94.5521 201.964  15
   5   2  -3 177.359 191.276   6
   6   2  -3 3471.83 553.924   3
  -6  -2   3 3666.76 534.710   5
  -6   2   3 3357.36 439.774   5
   6  -2  -3 3561.83 524.924   9
   6   2  -3 3363.01 518.797   1
   6   2  -3 3729.09 529.930   8
   6  -2  -3 3740.24 504.951  15
  -6  -2   3 3792.36 536.379   4
  -6  -2   3 3672.84 476.166   7
   6   2  -3 3622.43 455.572   6
   6  -2  -3 3468.83 455.520   8
  -6   2   3 3421.44 500.584  14
  -6  -2   3 3748.23 548.277   2
  -6   2   3 3619.54 517.957  13
   6  -2  -3 3792.78 526.087  16
  -6   2   3 3142.63 538.000  12
  -7  -2   3 571.682 341.532   5
  -7   2   3 301.816 251.665   5
   7  -2  -3 256.031 321.032   9
   7   2  -3 239.799 298.605   8
  -7  -2   3 253.395 315.506   4
   7  -2  -3 537.590 312.726  16
   7   2  -3 581.026 334.011   1
   7  -2  -3 516.273 318.828   8
   7  -2  -3 124.862 258.712  15
  -7   2   3 270.994 351.405  12
  -7   2   3 296.263 289.968  14
  -7  -2   3 34.6522 303.204   2
   7   2  -3-449.110 373.101   3
  -7   2   3 276.471 317.457  13
  -8  -2   3 5125.95 697.784   5
   8   2  -3 4167.74 636.690   1
   8  -2  -3 4799.93 674.148   9
  -8   2   3 3433.55 652.649  12
   8   2  -3 4564.09 665.348   8
   8  -2  -3 5214.23 633.802   8
  -8  -2   3 4683.17 670.382   2
  -8  -2   3 4679.42 663.678   4
  -8   2   3 5060.14 678.276  13
   8  -2  -3 5424.40 664.968  16
  -8   2   3 4609.12 612.827  14
   8   2  -3 5241.76 695.823   3
  -8   2   3 5794.12 686.284   5
   8  -2  -3 5770.24 720.306  15
  -9  -2   3 2409.41 563.605   5
   9   2  -3 1465.97 458.681   1
   9  -2  -3 783.071 424.181   9
  -9   2   3 1226.50 521.377  12
  -9   2   3 1683.56 458.103   5
   9   2  -3 1724.97 483.954   3
   9   2  -3 2004.63 592.411   8
  -9  -2   3 1853.71 553.825   4
   9  -2  -3 1019.63 420.521  15
  -9   2   3 1762.21 495.061  14
   9  -2  -3 712.302 338.714  16
  -9  -2   3 1881.76 534.808   2
  -9   2   3 1653.70 500.099  13
 -10  -2   3-409.719 456.654   5
  10   2  -3-257.660 450.314   1
  10  -2  -3 374.422 445.555   9
 -10   2   3 492.905 456.664  12
  10   2  -3-234.471 540.579   8
 -10  -2   3 219.637 403.265   2
  11  -2  -3-145.843 441.680   9
 -11   2   3 678.822 476.036  12
  -3  -2   4 11288.0 823.784   5
  -3  -2   4 12966.1 907.412   4
  -3  -2   4 12500.7 878.419   2
   3   2  -4 12884.6 857.682   3
   3   2  -4 11164.7 768.665   1
  -4  -2   4 5202.15 603.193   2
   4   2  -4 4811.74 592.605   3
   4   2  -4 4782.05 554.909   8
   4   2  -4 4634.40 542.549   1
  -4  -2   4 4553.91 573.004   4
  -4  -2   4 5123.75 579.056   5
   4  -2  -4 4878.19 541.696  15
   4   2  -4 4625.09 496.670   6
  -5  -2   4 4375.92 592.023   4
   5   2  -4 4988.02 634.247   3
   5   2  -4 3094.46 486.227   8
   5  -2  -4 4081.75 562.413   9
  -5  -2   4 3287.83 498.292   5
  -5   2   4 3528.61 485.604   5
   5   2  -4 3956.11 534.049   1
  -5   2   4 3192.25 476.930  14
   5  -2  -4 3680.62 503.592  15
   5  -2  -4 3861.35 532.666  16
  -5  -2   4 3243.33 533.503   2
  -5  -2   4 4446.23 560.921   7
   5   2  -4 3648.17 464.014   6
   6   2  -4 632.511 359.580   1
   6   2  -4 335.732 351.078   3
  -6  -2   4 297.956 355.088   5
   6  -2  -4 518.420 306.915   9
  -6   2   4 773.081 328.880   5
  -6  -2   4 886.149 417.959   4
   6   2  -4 752.098 388.491   8
  -6  -2   4 476.063 340.391   2
   6  -2  -4 949.293 364.592  16
   6  -2  -4 1104.87 326.260  15
  -6   2   4 683.621 316.594  14
   6  -2  -4 1024.37 330.990   8
   7   2  -4 2916.15 554.221   3
  -7  -2   4 4158.10 657.989   5
  -7   2   4 2975.26 496.212   5
   7  -2  -4 3230.41 594.646   9
   7   2  -4 2958.77 598.323   8
   7  -2  -4 3865.21 562.084  16
  -7   2   4 4232.07 592.215  14
   7  -2  -4 3672.04 541.305   8
   7  -2  -4 3206.83 521.540  15
  -7   2   4 3064.27 545.524  13
  -7   2   4 2175.40 515.964  12
  -7  -2   4 3172.76 579.197   2
   7   2  -4 3587.35 591.333   1
  -7  -2   4 3426.33 586.502   4
  -8   2   4-58.0629 316.771  14
   8  -2  -4-401.479 413.746   9
  -8  -2   4 161.164 371.516   2
   8  -2  -4 138.717 309.797  16
  -8  -2   4 410.501 415.567   4
   8  -2  -4 849.825 445.471   8
   8   2  -4 514.594 369.508   1
  -8   2   4-94.5169 421.208  12
  -8   2   4-530.084 379.249   5
   8   2  -4-859.185 494.564   8
  -8   2   4 76.2178 345.985  13
   8  -2  -4 403.498 307.193  15
   8   2  -4-249.227 377.076   3
  -8  -2   4-29.6456 373.870   5
  -9  -2   4 5195.52 768.459   5
  -9  -2   4 6652.89 826.655   4
   9  -2  -4 6304.98 871.547   9
   9   2  -4 5649.08 848.239   8
  -9   2   4 4080.93 770.553  12
   9   2  -4 5623.54 784.465   3
   9   2  -4 5436.78 783.663   1
  -9  -2   4 4975.27 752.080   2
 -10  -2   4-620.753 542.094   5
  10  -2  -4 171.582 556.626   9
 -10  -2   4 1220.57 515.126   4
  10   2  -4 343.923 465.242   8
  10   2  -4 746.850 476.297   1
 -10  -2   4 131.507 401.690   2
  10   2  -4-682.068 478.166   3
 -11  -2   4 1306.25 652.252   5
  11  -2  -4 938.535 524.303   9
  11   2  -4 1447.27 600.963   8
 -11  -2   4-603.903 499.156   2
 -11   2   4 1241.03 650.379  12
  -5  -2   5 8220.76 856.156   4
  -5  -2   5 7824.66 832.529   2
   5   2  -5 7816.22 814.003   3
   5   2  -5 7887.19 754.617   1
  -5  -2   5 8490.50 883.750   5
  -6  -2   5 3370.04 612.960   2
   6   2  -5 3828.88 603.231   3
  -6  -2   5 3928.93 653.098   5
  -6   2   5 2865.08 522.364   5
   6  -2  -5 3721.93 623.116   9
   6   2  -5 3677.50 569.330   1
   6   2  -5 3327.48 591.031   8
  -6  -2   5 2812.97 544.341   4
   6  -2  -5 3786.68 590.096  15
   7  -2  -5 2300.13 471.024  15
  -7  -2   5 1859.59 529.444   2
   7   2  -5 2546.53 605.322   3
  -7  -2   5 1256.20 500.601   5
  -7   2   5 2344.80 508.065   5
   7  -2  -5 1714.14 470.387   9
   7   2  -5 2500.75 555.822   8
  -7  -2   5 1438.31 458.376   4
   7   2  -5 3728.17 616.508   1
  -8  -2   5 1233.41 446.593   2
   8   2  -5 1098.73 489.897   3
  -8  -2   5 989.502 471.620   5
  -8   2   5 2685.70 598.779   5
   8  -2  -5 1970.04 496.002  16
   8  -2  -5 1727.49 518.847   9
   8   2  -5 1254.75 480.619   8
   8  -2  -5 1258.38 442.386   8
  -8   2   5 1025.26 488.427  12
  -8  -2   5 1451.88 502.774   4
   8   2  -5 1704.65 515.425   1
  -9  -2   5 3543.61 706.570   5
   9  -2  -5 3306.60 710.571   9
  -9  -2   5 2759.00 608.202   2
   9   2  -5 3830.01 704.844   1
  -9   2   5 2609.31 686.439  12
  -9  -2   5 4005.05 724.414   4
   9   2  -5 4387.47 767.195   3
   9   2  -5 4622.31 740.375   8
  10   2  -5 29.9155 436.196   8
  10  -2  -5-100.412 473.474   9
  10   2  -5 830.551 522.530   1
 -10   2   5 139.174 510.804  12
  10   2  -5 336.023 496.812   3
 -10  -2   5 758.774 553.855   4
 -10  -2   5-385.239 477.701   2
 -10  -2   5-320.085 440.152   5
  11  -2  -5 688.432 500.069   9
  11   2  -5-310.541 515.834   3
 -11  -2   5 330.771 539.274   2
   8   2  -6 988.100 467.933   3
  -8  -2   6 1524.58 596.807   5
   8   2  -6 865.559 474.911   8
  -8  -2   6 2029.00 593.456   4
   9   2  -6 323.854 464.486   3
  -9  -2   6 526.678 515.692   5
  -9  -2   6 142.102 438.350   2
   9  -2  -6-204.905 393.688   9
   9   2  -6 207.305 461.956   8
   9   2  -6-476.537 447.173   1
  -9  -2   6 527.002 471.786   4
  -9   2   6 831.382 589.876  12
 -10  -2   6 3148.09 795.295   5
 -10  -2   6 1309.57 519.989   2
  10  -2  -6 2289.38 659.312   9
 -10   2   6 1078.13 594.339  12
  10   2  -6 1429.16 621.640   3
  10   2  -6 2661.32 764.699   8
   0   3   0 408.466 164.163   1
   0   3   0 553.946 203.104  14
   0   3   0 158.342 133.071   3
   0  -3   0 355.766 175.857  16
   0  -3   0 262.663 156.787   2
   0  -3   0 369.734 200.251   7
   0  -3   0 253.015 192.038   4
   0  -3   0 796.267 224.092  15
   0   3   0 449.983 237.286   6
   0   3   0 542.052 261.686  11
   0  -3   0 499.459 236.606  10
   1  -3   0 113.335 201.300   7
   1  -3   0 283.712 157.974   9
  -1   3   0 131.841 225.336  11
   1  -3   0 267.029 232.249  16
  -1  -3   0 121.886 156.841   4
   1   3   0 150.800 183.570  11
  -1   3   0 208.936 136.365  12
  -1  -3   0-101.722 167.049   7
  -1  -3   0 281.275 174.738  15
  -1   3   0 207.097 147.933   1
   1   3   0 236.597 157.959  14
   1  -3   0 73.8150 159.323  15
   1   3   0 69.1653 187.715   6
   1  -3   0 377.162 156.131   2
  -1  -3   0 215.246 181.500  16
  -1   3   0 384.962 220.036   6
   1   3   0 416.662 205.565   3
   1   3   0 335.263 178.894   1
  -1  -3   0 123.832 182.100   2
  -1  -3   0 113.078 150.813  10
   1  -3   0 424.596 221.573  10
  -1   3   0 212.555 139.034   3
   1  -3   0 193.582 127.766   4
   2  -3   0 188876. 2193.13   9
   2   3   0 196380. 2120.78   8
  -2  -3   0 185605. 2718.19   4
  -2  -3   0 188772. 2706.76   2
   2   3   0 189561. 2630.63   1
  -2  -3   0 195873. 2921.32   7
   2   3   0 196809. 2909.19   6
  -2  -3   0 192125. 2201.06  15
   2  -3   0 189240. 2748.36  15
  -2   3   0 191102. 2788.83  13
   2   3   0 183556. 2717.82   3
  -2   3   0 189726. 2477.69   6
  -2   3   0 197167. 2192.77  12
   2   3   0 190663. 2741.67  11
   2  -3   0 189732. 2752.47  16
   2  -3   0 185355. 2549.43   7
  -2  -3   0 195601. 2748.68  10
   2  -3   0 190734. 2822.68  10
   3  -3   0-113.729 209.020  10
   3  -3   0 125.932 149.045   9
   3   3   0 78.7670 154.515   8
   3  -3   0-107.382 194.496  16
  -3  -3   0 126.296 169.601   2
   3  -3   0 30.1678 189.347  15
   3  -3   0 100.520 154.772   7
  -3  -3   0 15.1620 156.498   7
  -3   3   0-10.4270 139.269  12
   3   3   0-162.711 194.179   6
  -3   3   0-133.130 247.916  13
   3   3   0 102.696 166.072   3
   3   3   0 69.3742 136.661   1
  -3   3   0-77.9794 157.875   6
  -3  -3   0 26.4973 146.869  10
   4  -3   0 3385.12 452.456  10
   4  -3   0 2934.67 388.147   9
  -4   3   0 2861.47 470.774  13
  -4   3   0 2362.92 346.085  12
  -4   3   0 3189.98 326.257   6
   4  -3   0 2792.15 446.795  16
   4  -3   0 2599.34 428.077  15
   5  -3   0 198.761 260.022   9
   5  -3   0 167.267 288.972  16
   5  -3   0-54.4007 247.762  15
  -5   3   0 58.2548 239.482  13
   0  -3  -1 3380.33 305.389   2
   0   3   1 3222.49 295.593   1
   0  -3   1 3681.18 338.194   4
   0  -3   1 3466.19 329.366  16
   0  -3  -1 3193.94 366.999  16
   0   3   1 3005.65 360.846  14
   0  -3  -1 2836.99 338.742  15
   0  -3   1 3309.87 347.440   2
   0  -3   1 3806.25 439.307   7
   0  -3  -1 2874.00 352.789   7
   0   3  -1 3351.07 332.860   1
   0   3  -1 3748.69 353.132  13
   0   3   1 3227.14 375.189   6
   0   3  -1 4054.00 442.937   6
   0   3  -1 3170.58 338.994   3
   0   3   1 2836.78 385.500  11
   0  -3   1 3340.39 341.712  15
   0  -3  -1 2788.90 370.055  10
   0  -3   1 3320.21 394.817  10
   1  -3   1 2884.60 394.318  10
  -1  -3   1 3192.47 400.242   7
  -1  -3  -1 2711.58 295.582   2
   1   3  -1 3265.41 257.014   8
   1   3  -1 3432.70 382.129  11
  -1   3   1 3408.04 246.767   1
   1  -3   1 3202.27 299.529   4
   1  -3   1 3452.28 367.589  16
  -1  -3   1 3585.49 294.030  16
  -1  -3   1 3466.75 353.165   2
   1  -3   1 3081.11 361.245  15
   1  -3  -1 3554.04 353.356   7
  -1  -3  -1 2913.73 342.346  15
   1  -3  -1 3283.09 373.705  16
  -1  -3   1 3394.22 353.692   4
   1   3  -1 3616.33 298.214  14
  -1   3   1 3156.31 364.590  14
  -1   3  -1 3486.11 370.859  13
   1   3  -1 3747.20 299.695  13
  -1   3   1 3262.58 354.917   6
   1   3  -1 3701.44 387.141   3
   1   3   1 3385.13 386.190   6
  -1   3  -1 4000.49 330.944   3
   1   3   1 3162.09 399.975  11
   1  -3   1 3054.66 381.369   7
  -1   3   1 3609.89 405.243  11
  -1  -3  -1 3052.68 362.032   7
  -1  -3   1 3617.11 307.178  15
   1   3  -1 3469.21 410.127   6
  -1   3  -1 3118.56 356.320   6
  -1  -3   1 3192.12 369.222  10
  -1  -3  -1 3323.21 384.852  10
  -1  -3   1 3615.81 267.375   5
   1  -3  -1 3343.84 388.261  10
   1  -3  -1 3443.99 382.588  15
   1   3  -1 3369.46 351.848   1
   2  -3   1 8057.55 602.975  15
   2  -3   1 8584.35 482.702   9
   2  -3  -1 8435.33 510.895   9
   2   3  -1 8724.96 397.328  13
   2   3  -1 8044.69 465.095   8
  -2  -3   1 8741.60 613.577   4
  -2  -3   1 8514.69 590.209   2
   2  -3   1 9094.22 491.923   4
   2  -3  -1 8793.20 630.452  16
   2   3  -1 8481.08 596.348   1
  -2  -3   1 8362.51 617.789   7
   2  -3  -1 8191.41 615.963  15
   2  -3   1 7973.16 606.321   7
  -2   3   1 8084.63 600.619  14
   2  -3   1 8054.96 614.585  16
  -2   3  -1 9615.53 647.714  13
  -2   3   1 8711.79 524.585   6
   2   3  -1 8028.70 618.120   6
   2   3  -1 8299.82 608.061   3
  -2   3  -1 8258.73 552.904   6
  -2   3  -1 9165.91 472.822   3
   2   3  -1 9195.48 598.163  11
  -2   3   1 8125.50 603.965  11
  -2  -3   1 8759.04 410.178  15
   2  -3  -1 9071.11 524.405   7
   2  -3  -1 8582.18 614.034  10
  -2  -3   1 8298.08 565.153  10
  -2  -3   1 8531.02 475.656   5
   2  -3   1 7496.84 628.930  10
   3  -3   1 32742.2 1122.27   9
   3   3  -1 33721.8 1118.10  11
   3  -3  -1 34001.2 1118.63   9
   3   3  -1 33287.7 1059.45   8
  -3  -3   1 35042.5 1283.22   4
  -3  -3   1 33704.6 1250.20   2
   3  -3   1 32073.9 1350.57  16
   3   3  -1 31641.6 1200.21   1
   3  -3  -1 32519.1 1243.35  16
   3   3  -1 33957.2 1274.23   6
   3  -3  -1 32765.1 1250.79  15
   3  -3  -1 34772.6 1010.40   7
   3  -3  -1 33090.9 1199.58  10
  -3   3   1 32123.6 941.179   6
   3   3  -1 34352.8 1269.99   3
  -3   3   1 32929.8 1118.90  12
  -3   3  -1 32826.8 1072.04   6
  -3   3   1 35095.2 1235.69  11
  -3  -3   1 32149.0 1250.86   7
  -3  -3   1 32192.8 1059.86   5
   3  -3   1 30008.3 1358.37  10
   3  -3   1 31547.7 1337.03  15
  -3  -3   1 32887.3 1094.34  10
   4  -3  -1 374.864 260.975  16
  -4  -3   1 454.087 207.275   5
   4  -3  -1 595.071 250.597   9
   4   3  -1 631.889 192.142   8
   4  -3  -1 330.264 247.411  15
  -4  -3   1 402.883 238.174   2
  -4  -3   1 349.079 221.325   4
  -4  -3   1 632.689 275.090   7
  -4   3   1 538.534 304.210  13
  -4   3   1 526.597 246.465  12
   4   3  -1 687.757 260.672   6
   4   3  -1 580.867 234.950   1
   4  -3  -1 710.489 273.494  10
   4   3  -1 615.478 247.788   3
  -4  -3   1 517.620 190.961  10
  -4   3   1 375.157 232.884  11
   5  -3  -1 10852.0 774.638   9
   5   3  -1 10880.0 735.324   8
  -5  -3   1 11718.1 873.966   4
  -5  -3   1 11819.7 872.290   2
   5   3  -1 10208.0 790.326   1
   5  -3  -1 10664.9 820.726  16
  -5  -3   1 11268.1 819.737   7
   5  -3  -1 10729.9 837.155  15
  -5   3   1 11514.3 868.913  13
   5   3  -1 10872.2 839.160   3
   5   3  -1 10245.4 779.432   6
  -5   3   1 11472.0 792.380  12
   5  -3  -1 11223.3 787.876  10
  -6   3   1 1027.64 376.065  13
   6  -3  -1 1237.95 356.889   9
   6   3  -1 1412.08 376.564   8
   6  -3  -1 1344.44 415.491  16
  -6   3   1 1577.91 417.543  12
   6   3  -1 1002.63 372.554   3
  -6  -3   1 1106.47 351.413   7
   6   3  -1 1200.58 346.033   1
   6  -3  -1 1249.40 391.767  15
  -6  -3   1 1476.80 420.272   2
   7  -3  -1 3528.98 557.016   9
   7  -3  -1 3510.26 585.821  16
   7  -3  -1 4652.60 659.738  15
  -7   3   1 4979.78 699.519  13
  -7   3   1 4017.32 577.006  12
   8  -3  -1 3479.58 656.266   9
   8  -3  -1 4434.08 689.388  16
   0  -3   2-189.843 225.239   7
   0  -3   2 149.144 197.040  10
   0   3  -2-76.1062 191.036   3
   0  -3   2 149.724 144.210  16
   0   3  -2 64.1493 182.667   6
   0  -3   2 14.7494 170.809   4
  -1   3  -2 32606.0 1191.83   6
  -1  -3   2 34216.2 1185.42   4
  -1  -3   2 34385.2 861.551  16
   1  -3  -2 33153.5 1241.67  16
  -1  -3   2 35064.0 1300.39   7
  -1  -3   2 33482.9 1185.48   2
   1   3  -2 37376.7 1262.48   3
   1   3  -2 31034.2 1114.13   1
   1   3  -2 34879.5 1255.16   6
  -1   3   2 33506.1 1273.30  11
   1  -3  -2 33355.0 1089.68   7
   1  -3  -2 31611.6 1203.27  10
  -1  -3   2 32951.8 1166.61  10
   1  -3   2 31036.0 1368.24  10
  -1  -3   2 33551.9 946.266   5
   1  -3  -2 32011.5 1218.09  15
   2  -3  -2 131.907 198.697  16
  -2  -3   2-111.611 177.327   7
   2   3  -2-42.3623 179.804   3
  -2  -3   2-148.139 163.611   5
   2   3  -2-39.1806 148.554   8
   2  -3  -2-80.4757 169.495  15
  -2   3   2 341.532 216.605  14
  -2  -3   2 139.144 193.128   4
   2   3  -2 52.6328 194.235   1
  -2  -3   2 91.2841 182.248   2
  -2   3   2 584.586 261.702  11
   2  -3  -2 218.618 155.149   7
   2   3  -2-52.9683 206.542   6
   2  -3  -2 109.509 187.289  10
  -2  -3   2 60.1666 164.257  10
   3   3  -2 23588.7 1084.36   6
   3  -3  -2 22761.1 999.088   9
   3   3  -2 22702.7 897.073  11
   3   3  -2 20870.3 900.744   8
  -3  -3   2 23250.9 1089.42   4
   3  -3  -2 23078.1 1114.73  16
   3  -3  -2 21659.8 1060.59  15
  -3  -3   2 22189.5 1062.39   7
   3   3  -2 21507.3 1034.96   1
  -3   3   2 22660.0 1082.72  14
  -3   3   2 22759.7 1030.70  11
   3   3  -2 22936.6 1087.90   3
   3  -3  -2 21886.3 984.599  10
  -3  -3   2 23856.1 932.241  10
  -3  -3   2 22094.6 927.586   5
  -3  -3   2 22099.3 1053.44   2
   4  -3  -2 1927.93 409.813  16
   4   3  -2 1896.12 392.128   3
   4   3  -2 1946.45 378.645   1
  -4  -3   2 2024.52 341.677   5
   4  -3  -2 2161.63 353.157   9
   4   3  -2 2902.07 409.018   8
   4  -3  -2 1846.41 391.307  15
  -4  -3   2 1724.79 359.393   2
  -4   3   2 2161.02 422.891  14
  -4   3   2 1981.72 363.910  12
   4   3  -2 2140.76 410.996   6
  -4  -3   2 1846.63 389.376   4
  -4   3   2 2500.57 393.262  11
  -4  -3   2 2062.97 384.647   7
   4  -3  -2 2323.27 367.701  10
   5  -3  -2 26181.0 1225.14   9
   5   3  -2 25928.8 1172.56   8
  -5  -3   2 24955.0 1262.88   4
  -5  -3   2 24695.6 1246.02   2
   5  -3  -2 24033.3 1228.39  16
   5   3  -2 23660.6 1198.76   1
  -5  -3   2 25610.1 1204.50   7
   5  -3  -2 25889.0 1275.32  15
   5   3  -2 28197.8 1342.40   3
  -5   3   2 25645.7 1213.53  12
  -5   3   2 25414.6 1248.66  14
  -5   3   2 26728.2 1141.08  11
   5   3  -2 26292.1 1218.37   6
  -5   3   2 25250.1 1303.79  13
   5  -3  -2 27525.4 1156.89  10
  -5  -3   2 24407.8 1174.44   5
  -6  -3   2 1991.82 428.836   5
   6  -3  -2 1812.99 402.153  15
   6  -3  -2 2331.78 466.027   9
   6   3  -2 2122.63 442.820   8
   6  -3  -2 1981.38 441.723  16
  -6  -3   2 1475.91 424.330   2
  -6   3   2 1869.33 422.816  14
  -6  -3   2 2226.07 480.367   4
   6   3  -2 1974.81 399.857   6
  -6   3   2 2116.03 450.170  12
  -6  -3   2 1747.52 412.526   7
  -6   3   2 1377.42 431.889  13
   6   3  -2 1871.10 462.296   3
   6   3  -2 1932.34 445.632   1
  -7  -3   2-99.4011 300.943   5
  -7  -3   2 18.6562 293.544   7
   7  -3  -2 734.285 359.655   9
   7   3  -2 516.556 360.452   8
  -7  -3   2 356.297 408.092   4
  -7  -3   2 95.1420 374.270   2
  -7   3   2-213.435 342.772  13
  -7   3   2 538.559 380.586  12
   7  -3  -2 561.320 361.530  15
   7   3  -2 49.5699 348.491   3
   7  -3  -2 344.087 337.250  16
   7   3  -2-141.827 311.593   1
   8  -3  -2 2304.23 519.982   9
   8   3  -2 2551.01 590.374   8
   8  -3  -2 1896.73 485.456  16
  -8  -3   2 2580.53 522.778   2
  -8   3   2 953.169 471.757  12
   8   3  -2 1772.27 499.710   3
   8   3  -2 3600.38 629.974   1
  -8   3   2 2267.03 522.803  13
   8  -3  -2 2758.03 572.935  15
   9  -3  -2-9.51599 394.812   9
  -9   3   2-126.490 368.243  12
   9  -3  -2 901.320 447.648  16
   1   3  -3-75.0812 226.070   3
  -1  -3   3-159.298 162.792   5
  -1  -3   3 407.961 314.628   4
  -1  -3   3 206.738 243.309   7
   1   3  -3 269.686 236.267   6
  -2  -3   3 5467.47 579.977   4
  -2  -3   3 5963.60 606.779   2
  -2  -3   3 6213.25 639.337   7
   2   3  -3 5732.14 560.035   1
   2   3  -3 5919.48 583.374   6
   2   3  -3 6203.33 628.337   3
  -2  -3   3 6161.75 533.947   5
   3   3  -3 196.442 257.891   3
  -3  -3   3 628.805 239.952   5
   3   3  -3 130.057 253.602   1
   3   3  -3 139.531 176.384   8
   3  -3  -3 651.840 301.686  15
  -3   3   3 176.734 213.208  14
   3  -3  -3 109.259 222.641  16
  -3  -3   3 359.519 292.236   7
  -3  -3   3 135.094 269.669   4
   3   3  -3 166.166 245.332   6
  -3  -3   3 416.286 267.321   2
   3  -3  -3 441.508 224.258  10
   4   3  -3 1012.57 399.534   3
   4  -3  -3 511.472 278.997  15
  -4  -3   3 741.237 317.378   5
   4  -3  -3 564.702 254.623   9
   4   3  -3 791.384 267.634   8
  -4  -3   3 91.7157 285.618   4
  -4  -3   3 436.270 271.450   7
   4   3  -3 990.795 329.641   1
  -4  -3   3 902.753 325.630   2
  -4   3   3 878.549 282.054  11
   4   3  -3 637.671 301.330   6
  -4   3   3 863.385 344.936  14
   4  -3  -3 476.402 288.435  16
   4  -3  -3 581.165 256.870  10
  -5   3   3 3658.08 547.764  14
   5   3  -3 3055.23 507.631   3
  -5  -3   3 3681.64 513.690   5
   5  -3  -3 2914.90 476.639   9
   5   3  -3 3298.65 489.563   8
   5  -3  -3 3298.15 525.225  15
  -5  -3   3 3497.47 548.448   4
  -5  -3   3 3664.02 505.040   7
  -5  -3   3 3172.98 529.478   2
   5   3  -3 3401.61 518.976   1
  -5   3   3 3531.53 542.761  12
   5  -3  -3 3638.07 559.488  16
  -5   3   3 3895.86 483.160  11
   5   3  -3 2667.47 432.343   6
   5  -3  -3 3627.70 455.014  10
  -6  -3   3 364.028 314.304   7
  -6  -3   3 28.2074 303.240   5
   6  -3  -3 220.336 294.406   9
   6   3  -3 580.044 338.937   8
   6   3  -3 24.9311 304.620   1
   6  -3  -3 59.1781 296.152  16
  -6  -3   3 766.599 391.125   4
  -6   3   3 36.0586 268.052  14
  -6  -3   3 163.221 318.606   2
  -6   3   3-261.439 346.449  13
  -6   3   3 386.375 309.844  12
   6   3  -3-56.8119 282.645   6
   6  -3  -3 333.174 295.311  15
   6   3  -3 330.473 341.448   3
  -7  -3   3 1963.92 501.489   5
   7  -3  -3 752.371 375.883   9
   7   3  -3 1740.87 492.375   1
   7   3  -3 1132.78 398.187   8
  -7  -3   3 1094.01 438.673   4
   7  -3  -3 812.114 350.941  15
  -7  -3   3 1629.53 446.546   7
   7  -3  -3 915.199 406.401  16
  -7   3   3 1381.81 447.518  14
  -7  -3   3 833.364 429.069   2
  -7   3   3 1055.22 419.169  12
  -7   3   3 1455.93 457.295  13
   7   3  -3 1152.75 452.070   3
   8  -3  -3 8030.18 877.589   9
   8   3  -3 7220.57 857.690   1
  -8  -3   3 8288.88 931.419   4
   8   3  -3 7279.37 832.255   8
   8  -3  -3 7391.01 858.730  15
   8  -3  -3 6767.62 794.536  16
  -8   3   3 7743.25 846.668  14
  -8   3   3 9206.46 981.881  13
   8   3  -3 8472.87 928.547   3
  -8   3   3 8064.23 900.050  12
  -8  -3   3 8278.22 942.026   2
  -8  -3   3 8545.12 888.072   5
  -9  -3   3-24.8945 383.728   5
  -9   3   3-506.602 436.673  13
   9  -3  -3-365.747 469.747   9
   9   3  -3 110.482 393.382   1
   9   3  -3-502.426 413.265   8
  -9  -3   3 173.490 388.782   4
   9  -3  -3 1153.45 505.746  16
   9  -3  -3-217.478 359.880  15
  -9   3   3 398.727 389.506  14
  -9  -3   3-229.363 398.978   2
  -9   3   3 179.724 378.790  12
   9   3  -3-33.8859 430.015   3
  10  -3  -3 3977.06 738.043   9
  10  -3  -3 3235.66 657.226  16
  10  -3  -3 3340.47 703.226  15
 -10   3   3 2688.31 571.742  14
 -10   3   3 4319.14 816.637  12
  11  -3  -3 60.6409 441.803   9
 -11   3   3-467.943 560.492  12
   3   3  -4 6723.93 730.958   3
  -3  -3   4 7088.25 757.028   7
  -3  -3   4 6455.84 731.619   4
   3   3  -4 7307.25 703.055   6
   3   3  -4 7412.33 707.187   1
  -3  -3   4 7735.81 759.690   2
  -3  -3   4 7828.74 701.100   5
  -4  -3   4 2615.87 495.416   2
   4   3  -4 2831.13 531.134   3
  -4  -3   4 3149.26 514.210   5
   4   3  -4 3200.75 534.273   1
  -4  -3   4 2354.91 493.111   4
  -4  -3   4 2570.42 513.665   7
   4   3  -4 3584.97 506.880   8
   4   3  -4 3414.40 527.169   6
   5  -3  -4 6333.06 704.978   9
   5   3  -4 7961.89 754.853   8
   5  -3  -4 7457.46 798.330  16
  -5  -3   4 7681.86 811.403   2
   5  -3  -4 7587.87 765.891  15
  -5  -3   4 7229.47 759.876   7
  -5   3   4 6533.22 724.600  14
  -5  -3   4 6425.26 753.273   4
   5   3  -4 7780.81 786.951   1
   5   3  -4 7783.34 726.241   6
   5   3  -4 8413.22 849.772   3
  -5  -3   4 8034.75 789.982   5
   6   3  -4 1079.03 386.540   1
   6   3  -4 1713.63 512.496   3
  -6  -3   4 1054.94 388.665   5
   6  -3  -4 1831.08 492.473   9
  -6  -3   4 1561.37 486.700   4
   6   3  -4 1625.39 447.701   8
   6  -3  -4 1172.92 387.845  15
  -6   3   4 1634.73 465.338  14
  -6  -3   4 1539.08 424.377   7
   6  -3  -4 1178.09 415.252  16
  -6   3   4 706.930 391.164  12
   6   3  -4 1406.53 396.865   6
  -6  -3   4 835.006 407.653   2
   7   3  -4 1210.86 490.334   3
  -7  -3   4 1677.44 525.717   5
   7  -3  -4 507.187 309.770   9
   7   3  -4 1060.36 439.778   8
   7  -3  -4 875.645 422.055  16
  -7   3   4 879.919 369.234  14
  -7  -3   4 704.958 471.203   4
  -7   3   4 891.621 398.837  13
  -7   3   4 998.830 436.102  12
  -7  -3   4 788.807 411.198   2
   7   3  -4 1313.79 465.574   1
   7  -3  -4 923.277 417.021  15
   8  -3  -4 234.550 357.926  16
  -8  -3   4-121.940 392.450   5
   8  -3  -4-64.8506 383.986   9
   8   3  -4-367.564 428.140   8
  -8  -3   4-36.7223 418.522   4
  -8   3   4-431.304 344.355  14
   8  -3  -4 596.814 414.411  15
   8   3  -4 846.563 428.230   1
  -8   3   4 416.757 407.487  13
  -8  -3   4-26.0200 392.293   2
  -8   3   4 246.298 398.431  12
   8   3  -4 153.236 444.576   3
  -9  -3   4-131.877 464.207   5
   9  -3  -4 1654.87 585.840   9
   9   3  -4 615.795 399.572   8
  -9  -3   4 1921.36 628.815   4
   9  -3  -4 1485.10 525.041  16
   9  -3  -4 695.209 475.313  15
  -9   3   4 672.288 422.936  14
   9   3  -4 952.902 460.532   1
  -9   3   4 160.483 462.423  13
  -9  -3   4 1607.11 561.769   2
  -9   3   4 1301.21 582.512  12
   9   3  -4 610.066 423.844   3
 -10  -3   4 499.086 520.169   5
  10  -3  -4 391.178 480.648   9
  10   3  -4 624.331 550.942   8
 -10  -3   4-59.9633 439.749   4
  10  -3  -4 895.831 464.388  16
  10   3  -4 769.574 572.938   1
 -10   3   4 1083.63 594.272  13
 -10  -3   4-446.421 537.577   2
 -10   3   4-25.3816 445.793  12
  10   3  -4 11.1569 457.086   3
  11  -3  -4-577.398 488.738   9
  11   3  -4 134.564 657.901   8
   5   3  -5 591.035 326.655   1
   5   3  -5 1679.65 489.542   3
  -5  -3   5 971.366 442.523   2
  -5  -3   5 882.690 425.946   5
  -5  -3   5 1039.71 484.092   4
   5   3  -5 1026.59 335.261   6
  -6  -3   5 436.024 404.959   2
   6   3  -5 481.725 412.965   3
  -6  -3   5 613.156 412.149   5
   6   3  -5 927.748 398.706   8
  -6  -3   5 906.687 505.228   4
   6   3  -5 1400.40 450.466   1
   7   3  -5 4678.73 718.044   8
  -7  -3   5 4109.69 754.479   2
   7   3  -5 5025.32 791.508   3
   7   3  -5 4371.29 708.711   1
  -7  -3   5 4539.24 750.041   5
   7  -3  -5 4152.27 712.202   9
   7  -3  -5 3647.16 626.306  15
  -7  -3   5 3994.13 725.226   4
  -7   3   5 3325.84 760.896  12
  -8  -3   5 1178.57 621.185   5
   8  -3  -5 4053.60 961.558   9
   8  -3  -5 660.963 458.963  15
  -8   3   5 1589.67 546.356  13
  -8   3   5 1055.49 564.881  12
   8  -3  -5 4862.20 920.196  16
   8   3  -5 211.170 383.761   8
   8   3  -5 1532.81 511.867   1
  -8  -3   5 1896.65 626.832   4
   8   3  -5 1660.27 531.472   3
  -8  -3   5 1115.51 498.711   2
  -9  -3   5-143.203 410.636   5
   9  -3  -5 493.346 508.392   9
   9   3  -5 363.802 415.813   8
   9  -3  -5 7.54741 397.032  16
  -9  -3   5 455.925 486.005   4
   9   3  -5 1044.41 530.706   1
  -9   3   5-196.193 423.551  14
  -9   3   5 840.511 540.344  13
  -9   3   5 28.6727 489.844  12
   9   3  -5 1195.15 513.708   3
  -9  -3   5 85.7273 465.872   2
 -10  -3   5 80.7404 480.200   5
  10  -3  -5-247.007 550.830   9
  10   3  -5-639.155 583.101   8
 -10  -3   5-300.536 575.740   4
  10   3  -5-352.985 527.468   1
 -10   3   5-156.959 498.666  12
  10   3  -5 862.466 553.754   3
 -10  -3   5-659.449 533.227   2
   8   3  -6 3419.60 779.232   3
  -8  -3   6 3672.35 786.562   5
  -8  -3   6 3291.71 802.667   2
   8   3  -6 1889.00 571.983   8
  -8  -3   6 2719.45 701.462   4
   8   3  -6 2649.67 542.133   1
  -9  -3   6 331.729 536.842   5
  -9  -3   6 477.822 592.867   2
   9   3  -6 929.908 545.702   8
  -9  -3   6-395.687 519.062   4
   9   3  -6 839.007 531.801   1
   9   3  -6 243.788 525.770   3
  10   3  -6-775.337 596.725   1
   0  -4   0 518788. 4228.43   4
   0  -4   0 509741. 4598.56  16
   0   4   0 517170. 4584.33  14
   0  -4   0 509782. 5077.45   7
   0  -4   0 509389. 4617.73  15
   0   4   0 521335. 4097.88   1
   0   4   0 502801. 5070.77   6
   0   4   0 505199. 5219.85  11
   0  -4   0 507596. 5253.80  10
  -1  -4   0 226.327 194.944   4
   1  -4   0-24.7023 223.320  16
  -1  -4   0 161.107 210.659  15
   1  -4   0 299.212 234.598  15
  -1  -4   0 186.856 255.415   7
   1  -4   0-157.819 237.690   7
  -1  -4   0-4.09789 179.114   2
  -1   4   0 373.496 245.914  14
  -1   4   0-11.9974 213.186  13
   1   4   0 718.697 322.221   6
  -1   4   0-104.681 227.885   6
   1   4   0 76.7592 198.848   3
   1   4   0-349.756 256.548  11
  -1   4   0 369.139 254.919  11
  -1  -4   0-36.3296 239.113  10
   1  -4   0 48.7976 244.044  10
   1   4   0 68.4928 207.455   1
  -2  -4   0 19733.6 1002.52   2
   2   4   0 17153.0 920.888   1
   2  -4   0 16602.4 941.725  16
  -2  -4   0 17895.5 1050.45   7
   2  -4   0 16298.8 949.181  15
   2  -4   0 16992.7 933.415   7
  -2   4   0 17262.6 992.196  14
  -2   4   0 17029.8 974.579  13
   2   4   0 18620.2 979.209   3
   2   4   0 17976.2 1040.05   6
  -2   4   0 18361.4 935.508   6
   2   4   0 17995.6 1002.89  11
  -2   4   0 19164.4 1063.43  11
  -2  -4   0 18340.9 1007.16  10
   2  -4   0 17630.1 1008.80  10
   3  -4   0 93.2789 256.641  10
   3  -4   0 507.134 302.065  16
   3  -4   0 32.8650 219.301   7
   3  -4   0-101.817 214.501  15
  -3  -4   0 343.868 262.122   7
  -3  -4   0 64.7731 239.912   2
  -3   4   0 63.4792 277.253  13
   3   4   0-3.32970 238.780   6
  -3   4   0-132.267 207.569   6
   3   4   0-100.820 218.472   1
  -3  -4   0-256.832 254.641  10
   4  -4   0 1647.85 417.298  10
   4  -4   0 1067.84 373.102  16
  -4   4   0 1669.07 419.353  13
   4  -4   0 1657.23 425.475  15
   5  -4   0 87.1599 332.130  10
   5  -4   0 542.370 304.926   9
   5  -4   0-156.688 340.931  16
   5  -4   0 33.8531 290.224  15
  -5   4   0 368.726 369.761  13
   6  -4   0 1584.62 502.434   9
   6  -4   0 1044.88 507.436  16
   6  -4   0 1232.13 485.402  15
   0   4  -1-15.7603 172.989   3
   0   4  -1 29.4791 171.517  14
   0   4  -1-146.106 182.798   1
   0  -4   1-64.7702 181.114  16
   0  -4  -1-118.985 178.472  16
   0  -4  -1 66.4311 207.009  15
   0  -4   1 53.7688 185.212   4
   0  -4   1 5.25644 222.267   7
   0  -4   1 197.688 178.069  15
   0   4  -1-90.6907 206.510  13
   0   4   1-13.4410 223.137   6
   0   4   1-149.219 263.278  11
   0   4  -1 29.7778 265.283   6
   0   4  -1 137.668 237.059  11
   0  -4   1 41.3174 199.899   2
   0  -4  -1 11.0201 230.471  10
   0  -4  -1 110.442 239.137   7
   0  -4   1 81.4970 216.599  10
  -1  -4  -1 8424.84 589.365   2
   1   4   1 6929.36 562.335   1
  -1  -4   1 7515.88 596.507   4
   1  -4   1 7378.44 602.101  16
   1  -4  -1 7401.55 638.627  16
  -1  -4   1 7678.31 604.798   2
  -1  -4  -1 6967.86 627.295   7
   1  -4  -1 7471.85 612.296   7
  -1  -4  -1 7160.77 584.387  15
   1  -4  -1 6385.72 604.499  15
  -1  -4   1 7535.97 669.458   7
   1  -4   1 7733.58 641.333  15
   1  -4   1 7586.24 678.305   7
  -1   4   1 6852.91 602.747  14
   1   4  -1 7430.38 585.213   1
  -1   4  -1 6977.02 595.477  13
   1   4   1 6667.13 645.674   6
  -1   4   1 7335.96 608.596   6
   1   4  -1 6923.30 656.930   6
   1   4  -1 7848.01 626.775   3
  -1   4  -1 7535.39 648.431   6
   1   4   1 6579.55 651.280  11
  -1   4   1 7048.90 665.614  11
   1   4  -1 8088.50 666.184  11
  -1  -4  -1 6434.72 637.721  10
   1  -4  -1 6689.79 646.830  10
  -1  -4   1 6805.94 619.980  10
   1  -4   1 6731.22 664.898  10
  -2  -4   1 7604.69 638.718   4
  -2  -4   1 6680.74 588.223   2
   2  -4   1 6600.27 627.520  16
   2  -4  -1 6876.46 643.003  16
   2  -4  -1 7522.04 692.653  15
  -2  -4   1 7310.69 694.601   7
   2  -4  -1 6446.13 572.179   7
   2  -4   1 5974.30 624.611  15
   2   4  -1 6719.94 602.928   1
   2  -4   1 7407.50 700.894   7
  -2   4   1 6480.58 634.170  14
  -2   4  -1 6675.03 635.325  13
  -2   4   1 7385.15 590.758   6
   2   4  -1 7093.15 639.480   3
   2   4  -1 6952.38 678.275   6
  -2   4  -1 7152.34 634.724   6
   2   4  -1 6714.74 606.845  11
  -2   4   1 7089.92 679.699  11
   2  -4  -1 7144.07 676.144  10
  -2  -4   1 7620.48 668.870  10
   2  -4   1 7138.17 703.228  10
  -3  -4   1 15942.1 967.077   4
  -3  -4   1 16318.2 970.895   2
   3  -4   1 14531.0 1012.00  16
   3  -4  -1 15500.6 977.424  16
  -3  -4   1 14908.8 978.755   7
   3  -4  -1 14976.3 959.061  15
   3  -4   1 13440.9 983.715  15
  -3   4   1 14150.9 964.454  14
  -3   4  -1 15427.3 993.109  13
  -3   4   1 14140.1 966.540  13
   3   4  -1 15719.4 962.885   3
   3   4  -1 14719.3 965.562   6
  -3   4  -1 15844.2 878.864   6
   3   4  -1 13567.5 892.148   1
   3   4  -1 15547.9 919.467  11
  -3   4   1 14873.2 956.189  11
  -3  -4   1 15063.5 895.098  10
   3  -4  -1 15905.0 977.220  10
   3  -4   1 15548.8 1045.38  10
   4  -4  -1 1524.70 1037.40   9
   4  -4   1 3980.63 661.786  16
   4  -4  -1 3047.78 728.912  16
  -4  -4   1 3787.00 549.838   4
  -4  -4   1 3746.28 556.138   7
   4  -4  -1 3923.28 560.735  15
  -4  -4   1 4240.44 563.908   2
  -4   4   1 3481.64 628.739  14
  -4   4   1 3998.69 612.575  13
  -4   4   1 2647.66 427.689  12
   4   4  -1 3979.36 555.456   6
   4   4  -1 3668.15 560.264   3
  -4   4   1 2779.22 484.033  11
  -4   4  -1 3917.10 470.477   6
  -4  -4   1 4373.36 525.969  10
   4   4  -1 3272.82 515.889   1
   4  -4  -1 3561.53 526.435  10
   5  -4  -1 7456.51 709.208   9
  -5  -4   1 7301.42 781.942   4
  -5  -4   1 6886.91 732.749   2
   5   4  -1 6973.63 736.878   1
   5  -4  -1 7327.40 770.186  16
  -5  -4   1 6486.95 712.830   7
   5  -4  -1 7274.35 763.530  15
  -5   4   1 8124.27 864.925  13
   5   4  -1 7045.29 762.273   3
   5   4  -1 6602.34 716.587   6
  -5   4   1 7711.55 712.363  12
  -5   4   1 8207.84 758.290  11
   5  -4  -1 7927.03 759.420  10
   6  -4  -1 178.259 345.185  10
   6  -4  -1-245.489 326.979   9
   6   4  -1 334.239 291.922   8
   6  -4  -1 259.386 367.410  16
  -6  -4   1 227.009 354.391   7
   6  -4  -1-78.6955 350.163  15
  -6   4   1 192.514 370.377  13
  -6   4   1 49.2638 274.706  12
  -6  -4   1 217.410 329.444   2
  -6   4   1-297.987 358.630  11
   6   4  -1-322.067 299.179   1
   7  -4  -1 459.692 419.166   9
   7  -4  -1-16.9474 361.660  16
  -7   4   1-134.878 412.592  13
  -7   4   1 141.620 320.906  12
   7  -4  -1-715.087 436.133  15
   8  -4  -1-509.476 503.110   9
   8  -4  -1-403.319 539.134  16
   0  -4   2 660.404 308.472  10
   0   4  -2 670.407 235.041   1
   0   4  -2 1243.77 304.694   3
   0  -4   2 373.191 233.391   2
   0  -4   2 1123.87 365.329   7
   0  -4   2 716.835 261.686   4
   0   4  -2 988.073 360.022   6
  -1  -4   2 2358.09 417.101  10
   1  -4   2 2396.60 473.634  10
   1   4  -2 3312.91 477.705   3
  -1   4  -2 3093.73 395.908   3
   1  -4   2 2445.01 403.874  16
   1  -4  -2 2487.48 452.250  15
   1  -4  -2 2379.21 393.363   7
  -1  -4   2 2220.03 444.547   7
  -1  -4   2 2440.23 416.459   4
   1  -4   2 2674.89 408.010   4
   1  -4   2 2306.69 462.354   7
   1   4  -2 2117.77 352.859   1
  -1   4   2 2526.81 465.060  11
   1   4  -2 2424.55 453.711   6
  -1   4  -2 2676.72 460.833   6
   1  -4  -2 1658.53 386.291  10
  -1  -4   2 2647.06 419.281   2
   2   4  -2 437.021 307.462   3
   2  -4  -2 940.294 301.370  16
   2  -4  -2 603.693 305.324  15
  -2  -4   2 575.092 303.819   7
  -2   4   2 833.592 307.300  14
   2  -4  -2 688.947 250.053   7
  -2  -4   2 688.807 288.625   4
   2   4  -2 810.468 305.272   1
  -2  -4   2 693.384 279.674   2
  -2   4   2 939.564 312.822  11
   2   4  -2 740.156 332.240   6
   2   4  -2 710.530 303.055  11
   2  -4  -2 759.659 314.119  10
  -2  -4   2 745.209 259.726  10
   3  -4  -2 5770.96 572.130   9
  -3  -4   2 5687.43 632.439   4
   3  -4  -2 6655.02 707.493  16
  -3  -4   2 6456.16 664.346   2
   3  -4  -2 6050.63 661.962  15
  -3  -4   2 6884.19 704.728   7
   3   4  -2 6511.58 652.791   1
  -3   4   2 6599.72 683.591  14
   3   4  -2 7035.20 719.722   6
   3   4  -2 5830.51 655.608   3
  -3   4   2 6703.71 609.933  12
  -3   4   2 6272.37 658.214  11
   3   4  -2 6836.63 593.748  11
   3  -4  -2 6900.97 678.823  10
  -3  -4   2 6119.17 571.699  10
   4  -4  -2-121.215 287.500   9
   4   4  -2 71.3780 275.308   1
   4  -4  -2 77.5658 292.380  16
  -4  -4   2 251.915 322.983   4
   4  -4  -2 676.063 348.514  15
  -4  -4   2 236.778 302.762   7
  -4   4   2-68.5770 292.933  14
  -4  -4   2-187.773 313.657   2
  -4   4   2-213.610 273.379  12
   4   4  -2-143.987 299.280   6
  -4   4   2-38.9192 276.497  11
   4  -4  -2 478.377 343.635  10
   4   4  -2 199.633 355.090   3
   5  -4  -2 22376.2 1194.98   9
  -5  -4   2 18470.1 1195.78   4
  -5  -4   2 20804.7 1256.55   2
   5  -4  -2 19475.1 1245.41  16
  -5  -4   2 20565.8 1245.38   7
   5  -4  -2 20532.2 1267.62  15
   5   4  -2 20429.9 1227.91   1
  -5   4   2 20163.6 1257.38  14
  -5   4   2 18894.1 1227.37  13
   5   4  -2 21393.0 1258.06   6
   5   4  -2 20595.9 1276.08   3
  -5   4   2 21263.9 1155.92  12
  -5   4   2 22023.6 1200.18  11
   5  -4  -2 20521.0 1163.07  10
  -6  -4   2 1740.73 442.887   5
   6  -4  -2 1967.22 451.903  10
   6   4  -2 1471.58 417.914   1
   6  -4  -2 1745.44 449.004   9
   6   4  -2 2316.58 462.621   8
   6  -4  -2 1384.71 433.399  16
  -6  -4   2 1536.55 470.893   4
   6  -4  -2 1752.86 469.549  15
  -6  -4   2 1999.32 475.359   7
  -6  -4   2 786.459 416.850   2
  -6   4   2 1521.75 482.571  14
  -6   4   2 1109.08 430.789  13
   6   4  -2 1437.92 408.195   6
  -6   4   2 1618.87 428.903  12
   6   4  -2 1412.86 476.767   3
  -6   4   2 2303.36 481.446  11
   7   4  -2 2957.90 608.508   1
   7  -4  -2 3324.51 608.714   9
   7   4  -2 3626.06 598.073   8
  -7  -4   2 3593.03 635.141   4
   7  -4  -2 3546.90 654.349  16
  -7  -4   2 3544.62 608.865   7
   7  -4  -2 3065.93 616.541  15
  -7  -4   2 3009.70 605.422   2
  -7   4   2 3537.84 654.896  14
  -7   4   2 3034.02 599.974  13
  -7   4   2 3684.99 606.917  12
   7   4  -2 3149.58 658.231   3
   8  -4  -2 766.409 434.491   9
   8  -4  -2 647.647 436.212  15
  -8   4   2 300.001 441.151  13
  -8   4   2-153.932 393.506  12
  -8   4   2 243.084 428.259  14
   8  -4  -2-194.082 363.362  16
   9  -4  -2 126.838 428.776   9
   9  -4  -2 1618.97 656.283  15
  -9   4   2 1421.40 594.097  14
  -9   4   2 53.7827 431.287  13
  -9   4   2-144.723 356.858  12
   9  -4  -2 314.837 401.592  16
   1   4  -3 1388.93 385.841   3
  -1  -4   3 1777.33 439.736   4
  -1  -4   3 1356.54 401.405   7
   1   4  -3 1553.55 429.627   6
  -2  -4   3 16395.8 1070.73   4
  -2  -4   3 15750.6 1029.02   2
  -2  -4   3 16106.0 1112.95   7
   2   4  -3 17238.3 1029.98   1
   2   4  -3 16725.9 1083.44   6
   2   4  -3 15974.7 1050.29   3
  -2  -4   3 14668.9 987.242  10
  -3  -4   3 241.983 296.067  10
   3   4  -3 326.000 334.853   3
   3   4  -3 186.344 296.847   1
   3  -4  -3 170.751 284.268  16
   3  -4  -3 90.3221 278.421  15
  -3  -4   3-474.099 348.747   4
  -3   4   3-119.355 312.884  14
  -3  -4   3-295.256 302.906   7
   3   4  -3-114.356 323.179   6
  -3  -4   3-85.0172 277.088   2
   3  -4  -3-34.2715 268.725  10
   4   4  -3 7344.43 809.902   3
   4  -4  -3 5462.18 713.713  16
  -4  -4   3 7557.87 775.986   2
  -4  -4   3 5855.75 709.513   4
   4  -4  -3 6558.16 744.183  15
  -4  -4   3 6995.32 778.930   7
  -4   4   3 5788.75 722.183  14
   4   4  -3 6358.98 718.184   1
  -4   4   3 6396.93 683.827  11
   4   4  -3 6471.49 713.091   6
   4  -4  -3 6469.17 680.746  10
   5   4  -3-339.278 341.516   3
   5  -4  -3-553.233 376.134   9
   5  -4  -3 20.8741 308.572  16
  -5  -4   3-65.6134 351.931   4
   5   4  -3 97.0188 334.332   1
  -5  -4   3-301.867 345.276   7
  -5   4   3 95.4436 316.957  14
  -5  -4   3 874.626 384.216   2
  -5   4   3 271.812 341.925  12
   5   4  -3 328.719 347.703   6
  -5   4   3-133.124 295.325  11
   5  -4  -3 335.423 416.343  10
  -6  -4   3 1037.28 404.286   5
   6  -4  -3 1600.97 453.287   9
   6  -4  -3 979.654 444.935  16
   6   4  -3 1433.67 420.767   8
   6   4  -3 353.061 367.634   1
  -6  -4   3 618.669 419.203   4
   6  -4  -3 472.891 341.889  15
  -6  -4   3 971.361 401.728   7
  -6   4   3 740.186 371.948  14
  -6   4   3 1124.81 484.507  13
  -6  -4   3 1090.77 444.296   2
  -6   4   3 496.369 379.950  12
   6   4  -3 1062.11 465.214   6
   6   4  -3 373.238 395.551   3
  -7  -4   3 329.682 383.782   5
   7  -4  -3 108.210 321.068   9
   7   4  -3 126.301 354.598   8
   7   4  -3 19.5711 317.441   1
   7  -4  -3-246.393 386.179  16
  -7  -4   3-132.622 406.080   4
   7  -4  -3 861.212 455.899  15
  -7  -4   3 48.6118 390.824   7
  -7   4   3 563.055 419.001  14
  -7  -4   3-130.993 377.941   2
  -7   4   3 867.666 480.928  13
   7   4  -3 170.384 319.857   6
  -7   4   3 768.566 423.673  12
   7   4  -3 336.751 410.280   3
  -8  -4   3 2641.40 611.380   5
   8  -4  -3 2253.47 601.119   9
   8   4  -3 2658.51 572.262   8
   8   4  -3 2382.96 605.226   1
  -8  -4   3 2955.92 686.747   4
   8  -4  -3 2108.19 602.674  16
   8  -4  -3 2025.64 569.717  15
  -8   4   3 895.367 445.729  14
  -8  -4   3 2848.86 661.684   2
  -8   4   3 2935.62 684.728  13
  -8   4   3 1078.26 535.048  12
   8   4  -3 1317.24 569.186   3
   9  -4  -3 5579.75 1100.04   9
   9   4  -3 1391.62 565.747   1
   9   4  -3 595.161 484.142   8
   9  -4  -3 1826.80 647.041  16
   9  -4  -3 5646.06 1008.03  15
  -9   4   3-462.875 541.854  14
  -9  -4   3 727.452 510.802   2
  -9   4   3 622.131 520.667  13
  -9   4   3 489.053 427.196  12
   9   4  -3 1164.01 534.961   3
  10  -4  -3 1116.24 677.415   9
  10  -4  -3-134.837 499.392  15
 -10   4   3 115.219 457.014  14
 -10   4   3 291.535 518.471  13
 -10   4   3-385.232 420.529  12
  -3  -4   4 5735.03 736.697   2
   3   4  -4 4927.60 714.345   3
   3   4  -4 3658.69 571.729   1
  -3  -4   4 4102.27 676.787   4
  -3  -4   4 4602.07 723.752   7
   3   4  -4 5878.66 732.719   6
  -4  -4   4 1462.89 442.883   2
   4   4  -4 1423.97 472.243   3
   4   4  -4 1545.33 439.444   1
  -4  -4   4 2344.92 602.151   4
  -4  -4   4 1595.63 475.869   7
   4   4  -4 975.620 380.096   6
   5   4  -4 1820.27 529.350   3
   5  -4  -4 1968.08 540.330  16
  -5  -4   4 770.305 419.747   4
   5   4  -4 1099.95 438.084   1
  -5   4   4 467.286 433.682  14
  -5  -4   4 1222.31 471.637   7
   5   4  -4 2476.71 551.403   6
   5  -4  -4 1399.94 460.004  15
  -5  -4   4 1389.59 502.039   2
   6   4  -4 353.581 424.659   3
  -6  -4   4 278.972 398.540   5
   6   4  -4 29.2808 328.568   1
   6  -4  -4 56.3523 344.090   9
   6   4  -4-288.899 346.681   8
   6  -4  -4-160.875 400.272  16
   6  -4  -4 169.766 362.043  15
  -6  -4   4 149.249 382.832   4
  -6   4   4-236.197 403.536  14
  -6  -4   4-557.466 467.158   7
  -6   4   4 249.307 406.140  12
   6   4  -4 393.753 376.324   6
  -6  -4   4 431.057 458.379   2
  -7  -4   4 2360.75 574.026   5
   7  -4  -4 1968.42 544.051   9
   7   4  -4 1717.76 511.901   8
   7  -4  -4 1344.66 491.300  16
  -7  -4   4 905.672 441.401   4
   7  -4  -4 1127.85 408.811  15
  -7   4   4 1229.00 464.229  14
  -7  -4   4 2260.31 613.445   7
  -7   4   4 1186.15 524.498  13
  -7   4   4 1226.49 454.840  12
   7   4  -4 1156.36 440.157   6
  -7  -4   4 1898.32 573.320   2
   7   4  -4 1553.95 538.428   1
   7   4  -4 998.324 463.525   3
  -8  -4   4-553.171 483.832   5
   8  -4  -4-367.433 515.304   9
   8   4  -4 167.324 424.355   8
   8  -4  -4 48.0128 375.041  16
  -8  -4   4-364.430 510.364   4
   8  -4  -4-991.165 457.307  15
  -8   4   4 54.3322 387.163  14
  -8   4   4 475.751 441.166  13
  -8   4   4 86.2154 383.832  12
  -8  -4   4-13.2258 406.165   2
   8   4  -4-13.2699 441.570   1
   8   4  -4-79.5905 509.297   3
  -9  -4   4 2337.51 628.989   5
   9  -4  -4 4007.83 794.518   9
   9   4  -4 2770.04 641.818   8
   9  -4  -4 2461.76 646.493  16
   9  -4  -4 1815.26 605.202  15
  -9   4   4 2995.70 666.887  14
  -9   4   4 1900.49 609.834  13
   9   4  -4 2568.52 724.594   1
  -9   4   4 1735.83 639.849  12
  -9  -4   4 2625.84 697.725   2
  -9  -4   4 4411.33 867.119   4
   9   4  -4 3441.24 800.152   3
  10  -4  -4-127.272 460.779   9
  10   4  -4-371.111 522.732   8
  10  -4  -4-800.875 500.947  16
  10  -4  -4-58.1853 489.921  15
 -10   4   4 253.785 476.621  14
 -10   4   4-240.864 595.682  13
  10   4  -4 146.307 545.899   1
 -10   4   4 17.7409 491.748  12
   5   4  -5 4384.27 775.737   3
  -5  -4   5 3144.08 645.844   2
  -5  -4   5 3065.38 693.039   4
   5   4  -5 2978.26 590.597   1
   5   4  -5 2926.50 560.527   6
   6   4  -5 1751.74 589.772   3
  -6  -4   5 2525.98 577.892   2
  -6  -4   5 1479.81 472.881   5
  -6  -4   5 1087.21 550.903   4
  -6  -4   5 1444.43 492.543   7
   6   4  -5 1427.97 463.340   6
   6   4  -5 1377.62 459.930   1
   7   4  -5 509.114 514.462   3
  -7  -4   5 2074.70 647.968   2
  -7  -4   5 728.698 505.343   5
   7   4  -5 490.820 443.320   1
  -7  -4   5 1426.64 575.068   4
   7   4  -5 251.842 396.885   8
  -8  -4   5 736.314 502.604   2
   8  -4  -5 402.448 429.508  15
  -8  -4   5 1259.09 593.755   5
   8  -4  -5 1191.77 513.862   9
   8  -4  -5 874.138 472.785  16
  -8  -4   5 1040.45 605.933   4
   8   4  -5 460.522 463.273   8
  -8   4   5 649.994 573.106  13
  -8   4   5 1394.06 633.537  12
   8   4  -5 1008.60 489.395   1
   8   4  -5 1664.49 607.349   3
  -9  -4   5 1041.23 613.447   5
   9  -4  -5 2136.15 650.030   9
   9   4  -5 926.393 478.206   8
  -9  -4   5 739.864 511.588   4
   9  -4  -5 2350.18 685.210  16
   9  -4  -5 3045.13 740.190  15
  -9   4   5 625.369 528.845  14
   9   4  -5 1671.00 613.197   1
  -9   4   5 522.185 582.018  13
  -9   4   5 1770.92 729.953  12
   9   4  -5 504.554 505.295   3
  -9  -4   5 693.488 500.613   2
  10  -4  -5-675.707 570.260  15
   8   4  -6 1274.93 633.864   3
  -8  -4   6 1476.25 672.324   5
  -8  -4   6 239.508 492.783   2
   8   4  -6 475.408 453.276   1
  -8  -4   6-480.291 648.194   4
   9   4  -6 138.126 486.050   8
   0  -5   0 224.473 238.375  15
   0  -5   0-121.088 304.907   7
   0   5   0-154.467 251.175  14
   0   5   0 144.206 282.323   6
   0   5   0 250.624 343.612  11
   0  -5   0-144.222 308.011  10
   1  -5   0 133.427 264.266  16
   1  -5   0 14.3968 254.432  15
  -1  -5   0-240.103 358.027   7
   1  -5   0-291.457 304.072   7
  -1   5   0-240.283 241.994  14
  -1   5   0 284.516 361.444  13
   1   5   0-382.514 353.765   6
  -1   5   0-34.3563 278.595   6
   1   5   0 363.888 340.576  11
  -1   5   0-415.551 328.173  11
  -1  -5   0-434.279 377.332  10
   1  -5   0 39.1490 275.027  10
   2  -5   0 38221.6 1602.97  16
   2   5   0 40160.3 1564.14   1
  -2  -5   0 34337.4 1620.95   7
   2  -5   0 40058.0 1666.50  15
   2  -5   0 41457.7 1640.01   7
  -2   5   0 40724.5 1660.97  14
  -2   5   0 43279.3 1676.34  13
   2   5   0 40854.6 1774.20   6
  -2   5   0 42052.0 1587.61   6
   2   5   0 42008.3 1734.81  11
  -2   5   0 41305.3 1749.64  11
  -2  -5   0 40751.8 1701.59  10
   2  -5   0 39184.8 1724.46  10
   3  -5   0 4.21498 325.373  10
   3  -5   0 264.100 323.336  16
  -3  -5   0-167.764 342.716   7
   3  -5   0 65.1686 311.561  15
  -3  -5   0 190.114 295.092   2
  -3   5   0-474.389 349.125  14
  -3   5   0-157.809 355.917  13
   3   5   0 235.434 390.844   6
  -3   5   0-2.68875 392.342  11
   3   5   0 483.102 487.147   1
  -3  -5   0 183.642 308.399  10
   4  -5   0 534.318 371.876  10
   4  -5   0 1164.30 444.321  16
   4  -5   0 175.967 361.713  15
  -4   5   0 233.306 354.306  13
  -4   5   0 797.107 422.103  11
   5  -5   0 780.659 500.542  10
   5  -5   0 268.953 400.355  16
   5  -5   0-18.9864 364.847  15
  -5   5   0 28.3527 406.578  13
  -5   5   0-820.596 464.616  11
   6  -5   0 7890.90 1015.10  16
   6  -5   0 7641.04 975.019  15
  -6   5   0 8241.23 909.847  11
   0  -5  -1 869.842 344.279  15
   0  -5  -1 1221.78 409.083   7
   0  -5   1 905.542 349.500   7
   0   5   1 718.083 318.633   6
   0   5   1 611.219 338.129  11
   0   5  -1 893.460 360.977   6
   0   5  -1 565.640 369.388  11
   0  -5  -1 777.705 388.522  10
   0  -5   1 1053.70 391.016  10
   1  -5   1 614.826 373.281  10
   1  -5  -1 982.534 365.982  16
  -1  -5  -1 353.265 261.767  15
   1  -5  -1 378.569 316.282  15
  -1  -5  -1 745.489 331.095   7
   1  -5  -1 61.1836 293.983   7
   1  -5   1 415.960 285.428  15
  -1  -5   1 577.909 353.458   7
  -1   5   1-243.161 342.793  14
   1  -5   1 309.225 303.282   7
  -1   5  -1 541.949 296.890  14
   1   5   1 120.506 291.691   6
  -1   5   1 256.244 282.379   6
   1   5  -1 874.054 395.650   6
   1   5   1 264.603 297.714  11
  -1   5   1 621.348 357.054  11
  -1   5  -1 395.594 359.604   6
   1   5  -1 81.7594 277.971  11
  -1   5  -1 496.857 346.307  11
  -1  -5  -1-223.046 290.397  10
   1  -5  -1 161.873 284.254  10
  -1  -5   1 929.761 402.302  10
   2  -5   1 1544.82 423.612  10
   2  -5   1 2074.29 487.431  16
   2   5  -1 1187.38 333.980   1
  -2  -5   1 1034.65 359.695   4
   2  -5  -1 1089.89 355.959  16
   2  -5  -1 474.700 335.824  15
  -2  -5   1 1820.90 494.152   7
   2  -5   1 1442.78 450.184  15
   2  -5  -1 1660.83 388.201   7
  -2   5   1 1388.88 411.636  14
   2  -5   1 1242.68 411.682   7
  -2   5  -1 1064.01 367.226  13
  -2  -5   1 1291.32 370.843   2
  -2   5   1 337.933 354.762  13
  -2   5   1 1104.10 322.345   6
   2   5  -1 1062.87 402.767   6
   2   5  -1 1202.70 362.740  11
  -2   5   1 786.507 389.993  11
  -2   5  -1 918.661 406.497   6
   2   5  -1 1525.04 410.412   3
  -2   5  -1 1234.95 417.201  11
   2  -5  -1 1823.97 499.235  10
  -2  -5   1 1046.68 373.108  10
   3   5  -1 5940.38 675.585   1
  -3  -5   1 7132.33 761.873   4
   3  -5  -1 6015.04 719.674  16
  -3  -5   1 7297.78 844.429   7
   3  -5  -1 5698.10 705.445  15
   3  -5   1 6387.90 794.717  15
  -3   5   1 5727.78 722.720  14
  -3  -5   1 6238.72 680.517   2
  -3   5  -1 10468.2 1005.63  13
  -3   5   1 6832.25 780.781  13
   3   5  -1 5343.04 702.055   6
   3   5  -1 6020.75 715.905  11
   3   5  -1 5569.97 645.778   3
  -3   5   1 5883.53 743.104  11
  -3  -5   1 6649.04 725.678  10
   3  -5  -1 6224.19 729.832  10
   3  -5   1 8352.39 1024.00  10
   4  -5   1-29.6632 362.141  10
   4   5  -1 307.772 334.504   1
  -4  -5   1-3.96190 305.538   4
   4  -5   1 674.939 466.255  16
   4  -5  -1 210.110 367.289  16
   4  -5  -1-146.286 347.055  15
  -4  -5   1 915.035 431.051   7
  -4  -5   1 381.579 356.541   2
  -4   5   1-161.578 365.825  14
  -4   5   1 202.141 399.115  13
   4   5  -1-527.784 396.765   6
   4   5  -1 756.755 401.459   3
  -4   5   1 164.882 337.284  11
  -4  -5   1-57.9789 333.673  10
   4  -5  -1 319.166 301.813  10
   5   5  -1 1901.18 490.510   1
   5  -5  -1 2154.26 505.175  10
   5  -5  -1 3373.77 636.041  16
  -5  -5   1 1821.52 497.474   7
   5  -5  -1 3173.31 607.679  15
  -5  -5   1 2643.60 540.139   2
  -5   5   1 2275.84 516.126  14
  -5   5   1 2693.28 594.533  13
   5   5  -1 2656.10 598.180   6
  -5   5   1 3221.48 603.406  11
   6  -5  -1 528.349 430.779  10
   6  -5  -1-45.1192 413.755  16
   6  -5  -1 456.839 429.969  15
  -6   5   1-118.239 429.934  14
  -6   5   1 1397.18 544.137  13
  -6   5   1-44.7826 379.687  11
   7  -5  -1 796.625 524.099  16
   7  -5  -1 1858.75 624.726  15
  -7   5   1 1085.54 461.512  14
  -7   5   1 1466.68 516.393  13
  -7   5   1 504.994 403.455  11
   0  -5   2-174.532 340.667  10
   0  -5   2-117.629 399.436   7
   0   5  -2 13.0898 314.420   6
   0   5  -2-914.778 435.819  11
   1  -5   2 6384.63 829.839  10
  -1  -5   2 7797.00 737.842   4
   1  -5  -2 7957.73 750.700   7
  -1  -5   2 7202.26 809.387   7
   1  -5  -2 5766.20 701.408  15
   1  -5   2 6809.46 831.286   7
   1   5  -2 7284.76 679.025   1
  -1   5  -2 7520.98 782.051   6
   1   5  -2 6866.20 725.927  11
  -1   5   2 6555.54 789.908  11
   1   5  -2 6208.47 774.082   6
   1  -5  -2 6493.79 779.239  10
  -1  -5   2 6553.88 758.208  10
   2  -5   2-47.3650 400.713  10
   2   5  -2 235.646 277.873   1
   2  -5  -2 153.486 295.308  16
   2  -5  -2-568.637 399.994  15
  -2  -5   2 190.394 334.443   4
  -2   5   2 329.212 315.527  14
  -2  -5   2 498.576 361.484   7
  -2   5   2-261.553 350.230  11
   2   5  -2-18.6453 320.019   6
   2   5  -2 100.137 302.555  11
  -2  -5   2 104.602 304.479   2
  -2   5  -2-102.191 308.393   6
   2  -5  -2 279.789 332.373  10
   2   5  -2 151.872 330.897   3
  -2  -5   2-227.323 312.680  10
   3  -5  -2 4991.50 664.487  16
  -3  -5   2 5401.29 706.870   4
   3  -5  -2 5564.97 736.671  15
  -3  -5   2 4487.19 678.358   7
   3   5  -2 5827.20 692.395   1
  -3   5   2 4803.65 660.714  14
  -3  -5   2 5938.99 690.907   2
   3   5  -2 4864.13 691.695   6
  -3   5   2 5251.49 725.555  11
   3   5  -2 5101.27 641.175  11
   3   5  -2 6022.60 736.107   3
   3  -5  -2 4810.92 655.516  10
  -3  -5   2 5813.65 674.019  10
   4  -5  -2 846.343 381.506  16
   4   5  -2 1503.42 504.079   1
  -4  -5   2 79.9388 361.925   4
   4  -5  -2 1955.16 520.267  15
  -4  -5   2 819.786 416.031   7
  -4   5   2 1055.31 475.844  14
  -4  -5   2 1585.00 498.095   2
  -4   5   2 894.265 448.865  13
   4   5  -2 1095.54 437.804   6
  -4   5   2 332.123 342.095  11
   4   5  -2 640.243 438.907   3
   4  -5  -2 264.416 359.632  10
  -5  -5   2 7534.78 916.505   4
   5   5  -2 6615.29 803.100   1
  -5  -5   2 6921.82 857.272   2
   5  -5  -2 6038.77 813.093  16
   5  -5  -2 5583.34 787.699  15
  -5  -5   2 6243.51 823.260   7
  -5   5   2 5818.46 779.771  14
  -5   5   2 4914.21 735.013  13
   5   5  -2 7047.04 847.466   6
  -5   5   2 5499.40 736.745  11
   5   5  -2 6226.37 793.603   3
   5  -5  -2 6041.51 767.845  10
   6  -5  -2 581.033 387.495  10
   6   5  -2 1240.19 501.858   1
  -6  -5   2 365.095 418.967   4
   6  -5  -2 667.634 479.458  16
   6  -5  -2-43.0599 389.626  15
  -6  -5   2 1165.74 485.209   7
  -6   5   2 345.653 387.786  14
  -6  -5   2 151.610 353.242   2
  -6   5   2 723.926 478.177  13
   6   5  -2 1010.42 541.771   6
   6   5  -2 969.228 484.121   3
  -6   5   2 1107.32 504.432  11
   7   5  -2-121.924 352.765   1
   7  -5  -2 196.958 435.582  16
  -7  -5   2-457.466 448.056   7
   7  -5  -2-401.687 440.453  15
  -7  -5   2 601.978 416.859   2
  -7   5   2 205.080 385.947  14
  -7   5   2 290.004 444.862  13
   7   5  -2-874.437 530.618   3
   8  -5  -2 502.861 437.362  16
   8  -5  -2 636.045 483.310  15
  -8   5   2 771.385 481.678  14
  -8   5   2 871.936 530.075  13
   9  -5  -2 442.468 538.253  16
   9  -5  -2-427.358 552.424  15
  -9   5   2-185.066 523.524  14
   0  -5   3 6466.14 848.985   7
   0   5  -3 6761.38 796.960   6
  -1  -5   3 392.230 383.263  10
   1   5  -3-785.530 412.020   3
  -1  -5   3 38.4902 375.606   4
  -1  -5   3 164.025 388.040   7
   1   5  -3 269.744 334.410   6
   2   5  -3 998.996 381.077   1
  -2  -5   3 795.777 412.105  10
   2   5  -3 1350.25 473.262   3
  -2  -5   3 1427.76 473.422   2
  -2  -5   3 1237.13 455.337   4
  -2  -5   3 862.894 402.271   7
   2   5  -3 1324.16 476.336   6
   2   5  -3 1321.58 399.731  11
   3   5  -3-75.3241 384.268   3
   3  -5  -3 706.689 458.732  15
  -3  -5   3 218.270 368.552   4
  -3  -5   3 255.198 379.205   7
   3   5  -3 405.739 343.940   1
   3   5  -3 698.384 425.072   6
   3  -5  -3-703.367 417.230  10
  -3  -5   3 66.7259 400.896   2
   4   5  -3-234.749 362.987   1
   4  -5  -3-576.425 410.185  16
  -4  -5   3 207.080 387.080   4
   4  -5  -3 226.170 394.472  15
  -4   5   3 370.877 375.043  14
  -4  -5   3 2.95596 369.105   7
  -4   5   3 102.355 313.935  11
   4   5  -3-54.5078 352.902   6
  -4  -5   3-255.485 382.905   2
   4  -5  -3 445.026 379.924  10
   4   5  -3-242.195 343.097   3
   5  -5  -3 1263.99 477.800  16
  -5  -5   3 1252.86 504.589   4
   5  -5  -3 495.485 413.405  15
  -5  -5   3 1601.32 498.855   7
  -5   5   3 224.479 399.986  14
  -5   5   3 541.631 365.638  13
   5   5  -3 835.695 493.697   6
  -5  -5   3 821.391 438.375   2
  -5   5   3 560.615 340.058  11
   5   5  -3 527.574 369.358   1
   5   5  -3 2242.54 648.781   3
   5  -5  -3 48.0923 355.641  10
   6  -5  -3-112.502 376.402  16
  -6  -5   3 14.7801 398.270   4
   6  -5  -3-332.809 492.874  15
  -6  -5   3-961.079 534.148   7
   6   5  -3-633.190 437.192   1
  -6   5   3 586.951 467.473  14
  -6   5   3-249.649 478.986  13
  -6  -5   3-257.550 444.056   2
   6   5  -3 78.0707 398.373   6
   6   5  -3-120.419 384.938   3
  -7  -5   3-217.362 541.164   4
   7  -5  -3 226.131 427.642  16
   7   5  -3-350.197 387.618   1
   7  -5  -3 886.990 511.273  15
  -7  -5   3 97.2137 438.815   7
  -7   5   3 1606.94 665.810  14
  -7   5   3 135.440 454.381  13
  -7  -5   3 193.212 428.469   2
   7   5  -3-1451.25 666.203   6
   7   5  -3-212.259 642.677   3
  -8  -5   3 1999.10 564.972   4
   8  -5  -3 3758.41 804.921  16
   8   5  -3 1970.32 637.413   1
   8  -5  -3 2353.07 647.351  15
  -8  -5   3 2325.20 677.279   7
  -8   5   3 1777.50 614.244  14
  -8   5   3 2134.08 670.423  13
  -8  -5   3 1517.67 582.774   2
   8   5  -3 2005.16 664.514   3
   9  -5  -3 419.706 459.860  16
   9  -5  -3 696.855 622.548  15
  -9   5   3-419.198 514.630  14
  -9   5   3-1271.25 621.144  13
  -9   5   3 362.532 525.498  12
  10  -5  -3 2868.81 751.929   9
   2   5  -4 77.1460 380.585   3
  -2  -5   4-46.3104 456.357   4
  -2  -5   4-647.061 506.667   7
   2   5  -4 24.1787 413.074   6
   3   5  -4 2393.28 590.474   3
  -3  -5   4 2562.40 600.772   2
  -3  -5   4 1945.45 595.621   4
  -3  -5   4 2490.48 693.705   7
   3   5  -4 2877.31 569.004   1
   3   5  -4 2953.87 632.150   6
   4   5  -4 1009.22 513.547   3
  -4  -5   4 563.498 369.112   2
  -4  -5   4 12.7029 465.260   4
  -4  -5   4 69.8126 411.136   7
   4   5  -4 624.670 421.503   1
   4   5  -4 292.234 391.336   6
   5   5  -4 2092.63 626.950   3
  -5  -5   4 1966.30 582.282   2
  -5  -5   4 1629.43 597.396   4
  -5  -5   4 1716.53 549.728   7
   5   5  -4 2371.60 613.438   6
   5   5  -4 2549.27 556.658   1
   6   5  -4-375.326 484.625   1
   6  -5  -4 556.524 443.968  16
  -6  -5   4-230.851 469.431   4
   6  -5  -4-240.622 408.764  15
  -6   5   4 784.932 510.351  14
  -6  -5   4 480.896 524.074   7
  -6   5   4-531.443 570.419  13
   6   5  -4 968.798 504.845   6
  -6  -5   4 387.174 501.388   2
   6   5  -4 828.276 507.722   3
   7   5  -4 279.744 431.593   1
   7  -5  -4 720.838 485.192  16
  -7  -5   4 460.504 553.848   4
   7  -5  -4 1751.10 640.016  15
  -7   5   4 654.706 486.492  14
  -7  -5   4-318.725 506.744   7
  -7   5   4 159.372 500.023  13
   7   5  -4 273.239 463.507   6
  -7  -5   4-100.274 549.897   2
   7   5  -4 611.319 522.030   3
   8   5  -4 756.448 464.851   1
   8  -5  -4-394.153 493.684   9
  -8  -5   4 335.252 489.267   4
   8  -5  -4 439.360 540.404  16
   8  -5  -4-415.652 450.000  15
  -8   5   4-945.575 550.961  14
  -8   5   4-1222.20 610.381  13
  -8   5   4 186.742 439.207  12
  -8  -5   4 507.393 605.627   2
   8   5  -4 661.809 523.659   3
   9  -5  -4-64.6068 542.871   9
  -9   5   4-3.11563 509.861  12
   5   5  -5 266.197 339.890   1
   5   5  -5 1283.26 506.763   3
  -5  -5   5 152.244 649.704   4
   5   5  -5 159.401 441.673   6
   6   5  -5 1322.58 621.686   3
  -6  -5   5 984.137 496.794   2
   6   5  -5 177.165 397.546   1
  -6  -5   5 805.361 606.693   4
  -6  -5   5 827.002 611.124   7
   6   5  -5 263.046 520.383   6
  -7  -5   5 2499.67 723.340   2
  -7  -5   5 962.155 629.894   4
   7   5  -5 1735.29 624.278   1
  -7  -5   5 2351.69 769.010   7
   7   5  -5 1030.41 560.389   6
   7   5  -5 1707.60 690.529   3
   0  -6   0 95220.4 2886.40   7
   0   6   0 94316.3 2846.08   6
   0   6   0 91599.0 2878.88  11
   0  -6   0 86142.8 2824.58  10
  -1  -6   0 135.062 402.086   7
   1  -6   0 432.988 387.455   7
   1   6   0 77.6188 358.097   6
  -1   6   0-46.9307 383.089   6
   1   6   0-462.001 453.639  11
  -1   6   0 334.338 387.843  11
  -1  -6   0-420.075 434.033  10
   1  -6   0 44.0663 385.993  10
   2  -6   0 3260.50 556.408  15
  -2  -6   0 3133.01 613.869   7
  -2   6   0 4030.74 698.770  14
   2   6   0 3069.55 630.923   6
   2   6   0 4161.77 711.817  11
  -2   6   0 4153.04 722.981  11
  -2  -6   0 3157.38 609.658  10
   2  -6   0 3014.63 611.819  10
   3  -6   0-691.107 493.824  10
   3  -6   0 643.478 441.805  16
  -3  -6   0 109.203 348.135   7
   3  -6   0 342.237 425.494  15
  -3   6   0-66.6595 337.927  14
  -3   6   0 232.837 465.310  13
   3   6   0-261.301 389.024   6
  -3   6   0-477.976 453.649  11
  -3  -6   0-42.0103 334.340  10
   4  -6   0 273.395 407.015  10
   4  -6   0 671.889 477.093  16
   4  -6   0 670.676 453.976  15
  -4   6   0 271.853 408.802  14
  -4   6   0 91.0410 398.774  13
  -4   6   0-43.4444 423.078  11
   5  -6   0-670.197 462.671  10
   5  -6   0 62.7914 470.864  16
   5  -6   0 160.216 436.853  15
  -5   6   0-597.369 502.534  14
  -5   6   0-16.0524 452.505  13
  -5   6   0-20.7521 464.788  11
  -6   6   0 506.343 504.834  11
   0  -6  -1 51.0751 364.327   7
   0  -6   1-72.5045 366.287   7
   0   6   1-86.0226 357.161   6
   0   6  -1 191.901 392.933   6
   0   6   1-118.170 439.448  11
   0   6  -1-16.3482 379.539  11
   0  -6  -1-205.730 440.383  10
   0  -6   1 727.385 458.031  10
   1  -6   1 1289.59 480.845  10
   1  -6  -1 1971.92 456.238  15
  -1  -6  -1 2000.14 539.366   7
   1  -6  -1 2171.34 509.705   7
  -1  -6   1 1381.04 503.875   7
   1  -6   1 2396.64 604.093   7
  -1   6   1 2300.83 518.844   6
   1   6  -1 950.123 483.494   6
  -1   6  -1 2018.10 559.944   6
  -1   6   1 1595.65 496.154  11
   1   6  -1 985.713 418.367  11
  -1   6  -1 1217.11 441.639  11
  -1  -6  -1 1364.02 480.099  10
   1  -6  -1 2841.67 661.006  10
  -1  -6   1 1014.29 381.333  10
   2  -6   1 1700.49 564.503  10
   2  -6  -1 1108.22 398.823  16
   2  -6  -1 1494.50 471.109  15
  -2  -6   1 1504.16 587.294   7
  -2   6   1 2246.27 570.254  14
   2  -6   1 2473.88 622.960   7
  -2   6   1 1668.93 559.107  13
   2   6  -1 1670.94 505.550   6
  -2   6  -1 1040.38 449.864   6
   2   6  -1 2103.08 549.477  11
  -2   6   1 1518.44 557.216  11
  -2   6  -1 1687.43 539.436  11
   2  -6  -1 1748.04 533.196  10
  -2  -6   1 1266.15 459.456  10
   3  -6   1 2619.56 649.188  10
   3  -6  -1 3641.70 643.661  16
   3  -6  -1 2459.62 570.144  15
  -3  -6   1 3530.83 687.467   7
   3  -6   1 2487.00 559.505  15
  -3   6   1 2196.64 619.956  14
  -3   6  -1 2964.96 591.544  14
  -3   6   1 3738.80 711.216  13
   3   6  -1 3113.20 619.887   6
   3   6  -1 2562.51 568.399  11
  -3   6   1 1594.47 516.212  11
  -3   6  -1 3210.67 679.820  11
  -3  -6   1 2710.60 520.522  10
   3  -6  -1 3094.29 653.636  10
   4  -6  -1 616.097 479.247  10
   4  -6   1 1433.80 577.965  10
   4   6  -1-29.0986 422.175   1
   4  -6   1 1492.48 523.895  16
   4  -6  -1 1065.16 398.833  16
   4  -6  -1 643.271 405.445  15
  -4  -6   1 508.705 492.605   7
  -4   6   1 1125.03 500.507  14
  -4   6   1 589.311 446.509  13
   4   6  -1 1079.32 479.358   6
  -4   6   1 504.090 444.218  11
  -4   6  -1 1562.23 512.220  11
   5  -6  -1 1976.73 642.484  10
   5  -6  -1 1528.07 586.351  16
   5  -6  -1 1615.26 511.172  15
  -5   6   1 1878.05 628.728  14
  -5   6   1 2036.49 629.312  13
  -5   6   1 2644.95 678.981  11
   6  -6  -1-407.792 449.686  10
   6  -6  -1-102.131 504.020  16
   6  -6  -1-239.993 393.880  15
  -6   6   1 1040.31 545.956  14
  -6   6   1 856.068 611.986  13
  -6   6   1-249.592 489.308  11
   7  -6  -1-466.763 608.978  16
   7  -6  -1 264.314 490.841  15
  -7   6   1-435.687 554.913  14
  -7   6   1 416.299 506.786  13
  -7   6   1 157.242 471.239  11
   0  -6   2 130.861 385.370  10
   0  -6   2-22.0211 417.060   7
   0   6  -2 95.3411 400.447   6
   0   6  -2 839.967 473.133  11
  -1  -6   2 327.609 395.220  10
   1  -6   2-102.442 409.848  10
  -1  -6   2 418.346 430.592   7
   1  -6   2 334.896 413.871   7
   1   6  -2 194.522 419.953   6
  -1   6  -2 322.515 385.884   6
   1   6  -2 206.972 421.182  11
  -1   6  -2 1035.79 453.246  11
  -2  -6   2 112.731 396.432  10
   2  -6   2 339.349 435.691  10
   2  -6  -2-464.461 408.595  15
  -2  -6   2 151.518 443.585   7
   2   6  -2 70.4473 395.407   6
  -2   6   2 199.336 413.645  11
   2   6  -2 244.594 426.153  11
  -2   6  -2 47.5683 367.895   6
  -2   6  -2 641.160 413.180  11
   2  -6  -2-246.881 408.936  10
  -3  -6   2 1900.48 553.851  10
   3   6  -2 436.114 401.423   1
  -3  -6   2 1324.84 532.324   4
   3  -6  -2 1253.76 354.652  16
   3  -6  -2 1488.51 547.418  15
  -3  -6   2 1086.54 514.650   7
  -3   6   2 554.298 372.018  14
  -3   6   2 1813.74 584.971  13
   3   6  -2 1362.53 495.517   6
  -3   6   2 287.756 420.493  11
   3   6  -2 1663.96 524.296  11
   3  -6  -2 501.864 407.684  10
   4  -6  -2-217.052 418.652  16
   4  -6  -2 281.341 395.207  15
  -4  -6   2 861.935 543.908   7
  -4   6   2-195.673 425.859  14
  -4   6   2-441.199 466.044  13
   4   6  -2-790.677 451.508   1
   4   6  -2-1210.30 574.983   6
  -4  -6   2 81.9286 412.393   2
  -4   6   2 59.7333 409.333  11
   4   6  -2-723.484 475.812   3
   4  -6  -2 324.778 367.231  10
   5  -6  -2 4664.29 773.145  10
  -5  -6   2 5559.24 845.764   4
   5  -6  -2 4739.36 760.185  16
   5  -6  -2 5332.94 838.373  15
   5   6  -2 3305.78 634.321   1
  -5  -6   2 3483.44 724.122   7
  -5   6   2 4289.93 774.235  14
  -5   6   2 4977.48 836.424  13
  -5  -6   2 4313.71 750.690   2
   5   6  -2 4651.36 799.254   6
   5   6  -2 4972.04 832.574   3
  -5   6   2 6212.33 883.696  11
   6  -6  -2 34.6922 464.602  10
   6  -6  -2-132.182 437.356  16
   6   6  -2-497.779 506.193   1
   6  -6  -2 465.015 468.473  15
  -6  -6   2 273.610 484.704   7
  -6   6   2 654.534 428.019  14
  -6   6   2 829.655 570.267  13
  -6  -6   2 461.759 479.754   2
   6   6  -2 448.941 404.283   6
  -6   6   2-236.115 415.261  11
   7  -6  -2 705.066 609.054  16
   7  -6  -2 225.926 422.285  15
  -7   6   2 307.566 517.025  14
  -7   6   2 440.130 513.074  13
   0   6  -3 162.590 446.799   6
   0   6  -3 299.707 390.137  11
  -1  -6   3 1432.64 575.977  10
  -1  -6   3-383.418 478.098   7
   1   6  -3-170.211 470.874   6
   1   6  -3 779.443 517.180  11
  -2  -6   3 1038.99 412.090  10
  -2  -6   3 2514.17 641.023   7
   2   6  -3 2509.55 699.128   6
   2   6  -3 3284.25 644.873  11
   3   6  -3 65.0492 339.556   1
  -3  -6   3-287.644 519.656   4
  -3  -6   3 2.60936 457.492   7
   3   6  -3 212.431 458.358   6
  -4  -6   3 1762.02 535.929   4
   4  -6  -3 1846.59 580.826  16
   4  -6  -3 1603.01 620.708  15
  -4  -6   3 2354.98 681.055   7
  -4   6   3 1314.17 576.120  13
   4   6  -3 1846.57 563.339   1
   4   6  -3 1339.05 511.504   6
   4   6  -3 831.997 435.090   3
   4  -6  -3 1479.53 551.981  10
  -4  -6   3 2456.75 689.629   2
   5   6  -3-781.504 493.502   1
  -5  -6   3-499.591 574.142   4
   5  -6  -3-0.25869 397.468  16
   5  -6  -3 761.332 584.116  15
  -5   6   3 325.477 479.921  14
  -5  -6   3 306.075 507.214   7
  -5   6   3-319.973 484.728  13
   5   6  -3 187.948 442.609   6
  -5   6   3-59.5179 426.026  11
   5   6  -3 379.732 513.112   3
  -5  -6   3-936.799 489.379   2
   5  -6  -3 133.568 418.526  10
  -6  -6   3 190.011 531.900   4
   6  -6  -3-351.157 528.679  16
   6  -6  -3-349.169 544.439  15
  -6   6   3 90.7437 415.604  14
  -6  -6   3-234.313 606.707   7
  -6   6   3 486.126 557.799  13
   6   6  -3 952.494 570.679   6
  -6  -6   3-234.900 461.174   2
   6   6  -3 521.912 440.575   3
   6   6  -3-60.2951 426.217   1
   7  -6  -3-455.426 522.453  16
   7  -6  -3 52.9917 515.454  15
  -7  -6   3-760.958 510.412   7
   7   6  -3-534.111 571.286   6
   7   6  -3 172.036 504.429   1
  -7  -6   3-337.375 539.957   2
   7   6  -3-550.333 571.278   3
   3   6  -4 1560.71 556.311   3
  -3  -6   4 859.771 600.515   4
  -3  -6   4 760.629 519.768   7
   3   6  -4 1434.89 564.339   6
  -4  -6   4 687.256 525.589   2
  -4  -6   4-73.0355 508.879   4
  -4  -6   4 205.840 567.125   7
   4   6  -4 273.588 376.848   1
   4   6  -4 873.604 506.732   6
   4   6  -4 695.079 612.707   3
  -5  -6   4-393.022 581.728   2
  -5  -6   4 631.318 596.284   4
   5   6  -4 542.230 481.340   1
  -5  -6   4 843.812 583.360   7
   5   6  -4 800.968 568.606   6
   5   6  -4 940.812 624.240   3
  -6  -6   4 966.140 574.315   2
   6   6  -4-174.995 471.946   1
  -6  -6   4 1053.72 675.575   4
  -6  -6   4-119.399 525.203   7
   6   6  -4-961.730 645.580   6
   6   6  -4 748.139 615.995   3
   0  -7   0-992.413 614.242   7
   0   7   0-118.251 422.235   6
   0   7   0-1028.40 589.458  11
   0  -7   0-66.4998 386.417  10
  -1  -7   0-855.940 492.233   7
   1   7   0-128.120 486.355   6
  -1   7   0 347.010 473.072   6
   1   7   0-67.7277 412.065  11
  -1   7   0-595.830 588.999  11
  -1  -7   0 275.354 436.937  10
   1  -7   0 168.324 468.194  10
   2  -7   0 7109.75 1015.09  10
  -2  -7   0 6735.42 923.327   7
  -2   7   0 7448.20 1059.74  11
  -2  -7   0 5746.96 830.166  10
   3  -7   0 705.669 577.212  10
  -3   7   0 442.792 431.309  11
   4  -7   0-457.174 563.796  10
   4  -7   0 388.950 518.207  15
  -4   7   0-271.966 458.587  14
  -4   7   0-232.447 465.839  11
   5  -7   0-1143.30 635.539  10
   5  -7   0 925.123 641.989  16
   5  -7   0 1555.22 724.235  15
  -5   7   0 315.228 436.079  14
  -5   7   0-958.964 559.549  11
   0  -7   1 249.962 461.629  10
   0  -7   1-349.928 459.676   7
   0   7  -1-355.468 511.530   6
   0   7   1 797.198 567.117  11
   0   7  -1 1022.39 542.632  11
   0  -7  -1 1182.74 561.707  10
  -1  -7   1-169.981 480.269  10
   1  -7   1 280.860 454.494  10
  -1  -7   1 184.415 516.779   7
   1  -7   1 140.198 470.368   7
   1   7  -1 230.572 424.626   6
  -1   7  -1-1003.39 561.186   6
  -1   7   1 479.826 449.106  11
   1   7  -1-725.142 591.398  11
  -1   7  -1 844.065 474.818  11
   1  -7  -1-71.4423 500.639  10
   2  -7   1 415.123 510.540  10
  -2  -7   1 18.2954 478.831   7
   2   7  -1 283.555 517.846   6
   2   7  -1-5.10236 467.054  11
  -2   7   1-558.308 464.339  11
  -2   7  -1 464.598 451.445  11
   2  -7  -1 1564.50 667.101  10
  -2  -7   1 170.138 458.651  10
   3  -7  -1 1250.35 555.378  10
   3  -7   1 900.479 572.290  10
   3  -7  -1 901.323 524.687  15
  -3  -7   1 378.840 518.256   7
  -3   7   1-53.4701 437.290  14
   3   7  -1 1474.41 629.566   6
  -3   7   1 549.082 556.499  11
  -3   7  -1 415.688 495.800  11
  -3  -7   1 432.559 396.503  10
   4  -7  -1-902.965 605.273  10
   4  -7  -1 513.354 575.789  16
   4  -7  -1-107.424 499.845  15
  -4  -7   1-102.822 491.083   7
  -4   7   1-811.354 567.859  14
  -4   7   1 12.4821 486.983  13
   4   7  -1 256.809 510.785   6
  -4   7   1-497.575 580.324  11
   5  -7  -1-476.761 579.671  10
   5  -7  -1 1352.88 669.180  16
   5  -7  -1 1430.46 513.835  15
  -5   7   1 335.478 482.101  14
  -5   7   1 647.359 592.220  13
  -5   7   1 922.394 594.713  11
   0  -7   2 264.437 558.369  10
   0  -7   2 732.213 530.855   7
   0   7  -2 595.349 518.406   6
   0   7  -2-907.928 548.608  11
  -1  -7   2 1814.68 707.994  10
   1  -7   2 1069.47 720.671  10
  -1  -7   2 450.572 607.818   7
   1  -7   2 2361.26 785.667   7
   1   7  -2 1343.48 599.854   6
  -1   7  -2 341.307 441.876   6
   1   7  -2-513.344 445.667  11
  -1   7  -2 1731.47 719.703  11
  -2  -7   2-225.219 486.211  10
  -2  -7   2-353.437 614.911   7
   2   7  -2 64.8580 499.620   6
   2   7  -2 522.822 516.400  11
   3  -7  -2 1598.01 576.256  15
  -3  -7   2 1468.16 697.591   7
  -3   7   2 704.579 550.467  13
   3   7  -2 1345.92 502.233   6
  -3   7   2 667.692 537.163  11
   3  -7  -2 129.997 512.338  10
   4  -7  -2-412.508 560.713  16
   4  -7  -2 39.9207 467.634  15
  -4   7   2 844.175 618.351  14
  -4  -7   2 387.864 594.620   7
  -4   7   2-845.432 573.833  13
   4   7  -2-530.311 580.605   6
  -4   7   2 579.596 541.547  11
   4  -7  -2-452.797 479.803  10
   5  -7  -2 521.519 618.593  10
   5  -7  -2 1704.98 659.782  16
  -5   7   2 1531.24 650.766  13
  -5   7   2 792.739 653.428  11
  -1  -7   3-223.544 498.263   7
   1   7  -3-137.752 487.910   6
   1   7  -3-394.257 591.350  11
  -2  -7   3-998.134 761.708   7
   2   7  -3 449.410 660.505   6
   2   7  -3-155.957 600.223  11
  -3  -7   3-596.168 674.115   7
   3   7  -3 1446.33 693.931   6
   5   7  -3 736.781 631.823   1
   0   0   0    0.00    0.00   0

TITL 1a in Pnma
REM Pnma (#62, found as Pmcn in cab setting)
CELL 0.71073  10.667961   6.204194   8.780219  90.0000  90.0000  90.0000
ZERR    4.00   0.002011   0.000689   0.003647   0.0000   0.0000   0.0000
LATT  1
SYMM -x+1/2,-y, z+1/2
SYMM -x, y+1/2,-z
SYMM  x+1/2,-y+1/2,-z+1/2
SFAC C H N Cl
UNIT 16.00 8.00 20.00 4.00
TREF
HKLF 4
END
;
_shelx_hkl_checksum              11644
_olex2_submission_special_instructions 'No special instructions were received'
_oxdiff_exptl_absorpt_empirical_details
;
Empirical correction (ABSPACK) includes:
- Absorption correction using spherical harmonics
- Frame scaling
;
_oxdiff_exptl_absorpt_empirical_full_max 1.326
_oxdiff_exptl_absorpt_empirical_full_min 0.911
loop_
_space_group_symop_operation_xyz
'x, y, z'
'-x+1/2, -y, z+1/2'
'x+1/2, -y+1/2, -z+1/2'
'-x, y+1/2, -z'
'-x, -y, -z'
'x-1/2, y, -z-1/2'
'-x-1/2, y-1/2, z-1/2'
'x, -y-1/2, z'
loop_
_atom_site_label
_atom_site_type_symbol
_atom_site_fract_x
_atom_site_fract_y
_atom_site_fract_z
_atom_site_U_iso_or_equiv
_atom_site_adp_type
_atom_site_occupancy
_atom_site_site_symmetry_order
_atom_site_calc_flag
_atom_site_refinement_flags_posn
_atom_site_refinement_flags_adp
_atom_site_refinement_flags_occupancy
_atom_site_disorder_assembly
_atom_site_disorder_group
Cl1 Cl 0.61432(15) 0.750000 0.9123(3) 0.0670(10) Uani 1 2 d S T P . .
C6 C 0.6267(4) 0.750000 0.7208(11) 0.037(3) Uani 1 2 d S T P . .
C7 C 0.7478(5) 0.750000 0.6485(8) 0.053(3) Uani 1 2 d S T P . .
H7 H 0.820363 0.750000 0.707122 0.063 Uiso 1 2 calc R U P . .
N6 N 0.5355(4) 0.750000 0.4951(10) 0.031(3) Uani 1 2 d S T P . .
N1 N 0.6145(5) 0.750000 0.2652(9) 0.057(3) Uani 1 2 d S T P . .
N5 N 0.5194(4) 0.750000 0.6431(8) 0.037(2) Uani 1 2 d S T P . .
C8 C 0.7552(5) 0.750000 0.4979(10) 0.050(3) Uani 1 2 d S T P . .
H8 H 0.832933 0.750000 0.449951 0.060 Uiso 1 2 calc R U P . .
N2 N 0.4922(8) 0.750000 0.2641(15) 0.063(3) Uani 1 2 d S T P . .
N3 N 0.4373(6) 0.750000 0.3954(14) 0.063(4) Uani 1 2 d S T P . .
C9 C 0.6447(6) 0.750000 0.4118(12) 0.054(5) Uani 1 2 d S T P . .
loop_
_atom_site_aniso_label
_atom_site_aniso_U_11
_atom_site_aniso_U_22
_atom_site_aniso_U_33
_atom_site_aniso_U_23
_atom_site_aniso_U_13
_atom_site_aniso_U_12
Cl1 0.0895(14) 0.0686(8) 0.043(3) 0.000 -0.0039(8) 0.000
C6 0.067(6) 0.038(2) 0.006(14) 0.000 0.001(3) 0.000
C7 0.022(4) 0.055(2) 0.081(13) 0.000 -0.008(2) 0.000
N6 0.043(4) 0.0382(18) 0.011(11) 0.000 -0.003(3) 0.000
N1 0.078(5) 0.054(2) 0.040(11) 0.000 -0.012(4) 0.000
N5 0.038(4) 0.0415(18) 0.031(9) 0.000 -0.002(3) 0.000
C8 0.040(5) 0.056(2) 0.055(11) 0.000 0.008(3) 0.000
N2 0.080(6) 0.053(2) 0.057(14) 0.000 -0.012(4) 0.000
N3 0.044(5) 0.048(2) 0.097(15) 0.000 -0.022(3) 0.000
C9 0.032(6) 0.038(2) 0.092(19) 0.000 0.001(3) 0.000
loop_
_atom_type_symbol
_atom_type_description
_atom_type_scat_dispersion_real
_atom_type_scat_dispersion_imag
_atom_type_scat_source
C C 0.0033 0.0016 'International Tables Vol C Tables 4.2.6.8 and 6.1.1.4'
H H 0.0000 0.0000 'International Tables Vol C Tables 4.2.6.8 and 6.1.1.4'
Cl Cl 0.1484 0.1585 'International Tables Vol C Tables 4.2.6.8 and 6.1.1.4'
N N 0.0061 0.0033 'International Tables Vol C Tables 4.2.6.8 and 6.1.1.4'
loop_
_geom_angle_atom_site_label_1
_geom_angle_atom_site_label_2
_geom_angle_atom_site_label_3
_geom_angle
_geom_angle_site_symmetry_1
_geom_angle_site_symmetry_3
_geom_angle_publ_flag
C7 C6 Cl1 120.7(5) . . ?
N5 C6 Cl1 116.3(5) . . ?
N5 C6 C7 123.0(8) . . ?
C6 C7 H7 120.2 . . ?
C8 C7 C6 119.6(5) . . ?
C8 C7 H7 120.2 . . ?
N5 N6 N3 122.3(7) . . ?
N5 N6 C9 129.7(5) . . ?
N3 N6 C9 108.0(9) . . ?
N2 N1 C9 104.5(7) . . ?
N6 N5 C6 113.3(5) . . ?
C7 C8 H8 120.4 . . ?
C7 C8 C9 119.2(5) . . ?
C9 C8 H8 120.4 . . ?
N3 N2 N1 116.5(13) . . ?
N2 N3 N6 102.9(7) . . ?
N6 C9 C8 115.2(9) . . ?
N1 C9 N6 108.1(5) . . ?
N1 C9 C8 136.7(8) . . ?
loop_
_geom_bond_atom_site_label_1
_geom_bond_atom_site_label_2
_geom_bond_distance
_geom_bond_site_symmetry_2
_geom_bond_publ_flag
Cl1 C6 1.687(9) . ?
C6 C7 1.440(10) . ?
C6 N5 1.332(8) . ?
C7 H7 0.9300 . ?
C7 C8 1.324(8) . ?
N6 N5 1.310(8) . ?
N6 N3 1.366(13) . ?
N6 C9 1.375(12) . ?
N1 N2 1.305(9) . ?
N1 C9 1.327(12) . ?
C8 H8 0.9300 . ?
C8 C9 1.401(11) . ?
N2 N3 1.293(15) . ?
loop_
_geom_torsion_atom_site_label_1
_geom_torsion_atom_site_label_2
_geom_torsion_atom_site_label_3
_geom_torsion_atom_site_label_4
_geom_torsion
_geom_torsion_site_symmetry_1
_geom_torsion_site_symmetry_2
_geom_torsion_site_symmetry_3
_geom_torsion_site_symmetry_4
_geom_torsion_publ_flag
Cl1 C6 C7 C8 180.000(2) . . . . ?
Cl1 C6 N5 N6 180.000(1) . . . . ?
C6 C7 C8 C9 0.000(2) . . . . ?
C7 C6 N5 N6 0.000(1) . . . . ?
C7 C8 C9 N6 0.000(2) . . . . ?
C7 C8 C9 N1 180.000(1) . . . . ?
N1 N2 N3 N6 0.000(2) . . . . ?
N5 C6 C7 C8 0.000(2) . . . . ?
N5 N6 N3 N2 180.000(1) . . . . ?
N5 N6 C9 N1 180.000(1) . . . . ?
N5 N6 C9 C8 0.000(2) . . . . ?
N2 N1 C9 N6 0.000(1) . . . . ?
N2 N1 C9 C8 180.000(1) . . . . ?
N3 N6 N5 C6 180.000(1) . . . . ?
N3 N6 C9 N1 0.000(1) . . . . ?
N3 N6 C9 C8 180.000(1) . . . . ?
C9 N6 N5 C6 0.000(2) . . . . ?
C9 N6 N3 N2 0.000(2) . . . . ?
C9 N1 N2 N3 0.000(1) . . . . ?
