#------------------------------------------------------------------------------
#$Date: 2022-03-06 06:37:54 +0200 (Sun, 06 Mar 2022) $
#$Revision: 273468 $
#$URL: file:///home/coder/svn-repositories/cod/cif/1/56/59/1565949.cif $
#------------------------------------------------------------------------------
#
# This file is available in the Crystallography Open Database (COD),
# http://www.crystallography.net/
#
# All data on this site have been placed in the public domain by the
# contributors.
#
data_1565949
loop_
_publ_author_name
'Wildner, Manfred'
'Zakharov, Boris A.'
'Bogdanov, Nikita E.'
'Talla, Dominik'
'Boldyreva, Elena V.'
'Miletich, Ronald'
_publ_section_title
;
 Crystallography relevant to Mars and Galilean icy moons: crystal behavior
 of kieserite-type monohydrate sulfates at extraterrestrial conditions
 down to 15 K
;
_journal_issue                   2
_journal_name_full               IUCrJ
_journal_page_first              194
_journal_page_last               203
_journal_paper_doi               10.1107/S2052252521012720
_journal_volume                  9
_journal_year                    2022
_chemical_formula_sum            'Fe H2 Mg0 O5 S'
_chemical_formula_weight         169.93
_space_group_crystal_system      monoclinic
_space_group_IT_number           15
_space_group_name_Hall           '-C 2yc'
_space_group_name_H-M_alt        'C 1 2/c 1'
_atom_sites_solution_hydrogens   difmap
_audit_creation_method           SHELXL-2017/1
_cell_angle_alpha                90
_cell_angle_beta                 118.579(10)
_cell_angle_gamma                90
_cell_formula_units_Z            4
_cell_length_a                   7.0802(10)
_cell_length_b                   7.5565(10)
_cell_length_c                   7.7755(10)
_cell_measurement_temperature    273(2)
_cell_volume                     365.31(9)
_computing_structure_refinement  'SHELXL-2017/1 (Sheldrick, 2017)'
_diffrn_ambient_temperature      273(2)
_diffrn_measured_fraction_theta_full 0.991
_diffrn_measured_fraction_theta_max 0.997
_diffrn_radiation_type           MoK\a
_diffrn_radiation_wavelength     0.71073
_diffrn_reflns_av_R_equivalents  0.0320
_diffrn_reflns_av_unetI/netI     0.0140
_diffrn_reflns_Laue_measured_fraction_full 0.991
_diffrn_reflns_Laue_measured_fraction_max 0.997
_diffrn_reflns_limit_h_max       12
_diffrn_reflns_limit_h_min       -12
_diffrn_reflns_limit_k_max       13
_diffrn_reflns_limit_k_min       -13
_diffrn_reflns_limit_l_max       14
_diffrn_reflns_limit_l_min       -14
_diffrn_reflns_number            10420
_diffrn_reflns_point_group_measured_fraction_full 0.991
_diffrn_reflns_point_group_measured_fraction_max 0.997
_diffrn_reflns_theta_full        25.242
_diffrn_reflns_theta_max         39.986
_diffrn_reflns_theta_min         4.191
_exptl_absorpt_coefficient_mu    4.583
_exptl_absorpt_correction_T_max  0.7479
_exptl_absorpt_correction_T_min  0.5502
_exptl_absorpt_correction_type   multi-scan
_exptl_absorpt_process_details
;
 SADABS 2016/2: Krause, L., Herbst-Irmer, R., Sheldrick G.M. & Stalke D.,
 J. Appl. Cryst. 48 (2015) 3-10
;
_exptl_crystal_density_diffrn    3.090
_exptl_crystal_F_000             336
_refine_diff_density_max         0.512
_refine_diff_density_min         -0.833
_refine_diff_density_rms         0.094
_refine_ls_extinction_coef       0.231(4)
_refine_ls_extinction_expression Fc^*^=kFc[1+0.001xFc^2^\l^3^/sin(2\q)]^-1/4^
_refine_ls_extinction_method     'SHELXL-2017/1 (Sheldrick 2017)'
_refine_ls_goodness_of_fit_ref   1.101
_refine_ls_hydrogen_treatment    refall
_refine_ls_matrix_type           full
_refine_ls_number_parameters     40
_refine_ls_number_reflns         1137
_refine_ls_number_restraints     0
_refine_ls_restrained_S_all      1.101
_refine_ls_R_factor_all          0.0140
_refine_ls_R_factor_gt           0.0137
_refine_ls_shift/su_max          0.000
_refine_ls_shift/su_mean         0.000
_refine_ls_structure_factor_coef Fsqd
_refine_ls_weighting_details
'w=1/[\s^2^(Fo^2^)+(0.0180P)^2^+0.1700P] where P=(Fo^2^+2Fc^2^)/3'
_refine_ls_weighting_scheme      calc
_refine_ls_wR_factor_gt          0.0358
_refine_ls_wR_factor_ref         0.0360
_reflns_Friedel_coverage         0.000
_reflns_number_gt                1117
_reflns_number_total             1137
_reflns_threshold_expression     'I > 2\s(I)'
_cod_data_source_file            lt5044.cif
_cod_data_source_block           FeSO4H2O_N2_273K
_cod_depositor_comments
'Adding full bibliography for 1565934--1565967.cif.'
_cod_original_sg_symbol_H-M      'C 2/c'
_cod_database_code               1565949
_shelx_shelxl_version_number     2017/1
_shelx_space_group_comment
;
The symmetry employed for this shelxl refinement is uniquely defined
by the following loop, which should always be used as a source of
symmetry information in preference to the above space-group names.
They are only intended as comments.
;
_shelx_res_file
;
TITL 1991Fekiesx1 273K Apex in C2/c kieserite cell
    latt_corr_for_Nonius20C_1991Fekiesx1_273K_0m.res
    created by SHELXL-2017/1 at 15:53:31 on 08-Oct-2018

REM meas.  mon  7.0664(1) 7.5458(2) 7.7622(2) 90 118.5624(4) 90
REM trans. cryscomp
REM meas.trcl 7.0664(1) 7.5456(2) 7.7622(2) 90.0247(5) 118.5592(4) 89.9748(5)
REM trans. cryscomp
REM CELL 0.71073   7.0664 7.5458 7.7622 90 118.562 90
REM latt corr for Nonius20C  +.0138 +.0107 +.0133     +.017
CELL 0.71073   7.0802 7.5565 7.7755 90 118.579 90
ZERR    4.00   0.001   0.001   0.001   0.00   0.01   0.00
LATT  7
SYMM -X, Y, .5-Z
SFAC O H S MG FE
UNIT 20 8 4 0 4
SHEL 20 0.55285
OMIT -2 2 2
OMIT -3 1 1
OMIT 3 3 3
REM DAMP 1000
L.S. 10
CONN 12 1.8 $O
EQIV $9 -x+1/2, y+1/2, -z+1/2
BOND $H
FMAP 2
PLAN 20
ACTA
HTAB O3 O2_$9
HTAB
REM EXYZ MG FE
REM EADP MG FE
REM SUMP 1.0 0 1.0 2 1.0 3
WGHT    0.018000    0.170000
EXTI    0.231059
FVAR       1.04036
FE    5    0.000000    0.500000    0.000000    10.50000    0.00734    0.00813 =
         0.00863    0.00083    0.00365   -0.00008
S     3    0.000000    0.153604    0.250000    10.50000    0.00523    0.00633 =
         0.00873    0.00000    0.00305    0.00000
O1    1    0.169197    0.042951    0.398598    11.00000    0.00844    0.01536 =
         0.01643    0.00751    0.00475    0.00421
O2    1    0.096609    0.268402    0.157370    11.00000    0.01166    0.01093 =
         0.01664    0.00494    0.00882    0.00136
O3    1    0.000000    0.644605    0.250000    10.50000    0.01153    0.01202 =
         0.01101    0.00000    0.00587    0.00000
H     2    0.106365    0.718047    0.296111    11.00000    0.03723
HKLF 4




REM  1991Fekiesx1 273K Apex in C2/c kieserite cell
REM R1 =  0.0137 for    1117 Fo > 4sig(Fo)  and  0.0140 for all    1137 data
REM     40 parameters refined using      0 restraints

END

WGHT      0.0184      0.1636

REM Instructions for potential hydrogen bonds
EQIV $19 x+1/2, y+1/2, z
HTAB O3 S_$19
EQIV $3 x, y+1, z
HTAB O3 O1_$3
HTAB O3 O2_$9

REM Highest difference peak  0.512,  deepest hole -0.833,  1-sigma level  0.094
Q1    1   0.0430  0.2160  0.1906  11.00000  0.05    0.51
Q2    1   0.0194  0.5897  0.0188  11.00000  0.05    0.37
Q3    1  -0.0753  0.5221  0.0087  11.00000  0.05    0.31
Q4    1   0.1400  0.0853  0.3164  11.00000  0.05    0.27
Q5    1   0.0000  0.2545  0.2500  10.50000  0.05    0.27
Q6    1   0.0993  0.3624  0.1671  11.00000  0.05    0.26
Q7    1   0.0573  0.5686 -0.0676  11.00000  0.05    0.25
Q8    1   0.0218  0.3917  0.1122  11.00000  0.05    0.23
Q9    1   0.2611  0.0735  0.3852  11.00000  0.05    0.21
Q10   1   0.0000  0.7970  0.2500  10.50000  0.05    0.21
Q11   1  -0.0955  0.3478  0.0792  11.00000  0.05    0.21
Q12   1   0.0000  0.3463  0.2500  10.50000  0.05    0.20
Q13   1   0.3415  0.2017  0.4684  11.00000  0.05    0.19
Q14   1   0.1431  0.3314  0.2460  11.00000  0.05    0.19
Q15   1  -0.1560  0.5819 -0.0525  11.00000  0.05    0.18
Q16   1  -0.0022  0.6055  0.3383  11.00000  0.05    0.17
Q17   1   0.3195  0.1179  0.4646  11.00000  0.05    0.16
Q18   1   0.0000  0.8965  0.2500  10.50000  0.05    0.16
Q19   1  -0.0387  0.3220  0.0420  11.00000  0.05    0.16
Q20   1   0.1763  0.8808  0.3091  11.00000  0.05    0.15
;
_shelx_res_checksum              80421
_shelx_hkl_file
;
  -2   0   0 7997.43 252.336   5
  -2   0   0 8083.39 252.260  12
  -2   0   0 7385.74 255.661  15
   2   0   0 9264.16 252.190   4
   2   0   0 8891.47 252.115   7
   2   0   0 8790.23 258.236  15
   4   0   0 4371.21 127.375   7
   4   0   0 4092.15 128.159   8
   4   0   0 4388.19 126.803  10
  -4   0   0 4318.54 127.753   5
  -4   0   0 4196.99 126.922  11
  -4   0   0 4231.33 127.898  12
  -4   0   0 4323.99 128.924  15
   4   0   0 4302.94 127.379   4
   6   0   0 5396.18 156.621   7
   6   0   0 5108.08 155.549   8
  -6   0   0 5106.28 157.696  12
  -6   0   0 5126.15 159.152  15
   6   0   0 5399.90 156.776   4
  -6   0   0 5043.81 155.912  11
  -6   0   0 5469.74 157.712   5
  -8   0   0 2367.88 75.4932  16
   8   0   0 2504.41 76.1447   7
   8   0   0 2401.29 80.4052   3
  -8   0   0 2489.10 77.7754   5
  -8   0   0 2418.08 78.2189  12
  10   0   0 1966.06 62.6467  14
 -10   0   0 1874.40 63.1112   5
 -10   0   0 1796.50 60.2401  16
  10   0   0 1915.34 60.7235   7
 -10   0   0 1828.99 64.2884   1
 -10   0   0 1850.57 63.7806  12
  -1  -1   0 2268.34 68.9830  16
   1  -1   0 2362.96 73.4654  15
  -1   1   0 2274.72 74.9268  15
  -3  -1   0 5670.67 175.018  16
  -3  -1   0 5422.32 175.093  11
  -3  -1   0 5537.43 181.405  15
   3  -1   0 6205.53 175.155   4
  -3  -1   0 5711.10 175.707  12
   3  -1   0 6385.66 181.950  15
   3  -1   0 5830.46 175.972   7
   3  -1   0 5912.93 174.848   8
   3  -1   0 4988.81 177.198   3
  -3  -1   0 5822.62 175.302   5
  -3   1   0 5952.78 174.890  11
  -3   1   0 6094.07 174.632   5
   3   1   0 5554.29 176.061  10
   3   1   0 5893.98 179.536  15
   3   1   0 5791.80 173.171   4
  -3   1   0 5863.23 180.920  15
   3   1   0 5946.69 171.491   7
  -5  -1   0 765.341 25.3550   5
   5  -1   0 766.541 24.5792   7
   5  -1   0 723.281 24.4875   8
  -5  -1   0 756.359 24.2580  11
  -5  -1   0 742.767 24.0699  16
   5  -1   0 743.466 24.8217   4
   5  -1   0 763.952 27.1509   3
  -5  -1   0 752.720 25.5882  12
  -5  -1   0 754.006 26.4471  15
   5   1   0 760.317 25.0366   7
   5   1   0 728.579 23.5060   8
  -5   1   0 762.356 24.6053  11
  -5   1   0 775.260 25.7093   5
  -5   1   0 760.100 25.7554  12
   5   1   0 733.822 24.8496   4
  -5   1   0 767.753 27.0495  15
   5   1   0 734.154 24.6493  10
  -7  -1   0 440.575 17.6888   5
   7  -1   0 449.783 16.5058   7
  -7  -1   0 434.478 17.9719  12
   7  -1   0 421.286 19.2894   3
  -7  -1   0 428.660 16.0093  16
   7   1   0 427.600 16.7296   4
  -7   1   0 425.553 17.8803  12
  -7   1   0 451.441 18.0155   5
  -7   1   0 435.744 19.1662  15
   7   1   0 425.752 16.7120   7
  -7   1   0 457.305 17.2631  11
   9  -1   0 840.249 30.1210  14
  -9  -1   0 776.792 27.9582  16
  -9  -1   0 817.748 31.1472  12
   9  -1   0 811.364 28.1962   7
  -9  -1   0 727.780 30.4134   1
  -9  -1   0 801.469 30.4966   5
   9   1   0 817.406 29.0479   7
  -9   1   0 773.785 28.1834  16
  -9   1   0 790.493 31.0464  12
  -9   1   0 810.891 30.6332   5
  11  -1   0 104.975 8.56140  14
 -11  -1   0 103.077 10.1960  12
 -11   1   0 111.229 10.9893   1
  11   1   0 95.4005 9.14296  14
  11   1   0 119.186 8.60360   7
 -11   1   0 106.977 9.13755   5
 -11   1   0 101.417 9.28747  12
   0  -2   0 2042.06 56.6769   6
   0  -2   0 1850.76 56.3528  16
   0  -2   0 1749.62 56.2253   9
   0  -2   0 1977.35 56.0957  12
   0   2   0 1828.81 56.6330  10
  -2  -2   0 532.844 17.2245  12
   2  -2   0 540.168 18.6811  15
   2  -2   0 508.871 17.0713  14
   2  -2   0 526.794 16.8880   4
  -2  -2   0 528.303 17.1048   5
   2  -2   0 541.930 18.3969   3
   2  -2   0 546.776 16.9051   6
   2  -2   0 520.894 17.4246   8
  -2  -2   0 547.389 16.5621  16
  -2  -2   0 533.727 17.0779   1
  -2   2   0 554.079 17.4687   2
  -2   2   0 564.365 18.6995  15
   2   2   0 563.662 18.0110  10
   2   2   0 517.030 16.8590   4
  -2   2   0 561.445 17.5165  11
   2   2   0 537.540 17.3769   7
   4  -2   0 2506.25 75.1891   4
   4  -2   0 2584.93 74.6659   7
  -4  -2   0 2489.29 75.7093  12
   4  -2   0 2485.98 75.5518  14
  -4  -2   0 2425.65 74.3757  16
  -4  -2   0 2429.83 75.4052   5
  -4  -2   0 2454.58 75.5168   1
  -4  -2   0 2498.31 74.6968  11
   4  -2   0 2453.38 75.4101   8
   4  -2   0 2401.52 77.2172   3
   4   2   0 2486.45 75.5766   7
   4   2   0 2419.14 75.0568   4
   4   2   0 2480.66 75.8441  10
  -4   2   0 2580.65 75.6824  11
  -4   2   0 2543.05 77.8101  15
  -4   2   0 2601.94 76.0778   5
   6  -2   0 2999.75 90.1437  14
  -6  -2   0 2911.67 90.5775  12
  -6  -2   0 2908.60 88.6391  11
   6  -2   0 3036.63 89.7346   8
  -6  -2   0 2853.23 90.4184   1
   6  -2   0 2891.98 92.5099   3
  -6  -2   0 2773.70 88.4026  16
  -6  -2   0 2958.61 90.2474   5
   6  -2   0 3059.06 88.8033   7
  -6   2   0 3009.58 90.7141   5
  -6   2   0 2923.37 90.7195  12
   6   2   0 2917.34 89.7740   7
   6   2   0 2824.76 89.5652  10
   6   2   0 2924.73 89.3933   4
  -6   2   0 3000.46 89.4406  11
  -6   2   0 2962.02 92.6496  15
  -8  -2   0 202.642 11.7455   1
   8  -2   0 219.551 11.3496  14
   8  -2   0 216.571 9.61160   7
  -8  -2   0 214.629 11.6974   5
  -8  -2   0 210.046 9.75936  16
  -8  -2   0 201.633 11.9048  12
   8   2   0 211.513 10.9991   7
  -8   2   0 211.682 11.7749   5
  -8   2   0 202.049 11.9190  12
 -10  -2   0 42.4942 6.63588   5
  10  -2   0 43.2726 6.32605  14
 -10  -2   0 46.7610 7.28778  12
  10   2   0 37.6486 5.93921  14
 -10   2   0 41.2411 4.84682  16
  10   2   0 49.5628 6.35283   7
 -10   2   0 53.9119 7.09940   5
 -10   2   0 39.0635 6.64674  12
  -1  -3   0 3069.37 98.0533   9
   1  -3   0 2877.29 98.3569   3
   1  -3   0 3129.54 97.5931   9
  -1  -3   0 3525.73 98.8920   5
   1  -3   0 3279.31 98.7862  14
   1  -3   0 3234.47 97.7808  13
  -1  -3   0 3467.08 98.1469   1
   1  -3   0 3361.49 97.5741   8
  -1  -3   0 3328.44 99.2637  16
  -1  -3   0 3289.32 97.0767  12
   1  -3   0 3424.23 96.8017   6
  -1   3   0 3432.06 107.279  15
   1   3   0 3095.83 98.1513  10
   1   3   0 3272.97 97.1205   7
  -1   3   0 3310.00 97.4445  10
  -3  -3   0 6765.38 210.339  12
  -3  -3   0 7241.66 210.480   1
   3  -3   0 7035.13 208.143   6
   3  -3   0 7347.46 212.052   8
  -3  -3   0 6906.24 209.909   5
  -3  -3   0 6847.07 208.339  16
   3  -3   0 6274.24 205.057  14
   3   3   0 6773.35 209.946  10
  -3   3   0 7040.18 211.119  11
  -3   3   0 7116.60 216.406  15
  -3   3   0 7097.58 209.625   2
   3   3   0 7045.81 205.608   7
   3   3   0 6817.66 206.040   4
  -5  -3   0 3573.29 110.624   5
   5  -3   0 3714.05 110.759  14
   5  -3   0 3442.58 112.688   3
  -5  -3   0 3566.63 109.108  16
  -5  -3   0 3672.83 111.052  12
   5  -3   0 3788.85 110.882   8
  -5  -3   0 3594.05 110.585   1
   5   3   0 3620.77 109.992   4
  -5   3   0 3859.89 111.365   5
   5   3   0 3674.03 110.739   7
   5   3   0 3606.94 111.229  10
  -5   3   0 3739.53 113.636  15
  -5   3   0 3737.01 110.762  11
  -7  -3   0 2000.42 67.6162   1
  -7  -3   0 2129.08 67.8840   5
  -7  -3   0 2117.92 68.2780  12
  -7  -3   0 2039.72 65.5442  16
   7  -3   0 2220.27 67.4430   8
   7  -3   0 2239.32 67.7746  14
  -7   3   0 2192.04 68.3902   5
  -7   3   0 2131.68 66.6766  11
  -7   3   0 2118.47 70.4887  15
  -7   3   0 2099.91 68.3106  12
   7   3   0 2078.86 66.6256   4
   7   3   0 2220.97 67.8131   7
   9  -3   0 1712.20 55.4592  14
  -9  -3   0 1635.51 56.7026  12
  -9  -3   0 1708.59 56.3301   5
  -9   3   0 1562.63 56.0359  12
  -9   3   0 1695.45 56.1972   5
   9   3   0 1621.06 54.6338   7
  11  -3   0 536.659 23.1002  14
 -11  -3   0 544.925 25.1467  12
 -11   3   0 554.591 24.1778   5
  11   3   0 526.827 22.8738  14
  11   3   0 538.339 22.2491   7
 -11   3   0 533.703 24.4295  12
   0  -4   0 3757.18 105.240   6
   0  -4   0 3612.43 105.896   8
   0  -4   0 3250.41 106.274  13
   0  -4   0 3495.18 106.026   9
   0  -4   0 3686.73 105.571   1
   0   4   0 3569.20 105.132   7
   0   4   0 3471.71 106.685  10
   2  -4   0 790.619 24.1316   6
  -2  -4   0 758.472 24.5336   5
  -2  -4   0 770.080 23.5734  16
   2  -4   0 742.721 26.4784   3
  -2  -4   0 746.971 24.6072  12
  -2  -4   0 737.004 24.1958   1
   2  -4   0 766.920 25.2625   8
   2  -4   0 750.642 24.2395  14
  -2  -4   0 769.888 23.9304   9
  -2   4   0 802.207 25.9556   2
  -2   4   0 826.842 24.6029  10
   2   4   0 729.776 23.4810   4
  -2   4   0 789.205 26.5629  15
   2   4   0 782.349 24.7644   7
   2   4   0 774.085 26.1619  10
   4  -4   0 8.41893 1.62077   6
  -4  -4   0 6.91783 1.68790   1
   4  -4   0 11.3971 2.70170   3
   4  -4   0 8.26981 2.17459   8
  -4  -4   0 8.91259 1.34679  16
   4  -4   0 9.85989 1.94796  14
  -4  -4   0 7.33127 1.96624   5
  -4  -4   0 13.0694 2.44916  12
   4   4   0 10.0466 1.83904   4
   4   4   0 6.82702 2.40208   7
   4   4   0 8.09173 2.55904  10
  -4   4   0 7.31178 2.53659  11
  -4   4   0 12.2206 2.40752   2
  -4   4   0 9.14527 2.74401  15
  -6  -4   0 95.9727 5.08249  16
  -6  -4   0 92.2455 6.21027   5
  -6  -4   0 87.5091 6.06030   1
  -6  -4   0 94.8148 6.47987  12
   6  -4   0 91.2215 6.29262   8
   6  -4   0 124.840 6.96153  14
   6  -4   0 105.883 7.99505   3
   6   4   0 85.3618 5.37505   4
   6   4   0 94.0562 6.72808  10
   6   4   0 87.2772 6.90583   7
  -6   4   0 101.883 6.89679   5
  -6   4   0 97.6240 6.68800  11
   8  -4   0 79.8111 7.52196  14
  -8  -4   0 77.5765 7.26728   5
  -8  -4   0 75.2503 6.91251  12
   8  -4   0 69.8719 5.95647   8
   8   4   0 64.8436 6.46216   7
  -8   4   0 68.2092 7.24729   5
  -8   4   0 62.3371 7.09703  12
 -10  -4   0 127.945 10.7247  12
  10  -4   0 134.676 10.0691  14
 -10  -4   0 116.018 9.44933   5
  10   4   0 126.939 9.99005   7
 -10   4   0 123.164 9.55413  12
 -10   4   0 128.457 10.4875   5
   1  -5   0 3150.34 92.7180   8
  -1  -5   0 3062.36 91.8759  12
  -1  -5   0 3050.17 90.8117  16
  -1  -5   0 3116.93 91.4339   6
  -1  -5   0 2921.16 91.6930   8
  -1  -5   0 3070.12 91.5518   1
   1  -5   0 3142.69 91.3412   6
  -1  -5   0 2815.21 91.7025   9
   1  -5   0 3009.37 92.6885   9
   1  -5   0 3050.41 91.2210  14
   1   5   0 2965.48 93.5789  10
  -1   5   0 3189.76 94.0345  15
   1   5   0 3021.23 91.6454   7
  -1   5   0 3213.33 94.1751   2
  -1   5   0 3167.34 92.8907  10
  -1   5   0 3041.90 90.7283   7
  -3  -5   0 2012.77 60.1361  12
   3  -5   0 1821.21 62.1697   3
   3  -5   0 2004.10 59.1023   6
  -3  -5   0 1898.54 59.2223   1
   3  -5   0 1944.26 60.6204   8
  -3  -5   0 1947.32 58.3070  16
   3  -5   0 1885.22 59.4206  14
  -3  -5   0 1984.15 59.8433   5
   3   5   0 1939.73 60.0171   7
  -3   5   0 1976.65 62.6333  15
   3   5   0 1849.23 58.2818   4
   3   5   0 1943.60 61.8988  10
  -3   5   0 2021.14 61.0538   2
  -3   5   0 1964.88 60.2849  11
   5  -5   0 689.620 24.5871   8
  -5  -5   0 659.343 21.8646  16
  -5  -5   0 685.632 24.2414  12
  -5  -5   0 640.392 23.1236   1
   5  -5   0 685.502 26.1525   3
  -5  -5   0 693.859 24.0181   5
   5  -5   0 692.399 23.7618  14
   5  -5   0 729.662 23.1115   6
   5   5   0 631.990 22.3791   4
   5   5   0 710.237 25.7489  10
  -5   5   0 691.703 24.3279   5
  -5   5   0 662.663 24.0780  11
   5   5   0 668.307 23.8705   7
   5   5   0 650.421 24.4101   2
  -5   5   0 664.381 26.6814  15
   7  -5   0 505.582 20.4367   8
   7  -5   0 509.885 19.9279  14
  -7  -5   0 493.507 20.5781  12
  -7  -5   0 530.200 20.6781   5
   7   5   0 492.098 20.2765   7
  -7   5   0 471.490 22.5412  15
  -7   5   0 500.092 20.5554   5
  -7   5   0 509.970 19.8581  11
   7   5   0 495.983 21.1923  10
   9  -5   0 640.107 25.3573   8
  -9  -5   0 628.662 26.5938  12
   9  -5   0 643.654 25.3729  14
  -9  -5   0 647.702 26.3370   5
   9   5   0 600.778 24.9609   7
  -9   5   0 624.735 26.1188  12
  -9   5   0 658.947 26.1160   5
   0  -6   0 3465.97 104.881   1
   0  -6   0 3469.47 105.509   8
   0  -6   0 3539.68 104.316   6
   0   6   0 3557.57 107.691   2
   0   6   0 3424.73 104.059   7
   0   6   0 3503.45 106.637  10
  -2  -6   0 3935.16 129.271   8
   2  -6   0 4095.83 129.317  14
  -2  -6   0 4268.39 129.507   1
  -2  -6   0 4242.47 128.598  16
   2  -6   0 4578.87 129.488   6
  -2  -6   0 4416.61 130.342  12
   2  -6   0 4502.74 131.337   8
   2   6   0 4226.59 130.038   7
  -2   6   0 4485.48 130.544  10
   2   6   0 4191.57 132.427  10
  -2   6   0 4561.34 133.292  15
  -2   6   0 4641.31 132.729   2
   4  -6   0 4875.02 139.380   8
   4  -6   0 4839.88 137.008   6
  -4  -6   0 4730.90 138.122   5
   4  -6   0 4264.17 137.333  14
  -4  -6   0 4717.79 138.364  12
   4  -6   0 4338.83 140.910   3
  -4  -6   0 4500.70 137.064   1
  -4  -6   0 4526.73 135.846  16
  -4   6   0 4745.78 138.660  11
   4   6   0 4170.40 139.734   2
  -4   6   0 4704.26 138.963   2
  -4   6   0 4625.99 141.461  15
   4   6   0 4490.26 140.233  10
   4   6   0 4561.56 138.076   7
  -6  -6   0 3290.20 103.329   5
   6  -6   0 3249.24 102.690  14
  -6  -6   0 3330.54 103.796  12
   6  -6   0 3506.96 104.304   8
   6   6   0 3336.53 105.320  10
   6   6   0 3313.33 103.492   7
  -6   6   0 3365.54 103.699   5
  -6   6   0 3314.20 107.420  15
  -6   6   0 3386.58 103.637  11
   8  -6   0 1752.78 58.0440   8
  -8  -6   0 1743.45 58.5748  12
  -8  -6   0 1770.10 58.1562   5
   8  -6   0 1735.71 57.0549  14
   8   6   0 1760.39 57.9729   7
   8   6   0 1636.96 58.2834  10
  -8   6   0 1698.41 57.7909   5
 -10  -6   0 743.489 29.1243   5
 -10  -6   0 666.641 28.9604  12
  10  -6   0 686.084 27.2000  14
 -10   6   0 667.800 28.3602  12
  10   6   0 665.774 27.3651   7
  -1  -7   0 422.884 15.5468   1
   1  -7   0 439.581 15.2015   6
  -1  -7   0 393.648 15.6705   8
   1  -7   0 411.985 16.5181   8
  -1  -7   0 415.673 15.2224   6
  -1  -7   0 436.284 16.0313  12
   1   7   0 443.402 15.3654   7
  -1   7   0 451.104 17.1550  10
  -1   7   0 431.985 18.5065  15
   1   7   0 450.052 19.0630   2
   1   7   0 456.524 18.0662  10
  -1   7   0 434.479 18.6108   2
   3  -7   0 546.069 18.8616   6
  -3  -7   0 517.718 18.8547   1
   3  -7   0 524.562 19.0745  14
  -3  -7   0 540.761 17.8927  16
  -3  -7   0 555.586 20.0815  12
   3  -7   0 562.802 21.0746   8
  -3   7   0 550.529 21.7595   2
  -3   7   0 521.829 22.6729  15
   3   7   0 560.062 22.6978   2
   3   7   0 579.524 22.7373  10
   3   7   0 562.652 19.9694   7
  -5  -7   0 876.204 30.6059   5
   5  -7   0 820.888 29.7527  14
   5  -7   0 877.548 31.6581   8
   5  -7   0 930.187 29.4780   6
  -5  -7   0 835.661 30.5846  12
  -5   7   0 881.479 34.5694  15
   5   7   0 876.353 30.8486   7
   5   7   0 919.563 33.8039  10
   5   7   0 843.721 32.1261   2
  -5   7   0 873.654 31.3043  11
   7  -7   0 278.646 13.4244  14
  -7  -7   0 296.465 14.8484  12
  -7  -7   0 277.897 14.3238   5
   7  -7   0 290.260 14.9027   8
   7   7   0 290.913 14.8382   7
   7   7   0 285.851 16.3060  10
  -7   7   0 276.974 14.4888   5
  -7   7   0 259.104 13.8073  11
  -9  -7   0 40.9314 6.25928   5
   9  -7   0 42.7370 6.31753   8
  -9  -7   0 43.4950 7.16724  12
   9  -7   0 36.9683 5.49710  14
  -9   7   0 36.9452 6.41356  12
   9   7   0 37.1279 5.67680   7
  -9   7   0 46.7284 7.10566   5
   0  -8   0 2028.41 61.9085   6
   0  -8   0 1857.41 63.0532   8
   0   8   0 2053.85 64.8799  10
   0   8   0 2069.60 66.3992  15
   0   8   0 2027.28 66.5189   2
  -2  -8   0 2281.29 69.6854   6
   2  -8   0 2171.03 69.1180  14
  -2  -8   0 2306.62 70.6458  12
   2  -8   0 2285.72 71.6796   8
   2  -8   0 2276.25 69.2490   6
  -2  -8   0 2218.73 69.5915   1
   2   8   0 2240.63 74.2595   2
   2   8   0 2283.99 73.6362  10
  -2   8   0 2294.71 73.5031   2
   2   8   0 2193.33 69.6309   7
  -2   8   0 2267.65 70.9067  10
  -2   8   0 2282.84 74.4359  15
   4  -8   0 1136.08 39.5580   8
   4  -8   0 1195.73 37.1023   6
  -4  -8   0 1130.77 38.4659  12
   4  -8   0 1082.01 37.1592  14
   4   8   0 1149.13 41.5951  10
  -4   8   0 1172.34 39.3489  11
  -4   8   0 1177.07 40.2495   2
  -4   8   0 1074.79 41.6198  15
   4   8   0 1146.67 38.1848   7
   4   8   0 1069.32 41.0067   2
   6  -8   0 474.449 20.7900   8
   6  -8   0 447.366 18.4339  14
  -6  -8   0 470.444 19.8704  12
  -6   8   0 432.878 19.8413   5
   6   8   0 461.549 19.8425   7
  -6   8   0 454.739 19.8819  11
   6   8   0 512.826 23.2232  10
  -8  -8   0 797.552 31.1641  12
   8  -8   0 821.056 31.6167   8
   8   8   0 785.191 30.7075   7
   8   8   0 811.895 32.9903  10
  -8   8   0 733.606 30.8134  11
  -8   8   0 762.246 30.5505   5
   1  -9   0 2982.13 91.3258   6
   1  -9   0 3054.28 94.0805   8
  -1  -9   0 3040.22 91.6721   6
  -1  -9   0 2740.27 92.3540   8
  -1   9   0 3149.10 96.9930   2
   1   9   0 2979.24 96.9071   2
   1   9   0 2987.90 95.2643  10
  -1   9   0 2964.46 93.8312  10
  -1   9   0 3114.00 97.4062  15
   3  -9   0 1138.54 36.9294   6
  -3  -9   0 1131.88 38.5428  12
   3  -9   0 1142.55 39.9013   8
  -3  -9   0 1152.63 37.7091   6
  -3   9   0 1112.88 42.6739  15
  -3   9   0 1139.07 39.5436  11
  -3   9   0 1179.65 41.4141   2
   3   9   0 1075.74 41.7469   2
   3   9   0 1128.85 41.7634  10
   3   9   0 1092.05 37.5105   7
   5  -9   0 1170.01 38.2088   6
   5  -9   0 1140.59 41.2181   8
  -5  -9   0 1164.29 40.3710  12
   5   9   0 1079.94 42.5184   2
   5   9   0 1166.15 39.9932   7
  -5   9   0 1166.25 41.3189  11
   5   9   0 1167.05 43.7712  10
   7  -9   0 895.447 34.8777   8
  -7  -9   0 885.071 33.9223  12
   7   9   0 880.608 33.5893   7
   7   9   0 901.668 37.2935  10
  -7   9   0 887.150 34.0257  11
  -7   9   0 902.654 34.2252   5
   0 -10   0 45.0016 5.56261   8
   0 -10   0 52.0850 4.96606   6
   0  10   0 46.5123 6.64489  10
   0  10   0 46.3490 7.43258   2
  -2 -10   0 66.7260 5.67421   6
   2 -10   0 64.6574 5.29622   6
   2 -10   0 67.8267 6.45702   8
   2  10   0 70.1021 9.19649   2
   2  10   0 64.2184 7.87010  10
  -2  10   0 58.5604 7.76562   2
  -4 -10   0 91.4327 7.32303   6
   4 -10   0 90.3486 8.62768   8
   4 -10   0 98.9618 7.01816   6
  -4 -10   0 101.918 8.31208  12
   4  10   0 106.369 7.92386   7
  -4  10   0 99.0744 9.43664  11
   4  10   0 110.727 11.0277   2
  -4  10   0 96.7230 10.0128   2
   4  10   0 94.6540 10.9980  10
  -6 -10   0 5.30048 3.56131  12
   6 -10   0 6.05659 4.14359   8
  -6 -10   0 5.45795 3.40004   6
   6 -10   0 6.63914 3.26557   6
   6  10   0 8.65055 6.47887  10
   6  10   0 13.0613 4.69543   7
  -6  10   0 10.7526 5.48244  11
  -6  10   0 9.99111 3.95582   5
  -1 -11   0 613.346 22.4182   6
   1 -11   0 597.030 22.1494   6
   1 -11   0 581.808 24.4954   8
   1  11   0 604.395 27.6707   2
  -1  11   0 596.315 24.9016  10
  -1  11   0 598.329 27.9305   2
   1  11   0 603.859 26.0931  10
   3 -11   0 483.351 18.8688   6
  -3 -11   0 472.643 19.3389   6
   3 -11   0 454.459 21.4684   8
  -3  11   0 491.377 24.0989   2
  -3  11   0 499.063 22.3490  11
   3  11   0 488.083 24.7041  10
   3  11   0 473.994 24.6802   2
   5 -11   0 1089.80 37.2566   6
   5 -11   0 1143.94 41.9341   8
  -5 -11   0 1104.08 38.9877   6
  -5 -11   0 1135.98 40.5320  12
   5  11   0 1041.54 43.6128   2
  -5  11   0 1115.10 41.2401  11
   5  11   0 1055.53 38.8230   7
   5  11   0 1123.98 44.3555  10
   0 -12   0 636.618 23.6841   6
   0  12   0 647.689 27.3771  10
   0  12   0 638.711 29.7841   2
   2 -12   0 1087.01 40.2093   8
   2 -12   0 1054.75 36.4808   6
  -2 -12   0 1043.59 36.8745   6
  -2  12   0 1068.27 40.3716  11
   2  12   0 1077.42 42.6336  10
  -2  12   0 1057.39 42.5329   2
   2  12   0 1124.10 44.6722   2
   4 -12   0 791.052 32.4794   8
  -4 -12   0 834.251 30.0528   6
   4 -12   0 771.234 28.3697   6
  -4  12   0 805.961 34.2590   2
  -4  12   0 816.251 32.7080  11
   4  12   0 774.955 34.9020  10
  -1 -13   0 269.592 13.0913   6
   1 -13   0 273.563 13.2623   6
   1  13   0 288.197 19.9843   2
   1  13   0 281.126 17.8987  10
  -1  13   0 280.338 19.5233   2
   3 -13   0 10.1344 3.52722   6
  -3 -13   0 7.23274 2.92414   6
   3 -13   0 7.81788 4.35649   8
  -3  13   0 6.85606 5.53335  11
   3  13   0 8.20649 6.73614  10
   3  13   0 13.5035 7.11474   2
  -3  13   0 8.80330 6.48470   2
 -10   0   1 2.18120 3.33168   5
 -10   0   1 -1.3296 2.34797  16
 -10   0   1 4.45300 4.22786   1
  10   0  -1 1.41078 2.81310   7
 -10   0   1 0.25904 3.69333  12
  10   0  -1 3.02036 3.71770  14
  -8   0   1 -0.3205 1.91778  16
   8   0  -1 2.60654 2.61104  14
   8   0  -1 2.13712 2.73827   3
  -8   0   1 0.69945 2.07959  12
   8   0  -1 0.98748 1.66237   7
  -8   0   1 2.37120 2.54475   5
   6   0  -1 1.46823 1.04274   8
  -6   0   1 1.85223 1.49560  16
   6   0  -1 3.48791 1.38206  10
  -6   0   1 1.23708 1.94830  12
  -6   0   1 -0.1764 1.65978   5
  -6   0   1 0.63952 1.38551  15
   6   0  -1 11.6949 2.13765   7
  -6   0   1 -0.4006 0.73072  11
   4   0  -1 0.83581 0.96323  15
  -4   0   1 0.69576 0.82156   5
  -4   0   1 0.26523 0.85092  15
   4   0  -1 1.46268 1.20555   7
   4   0  -1 0.32746 0.81176  10
  -4   0   1 -0.8915 1.00325  12
  -2   0   1 1.29883 0.57761  15
   2   0  -1 0.41922 0.44408   8
   2   0  -1 1.01046 0.59526   7
   2   0  -1 0.66056 0.51718  15
  -2   0   1 1.34464 0.58446  12
   0   0   1 0.20072 0.35096  15
   0   0   1 0.88269 0.15767  16
   0   0  -1 0.86543 0.40920  15
  -2   0  -1 5.27578 1.08747  12
   2   0   1 7.26873 0.95805   8
   4   0   1 0.20390 0.94449   4
  -4   0  -1 0.54574 1.02431  11
   4   0   1 4.07952 0.96718   8
   4   0   1 1.13949 0.81550  10
  -4   0  -1 0.18923 1.23146  12
  -4   0  -1 0.75438 1.47732  15
  -4   0  -1 0.43521 1.00038   5
   4   0   1 -0.4377 1.17595   7
  -6   0  -1 0.13150 1.41940  11
  -6   0  -1 3.01033 2.26321  15
  -6   0  -1 0.61372 2.06958   5
   6   0   1 0.25344 1.42119   4
   6   0   1 0.67261 1.95542   7
  -6   0  -1 -0.5756 1.38561  12
   8   0   1 2.11631 2.62576   7
  -8   0  -1 2.35949 2.20826  12
   8   0   1 -0.7192 2.75109   4
  -8   0  -1 4.73516 2.17795  16
  -8   0  -1 0.08458 2.02401   5
  10   0   1 1.94095 3.98339  14
 -10   0  -1 5.68651 3.61547  12
 -10   0  -1 -0.2992 2.53016   5
 -11  -1   1 154.214 12.3293   1
 -11  -1   1 159.332 12.1660  12
  11  -1  -1 148.292 10.9557  14
 -11  -1   1 155.313 11.3412   5
 -11   1   1 161.074 11.4523   5
  11   1  -1 152.395 10.4401  14
 -11   1   1 150.932 11.9045  12
  11   1  -1 146.075 9.82560   7
 -11   1   1 152.566 12.7269   1
  -9  -1   1 369.292 15.4265  16
  -9  -1   1 368.165 17.8513  12
  -9  -1   1 378.850 17.0783   5
   9  -1  -1 367.073 15.4380   7
   9  -1  -1 374.392 16.9403  14
   9  -1  -1 369.604 19.5058   3
  -9  -1   1 380.941 18.3314   1
  -9   1   1 379.746 17.1830   5
   9   1  -1 357.935 16.2812  14
  -9   1   1 384.919 15.6370  16
  -9   1   1 361.158 17.4899  12
   9   1  -1 379.871 15.9997   7
   9   1  -1 371.262 19.9706   3
  -7  -1   1 438.582 16.2064  16
   7  -1  -1 450.770 16.5234   7
  -7  -1   1 426.522 17.8990  12
   7  -1  -1 434.960 19.9593   3
   7  -1  -1 440.957 16.4284   8
  -7  -1   1 460.819 17.4121   5
   7  -1  -1 439.568 17.4052  14
  -7   1   1 470.386 17.6754   5
  -7   1   1 428.590 18.2494  15
  -7   1   1 439.478 18.1028  12
   7   1  -1 434.124 16.7995   7
  -5  -1   1 25.5737 1.84310  11
   5  -1  -1 23.1478 2.44713   8
  -5  -1   1 30.0151 2.99768  12
   5  -1  -1 33.4265 3.98779   3
   5  -1  -1 31.5158 2.88545   7
   5  -1  -1 29.3518 3.14128  14
  -5  -1   1 24.2303 2.79936   5
  -5  -1   1 26.4682 2.30345  16
  -5   1   1 27.0159 3.17072  12
   5   1  -1 29.4983 3.08069  10
  -5   1   1 29.7546 3.31241   5
  -5   1   1 31.3970 3.56739  15
   5   1  -1 28.7165 3.06169   7
   5   1  -1 35.5821 3.12971   4
   5   1  -1 27.5644 2.12038   8
  -5   1   1 29.4887 2.36276  11
   3  -1  -1 415.668 15.3420   3
   3  -1  -1 404.911 13.4314   7
   3  -1  -1 389.325 13.7426  14
   3  -1  -1 436.290 14.4967  15
  -3  -1   1 416.157 13.4265   5
  -3  -1   1 404.896 13.7168  12
  -3  -1   1 402.287 13.1555  16
   3  -1  -1 388.004 13.5434   8
   3  -1  -1 397.004 13.4177   9
  -3   1   1 440.437 14.5797  15
   3   1  -1 415.171 14.1770  10
  -3   1   1 442.755 13.8930   5
   3   1  -1 401.270 13.4257   4
   3   1  -1 406.140 13.8323   7
  -3   1   1 426.354 13.3742  11
   3   1  -1 405.652 13.5294  15
  -1  -1   1 2218.36 66.9211  16
  -1  -1  -1 2805.38 84.8581   5
  -1  -1  -1 2825.61 86.5943  12
   1  -1   1 2818.75 84.5652   4
   1  -1   1 2803.62 85.5491  13
   1  -1   1 2953.33 88.2581  15
  -1  -1  -1 2727.86 85.8238  11
  -1   1  -1 2884.80 84.2453  11
   1   1   1 2794.48 83.8848   7
  -1   1  -1 2984.11 92.2571  15
   1   1   1 2650.49 86.5722  15
   1   1   1 2804.93 84.7417   4
  -1   1  -1 2907.65 84.0363   5
   3  -1   1 584.262 19.1555   7
   3  -1   1 583.991 20.1031   3
  -3  -1  -1 608.049 19.8239  12
   3  -1   1 602.247 19.4700   8
   3  -1   1 594.057 19.6586   4
  -3  -1  -1 615.176 21.2495  15
  -3  -1  -1 596.424 19.8612   5
  -3  -1  -1 612.517 19.6201  11
   3   1   1 605.426 19.7894   7
   3   1   1 589.240 19.6312   4
   3   1   1 582.698 19.5688  10
  -3   1  -1 610.655 18.9295   2
  -3   1  -1 623.913 20.2276   5
  -3   1  -1 621.706 19.9855  11
  -3   1  -1 629.693 21.8645  15
   5  -1   1 69.8505 5.37189   3
  -5  -1  -1 67.9858 4.84639   5
   5  -1   1 70.4756 4.13986   8
   5  -1   1 69.1387 4.20947   7
  -5  -1  -1 74.7385 5.83214  15
  -5  -1  -1 74.4655 4.53128  11
   5  -1   1 65.6923 4.71565   4
  -5  -1  -1 70.5757 4.85129  12
   5   1   1 75.5365 4.77448   4
   5   1   1 69.6146 4.22880  10
   5   1   1 67.0669 4.76689   7
  -5   1  -1 66.2495 5.17098  12
  -5   1  -1 75.2325 6.41832  15
  -5   1  -1 71.7728 5.62889   5
  -5   1  -1 75.8540 4.78446  11
  -7  -1  -1 4.96071 3.06875  12
  -7  -1  -1 5.98820 1.67806  16
   7  -1   1 6.60147 2.17028   4
   7  -1   1 6.78844 2.44933   7
  -7  -1  -1 9.68271 3.27137   5
  -7   1  -1 6.45677 2.59874   5
  -7   1  -1 7.19814 3.05508  15
  -7   1  -1 5.38814 2.14297  11
  -7   1  -1 8.67741 3.19472  12
   7   1   1 5.97258 2.20216   4
   7   1   1 6.56652 2.37491   7
  -9  -1  -1 114.515 9.74609  12
  -9  -1  -1 122.380 9.90801   5
   9  -1   1 118.740 9.17760  14
  -9   1  -1 125.527 9.96883   5
   9   1   1 118.480 8.44324   7
  -9   1  -1 114.531 7.53951  16
  -9   1  -1 112.949 9.63991  12
 -10  -2   1 177.212 12.2562  12
 -10  -2   1 165.110 12.1059   1
  10  -2  -1 177.711 10.8018  14
 -10  -2   1 176.720 11.3426   5
  10   2  -1 162.801 13.1395   3
  10   2  -1 168.051 10.6384   7
 -10   2   1 179.106 11.6727   5
 -10   2   1 159.396 11.2806  12
  10   2  -1 160.677 10.8445  14
 -10   2   1 155.049 9.72815  16
  -8  -2   1 634.560 24.9408  12
  -8  -2   1 618.085 22.3591  16
   8  -2  -1 647.589 24.0986  14
   8  -2  -1 641.057 27.3213   3
  -8  -2   1 633.811 24.0019   5
   8  -2  -1 617.136 23.0541   8
  -8  -2   1 613.907 24.8819   1
  -8   2   1 623.476 24.5606  12
  -8   2   1 649.480 24.2672   5
   8   2  -1 657.143 23.7755   7
  -6  -2   1 1650.78 52.4255   5
   6  -2  -1 1676.38 51.5835   7
   6  -2  -1 1651.12 52.3203   8
   6  -2  -1 1650.03 55.6691   3
  -6  -2   1 1630.48 53.2363   1
  -6  -2   1 1618.49 51.3728  16
  -6  -2   1 1686.32 53.2172  12
   6  -2  -1 1711.54 52.9188  14
  -6   2   1 1661.98 53.2282  12
  -6   2   1 1712.97 52.9778   5
  -6   2   1 1685.78 54.3688  15
   6   2  -1 1615.18 52.5540  10
   6   2  -1 1678.42 52.6449   7
  -6   2   1 1685.76 51.6553  11
  -4  -2   1 1281.76 39.7335  16
   4  -2  -1 1281.92 40.5028   9
   4  -2  -1 1283.03 40.6920   8
   4  -2  -1 1309.51 43.0853   3
  -4  -2   1 1316.83 40.3428   5
  -4  -2   1 1342.26 40.8870  12
  -4  -2   1 1270.64 40.8151   1
   4  -2  -1 1278.28 40.7477  14
  -4   2   1 1358.95 40.8754   5
   4   2  -1 1304.93 40.7433   7
  -4   2   1 1368.65 42.2759  15
  -4   2   1 1345.01 40.3732  11
   4   2  -1 1249.93 39.9230   2
   4   2  -1 1321.70 41.3998  10
   4   2  -1 1259.21 40.0633   4
  -2  -2   1 3980.39 107.309   1
   2  -2  -1 3553.11 106.406   6
  -2  -2   1 3861.80 107.085  12
   2  -2  -1 3006.84 106.806   3
   2  -2  -1 3434.20 106.848  14
   2  -2  -1 3449.18 107.330   8
  -2  -2   1 3816.16 108.642  16
  -2  -2   1 3677.86 106.728   5
   2  -2  -1 3545.52 108.984   9
   2   2  -1 3438.86 105.391   7
   2   2  -1 3227.24 105.823   2
  -2   2   1 3802.80 115.247  15
   2   2  -1 3479.14 106.251  10
   0  -2   1 3577.18 105.025  16
   0  -2  -1 3805.75 103.252   5
   0  -2  -1 3582.06 104.793  12
   0  -2   1 3778.98 105.772   1
   0  -2   1 3644.42 104.770  13
   0  -2   1 3224.32 108.817  15
   0  -2  -1 3464.23 104.812   9
   0   2  -1 3220.02 103.434   2
   0   2  -1 3254.71 111.117  15
   0   2  -1 3167.19 106.423  10
   0   2   1 3439.81 103.629   7
  -2  -2  -1 809.389 25.4941  12
   2  -2   1 798.212 25.4638  13
  -2  -2  -1 800.464 24.5451  16
   2  -2   1 854.328 26.5676   3
  -2  -2  -1 826.341 25.6997   5
  -2  -2  -1 869.523 25.2865   9
   2  -2   1 786.080 25.0091   6
   2  -2   1 803.094 25.7870   8
  -2  -2  -1 763.411 24.9483   1
   2  -2   1 806.979 25.3393   4
  -2  -2  -1 802.341 25.4846  11
   2   2   1 801.306 25.3706   4
   2   2   1 799.242 27.7534  15
   2   2   1 808.441 25.8379   7
   2   2   1 785.109 26.2256  10
  -2   2  -1 853.930 27.9440  15
  -2   2  -1 881.276 26.3052   2
  -2   2  -1 856.870 26.3793  11
   4  -2   1 1955.71 62.7671   3
   4  -2   1 2026.01 60.6880   7
  -4  -2  -1 2012.70 61.9638  12
  -4  -2  -1 2002.26 61.4702  11
  -4  -2  -1 1947.02 60.4003  16
  -4  -2  -1 2056.13 62.1211   5
   4  -2   1 2061.06 61.5888   4
   4  -2   1 1970.49 61.5878   8
  -4   2  -1 2047.81 62.4751   5
  -4   2  -1 2148.50 62.4737  11
   4   2   1 1921.36 61.8562  10
  -4   2  -1 1999.48 60.5734   2
  -4   2  -1 2068.82 64.8081  15
   4   2   1 1997.56 61.8542   7
   4   2   1 1990.76 61.5548   4
  -6  -2  -1 1244.42 39.9911  16
   6  -2   1 1300.38 41.2568   4
   6  -2   1 1301.05 40.3175   7
   6  -2   1 1286.68 41.1415   8
  -6  -2  -1 1286.81 42.3018   5
  -6  -2  -1 1252.15 42.1462  12
  -6  -2  -1 1191.37 41.7189   1
  -6  -2  -1 1259.77 40.9781  11
   6   2   1 1219.59 41.1221   4
  -6   2  -1 1246.29 44.7562  15
   6   2   1 1289.86 41.6070   7
   6   2   1 1393.20 42.7987  10
  -6   2  -1 1330.70 42.8888   5
  -6   2  -1 1302.21 41.6472  11
  -6   2  -1 1245.62 42.3161  12
  -8  -2  -1 337.359 15.9399   5
  -8  -2  -1 302.950 15.2577  12
  -8  -2  -1 294.518 16.6674   1
   8  -2   1 336.744 14.8490  14
  -8   2  -1 289.240 15.3426   5
   8   2   1 302.544 14.0346   4
   8   2   1 334.213 14.7358   7
  -8   2  -1 307.259 15.5420  12
  -8   2  -1 371.621 23.1077  15
 -10  -2  -1 292.191 16.3605   5
 -10  -2  -1 287.307 16.1174  12
  10  -2   1 314.839 15.7070  14
  10   2   1 310.526 15.0622   7
 -10   2  -1 314.295 16.6823   5
 -10   2  -1 278.741 16.1117  12
  11  -3  -1 6.73232 3.94365  14
 -11  -3   1 9.07588 4.29355   5
 -11  -3   1 5.81847 4.38613  12
  11   3  -1 0.37641 3.67903  14
 -11   3   1 5.68358 4.27426  12
 -11   3   1 9.36489 4.32251   5
  11   3  -1 -0.5345 3.54661   7
  -9  -3   1 119.520 9.45387   1
  -9  -3   1 121.975 7.43462  16
  -9  -3   1 125.460 8.62984   5
  -9  -3   1 118.751 9.69293  12
   9  -3  -1 135.322 8.87077  14
  -9   3   1 117.873 9.59459  12
   9   3  -1 121.060 8.87640   7
  -9   3   1 110.333 8.94268   5
   7  -3  -1 120.484 9.31209   3
  -7  -3   1 107.738 7.57171   1
  -7  -3   1 124.212 6.27863  16
  -7  -3   1 122.789 7.50104   5
  -7  -3   1 118.723 7.70876  12
   7  -3  -1 118.276 7.61764  14
   7  -3  -1 127.414 7.52058   8
  -7   3   1 117.369 8.09288  12
   7   3  -1 105.953 7.66411   7
   7   3  -1 118.016 7.72328  10
  -7   3   1 124.249 8.74119  15
  -7   3   1 126.510 6.77693  11
  -7   3   1 134.733 8.28747   5
  -5  -3   1 219.710 9.63009  12
  -5  -3   1 219.444 8.40813  16
   5  -3  -1 204.858 9.49970   8
  -5  -3   1 208.300 9.06332   5
   5  -3  -1 222.360 11.4550   3
  -5  -3   1 216.378 9.70475   1
   5  -3  -1 216.675 9.54817  14
   5   3  -1 231.050 9.86505   7
  -5   3   1 228.578 11.3379  15
   5   3  -1 227.219 10.4481  10
  -5   3   1 235.752 10.0172   5
   5   3  -1 207.177 8.77535   2
  -5   3   1 214.769 9.30197  11
   3  -3  -1 88.9486 4.17999   6
  -3  -3   1 108.423 4.43432   5
   3  -3  -1 98.3187 6.16445   3
  -3  -3   1 83.5900 3.78930  16
  -3  -3   1 85.2210 4.35830   1
   3  -3  -1 82.4825 4.53615   8
   3  -3  -1 88.2232 4.42286  14
   3  -3  -1 87.6826 4.71534   9
  -3  -3   1 86.8666 4.41410  12
   3   3  -1 97.5062 5.60221  10
   3   3  -1 93.1338 5.03045   2
   3   3  -1 85.1590 4.60867   7
  -3   3   1 90.7349 5.42670  15
   1  -3  -1 346.836 12.2759   8
  -1  -3   1 352.286 12.0373  12
   1  -3  -1 371.148 11.8697   6
  -1  -3   1 358.660 11.5172  13
   1  -3  -1 378.530 12.5324   9
   1  -3  -1 375.618 13.9775   3
  -1  -3   1 352.358 12.1237   1
   1  -3  -1 354.253 11.9003  14
  -1  -3   1 370.606 11.6571  16
   1   3  -1 375.774 11.8535   7
   1   3  -1 390.773 13.1884  10
   1   3  -1 375.592 13.4807   2
   1  -3   1 1919.24 56.9284   1
   1  -3   1 1683.84 55.9213  14
   1  -3   1 1924.21 56.3840  13
  -1  -3  -1 1859.45 56.1148  16
   1  -3   1 1873.25 56.0219   6
  -1  -3  -1 1837.27 56.4203  12
  -1  -3  -1 1897.61 56.4269   9
  -1  -3  -1 1873.82 56.6088   5
   1  -3   1 1825.71 55.8247   4
  -1   3  -1 1919.44 57.1786  11
   1   3   1 1903.74 56.9382   7
  -1   3  -1 1933.54 56.5476  10
  -1   3  -1 1955.89 58.0714   2
  -1   3  -1 1958.67 58.6122  15
   1   3   1 1944.48 56.1223   4
   1   3   1 1793.44 57.8133  10
  -3  -3  -1 284.448 10.3283   1
  -3  -3  -1 292.477 11.0482  12
   3  -3   1 296.168 11.3523   8
  -3  -3  -1 292.933 9.66833  16
   3  -3   1 278.397 10.6293  14
   3  -3   1 279.748 10.4303   4
  -3  -3  -1 297.598 9.70266   9
   3  -3   1 300.510 11.7047   3
  -3  -3  -1 298.006 11.1314   5
   3  -3   1 283.150 10.2928   6
   3   3   1 303.915 11.3880   7
  -3   3  -1 303.305 11.8596  11
  -3   3  -1 299.716 13.3394  15
  -3   3  -1 311.837 11.6030   2
   3   3   1 289.730 11.7573  10
   3   3   1 296.146 10.6251   4
  -5  -3  -1 638.149 20.9097  16
   5  -3   1 641.344 20.8275   7
   5  -3   1 645.526 22.0535   4
  -5  -3  -1 651.882 23.0005   5
   5  -3   1 672.400 23.9323   3
  -5  -3  -1 656.954 22.9702  12
  -5  -3  -1 613.392 22.0602   1
   5  -3   1 663.966 22.7152   8
   5  -3   1 647.082 22.4926  14
   5   3   1 650.769 22.7108   7
  -5   3  -1 684.673 23.3147  11
  -5   3  -1 655.630 25.7579  15
   5   3   1 630.961 22.1513   4
  -5   3  -1 644.238 23.3019   5
   5   3   1 606.416 22.6559  10
   7  -3   1 38.7333 4.50426   8
   7  -3   1 50.8254 5.38883  14
  -7  -3  -1 48.7258 5.47110   5
  -7  -3  -1 52.9043 6.22356  12
  -7   3  -1 48.9189 6.18777   5
  -7   3  -1 43.1647 5.65234  12
  -7   3  -1 50.1926 6.67869  15
   7   3   1 47.3489 4.85144   4
  -7   3  -1 43.2115 4.97334  11
   7   3   1 42.0822 5.26225   7
  -9  -3  -1 2.82120 2.81117   5
   9  -3   1 1.43630 2.36132  14
  -9  -3  -1 0.57269 3.32890  12
   9   3   1 2.73342 2.65140   7
  -9   3  -1 2.26690 2.97340   5
  -9   3  -1 -0.6750 2.25218  12
 -10  -4   1 219.884 14.2853  12
 -10  -4   1 237.331 13.7876   5
  10  -4  -1 250.079 13.7179  14
 -10   4   1 224.750 14.0550  12
 -10   4   1 241.050 13.8991   5
  10   4  -1 233.521 13.4217   7
  -8  -4   1 113.588 8.27424  12
  -8  -4   1 101.485 8.01358   1
  -8  -4   1 124.656 8.36818   5
   8  -4  -1 117.430 7.78598  14
  -8  -4   1 115.801 6.61263  16
   8  -4  -1 110.523 8.02351   8
  -8   4   1 109.459 8.64461  12
   8   4  -1 102.526 8.10979  10
   8   4  -1 111.247 8.44160   7
  -8   4   1 105.927 8.36857   5
  -6  -4   1 197.850 10.0694  12
   6  -4  -1 194.137 9.85611   8
  -6  -4   1 201.661 9.51231   5
  -6  -4   1 192.166 8.16083  16
   6  -4  -1 185.215 9.47224  14
   6  -4  -1 209.195 11.9754   3
  -6  -4   1 181.700 9.60353   1
  -6   4   1 198.149 9.48924  11
   6   4  -1 199.264 10.0643   7
  -6   4   1 205.293 9.88877   5
   6   4  -1 188.526 10.6092  10
  -6   4   1 201.316 11.6886  15
  -4  -4   1 2525.18 74.3612  12
   4  -4  -1 2501.68 73.3561   6
   4  -4  -1 2470.82 74.7064   9
   4  -4  -1 2424.58 74.5713   8
  -4  -4   1 2423.61 73.9973   1
  -4  -4   1 2367.48 73.5898   5
   4  -4  -1 2290.97 73.9966  14
   4  -4  -1 2371.85 77.2094   3
  -4  -4   1 2445.35 72.7971  16
  -4   4   1 2467.65 73.9603  11
   4   4  -1 2443.47 74.1858   7
   4   4  -1 2479.01 75.7812  10
  -4   4   1 2469.94 76.1312  15
   4   4  -1 2235.54 74.5293   2
  -4   4   1 2472.11 74.0268   2
  -2  -4   1 530.689 18.0081  12
  -2  -4   1 536.889 18.0509   1
   2  -4  -1 538.577 18.5917   8
  -2  -4   1 552.685 17.3168  16
  -2  -4   1 539.752 16.7463  13
   2  -4  -1 555.541 17.6914   6
   2  -4  -1 559.638 20.6590   3
   2  -4  -1 562.810 18.8214   9
   2  -4  -1 535.671 17.8157  14
   2   4  -1 553.447 17.9633   7
   2   4  -1 534.007 19.6476   2
  -2   4   1 551.824 19.4415  15
   2   4  -1 571.084 19.5963  10
   0  -4   1 12.5681 1.09109  13
   0  -4  -1 12.1305 1.45094  12
   0  -4   1 11.4757 1.20880   6
   0  -4  -1 10.2567 1.26507   6
   0  -4   1 8.69211 1.53568   1
   0  -4  -1 11.9284 1.50837   8
   0  -4  -1 12.7898 1.71019   9
   0  -4   1 12.6310 1.35837  16
   0  -4   1 10.3299 0.92443  14
   0   4   1 14.0007 1.73146   7
   0   4   1 13.5946 2.30548  10
   0   4  -1 13.7237 2.72346   2
   0   4   1 12.5155 1.01731   4
   0   4  -1 9.37960 2.01828  15
   0   4  -1 11.4207 2.02480  10
  -2  -4  -1 1596.67 48.7684   9
   2  -4   1 1567.25 50.5804   3
   2  -4   1 1646.30 50.2465   8
   2  -4   1 1673.32 48.8193   6
   2  -4   1 1480.54 48.8487  14
   2  -4   1 1569.17 48.5475   4
  -2  -4  -1 1573.14 49.5186   5
  -2  -4  -1 1596.03 49.4807  12
   2  -4   1 1620.36 49.2421  13
  -2   4  -1 1740.52 51.1151   2
   2   4   1 1593.57 48.7358   4
   2   4   1 1617.96 49.9062   7
   2   4   1 1575.59 51.1349  10
  -2   4  -1 1678.54 48.8132  10
  -2   4  -1 1641.63 50.2573  11
  -2   4  -1 1639.30 52.0896  15
   4  -4   1 304.381 11.3672   4
  -4  -4  -1 282.666 11.1460   1
  -4  -4  -1 290.968 10.3289  16
  -4  -4  -1 330.518 12.5267   5
   4  -4   1 307.405 12.4962   8
  -4  -4  -1 311.069 12.2093  12
   4  -4   1 300.539 11.7314  14
   4  -4   1 308.744 12.9574   3
  -4   4  -1 298.537 12.1224   2
  -4   4  -1 319.169 12.9883   5
   4   4   1 291.725 13.1021  10
   4   4   1 303.055 11.4903   4
  -4   4  -1 307.715 15.0669  15
  -4   4  -1 324.206 13.0129  11
   4   4   1 308.709 12.4444   7
  -6  -4  -1 345.694 14.6976  12
   6  -4   1 345.164 13.9206  14
  -6  -4  -1 342.394 14.8932   5
   6  -4   1 340.192 14.3682   8
  -6   4  -1 325.378 16.9551  15
  -6   4  -1 347.954 14.6997  11
   6   4   1 337.877 14.6097   7
   6   4   1 322.346 14.5071  10
   6   4   1 319.672 13.5468   4
  -6   4  -1 336.349 15.2072   5
   8  -4   1 543.589 21.9728   8
  -8  -4  -1 532.324 22.5988  12
   8  -4   1 553.077 21.7098  14
  -8  -4  -1 526.563 22.3882   5
  -8   4  -1 527.713 22.6388   5
   8   4   1 538.476 22.0480   7
  -8   4  -1 505.843 21.9151  12
 -10  -4  -1 17.6055 4.68318   5
  10  -4   1 13.0161 4.26109  14
 -10  -4  -1 20.1569 5.65291  12
 -10   4  -1 19.6089 4.63575  12
 -10   4  -1 17.2965 4.41490   5
  10   4   1 18.3968 4.23866   7
  -9  -5   1 168.680 10.7586   5
  -9  -5   1 161.611 11.3722  12
   9  -5  -1 156.208 10.0482   8
   9  -5  -1 163.642 10.6990  14
  -9   5   1 145.678 10.8209  12
  -9   5   1 163.082 11.1324   5
   9   5  -1 136.085 9.61481   7
  -7  -5   1 14.3180 2.41466  16
   7  -5  -1 17.7994 3.76100   8
  -7  -5   1 23.7475 4.41196  12
  -7  -5   1 19.1643 3.54893   1
  -7  -5   1 16.9211 3.58570   5
   7  -5  -1 22.4565 3.62963  14
   7  -5  -1 17.6572 4.31544   3
  -7   5   1 21.0182 4.28625   5
   7   5  -1 16.4918 3.89767  10
   7   5  -1 18.4587 3.72996   7
  -7   5   1 17.5708 4.46047  15
  -7   5   1 24.6420 4.11067  11
   5  -5  -1 1187.59 38.2979   8
  -5  -5   1 1178.39 37.9191  12
   5  -5  -1 1203.67 36.6441   6
  -5  -5   1 1116.91 37.2281   1
  -5  -5   1 1143.26 37.0843   5
   5  -5  -1 1150.02 40.8999   3
  -5  -5   1 1121.65 35.7324  16
   5  -5  -1 1067.77 37.1709  14
  -5   5   1 1157.07 37.1060   2
   5   5  -1 1068.39 37.7877   2
  -5   5   1 1162.17 37.4466  11
  -5   5   1 1131.85 39.9723  15
   5   5  -1 1147.02 39.2224  10
   5   5  -1 1163.60 37.6950   7
  -3  -5   1 1917.03 57.4376  16
  -3  -5   1 1895.87 58.7054  12
   3  -5  -1 1980.72 58.0722   6
   3  -5  -1 1954.90 59.7053   9
   3  -5  -1 1822.48 61.9609   3
  -3  -5   1 1940.20 58.5934   1
   3  -5  -1 1927.50 59.5396   8
  -3  -5   1 1813.57 56.5139  13
   3  -5  -1 1809.87 58.3442  14
  -3   5   1 1930.27 58.5530  10
   3   5  -1 1839.90 60.5105   2
  -3   5   1 1928.52 59.8234   2
   3   5  -1 1942.50 60.6314  10
   3   5  -1 1920.87 58.6534   7
  -3   5   1 1956.55 60.8919  15
  -1  -5   1 168.106 5.85867  13
  -1  -5   1 167.808 6.28511  16
   1  -5  -1 161.318 7.28209   8
  -1  -5   1 161.748 6.38431   6
   1  -5  -1 161.946 6.61553  14
   1  -5  -1 157.575 6.56974   6
   1  -5  -1 188.889 7.85085   9
  -1  -5   1 155.888 6.91078  12
  -1  -5   1 163.891 6.95748   1
  -1   5   1 188.325 6.74933   7
   1   5  -1 170.842 6.49319   7
   1   5  -1 175.833 8.40524  10
  -1   5   1 156.461 5.63406   4
  -1   5   1 169.261 8.01474  10
   1   5  -1 176.445 9.13445   2
   1  -5   1 84.9581 5.06680   8
  -1  -5  -1 81.2229 3.97774   8
   1  -5   1 88.0491 3.97874   6
   1  -5   1 88.8008 4.90142   1
   1  -5   1 82.1578 4.04733  13
  -1  -5  -1 85.2559 3.96861   1
  -1  -5  -1 85.7033 4.49666   9
   1  -5   1 91.9235 3.86057  14
  -1  -5  -1 91.6822 3.56359  16
  -1  -5  -1 80.7466 4.40822  12
  -1   5  -1 89.0667 5.99466  15
  -1   5  -1 89.1182 4.91305  10
   1   5   1 84.7113 3.59204   4
  -1   5  -1 88.9228 6.24002   2
   1   5   1 92.8252 4.85774   7
   1   5   1 94.9613 5.94717  10
   3  -5   1 521.830 18.4582  14
  -3  -5  -1 550.789 19.3128   5
  -3  -5  -1 554.495 19.2651  12
  -3  -5  -1 517.660 17.9741   1
   3  -5   1 530.960 20.4125   3
   3  -5   1 544.428 19.8589   8
  -3  -5  -1 551.034 17.3087  16
   3  -5   1 565.971 18.2792   6
   3   5   1 603.614 19.8144   7
  -3   5  -1 548.632 20.3107   2
  -3   5  -1 541.126 21.8165  15
   3   5   1 564.842 21.0856  10
  -3   5  -1 550.311 19.9909  11
   3   5   1 540.574 18.1378   4
   5  -5   1 157.658 8.93676   8
   5  -5   1 166.776 8.21769  14
  -5  -5  -1 168.856 8.85739  12
  -5  -5  -1 174.840 9.05863   5
   5   5   1 161.618 9.42381  10
  -5   5  -1 157.938 10.8597  15
   5   5   1 169.442 9.27401   7
  -5   5  -1 171.750 9.51918   5
   5   5   1 156.408 7.53191   4
  -5   5  -1 171.298 9.59866  11
  -7  -5  -1 673.823 26.2710  12
   7  -5   1 691.295 25.2174  14
   7  -5   1 702.111 26.1030   8
  -7  -5  -1 689.721 26.5067   5
   7   5   1 656.957 26.1870  10
   7   5   1 692.592 25.9260   7
  -7   5  -1 697.821 26.5893   5
  -7   5  -1 680.058 25.5861  11
   7   5   1 670.768 24.5776   4
  -9  -5  -1 197.575 12.7305   5
   9  -5   1 187.012 11.4152  14
  -9  -5  -1 185.182 12.2770  12
  -9   5  -1 178.060 12.2410   5
   9   5   1 195.041 11.5362   7
  -9   5  -1 172.853 11.9754  12
 -10  -6   1 379.567 18.0272   5
  10  -6  -1 371.694 18.1828   8
 -10  -6   1 346.361 18.8829  12
  10  -6  -1 381.712 18.1296  14
  10   6  -1 370.483 17.8358   7
 -10   6   1 380.533 18.6251   5
 -10   6   1 363.642 18.6705  12
  -8  -6   1 167.702 10.3942   5
   8  -6  -1 179.233 10.0508  14
   8  -6  -1 182.743 11.1970   8
  -8  -6   1 146.121 10.5323  12
  -8   6   1 147.184 10.6324   5
   8   6  -1 166.325 10.9880  10
   8   6  -1 152.452 9.91843   7
   6  -6  -1 16.7542 4.35638   3
  -6  -6   1 13.0050 3.46036  12
   6  -6  -1 18.3749 3.84419   8
   6  -6  -1 9.75578 2.75666  14
  -6  -6   1 13.6471 2.10490  16
  -6  -6   1 15.4360 3.19371   5
  -6  -6   1 13.7363 2.84064   1
   6  -6  -1 13.5329 2.95683   6
  -6   6   1 15.3806 3.65167   5
  -6   6   1 15.9918 3.32081  11
  -6   6   1 14.7357 4.29538  15
   6   6  -1 12.7568 3.81227   7
   6   6  -1 14.8974 4.65242  10
  -4  -6   1 533.310 17.9300  16
   4  -6  -1 565.148 23.2387   3
   4  -6  -1 494.160 19.0708  14
   4  -6  -1 562.194 20.5929   8
   4  -6  -1 551.977 18.7349   6
  -4  -6   1 519.428 19.5861  12
  -4  -6   1 523.779 19.1646   1
   4   6  -1 569.685 22.1512  10
  -4   6   1 550.461 20.4927   2
  -4   6   1 538.788 21.9184  15
   4   6  -1 523.843 21.1529   2
   4   6  -1 548.476 19.5597   7
  -2  -6   1 116.152 5.93845   1
   2  -6  -1 137.496 7.09191   9
  -2  -6   1 117.059 6.19374  12
   2  -6  -1 118.606 5.51340   6
   2  -6  -1 113.289 6.56411   8
  -2  -6   1 114.505 5.04505  16
   2  -6  -1 112.293 5.62390  14
  -2   6   1 111.505 7.53763  15
  -2   6   1 123.557 5.14173   7
  -2   6   1 123.400 6.67317  10
   2   6  -1 123.390 5.91514   7
   2   6  -1 126.766 8.37375   2
   2   6  -1 124.148 7.54776  10
   0  -6   1 380.675 12.9000  13
   0  -6  -1 361.958 14.0123   8
   0  -6  -1 418.542 14.7913   9
   0  -6   1 378.459 13.3074   6
   0  -6   1 390.353 14.7546   8
   0  -6   1 385.228 14.2598   1
   0  -6  -1 376.731 13.5821   6
   0   6   1 397.234 15.9695  10
   0   6   1 376.047 13.7733   7
   0   6  -1 392.828 16.2262  15
   0   6  -1 384.505 12.6223   7
   0   6  -1 407.400 15.2353  10
   0   6  -1 418.493 16.7747   2
  -2  -6  -1 1802.20 55.8482  16
  -2  -6  -1 1766.18 56.5382   1
  -2  -6  -1 1868.44 57.8179  12
  -2  -6  -1 1857.06 57.2677   9
   2  -6   1 1737.45 56.6297  14
   2  -6   1 1972.40 59.2103   8
   2  -6   1 1923.07 56.8617   6
  -2   6  -1 1886.82 57.5153  10
  -2   6  -1 1879.70 58.6446  11
   2   6   1 1845.69 60.3440  10
   2   6   1 1854.61 58.1223   7
  -2   6  -1 2011.80 60.5165   2
  -2   6  -1 1855.75 60.9891  15
   4  -6   1 53.9989 5.38703   8
  -4  -6  -1 66.5758 5.40671   5
  -4  -6  -1 60.2825 5.13173  12
   4  -6   1 63.0628 4.42995  14
   4  -6   1 58.8259 4.29787   6
  -4   6  -1 76.3613 7.76521  15
   4   6   1 59.0775 4.01234   4
   4   6   1 60.4087 6.59139  10
   4   6   1 64.3315 6.01267   7
  -4   6  -1 64.1525 6.24849  11
  -4   6  -1 57.9309 5.91814   2
   6  -6   1 2.57040 2.70561   8
  -6  -6  -1 4.87461 2.85958   5
   6  -6   1 1.64314 2.05677  14
  -6  -6  -1 5.12850 2.93659  12
   6   6   1 9.42335 4.14921  10
   6   6   1 6.15430 3.68177   7
  -6   6  -1 3.95163 3.50247   5
  -6   6  -1 7.15860 3.71341  11
  -6   6  -1 1.49931 2.53965  15
   6   6   1 4.54413 2.33014   4
  -8  -6  -1 254.287 14.3186  12
  -8  -6  -1 270.468 14.7696   5
   8  -6   1 271.722 13.5284  14
   8  -6   1 278.873 14.4299   8
  -8   6  -1 256.146 13.3460  11
  -8   6  -1 273.643 14.9503   5
   8   6   1 278.190 15.0719   7
  -9  -7   1 16.7263 4.75274   5
   9  -7  -1 20.6437 4.65452  14
   9  -7  -1 11.9237 3.71692   8
  -9  -7   1 7.46457 4.33989  12
   9   7  -1 10.4022 4.89340  10
  -9   7   1 14.2680 3.95716   5
   9   7  -1 7.58210 3.43470   7
  -9   7   1 5.39502 4.17110  12
   7  -7  -1 260.214 12.8316  14
  -7  -7   1 254.633 13.6930  12
  -7  -7   1 244.571 12.5492   5
   7  -7  -1 257.552 14.0520   8
  -7   7   1 259.052 13.6324   5
   7   7  -1 287.947 14.1124   7
   7   7  -1 254.222 14.6691  10
  -7   7   1 254.169 13.4070  11
  -5  -7   1 177.453 9.79511  12
   5  -7  -1 192.178 8.56116   6
  -5  -7   1 181.402 7.77096  16
   5  -7  -1 173.476 10.2563   8
  -5  -7   1 181.724 9.11693   1
   5  -7  -1 167.834 9.00911  14
   5  -7  -1 188.845 12.5224   3
   5   7  -1 197.465 12.5125  10
  -5   7   1 192.874 10.3532   2
   5   7  -1 192.280 11.3472   2
  -5   7   1 167.676 9.43188  11
   5   7  -1 173.292 9.27711   7
  -5   7   1 165.384 11.5878  15
  -3  -7   1 101.790 6.08604   1
  -3  -7   1 105.917 6.57686  12
   3  -7  -1 107.755 5.83761   6
   3  -7  -1 101.502 7.04613   8
   3  -7  -1 112.560 6.04283  14
  -3  -7   1 107.463 5.18008  16
   3   7  -1 117.577 6.42685   7
   3   7  -1 106.231 8.55758  10
  -3   7   1 111.038 8.40114  15
  -3   7   1 108.148 6.43457  10
  -3   7   1 122.196 8.38152   2
   3   7  -1 98.3291 8.41661   2
  -1  -7   1 466.159 16.0670   6
   1  -7  -1 469.172 17.8180   9
  -1  -7   1 474.591 16.9496   1
   1  -7  -1 448.162 17.3430   8
  -1  -7   1 451.253 17.2087   8
   1  -7  -1 435.735 16.0397   6
  -1  -7   1 462.261 15.7759  16
  -1   7   1 470.910 18.4532  10
  -1   7   1 472.247 15.9825   7
   1   7  -1 467.230 15.7392   7
   1   7  -1 472.302 18.6212  10
   1   7  -1 467.192 19.0442  15
   1   7  -1 489.320 19.9768   2
   1  -7   1 39.7181 2.94893   6
  -1  -7  -1 36.2625 3.00506   1
  -1  -7  -1 35.7968 3.69537   9
  -1  -7  -1 43.8185 3.86759  12
  -1  -7  -1 30.8444 3.00516   8
  -1  -7  -1 49.9743 3.80554   6
   1  -7   1 40.0970 4.57601   8
   1   7   1 44.5948 5.57490  10
  -1   7  -1 39.2435 5.73127   2
  -1   7  -1 41.5964 4.96912  15
  -1   7  -1 37.8472 4.19097  10
   3  -7   1 3.06286 1.68708   6
  -3  -7  -1 2.25152 1.89232  12
   3  -7   1 2.60851 1.68548   8
   3  -7   1 3.58861 1.60254  14
  -3   7  -1 6.80563 3.34584  15
  -3   7  -1 3.41240 3.13771   2
   3   7   1 -1.5615 1.96444  10
   3   7   1 -0.8727 1.61204   7
  -3   7  -1 0.10998 1.82441  11
   5  -7   1 597.939 23.4244   8
  -5  -7  -1 612.372 22.9732   5
  -5  -7  -1 607.235 22.6691  12
   5  -7   1 555.724 21.3085  14
  -5   7  -1 593.260 22.9540   5
   5   7   1 613.547 23.1319   7
  -5   7  -1 594.778 23.2410  11
   5   7   1 600.045 24.4740   2
  -5   7  -1 548.508 25.7525  15
   5   7   1 560.235 24.5131  10
  -7  -7  -1 93.3680 7.50111  12
   7  -7   1 80.8240 8.18233   8
  -7  -7  -1 83.5631 7.41040   5
   7  -7   1 67.9941 8.05458  14
  -7   7  -1 70.4202 7.50440   5
   7   7   1 71.2035 7.81186   7
  -7   7  -1 76.6482 7.76505  11
   7   7   1 91.2491 9.54333  10
   9  -7   1 3.45162 3.40324   8
  -9  -7  -1 4.05232 3.56586  12
  -9  -7  -1 2.80359 3.90903   5
   9   7   1 2.06911 3.25493   7
  -9   7  -1 -1.1359 3.73327  12
  -9   7  -1 6.74744 4.42510   5
  -8  -8   1 602.684 25.5058  12
   8  -8  -1 621.868 25.9594   8
  -8   8   1 602.455 25.2304   5
   8   8  -1 591.262 24.8684   7
   8   8  -1 590.852 27.0639  10
   6  -8  -1 551.801 23.5413   8
  -6  -8   1 549.972 22.6294  12
   6  -8  -1 583.307 21.1423   6
   6  -8  -1 549.748 21.9056  14
   6   8  -1 590.889 22.8960   7
  -6   8   1 565.473 22.9227  11
   6   8  -1 567.946 25.2950  10
   4  -8  -1 69.1206 4.90463   6
   4  -8  -1 81.3677 6.96869   8
  -4  -8   1 78.3191 4.53827  16
  -4  -8   1 78.7361 5.60064   1
  -4  -8   1 74.5656 6.37182  12
   4  -8  -1 70.8890 5.44173  14
  -4   8   1 78.2131 8.31856  15
  -4   8   1 81.2027 7.47943   2
   4   8  -1 94.4205 6.54454   7
   4   8  -1 77.2601 8.12151   2
   4   8  -1 105.374 9.62096  10
  -2  -8   1 897.405 30.7490   1
  -2  -8   1 929.540 29.4582  16
  -2  -8   1 914.309 30.0695   6
  -2  -8   1 856.095 30.7958   8
   2  -8  -1 879.562 30.1166  14
   2  -8  -1 921.393 30.1195   6
   2  -8  -1 911.537 32.1098   8
  -2  -8   1 908.005 31.1913  12
   2   8  -1 921.098 29.9231   7
  -2   8   1 920.994 31.9757  10
   2   8  -1 961.495 34.9548   2
  -2   8   1 954.688 34.3761   2
   2   8  -1 948.100 33.8612  10
  -2   8   1 934.494 34.6591  15
   0  -8  -1 1767.92 59.2524   8
   0  -8  -1 1899.40 58.5610   6
   0  -8  -1 1903.85 59.9509   9
   0  -8   1 1880.20 58.0552   6
   0  -8   1 1888.43 60.3526   8
   0  -8   1 1879.10 59.4593   1
   0   8  -1 1935.75 60.9034  10
   0   8   1 1826.41 58.2674   7
   0   8  -1 1896.41 62.8431  15
   0   8   1 1959.79 62.0120  10
   0   8  -1 1911.29 63.0061   2
  -2  -8  -1 681.730 24.4897  12
   2  -8   1 671.701 23.1743   6
   2  -8   1 707.738 25.9613   8
  -2  -8  -1 688.961 24.0183   6
   2   8   1 704.787 27.7388  10
   2   8   1 689.480 24.5148   7
  -2   8  -1 720.866 27.3999   2
  -2   8  -1 683.915 28.2644  15
  -2   8  -1 683.314 25.4456  11
   4  -8   1 652.356 24.8038   8
  -4  -8  -1 625.656 23.5313  12
   4  -8   1 645.168 21.8943   6
   4   8   1 647.113 23.8192   7
  -4   8  -1 612.182 24.5287  11
   4   8   1 632.017 26.4597  10
  -4   8  -1 596.268 24.7463   2
  -4   8  -1 582.624 27.0429  15
   4   8   1 593.292 26.0705   2
  -6  -8  -1 313.002 15.4648  12
   6  -8   1 317.242 16.1365   8
   6   8   1 329.573 17.6796  10
  -6   8  -1 297.103 15.7427   5
   6   8   1 346.128 16.4336   7
  -6   8  -1 340.438 16.1448  11
   8  -8   1 68.6019 7.97398   8
  -8  -8  -1 79.8061 7.50734  12
  -8  -8  -1 67.5782 7.65358   5
   8   8   1 73.1087 9.15035  10
  -8   8  -1 69.1679 8.55058   5
  -8   8  -1 73.1380 7.37567  11
   8   8   1 72.9503 8.01850   7
   7  -9  -1 142.535 10.5081   8
  -7  -9   1 149.856 10.6794  12
  -7   9   1 140.745 11.0459   5
   7   9  -1 146.585 13.3530  10
  -7   9   1 149.057 11.2582  11
   7   9  -1 137.886 10.4197   7
   5  -9  -1 2.81289 3.41208   8
   5  -9  -1 1.51265 1.92815  14
   5  -9  -1 2.63253 2.48491   6
  -5  -9   1 2.42346 3.05528  12
  -5   9   1 0.11483 3.41142   2
   5   9  -1 0.48026 2.25794   7
  -5   9   1 1.74578 2.80168  11
   5   9  -1 -1.3644 4.72095  10
   5   9  -1 -0.0095 3.15910   2
  -3  -9   1 1.32878 1.86191   1
   3  -9  -1 1.34635 1.60972  14
  -3  -9   1 1.22508 1.35323  16
   3  -9  -1 7.97903 2.06015   6
  -3  -9   1 -0.1177 1.72462  12
  -3  -9   1 1.53519 1.43774   6
   3  -9  -1 1.15411 2.57928   8
  -3   9   1 13.5971 4.06529   2
   3   9  -1 12.9553 5.08775  10
  -3   9   1 2.10554 3.39840  15
   3   9  -1 1.99897 2.19695   7
   3   9  -1 -0.7254 2.65588   2
   1  -9  -1 306.758 12.9045   6
   1  -9  -1 312.794 14.2966   8
  -1  -9   1 327.457 13.6848   1
  -1  -9   1 319.597 14.1982   8
  -1  -9   1 329.908 12.8381   6
  -1   9   1 318.095 15.0910  10
  -1   9   1 315.822 16.5599  15
   1   9  -1 298.418 16.0548  15
   1   9  -1 326.123 15.6491  10
  -1   9   1 345.886 17.0665   2
   1   9  -1 329.353 16.9588   2
   1  -9   1 151.216 7.75271   6
   1  -9   1 171.733 9.90890   8
  -1  -9  -1 162.142 8.33378   6
   1   9   1 152.130 11.6421   2
   1   9   1 162.044 8.32981   7
   1   9   1 161.078 10.7304  10
  -1   9  -1 161.148 11.5225  15
  -1   9  -1 162.568 9.81449  10
  -1   9  -1 174.084 11.6245   2
   3  -9   1 44.1006 4.42152   6
   3  -9   1 46.0496 6.11896   8
  -3  -9  -1 37.3255 4.36877   6
  -3  -9  -1 44.3333 4.96167  12
   3   9   1 37.6101 5.10352   7
   3   9   1 50.2439 7.83163   2
   3   9   1 32.3491 6.23509  10
  -3   9  -1 50.6440 6.62900  11
  -3   9  -1 39.3222 6.05127   2
   5  -9   1 99.0410 6.80290   6
  -5  -9  -1 92.7448 7.48385  12
   5  -9   1 95.0957 8.16328   8
   5   9   1 101.312 8.81782   7
   5   9   1 102.581 11.2381  10
   5   9   1 97.3557 9.80149   2
  -5   9  -1 90.5581 9.29738  11
  -7  -9  -1 5.43544 2.95830  12
   7  -9   1 4.03834 3.96942   8
   7   9   1 6.74231 5.76238  10
  -7   9  -1 8.62442 4.71796   5
   7   9   1 4.89802 4.61656   7
  -7   9  -1 3.80695 3.12304  11
   8 -10  -1 12.0514 5.19108   8
  -8 -10   1 17.5691 4.48982  12
   8  10  -1 9.84903 4.83184   7
  -8  10   1 10.4066 5.11426   5
   8  10  -1 3.60426 5.74939  10
  -6 -10   1 2.78839 3.09084   6
   6 -10  -1 5.24087 3.20674   6
   6 -10  -1 5.64685 3.26859   8
  -6 -10   1 8.31551 3.99068  12
  -6  10   1 5.53813 3.52183  11
   6  10  -1 1.90242 4.29681  10
   6  10  -1 7.89854 3.91581   7
  -4 -10   1 6.47674 2.82758  12
   4 -10  -1 4.47139 2.76943   6
   4 -10  -1 4.39793 3.49250   8
  -4 -10   1 2.98646 2.57880   6
   4  10  -1 13.7380 4.70116   2
   4  10  -1 12.0903 5.97114  10
  -4  10   1 9.95904 4.98306   2
   4  10  -1 2.67501 2.94628   7
  -4  10   1 9.66868 4.49325  11
   2 -10  -1 7.18688 3.27965   8
  -2 -10   1 7.68850 2.49203   6
   2 -10  -1 -1.9035 1.90553   6
  -2 -10   1 -1.3508 2.14064   1
   2  10  -1 0.86699 3.47445   2
  -2  10   1 1.10896 3.02610  10
   2  10  -1 0.92873 2.75658  15
  -2  10   1 -2.7909 3.81093   2
   2  10  -1 9.60220 5.04541  10
   0 -10   1 63.2114 5.90560   8
   0 -10  -1 60.1470 5.70594   8
   0 -10  -1 49.8960 4.55885   6
   0 -10   1 62.6345 5.10604   6
   0  10  -1 63.6713 8.19740   2
   0  10   1 64.0090 7.89670  10
   0  10   1 57.5738 7.61417   2
   0  10  -1 61.0311 7.21622  10
   2 -10   1 173.105 11.3153   8
   2 -10   1 169.117 8.51489   6
  -2 -10  -1 171.018 9.40121   6
   2  10   1 171.088 12.0054  10
   2  10   1 181.262 13.6871   2
   2  10   1 177.252 9.54571   7
  -2  10  -1 177.274 11.0257  11
  -2  10  -1 181.227 13.5470   2
  -4 -10  -1 0.32066 2.73197   6
  -4 -10  -1 -0.0729 2.99326  12
   4 -10   1 0.51002 2.34605   6
   4 -10   1 6.13112 3.78529   8
   4  10   1 5.77507 5.39447  10
  -4  10  -1 -0.6391 4.49228   2
   4  10   1 0.71995 3.45290   7
  -4  10  -1 3.56056 4.81714  11
   4  10   1 -2.9988 3.90587   2
  -6 -10  -1 43.7346 5.59610   6
   6 -10   1 52.7058 7.86226   8
  -6 -10  -1 51.9396 6.72601  12
   6  10   1 33.5937 6.15534   7
   6  10   1 45.6117 8.98414  10
  -6  10  -1 40.1864 5.92167   5
  -6  10  -1 55.8909 8.32623  11
   7 -11  -1 78.3270 9.72841   8
  -7 -11   1 85.4006 9.05635  12
  -7 -11   1 71.5912 7.90163   6
   7  11  -1 81.6951 10.3741  10
   7  11  -1 72.6321 7.28556   7
  -7  11   1 86.0837 9.83057   5
  -5 -11   1 122.397 8.38578   6
   5 -11  -1 115.942 8.17959   6
  -5 -11   1 122.101 10.1062  12
   5 -11  -1 115.419 10.6295   8
   5  11  -1 125.028 13.6395   2
   5  11  -1 128.254 13.9646  10
  -5  11   1 127.105 11.2757  11
   3 -11  -1 133.442 8.47640   6
  -3 -11   1 136.812 8.53695   6
   3 -11  -1 153.893 11.0236   8
   3  11  -1 148.701 13.4664  10
  -3  11   1 152.317 11.9249   2
   3  11  -1 131.973 13.3033   2
   1 -11  -1 170.225 9.05163   6
   1 -11  -1 159.972 10.6143   8
  -1 -11   1 172.715 9.21806   6
   1  11  -1 172.872 11.9815  10
  -1  11   1 166.103 11.6563  10
   1  11  -1 190.452 15.0258   2
  -1  11   1 181.765 13.9698   2
   1 -11   1 256.173 14.1202   8
  -1 -11  -1 256.460 12.2213   6
   1 -11   1 242.904 11.3083   6
   1  11   1 244.432 16.8579   2
  -1  11  -1 249.221 14.3661  11
   1  11   1 262.115 16.0164  10
  -1  11  -1 230.466 16.6102   2
   3 -11   1 242.259 14.4808   8
  -3 -11  -1 236.063 12.3758   6
   3 -11   1 242.747 11.4165   6
   3  11   1 230.814 15.9906   2
   3  11   1 235.337 16.7311  10
  -3  11  -1 251.079 15.1042  11
  -5 -11  -1 69.3805 7.96176  12
   5 -11   1 68.1020 8.82776   8
  -5 -11  -1 76.2308 8.13498   6
   5  11   1 90.8507 11.2425  10
   5  11   1 85.9839 8.62410   7
  -5  11  -1 77.6318 9.73913  11
   4 -12  -1 420.595 17.4743   6
  -4 -12   1 402.570 18.0598   6
   4 -12  -1 443.010 21.4750   8
  -4  12   1 432.511 23.1021   2
  -4  12   1 444.411 21.6515  11
   4  12  -1 413.182 23.8580  10
   4  12  -1 420.279 24.3892   2
  -2 -12   1 277.446 13.3411   6
   2 -12  -1 292.790 15.5246   8
   2 -12  -1 290.700 13.2538   6
  -2  12   1 295.500 18.9710   2
   2  12  -1 305.018 20.0036   2
   2  12  -1 290.536 18.2791  10
   0 -12   1 92.0375 6.99365   6
   0 -12  -1 87.7594 7.26849   6
   0 -12   1 95.6816 8.58824   8
   0  12  -1 96.2524 12.0349   2
   0  12  -1 87.0419 8.75146  10
   0  12   1 77.8458 9.44828  10
   0  12   1 92.5542 11.9199   2
   2 -12   1 82.9949 9.04822   8
   2 -12   1 69.6329 5.79821   6
  -2 -12  -1 80.6979 7.39636   6
   2  12   1 85.2781 11.0698  10
   2  12   1 78.5078 11.2244   2
  -2  12  -1 73.9504 9.77604   2
  -2  12  -1 84.2209 8.72688  11
  -4 -12  -1 296.897 14.7923   6
   4 -12   1 277.717 16.7029   8
  -4  12  -1 254.223 17.9820   2
   4  12   1 289.789 19.6040   2
   4  12   1 300.145 20.0272  10
  -4  12  -1 310.635 17.8499  11
   3 -13  -1 8.61945 3.70132   8
   3 -13  -1 8.70583 3.58232   6
  -3 -13   1 4.38921 2.42902   6
  -3  13   1 6.83172 5.60540  11
   3  13  -1 11.3369 6.85546  10
   3  13  -1 5.66687 7.00445   2
  -3  13   1 10.9707 6.88686   2
  -1 -13   1 3.70591 2.71534   6
   1 -13  -1 1.84860 2.86947   6
   1  13  -1 0.47037 6.27950   2
  -1  13   1 3.70338 4.32708   2
   1  13  -1 -8.2037 4.34191  10
   1 -13   1 7.11406 4.04836   8
  -1 -13  -1 13.2367 4.14827   6
   1 -13   1 12.8982 3.61291   6
   1  13   1 17.3136 6.20744   2
  -1  13  -1 17.3041 5.95220  11
   1  13   1 10.6504 6.38783  10
  -1  13  -1 19.1547 6.48966   2
   3 -13   1 12.5916 4.35453   8
  -3 -13  -1 9.03460 4.04259   6
   3  13   1 10.1022 6.94485   2
   3  13   1 9.05538 5.33835  10
  -3  13  -1 4.86303 5.58535  11
  -3  13  -1 8.95025 5.35997   2
 -12   0   2 53.2148 7.86835   1
  12   0  -2 66.1776 7.43073  14
 -12   0   2 62.7893 8.18119  12
  10   0  -2 41.5968 5.90602  14
 -10   0   2 37.7658 4.83522  16
 -10   0   2 54.2284 6.54116   5
  10   0  -2 40.7619 7.73760   3
 -10   0   2 37.6901 6.72439  12
 -10   0   2 42.9490 6.53643   1
  -8   0   2 372.318 14.8589  16
  -8   0   2 382.755 15.8324   5
   8   0  -2 374.232 15.3842   7
   8   0  -2 390.192 19.8181   3
  -8   0   2 365.481 16.5072  12
   8   0  -2 400.224 16.2251  14
   6   0  -2 192.994 8.22413  10
   6   0  -2 190.702 8.27960   8
   6   0  -2 194.747 8.84322   7
   6   0  -2 198.941 9.17403  14
  -6   0   2 202.677 8.75712   5
  -6   0   2 202.514 9.37154  12
  -6   0   2 210.197 8.99217  15
  -6   0   2 192.098 8.33160  16
   4   0  -2 3857.57 110.429   8
  -4   0   2 3523.84 115.230  15
  -4   0   2 3913.13 110.103  16
   4   0  -2 3801.35 110.731  10
  -4   0   2 3799.09 110.149   5
   4   0  -2 3715.95 110.708  14
  -4   0   2 3770.55 110.800  12
   4   0  -2 3656.43 115.792  15
   4   0  -2 3393.95 110.520   9
   4   0  -2 3638.79 110.572   7
   2   0  -2 15.8983 1.22819   9
   2   0  -2 16.6455 2.06895   3
   2   0  -2 18.3193 1.26324  14
  -2   0   2 22.7682 1.23453  16
  -2   0   2 21.4274 1.56918   1
   2   0  -2 18.1347 1.58082  10
  -2   0   2 15.5083 1.24564  12
   2   0  -2 14.3201 1.38123   2
   0   0   2 24.5820 2.08129  15
   0   0  -2 20.8338 1.80439  15
   0   0   2 15.6226 1.19832   4
   0   0   2 20.6004 0.95081  16
   0   0  -2 15.8557 1.58280   2
   0   0   2 23.3479 1.26247  13
   0   0  -2 16.8815 1.32656  11
  -2   0  -2 27.5778 2.03437  12
  -2   0  -2 33.8131 2.38487  11
   2   0   2 28.4116 2.38645   4
   2   0   2 31.7032 2.04540  13
  -2   0  -2 30.8141 2.33488   5
  -2   0  -2 33.7980 3.38296  15
   2   0   2 32.4434 2.25641   7
  -2   0  -2 31.2124 2.21141   2
   4   0   2 237.553 9.54975   4
   4   0   2 224.911 9.15757   7
  -4   0  -2 238.068 9.71925  11
  -4   0  -2 230.509 11.5418  15
   4   0   2 217.963 8.39898   8
  -4   0  -2 230.331 10.1029   5
  -4   0  -2 230.727 9.65129  12
  -6   0  -2 434.281 17.5748  12
  -6   0  -2 442.724 17.1406  11
  -6   0  -2 460.782 20.5085  15
  -6   0  -2 441.707 18.0615   5
   6   0   2 423.603 16.7890   4
   6   0   2 422.629 16.3600   7
  -8   0  -2 282.533 14.1878  12
  -8   0  -2 241.653 13.1426  16
   8   0   2 259.662 12.2176   7
  -8   0  -2 272.779 14.1162   5
   8   0   2 250.073 12.4936   4
  10   0   2 33.1236 5.91912  14
 -10   0  -2 22.3983 4.94966   5
 -10   0  -2 19.6084 5.28785  12
  11  -1  -2 414.532 19.2528  14
 -11  -1   2 435.264 21.3373  12
 -11  -1   2 429.982 19.5948   5
 -11  -1   2 428.969 18.3596  16
 -11  -1   2 417.130 21.6613   1
  11   1  -2 416.831 18.9672  14
  11   1  -2 404.769 23.4268   3
 -11   1   2 418.698 22.1427   1
 -11   1   2 435.246 20.8490  12
 -11   1   2 431.131 19.6551   5
  -9  -1   2 1401.54 49.2649   1
  -9  -1   2 1390.17 45.9672  16
   9  -1  -2 1347.51 51.4572   3
  -9  -1   2 1433.80 48.7584  12
   9  -1  -2 1394.82 47.2997  14
  -9  -1   2 1378.96 46.9531   5
  -9   1   2 1393.97 48.5600  12
   9   1  -2 1439.94 46.6355   7
  -9   1   2 1418.53 47.0987   5
   9   1  -2 1413.46 47.1511  14
   9   1  -2 1409.73 52.5138   3
  -9   1   2 1423.75 46.2092  16
   7  -1  -2 3446.90 101.963  14
  -7  -1   2 3297.96 102.342  12
   7  -1  -2 3172.11 105.495   3
   7  -1  -2 3345.66 100.828   7
   7  -1  -2 3333.47 101.007   8
  -7  -1   2 3250.52 100.996   5
  -7  -1   2 3336.47 100.545  16
  -7  -1   2 3403.64 103.207   1
  -7   1   2 3457.95 100.800  16
   7   1  -2 3373.78 101.396   7
  -7   1   2 3323.50 101.298   5
  -7   1   2 3155.98 101.707  15
  -7   1   2 3248.67 102.252  12
  -5  -1   2 2074.05 60.9235  16
   5  -1  -2 1916.14 61.1440   7
  -5  -1   2 1944.92 61.6989  12
   5  -1  -2 1865.52 60.6323   9
   5  -1  -2 1940.02 64.6540   3
   5  -1  -2 2087.50 61.9614  14
  -5  -1   2 2110.29 62.6145   1
   5  -1  -2 1923.95 61.2437   8
   5  -1  -2 1887.02 61.7265  15
  -5  -1   2 1978.75 60.9467   5
  -5   1   2 2081.57 61.9359  15
  -5   1   2 2065.93 60.2127  11
   5   1  -2 1976.10 61.6080   7
  -5   1   2 2052.25 62.0157  12
   5   1  -2 2127.71 62.2148  10
  -5   1   2 2041.92 61.3619   5
   5   1  -2 2042.73 61.1583  15
  -3  -1   2 6196.02 170.493   1
  -3  -1   2 5940.08 168.780  12
  -3  -1   2 5925.28 168.645  16
  -3  -1   2 5589.05 166.953   5
   3  -1  -2 5090.97 168.288  14
   3  -1  -2 5612.19 169.885   9
   3  -1  -2 5754.87 170.213   8
   3  -1  -2 5191.09 167.974   6
  -3   1   2 5839.36 168.131   5
   3   1  -2 5651.68 167.322  15
  -3   1   2 5834.46 174.261  15
   3   1  -2 5442.81 170.888  10
   3   1  -2 5251.19 169.027   2
   3   1  -2 4999.52 165.097   7
   1  -1  -2 6163.52 214.418   3
   1  -1  -2 7492.64 210.825   8
  -1  -1   2 7725.70 209.163  16
   1  -1  -2 7521.85 208.988  14
  -1  -1   2 7546.89 209.135  13
   1  -1  -2 6065.64 209.371   9
   1  -1  -2 7038.73 209.819  11
  -1  -1   2 6665.68 211.907  15
  -1   1   2 7803.49 207.132  16
   1   1  -2 5895.93 212.421  15
  -1  -1  -2 1654.88 51.2143  11
  -1  -1  -2 1712.80 50.5983  12
  -1  -1  -2 1687.98 51.0398   5
   1  -1   2 1697.10 50.9290   4
   1  -1   2 1749.09 52.8840  15
   1  -1   2 1692.02 50.8694  13
   1  -1   2 1623.30 50.4733   7
  -1  -1  -2 1687.81 52.4555  15
  -1   1  -2 1689.73 51.5323   2
  -1   1  -2 1741.78 52.9604  15
   1   1   2 1684.62 52.2475  15
  -1   1  -2 1748.43 51.3501   5
  -1   1  -2 1732.07 51.6695  11
   1   1   2 1670.71 51.0037   4
   1   1   2 1695.66 50.5173  13
   1   1   2 1674.51 51.1642   7
  -3  -1  -2 4485.26 136.469  15
   3  -1   2 4505.24 133.651   8
   3  -1   2 4428.10 133.803  13
  -3  -1  -2 4505.75 133.993  12
  -3  -1  -2 4512.08 134.407   5
  -3  -1  -2 4364.01 134.192  11
   3  -1   2 4580.55 134.025   4
   3  -1   2 4562.12 133.396   7
  -3   1  -2 4659.06 134.811   5
   3   1   2 4549.87 134.075   4
   3   1   2 4430.68 133.413  13
  -3   1  -2 4474.72 134.547  11
   3   1   2 4246.00 133.839  10
   3   1   2 4613.12 135.908   8
   3   1   2 4561.10 134.155   7
  -3   1  -2 4545.06 137.081  15
  -3   1  -2 4476.59 133.683   2
   5  -1   2 3409.61 102.882   7
   5  -1   2 3417.98 103.644   4
   5  -1   2 3440.59 102.862   8
  -5  -1  -2 3303.33 104.048  12
  -5  -1  -2 3435.48 103.972  11
  -5  -1  -2 3447.24 104.650   5
  -5  -1  -2 3358.80 107.183  15
   5   1   2 3465.52 103.822   4
  -5   1  -2 3302.28 104.206  12
  -5   1  -2 3505.50 107.946  15
  -5   1  -2 3521.27 104.314  11
   5   1   2 3407.75 103.585   7
  -5   1  -2 3447.90 104.819   5
  -7  -1  -2 819.168 30.7052  12
  -7  -1  -2 835.310 29.4853  11
  -7  -1  -2 817.411 28.0133  16
   7  -1   2 831.746 29.6380   4
   7  -1   2 872.151 28.7199   7
  -7  -1  -2 850.108 31.2620   5
  -7   1  -2 827.654 30.7339  12
  -7   1  -2 837.500 34.1116  15
   7   1   2 848.813 29.5562   7
   7   1   2 858.836 29.8541   4
  -7   1  -2 837.473 29.8419  11
  -7   1  -2 877.779 31.4911   5
  -9  -1  -2 981.719 37.3092   5
  -9  -1  -2 947.600 36.7263  12
   9  -1   2 967.932 35.3789  14
   9   1   2 1009.21 34.4771   7
  -9   1  -2 1002.74 37.1856   5
  -9   1  -2 941.258 36.6369  12
 -10  -2   2 1647.34 58.7596   1
 -10  -2   2 1719.70 56.7590   5
  10  -2  -2 1786.82 57.4993  14
 -10  -2   2 1601.38 54.8425  16
 -10  -2   2 1743.07 58.7847  12
 -10   2   2 1690.08 58.3175  12
 -10   2   2 1729.32 55.7341  16
  10   2  -2 1652.98 62.5276   3
  10   2  -2 1709.85 55.9642   7
 -10   2   2 1699.76 56.6827   5
  10   2  -2 1675.49 56.2887  14
   8  -2  -2 1829.58 58.6445   8
  -8  -2   2 1806.48 57.7492  16
   8  -2  -2 1886.41 64.1033   3
  -8  -2   2 1870.99 58.8845   5
  -8  -2   2 1870.89 60.3429  12
   8  -2  -2 1850.86 59.4416  14
  -8  -2   2 1720.86 60.1575   1
   8   2  -2 1725.22 58.5802  10
  -8   2   2 1863.53 60.0713  12
  -8   2   2 1853.89 59.1680   5
   8   2  -2 1930.68 59.1648   7
   6  -2  -2 3230.30 107.210   3
  -6  -2   2 3334.26 102.890   5
   6  -2  -2 3465.04 103.618   8
  -6  -2   2 3280.00 102.352  16
   6  -2  -2 3547.69 104.018  14
  -6  -2   2 3403.83 104.034  12
  -6  -2   2 3372.83 104.330   1
   6   2  -2 3518.71 103.692   7
  -6   2   2 3386.21 102.147  11
  -6   2   2 3466.87 103.488   5
  -6   2   2 3512.96 104.823  15
  -6   2   2 3450.18 104.157  12
   6   2  -2 3381.92 103.952  10
   4  -2  -2 3738.27 111.404   9
  -4  -2   2 3818.76 111.628  12
   4  -2  -2 3764.53 111.693   8
  -4  -2   2 3721.61 110.762   5
   4  -2  -2 3455.90 114.470   3
  -4  -2   2 3800.22 110.819  16
  -4  -2   2 3920.75 112.094   1
   4  -2  -2 3589.93 111.594  14
   4  -2  -2 3785.04 111.014   6
   4   2  -2 3682.92 112.497  10
  -4   2   2 3844.60 118.860  15
   4   2  -2 3672.71 111.600   7
   4   2  -2 3643.05 111.248   2
  -4   2   2 3854.61 110.741  11
   4   2  -2 3661.78 115.992  15
  -2  -2   2 1008.62 30.6474  12
   2  -2  -2 1019.19 30.7516  14
   2  -2  -2 1025.63 31.1020   9
   2  -2  -2 987.405 30.9096   8
  -2  -2   2 1023.69 30.3799  13
  -2  -2   2 1008.17 31.0621   1
  -2  -2   2 1013.46 30.3810  16
   2  -2  -2 1023.61 30.4603   6
   2  -2  -2 1025.78 33.1448   3
   2   2  -2 977.799 31.8390  10
   2   2  -2 960.299 30.5849   7
   2   2  -2 1005.94 31.8833   2
   2   2  -2 960.898 30.6546  15
   0  -2   2 8038.03 225.576  13
   0  -2  -2 7532.02 226.120   8
   0  -2   2 8396.82 227.746   1
   0  -2   2 7955.71 223.212   4
   0  -2   2 7734.20 223.819  16
   0  -2  -2 8353.42 226.088  12
   0  -2  -2 7918.86 225.707   5
   0  -2  -2 7310.32 230.786   3
   0  -2   2 7765.97 233.617  15
   0  -2  -2 7066.64 222.761   9
   0   2  -2 6666.28 225.776  10
   0   2  -2 6508.67 226.520   2
   0   2   2 7390.30 224.919   7
   0   2  -2 7156.57 233.922  15
   0   2  -2 6802.86 222.178  11
   0   2   2 7322.44 224.237   4
   2  -2   2 9521.50 271.226   7
   2  -2   2 9672.66 274.776  13
   2  -2   2 9999.99 274.079   4
  -2  -2  -2 8681.10 273.641  11
  -2  -2  -2 8944.72 268.899  16
  -2  -2  -2 9116.81 274.037   5
  -2  -2  -2 9416.19 274.141  12
   2   2   2 9016.47 267.882   7
  -2   2  -2 8309.46 272.102   2
  -2   2  -2 8712.51 285.051  15
  -2   2  -2 8991.49 277.912   5
  -2   2  -2 8902.62 274.752  11
   2   2   2 9445.54 273.048   4
   2   2   2 8105.44 268.136  10
   2   2   2 9426.79 269.583  13
   4  -2   2 2257.48 69.8933   4
  -4  -2  -2 2334.00 70.7751   5
  -4  -2  -2 2239.85 70.2440  11
   4  -2   2 2251.28 69.9556   8
   4  -2   2 2346.04 69.0296   7
  -4  -2  -2 2225.19 70.1859  12
  -4  -2  -2 2220.46 68.5212  16
   4   2   2 2295.90 70.2011   4
   4   2   2 2176.03 70.1860  10
  -4   2  -2 2398.48 71.0496  11
  -4   2  -2 2341.84 74.0565  15
  -4   2  -2 2295.81 69.3330   2
   4   2   2 2309.58 70.4506   7
  -4   2  -2 2379.28 71.2318   5
   6  -2   2 1441.99 46.6968   8
   6  -2   2 1485.84 47.3677   4
  -6  -2  -2 1534.94 47.8513  11
  -6  -2  -2 1414.38 45.6203  16
  -6  -2  -2 1521.39 48.8211   5
  -6  -2  -2 1374.30 47.3694   1
  -6  -2  -2 1461.04 48.2075  12
  -6   2  -2 1526.51 49.1538   5
   6   2   2 1485.71 47.6521   4
  -6   2  -2 1417.21 48.2580  12
  -6   2  -2 1492.06 48.0054  11
  -6   2  -2 1501.26 52.1395  15
   6   2   2 1467.59 47.4891   7
  -8  -2  -2 921.458 34.6284  12
   8  -2   2 954.833 34.0404  14
  -8  -2  -2 946.960 35.4293   5
   8  -2   2 973.772 33.6013   4
  -8   2  -2 881.675 34.5906  12
  -8   2  -2 978.614 35.3519   5
   8   2   2 964.644 33.6362   7
   8   2   2 942.199 33.4504   4
 -10  -2  -2 404.748 19.8249   5
 -10  -2  -2 352.738 18.8523  12
  10  -2   2 374.399 17.8906  14
 -10   2  -2 363.494 18.4627   5
 -10   2  -2 362.868 18.4811  12
 -11  -3   2 31.5739 5.46384   5
 -11  -3   2 19.5007 5.99599   1
 -11  -3   2 27.8928 6.60213  12
  11  -3  -2 31.7399 5.95067  14
  11   3  -2 24.4736 4.59370  14
  11   3  -2 30.3599 7.77255   3
  11   3  -2 36.2987 5.83347   7
 -11   3   2 32.2175 5.73566  12
 -11   3   2 22.3208 5.15671   5
  -9  -3   2 339.786 15.4667   5
  -9  -3   2 328.228 16.8087   1
   9  -3  -2 331.419 15.2040   8
   9  -3  -2 335.647 15.8679  14
  -9  -3   2 324.814 14.1430  16
  -9  -3   2 342.594 16.8734  12
  -9   3   2 341.411 15.7145   5
  -9   3   2 312.333 15.8041  12
   9   3  -2 364.797 15.6337   7
  -7  -3   2 884.811 29.7948  16
   7  -3  -2 911.041 31.3573   8
   7  -3  -2 923.533 35.2260   3
  -7  -3   2 873.407 31.9298   1
  -7  -3   2 910.623 30.6420   5
   7  -3  -2 932.169 31.5974  14
  -7  -3   2 941.920 32.0502  12
  -7   3   2 899.458 32.4804  15
   7   3  -2 859.398 31.4662  10
  -7   3   2 914.259 31.8434  12
  -7   3   2 912.038 31.2251   5
   7   3  -2 929.859 31.3125   7
   5  -3  -2 211.758 11.4425   3
  -5  -3   2 203.947 9.46061   1
  -5  -3   2 211.845 9.15581  12
   5  -3  -2 207.959 9.13212  14
   5  -3  -2 207.311 8.52575   6
  -5  -3   2 196.192 8.28279   5
   5  -3  -2 212.277 9.27976   8
   5  -3  -2 195.757 8.88548   9
  -5  -3   2 213.171 8.15308  16
  -5   3   2 218.532 10.3136  15
  -5   3   2 204.083 9.06643   5
  -5   3   2 199.131 7.96310   2
   5   3  -2 206.983 8.81169   2
   5   3  -2 213.696 9.38344   7
  -5   3   2 205.412 8.40326  11
   5   3  -2 209.677 9.93768  10
  -3  -3   2 1508.54 46.1883   1
  -3  -3   2 1509.26 45.8890  12
   3  -3  -2 1511.18 49.1189   3
   3  -3  -2 1436.43 46.1667   8
  -3  -3   2 1495.30 44.9837  13
   3  -3  -2 1547.12 45.4806   6
   3  -3  -2 1496.18 46.1852   9
  -3  -3   2 1493.56 45.2116   5
  -3  -3   2 1501.54 45.1808  16
   3  -3  -2 1478.08 45.8627  14
   3   3  -2 1459.37 45.7876   7
   3   3  -2 1458.21 46.9296   2
   3   3  -2 1510.63 47.4057  10
  -3   3   2 1516.34 46.7406  15
  -1  -3   2 3713.99 107.376  16
  -1  -3   2 3841.46 107.581   1
  -1  -3   2 3626.04 105.731   6
  -1  -3   2 3725.96 105.694  13
   1  -3  -2 3459.36 105.447   9
   1  -3  -2 3544.20 106.649   8
   1  -3  -2 3540.89 107.568   3
   1  -3  -2 3701.79 105.068  14
   1  -3  -2 3892.90 107.871   6
  -1  -3   2 3646.31 108.134  12
   1   3  -2 3232.89 106.689   2
   1   3  -2 3286.95 104.986   7
   1   3  -2 3223.95 105.956  10
   1   3  -2 3134.89 111.359  15
  -1  -3  -2 1230.23 37.4987   9
   1  -3   2 1247.79 37.8662   1
  -1  -3  -2 1203.41 37.1364  12
   1  -3   2 1222.21 36.6504   6
   1  -3   2 1088.73 36.5928  14
  -1  -3  -2 1165.32 36.0719  16
  -1  -3  -2 1167.72 37.4655   5
   1  -3   2 1236.77 36.8867   4
   1  -3   2 1237.95 37.3504  13
  -1   3  -2 1262.78 40.3850  15
   1   3   2 1241.37 37.2229   4
  -1   3  -2 1217.71 37.0841  10
   1   3   2 1220.56 37.9555   7
  -1   3  -2 1241.85 38.5755  11
  -1   3  -2 1305.43 39.4884   2
  -3  -3  -2 1700.82 52.6577   5
  -3  -3  -2 1691.20 50.4728  16
  -3  -3  -2 1668.24 52.4269  11
  -3  -3  -2 1746.45 51.5349   9
   3  -3   2 1609.33 51.7511   3
  -3  -3  -2 1650.93 51.1410   1
   3  -3   2 1693.34 52.1712  13
   3  -3   2 1711.60 51.9338   4
  -3  -3  -2 1723.50 52.3256  12
   3  -3   2 1673.43 52.6179   8
   3  -3   2 1657.20 50.4666   7
   3   3   2 1600.88 53.2789  10
   3   3   2 1634.53 52.0030   4
   3   3   2 1755.40 52.9233   7
  -3   3  -2 1715.58 55.9885  15
  -3   3  -2 1746.86 53.2119   5
  -3   3  -2 1730.60 53.5160  11
  -3   3  -2 1761.68 52.9304   2
  -5  -3  -2 683.769 24.2150  12
   5  -3   2 680.243 23.9234   8
   5  -3   2 737.385 23.7571   4
  -5  -3  -2 694.614 24.6471   5
   5  -3   2 672.212 23.6043  14
  -5  -3  -2 689.543 23.9436  11
   5   3   2 678.493 24.2771   7
  -5   3  -2 700.461 25.0848   5
  -5   3  -2 677.704 27.6810  15
   5   3   2 663.981 23.5686   4
  -5   3  -2 679.380 24.4471  11
   5   3   2 649.759 24.0093  10
   7  -3   2 22.0975 4.01403  14
  -7  -3  -2 27.4153 4.79573   5
   7  -3   2 22.4205 4.04830   4
  -7  -3  -2 19.5440 4.07463  12
  -7   3  -2 22.3287 4.42478  12
   7   3   2 35.9051 4.90642   4
  -7   3  -2 22.1594 5.18635  15
   7   3   2 28.8860 4.80038   7
  -7   3  -2 25.2376 4.92209   5
  -7   3  -2 18.7001 3.85746  11
  -9  -3  -2 128.421 10.4594  12
  -9  -3  -2 146.017 11.3408   5
   9  -3   2 150.209 10.0544  14
  -9   3  -2 120.832 10.1481  12
   9   3   2 127.446 9.61754   7
  -9   3  -2 134.003 10.7866   5
 -10  -4   2 1159.76 44.5343   1
  10  -4  -2 1403.87 45.5222  14
  10  -4  -2 1062.88 45.6652   8
 -10  -4   2 1274.21 45.7248  12
 -10   4   2 1292.23 44.1485   5
  10   4  -2 1305.42 43.9571   7
  10   4  -2 1258.88 43.4955  14
 -10   4   2 1301.88 45.5973  12
  -8  -4   2 1298.27 44.3138  12
  -8  -4   2 1303.04 42.8611   5
   8  -4  -2 1274.60 47.6264   3
  -8  -4   2 1247.69 44.1499   1
   8  -4  -2 1291.10 43.6026  14
   8  -4  -2 1342.53 43.8594   8
  -8  -4   2 1255.75 41.4330  16
   8   4  -2 1229.61 43.4806  10
   8   4  -2 1311.07 43.3371   7
  -8   4   2 1306.47 44.1430  12
  -8   4   2 1232.22 42.9507   5
   6  -4  -2 3655.70 122.003   3
  -6  -4   2 3859.32 116.363  16
  -6  -4   2 3867.61 117.133   5
   6  -4  -2 3892.47 118.415  14
  -6  -4   2 3812.98 118.200   1
   6  -4  -2 4026.60 118.572   8
  -6  -4   2 3868.81 118.254  12
  -6   4   2 3905.67 119.813  15
   6   4  -2 3821.53 119.244  10
  -6   4   2 3902.96 117.077  11
  -6   4   2 4043.80 117.937   5
   6   4  -2 3935.38 118.004   7
  -4  -4   2 8256.66 228.881   1
  -4  -4   2 7722.69 227.581   5
  -4  -4   2 8216.20 233.147  16
   4  -4  -2 7443.87 228.367  14
   4  -4  -2 8103.98 229.142   8
   4  -4  -2 6645.18 231.582   3
   4  -4  -2 7586.64 235.791   9
  -4  -4   2 7660.97 230.068  13
   4  -4  -2 8143.71 233.106   6
  -4  -4   2 8146.54 235.348  12
   4   4  -2 7418.52 228.298   7
   4   4  -2 6862.55 228.960   2
  -4   4   2 8073.47 242.434  15
   4   4  -2 7661.93 230.201  10
   2  -4  -2 6080.01 200.004   3
   2  -4  -2 6963.70 203.005   8
   2  -4  -2 6807.19 201.429  14
  -2  -4   2 6737.28 202.587  12
   2  -4  -2 6644.05 200.642   9
  -2  -4   2 7276.87 200.864  13
  -2  -4   2 7217.09 202.209  16
   2  -4  -2 7293.13 202.126   6
   2   4  -2 5883.00 198.646   2
   2   4  -2 6092.51 198.348  10
   2   4  -2 6386.73 199.460   7
   0  -4  -2 5796.76 168.659   6
   0  -4  -2 5498.05 170.775   8
   0  -4   2 5994.84 169.458  13
   0  -4  -2 5762.88 170.649  12
   0  -4   2 6037.79 169.969   1
   0  -4   2 5728.78 169.776  16
   0  -4  -2 5364.45 171.020   9
   0  -4   2 5640.07 169.534   6
   0   4  -2 5608.89 178.230  15
   0   4  -2 5447.75 169.057   2
   0   4  -2 5260.63 167.409  10
   0   4  -2 5442.38 170.705  11
   0   4   2 5642.86 167.349   4
   0   4   2 5678.18 167.127   7
   2  -4   2 4609.50 129.977   4
  -2  -4  -2 4283.27 130.929   5
  -2  -4  -2 4306.26 129.053  16
   2  -4   2 3891.51 129.748  14
  -2  -4  -2 4338.29 130.300   9
  -2  -4  -2 4394.05 130.562  12
   2  -4   2 4495.50 129.773   6
   2  -4   2 4571.60 130.655  13
   2   4   2 4523.67 130.337   4
   2   4   2 4211.23 132.587  10
  -2   4  -2 4529.62 132.104  11
  -2   4  -2 4532.70 134.550  15
   2   4   2 4433.06 131.427   7
  -2   4  -2 4121.56 129.260  10
  -2   4  -2 4499.87 132.616   2
   4  -4   2 3084.36 91.8036   8
   4  -4   2 2928.33 90.5495  14
  -4  -4  -2 3019.60 91.7841   5
  -4  -4  -2 2941.55 91.1180  12
   4  -4   2 2973.10 90.3972   4
   4   4   2 2979.80 90.7495   4
   4   4   2 2999.93 91.7459   7
  -4   4  -2 2903.71 95.1653  15
  -4   4  -2 3027.15 91.2158   2
   4   4   2 2931.05 92.5277  10
  -4   4  -2 3041.74 92.3500  11
  -4   4  -2 3037.96 92.1668   5
  -6  -4  -2 3336.55 101.842   5
  -6  -4  -2 3278.00 101.106  12
   6  -4   2 3326.20 100.260  14
   6  -4   2 3301.50 100.617   8
   6  -4   2 3447.82 100.038   4
   6   4   2 3129.33 100.926  10
  -6   4  -2 3135.90 105.031  15
  -6   4  -2 3250.16 101.706   5
   6   4   2 3291.60 100.168   4
   6   4   2 3147.55 100.761   7
  -6   4  -2 3238.52 101.018  11
  -8  -4  -2 2243.88 72.2781   5
   8  -4   2 2291.19 70.2752  14
  -8  -4  -2 2086.50 71.0373  12
  -8   4  -2 2148.43 71.1405  12
   8   4   2 2183.93 69.6395   4
  -8   4  -2 2116.58 71.1316   5
   8   4   2 2133.96 70.2876   7
 -11  -5   2 387.907 19.9524  12
  11  -5  -2 380.597 18.2055  14
 -11   5   2 342.456 17.6621   5
 -11   5   2 349.326 18.1885  12
  11   5  -2 387.832 18.2804   7
  -9  -5   2 599.229 25.3574  12
  -9  -5   2 525.322 23.8193   1
   9  -5  -2 615.870 24.5502  14
   9  -5  -2 630.053 25.0614   8
  -9  -5   2 638.340 24.1345   5
  -9   5   2 627.033 24.4991   5
   9   5  -2 588.798 24.1172   7
   9   5  -2 591.350 24.7229  10
  -9   5   2 611.458 25.1206  12
   7  -5  -2 1063.19 37.8252  14
  -7  -5   2 1089.47 38.1694   1
  -7  -5   2 1101.42 37.0479   5
   7  -5  -2 1125.67 42.3927   3
  -7  -5   2 1105.01 35.9729  16
   7  -5  -2 1143.05 38.7469   8
  -7  -5   2 1122.00 38.5880  12
  -7   5   2 1120.38 40.4202  15
  -7   5   2 1122.85 37.8810   5
  -7   5   2 1134.29 37.0858  11
   7   5  -2 1105.08 39.2344  10
   7   5  -2 1133.63 38.0344   7
  -5  -5   2 2207.38 65.6246  16
  -5  -5   2 2150.11 66.3131   5
  -5  -5   2 2184.01 67.3370   1
   5  -5  -2 2250.97 67.8794   9
  -5  -5   2 2235.38 67.5151  12
   5  -5  -2 2210.93 68.0527   8
   5  -5  -2 2188.86 66.0808   6
   5  -5  -2 2078.49 67.1536  14
   5  -5  -2 2075.60 71.2478   3
  -5  -5   2 1986.32 64.7389  13
  -5   5   2 2197.68 66.6410  11
   5   5  -2 2227.36 67.2642   7
  -5   5   2 2189.13 69.1903  15
  -5   5   2 2108.66 66.8791   2
   5   5  -2 2041.47 67.7849   2
   5   5  -2 2174.56 69.2687  10
  -3  -5   2 3950.70 117.005  12
   3  -5  -2 4030.69 116.334   6
  -3  -5   2 3954.97 115.279  13
   3  -5  -2 3596.45 120.805   3
   3  -5  -2 3890.74 116.875  14
  -3  -5   2 4074.44 115.994  16
  -3  -5   2 4199.55 117.406   1
   3  -5  -2 4010.79 117.957   9
   3  -5  -2 3850.23 117.708   8
   3   5  -2 3773.64 118.917  10
   3   5  -2 3626.20 118.945   2
   3   5  -2 3713.49 116.517   7
  -3   5   2 3981.17 118.828  15
  -1  -5   2 3769.65 105.922  13
   1  -5  -2 3472.86 107.368   9
   1  -5  -2 3545.48 107.024   8
   1  -5  -2 3595.01 106.666  14
  -1  -5   2 3722.31 107.253   1
  -1  -5   2 3569.11 106.871  12
   1  -5  -2 3729.24 106.542   6
  -1  -5   2 3679.59 106.154  16
  -1  -5   2 3543.92 105.881   6
   1   5  -2 3472.47 109.612   2
   1   5  -2 3449.67 105.559   7
   1   5  -2 3398.24 108.240  10
  -1   5   2 3471.65 105.576   4
  -1   5   2 3528.55 106.809   7
   1   5  -2 3592.58 108.871  15
   1  -5   2 1828.56 54.1892   6
  -1  -5  -2 1717.46 53.8940   8
  -1  -5  -2 1760.59 54.8733  12
  -1  -5  -2 1752.81 53.7337   1
   1  -5   2 1798.64 54.7230  13
  -1  -5  -2 1776.98 55.2050   5
   1  -5   2 1755.96 53.5893   4
  -1  -5  -2 1797.31 55.1876   9
   1  -5   2 1822.56 55.7413   1
   1  -5   2 1677.15 53.7554  14
  -1   5  -2 1809.41 56.2926  11
   1   5   2 1815.24 54.3024   4
  -1   5  -2 1837.14 58.3241  15
   1   5   2 1804.38 57.5855  10
  -1   5  -2 1901.40 57.9052   2
   1   5   2 1867.15 55.9155   7
  -1   5  -2 1845.36 55.3658  10
  -3  -5  -2 1753.81 54.9998   5
   3  -5   2 1779.92 53.5516   4
   3  -5   2 1772.00 53.4593   6
   3  -5   2 1793.71 55.7169   8
  -3  -5  -2 1762.11 54.6893  12
   3  -5   2 1735.43 54.3840  13
   3  -5   2 1578.13 53.5516  14
  -3   5  -2 1774.39 56.2202   2
  -3   5  -2 1801.80 56.0510  11
   3   5   2 1746.49 53.8693   4
   3   5   2 1828.05 55.5786   7
   3   5   2 1674.75 56.8371  10
  -3   5  -2 1752.99 58.5835  15
  -5  -5  -2 1844.28 58.5826   5
  -5  -5  -2 1770.56 57.8283  12
   5  -5   2 1824.30 57.1274  14
   5  -5   2 1883.90 56.8847   4
   5  -5   2 1831.55 58.4009   8
   5   5   2 1813.70 58.3377   7
  -5   5  -2 1795.53 58.6117   5
  -5   5  -2 1830.04 58.7058  11
   5   5   2 1825.66 59.5131  10
  -5   5  -2 1759.29 62.1058  15
   5   5   2 1771.24 56.8949   4
   7  -5   2 959.196 34.4400   8
  -7  -5  -2 930.824 34.8017  12
   7  -5   2 983.496 33.7805  14
  -7  -5  -2 974.812 35.5734   5
  -7   5  -2 955.932 34.3209  11
  -7   5  -2 991.047 35.6558   5
   7   5   2 989.301 33.6220   4
   7   5   2 948.115 34.6007   7
  -9  -5  -2 486.938 21.8757   5
   9  -5   2 478.176 20.2595  14
  -9  -5  -2 420.018 20.7918  12
  -9   5  -2 436.339 20.3880  12
  -9   5  -2 462.138 21.3641   5
   9   5   2 480.745 20.8393   7
  10  -6  -2 90.0153 8.47414  14
 -10  -6   2 71.0898 8.65025  12
  10  -6  -2 79.3407 8.34019   8
 -10  -6   2 78.7387 7.15423   5
 -10   6   2 67.0264 7.77733  12
  10   6  -2 80.3530 8.54548   7
 -10   6   2 83.5440 8.48772   5
  -8  -6   2 232.460 12.8426  12
  -8  -6   2 202.175 11.5532   1
   8  -6  -2 223.958 12.7735   8
  -8  -6   2 183.074 9.29243  16
   8  -6  -2 232.070 12.1755  14
   8  -6  -2 183.839 15.6658   3
  -8  -6   2 222.564 11.4802   5
   8   6  -2 212.822 11.5312   7
   8   6  -2 209.650 13.3195  10
  -8   6   2 208.605 12.0675   5
  -6  -6   2 143.640 8.25622   1
   6  -6  -2 158.325 11.1833   3
  -6  -6   2 142.556 7.82077   5
  -6  -6   2 135.795 6.59757  16
   6  -6  -2 147.521 7.49468   6
   6  -6  -2 140.337 8.32743  14
  -6  -6   2 160.508 8.80210  12
   6  -6  -2 143.071 9.14793   8
   6   6  -2 156.404 8.50483   7
  -6   6   2 147.781 8.36129  11
   6   6  -2 130.468 9.52954  10
   6   6  -2 138.462 8.88812   2
  -6   6   2 140.188 10.0369  15
   4  -6  -2 14.4977 2.21304   6
  -4  -6   2 14.4178 2.90637  12
  -4  -6   2 14.0373 1.88358  16
  -4  -6   2 15.3619 2.82748   1
   4  -6  -2 15.9441 4.16358   3
   4  -6  -2 29.2568 4.03436   9
   4  -6  -2 14.3805 2.61631  14
   4  -6  -2 17.7621 3.29209   8
   4   6  -2 20.1125 4.22540   2
   4   6  -2 20.9824 4.02087  10
  -4   6   2 15.9656 3.23940  15
   4   6  -2 13.3273 2.53583   7
  -2  -6   2 62.2447 3.02265  13
  -2  -6   2 66.4254 3.63144   6
   2  -6  -2 58.0843 3.87281  14
   2  -6  -2 62.9067 3.76793   6
   2  -6  -2 52.0727 4.21152   8
   2  -6  -2 64.4897 6.41869   3
  -2  -6   2 66.3694 3.53146  16
  -2  -6   2 68.4208 4.54679   1
   2  -6  -2 72.1333 5.14135   9
  -2  -6   2 61.1482 4.31458  12
   2   6  -2 66.0488 6.92730   2
   2   6  -2 65.8537 6.21414  10
   2   6  -2 67.1798 3.90383   7
  -2   6   2 63.3354 3.82666   7
   2   6  -2 58.7932 4.97384  15
   0  -6   2 469.573 17.4458   1
   0  -6   2 461.275 16.1147  13
   0  -6  -2 454.018 16.5580   8
   0  -6   2 480.583 16.0579   6
   0  -6  -2 508.826 17.6721   9
   0  -6  -2 471.146 16.6522   6
   0   6  -2 535.042 18.5183  10
   0   6  -2 481.694 19.3914  15
   0   6  -2 524.086 20.3976   2
   0   6   2 489.318 17.2407   7
   0   6   2 495.473 19.2433  10
   0   6   2 475.882 15.5827   4
  -2  -6  -2 777.599 26.0732  12
   2  -6   2 783.132 25.0568   6
  -2  -6  -2 801.383 25.7851   9
  -2  -6  -2 760.703 26.3529   5
   2  -6   2 789.793 27.3626   8
   2  -6   2 787.832 25.7940  13
  -2   6  -2 772.250 28.4680   2
   2   6   2 745.255 24.8733   4
  -2   6  -2 745.007 29.4530  15
  -2   6  -2 785.605 27.5142  11
   2   6   2 806.810 29.1282  10
   2   6   2 813.073 27.0364   7
  -4  -6  -2 235.536 10.7800  12
   4  -6   2 220.498 11.3001   8
   4  -6   2 215.584 9.55719  14
  -4  -6  -2 233.049 11.1246   5
  -4   6  -2 216.262 10.9763   2
  -4   6  -2 219.953 13.8315  15
   4   6   2 249.350 11.7397   7
  -4   6  -2 235.240 12.1900  11
   4   6   2 214.767 9.51246   4
   4   6   2 236.534 12.7890  10
  -4   6  -2 221.602 10.9754   5
   6  -6   2 3.98341 3.06072   8
   6  -6   2 8.12106 2.63821  14
  -6  -6  -2 7.01344 3.01632  12
  -6  -6  -2 14.1637 3.38848   5
  -6   6  -2 18.8767 3.99107  11
   6   6   2 10.9547 3.00638   4
  -6   6  -2 3.70872 2.69942   5
   6   6   2 7.47027 3.12222  10
   6   6   2 9.42570 3.98284   7
  -8  -6  -2 15.2683 4.21355   5
   8  -6   2 15.6793 3.68055   8
  -8  -6  -2 16.7326 4.45730  12
   8   6   2 13.4304 4.97501   7
  -8   6  -2 15.6930 4.83183   5
  -8   6  -2 25.3703 5.37131  12
  -8   6  -2 14.9062 3.51519  11
  -9  -7   2 1355.36 49.3736  12
   9  -7  -2 1429.55 49.5709   8
   9  -7  -2 1391.79 48.2015  14
  -9   7   2 1381.17 48.1101   5
   9   7  -2 1362.91 48.0357   7
  -7  -7   2 1536.07 51.1675  16
   7  -7  -2 1647.42 54.2572  14
   7  -7  -2 1671.41 59.4878   3
   7  -7  -2 1695.25 55.4036   8
  -7  -7   2 1505.66 53.2782   1
  -7  -7   2 1734.58 55.2589  12
   7   7  -2 1637.03 56.9151  10
  -7   7   2 1613.26 53.4873  11
  -7   7   2 1547.30 56.7561  15
   7   7  -2 1686.81 54.1874   7
  -7   7   2 1725.61 54.4367   5
   5  -7  -2 2151.44 67.2522   8
  -5  -7   2 2104.51 63.8989  16
   5  -7  -2 2066.26 71.4244   3
   5  -7  -2 1970.72 65.6429  14
  -5  -7   2 2026.36 65.5998   1
  -5  -7   2 2110.31 66.2303  12
   5  -7  -2 2103.36 64.6980   6
   5   7  -2 2138.70 69.1053  10
   5   7  -2 2028.98 67.9830   2
  -5   7   2 2096.94 66.7678   2
   5   7  -2 2081.96 65.6004   7
  -5   7   2 2090.47 69.1203  15
  -3  -7   2 1736.66 56.6309   1
  -3  -7   2 1793.24 56.8233  12
  -3  -7   2 1821.45 55.2837  16
   3  -7  -2 1778.71 55.7775   6
   3  -7  -2 1754.91 61.8006   3
   3  -7  -2 1779.62 56.4914  14
   3  -7  -2 1795.57 57.8362   8
   3  -7  -2 1842.90 58.1282   9
  -3   7   2 1867.25 60.0867  15
   3   7  -2 1822.71 59.5092  10
   3   7  -2 1832.58 55.9837   7
   3   7  -2 1842.92 60.3629   2
  -3   7   2 1767.72 57.4530  10
  -1  -7   2 2506.42 76.9425  13
   1  -7  -2 2556.17 79.6044   9
  -1  -7   2 2615.25 79.0639   1
  -1  -7   2 2586.03 77.6181  16
  -1  -7   2 2529.33 77.4499   6
   1  -7  -2 2601.15 78.1262   6
   1  -7  -2 2472.60 78.9300   8
  -1   7   2 2579.04 81.0118  10
   1   7  -2 2721.44 82.9324   2
  -1   7   2 2498.14 78.1624   7
   1   7  -2 2620.24 80.8032  10
   1   7  -2 2547.96 81.4953  15
  -1  -7  -2 4021.01 121.836   6
   1  -7   2 4050.13 120.854   6
  -1  -7  -2 3946.30 122.369   9
  -1  -7  -2 4014.61 122.036  12
   1  -7   2 4221.20 123.773   8
   1  -7   2 3984.39 121.193  13
   1   7   2 3801.66 125.061  10
  -1   7  -2 4051.46 122.691  10
  -1   7  -2 4052.23 126.212  15
  -1   7  -2 4317.55 126.158   2
  -1   7  -2 4211.72 123.690  11
   1   7   2 3950.96 122.527   7
   3  -7   2 2548.20 79.6262   8
  -3  -7  -2 2514.61 78.1826  12
   3  -7   2 2538.00 76.5499   6
  -3   7  -2 2524.66 79.5876  11
   3   7   2 2473.93 81.3962  10
  -3   7  -2 2550.20 80.6295   2
  -3   7  -2 2504.62 82.9137  15
   3   7   2 2499.99 78.7915   7
  -5  -7  -2 1372.01 45.9800  12
  -5  -7  -2 1383.79 46.6710   5
   5  -7   2 1433.15 47.2973   8
  -5   7  -2 1368.51 47.0884  11
  -5   7  -2 1328.98 46.3947   5
   5   7   2 1364.06 46.5691   7
   5   7   2 1383.58 48.6097  10
  -7  -7  -2 917.066 33.7390   5
  -7  -7  -2 829.622 32.2864  12
   7  -7   2 909.235 33.2185   8
  -7   7  -2 854.528 32.2844  11
   7   7   2 880.966 33.1447   7
  -7   7  -2 826.726 32.4042   5
   8  -8  -2 328.278 15.8759  14
   8  -8  -2 324.510 16.8321   8
  -8  -8   2 313.491 16.4759  12
   8   8  -2 321.374 16.0743   7
  -8   8   2 319.831 15.7963   5
   8   8  -2 303.599 17.5502  10
   6  -8  -2 472.028 20.7131   8
   6  -8  -2 524.103 24.7323   3
  -6  -8   2 459.188 18.7691   1
  -6  -8   2 444.503 16.8875  16
   6  -8  -2 424.386 18.6200  14
  -6  -8   2 469.175 19.6148  12
   6  -8  -2 459.845 18.0301   6
   6   8  -2 461.365 21.9222  10
  -6   8   2 484.222 25.5545  15
   6   8  -2 445.941 20.9765   2
   6   8  -2 457.656 18.8047   7
  -6   8   2 502.610 19.8945  11
  -4  -8   2 836.677 28.7734   1
   4  -8  -2 794.931 27.5881   6
  -4  -8   2 809.525 29.0731  12
   4  -8  -2 830.274 30.2897   8
  -4  -8   2 804.791 26.8883  16
   4  -8  -2 845.405 34.3812   3
   4  -8  -2 767.797 28.3418  14
   4   8  -2 839.039 32.3051   2
   4   8  -2 853.740 32.1042  10
   4   8  -2 844.938 28.2106   7
  -4   8   2 801.542 30.7400   2
  -4   8   2 809.455 32.2202  15
   2  -8  -2 1673.36 53.4702   6
  -2  -8   2 1657.25 54.8649   8
   2  -8  -2 1716.69 55.5160   8
  -2  -8   2 1721.28 54.6802   1
   2  -8  -2 1763.40 55.9192   9
  -2  -8   2 1705.65 53.0146  16
  -2  -8   2 1690.24 53.1105   6
  -2   8   2 1741.90 58.2613  15
   2   8  -2 1630.01 56.8376  15
   2   8  -2 1778.85 59.0188   2
   2   8  -2 1755.86 57.2171  10
  -2   8   2 1742.77 56.3589  10
   0  -8   2 627.679 20.9350   6
   0  -8   2 628.226 22.7432   1
   0  -8   2 621.527 23.2274   8
   0  -8  -2 646.253 22.9663   9
   0  -8  -2 545.190 21.4074   8
   0  -8  -2 597.824 21.5719   6
   0   8  -2 602.237 25.2628  15
   0   8   2 612.413 21.8603   7
   0   8   2 656.420 25.2960  10
   0   8  -2 650.145 23.5886  10
   0   8  -2 661.772 26.3428   2
   2  -8   2 339.833 12.4469   6
   2  -8   2 327.235 15.1013   8
  -2  -8  -2 321.795 13.3844  12
  -2  -8  -2 326.590 13.3356   6
   2   8   2 313.014 16.4774  10
  -2   8  -2 336.197 16.7825   2
  -2   8  -2 298.164 16.6852  15
  -2   8  -2 313.996 14.9502  11
   2   8   2 314.425 13.8425   7
   4  -8   2 713.824 24.1766   6
  -4  -8  -2 684.253 25.7486  12
   4  -8   2 677.613 27.0093   8
  -4   8  -2 715.747 27.6255  11
   4   8   2 704.039 26.6806   7
  -4   8  -2 691.886 27.6432   2
   4   8   2 730.627 29.7542  10
  -6  -8  -2 379.284 17.5276   5
   6  -8   2 402.126 18.3851   8
  -6  -8  -2 355.491 16.7961  12
  -6   8  -2 347.626 17.0939  11
  -6   8  -2 347.328 17.0033   5
   6   8   2 365.156 17.7337   7
   6   8   2 391.315 19.6317  10
  -8  -8  -2 301.299 16.1566  12
   8  -8   2 329.873 17.0105   8
  -8  -8  -2 333.303 17.6493   5
   8   8   2 322.035 17.4112   7
  -8   8  -2 298.605 16.7687   5
   9  -9  -2 27.2089 6.22064   8
  -9  -9   2 34.7561 5.78351  12
  -9   9   2 31.8539 5.44285   5
   9   9  -2 37.8695 7.46609  10
   9   9  -2 42.6355 6.62794   7
   7  -9  -2 14.0193 3.59219  14
   7  -9  -2 21.0575 5.26224   8
   7  -9  -2 14.6134 3.27657   6
  -7  -9   2 24.7112 4.73582  12
   7   9  -2 20.0172 5.62606  10
   7   9  -2 14.7496 4.61235   7
  -7   9   2 20.7911 5.15059   5
  -7   9   2 17.7272 5.07288  11
  -5  -9   2 648.245 24.6497  12
   5  -9  -2 598.945 23.6747  14
   5  -9  -2 645.930 25.9828   8
  -5  -9   2 622.490 21.7196  16
   5  -9  -2 617.883 22.8379   6
   5   9  -2 615.187 23.0978   7
  -5   9   2 622.540 25.7391   2
  -5   9   2 643.279 24.7859  11
   5   9  -2 655.368 27.9769  10
   5   9  -2 609.633 27.4228   2
  -3  -9   2 593.130 22.7703  12
  -3  -9   2 612.094 21.4637   6
  -3  -9   2 612.859 20.9913  16
   3  -9  -2 559.318 21.7890  14
   3  -9  -2 581.641 21.3505   6
   3  -9  -2 626.382 24.1939   8
  -3  -9   2 617.045 22.7663   1
  -3   9   2 605.949 23.6163  10
  -3   9   2 609.215 26.5815  15
  -3   9   2 600.510 25.7794   2
   3   9  -2 636.270 26.7365   2
   3   9  -2 626.617 25.7920  10
   3   9  -2 581.263 24.7707  15
  -1  -9   2 228.713 11.7102   8
   1  -9  -2 219.383 11.1873   8
   1  -9  -2 217.586 10.1058   6
  -1  -9   2 234.986 9.87894   6
  -1  -9   2 240.326 11.5866   1
   1  -9  -2 241.367 12.0162   9
   1   9  -2 243.933 12.8536  10
   1   9  -2 247.527 15.0734   2
   1   9  -2 234.015 13.6758  15
  -1   9   2 226.748 12.7270  10
  -1  -9  -2 302.382 13.2503   9
   1  -9   2 293.444 14.3857   8
   1  -9   2 279.679 11.3722   6
  -1  -9  -2 270.982 12.0421   6
   1   9   2 288.552 12.8758   7
  -1   9  -2 300.819 16.6941   2
  -1   9  -2 292.921 14.4051  11
  -1   9  -2 267.148 15.6002  15
   1   9   2 306.298 15.7322  10
  -1   9  -2 255.527 13.7465  10
  -3  -9  -2 46.3175 5.06215  12
   3  -9   2 38.9081 4.10150   6
  -3  -9  -2 42.1415 4.84047   6
   3  -9   2 43.3393 6.08199   8
   3   9   2 53.8675 7.51473  10
  -3   9  -2 43.8747 6.72999  11
   3   9   2 41.1266 5.15670   7
  -3   9  -2 42.4351 6.50817   2
   5  -9   2 173.726 11.2537   8
  -5  -9  -2 201.953 11.3433  12
   5   9   2 146.332 12.1660   2
  -5   9  -2 171.102 11.8871   5
   5   9   2 185.632 13.9134  10
  -5   9  -2 161.429 12.0637  11
   5   9   2 172.644 11.6916   7
   7  -9   2 437.547 20.9222   8
  -7  -9  -2 443.262 20.0882  12
  -7   9  -2 421.797 20.4780   5
   7   9   2 424.304 20.4468   7
   7   9   2 424.287 22.5453  10
  -8 -10   2 1644.20 56.3661  12
   8 -10  -2 1621.06 57.0525   8
   8  10  -2 1582.60 54.4273   7
  -8  10   2 1600.22 55.6763   5
   8  10  -2 1581.66 59.2780  10
   6 -10  -2 1554.15 50.1319   6
  -6 -10   2 1571.96 50.8059   6
  -6 -10   2 1566.93 52.7081  12
   6 -10  -2 1547.52 53.9810   8
  -6  10   2 1590.16 53.2314  11
   6  10  -2 1434.44 54.9694   2
   6  10  -2 1520.81 56.2986  10
   6  10  -2 1449.36 50.4437   7
   4 -10  -2 1418.06 46.8505   6
  -4 -10   2 1379.81 47.5680   1
   4 -10  -2 1462.39 50.2981   8
  -4 -10   2 1461.44 46.9532   6
  -4 -10   2 1442.80 48.8313  12
   4  10  -2 1384.97 52.8577   2
   4  10  -2 1444.20 52.6290  10
  -4  10   2 1486.96 51.7425   2
  -2 -10   2 2682.99 81.1087   6
  -2 -10   2 2689.67 83.0502   1
   2 -10  -2 2564.78 83.8070   8
   2 -10  -2 2631.87 81.4612   6
  -2 -10   2 2530.05 83.0538   8
   2  10  -2 2722.58 88.1758   2
  -2  10   2 2636.34 84.6363  10
  -2  10   2 2663.60 87.3902   2
   2  10  -2 2692.30 86.1629  10
   2  10  -2 2486.31 85.9085  15
   0 -10  -2 2204.22 69.6666   6
   0 -10   2 2286.06 72.3715   8
   0 -10   2 2210.49 68.7034   6
   0  10  -2 2220.43 71.9359  11
   0  10  -2 2276.73 75.7562   2
   0  10  -2 2198.75 72.1566  10
   0  10   2 2190.76 73.9543  10
   0  10   2 2171.40 75.2876   2
  -2 -10  -2 2105.81 65.8284   6
   2 -10   2 2065.80 64.0290   6
   2 -10   2 2080.59 68.0764   8
   2  10   2 2027.18 71.3283   2
  -2  10  -2 2046.90 70.2522   2
   2  10   2 2038.37 70.5136  10
  -2  10  -2 2078.97 68.2729  11
   2  10   2 1997.73 65.8078   7
   4 -10   2 2289.00 75.7094   8
  -4 -10  -2 2284.64 74.0343  12
  -4 -10  -2 2317.32 73.7507   6
  -4  10  -2 2290.93 76.5536   2
   4  10   2 2302.02 78.7308  10
  -4  10  -2 2393.16 76.2717  11
   4  10   2 2181.47 78.4679   2
   4  10   2 2250.58 74.0775   7
  -6 -10  -2 925.995 34.4115   6
   6 -10   2 935.702 35.9105   8
  -6 -10  -2 892.280 34.3342  12
   6  10   2 889.100 34.8807   7
  -6  10  -2 920.262 35.6913  11
   6  10   2 931.652 38.6616  10
  -6  10  -2 909.123 35.2280   5
  -7 -11   2 287.160 16.2555  12
   7 -11  -2 287.974 16.5617   8
   7 -11  -2 261.563 13.1263   6
  -7 -11   2 291.815 14.6071   6
  -7  11   2 297.657 16.5651  11
  -7  11   2 261.005 15.1476   5
   7  11  -2 251.835 18.6593  10
  -5 -11   2 472.375 19.3378   6
   5 -11  -2 479.891 22.3966   8
  -5 -11   2 480.179 21.0241  12
   5 -11  -2 423.986 18.4419   6
   5  11  -2 450.421 24.5334   2
  -5  11   2 506.204 22.4855  11
  -5  11   2 457.549 22.8909   2
   5  11  -2 497.526 25.4246  10
  -3 -11   2 151.893 8.60868   6
  -3 -11   2 143.349 9.47005   1
   3 -11  -2 148.682 10.7282   8
   3 -11  -2 134.485 8.58844   6
   3  11  -2 137.233 12.7152   2
  -3  11   2 150.782 12.8932   2
   3  11  -2 149.982 12.2335  10
   1 -11  -2 231.266 11.4839   6
  -1 -11   2 260.016 13.6978   8
  -1 -11   2 263.820 11.4595   6
  -1  11   2 245.261 14.9234  10
   1  11  -2 246.177 17.3859   2
  -1  11   2 243.918 16.3351   2
   1  11  -2 236.220 15.0171  10
  -1 -11  -2 1167.10 40.2048   6
   1 -11   2 1204.75 42.8835   8
   1 -11   2 1180.33 38.8389   6
   1  11   2 1176.23 46.3118   2
  -1  11  -2 1176.29 42.6110  11
   1  11   2 1203.70 45.4305  10
  -1  11  -2 1167.44 45.7776   2
  -3 -11  -2 528.265 21.1883   6
   3 -11   2 527.351 23.1084   8
   3  11   2 479.444 24.6728  10
   3  11   2 507.292 26.0357   2
  -3  11  -2 496.714 24.4189   2
  -3  11  -2 501.941 23.4977  11
   3  11   2 502.040 21.1755   7
  -5 -11  -2 150.603 10.7281  12
  -5 -11  -2 143.948 10.5388   6
   5 -11   2 148.376 11.8953   8
   5  11   2 150.951 14.5129  10
   5  11   2 169.228 10.9111   7
  -5  11  -2 148.147 11.8756   5
  -5  11  -2 143.400 12.6242  11
  -6 -12   2 127.264 9.24555   6
   6 -12  -2 133.083 11.8815   8
   6 -12  -2 114.448 8.01642   6
   6  12  -2 104.930 12.6317  10
  -6  12   2 118.388 11.7274  11
   4 -12  -2 99.2261 7.88636   6
   4 -12  -2 110.967 10.1377   8
  -4 -12   2 99.4481 7.75651   6
  -4  12   2 89.5479 10.9882   2
  -4  12   2 114.099 9.96129  11
   4  12  -2 92.6054 11.5856  10
   4  12  -2 90.9266 12.2242   2
  -2 -12   2 423.790 17.0265   6
   2 -12  -2 423.999 17.7076   6
   2 -12  -2 403.046 19.4950   8
   2  12  -2 422.771 24.2848   2
  -2  12   2 426.366 20.3579  10
   2  12  -2 410.663 21.7210  10
  -2  12   2 438.522 23.3519   2
   0 -12  -2 152.629 9.67844   6
   0 -12   2 168.179 11.1638   8
   0  12  -2 167.237 15.1502   2
   0  12   2 150.857 14.3305   2
   0  12  -2 145.031 10.8626  11
   0  12   2 161.940 12.2389  10
  -2 -12  -2 73.5459 7.42472   6
   2 -12   2 79.1776 9.33118   8
  -2  12  -2 78.2711 10.1077   2
  -2  12  -2 65.8646 8.48868  11
   2  12   2 79.4161 10.9746  10
   2  12   2 82.5153 11.6675   2
  -4 -12  -2 268.190 14.1711   6
   4 -12   2 255.659 15.2731   8
   4  12   2 249.522 17.8510   2
   4  12   2 249.540 19.0358  10
  -4  12  -2 272.418 17.1802  11
   3 -13  -2 1085.13 40.9303   8
   3 -13  -2 1079.73 37.1624   6
   3  13  -2 1002.62 38.9009  11
  -3  13   2 1089.54 43.5915   2
   3  13  -2 1068.91 45.0507   2
   1 -13  -2 706.602 26.6886   6
  -1  13   2 710.449 32.9854   2
   1  13  -2 659.036 32.0487   2
  -1  13   2 726.769 30.5358  10
   1  13  -2 680.735 28.7301  11
  -1 -13  -2 750.370 28.7435   6
   1 -13   2 764.592 31.4566   8
  -1  13  -2 789.677 35.6544   2
  -1  13  -2 754.723 31.4812  11
   1  13   2 765.178 33.9947  10
   1  13   2 757.350 35.2746   2
 -12   0   3 1.88583 4.82188   1
  12   0  -3 -1.9428 3.42542  14
 -12   0   3 3.31031 3.27707  12
 -10   0   3 -1.4167 4.24350   1
  10   0  -3 3.11154 4.41424   3
 -10   0   3 4.60722 2.37436  16
 -10   0   3 -1.1422 2.40799   5
  10   0  -3 9.25018 3.92091  14
 -10   0   3 0.78628 3.67409  12
  -8   0   3 8.97925 2.62624  16
  -8   0   3 -0.3532 2.49867  12
   8   0  -3 -1.4652 2.60374   3
   8   0  -3 -0.0223 2.04624   7
  -8   0   3 2.46631 2.08414   5
   8   0  -3 6.14154 2.73357  14
   6   0  -3 -0.1789 0.77518   8
   6   0  -3 8.72132 2.23777   7
   6   0  -3 2.37747 2.32961   3
   6   0  -3 1.76118 0.89968   9
  -6   0   3 8.16889 2.02556  12
   6   0  -3 0.99230 1.26524  10
  -6   0   3 8.28466 1.66723  16
   6   0  -3 -0.0884 1.55728  14
  -6   0   3 0.57721 0.67632  15
  -6   0   3 0.95503 1.12652   5
  -4   0   3 3.87327 1.56545   1
   4   0  -3 0.01062 0.56277   2
   4   0  -3 0.97052 0.72825  14
  -4   0   3 0.43018 1.00254  12
   4   0  -3 0.70709 0.72564   9
  -4   0   3 1.55225 0.26362  15
  -4   0   3 0.96212 0.75807   5
   4   0  -3 -0.3507 0.93828  10
   4   0  -3 -0.0863 1.25368   3
  -4   0   3 1.69901 0.92722  16
   4   0  -3 0.93911 0.69752   8
   2   0  -3 0.17602 0.69574   3
  -2   0   3 0.91593 0.53018  16
   2   0  -3 0.31964 0.36063   6
  -2   0   3 0.03274 0.38496  15
  -2   0   3 0.46074 0.47594  13
   2   0  -3 0.63157 0.69809   2
   2   0  -3 0.12905 0.41210  14
  -2   0   3 1.02233 0.60428   1
   0   0   3 0.54286 0.60207  13
   0   0   3 0.95876 0.34802  16
   0   0  -3 0.13494 0.49554   5
   0   0   3 -0.6354 0.55672   4
   0   0  -3 0.07210 0.90182  15
   0   0   3 0.28524 0.70171  15
   0   0   3 1.82219 0.53408   1
   0   0  -3 0.38628 0.58998   2
   0   0  -3 0.48959 0.75372  11
  -2   0  -3 -0.9432 0.78156   2
  -2   0  -3 1.13809 0.84844  12
   2   0   3 0.57349 0.68202  13
   2   0   3 0.00876 0.88934   7
  -2   0  -3 1.51131 0.88011   5
  -2   0  -3 0.54584 0.84664  11
   2   0   3 1.47840 1.23671   4
  -2   0  -3 0.79890 1.48119  15
   4   0   3 -1.0238 1.76080   4
  -4   0  -3 -1.1133 1.85764  15
   4   0   3 0.20662 1.55842   7
  -4   0  -3 1.83911 1.68826  11
  -4   0  -3 -0.1395 1.48851  12
  -4   0  -3 -0.6919 1.17757   5
  -6   0  -3 -0.2023 2.29819  12
  -6   0  -3 2.30474 2.14634  15
   6   0   3 0.43450 2.21550   7
  -6   0  -3 2.02911 2.78084   5
  -6   0  -3 0.00304 2.12129  11
   6   0   3 2.12071 2.53535   4
   8   0   3 0.35233 3.25236   4
  -8   0  -3 -2.7213 2.82163  12
  -8   0  -3 -1.5747 3.37116   5
 -11  -1   3 9.43137 2.82552  16
  11  -1  -3 16.3068 4.70576  14
  11  -1  -3 15.0587 6.07259   3
 -11  -1   3 20.1211 6.04515   1
 -11  -1   3 16.3513 5.38192  12
  11   1  -3 14.0860 4.32165  14
 -11   1   3 18.9585 5.51288  12
 -11   1   3 16.8673 5.76956   1
  11   1  -3 10.3746 5.34983   3
 -11   1   3 17.9003 3.94028  16
  -9  -1   3 476.897 21.4793   1
  -9  -1   3 478.727 20.8880  12
   9  -1  -3 487.235 20.1448  14
  -9  -1   3 492.635 18.9991  16
  -9  -1   3 512.571 19.3702   5
   9  -1  -3 478.542 19.0330   8
   9  -1  -3 480.326 24.1164   3
  -9   1   3 454.431 18.5362  16
   9   1  -3 495.351 24.8654   3
   9   1  -3 514.089 19.7344   7
  -9   1   3 484.940 20.7308  12
  -9   1   3 491.547 19.3931   5
   9   1  -3 472.584 19.7007  14
  -7  -1   3 928.334 33.2293   1
   7  -1  -3 896.495 31.4383   8
  -7  -1   3 962.317 32.5122  12
  -7  -1   3 933.236 30.9530   5
   7  -1  -3 972.817 32.2907  14
   7  -1  -3 928.482 36.1052   3
  -7  -1   3 926.872 30.9191  16
  -7   1   3 945.060 31.0723  16
   7   1  -3 964.122 31.8463   7
   7   1  -3 929.130 31.7093  14
   7   1  -3 952.323 31.8104  10
  -7   1   3 988.963 32.7149  12
  -7   1   3 964.030 31.3031   5
   5  -1  -3 198.101 8.43214  14
   5  -1  -3 194.278 7.57997   9
  -5  -1   3 188.835 7.29067   5
  -5  -1   3 180.397 7.50504  16
   5  -1  -3 194.879 10.7900   3
   5  -1  -3 185.005 8.06716   8
  -5  -1   3 186.708 8.84888   1
  -5  -1   3 190.320 8.18352  12
   5   1  -3 196.049 8.14442  14
   5   1  -3 201.919 8.35509   7
  -5   1   3 198.447 7.77462  15
   5   1  -3 176.915 6.86750   2
  -5   1   3 208.928 7.81986  16
  -5   1   3 208.499 7.83772   5
  -5   1   3 189.470 8.17986  12
   5   1  -3 182.157 6.66582   9
   5   1  -3 208.505 8.89599  10
   3  -1  -3 102.106 6.29827   3
   3  -1  -3 93.9435 4.31917   9
  -3  -1   3 94.8412 3.93311  16
  -3  -1   3 95.4127 4.74737   1
   3  -1  -3 88.4006 4.29522   8
   3  -1  -3 83.9692 3.70658   6
  -3  -1   3 86.6992 3.95698  12
   3  -1  -3 90.4786 4.07712  14
   3   1  -3 99.3734 3.89081  14
   3   1  -3 93.7906 4.44537   2
  -3   1   3 98.6923 4.06837  12
  -3   1   3 94.7627 3.85979  16
   3   1  -3 90.8804 4.87816  10
   1  -1  -3 361.971 11.5352  14
   1  -1  -3 375.717 12.9959   3
  -1  -1   3 341.052 11.0939  16
   1  -1  -3 341.228 10.9778   6
  -1  -1   3 372.966 12.6307  15
   1  -1  -3 358.773 11.6292  11
  -1  -1   3 340.892 11.4548  13
   1  -1  -3 330.622 10.9756   5
  -1  -1   3 329.105 11.5441   1
  -1  -1   3 337.836 11.3977   4
   1   1  -3 363.201 12.6210   2
   1   1  -3 375.178 12.5465  15
   1   1  -3 362.684 11.7251  11
  -1   1   3 341.630 11.2921  13
  -1   1   3 343.942 11.6011   4
   1   1  -3 365.276 12.2984  10
  -1   1   3 354.025 12.3707  15
   1   1  -3 347.055 12.5331   3
  -1   1   3 344.566 10.7476  16
  -1  -1  -3 620.088 20.0634  11
  -1  -1  -3 619.502 21.5088  15
   1  -1   3 600.102 19.4116  13
   1  -1   3 607.794 19.5390   4
   1  -1   3 601.937 19.1009   7
  -1  -1  -3 609.257 19.6242   5
  -1  -1  -3 594.538 18.8646  12
   1   1   3 590.554 19.0432  13
   1   1   3 595.810 19.7453   7
  -1   1  -3 634.863 20.4806   2
  -1   1  -3 612.687 19.7831   5
   1   1   3 584.459 19.6149   4
  -1   1  -3 620.161 20.3008  11
  -1   1  -3 618.685 21.8784  15
   3  -1   3 1710.49 53.1196  13
   3  -1   3 1701.89 53.2890   4
  -3  -1  -3 1689.27 53.0081  12
  -3  -1  -3 1759.72 56.5759  15
   3  -1   3 1685.60 52.5611   7
  -3  -1  -3 1721.12 53.9042  11
   3  -1   3 1712.92 52.8585   8
  -3  -1  -3 1692.89 53.7340   5
   3   1   3 1740.05 53.4529   4
  -3   1  -3 1746.38 53.3651   2
  -3   1  -3 1778.71 54.2670   5
   3   1   3 1699.25 53.3604   7
   3   1   3 1719.21 52.7057  13
  -3   1  -3 1755.99 57.0318  15
  -3   1  -3 1775.64 54.2499  11
  -5  -1  -3 297.586 13.2501   5
  -5  -1  -3 285.676 15.3091  15
  -5  -1  -3 277.302 12.4247  12
   5  -1   3 302.923 11.6329   7
   5  -1   3 291.469 12.4100   4
  -5  -1  -3 304.496 12.9289  11
  -5   1  -3 292.769 13.0768  11
   5   1   3 283.858 12.5240   4
  -5   1  -3 307.764 15.9665  15
  -5   1  -3 281.287 13.1193   5
   5   1   3 282.709 11.9398   7
  -5   1  -3 283.244 12.6561  12
  -7  -1  -3 11.2336 3.25210  11
  -7  -1  -3 12.5601 4.02675   5
   7  -1   3 20.2143 4.13374   4
  -7  -1  -3 19.9026 4.10865  12
  -7   1  -3 9.07712 3.47629  12
  -7   1  -3 7.36292 3.09684   5
  -7   1  -3 15.1550 3.79598  11
   7   1   3 11.2245 3.01091   4
  -9  -1  -3 31.1957 5.63577  12
   9  -1   3 34.1738 5.17122  14
  -9  -1  -3 36.8588 6.95776   5
  -9   1  -3 25.1413 5.54691  12
  -9   1  -3 25.8564 5.31384   5
   9   1   3 46.2291 6.39529   4
 -12  -2   3 174.582 13.3623  12
  12  -2  -3 182.643 12.3707  14
 -12  -2   3 181.858 13.3056   1
 -12   2   3 174.164 14.4916   1
  12   2  -3 182.178 15.8218   3
  12   2  -3 169.466 11.0610  14
 -12   2   3 173.011 12.4539  12
 -10  -2   3 422.325 18.1364   5
  10  -2  -3 449.227 19.1879  14
 -10  -2   3 417.282 20.2720   1
 -10  -2   3 418.029 17.5629  16
 -10  -2   3 421.518 20.1249  12
  10  -2  -3 421.905 23.4933   3
  10   2  -3 415.420 18.4959  14
  10   2  -3 417.908 18.4154   7
  10   2  -3 400.652 23.0291   3
 -10   2   3 426.331 18.3836   5
 -10   2   3 418.764 17.7218  16
 -10   2   3 442.554 20.2361  12
   8  -2  -3 951.927 37.4025   3
   8  -2  -3 929.167 32.6063  14
  -8  -2   3 930.276 31.3691   5
  -8  -2   3 921.399 33.8355   1
   8  -2  -3 921.700 32.1347   8
  -8  -2   3 932.705 33.0210  12
  -8  -2   3 938.267 31.2815  16
   8   2  -3 887.924 31.7854  10
  -8   2   3 928.669 32.9971  12
   8   2  -3 920.566 31.9581   7
  -8   2   3 912.782 31.2999  16
  -8   2   3 954.643 31.9162   5
   8   2  -3 897.424 31.7624  14
   6  -2  -3 571.500 20.0380   9
   6  -2  -3 600.409 24.7419   3
  -6  -2   3 568.350 21.5180   1
   6  -2  -3 552.623 20.7007   8
  -6  -2   3 562.431 19.5985   5
  -6  -2   3 595.458 19.9749  16
   6  -2  -3 575.316 20.9913  14
  -6  -2   3 583.984 20.9675  12
   6   2  -3 614.454 21.7322  10
   6   2  -3 622.380 20.6373  14
  -6   2   3 608.921 20.4369   5
   6   2  -3 617.844 21.1543   7
  -6   2   3 588.496 20.8824  15
  -6   2   3 587.692 21.1497  12
   4  -2  -3 2195.78 67.5250   6
   4  -2  -3 2280.83 68.1250   9
   4  -2  -3 2226.17 68.1728  14
  -4  -2   3 2398.46 67.6463  16
  -4  -2   3 2263.21 66.9712   5
   4  -2  -3 2302.56 68.4654   8
  -4  -2   3 2423.30 69.0021   1
   4  -2  -3 2207.77 71.9055   3
  -4  -2   3 2361.45 68.1577  12
   4   2  -3 2039.35 66.6466   9
  -4   2   3 2373.23 68.2624  15
   4   2  -3 2021.49 67.9640  15
   4   2  -3 2225.88 69.5075  10
   4   2  -3 2175.30 68.1497   7
   4   2  -3 2189.37 68.0337  15
   4   2  -3 2260.55 68.4088   2
   4   2  -3 2271.34 67.6040  14
  -2  -2   3 4773.18 126.561   1
   2  -2  -3 4203.00 126.243   8
  -2  -2   3 4227.11 131.809  15
  -2  -2   3 4679.26 129.351  12
   2  -2  -3 4552.47 129.664  14
  -2  -2   3 4569.71 128.581  13
   2  -2  -3 4063.76 126.480   9
   2  -2  -3 4604.52 128.208   6
   2  -2  -3 4073.58 128.721   3
  -2  -2   3 4572.79 128.638  16
   2   2  -3 3843.47 132.418  15
   2   2  -3 3765.86 127.050  10
   2   2  -3 3947.13 125.944  11
   2   2  -3 3759.43 127.272   2
   0  -2   3 1215.84 37.5465   1
   0  -2  -3 1202.47 37.2840   5
   0  -2   3 1230.91 37.3351  13
   0  -2   3 1226.85 36.9336  16
   0  -2   3 1230.34 37.1252   4
   0  -2  -3 1242.54 38.0119   9
   0  -2  -3 1218.23 37.7788  11
   0   2  -3 1161.28 37.5108  10
   0   2   3 1187.48 37.3473   4
   0   2   3 1183.05 36.6903  13
   0   2   3 1232.54 37.8498   7
   0   2  -3 1250.32 39.8044  15
   0   2  -3 1309.01 39.3272   2
   0   2  -3 1253.39 38.4548  11
  -2  -2  -3 1506.33 46.9711   5
  -2  -2  -3 1492.71 46.1616  12
  -2  -2  -3 1510.83 44.8883  16
   2  -2   3 1527.48 46.6350  13
  -2  -2  -3 1512.17 47.1714  11
   2  -2   3 1521.91 46.5614   4
   2  -2   3 1508.34 45.6117   7
   2   2   3 1496.11 46.7112   4
  -2   2  -3 1473.68 47.1653   5
  -2   2  -3 1582.63 48.0562  11
  -2   2  -3 1534.99 50.1656  15
  -2   2  -3 1527.65 47.4335   2
   2   2   3 1492.79 47.0667   7
   2   2   3 1506.63 45.8050  13
  -4  -2  -3 1157.47 38.1593  12
   4  -2   3 1203.05 38.3284   4
   4  -2   3 1176.57 37.0106   7
  -4  -2  -3 1178.79 39.0391   5
   4  -2   3 1190.46 38.1304   8
  -4  -2  -3 1177.41 38.7926  11
   4  -2   3 1208.26 38.3088  13
   4   2   3 1152.98 38.4470  10
  -4   2  -3 1200.92 42.6536  15
  -4   2  -3 1257.27 39.6191  11
  -4   2  -3 1156.25 37.8177   2
  -4   2  -3 1226.43 39.6580   5
   4   2   3 1214.01 38.5677   4
   4   2   3 1168.63 38.4621   7
  -6  -2  -3 394.636 17.4671   5
  -6  -2  -3 424.114 17.0493  11
   6  -2   3 407.533 16.2827   4
  -6  -2  -3 391.699 16.5710  12
  -6   2  -3 400.246 17.7290   5
   6   2   3 397.578 16.1586   4
  -6   2  -3 421.480 17.4269  11
   6   2   3 382.541 16.2411   7
  -6   2  -3 378.871 16.7942  12
  -6   2  -3 403.880 20.5179  15
   8  -2   3 492.750 20.0804  14
  -8  -2  -3 495.544 22.2027   5
   8  -2   3 474.183 19.9770   4
  -8  -2  -3 438.472 20.5381  12
  -8   2  -3 460.364 20.8159  12
   8   2   3 480.500 19.6656   7
  -8   2  -3 479.389 21.6875   5
   8   2   3 492.762 20.2319   4
  11  -3  -3 10.4107 4.49656  14
 -11  -3   3 -2.5481 3.90820   1
 -11  -3   3 -4.1843 3.72329  12
 -11  -3   3 0.84266 2.58111  16
  11   3  -3 5.27115 3.84324  14
  11   3  -3 5.39193 2.94722   7
  11   3  -3 -3.8729 4.30113   3
 -11   3   3 3.21520 3.16870  12
 -11   3   3 4.17415 3.53955   5
  -9  -3   3 13.9122 4.51621   1
  -9  -3   3 11.0240 3.03339   5
   9  -3  -3 16.5899 4.75267   3
   9  -3  -3 16.2939 4.08658  14
   9  -3  -3 14.0972 3.63089   8
  -9  -3   3 14.7534 3.23772  16
  -9  -3   3 13.6007 4.46022  12
  -9   3   3 14.9214 3.73499  12
  -9   3   3 16.2932 3.94716   5
   9   3  -3 27.2267 4.23255   7
   9   3  -3 17.0334 3.81146  14
  -9   3   3 13.2922 2.99498  16
  -7  -3   3 119.381 7.73416  12
   7  -3  -3 112.760 7.39140  14
  -7  -3   3 126.579 6.62893  16
  -7  -3   3 113.425 8.07542   1
   7  -3  -3 116.264 9.53147   3
   7  -3  -3 109.840 6.97326   8
  -7  -3   3 115.446 6.33708   5
  -7   3   3 115.197 7.81754  15
   7   3  -3 119.608 8.29484  10
   7   3  -3 120.374 7.63249   7
  -7   3   3 124.241 7.50190  12
  -7   3   3 128.270 7.35200   5
   5  -3  -3 117.761 5.72123   6
  -5  -3   3 119.950 6.62127   1
   5  -3  -3 120.040 8.66945   3
  -5  -3   3 123.572 5.55192  16
  -5  -3   3 113.637 6.03997  12
   5  -3  -3 109.950 6.30307   8
   5  -3  -3 107.044 5.98780  14
  -5  -3   3 114.651 5.14943   5
   5  -3  -3 114.772 6.02324   9
   5   3  -3 111.434 6.10551   7
   5   3  -3 112.395 6.12315   2
   5   3  -3 121.053 7.63205  10
  -5   3   3 119.519 6.63633  15
   3  -3  -3 2117.06 64.6588   8
   3  -3  -3 2138.61 63.8061   6
   3  -3  -3 2174.05 64.8305   9
   3  -3  -3 2163.60 68.2420   3
  -3  -3   3 2155.95 63.6934  13
  -3  -3   3 2267.21 65.0018   1
   3  -3  -3 2183.41 64.3878  14
  -3  -3   3 2264.96 63.8217  16
  -3  -3   3 2172.81 64.2048  12
   3   3  -3 1992.35 64.1609  15
   3   3  -3 1971.08 63.6478  11
   3   3  -3 2098.00 64.0608   7
   3   3  -3 2052.98 66.0030  10
   3   3  -3 2087.07 63.1115  14
   3   3  -3 2013.60 65.8659   2
   1  -3  -3 507.851 16.8050  14
   1  -3  -3 525.366 19.2866   3
   1  -3  -3 492.221 16.3065   6
   1  -3  -3 513.681 16.6337   8
   1  -3  -3 533.502 17.4814   9
  -1  -3   3 514.737 15.7645   6
  -1  -3   3 508.213 16.4554  13
  -1  -3   3 502.520 15.9591   4
  -1  -3   3 490.614 16.2546  16
  -1  -3   3 492.503 17.0315   1
  -1   3   3 502.995 16.5111   4
   1   3  -3 543.745 19.2850   2
   1   3  -3 529.399 17.8652  10
  -1   3   3 521.054 15.9783  13
   1   3  -3 512.834 17.5603  11
   1   3  -3 512.369 18.6133  15
   1  -3   3 487.306 15.7838   4
  -1  -3  -3 455.661 16.2102   5
  -1  -3  -3 509.445 16.6504   9
   1  -3   3 469.639 16.4473   1
   1  -3   3 469.002 16.0854  13
  -1  -3  -3 459.644 15.5329  12
  -1   3  -3 511.757 18.2983   2
   1   3   3 472.300 16.0658   4
   1   3   3 461.757 14.9707  13
  -1   3  -3 492.423 17.7285  11
  -1   3  -3 468.781 15.5784  10
   1   3   3 484.523 16.7476   7
  -1   3  -3 520.698 19.9253  15
  -3  -3  -3 4.96786 0.86252  16
   3  -3   3 6.63317 1.97042   8
   3  -3   3 5.27491 1.73564   4
  -3  -3  -3 4.68303 1.55831   9
  -3  -3  -3 4.78982 1.55411  12
  -3  -3  -3 4.44774 1.87175  11
  -3  -3  -3 5.94215 1.67627   5
   3  -3   3 4.93694 1.50314  13
  -3   3  -3 3.78228 2.35654  15
   3   3   3 7.19815 1.72605   4
  -3   3  -3 1.93881 2.46882  11
   3   3   3 5.04329 1.99393  10
   3   3   3 14.6793 2.74141   7
  -3   3  -3 3.00411 1.38284   2
  -3   3  -3 4.80927 2.43875   5
  -5  -3  -3 17.1043 3.09930  12
   5  -3   3 15.8025 3.20219   4
  -5  -3  -3 17.1514 3.09962  11
   5  -3   3 16.1004 2.96412   8
  -5  -3  -3 15.2052 3.03755   5
  -5   3  -3 15.1737 3.86145   5
   5   3   3 14.4351 3.47879   7
   5   3   3 17.2355 3.45458   4
   5   3   3 16.6460 3.18890  10
  -5   3  -3 16.3826 3.27238  11
  -5   3  -3 17.7541 4.69870  15
  -7  -3  -3 29.9226 5.02468  12
   7  -3   3 15.1105 3.66171  14
   7  -3   3 25.6235 4.49121   4
  -7  -3  -3 19.2635 4.13949   5
  -7   3  -3 19.2178 4.36687  11
   7   3   3 16.8868 4.08460   4
  -7   3  -3 17.9345 3.90096  12
   7   3   3 20.9575 4.66012   7
  -7   3  -3 25.2039 5.19608   5
   9  -3   3 132.096 9.76857  14
  -9  -3  -3 131.273 10.2358  12
  -9  -3  -3 142.829 11.6281   5
  -9   3  -3 121.169 10.1238  12
  -9   3  -3 138.975 10.9338   5
   9   3   3 136.006 9.16468   7
   9   3   3 120.210 9.66589   4
  10  -4  -3 156.658 13.5342   3
 -10  -4   3 151.971 9.09183  16
  10  -4  -3 180.224 11.4872  14
  10  -4  -3 171.535 11.0527   8
 -10  -4   3 156.421 11.6831   1
 -10  -4   3 175.142 12.0941  12
 -10   4   3 160.742 10.5188   5
 -10   4   3 164.095 9.87315  16
  10   4  -3 165.285 10.9333   7
  10   4  -3 153.609 9.62070  14
 -10   4   3 179.281 11.9794  12
   8  -4  -3 15.2937 3.23000  14
  -8  -4   3 13.4680 3.95837   1
   8  -4  -3 16.8467 3.50796   8
  -8  -4   3 13.1808 3.79872  12
  -8  -4   3 11.5983 2.41355  16
   8  -4  -3 14.6226 4.84680   3
  -8   4   3 11.2741 3.47048   5
   8   4  -3 10.4096 3.04253   7
   8   4  -3 13.8837 4.21628  10
  -6  -4   3 803.737 25.8862  16
  -6  -4   3 782.435 27.2540  12
   6  -4  -3 789.532 31.5484   3
   6  -4  -3 783.407 27.5682   8
  -6  -4   3 748.265 25.6666   5
   6  -4  -3 749.149 27.1907  14
   6  -4  -3 797.006 26.1925   6
   6  -4  -3 810.336 27.2405   9
  -6  -4   3 779.944 27.7042   1
  -6   4   3 770.825 25.8270  11
  -6   4   3 816.863 26.8972   5
  -6   4   3 789.224 28.1582  15
   6   4  -3 771.818 28.5742  10
   6   4  -3 824.036 27.1646   7
   6   4  -3 732.385 26.4597   2
   4  -4  -3 750.864 25.6689  14
   4  -4  -3 754.037 26.0889   8
   4  -4  -3 806.369 26.2004   9
   4  -4  -3 773.335 29.7089   3
  -4  -4   3 769.568 26.0933   1
   4  -4  -3 792.997 25.0359   6
  -4  -4   3 789.668 24.7813  16
  -4  -4   3 749.626 24.4329  13
  -4  -4   3 781.998 25.6112  12
   4   4  -3 777.955 25.4275   7
  -4   4   3 780.443 26.6562  15
   4   4  -3 746.197 27.0398   2
   4   4  -3 786.514 27.7281  10
   2  -4  -3 582.997 21.8197   3
  -2  -4   3 528.828 18.5139   1
  -2  -4   3 561.865 17.7118  16
   2  -4  -3 525.160 18.2006  14
   2  -4  -3 550.666 18.5064   8
   2  -4  -3 559.758 18.8987   9
  -2  -4   3 537.012 18.0475  12
   2  -4  -3 543.282 17.8252   6
  -2  -4   3 529.635 17.4895  13
   2   4  -3 542.654 19.4273  15
   2   4  -3 554.820 19.9894  10
   2   4  -3 542.337 17.3893   7
   2   4  -3 552.502 20.8269   2
   2   4  -3 550.910 18.5409  11
   0  -4   3 2353.99 69.3822  16
   0  -4  -3 2249.67 69.1686  12
   0  -4   3 2356.03 70.3543   1
   0  -4  -3 2284.34 69.1866   8
   0  -4  -3 2216.77 69.7599   5
   0  -4   3 2401.06 69.7016  13
   0  -4   3 2257.95 68.6013   6
   0  -4  -3 2316.42 69.6217   6
   0  -4  -3 2272.52 70.3593   9
   0  -4   3 2357.16 68.8370   4
   0   4  -3 2358.89 72.9339   2
   0   4  -3 2313.20 71.2616  11
   0   4   3 2323.27 69.4958   4
   0   4  -3 2308.25 72.9595  15
   0   4  -3 2266.20 70.3426  10
   0   4   3 2374.14 70.5835   7
  -2  -4  -3 150.416 6.78681  12
   2  -4   3 148.659 6.96456  13
  -2  -4  -3 169.180 7.25211   9
   2  -4   3 161.137 6.66454   4
   2  -4   3 149.971 6.33006  14
  -2  -4  -3 154.794 7.48582   5
  -2   4  -3 176.202 10.9112  15
  -2   4  -3 152.557 7.78812   5
  -2   4  -3 168.068 8.71301   2
   2   4   3 167.736 7.13350   4
   2   4   3 165.210 8.89344  10
   2   4   3 160.456 7.81877   7
  -2   4  -3 164.373 9.07802  11
   4  -4   3 60.7092 4.95850  13
  -4  -4  -3 69.9488 5.25120   5
   4  -4   3 54.0789 4.14995  14
   4  -4   3 61.0405 4.33637   4
   4  -4   3 63.6625 4.92605   8
  -4  -4  -3 49.4292 4.33946  12
   4   4   3 61.6574 5.00334   4
  -4   4  -3 61.8144 6.41951  11
   4   4   3 56.2931 5.46540  10
  -4   4  -3 56.6714 4.58922   2
  -4   4  -3 60.4713 7.35154  15
  -4   4  -3 53.7190 5.61201   5
   4   4   3 68.7254 5.79453   7
   6  -4   3 680.551 24.0773  14
  -6  -4  -3 621.000 24.4161  12
  -6  -4  -3 669.260 25.7345   5
   6  -4   3 639.572 24.1166   8
   6  -4   3 669.231 23.7036   4
  -6   4  -3 670.553 25.8921   5
   6   4   3 648.323 24.7850   7
  -6   4  -3 628.805 24.9969  11
   6   4   3 663.341 24.1796   4
  -8  -4  -3 129.943 9.66410  12
  -8  -4  -3 136.621 11.0842   5
   8   4   3 132.358 9.34634   4
  -8   4  -3 124.878 9.09390  12
  -8   4  -3 141.967 9.75625  11
  -8   4  -3 127.801 9.81285   5
   8   4   3 134.215 10.0179   7
  11  -5  -3 371.362 18.0587  14
 -11  -5   3 386.383 19.7301  12
 -11   5   3 345.723 18.4548  12
  11   5  -3 348.973 17.2178   7
 -11   5   3 359.941 17.2506   5
  11   5  -3 348.846 16.8582  14
  -9  -5   3 -0.1738 1.53833   5
   9  -5  -3 1.96339 3.84147   3
   9  -5  -3 0.65711 2.86760  14
  -9  -5   3 1.30547 2.08391  16
   9  -5  -3 3.10709 3.31375   8
  -9  -5   3 -1.3960 3.13143  12
  -9  -5   3 5.38243 3.50511   1
  -9   5   3 2.88590 3.30469   5
  -9   5   3 3.48173 3.68602  12
   9   5  -3 1.11260 2.63163  14
   9   5  -3 4.31026 3.66439   7
   9   5  -3 6.87614 4.04558  10
   7  -5  -3 55.3713 5.84425  14
  -7  -5   3 53.2773 5.88393  12
  -7  -5   3 57.7198 4.50245  16
  -7  -5   3 56.5129 4.59714   5
   7  -5  -3 55.9678 6.17167   8
  -7  -5   3 51.8039 5.67761   1
   7  -5  -3 58.7793 8.40220   3
  -7   5   3 45.1171 4.62697  11
   7   5  -3 58.9964 5.86589   7
  -7   5   3 48.0354 5.92626  15
   7   5  -3 56.0775 6.83721  10
  -7   5   3 53.6503 5.48407   5
  -5  -5   3 854.391 28.3766  12
  -5  -5   3 781.841 26.3059  13
  -5  -5   3 800.261 28.3999   1
   5  -5  -3 839.940 32.8652   3
   5  -5  -3 811.888 28.4134  14
   5  -5  -3 888.755 29.1120   9
   5  -5  -3 823.326 28.9463   8
  -5  -5   3 815.716 26.8579  16
   5  -5  -3 849.427 27.3928   6
  -5   5   3 803.768 29.4911  15
   5   5  -3 817.626 29.4778   2
   5   5  -3 885.383 30.6738  10
   5   5  -3 847.220 28.0605   7
  -3  -5   3 267.400 10.6327  12
   3  -5  -3 279.654 11.4959   9
   3  -5  -3 296.375 14.7403   3
  -3  -5   3 279.290 11.3149   1
  -3  -5   3 269.788 9.66807  13
   3  -5  -3 276.965 10.3826   6
   3  -5  -3 267.787 10.7338  14
  -3  -5   3 275.443 10.0741  16
   3  -5  -3 262.995 11.1022   8
   3   5  -3 278.673 13.4374   2
   3   5  -3 271.478 11.6109  15
   3   5  -3 274.716 10.3053   7
   3   5  -3 296.690 13.3629  10
  -1  -5   3 1236.08 37.0137  13
   1  -5  -3 1207.45 38.2290   9
  -1  -5   3 1197.81 36.3961   6
  -1  -5   3 1199.65 38.0985   1
   1  -5  -3 1166.57 37.4341   8
   1  -5  -3 1177.92 37.2137   6
  -1  -5   3 1201.84 36.9967  16
  -1   5   3 1149.67 36.7346   4
   1   5  -3 1236.68 39.2037  10
   1   5  -3 1195.28 38.5463  11
   1   5  -3 1199.88 40.1122  15
  -1   5   3 1175.09 35.8851  13
   1   5  -3 1236.94 40.9875   2
  -1   5   3 1196.42 37.9968   7
   1  -5   3 652.096 21.5099  13
  -1  -5  -3 663.961 22.0115   9
   1  -5   3 626.782 22.1723   1
  -1  -5  -3 618.958 21.8409   5
  -1  -5  -3 597.530 21.0530  12
   1  -5   3 653.661 20.4538   6
   1  -5   3 621.388 20.4098   4
  -1   5  -3 689.861 25.0097   2
   1   5   3 670.394 24.4420  10
   1   5   3 630.005 21.0735   4
  -1   5  -3 657.772 23.3988  11
   1   5   3 675.830 22.5771   7
  -1   5  -3 641.447 21.4440  10
  -1   5  -3 662.669 25.4132  15
   3  -5   3 60.9780 4.39618  13
   3  -5   3 57.2680 3.71220  14
   3  -5   3 60.5589 5.28793   8
  -3  -5  -3 57.5059 4.67786   5
   3  -5   3 55.5031 3.91388   4
  -3  -5  -3 58.5317 4.44230  12
   3   5   3 62.3799 5.56670   7
  -3   5  -3 65.9954 5.53984   2
   3   5   3 59.1550 5.54232  10
  -3   5  -3 60.5608 7.56245  15
  -3   5  -3 55.4511 4.91435   5
   3   5   3 63.8811 4.52813   4
  -3   5  -3 57.1248 6.25786  11
   5  -5   3 235.253 11.6567   8
   5  -5   3 240.856 10.8091  14
  -5  -5  -3 232.625 11.4980  12
   5  -5   3 250.346 10.7274   4
  -5  -5  -3 239.875 12.1418   5
  -5   5  -3 225.063 14.7302  15
   5   5   3 257.296 11.5355   4
   5   5   3 257.284 12.3113   7
   5   5   3 249.794 13.0253  10
  -5   5  -3 263.544 13.0798   5
  -5   5  -3 257.198 13.0353  11
  -7  -5  -3 463.907 20.1810  12
  -7  -5  -3 488.099 21.2273   5
   7  -5   3 465.776 19.6074   8
   7   5   3 487.004 19.6543   4
   7   5   3 459.860 20.5923   7
  -7   5  -3 465.394 21.1457   5
  -7   5  -3 491.636 20.6047  11
  -7   5  -3 472.548 20.2099  12
  10  -6  -3 96.4961 8.16471  14
 -10  -6   3 95.7200 8.78125  12
  10  -6  -3 96.7749 9.27182   8
 -10   6   3 93.2412 9.19130  12
  10   6  -3 77.6565 7.77780   7
 -10   6   3 91.7885 8.53426   5
  10   6  -3 77.4348 7.35206  14
  10   6  -3 66.5027 10.0067  10
  -8  -6   3 118.252 7.65088   5
  -8  -6   3 120.595 8.65167  12
   8  -6  -3 123.281 10.9468   3
   8  -6  -3 127.925 9.60168   8
   8  -6  -3 112.988 8.63385  14
  -8  -6   3 111.014 6.87248  16
  -8  -6   3 110.517 8.62016   1
  -8   6   3 121.791 8.66402   5
   8   6  -3 123.365 8.41784   7
   8   6  -3 120.685 10.2383  10
   6  -6  -3 1059.82 34.6199   9
   6  -6  -3 1057.13 39.6555   3
  -6  -6   3 973.019 31.7885  16
   6  -6  -3 1018.44 34.7526   8
   6  -6  -3 922.118 33.6546  14
  -6  -6   3 980.003 33.9596  12
   6  -6  -3 962.955 32.2877   6
  -6  -6   3 972.768 33.7930   1
  -6   6   3 954.041 35.4369  15
   6   6  -3 985.564 33.3630   7
  -6   6   3 957.103 32.7700  11
   6   6  -3 910.898 34.2977   2
   6   6  -3 961.600 36.0014  10
   4  -6  -3 139.662 7.53024  14
  -4  -6   3 143.903 7.54708  12
   4  -6  -3 143.573 6.82151   6
   4  -6  -3 149.338 8.37494   9
   4  -6  -3 149.547 8.28331   8
  -4  -6   3 135.428 5.82150  13
   4  -6  -3 161.042 11.0343   3
  -4  -6   3 141.464 6.65248  16
  -4  -6   3 142.262 7.88137   1
   4   6  -3 161.704 10.3702  10
   4   6  -3 136.835 7.69332  15
   4   6  -3 150.682 7.09413   7
  -4   6   3 153.014 9.20685  15
   4   6  -3 148.442 9.95026   2
   2  -6  -3 18.7285 2.58872  14
  -2  -6   3 18.1218 2.65756   1
   2  -6  -3 20.7262 2.99021   9
   2  -6  -3 23.6195 2.58764   6
   2  -6  -3 21.5781 2.87011   8
  -2  -6   3 19.2826 1.78192  13
  -2  -6   3 17.6049 1.93642   6
   2  -6  -3 21.1212 4.52674   3
  -2  -6   3 16.6221 2.14487  16
  -2  -6   3 22.2835 2.89361  12
   2   6  -3 22.9356 3.92420  10
   2   6  -3 21.0188 3.30403  15
   2   6  -3 19.5530 1.98607   7
  -2   6   3 21.7898 2.17712   4
   2   6  -3 25.4608 4.61006   2
  -2   6   3 21.1915 2.69894   7
   0  -6  -3 1041.81 35.2373   8
   0  -6  -3 1146.65 36.7599   9
   0  -6  -3 1108.48 35.8734   6
   0  -6   3 1142.86 35.6044  13
   0  -6   3 1112.45 34.8243   6
   0  -6   3 1140.07 36.9479   1
   0   6  -3 1198.16 40.0826   2
   0   6   3 1174.61 36.9764   7
   0   6   3 1173.31 39.3808  10
   0   6   3 1109.98 35.1125   4
   0   6  -3 1095.58 37.4300  11
   0   6  -3 1131.45 39.5501  15
   0   6  -3 1148.77 37.0382  10
  -2  -6  -3 530.990 18.7913   9
   2  -6   3 531.246 20.3227   8
   2  -6   3 514.776 17.4357   6
  -2  -6  -3 519.830 19.3408   5
   2  -6   3 555.533 18.9572  13
  -2  -6  -3 520.415 18.6375  12
  -2   6  -3 493.476 22.5133  15
  -2   6  -3 524.714 20.3695  11
   2   6   3 541.049 20.0675   7
  -2   6  -3 533.263 21.7031   2
   2   6   3 509.622 18.1528   4
   2   6   3 561.112 22.1795  10
  -4  -6  -3 135.919 8.11934   5
  -4  -6  -3 118.384 7.06647  12
   4  -6   3 129.047 8.58764   8
   4  -6   3 132.570 6.73762   4
  -4   6  -3 112.438 10.3572  15
  -4   6  -3 120.688 9.10757  11
   4   6   3 135.513 8.82029   7
   4   6   3 135.700 9.67414  10
  -4   6  -3 128.799 8.15412   5
   4   6   3 133.095 7.09422   4
  -4   6  -3 121.245 8.22186   2
   6  -6   3 299.607 14.5648   8
  -6  -6  -3 302.190 14.3405  12
  -6  -6  -3 293.832 15.0825   5
   6   6   3 300.578 15.4136  10
   6   6   3 290.599 15.0040   7
   6   6   3 284.622 12.8722   4
  -6   6  -3 287.792 14.2203  11
  -6   6  -3 274.778 14.8105   5
  -8  -6  -3 4.61839 4.12171   5
   8   6   3 5.54448 3.63087   7
  -8   6  -3 10.8577 3.48266  12
  -8   6  -3 6.05921 4.41319   5
   8   6   3 9.25249 3.69090   4
  -8   6  -3 9.61690 3.51906  11
   9  -7  -3 107.811 9.93442   8
   9  -7  -3 125.575 9.60809  14
  -9  -7   3 106.353 9.78502  12
  -9   7   3 113.636 9.38953   5
   9   7  -3 106.527 9.40513   7
   9   7  -3 100.449 9.31891  10
  -7  -7   3 1.44969 1.33107  16
  -7  -7   3 2.25005 2.25792  12
   7  -7  -3 3.47182 2.01785   6
   7  -7  -3 4.22098 4.03198   3
  -7  -7   3 2.98669 2.92597   1
   7  -7  -3 2.69695 2.47012  14
   7  -7  -3 1.68204 3.00064   8
  -7   7   3 -2.8280 2.78137  15
  -7   7   3 1.51155 2.16851  11
   7   7  -3 11.2492 3.69652   7
  -7   7   3 3.85113 3.36056   5
   7   7  -3 8.46084 4.98401  10
  -5  -7   3 2.68602 2.24980  12
   5  -7  -3 0.52128 1.34984   6
  -5  -7   3 0.02198 2.10903   1
   5  -7  -3 1.10005 2.17319   8
   5  -7  -3 7.89578 4.30675   3
   5  -7  -3 1.04791 1.84324   9
   5  -7  -3 1.22148 1.74682  14
  -5  -7   3 3.09848 1.72889  16
   5   7  -3 5.36140 2.13006   7
   5   7  -3 1.11033 2.79381  10
   5   7  -3 0.01108 3.61050   2
  -5   7   3 4.41201 2.42590  15
   3  -7  -3 986.219 32.0084   6
   3  -7  -3 968.756 33.5517   8
   3  -7  -3 1016.71 38.4421   3
   3  -7  -3 927.769 32.4658  14
  -3  -7   3 930.728 31.2411   6
  -3  -7   3 990.198 33.1859   1
  -3  -7   3 971.997 32.8309  12
   3  -7  -3 995.876 33.9267   9
  -3  -7   3 1000.57 31.5683  16
   3   7  -3 1032.46 35.8916  10
   3   7  -3 946.447 34.4668  15
   3   7  -3 1011.58 31.4791   7
   3   7  -3 1023.36 36.7850   2
  -3   7   3 984.075 32.0213   7
  -1  -7   3 316.173 11.8050  16
   1  -7  -3 315.355 12.3228   6
   1  -7  -3 301.965 12.3710   8
  -1  -7   3 303.118 11.4235  13
  -1  -7   3 294.362 11.1910   6
   1  -7  -3 326.991 13.5295   9
  -1  -7   3 311.349 13.1398   1
  -1   7   3 342.723 12.9559   7
  -1   7   3 319.489 15.0626  10
   1   7  -3 296.368 14.7616  15
   1   7  -3 346.042 16.8144   2
   1   7  -3 324.468 13.7145  11
   1   7  -3 335.878 14.5825  10
   1  -7   3 5.32046 2.74752   8
   1  -7   3 4.36330 1.41648   6
  -1  -7  -3 0.96026 1.52713  12
   1  -7   3 3.81856 1.75871  13
  -1  -7  -3 2.09297 1.38862   6
  -1  -7  -3 4.38608 1.88632   9
   1   7   3 2.46436 2.31434   7
  -1   7  -3 3.85149 4.26379   2
  -1   7  -3 0.77080 3.05366  15
  -1   7  -3 3.02767 3.23903  11
   1   7   3 3.22045 2.40384  10
  -1   7  -3 3.54439 2.04562  10
  -3  -7  -3 137.236 8.59585   5
   3  -7   3 150.060 6.98336   6
  -3  -7  -3 146.500 8.07558  12
   3  -7   3 162.370 9.76843   8
   3   7   3 150.735 9.39945   7
  -3   7  -3 157.828 10.4148  11
   3   7   3 155.762 10.9670  10
  -3   7  -3 133.458 11.3571  15
  -3   7  -3 150.171 10.3213   2
   5  -7   3 19.0084 4.39867   8
  -5  -7  -3 19.7247 3.48483  12
  -5  -7  -3 17.4452 4.18324   5
  -5   7  -3 21.2089 4.08263   5
  -5   7  -3 21.5432 5.25417  11
   5   7   3 15.8356 4.59862   7
   5   7   3 28.0046 5.88414  10
   7  -7   3 9.96314 3.96838   8
  -7  -7  -3 21.1445 4.55896  12
  -7  -7  -3 18.4100 4.88030   5
  -7   7  -3 16.7022 4.67059  11
  -7   7  -3 14.2053 5.12915   5
   7   7   3 15.8200 5.68591   7
  10  -8  -3 248.331 14.4157  14
  10  -8  -3 249.410 15.2248   8
 -10  -8   3 232.714 15.0500  12
  10   8  -3 230.900 14.7272  10
 -10   8   3 232.513 13.2232   5
  10   8  -3 246.536 14.3284   7
 -10   8   3 236.132 14.0665  12
  -8  -8   3 847.585 33.1516  12
   8  -8  -3 895.948 34.5295   8
   8  -8  -3 912.718 38.7784   3
   8  -8  -3 849.962 32.7186  14
  -8   8   3 869.583 32.6609   5
   8   8  -3 859.261 35.7361  10
   8   8  -3 910.806 32.8223   7
   6  -8  -3 439.586 19.2172   8
   6  -8  -3 394.192 17.7511  14
   6  -8  -3 469.734 24.0968   3
  -6  -8   3 422.759 18.0979  12
   6  -8  -3 436.064 16.8228   6
  -6  -8   3 406.945 17.6166   1
  -6  -8   3 418.723 15.9751  16
  -6   8   3 425.927 18.0561  11
   6   8  -3 416.924 20.6796  10
  -6   8   3 407.945 20.4337  15
   6   8  -3 411.231 20.1565   2
   6   8  -3 426.095 17.1886   7
  -4  -8   3 467.929 16.6634  16
  -4  -8   3 461.690 18.4475   1
  -4  -8   3 448.989 18.0786  12
   4  -8  -3 490.307 23.8858   3
   4  -8  -3 455.304 19.4119   9
   4  -8  -3 450.459 17.1160   6
   4  -8  -3 433.441 17.7960  14
  -4  -8   3 448.940 16.5917   6
   4  -8  -3 464.832 19.3590   8
   4   8  -3 438.933 16.6687   7
   4   8  -3 448.359 21.6476   2
  -4   8   3 475.807 18.9079  10
   4   8  -3 489.411 21.1951  10
   4   8  -3 450.400 19.4925  15
  -4   8   3 476.408 21.4319  15
   2  -8  -3 586.792 22.5298   8
  -2  -8   3 618.751 21.0990  16
   2  -8  -3 627.746 23.4514   9
  -2  -8   3 590.571 20.5927   6
   2  -8  -3 576.681 21.2941   6
  -2  -8   3 628.888 22.8520   1
  -2   8   3 656.114 24.8235  10
   2   8  -3 628.979 26.2405   2
   2   8  -3 606.705 24.8623  15
  -2   8   3 625.730 21.8197   7
   2   8  -3 626.899 24.5130  10
   0  -8   3 299.703 11.6896  13
   0  -8  -3 293.741 13.3319   9
   0  -8  -3 293.208 12.2208   6
   0  -8   3 309.848 11.4307   6
   0  -8   3 293.765 13.3959   1
   0  -8   3 321.484 14.4311   8
   0   8  -3 294.484 13.6893  10
   0   8   3 302.753 13.0281   7
   0   8  -3 288.970 15.7588  15
   0   8   3 312.512 15.8336  10
   0   8  -3 301.882 14.2184  11
   0   8  -3 318.480 16.8274   2
   2  -8   3 1112.41 36.3977  13
  -2  -8  -3 1084.45 36.7377  12
   2  -8   3 1142.23 39.1144   8
  -2  -8  -3 1098.49 36.9159   6
  -2   8  -3 1111.69 39.0816  11
   2   8   3 1089.09 40.9858  10
  -2   8  -3 1103.53 40.7696   2
  -2   8  -3 1055.97 41.8520  15
   2   8   3 1149.33 38.3365   7
   4  -8   3 1009.81 36.9413   8
  -4  -8  -3 1021.79 35.4243  12
  -4   8  -3 1013.05 37.1809  11
   4   8   3 1045.77 39.4820  10
  -4   8  -3 986.308 36.0630   5
   4   8   3 1033.61 36.7402   7
  -6  -8  -3 84.1561 7.48990  12
   6  -8   3 90.3362 8.79078   8
  -6  -8  -3 97.0495 8.97627   5
  -6   8  -3 77.9661 8.43397   5
  -6   8  -3 85.8139 8.91336  11
   6   8   3 80.4724 9.50467  10
   6   8   3 84.1554 8.55489   7
   9  -9  -3 149.420 10.7236  14
  -9  -9   3 139.615 11.3573  12
   9  -9  -3 157.387 12.3574   8
  -9   9   3 142.739 11.3054   5
   9   9  -3 141.846 13.1275  10
   9   9  -3 132.918 10.7416   7
   7  -9  -3 119.535 10.5231   8
   7  -9  -3 114.663 7.71461   6
   7  -9  -3 112.098 8.84365  14
   7  -9  -3 122.452 12.6577   3
  -7  -9   3 136.200 9.98414  12
   7   9  -3 120.177 12.4142  10
   7   9  -3 126.688 9.20104   7
  -7   9   3 117.655 9.58384  11
  -5  -9   3 25.8150 3.41017   6
  -5  -9   3 22.0913 4.11273   1
   5  -9  -3 28.1441 4.30603  14
  -5  -9   3 26.2849 4.28003  12
   5  -9  -3 22.2732 5.01652   8
   5  -9  -3 20.1908 3.73668   6
  -5  -9   3 29.3475 3.57175  16
   5   9  -3 25.4639 4.03710   7
   5   9  -3 20.8424 6.68431   2
  -5   9   3 20.9905 5.01690   2
   5   9  -3 28.6919 6.98514  10
   3  -9  -3 106.227 6.77991   6
   3  -9  -3 94.2832 7.72431   8
  -3  -9   3 104.205 6.08747   6
  -3  -9   3 117.980 7.58528   1
   3  -9  -3 103.947 8.47024   9
  -3  -9   3 114.728 6.46866  16
   3   9  -3 103.849 8.65983  15
   3   9  -3 104.963 11.4518   2
  -3   9   3 112.376 9.89437  15
   3   9  -3 116.316 10.5604  10
  -3   9   3 112.147 8.17909  10
   1  -9  -3 22.6563 3.48567   6
   1  -9  -3 31.3233 4.77115   9
  -1  -9   3 24.5750 4.32876   8
  -1  -9   3 26.6700 3.92102   1
  -1  -9   3 29.4540 3.23191   6
   1  -9  -3 24.8116 3.86722   8
   1   9  -3 27.8458 6.00038   2
   1   9  -3 27.3181 5.45523  15
  -1   9   3 32.2269 5.70466  10
   1   9  -3 35.0337 4.82207  11
   1   9  -3 25.7951 4.75065  10
  -1   9   3 27.5654 3.88091   7
  -1  -9  -3 22.7578 3.37528   6
   1  -9   3 22.3036 4.52044   8
  -1  -9  -3 28.6693 4.29867   9
  -1   9  -3 31.9075 5.15071  11
  -1   9  -3 18.5156 5.43217  15
   1   9   3 25.9007 4.43662   7
  -1   9  -3 30.4900 7.02600   2
   1   9   3 28.5929 5.44966  10
   3  -9   3 314.054 15.7677   8
  -3  -9  -3 299.428 13.8555  12
  -3  -9  -3 296.559 14.0198   6
  -3   9  -3 288.535 15.4166  11
   3   9   3 301.390 17.6694  10
   3   9   3 290.447 14.9102   7
  -3   9  -3 284.151 15.8242   2
   5  -9   3 82.9517 8.03094   8
  -5  -9  -3 83.7720 7.92173   6
  -5  -9  -3 71.5926 7.15632  12
  -5   9  -3 72.3730 8.10386   5
   5   9   3 95.8969 10.6850  10
  -5   9  -3 87.9712 9.43878  11
   5   9   3 77.0826 8.46114   7
   8 -10  -3 35.3811 7.03052   8
  -8 -10   3 52.3525 7.79370  12
   8  10  -3 42.8766 7.53315  10
  -8  10   3 40.2185 6.81032   5
   8  10  -3 36.3729 5.67917   7
  -6 -10   3 103.339 7.10784   6
  -6 -10   3 95.6576 8.91746  12
   6 -10  -3 92.1986 9.68939   8
   6 -10  -3 93.4272 7.53785   6
   6 -10  -3 95.4813 7.38324  14
   6  10  -3 113.211 12.3355   2
   6  10  -3 93.7053 10.4899  10
  -6  10   3 106.817 9.58562  11
   4 -10  -3 2.54069 3.06793   8
   4 -10  -3 3.95309 2.69800   6
  -4 -10   3 16.6742 4.12125   1
  -4 -10   3 2.41846 2.04172   6
   4  10  -3 7.27671 4.50213  10
  -4  10   3 1.63231 4.25710   2
   4  10  -3 7.86571 6.24002   2
   2 -10  -3 74.0605 7.49696   9
   2 -10  -3 72.9360 5.51729   6
  -2 -10   3 76.2014 6.98035   1
   2 -10  -3 69.2046 6.18103   8
  -2 -10   3 70.8481 6.85858   8
  -2 -10   3 65.4175 4.73385   6
   2  10  -3 60.0883 9.01768  15
   2  10  -3 82.3905 8.42749  10
   2  10  -3 87.0195 10.3399   2
  -2  10   3 76.7770 8.35018  10
   2  10  -3 74.7782 6.75764  11
   0 -10   3 31.2330 5.55290   8
   0 -10  -3 30.6915 4.84861   9
   0 -10  -3 32.8972 4.47736   6
   0  10  -3 28.6096 7.65302   2
   0  10  -3 36.5499 6.35491  11
   0  10   3 49.9942 5.63120   7
   0  10   3 27.4864 5.56811  10
   2 -10   3 126.389 10.0008   8
  -2 -10  -3 115.931 8.29115   6
   2  10   3 117.296 11.5401  10
  -2  10  -3 122.914 12.6180   2
   2  10   3 112.535 8.88561   7
  -2  10  -3 116.802 10.6383  11
  -4 -10  -3 12.7830 3.53164   6
   4 -10   3 19.9409 4.79787   8
  -4 -10  -3 13.9579 3.95456  12
   4  10   3 36.5195 7.09479   2
   4  10   3 12.1791 4.87397   7
  -4  10  -3 16.7168 6.06202  11
   4  10   3 12.8447 6.15803  10
  -4  10  -3 10.8581 4.99694   5
  -6 -10  -3 1.42714 3.45049   6
   6 -10   3 1.61347 3.92037   8
   6  10   3 -1.7651 4.74896  10
  -6  10  -3 4.79178 3.48250  11
  -6  10  -3 8.41259 4.61592   5
   6  10   3 0.64425 3.10768   7
  -7 -11   3 148.786 10.7758  12
   7 -11  -3 129.489 9.45875   6
   7 -11  -3 142.797 12.1424   8
   7  11  -3 145.284 13.4163  10
  -7  11   3 153.027 12.0383  11
   5 -11  -3 156.849 9.70938   6
  -5 -11   3 146.036 8.59182   6
   5 -11  -3 171.761 11.8235   8
   5  11  -3 143.821 13.2199   2
  -5  11   3 157.623 12.7664   2
   5  11  -3 151.146 14.2643  10
   3 -11  -3 78.2903 8.09742   8
  -3 -11   3 84.3603 6.21388   6
  -3 -11   3 92.8452 7.96087   1
   3 -11  -3 91.7109 7.10895   6
  -3  11   3 76.6505 8.35788  10
   3  11  -3 83.3344 11.5015   2
   3  11  -3 93.9385 10.5825  10
  -3  11   3 100.820 11.7056   2
   3  11  -3 86.9227 7.47388  11
   1 -11  -3 86.7905 6.99737   6
  -1 -11   3 78.0510 7.37788   8
   1  11  -3 82.6803 9.11006  10
   1  11  -3 92.4772 11.8975   2
  -1  11   3 97.7008 11.7806   2
  -1  11   3 92.6464 10.1488  10
   1  11  -3 92.2651 9.16033  11
  -1 -11  -3 191.069 10.9154   6
   1 -11   3 194.076 12.8119   8
   1  11   3 176.815 14.8551   2
  -1  11  -3 189.451 12.5658  11
   1  11   3 197.577 14.1883  10
  -1  11  -3 207.117 16.3361   2
  -3 -11  -3 149.360 9.98120   6
   3 -11   3 154.812 12.0293   8
   3  11   3 131.105 12.3308  10
   3  11   3 143.790 10.7217   7
   3  11   3 153.796 14.1151   2
  -3  11  -3 160.154 12.9545  11
   5 -11   3 73.2250 8.96834   8
  -5 -11  -3 78.7673 8.47154   6
  -5  11  -3 97.6940 10.1461   5
   5  11   3 79.7338 10.3114  10
   5  11   3 73.4939 8.11917   7
  -5  11  -3 75.0402 9.47224  11
   6 -12  -3 84.0112 7.73554   6
   6 -12  -3 100.857 10.3759   8
   6  12  -3 88.8820 12.1945  10
  -6  12   3 85.9208 10.2197  11
   6  12  -3 63.7701 10.6958   2
   4 -12  -3 324.878 15.4573   6
   4 -12  -3 360.803 18.7423   8
   4  12  -3 381.524 20.5705  10
  -4  12   3 349.489 20.4763   2
   4  12  -3 376.494 23.1477   2
   2 -12  -3 481.188 20.3631   6
   2  12  -3 487.707 23.8397  10
  -2  12   3 531.053 26.6107   2
  -2  12   3 520.047 24.1801  10
   2  12  -3 492.376 22.6533  11
   2  12  -3 548.381 27.2007   2
   0 -12   3 221.652 13.5960   8
   0 -12  -3 247.995 12.5210   6
   0  12   3 253.903 18.3969   2
   0  12  -3 234.669 14.2790  11
   0  12  -3 245.215 18.8057   2
   0  12   3 238.957 16.7851  10
  -2 -12  -3 97.0760 8.55101   6
   2 -12   3 117.120 9.93077   8
  -2  12  -3 119.420 13.3226   2
   2  12   3 121.268 13.1233   2
   2  12   3 113.128 12.8374  10
  -2  12  -3 92.7076 10.4593  11
   3 -13  -3 2.86064 2.38928   6
   3  13  -3 1.76668 5.34320  10
  -3  13   3 -2.6742 5.17608   2
   3  13  -3 -1.2296 2.78351  11
   3  13  -3 -0.3375 4.86227   2
   1 -13  -3 8.68263 3.82650   6
  -1  13   3 15.0872 6.96784   2
   1  13  -3 7.73858 7.30031   2
  -1  13   3 0.32582 4.92387  10
   1  13  -3 5.60759 5.34115  11
  -1 -13  -3 8.09477 3.90952   6
   1 -13   3 0.57834 3.71945   8
  -1  13  -3 6.49514 7.17158   2
  -1  13  -3 -1.9580 5.54060  11
   1  13   3 10.0040 6.64132   2
   1  13   3 7.88901 6.21105  10
  12   0  -4 535.938 29.3425   3
 -12   0   4 503.997 25.9609   1
  12   0  -4 532.554 23.2605  14
 -12   0   4 535.037 24.5856  12
 -10   0   4 2578.62 82.1348  16
  10   0  -4 2539.92 90.1953   3
  10   0  -4 2699.62 83.6539  14
 -10   0   4 2607.08 86.3329   1
 -10   0   4 2630.84 84.7180  12
  -8   0   4 4899.09 148.043  12
  -8   0   4 4915.59 149.518   1
   8   0  -4 4579.11 153.264   3
  -8   0   4 4879.22 145.970   5
   8   0  -4 4988.67 147.740  14
  -8   0   4 4922.66 146.511  16
   6   0  -4 5889.45 175.386  14
   6   0  -4 5358.45 179.791   3
  -6   0   4 6170.52 175.566  12
  -6   0   4 6145.32 174.665  16
  -6   0   4 6298.26 176.845   1
   6   0  -4 5542.23 175.554  10
  -6   0   4 5725.98 173.774   5
   4   0  -4 7298.82 249.482   3
   4   0  -4 8938.29 246.925  14
  -4   0   4 9751.16 249.162  12
   4   0  -4 7417.94 244.299   2
   4   0  -4 7270.20 246.682  10
   4   0  -4 8120.62 245.415   9
   2   0  -4 6086.13 170.620  14
   2   0  -4 5558.77 170.663  11
   2   0  -4 4910.34 168.170   3
   2   0  -4 4804.43 167.083   2
  -2   0   4 6402.80 170.318   1
  -2   0   4 6255.38 169.857  13
  -2   0   4 5880.10 169.523  16
  -2   0   4 5251.29 173.310  15
   0   0  -4 3715.37 117.576   2
   0   0   4 4029.04 117.085   1
   0   0  -4 3984.08 116.256   5
   0   0   4 3967.73 116.623   4
   0   0  -4 3838.61 117.055  11
   0   0  -4 3839.59 118.593  15
   0   0   4 3999.40 116.285  13
   0   0  -4 3983.08 116.444   3
  -2   0  -4 8856.89 266.580   5
   2   0   4 9472.70 270.853  13
  -2   0  -4 8919.78 278.753  15
  -2   0  -4 8651.92 267.408  11
   2   0   4 9605.27 269.611   4
   2   0   4 8701.96 264.877   7
  -2   0  -4 8441.36 267.432  12
  -2   0  -4 8516.79 266.767   2
   4   0   4 5241.94 160.342   7
  -4   0  -4 5467.84 162.127   5
  -4   0  -4 5359.73 166.243  15
   4   0   4 5520.71 160.574  13
  -4   0  -4 5483.35 162.274  11
   4   0   4 5375.58 161.179   4
  -4   0  -4 5127.27 160.726  12
  -6   0  -4 2116.07 66.9145  11
   6   0   4 2107.50 65.5111   4
  -6   0  -4 2116.54 67.5079   5
  -6   0  -4 1922.22 65.6209  12
   6   0   4 2022.83 64.5249   7
   8   0   4 1621.91 53.9807   4
  -8   0  -4 1602.04 56.3457   5
 -11  -1   4 269.612 15.8386  12
 -11  -1   4 276.487 13.7804  16
 -11  -1   4 271.953 16.9217   1
  11  -1  -4 276.732 19.1665   3
  11  -1  -4 278.168 14.5881  14
  11   1  -4 293.345 19.9782   3
 -11   1   4 266.888 16.5768   1
  11   1  -4 285.222 14.7042  14
 -11   1   4 265.141 13.7260  16
 -11   1   4 273.120 15.4510  12
   9  -1  -4 174.066 10.2558  14
  -9  -1   4 169.469 9.30409  16
   9  -1  -4 169.633 13.0171   3
  -9  -1   4 166.955 10.6229  12
  -9  -1   4 160.491 11.3732   1
  -9   1   4 176.068 9.43474  16
  -9   1   4 168.265 11.8980   1
   9   1  -4 177.542 13.6089   3
  -9   1   4 178.752 10.8992  12
   9   1  -4 173.174 9.88124  14
  -9   1   4 175.457 9.22459   5
  -7  -1   4 2013.65 62.4965  16
  -7  -1   4 2001.51 61.8631   5
   7  -1  -4 1956.28 68.4714   3
   7  -1  -4 1908.84 61.8186   9
  -7  -1   4 1946.99 64.5635   1
  -7  -1   4 2027.24 63.7900  12
   7  -1  -4 2010.42 63.4701   8
   7  -1  -4 2127.29 64.0328  14
  -7   1   4 2087.70 62.3859   5
   7   1  -4 2017.79 63.8175  10
  -7   1   4 2123.62 64.0085  12
   7   1  -4 2053.79 63.3596  14
  -7   1   4 2042.26 62.5850  16
   5  -1  -4 1983.47 60.4093  14
  -5  -1   4 1995.85 60.1377  12
   5  -1  -4 1818.35 64.0737   3
  -5  -1   4 2000.71 61.2419   1
  -5  -1   4 1883.61 58.5487   5
   5  -1  -4 1912.92 59.8431   9
   5  -1  -4 1956.93 60.5400   8
  -5  -1   4 2023.55 59.7473  16
  -5   1   4 2030.14 60.1788  12
  -5   1   4 2096.44 59.1609  15
  -5   1   4 1984.47 59.1263   5
   5   1  -4 1950.59 61.3935  10
  -5   1   4 1994.16 59.5675  16
   5   1  -4 2001.61 59.9648  14
   5   1  -4 1812.03 59.0380   9
  -3  -1   4 747.976 23.3878  13
   3  -1  -4 753.407 23.8976   9
   3  -1  -4 752.668 26.6491   3
   3  -1  -4 722.740 22.7002   6
   3  -1  -4 724.615 23.2132  14
  -3  -1   4 719.684 22.7489  12
  -3  -1   4 755.336 22.7017  15
  -3  -1   4 717.967 23.7883   1
  -3  -1   4 732.775 22.8935  16
  -3   1   4 723.512 22.7115  16
   3   1  -4 710.651 22.6163  14
  -3   1   4 760.087 22.6325  12
   3   1  -4 719.274 25.7027   3
   3   1  -4 752.707 22.5330  15
  -3   1   4 737.000 23.5852   1
   3   1  -4 730.500 24.6470  10
  -3   1   4 724.100 23.2429  15
   3   1  -4 738.295 24.1759   2
  -1  -1   4 5143.87 144.273  13
   1  -1  -4 4703.36 144.872   5
   1  -1  -4 4811.64 144.380   6
   1  -1  -4 4491.88 146.537   3
  -1  -1   4 4846.18 142.185   4
  -1  -1   4 4989.49 145.488  16
  -1  -1   4 5098.79 143.880   1
   1  -1  -4 4836.67 144.887  11
  -1  -1   4 4879.65 144.115  15
  -1   1   4 4858.10 143.462  13
   1   1  -4 4870.36 153.460  15
   1   1  -4 4673.93 142.249   5
   1   1  -4 4246.99 144.091   3
   1   1  -4 4448.92 143.544   2
  -1   1   4 4995.18 142.489   4
  -1   1   4 5068.82 145.134   1
  -1   1   4 4968.66 143.337  16
   1   1  -4 4631.03 142.583  11
  -1  -1  -4 2067.93 63.2239  11
  -1  -1  -4 2079.36 62.5853   5
   1  -1   4 2016.88 61.9827   7
   1  -1   4 2080.53 62.5385   4
  -1  -1  -4 2014.68 61.4008  12
  -1  -1  -4 2097.93 65.2983  15
   1  -1   4 2034.01 62.2760  13
   1   1   4 2050.95 62.7352   7
   1   1   4 2041.66 61.9293  13
  -1   1  -4 2044.60 63.4155  11
  -1   1  -4 2078.93 63.7234   2
  -1   1  -4 2095.03 65.6477  15
  -1   1  -4 2062.74 62.7480   5
   1   1   4 2051.03 62.6706   4
  -3  -1  -4 573.503 20.6511  11
  -3  -1  -4 571.164 20.3355   5
   3  -1   4 568.617 19.1207   7
   3  -1   4 573.421 19.9295   4
   3  -1   4 570.955 19.5992  13
  -3  -1  -4 571.428 23.2739  15
  -3  -1  -4 540.298 19.2244  12
   3   1   4 560.396 19.1694  13
  -3   1  -4 559.436 20.5254   5
   3   1   4 568.488 19.8763   7
  -3   1  -4 592.956 21.0636  11
   3   1   4 561.309 19.9614   4
  -3   1  -4 587.831 20.1904   2
  -3   1  -4 539.596 19.5175  12
  -3   1  -4 580.938 23.6529  15
  -5  -1  -4 1251.73 41.5298  11
  -5  -1  -4 1166.17 40.1609  12
   5  -1   4 1217.94 40.4455   4
  -5  -1  -4 1226.16 41.7031   5
   5   1   4 1187.25 39.8436   7
  -5   1  -4 1280.04 41.7795  11
  -5   1  -4 1183.38 40.4813  12
   5   1   4 1235.60 40.5981   4
  -5   1  -4 1230.08 45.9088  15
  -5   1  -4 1222.47 41.6951   5
  -7  -1  -4 245.165 12.9919  12
   7  -1   4 254.981 12.8305   4
  -7  -1  -4 241.164 13.0663  11
  -7  -1  -4 254.040 14.2630   5
  -7   1  -4 249.761 13.3382  11
   7   1   4 243.499 12.8022   4
   7   1   4 246.241 12.0881   7
  -7   1  -4 245.457 14.0981   5
  -7   1  -4 217.618 12.6083  12
  -9  -1  -4 72.8938 8.55842   5
   9  -1   4 71.2132 7.75352  14
   9   1   4 78.5300 7.49661   4
  -9   1  -4 61.4149 8.12998   5
 -12  -2   4 238.678 15.6814  12
  12  -2  -4 241.894 14.5917  14
 -12  -2   4 250.471 16.8136   1
  12   2  -4 241.405 18.7492   3
  12   2  -4 260.700 14.1558  14
 -12   2   4 212.987 14.1817  12
 -12   2   4 234.655 16.7511   1
 -10  -2   4 922.314 32.3753  16
 -10  -2   4 892.415 35.7093   1
  10  -2  -4 925.912 39.9684   3
 -10  -2   4 951.451 34.9766  12
  10  -2  -4 918.165 33.6641  14
  10  -2  -4 857.419 32.7289   8
  10   2  -4 950.859 40.6023   3
 -10   2   4 904.571 34.3173  12
  10   2  -4 889.260 32.5578  14
 -10   2   4 897.812 32.1821  16
   8  -2  -4 373.287 15.8296  14
   8  -2  -4 336.571 15.0656   8
  -8  -2   4 341.192 13.6224   5
  -8  -2   4 340.671 15.3242  12
  -8  -2   4 355.761 16.3680   1
   8  -2  -4 379.274 20.2831   3
  -8  -2   4 351.323 14.2969  16
   8   2  -4 368.702 15.3822   7
  -8   2   4 333.179 14.3055  16
   8   2  -4 367.191 15.0156  14
  -8   2   4 366.202 14.5327   5
   8   2  -4 378.669 15.6272  10
  -8   2   4 365.103 15.7124  12
  -6  -2   4 27.5749 2.40084   5
  -6  -2   4 35.9979 4.50612   1
  -6  -2   4 34.2657 3.27612  16
   6  -2  -4 36.3959 3.14045   9
  -6  -2   4 46.8789 3.74172  12
   6  -2  -4 39.9638 3.64761  14
   6  -2  -4 38.5413 5.95317   3
   6  -2  -4 34.0941 3.89849   8
   6   2  -4 43.0046 4.27776  10
   6   2  -4 36.2384 3.56969  14
  -6   2   4 31.7612 3.19902  16
  -6   2   4 39.1788 3.24471   5
   6   2  -4 30.4499 2.54197   2
  -6   2   4 33.5050 3.67883  12
   4  -2  -4 3163.09 96.2892   6
   4  -2  -4 3170.32 97.2700   9
   4  -2  -4 3318.15 97.0633  14
  -4  -2   4 3403.67 97.8400   1
   4  -2  -4 3276.98 97.4569   8
   4  -2  -4 3084.95 101.096   3
  -4  -2   4 3331.31 96.4321  16
  -4  -2   4 3225.39 96.6811  13
  -4  -2   4 3315.58 96.6851  12
   4   2  -4 3069.24 97.5302   2
   4   2  -4 3018.33 98.5126  10
  -4   2   4 3419.47 96.2316  16
   4   2  -4 3200.62 95.9923  14
  -2  -2   4 4542.10 128.988  16
   2  -2  -4 4510.32 127.900  14
   2  -2  -4 4321.70 128.099   8
  -2  -2   4 4513.90 127.740  13
   2  -2  -4 4165.94 130.600   3
   2  -2  -4 3974.26 128.499   9
  -2  -2   4 4611.86 129.651  12
   2  -2  -4 4375.38 129.737   6
  -2  -2   4 4636.05 131.173   1
  -2  -2   4 4313.33 128.699  15
  -2   2   4 4405.10 129.617  16
   2   2  -4 3812.37 129.217   2
   2   2  -4 3858.54 128.871  10
   2   2  -4 4014.79 127.842  11
  -2   2   4 4627.34 129.477  13
  -2   2   4 4555.03 129.741   1
   2   2  -4 4015.95 132.034  15
   0  -2   4 1766.89 53.6339  13
   0  -2  -4 1747.81 54.4994   9
   0  -2  -4 1769.30 54.3582  11
   0  -2   4 1766.13 53.5425   4
   0  -2  -4 1751.57 53.6001   5
   0  -2   4 1773.11 53.0646  16
   0  -2   4 1775.54 53.8110   1
   0   2  -4 1741.42 53.8013   5
   0   2   4 1733.69 54.2188   7
   0   2   4 1754.73 53.8469   4
   0   2   4 1713.77 52.9750  13
   0   2  -4 1800.64 56.6556  15
   0   2  -4 1814.13 54.9839  11
   0   2  -4 1848.89 55.7813   2
  -2  -2  -4 1813.67 56.2230  12
   2  -2   4 1824.42 56.9671   4
  -2  -2  -4 1858.54 57.8688  11
  -2  -2  -4 1842.50 57.4266   5
   2  -2   4 1822.45 56.9178  13
   2  -2   4 1813.79 55.9346   7
   2   2   4 1826.26 57.2088   4
   2   2   4 1867.97 56.2001  13
   2   2   4 1860.89 57.6232   7
  -2   2  -4 1878.51 57.8922   5
  -2   2  -4 1868.28 61.3272  15
  -2   2  -4 1922.70 58.3523   2
  -2   2  -4 1898.50 58.5890  11
   4  -2   4 224.509 10.2420   4
   4  -2   4 210.125 9.95936  13
  -4  -2  -4 218.413 9.73435  12
   4  -2   4 230.599 9.88650   8
  -4  -2  -4 220.902 10.6319  11
  -4  -2  -4 240.335 10.9176   5
   4   2   4 236.987 10.6552   7
   4   2   4 220.099 10.4326   4
  -4   2  -4 237.042 11.2768  11
  -4   2  -4 229.752 11.0834   5
   4   2   4 212.446 9.97451  10
  -4   2  -4 193.224 9.83088  12
  -4   2  -4 230.087 13.8850  15
  -6  -2  -4 125.634 8.28741  12
  -6  -2  -4 140.522 9.22772  11
  -6  -2  -4 131.600 9.45680   5
   6  -2   4 137.907 8.65247   4
  -6   2  -4 140.477 9.45378  11
  -6   2  -4 125.264 8.66138  12
  -6   2  -4 137.690 9.89689   5
   6   2   4 136.387 8.75646   4
   6   2   4 141.204 8.33031   7
   8  -2   4 677.169 25.4868  14
  -8  -2  -4 666.646 27.9049   5
   8  -2   4 644.559 25.2352   4
   8   2   4 650.015 25.6207   4
   8   2   4 660.178 25.1898   7
  -8   2  -4 586.314 25.7399  12
  -8   2  -4 639.873 27.3508   5
 -11  -3   4 1234.29 43.6798  16
 -11  -3   4 1278.38 48.2460   1
 -11  -3   4 1299.66 47.4367  12
  11  -3  -4 1383.89 46.6294  14
  11  -3  -4 1218.97 51.0889   3
  11   3  -4 1295.15 53.2460   3
  11   3  -4 1257.93 44.3641  14
 -11   3   4 1303.08 46.6147  12
  -9  -3   4 1307.63 44.6473  16
  -9  -3   4 1404.41 47.3300  12
  -9  -3   4 1354.78 48.1070   1
   9  -3  -4 1428.72 47.1241  14
   9  -3  -4 1375.70 46.5007   8
   9  -3  -4 1336.33 51.9260   3
   9   3  -4 1361.49 45.9142   7
   9   3  -4 1325.65 46.2179  10
  -9   3   4 1330.83 44.8458  16
  -9   3   4 1371.45 45.2195   5
  -9   3   4 1415.73 47.0587  12
   9   3  -4 1335.14 45.2050  14
  -7  -3   4 2967.79 95.0271   5
  -7  -3   4 3280.61 97.6445  12
   7  -3  -4 3100.49 97.5281  14
  -7  -3   4 3180.63 98.4744   1
   7  -3  -4 3213.35 97.7554   8
   7  -3  -4 3040.00 102.663   3
   7  -3  -4 3096.20 96.4216   9
  -7  -3   4 3199.61 96.0421  16
  -7   3   4 3320.34 97.6301  12
   7   3  -4 3176.69 97.0839   7
   7   3  -4 3210.19 98.5447  10
  -7   3   4 3106.69 95.9897   5
   7   3  -4 3168.93 96.2344  14
  -5  -3   4 3516.05 105.550  13
  -5  -3   4 3805.10 107.521   1
  -5  -3   4 3756.26 106.375  12
   5  -3  -4 3454.66 105.462   6
  -5  -3   4 3294.87 104.526   5
   5  -3  -4 3555.46 106.490   9
  -5  -3   4 3711.65 105.614  16
   5  -3  -4 3567.85 106.892   8
   5  -3  -4 3645.77 106.733  14
   5  -3  -4 3445.94 111.406   3
   5   3  -4 3607.31 105.302  14
   5   3  -4 3249.77 106.251  15
   5   3  -4 3157.32 104.229   9
   5   3  -4 3673.77 108.792  10
  -5   3   4 3675.34 106.554  15
   5   3  -4 3410.95 106.686   2
   5   3  -4 3384.12 106.189   7
  -3  -3   4 3859.35 109.851   1
   3  -3  -4 3798.28 109.319  14
   3  -3  -4 3709.54 109.638   8
   3  -3  -4 3623.38 113.392   3
   3  -3  -4 3841.18 108.642   6
  -3  -3   4 3853.81 108.628  16
  -3  -3   4 3753.00 108.772  13
   3  -3  -4 3509.50 109.784   9
  -3  -3   4 3830.39 108.868  12
   3   3  -4 3421.79 111.051   2
   3   3  -4 3491.95 108.890  11
   3   3  -4 3387.05 110.891  10
   3   3  -4 3391.13 109.533  15
   1  -3  -4 6835.08 201.033   5
  -1  -3   4 7230.25 202.647   1
  -1  -3   4 6946.84 200.108   4
  -1  -3   4 6856.79 200.024  16
   1  -3  -4 6293.02 197.821   9
  -1  -3   4 7153.17 202.624  13
   1  -3  -4 7140.29 202.462   6
   1  -3  -4 6615.23 205.879   3
  -1   3   4 6627.25 196.456  16
  -1   3   4 6582.21 201.104   4
   1   3  -4 6180.25 197.973  11
   1   3  -4 6090.95 197.712  10
   1   3  -4 6435.69 205.558  15
   1   3  -4 6144.23 199.423   2
  -1   3   4 6934.83 200.641  13
  -1  -3  -4 4197.59 128.704   9
   1  -3   4 4391.69 128.376   1
  -1  -3  -4 4253.49 127.022  12
  -1  -3  -4 4213.26 128.805  11
  -1  -3  -4 4185.17 128.226   5
   1  -3   4 4169.77 126.437   7
   1  -3   4 4374.72 127.688   4
   1  -3   4 4381.20 128.061  13
  -1   3  -4 4374.79 130.275   2
   1   3   4 4307.26 128.135   4
  -1   3  -4 4358.09 132.516  15
   1   3   4 4367.51 126.829  13
   1   3   4 4313.00 128.833   7
  -1   3  -4 4126.28 128.537   5
  -1   3  -4 4323.08 129.790  11
  -3  -3  -4 1937.60 62.0222  12
   3  -3   4 1953.56 62.5793  13
   3  -3   4 2046.65 62.4969   4
  -3  -3  -4 2083.61 62.9445   9
  -3  -3  -4 2047.72 63.4786   5
  -3  -3  -4 2061.41 63.7936  11
  -3   3  -4 2013.14 67.8093  15
   3   3   4 1910.05 63.8563  10
  -3   3  -4 2083.87 63.7721   2
   3   3   4 2026.50 63.4385   7
   3   3   4 2043.24 62.9357   4
  -3   3  -4 2076.41 64.4912  11
  -3   3  -4 2007.78 63.7970   5
  -5  -3  -4 2406.39 75.1129  12
   5  -3   4 2411.26 74.6540   4
  -5  -3  -4 2427.85 76.1823  11
  -5  -3  -4 2362.15 76.2427   5
  -5   3  -4 2457.92 76.7181  11
  -5   3  -4 2280.79 80.5840  15
  -5   3  -4 2425.42 76.7240   5
   5   3   4 2430.47 75.2767   4
   5   3   4 2356.40 75.3384   7
   7  -3   4 1285.73 42.8865   4
   7  -3   4 1251.93 42.8323  14
  -7  -3  -4 1248.78 45.0556   5
  -7   3  -4 1194.24 43.4564  12
   7   3   4 1285.48 43.3768   7
  -7   3  -4 1257.47 43.9932  11
   7   3   4 1271.75 43.2392   4
  -7   3  -4 1297.26 45.2569   5
 -12  -4   4 8.20307 4.86124  12
 -12  -4   4 5.15042 4.78533   1
  12  -4  -4 3.51107 2.95361  14
  12   4  -4 2.84687 3.59557  14
  12   4  -4 1.99087 5.39225   3
 -12   4   4 6.20520 4.68097  12
 -12   4   4 0.20192 5.30357   1
  10  -4  -4 61.1540 6.98191  14
 -10  -4   4 64.5939 7.72185   1
 -10  -4   4 62.6178 5.93733  16
 -10  -4   4 68.3025 8.03647  12
  10  -4  -4 65.2243 7.32246   8
  10  -4  -4 60.9994 9.72672   3
  10   4  -4 74.3475 7.72901   7
  10   4  -4 65.6847 6.76281  14
  10   4  -4 67.1530 7.54367  10
 -10   4   4 70.4537 6.01111  16
 -10   4   4 63.1756 6.74407   5
 -10   4   4 67.0417 7.51758  12
   8  -4  -4 289.529 14.3917  14
  -8  -4   4 289.459 12.4899  16
  -8  -4   4 282.276 14.5092   1
   8  -4  -4 325.372 18.8697   3
   8  -4  -4 315.102 14.7382   8
  -8  -4   4 304.060 14.4102  12
  -8   4   4 296.184 14.3533  12
   8   4  -4 314.213 14.2172   7
   8   4  -4 303.875 12.9238  14
   8   4  -4 310.116 14.9343  10
  -8   4   4 321.244 13.6553   5
   6  -4  -4 486.199 18.4735  14
   6  -4  -4 466.902 18.6007   8
  -6  -4   4 456.668 16.3003   5
  -6  -4   4 480.378 17.9989  12
  -6  -4   4 472.228 18.6928   1
  -6  -4   4 496.909 17.1187  16
   6  -4  -4 483.476 17.2100   6
   6  -4  -4 483.000 22.7423   3
  -6  -4   4 446.946 16.6739  13
   6  -4  -4 495.979 18.2841   9
   6   4  -4 487.818 16.9278  14
  -6   4   4 485.733 18.6068  15
   6   4  -4 470.245 18.0793   2
   6   4  -4 492.873 18.0351   7
   6   4  -4 493.924 19.9014  10
   4  -4  -4 757.457 25.0347  14
   4  -4  -4 749.504 24.1718   6
   4  -4  -4 739.564 25.3382   9
  -4  -4   4 714.622 23.8613  13
  -4  -4   4 733.423 23.9255  16
  -4  -4   4 716.173 25.2390   1
   4  -4  -4 768.657 29.5095   3
  -4  -4   4 744.516 24.6436  12
   4  -4  -4 745.873 25.3443   8
   4   4  -4 751.185 24.8862  15
   4   4  -4 792.417 27.2352  10
   4   4  -4 728.247 22.9855  14
   4   4  -4 760.609 26.8090   2
   4   4  -4 734.148 24.0146  11
   4   4  -4 748.983 24.4195   7
  -2  -4   4 21.1680 1.66332   4
  -2  -4   4 26.3528 1.53824   6
   2  -4  -4 26.9128 2.45643  14
  -2  -4   4 23.6439 2.70889   1
  -2  -4   4 26.5407 2.16080  12
  -2  -4   4 23.1928 2.02538  16
  -2  -4   4 26.0148 2.12815  13
   2  -4  -4 26.3566 2.21843   6
   2  -4  -4 27.0837 4.34245   3
   2  -4  -4 25.2158 2.49864   8
   2  -4  -4 29.2587 3.10048   9
   2   4  -4 29.1091 3.98277  10
   2   4  -4 36.7593 3.61179  11
  -2   4   4 26.7951 1.85706  13
   2   4  -4 26.7027 4.29856   2
   2   4  -4 38.5229 4.23816  15
   0  -4   4 11.2026 1.52806   4
   0  -4   4 11.0095 1.72928  13
   0  -4  -4 9.81216 2.09575   9
   0  -4  -4 8.39201 1.55752   6
   0  -4   4 9.43146 2.06292   1
   0  -4  -4 9.64715 1.78997   5
   0  -4  -4 14.6033 1.55612  12
   0  -4   4 8.97969 0.94916   6
   0   4   4 8.71467 1.03351  13
   0   4   4 7.96751 1.71502   4
   0   4  -4 7.80009 1.82108  10
   0   4  -4 9.13356 3.48092  15
   0   4  -4 12.4823 3.32359  11
   0   4   4 9.12220 1.89040   7
   0   4  -4 8.26546 3.71588   2
   2  -4   4 823.481 27.3815   4
  -2  -4  -4 824.637 27.2304  12
  -2  -4  -4 824.552 28.3476   5
   2  -4   4 843.884 27.9485  13
  -2  -4  -4 891.646 28.4194   9
  -2   4  -4 871.863 30.0200  11
  -2   4  -4 858.912 32.6886  15
  -2   4  -4 840.790 28.8088   5
   2   4   4 830.132 28.8637   7
   2   4   4 804.278 27.7467   4
  -2   4  -4 885.968 29.9215   2
   4  -4   4 528.520 19.5650  13
   4  -4   4 506.307 19.7646   8
   4  -4   4 519.456 18.5545  14
   4  -4   4 518.683 18.8984   4
  -4  -4  -4 546.363 20.5930   5
  -4  -4  -4 506.514 18.9956  12
   4   4   4 537.616 20.2707   7
  -4   4  -4 534.148 21.0291  11
  -4   4  -4 511.997 23.9122  15
  -4   4  -4 494.548 20.3486   5
   4   4   4 510.306 20.7345  10
   4   4   4 518.255 19.5582   4
  -6  -4  -4 60.3073 7.07805   5
   6  -4   4 49.6996 5.30856  14
  -6  -4  -4 49.2020 5.59268  12
   6  -4   4 73.7506 6.50971   4
   6   4   4 60.7173 6.62797   7
  -6   4  -4 52.8402 6.27969  11
   6   4   4 57.1829 5.75765   4
  -6   4  -4 46.1965 5.73905  12
  -6   4  -4 51.2520 6.16574   5
  -8  -4  -4 43.4820 6.82876   5
   8   4   4 40.2659 6.01369   7
  -8   4  -4 33.1033 4.95310  12
  -8   4  -4 40.6501 6.13968   5
  -8   4  -4 35.4519 4.94853  11
   8   4   4 43.4599 5.38119   4
  11  -5  -4 210.730 13.2890   8
 -11  -5   4 212.627 14.4828   1
  11  -5  -4 232.658 14.0385  14
 -11  -5   4 223.645 13.9908  12
  11   5  -4 230.259 13.3059   7
  11   5  -4 193.850 11.6670  14
 -11   5   4 202.905 13.5377  12
  -9  -5   4 498.958 19.3878  16
   9  -5  -4 539.434 26.6357   3
  -9  -5   4 496.007 21.7864  12
  -9  -5   4 466.331 21.6363   1
   9  -5  -4 540.861 22.2357  14
   9  -5  -4 504.191 21.9892   8
  -9   5   4 521.191 21.7048  12
   9   5  -4 491.950 19.6267  14
  -9   5   4 498.670 20.3022   5
   9   5  -4 488.354 20.5399   7
   9   5  -4 491.797 22.0754  10
  -7  -5   4 1491.97 46.6930  16
  -7  -5   4 1341.03 45.9049   5
  -7  -5   4 1452.60 48.2962  12
   7  -5  -4 1487.21 49.2704   8
  -7  -5   4 1471.32 49.1965   1
   7  -5  -4 1548.34 48.7258   9
   7  -5  -4 1486.39 46.9525   6
   7  -5  -4 1511.80 54.8127   3
   7  -5  -4 1370.83 48.3888  14
   7   5  -4 1447.18 46.4421  14
   7   5  -4 1473.60 48.0490   7
   7   5  -4 1447.69 50.2466  10
  -7   5   4 1513.79 47.6091   5
   5  -5  -4 1756.07 55.2202   9
  -5  -5   4 1618.17 52.8385  13
   5  -5  -4 1746.24 60.5131   3
   5  -5  -4 1735.44 55.0112  14
   5  -5  -4 1818.15 53.8776   6
  -5  -5   4 1710.86 53.3045  16
  -5  -5   4 1639.25 54.8859   1
   5  -5  -4 1734.05 55.5693   8
  -5  -5   4 1744.88 54.5274  12
   5   5  -4 1772.72 57.4451  10
   5   5  -4 1754.66 54.2380   7
  -5   5   4 1785.60 56.1467  15
   5   5  -4 1657.70 56.2620   2
   3  -5  -4 1145.37 37.0965   9
  -3  -5   4 1116.25 35.2250  13
   3  -5  -4 1107.74 36.6731   8
   3  -5  -4 1170.10 41.4379   3
  -3  -5   4 1104.55 36.7191   1
   3  -5  -4 1150.56 36.4400  14
   3  -5  -4 1124.40 35.5769   6
  -3  -5   4 1137.60 36.0911  12
  -3  -5   4 1139.29 35.4672  16
   3   5  -4 1085.50 36.3149  11
   3   5  -4 1120.39 39.6175   2
   3   5  -4 1157.82 38.9025  10
   3   5  -4 1157.91 37.8733  15
   1  -5  -4 1387.23 43.9345   9
  -1  -5   4 1385.19 42.5930  13
  -1  -5   4 1408.91 42.4275  16
   1  -5  -4 1317.16 42.4651   6
  -1  -5   4 1333.87 41.2424   6
   1  -5  -4 1315.46 42.5795   8
  -1  -5   4 1356.33 43.5592   1
   1   5  -4 1424.75 44.4836  10
  -1   5   4 1381.50 43.7569   7
  -1   5   4 1317.58 42.3762   4
   1   5  -4 1387.35 46.3725  15
   1   5  -4 1472.03 47.3782   2
   1   5  -4 1377.47 44.4845  11
  -1  -5  -4 1568.77 49.7402   5
  -1  -5  -4 1634.92 50.0938   9
  -1  -5  -4 1520.19 48.4671  12
   1  -5   4 1562.22 50.0325   1
   1  -5   4 1549.66 48.2452   4
   1  -5   4 1573.78 49.2453  13
  -1   5  -4 1668.18 52.9016   2
   1   5   4 1609.57 50.5222   7
  -1   5  -4 1532.82 49.1496  10
  -1   5  -4 1577.39 51.3725  11
   1   5   4 1579.41 49.1301   4
  -1   5  -4 1576.22 54.2310  15
   3  -5   4 1143.96 38.5269   8
   3  -5   4 1178.58 37.6336  13
   3  -5   4 1090.61 36.4404   4
  -3  -5  -4 1149.66 38.4118   5
  -3  -5  -4 1107.20 36.8887  12
   3   5   4 1176.11 37.4493   4
  -3   5  -4 1154.50 39.4391  11
  -3   5  -4 1136.64 42.7915  15
   3   5   4 1134.85 40.1512  10
  -3   5  -4 1211.53 39.2394   2
  -3   5  -4 1112.99 38.4171   5
   3   5   4 1123.65 38.5360   7
  -5  -5  -4 819.208 29.3042  12
  -5  -5  -4 838.696 30.9336   5
   5  -5   4 865.921 28.8932   4
   5  -5   4 798.243 29.7734   8
   5   5   4 851.515 29.6156   4
  -5   5  -4 821.867 30.8752  11
  -5   5  -4 834.802 30.8257   5
   5   5   4 820.264 30.4699   7
   5   5   4 814.870 30.9147  10
  -7  -5  -4 365.731 18.2111   5
  -7   5  -4 341.875 16.4461  11
  -7   5  -4 347.981 16.9844   5
  -7   5  -4 339.627 16.2022  12
   7   5   4 358.493 16.2259   4
   7   5   4 335.329 16.4492   7
  10  -6  -4 1620.18 54.0568  14
 -10  -6   4 1425.53 50.0349  16
 -10  -6   4 1561.18 54.3549  12
 -10  -6   4 1452.01 53.5184   1
  10  -6  -4 1497.48 58.6342   3
  10   6  -4 1598.38 54.4268  10
 -10   6   4 1567.24 52.0583   5
  10   6  -4 1561.30 52.5236   7
 -10   6   4 1554.80 53.2058  12
   8  -6  -4 1790.21 58.2075   8
   8  -6  -4 1748.22 63.3932   3
   8  -6  -4 1698.72 57.3067  14
  -8  -6   4 1640.02 54.2065  16
  -8  -6   4 1683.67 56.9325  12
  -8  -6   4 1587.90 56.7155   1
   8   6  -4 1733.73 59.0312  10
  -8   6   4 1795.76 56.1063   5
   8   6  -4 1718.92 56.2719   7
   6  -6  -4 2282.92 72.4693   8
  -6  -6   4 2277.54 71.8230   1
  -6  -6   4 2223.09 71.0389  12
   6  -6  -4 2247.58 71.7263  14
   6  -6  -4 2344.10 72.0734   9
  -6  -6   4 2269.75 69.5163  16
   6  -6  -4 2318.86 78.2081   3
   6  -6  -4 2243.09 69.7955   6
   6   6  -4 2289.40 74.2517  10
   6   6  -4 2283.76 70.6569   7
  -6   6   4 2206.55 72.7682  15
   6   6  -4 2091.59 72.1882   2
  -4  -6   4 3878.69 110.722   1
   4  -6  -4 3655.24 110.010  14
   4  -6  -4 3645.64 110.715   8
   4  -6  -4 3628.01 110.760   9
  -4  -6   4 3738.34 109.765  12
   4  -6  -4 3679.79 116.572   3
   4  -6  -4 3758.66 108.908   6
  -4  -6   4 3794.45 108.686  16
  -4  -6   4 3570.11 107.939  13
   4   6  -4 3546.90 108.555   7
   4   6  -4 3388.97 112.752   2
   4   6  -4 3441.53 110.593  15
   4   6  -4 3571.69 112.565  10
   4   6  -4 3289.25 108.997  11
   2  -6  -4 5629.49 162.188   6
  -2  -6   4 5832.85 161.958  16
  -2  -6   4 5724.68 161.791  13
   2  -6  -4 5346.55 163.668   9
  -2  -6   4 5391.85 160.879   6
   2  -6  -4 5492.25 162.965   8
  -2  -6   4 5783.88 163.510   1
   2  -6  -4 5364.49 168.261   3
   2   6  -4 5108.45 166.675   2
   2   6  -4 5244.12 164.836  10
   2   6  -4 5204.24 163.516  11
  -2   6   4 5367.25 161.613   4
   2   6  -4 5231.70 165.371  15
  -2   6   4 5505.68 163.164   7
   0  -6  -4 4774.02 147.465   9
   0  -6  -4 4944.71 146.447   6
   0  -6   4 5014.31 147.607   1
   0  -6   4 5051.14 146.402  13
   0   6  -4 4893.12 150.891   2
   0   6   4 5048.90 147.912   7
   0   6  -4 4794.40 151.298  15
   0   6   4 4978.82 146.043   4
   0   6  -4 4754.38 147.145  10
   0   6  -4 4735.06 148.420  11
  -2  -6  -4 2796.56 87.9156  12
   2  -6   4 2899.83 88.5671  13
  -2  -6  -4 2805.01 89.2427   5
  -2   6  -4 3001.02 91.8275   2
  -2   6  -4 2892.65 94.4944  15
   2   6   4 2881.32 92.3180  10
  -2   6  -4 2938.72 91.0639  11
   2   6   4 2867.14 88.0810   4
   2   6   4 2962.57 90.1545   7
  -4  -6  -4 1862.27 61.4030   5
  -4  -6  -4 1810.39 59.7751  12
   4  -6   4 1919.93 61.7038   8
   4   6   4 1888.76 63.3248  10
  -4   6  -4 1884.25 61.4617   5
   4   6   4 1878.00 61.4924   7
  -4   6  -4 1948.96 62.4819  11
   4   6   4 1920.42 60.0032   4
   6  -6   4 1255.78 43.0775   8
  -6  -6  -4 1238.78 44.0086   5
  -6   6  -4 1219.98 43.5315  11
  -6   6  -4 1229.39 43.7762   5
   6   6   4 1204.40 43.0569   7
   6   6   4 1262.08 41.9575   4
   9  -7  -4 219.633 16.3780   3
   9  -7  -4 216.873 13.0952  14
  -9  -7   4 194.166 10.2210  16
  -9  -7   4 211.070 13.0614   1
  -9  -7   4 218.773 13.3858  12
   9  -7  -4 237.618 14.2288   8
   9   7  -4 220.443 12.8418   7
  -9   7   4 237.803 12.9140   5
   9   7  -4 222.404 14.8456  10
   7  -7  -4 68.8395 7.65223   8
   7  -7  -4 46.0769 8.32671   3
  -7  -7   4 53.7829 5.87534  12
   7  -7  -4 49.6348 6.13567  14
  -7  -7   4 52.5030 4.81996  16
   7  -7  -4 44.9980 5.03244   6
   7  -7  -4 42.3345 5.46938   9
  -7  -7   4 41.9677 5.73987   1
   7   7  -4 48.2491 5.70863   7
  -7   7   4 40.5682 5.03604  11
   7   7  -4 49.1192 6.92491  10
   5  -7  -4 280.459 17.0307   3
   5  -7  -4 233.599 12.0640   8
  -5  -7   4 226.331 11.4621   1
  -5  -7   4 230.876 11.1635  12
   5  -7  -4 240.144 10.6475   6
   5  -7  -4 222.675 11.3719  14
  -5  -7   4 227.151 10.1287  16
   5  -7  -4 271.009 12.7108   9
   5   7  -4 242.138 10.7304   7
   5   7  -4 244.180 14.3906   2
  -5   7   4 236.374 13.2251  15
   5   7  -4 245.378 13.8281  10
   3  -7  -4 978.556 33.1500   8
  -3  -7   4 964.997 31.1877  16
   3  -7  -4 1017.02 33.7987   9
  -3  -7   4 957.869 30.6695  13
   3  -7  -4 990.514 38.4593   3
  -3  -7   4 967.770 32.4093  12
   3  -7  -4 947.346 32.5247  14
  -3  -7   4 956.964 32.8078   1
   3  -7  -4 949.542 31.5426   6
  -3  -7   4 946.146 30.5386   6
   3   7  -4 1017.69 35.5037  10
  -3   7   4 972.540 32.2830   7
   3   7  -4 991.398 37.0009   2
  -3   7   4 947.088 31.5753   4
   3   7  -4 933.187 34.4865  15
   3   7  -4 940.368 32.7653  11
   1  -7  -4 841.017 27.5725   6
   1  -7  -4 831.577 28.8294   9
  -1  -7   4 814.134 27.0016  16
   1  -7  -4 766.111 27.2017   8
  -1  -7   4 793.519 28.4523   1
  -1  -7   4 825.933 27.0387  13
   1   7  -4 796.988 31.2782  15
   1   7  -4 872.646 32.9309   2
  -1   7   4 840.669 28.5523   7
   1   7  -4 826.412 29.3045  11
   1   7  -4 848.168 29.4920  10
  -1  -7  -4 564.942 20.8443   6
  -1  -7  -4 559.793 20.2979  12
   1  -7   4 589.336 20.6401  13
  -1  -7  -4 601.108 21.5934   9
   1   7   4 572.718 20.1169   4
  -1   7  -4 586.772 23.1395  11
   1   7   4 578.405 24.6049  10
  -1   7  -4 561.010 24.9209  15
   1   7   4 595.087 22.3453   7
  -1   7  -4 619.312 24.7914   2
   3  -7   4 151.878 10.0413   8
  -3  -7  -4 147.112 8.26221  12
  -3  -7  -4 154.134 9.55910   5
  -3   7  -4 164.366 10.8171   2
   3   7   4 171.761 9.99585   7
  -3   7  -4 164.222 10.9104  11
   3   7   4 215.250 12.9021  10
   3   7   4 163.960 8.14189   4
  -3   7  -4 146.422 9.52243   5
  -5  -7  -4 48.8089 6.58766   5
   5  -7   4 51.9460 6.50716   8
  -5   7  -4 52.6029 7.00404  11
  -5   7  -4 53.7309 6.76121   5
   5   7   4 64.2893 7.91599  10
   5   7   4 54.2719 6.88189   7
   7  -7   4 217.531 12.9570   8
  -7  -7  -4 243.176 14.2893   5
  -7   7  -4 233.310 14.1815   5
   7   7   4 251.577 14.8582   7
  -7   7  -4 223.059 13.4498  11
  10  -8  -4 332.909 17.2668  14
 -10  -8   4 309.194 17.5664  12
  10  -8  -4 341.155 18.5038   8
 -10   8   4 325.146 16.7956  12
  10   8  -4 317.076 18.3510  10
  10   8  -4 299.688 16.2599   7
   8  -8  -4 873.589 31.2211   6
   8  -8  -4 966.280 35.3391   8
   8  -8  -4 860.056 33.3517  14
  -8  -8   4 843.997 32.9911   1
  -8  -8   4 820.380 30.1008  16
  -8  -8   4 864.070 33.2073  12
   8  -8  -4 905.010 39.7784   3
   8   8  -4 901.516 36.2575  10
  -8   8   4 903.292 32.8812   5
   8   8  -4 888.705 32.3351   7
   6  -8  -4 1758.01 56.1603   6
   6  -8  -4 1660.75 57.6887  14
  -6  -8   4 1779.29 58.0850   1
  -6  -8   4 1777.56 57.8923  12
   6  -8  -4 1736.68 58.6893   9
  -6  -8   4 1782.23 55.5826  16
   6  -8  -4 1791.18 65.5530   3
   6  -8  -4 1847.11 59.7212   8
   6   8  -4 1700.01 60.4006   2
   6   8  -4 1794.08 61.6678  10
  -6   8   4 1725.18 60.5568  15
   6   8  -4 1755.96 56.4254   7
  -4  -8   4 1062.20 35.5455   6
   4  -8  -4 1111.95 38.9089   8
  -4  -8   4 1092.77 38.0753   1
   4  -8  -4 1116.70 37.9552  14
  -4  -8   4 1108.34 36.0357  16
   4  -8  -4 1155.97 45.0674   3
   4  -8  -4 1126.17 36.6539   6
   4  -8  -4 1126.75 39.0481   9
  -4  -8   4 1105.67 37.6817  12
   4   8  -4 1085.96 41.9828   2
   4   8  -4 1089.23 40.3904  15
  -4   8   4 1159.24 41.2331  15
   4   8  -4 1152.93 41.2770  10
  -2  -8   4 1174.31 39.9111   1
  -2  -8   4 1150.26 37.9244  16
   2  -8  -4 1188.82 40.3939   9
   2  -8  -4 1102.65 39.1684   8
   2  -8  -4 1199.78 38.6665   6
   2   8  -4 1154.33 40.1229  11
  -2   8   4 1248.65 42.5733  10
   2   8  -4 1250.02 41.8052  10
   2   8  -4 1210.30 44.5057   2
  -2   8   4 1215.23 39.3571   7
   2   8  -4 1148.86 42.4591  15
   0  -8   4 1297.96 43.8431   1
   0  -8  -4 1291.18 42.4226   6
   0  -8  -4 1358.46 43.9297   9
   0   8   4 1324.28 47.0186  10
   0   8  -4 1241.42 43.1223  10
   0   8  -4 1219.87 47.0013  15
   0   8  -4 1369.46 48.2581   2
   0   8   4 1364.37 44.0226   7
   0   8  -4 1344.77 45.1109  11
   2  -8   4 943.829 32.0269  13
  -2  -8  -4 935.094 31.8975  12
   2  -8   4 899.535 33.9512   8
  -2  -8  -4 930.033 32.4190   6
  -2   8  -4 944.266 34.7384  11
   2   8   4 952.988 36.9061  10
  -2   8  -4 929.346 35.8342   2
   2   8   4 966.163 33.9905   7
   4  -8   4 1255.86 43.7983   8
  -4   8  -4 1187.92 42.6418   5
  -4   8  -4 1207.14 43.6233  11
   4   8   4 1286.67 43.7004   7
   4   8   4 1230.03 46.1049  10
   6  -8   4 692.641 27.5725   8
  -6  -8  -4 683.301 27.9763   5
  -6   8  -4 638.712 26.5998   5
  -6   8  -4 657.794 27.1908  11
   6   8   4 673.279 27.7973   7
   6   8   4 653.631 28.3446  10
  -9  -9   4 1048.03 39.6262  12
   9  -9  -4 1093.01 40.9254   8
   9  -9  -4 1007.51 38.6352  14
  -9   9   4 1022.27 37.9032   5
   9   9  -4 1054.45 37.9453   7
   9   9  -4 1022.43 41.7552  10
   7  -9  -4 1212.20 41.6278   6
   7  -9  -4 1362.82 46.3890   8
  -7  -9   4 1261.31 44.1449  12
  -7  -9   4 1244.12 43.7396   1
   7  -9  -4 1179.49 43.5393  14
   7  -9  -4 1300.33 51.6581   3
  -7   9   4 1221.18 43.1970  11
   7   9  -4 1221.37 46.9970  10
   7   9  -4 1188.16 41.9882   7
  -5  -9   4 1745.05 58.2254  12
   5  -9  -4 1771.97 56.7307   6
   5  -9  -4 1797.49 59.9824   8
   5  -9  -4 1692.38 58.0820  14
   5  -9  -4 1749.03 59.4859   9
   5  -9  -4 1825.04 66.5999   3
  -5  -9   4 1756.25 55.8677   6
  -5  -9   4 1761.71 55.9152  16
  -5  -9   4 1822.01 58.5572   1
   5   9  -4 1761.54 61.7843  10
   5   9  -4 1815.78 62.9752   2
   3  -9  -4 1657.14 53.9073   6
  -3  -9   4 1740.60 53.5757  16
   3  -9  -4 1637.28 55.7928   8
   3  -9  -4 1697.39 56.5044   9
  -3  -9   4 1690.36 55.6134   1
   3   9  -4 1760.07 58.4953  10
   3   9  -4 1650.33 55.4724  11
   3   9  -4 1725.79 60.7117   2
  -3   9   4 1757.69 57.9409  10
   3   9  -4 1609.48 57.8684  15
   1  -9  -4 810.307 28.6894   9
   1  -9  -4 704.198 26.1515   6
  -1  -9   4 748.058 27.8581   1
   1   9  -4 758.380 28.7330  10
  -1   9   4 790.389 30.9262  10
  -1   9   4 767.868 27.4554   7
   1   9  -4 786.434 32.7292   2
   1   9  -4 759.704 28.6020  11
   1   9  -4 669.605 30.3782  15
  -1  -9  -4 1560.42 52.2612   6
   1  -9   4 1691.67 55.2026   8
   1  -9   4 1630.21 51.8170  13
  -1   9  -4 1669.26 57.8657   2
   1   9   4 1594.53 53.7380   7
  -1   9  -4 1553.67 54.6889  11
   1   9   4 1632.92 57.7898  10
  -3  -9  -4 1919.52 61.1861   6
   3  -9   4 1935.87 63.3902   8
   3   9   4 1858.76 62.3177   7
  -3   9  -4 1874.42 63.6992   2
  -3   9  -4 1804.30 61.5531   5
  -3   9  -4 1853.35 63.4066  11
   3   9   4 1859.11 65.9554  10
   5  -9   4 786.467 30.8391   8
   5   9   4 745.000 32.0155  10
  -5   9  -4 713.872 29.5503   5
   5   9   4 760.138 30.1169   7
  -5   9  -4 763.025 30.6495  11
  -8 -10   4 11.7039 4.59374  12
   8 -10  -4 12.7397 4.37229   8
   8 -10  -4 1.36410 2.90856  14
   8 -10  -4 9.52899 3.23658   6
   8  10  -4 6.46789 6.07377  10
   8  10  -4 6.64152 3.49910   7
  -8  10   4 5.34916 4.48816   5
   6 -10  -4 30.4692 4.78333   6
  -6 -10   4 46.7823 6.03091   1
  -6 -10   4 38.1516 5.21300   6
  -6 -10   4 37.1685 4.01991  16
  -6 -10   4 41.7363 6.20142  12
   6 -10  -4 47.2480 7.20111   8
   6 -10  -4 42.6200 5.98420  14
   6  10  -4 41.0751 7.47762  10
   6  10  -4 41.8560 7.35794   2
  -4 -10   4 25.4936 4.84139   1
   4 -10  -4 8.98843 3.11902   6
  -4 -10   4 18.1316 3.21192  16
   4 -10  -4 13.8267 3.83049   9
   4 -10  -4 11.3605 3.63652   8
  -4  10   4 6.61010 4.44318   2
   4  10  -4 12.1716 5.38735   2
   4  10  -4 15.1948 3.56399  11
   4  10  -4 12.4970 4.78267  10
  -4  10   4 16.6240 4.57740  10
   2 -10  -4 84.6940 7.46145   9
  -2 -10   4 97.2936 7.98391   1
   2 -10  -4 77.6865 6.32715   6
  -2 -10   4 80.4585 7.58781   8
   2  10  -4 115.127 8.98923  11
  -2  10   4 88.4706 9.57506  10
   2  10  -4 76.8945 10.0938   2
   2  10  -4 67.5958 8.33756  10
   0 -10  -4 185.529 11.1119   9
   0 -10   4 178.511 11.2380   8
   0 -10  -4 183.994 10.1829   6
   0  10   4 200.267 14.2475  10
   0  10  -4 184.271 11.8285  11
   0  10  -4 180.176 14.0599   2
   0  10   4 178.915 10.6885   7
   2 -10   4 1.23704 3.71541   8
  -2 -10  -4 7.82894 2.80910   6
  -2  10  -4 6.39912 5.88742   2
   2  10   4 8.89777 5.55060  10
  -2  10  -4 13.3965 4.65993  11
   2  10   4 10.7707 3.49016   7
  -4 -10  -4 17.8693 4.55870   6
   4 -10   4 16.2507 5.32376   8
  -4  10  -4 10.6886 4.64533   5
   4  10   4 23.4935 5.65105   2
   4  10   4 14.9107 6.23118  10
  -4  10  -4 11.5028 5.40296  11
   4  10   4 10.9519 4.94388   7
   7 -11  -4 114.750 8.13446   6
   7 -11  -4 130.642 11.6762   8
  -7 -11   4 123.375 10.5124  12
  -7  11   4 120.712 10.8001  11
   7  11  -4 114.139 12.8659  10
   5 -11  -4 378.376 16.6034   6
   5 -11  -4 400.439 20.0081   8
  -5 -11   4 384.975 18.0415   1
  -5  11   4 381.112 20.8918   2
   5  11  -4 376.827 22.7429   2
   5  11  -4 366.127 20.9236  10
   3 -11  -4 1104.38 42.1246   8
  -3 -11   4 1245.47 42.3922   1
   3 -11  -4 1196.05 43.1790   9
   3 -11  -4 1144.82 39.9216   6
   3  11  -4 1170.93 44.6634  10
   3  11  -4 1172.95 47.6221   2
  -3  11   4 1272.74 44.7948  10
  -3  11   4 1148.29 45.5301   2
   1 -11  -4 757.151 29.2130   9
   1 -11  -4 703.618 26.9883   6
  -1 -11   4 732.804 29.5918   8
   1  11  -4 731.470 33.8324   2
   1  11  -4 713.044 29.2912  11
  -1  11   4 756.991 32.1438  10
   1 -11   4 689.202 28.1875   8
  -1 -11  -4 643.889 25.2236   6
  -1  11  -4 649.964 27.9985  11
   1  11   4 641.566 25.7775   7
   1  11   4 655.368 30.1292  10
  -1  11  -4 645.891 29.7682   2
  -3 -11  -4 418.338 19.1188   6
   3 -11   4 427.291 20.7409   8
  -3  11  -4 439.759 22.4332   2
  -3  11  -4 420.401 20.1032   5
   3  11   4 418.618 20.1147   7
   3  11   4 424.112 23.2492  10
  -3  11  -4 446.028 22.0608  11
   3  11   4 441.509 23.9892   2
   6 -12  -4 847.755 35.1021   8
   6 -12  -4 822.783 31.2441   6
   6  12  -4 905.096 38.1410  10
   6  12  -4 816.616 37.5633   2
  -6  12   4 942.706 35.5206  11
  -4 -12   4 514.343 22.3909   1
   4 -12  -4 502.510 20.7142   6
  -4  12   4 558.545 27.0352   2
   4  12  -4 503.984 25.5962  10
  -2 -12   4 668.863 28.8416   8
   2 -12  -4 728.108 27.1789   6
  -2  12   4 753.624 31.8528  10
  -2  12   4 770.076 34.5868   2
   2  12  -4 706.801 34.2819   2
   2  12  -4 704.943 30.0141  10
   2  12  -4 735.387 29.9357  11
   0 -12   4 866.936 34.5281   8
   0 -12  -4 857.485 31.9604   6
   0  12   4 880.960 37.0652  10
   0  12  -4 851.583 34.6994  11
   0  12   4 885.251 39.0520   2
   0  12  -4 888.401 38.6995   2
   2 -12   4 405.515 20.2555   8
  -2 -12  -4 394.864 18.2698   6
  -2  12  -4 405.303 22.7229   2
   2  12   4 440.795 24.8710   2
   2  12   4 371.095 22.9180  10
  -2  12  -4 392.743 20.9885  11
   3 -13  -4 90.2339 8.01800   6
   3  13  -4 117.624 14.8121   2
   3  13  -4 90.9094 9.56048  10
  -3  13   4 76.5075 11.2652   2
  -1 -13   4 7.27981 4.16285   8
   1 -13  -4 11.5773 3.45348   6
   1  13  -4 -2.7963 4.71385  11
  -1  13   4 2.94881 5.26285  10
   1  13  -4 8.24866 7.02949   2
  -1  13   4 4.34377 4.45868   2
 -12   0   5 0.19349 3.81586  12
  12   0  -5 5.22593 3.91000  14
 -12   0   5 -1.6376 4.68808   1
  12   0  -5 9.41158 5.88180   3
 -10   0   5 4.42734 3.80516  12
  10   0  -5 3.97764 2.67644  14
 -10   0   5 14.2197 3.68403  16
  10   0  -5 1.12112 3.11048   3
 -10   0   5 3.94236 4.53383   1
  -8   0   5 -0.7120 2.93257   1
  -8   0   5 1.63640 1.98078  16
   8   0  -5 -1.8979 1.69465   3
   8   0  -5 0.90060 1.56119  14
  -8   0   5 3.54666 2.75522  12
  -6   0   5 2.05808 1.60211  12
  -6   0   5 -0.1380 1.30500  16
   6   0  -5 -0.6380 2.22207   3
   6   0  -5 1.69756 1.18945   9
   6   0  -5 1.19443 1.05916  14
  -6   0   5 2.15557 2.10842   1
  -4   0   5 0.77612 1.03404   1
  -4   0   5 3.95273 0.98620  12
   4   0  -5 0.86219 0.81157  14
  -4   0   5 0.64119 0.94217  16
  -4   0   5 0.76498 1.11003  13
  -4   0   5 0.80824 0.72530  15
   4   0  -5 0.63863 0.98717   9
   4   0  -5 0.59259 1.11506   2
   4   0  -5 -0.0031 1.14355   3
   2   0  -5 3.13337 1.37787   3
  -2   0   5 -0.5639 0.89221   4
  -2   0   5 1.41483 0.83767   1
  -2   0   5 0.41203 0.56137  16
  -2   0   5 0.35786 0.87874  13
   2   0  -5 0.63497 1.18342   2
   2   0  -5 0.15003 0.56307  11
   0   0  -5 -0.4560 1.02585  11
   0   0  -5 1.74873 1.28726  15
   0   0   5 0.76316 1.02867  13
   0   0  -5 -0.2676 0.91841   2
   0   0   5 0.60987 0.82236   4
   0   0   5 0.46711 0.64231   1
   0   0  -5 0.78237 0.84174   5
  -2   0  -5 2.48289 1.89932  15
   2   0   5 -0.6635 1.28397   7
  -2   0  -5 -0.3811 0.86080  12
   2   0   5 8.68110 2.30091   4
  -2   0  -5 4.56711 2.19394  11
  -2   0  -5 -0.7716 1.37480   5
   2   0   5 0.58019 1.32431  13
   4   0   5 4.31830 1.75823  13
  -4   0  -5 -0.2229 1.49104  12
  -4   0  -5 3.20150 2.34529   5
  -4   0  -5 2.15567 2.38002  11
   4   0   5 0.20724 1.68857   4
  -4   0  -5 0.30032 1.80413  15
   4   0   5 2.30300 1.56896   7
  -6   0  -5 3.03264 3.06788  11
  -6   0  -5 -3.6641 2.86326   5
   6   0   5 -2.7440 3.00304   4
   8   0   5 2.16786 3.75040   4
  -8   0  -5 0.77162 3.61941   5
  11  -1  -5 14.3989 6.38216   3
  11  -1  -5 7.90493 3.34070  14
 -11  -1   5 14.2949 5.05080  12
 -11  -1   5 12.6446 3.64667  16
 -11  -1   5 22.1852 6.39765   1
 -11   1   5 9.69034 4.74488  12
  11   1  -5 10.9736 6.03441   3
 -11   1   5 11.8170 5.68603   1
  11   1  -5 13.3388 4.34927  14
 -11   1   5 9.91727 3.66411  16
   9  -1  -5 52.8194 6.11927  14
  -9  -1   5 61.5429 7.25837   1
  -9  -1   5 61.0839 5.79215  16
   9  -1  -5 58.0753 8.87753   3
  -9  -1   5 68.3321 6.76253  12
   9   1  -5 63.8492 5.88077  10
  -9   1   5 60.9732 5.65793  16
   9   1  -5 68.5720 8.74176   3
  -9   1   5 62.7824 7.63314   1
  -9   1   5 63.4761 6.87819  12
   9   1  -5 75.8118 6.50545  14
  -7  -1   5 457.977 17.6113  12
  -7  -1   5 456.681 18.9634   1
   7  -1  -5 446.056 16.4684   9
   7  -1  -5 477.904 17.9978  14
  -7  -1   5 463.985 16.9812  16
   7  -1  -5 472.490 22.3587   3
  -7   1   5 459.549 17.7104  12
   7   1  -5 481.650 18.7532  10
  -7   1   5 463.623 16.9725  16
   7   1  -5 480.850 17.5571  14
  -7   1   5 467.018 19.1201   1
   7   1  -5 492.759 22.9402   3
  -5  -1   5 1534.91 47.9899  12
   5  -1  -5 1566.87 48.4659  14
   5  -1  -5 1550.72 53.5535   3
  -5  -1   5 1589.96 47.9646  16
   5  -1  -5 1455.63 48.2950   9
  -5  -1   5 1604.56 49.6753   1
  -5   1   5 1591.10 49.4096   1
   5   1  -5 1515.76 50.1047  10
  -5   1   5 1634.36 47.9090  16
   5   1  -5 1469.54 47.8459   9
  -5   1   5 1621.27 46.9830  15
   5   1  -5 1513.85 48.5366   2
  -5   1   5 1614.85 48.0605  12
   5   1  -5 1557.74 53.2189   3
   5   1  -5 1568.18 47.8551  14
  -3  -1   5 231.927 9.07934  13
  -3  -1   5 278.792 9.69257  15
  -3  -1   5 233.266 9.47805   1
   3  -1  -5 237.412 8.92342  14
   3  -1  -5 240.560 11.6884   3
  -3  -1   5 238.478 8.20828  12
   3  -1  -5 254.059 9.91064   9
   3  -1  -5 234.651 8.61511  11
   3  -1  -5 234.391 8.27543   6
  -3  -1   5 239.893 8.62550  16
  -3   1   5 233.492 8.35025  16
   3   1  -5 248.861 10.2927   2
   3   1  -5 243.677 10.4379  10
  -3   1   5 244.373 9.47417  15
   3   1  -5 242.587 11.3438   3
   3   1  -5 245.268 8.97916  15
   3   1  -5 239.002 8.54986  11
  -3   1   5 254.740 9.28505  13
  -3   1   5 229.416 9.06722   1
   3   1  -5 237.860 8.37759  14
   1  -1  -5 219.470 7.86666   5
  -1  -1   5 221.755 8.43901  13
  -1  -1   5 215.207 7.64999  16
   1  -1  -5 220.072 9.57871   3
   1  -1  -5 216.920 7.43512   6
  -1  -1   5 201.635 8.17134   1
   1  -1  -5 242.486 9.07437  11
  -1  -1   5 226.676 8.50906   4
   1   1  -5 224.116 8.61877   3
   1   1  -5 244.684 10.4024  15
  -1   1   5 207.564 7.55943   1
  -1   1   5 223.224 8.22603  13
  -1   1   5 221.922 8.75101   4
   1   1  -5 246.096 10.2014   2
  -1   1   5 212.874 7.17500  16
   1   1  -5 224.915 8.96170  11
   1   1  -5 222.111 7.83449   5
   1  -1   5 58.3869 3.63852   7
  -1  -1  -5 67.4035 6.00871  15
  -1  -1  -5 65.2066 4.12001   5
   1  -1   5 65.9705 4.35422   4
   1  -1   5 61.6139 4.01615  13
  -1  -1  -5 63.5886 4.70174  11
  -1   1  -5 65.5140 4.92792  11
   1   1   5 59.6224 4.21082   7
   1   1   5 62.3659 3.75015  13
   1   1   5 64.1432 4.18291   4
  -1   1  -5 70.5362 5.04967   2
  -1   1  -5 70.9715 6.32632  15
  -1   1  -5 73.4848 4.24181   5
  -3  -1  -5 412.019 16.1619   5
   3  -1   5 392.211 14.5892   7
   3  -1   5 412.702 15.5321   4
  -3  -1  -5 392.070 19.0640  15
  -3  -1  -5 390.826 14.5390  12
   3  -1   5 413.411 15.2690  13
  -3  -1  -5 410.049 16.5026  11
   3   1   5 389.101 14.6874  13
   3   1   5 398.648 15.4517   7
  -3   1  -5 358.526 14.6655  12
  -3   1  -5 409.215 19.6574  15
   3   1   5 405.649 15.7846   4
  -3   1  -5 429.356 16.3596   2
  -3   1  -5 425.314 17.1323  11
  -3   1  -5 419.049 16.2994   5
   5  -1   5 339.454 14.6251   4
  -5  -1  -5 347.130 15.9287  11
  -5  -1  -5 334.334 15.7406   5
  -5   1  -5 355.873 16.2267  11
  -5   1  -5 310.031 14.2221  12
   5   1   5 304.918 14.2602   4
  -5   1  -5 360.323 15.9703   5
   5   1   5 322.286 13.8177   7
  -7  -1  -5 171.347 11.2705  11
  -7  -1  -5 148.953 10.8779   5
   7  -1   5 158.282 10.3565   4
  -7   1  -5 165.340 11.1902  11
   7   1   5 151.680 9.86342   4
  -7   1  -5 165.940 11.7894   5
 -12  -2   5 266.294 15.9468  12
  12  -2  -5 255.081 19.6691   3
 -12  -2   5 258.162 16.7442   1
  12  -2  -5 266.693 15.2328  14
 -12   2   5 260.347 15.9474  12
  12   2  -5 260.753 14.3086  14
  12   2  -5 266.419 19.6251   3
 -12   2   5 245.836 16.5431   1
 -10  -2   5 754.680 28.6530  16
  10  -2  -5 800.402 36.9410   3
 -10  -2   5 757.509 32.2664   1
 -10  -2   5 794.406 30.6561  12
  10  -2  -5 823.493 30.7861  14
 -10   2   5 784.930 28.9030  16
  10   2  -5 808.563 29.4820  14
 -10   2   5 770.072 32.5378   1
 -10   2   5 829.503 31.0047  12
  10   2  -5 803.799 37.0412   3
  -8  -2   5 480.317 20.7742   1
  -8  -2   5 504.966 19.7091  12
   8  -2  -5 490.841 18.1206   9
   8  -2  -5 517.052 25.2840   3
   8  -2  -5 502.178 19.9267  14
   8  -2  -5 489.060 19.6809   8
  -8  -2   5 506.983 18.6305  16
  -8   2   5 478.828 18.3477  16
   8   2  -5 481.693 19.8384  10
   8   2  -5 490.040 18.7771  14
  -8   2   5 499.974 19.5482  12
  -6  -2   5 832.857 27.4696  12
   6  -2  -5 817.892 28.0933   8
   6  -2  -5 783.621 27.1306   9
  -6  -2   5 820.408 26.9656  16
   6  -2  -5 841.373 33.2744   3
  -6  -2   5 820.927 28.7757   1
   6  -2  -5 826.996 27.9007  14
  -6   2   5 852.511 27.4897  12
   6   2  -5 825.974 29.2798  10
  -6   2   5 799.967 26.1373   5
   6   2  -5 846.356 26.9076  14
  -6   2   5 837.641 26.7450  15
   6   2  -5 774.863 26.9408   2
  -6   2   5 813.531 26.6997  16
  -4  -2   5 2160.82 62.7978  16
  -4  -2   5 2122.56 64.1992   1
  -4  -2   5 2093.15 63.2436  13
   4  -2  -5 2055.39 63.9405   9
  -4  -2   5 2086.83 62.7003  12
   4  -2  -5 2077.11 68.0988   3
   4  -2  -5 2117.06 63.3198  14
   4  -2  -5 2099.32 63.9344   8
   4  -2  -5 2026.10 62.4838   6
   4   2  -5 1986.70 65.0824  10
  -4   2   5 2145.41 62.4243  16
  -4   2   5 2105.48 63.5970   1
   4   2  -5 2086.10 61.6800  15
   4   2  -5 1921.58 64.1627   2
   4   2  -5 2022.40 62.0062  14
   4   2  -5 2025.63 61.7953  11
  -4   2   5 2123.16 62.4110  12
  -2  -2   5 1230.05 38.9974   4
   2  -2  -5 1222.28 38.3594   6
   2  -2  -5 1285.70 39.3018  14
   2  -2  -5 1226.62 39.3031  11
  -2  -2   5 1230.60 39.1728  13
   2  -2  -5 1268.64 40.4030   9
  -2  -2   5 1209.95 39.4780   1
  -2  -2   5 1275.46 38.6300  16
   2  -2  -5 1240.94 42.0086   3
   2   2  -5 1290.79 40.7949   3
   2   2  -5 1264.65 40.6997  10
   2   2  -5 1287.08 41.3423   2
  -2   2   5 1257.03 39.4962   4
   2   2  -5 1270.23 39.5033  11
  -2   2   5 1258.21 38.9159  13
  -2   2   5 1228.57 38.4004   1
  -2   2   5 1270.60 37.8740  16
   2   2  -5 1327.35 40.7883  15
   2   2  -5 1401.15 38.7772   5
   0  -2  -5 1732.57 54.0967   5
   0  -2   5 1772.76 54.2549  13
   0  -2   5 1745.41 54.2645   1
   0  -2  -5 1770.84 55.1190  11
   0  -2   5 1753.22 54.1754   4
   0   2  -5 1847.83 58.0105  15
   0   2   5 1767.77 54.5882   4
   0   2  -5 1748.81 54.2948   5
   0   2   5 1752.10 54.8851   7
   0   2  -5 1860.49 56.7315   2
   0   2   5 1737.28 53.5820  13
   0   2  -5 1771.31 55.5593  11
  -2  -2  -5 1391.37 45.3336  11
   2  -2   5 1383.53 44.2219   4
  -2  -2  -5 1409.37 44.7488   5
   2  -2   5 1346.59 43.9815  13
   2   2   5 1393.25 43.3511  13
  -2   2  -5 1495.81 46.0612   2
  -2   2  -5 1414.25 49.1829  15
   2   2   5 1389.25 44.8032   7
  -2   2  -5 1404.70 45.9829  11
   2   2   5 1376.81 44.4824   4
  -2   2  -5 1381.86 45.0781   5
  -4  -2  -5 323.005 14.5479  11
  -4  -2  -5 319.666 14.3641   5
   4  -2   5 301.473 13.1408   4
   4  -2   5 309.992 13.1985  13
  -4   2  -5 296.678 13.0213  12
  -4   2  -5 311.993 17.5279  15
  -4   2  -5 327.492 15.1188  11
   4   2   5 306.043 13.3313   7
  -4   2  -5 317.373 14.6032   5
   4   2   5 313.075 13.7195   4
   6  -2   5 381.246 16.6494   4
  -6  -2  -5 390.313 17.8660  11
  -6  -2  -5 394.156 18.3555   5
  -6   2  -5 351.736 16.2402  12
   6   2   5 380.792 16.4406   7
   6   2   5 356.308 16.1744   4
  -6   2  -5 385.704 18.0266  11
  -6   2  -5 361.619 17.8632   5
   8  -2   5 311.450 14.6707   4
  -8  -2  -5 296.966 17.1974   5
  -8   2  -5 290.071 16.5334   5
   8   2   5 289.423 14.7166   4
  11  -3  -5 195.907 15.9767   3
 -11  -3   5 203.650 13.3684  12
 -11  -3   5 176.993 13.8777   1
 -11  -3   5 189.703 10.9945  16
  11  -3  -5 189.472 12.5217  14
 -11   3   5 195.784 13.0130  12
  11   3  -5 176.963 11.1778  14
 -11   3   5 179.516 11.1219  16
 -11   3   5 205.525 14.2691   1
  11   3  -5 186.961 16.1728   3
  -9  -3   5 91.2737 6.37223  16
  -9  -3   5 87.0719 8.85279   1
  -9  -3   5 97.3498 8.08632  12
   9  -3  -5 103.119 11.2045   3
   9  -3  -5 86.1711 7.58079   8
   9  -3  -5 89.3208 7.93533  14
   9   3  -5 92.1652 6.44193  14
  -9   3   5 85.4900 7.67190  12
   9   3  -5 87.8823 7.21642  10
  -9   3   5 81.8868 6.54126  16
  -7  -3   5 215.664 11.1516   1
   7  -3  -5 219.013 11.0150   8
  -7  -3   5 223.211 9.72616  16
   7  -3  -5 228.231 14.8838   3
  -7  -3   5 198.910 9.97632  12
   7  -3  -5 209.985 9.94847   9
   7  -3  -5 221.692 10.9812  14
  -7   3   5 227.693 9.67904   5
   7   3  -5 217.026 9.57752  14
   7   3  -5 207.032 11.3384  10
  -7   3   5 224.209 9.56629  16
  -7   3   5 234.281 10.6740  12
  -5  -3   5 8.37427 1.72764  13
   5  -3  -5 12.1723 3.81200   3
  -5  -3   5 13.3532 2.63262   1
   5  -3  -5 10.2600 2.24031  14
  -5  -3   5 8.64428 1.92235  16
   5  -3  -5 12.0159 2.51533   8
   5  -3  -5 15.0656 2.61542   9
  -5  -3   5 7.51126 1.88560  12
   5  -3  -5 11.1416 1.98406   6
  -5   3   5 19.0164 2.44915  15
  -5   3   5 8.70898 1.56565  16
   5   3  -5 12.1489 1.58388  14
   5   3  -5 14.1036 3.07741  10
   5   3  -5 14.4976 2.84048   2
  -3  -3   5 11.3538 2.08501   1
   3  -3  -5 12.9970 2.04654  14
   3  -3  -5 14.5755 2.23378   8
  -3  -3   5 11.5888 1.71877  13
  -3  -3   5 11.7686 1.72511  16
  -3  -3   5 12.4255 1.71211  12
   3  -3  -5 12.1402 1.57272   6
   3  -3  -5 14.8626 3.26050   3
   3  -3  -5 12.1184 2.18794   9
  -3   3   5 13.7948 1.80446  13
   3   3  -5 19.3222 2.39081  11
   3   3  -5 16.4111 2.91228  10
   3   3  -5 13.8061 2.88517   2
   3   3  -5 12.8320 2.23747  15
   1  -3  -5 80.5396 5.75342   3
   1  -3  -5 68.3856 3.70367   5
  -1  -3   5 64.1664 3.44586  16
   1  -3  -5 70.1779 4.91145   9
   1  -3  -5 67.4854 3.49290   6
  -1  -3   5 68.0256 3.91546  13
  -1  -3   5 66.4717 4.13233   1
  -1  -3   5 64.1420 3.63335   4
   1   3  -5 72.6820 4.71882  10
   1   3  -5 80.8463 6.37798  15
   1   3  -5 66.8045 3.90814   5
  -1   3   5 63.7430 3.35812  13
   1   3  -5 77.0370 5.02392  11
  -1   3   5 60.9326 4.10707   4
   1   3  -5 78.4238 6.40437   2
   1   3  -5 70.6728 3.86625   3
  -1  -3  -5 585.111 20.1529   9
  -1  -3  -5 554.087 19.9230  11
   1  -3   5 535.258 18.6083   4
  -1  -3  -5 553.555 19.2166   5
   1  -3   5 539.749 18.8889  13
   1   3   5 524.633 17.6952  13
  -1   3  -5 555.222 20.9365   2
  -1   3  -5 559.011 23.1364  15
  -1   3  -5 531.895 19.4083   5
  -1   3  -5 536.532 20.3635  11
   1   3   5 539.115 19.1148   4
   1   3   5 523.354 19.5551   7
  -3  -3  -5 10.9611 3.05616  11
  -3  -3  -5 14.4353 2.78483   5
   3  -3   5 13.5218 2.57050  13
  -3  -3  -5 16.4651 3.00198   9
   3  -3   5 14.0979 2.59720   4
  -3   3  -5 16.1307 3.77385  11
  -3   3  -5 11.2677 4.14511  15
   3   3   5 15.4147 2.49077  13
   3   3   5 15.8513 3.22809  10
  -3   3  -5 17.6423 3.69752   5
   3   3   5 17.0783 3.29653   4
   3   3   5 22.8282 3.73305   7
  -3   3  -5 14.8406 2.90033   2
  -5  -3  -5 122.877 8.76636  11
  -5  -3  -5 130.412 9.03840   5
   5  -3   5 110.975 7.55867   4
   5   3   5 103.000 8.04947   7
  -5   3  -5 118.422 8.57756  11
  -5   3  -5 115.817 8.40744   5
  -5   3  -5 100.074 7.38866  12
   5   3   5 113.774 7.65783   4
   7  -3   5 34.0001 5.33293   4
  -7  -3  -5 23.5911 5.77769   5
   7  -3   5 28.2880 4.66795  14
   7   3   5 34.4943 5.65646   7
  -7   3  -5 36.5243 5.64825  11
   7   3   5 42.9888 6.09457   4
  -7   3  -5 38.3892 6.38091   5
 -12  -4   5 175.462 13.3570  12
 -12  -4   5 180.266 13.4174   1
  12  -4  -5 196.690 13.2717  14
  12   4  -5 164.205 12.0014  14
 -12   4   5 171.850 12.2131  12
 -12   4   5 191.868 15.1661   1
  12   4  -5 196.669 17.7083   3
  10  -4  -5 95.4075 8.90168   8
  10  -4  -5 94.2119 8.32517  14
 -10  -4   5 86.8101 9.52874   1
 -10  -4   5 97.0360 6.90276  16
 -10  -4   5 79.8778 8.61575  12
  10  -4  -5 86.7102 11.2812   3
 -10   4   5 96.8783 8.89317  12
  10   4  -5 83.3005 8.19109  10
 -10   4   5 85.1312 7.28907  16
  10   4  -5 94.2112 7.26012  14
   8  -4  -5 532.396 21.3791  14
   8  -4  -5 523.989 20.1893   9
  -8  -4   5 507.955 19.3602  16
   8  -4  -5 533.826 26.5515   3
  -8  -4   5 474.146 18.9164  13
  -8  -4   5 499.818 21.8787   1
   8  -4  -5 529.235 21.5100   8
  -8  -4   5 515.993 20.7569  12
   8   4  -5 540.325 22.2541  10
  -8   4   5 501.683 19.0892  16
  -8   4   5 535.003 20.7787  12
   8   4  -5 528.327 19.2609  14
   8   4  -5 538.136 20.7343   7
  -8   4   5 522.793 19.4513   5
  -6  -4   5 185.978 8.56433  16
   6  -4  -5 208.840 13.8490   3
   6  -4  -5 181.869 9.49277  14
  -6  -4   5 201.131 9.32977  12
   6  -4  -5 210.508 10.3529   8
  -6  -4   5 182.571 8.34488  13
  -6  -4   5 180.731 9.83119   1
   6  -4  -5 189.093 9.44784   9
   6  -4  -5 173.878 8.40399   6
  -6   4   5 188.719 8.36856  16
  -6   4   5 196.608 9.48022  15
   6   4  -5 192.961 9.69496   2
   6   4  -5 199.673 8.03368  14
   6   4  -5 209.575 11.2694  10
   4  -4  -5 11.6278 2.41370   8
  -4  -4   5 10.7829 2.01346  12
   4  -4  -5 21.1105 2.31097   6
  -4  -4   5 12.2259 2.43647   1
   4  -4  -5 10.2241 2.20890   9
   4  -4  -5 13.8091 2.42370  14
   4  -4  -5 17.8792 4.08366   3
  -4  -4   5 11.0548 1.74609  16
  -4  -4   5 11.7051 1.98608  13
   4   4  -5 10.8067 3.02682  10
   4   4  -5 13.9034 2.38379  11
   4   4  -5 11.0995 2.08159  15
  -4   4   5 9.98599 1.53593  16
  -2  -4   5 1652.40 50.8564   4
   2  -4  -5 1635.26 51.1749   6
  -2  -4   5 1673.48 52.5316   1
  -2  -4   5 1637.97 51.5097  13
  -2  -4   5 1704.33 51.2439  16
   2  -4  -5 1658.26 51.9355   8
   2  -4  -5 1660.48 56.0442   3
   2  -4  -5 1709.75 53.0937   9
   2   4  -5 1687.24 53.4901  10
  -2   4   5 1667.35 49.8171  16
  -2   4   5 1695.61 51.8811   4
   2   4  -5 1639.54 52.8598  11
   2   4  -5 1712.12 54.9617  15
  -2   4   5 1662.28 50.8432  13
   2   4  -5 1779.45 55.7968   2
   0  -4  -5 784.794 26.0696   5
   0  -4  -5 836.038 27.4578   9
   0  -4   5 805.479 25.4759   4
   0  -4  -5 773.853 25.5400   6
   0  -4   5 818.969 26.1938  13
   0  -4   5 773.557 26.5250   1
   0   4  -5 885.486 29.5334   2
   0   4  -5 823.458 28.1946  11
   0   4   5 765.907 26.0593   4
   0   4   5 793.300 27.1455   7
   0   4  -5 814.385 30.3300  15
   0   4  -5 739.717 26.2367   5
   0   4  -5 763.247 26.0355  10
   0   4   5 741.331 24.5130  13
  -2  -4  -5 79.8192 5.47770   5
   2  -4   5 80.6164 5.15474   4
  -2  -4  -5 96.3756 6.13875   9
   2  -4   5 81.6706 5.30633  13
   2   4   5 84.5073 5.93613   7
  -2   4  -5 80.1977 7.79596  15
  -2   4  -5 80.4271 6.08322   5
  -2   4  -5 79.9248 6.50143  11
  -2   4  -5 89.7729 6.81376   2
   2   4   5 73.7125 5.13139   4
   4  -4   5 393.400 15.4604   4
  -4  -4  -5 383.570 16.6224   5
   4  -4   5 384.138 15.6868  13
   4  -4   5 378.290 15.9561   8
   4   4   5 384.691 16.6347   7
  -4   4  -5 375.940 16.9182   5
  -4   4  -5 385.625 17.4420  11
   4   4   5 371.780 15.6904   4
  -4   4  -5 352.329 20.2840  15
   4   4   5 375.971 16.6924  10
  -6  -4  -5 92.4752 8.08337   5
   6  -4   5 88.2442 7.37647   4
  -6   4  -5 75.6958 8.31889   5
   6   4   5 79.2901 7.67318   7
  -6   4  -5 77.9450 8.12862  11
   6   4   5 91.4393 7.98953   4
  -6   4  -5 78.1922 6.97991  12
 -11  -5   5 130.811 11.8908   1
  11  -5  -5 132.353 13.9559   3
  11  -5  -5 147.769 10.7481  14
 -11  -5   5 155.106 12.0553  12
  11  -5  -5 146.027 11.3891   8
 -11   5   5 134.362 10.8874  12
   9  -5  -5 269.524 14.7848   8
   9  -5  -5 283.122 18.6048   3
   9  -5  -5 255.044 14.3267  14
  -9  -5   5 268.897 14.2714  12
  -9  -5   5 268.896 14.7314   1
  -9  -5   5 248.185 12.2708  16
  -9   5   5 261.753 12.3857  16
  -9   5   5 261.858 13.9223  12
   9   5  -5 275.554 15.2901  10
   9   5  -5 265.222 13.6546   7
   7  -5  -5 422.378 16.1541   6
  -7  -5   5 391.769 17.9457   1
  -7  -5   5 426.825 17.2968  12
  -7  -5   5 421.741 15.8792  16
   7  -5  -5 391.976 17.5059  14
  -7  -5   5 395.067 15.5468  13
   7  -5  -5 429.894 22.6289   3
   7  -5  -5 441.784 17.6684   9
   7  -5  -5 410.425 18.1296   8
   7   5  -5 428.289 19.6609  10
  -7   5   5 438.261 16.4903   5
   7   5  -5 425.178 16.8736   7
   5  -5  -5 17.9734 3.02807   9
  -5  -5   5 19.9909 3.07489  12
   5  -5  -5 16.9495 3.05263  14
   5  -5  -5 16.5212 2.63926   6
  -5  -5   5 16.5519 2.42235  13
  -5  -5   5 23.5759 3.79875   1
   5  -5  -5 20.4510 4.86909   3
   5  -5  -5 14.9911 2.86464   8
  -5  -5   5 18.2272 2.42003  16
   5   5  -5 21.1082 4.29164  10
   5   5  -5 19.1575 4.34216   2
  -5   5   5 28.2131 3.86145  15
  -3  -5   5 287.737 11.1609  16
   3  -5  -5 316.683 13.1128   9
  -3  -5   5 294.571 11.6639  12
  -3  -5   5 281.238 12.4693   1
  -3  -5   5 293.349 11.3334  13
   3  -5  -5 310.901 12.3520  14
   3  -5  -5 304.723 16.0429   3
  -3  -5   5 271.100 10.3718   4
   3  -5  -5 298.220 12.3156   8
   3  -5  -5 300.431 11.4284   6
  -3   5   5 297.497 10.9827  13
   3   5  -5 338.159 16.0627   2
   3   5  -5 351.920 14.6201  10
   3   5  -5 305.029 12.6709  11
  -3   5   5 303.593 10.3255  16
   3   5  -5 356.659 14.4726  15
  -1  -5   5 1845.66 57.7580  13
   1  -5  -5 1921.14 59.4620   9
  -1  -5   5 1894.33 58.8065   1
   1  -5  -5 1824.22 57.4916   6
  -1  -5   5 1867.76 56.7186   4
  -1  -5   5 1872.09 57.3647  16
   1   5  -5 1862.91 62.3477  15
   1   5  -5 1992.69 62.6567   2
  -1   5   5 1815.67 57.7304   4
   1   5  -5 1860.97 59.9372  11
  -1   5   5 1913.05 59.2140   7
   1   5  -5 1854.91 58.9712  10
  -1  -5  -5 214.391 9.81306   5
   1  -5   5 208.858 8.63002   4
  -1  -5  -5 230.280 10.3511   9
   1  -5   5 202.886 9.39060  13
  -1  -5  -5 213.389 9.18848   6
  -1   5  -5 222.840 11.6949   2
  -1   5  -5 218.233 13.4326  15
   1   5   5 217.525 9.54428   4
  -1   5  -5 188.151 9.59716   5
  -1   5  -5 212.628 11.1112  11
   1   5   5 197.871 10.0648   7
   3  -5   5 163.938 8.90881  13
  -3  -5  -5 160.880 9.06918   5
   3  -5   5 160.067 9.42633   8
   3  -5   5 168.953 7.98238   4
   3   5   5 168.889 9.89299   7
   3   5   5 162.520 10.1858  10
  -3   5  -5 149.719 9.49879   5
  -3   5  -5 157.927 10.3226  11
  -3   5  -5 153.499 11.6846  15
  -3   5  -5 156.541 9.20377   2
   3   5   5 160.544 8.47386   4
   5  -5   5 179.346 9.55076   4
   5  -5   5 156.459 9.80217   8
  -5  -5  -5 182.260 11.3378   5
   5   5   5 176.580 11.0997   7
  -5   5  -5 164.333 11.0531   5
   5   5   5 166.428 10.2045   4
  -5   5  -5 162.527 10.6106  11
  -7  -5  -5 3.47927 4.09218   5
  -7   5  -5 6.14937 3.43827  12
   7   5   5 4.26027 3.26269   7
  -7   5  -5 9.08742 3.85842  11
  -7   5  -5 4.75107 3.81772   5
   7   5   5 9.75105 4.01092   4
  10  -6  -5 4.19946 3.76924  14
 -10  -6   5 2.49050 2.49032  16
  10  -6  -5 1.14879 4.78265   3
 -10  -6   5 4.42103 4.29567  12
 -10  -6   5 4.17221 3.04893   1
  10  -6  -5 7.08850 4.14383   8
 -10   6   5 4.53011 2.95625  16
 -10   6   5 4.90113 4.23434  12
  10   6  -5 4.57179 3.07453  10
   8  -6  -5 399.745 23.0167   3
  -8  -6   5 374.253 15.4710  16
   8  -6  -5 402.358 17.7745   9
   8  -6  -5 421.236 19.0994   8
  -8  -6   5 392.671 17.8620  12
   8  -6  -5 402.977 18.4007  14
  -8  -6   5 364.190 17.9569   1
   8   6  -5 404.308 17.3164   7
   8   6  -5 406.153 19.8965  10
  -8   6   5 406.682 16.7743   5
   6  -6  -5 572.815 20.6549   6
   6  -6  -5 596.263 22.5561   9
   6  -6  -5 601.677 28.1673   3
  -6  -6   5 569.262 20.2840  16
  -6  -6   5 557.082 21.4159  12
   6  -6  -5 576.131 22.9198   8
   6  -6  -5 553.640 22.1613  14
  -6  -6   5 532.084 19.6733  13
  -6  -6   5 546.496 22.3017   1
  -6   6   5 586.043 23.1201  15
   6   6  -5 628.767 25.2593  10
   6   6  -5 593.358 23.7255   2
   6   6  -5 575.357 20.9039   7
   4  -6  -5 88.2621 6.25325   8
   4  -6  -5 86.0837 5.80231  14
  -4  -6   5 78.5715 5.46168  12
  -4  -6   5 83.1315 4.84554  16
   4  -6  -5 75.8363 5.74761   9
   4  -6  -5 85.5021 5.18290   6
   4  -6  -5 76.3973 8.82264   3
  -4  -6   5 74.4979 5.70266   1
  -4  -6   5 81.3606 4.72208  13
   4   6  -5 82.8578 7.42330  10
   4   6  -5 80.4347 6.33894  15
   4   6  -5 80.5146 5.61934  11
   4   6  -5 78.8130 8.65326   2
  -2  -6   5 421.638 15.4153  13
   2  -6  -5 423.110 15.5398   6
   2  -6  -5 434.605 20.7490   3
  -2  -6   5 419.398 15.3297  16
   2  -6  -5 445.868 17.3486   9
   2  -6  -5 410.743 15.8559   8
  -2  -6   5 420.783 16.8097   1
   2   6  -5 438.753 17.3015  11
  -2   6   5 453.175 16.9995   7
   2   6  -5 465.491 20.7906   2
   2   6  -5 457.751 18.0388  10
   2   6  -5 443.866 19.3821  15
  -2   6   5 404.062 15.4130   4
   0  -6  -5 63.7158 4.61576   6
   0  -6  -5 68.5252 5.25121   9
   0  -6   5 73.7074 5.02998  13
   0  -6   5 65.9416 5.56195   1
   0   6  -5 66.0743 8.01882   2
   0   6  -5 71.3791 7.21472  11
   0   6   5 60.9681 4.29346   4
   0   6  -5 65.6692 4.75472  10
   0   6   5 60.1017 5.17312   7
   0   6  -5 73.7987 8.15800  15
   2  -6   5 16.5242 3.34950  13
  -2  -6  -5 22.0252 3.32659   6
  -2  -6  -5 19.2327 3.54790   5
  -2  -6  -5 23.7307 3.68878   9
  -2   6  -5 28.5642 5.22736   2
  -2   6  -5 21.3777 5.41124  15
  -2   6  -5 20.6401 4.94925  11
   2   6   5 21.4103 3.55386   4
   2   6   5 25.5392 5.15282  10
   2   6   5 25.3340 4.02968   7
  -2   6  -5 27.2792 3.79953   5
   4  -6   5 551.179 22.3435   8
  -4  -6  -5 555.225 22.5031   5
   4   6   5 532.787 22.3998   7
   4   6   5 558.111 23.5909  10
  -4   6  -5 549.254 22.6311  11
   4   6   5 545.758 20.8929   4
  -4   6  -5 517.343 21.7284   5
  -6  -6  -5 121.581 10.1875   5
   6  -6   5 100.567 8.57808   8
  -6   6  -5 122.344 9.94370   5
   6   6   5 114.425 9.02118   7
   6   6   5 114.210 8.83156   4
  -6   6  -5 109.039 9.50020  11
  11  -7  -5 195.128 13.3580  14
 -11  -7   5 178.611 12.5867  12
  11  -7  -5 192.074 13.8219   8
 -11   7   5 172.815 11.8656  12
  11   7  -5 199.467 13.4680  10
   9  -7  -5 118.206 9.33832  14
   9  -7  -5 142.598 11.1245   8
  -9  -7   5 114.035 9.90210   1
  -9  -7   5 129.732 8.03310  16
  -9  -7   5 119.156 9.80595  12
   9  -7  -5 124.015 13.2502   3
   9   7  -5 124.832 9.45283   7
   9   7  -5 115.038 11.1147  10
  -9   7   5 130.766 9.81900  12
   7  -7  -5 21.4633 4.40721  14
   7  -7  -5 18.6098 4.04980   8
   7  -7  -5 17.1215 3.77909   9
  -7  -7   5 22.7060 3.43837  16
  -7  -7   5 20.4873 4.19421  12
   7  -7  -5 18.9783 3.68784   6
   7  -7  -5 15.7610 5.94917   3
  -7  -7   5 15.2903 3.75287   1
   7   7  -5 27.0302 6.46004  10
   7   7  -5 19.8367 4.67290   2
   7   7  -5 22.1117 4.13452   7
   5  -7  -5 78.0956 6.72177   9
  -5  -7   5 64.3869 5.66676  12
  -5  -7   5 67.1837 5.07613  16
   5  -7  -5 60.9215 5.25099   6
   5  -7  -5 71.0622 6.59749   8
  -5  -7   5 58.6638 5.66409   1
   5  -7  -5 71.9025 9.32499   3
   5  -7  -5 76.2108 6.16466  14
  -5   7   5 65.9931 6.81712  15
   5   7  -5 75.7040 7.72409  10
   5   7  -5 63.6518 7.71800   2
   3  -7  -5 70.2457 5.36978   8
   3  -7  -5 83.3310 5.41564   6
  -3  -7   5 77.1373 4.76306  16
   3  -7  -5 73.7059 6.29578   9
  -3  -7   5 72.0974 5.69101   1
  -3  -7   5 77.2048 4.70359  13
   3  -7  -5 73.9072 8.84031   3
  -3   7   5 83.0875 6.01844   7
   3   7  -5 78.0711 7.22058  15
   3   7  -5 78.9438 7.91922  10
   3   7  -5 91.3667 10.0293   2
  -3   7   5 79.8665 4.85923   4
   3   7  -5 81.4598 6.55428  11
  -1  -7   5 40.9878 4.00312  13
   1  -7  -5 39.4889 4.14129   6
   1  -7  -5 43.0186 5.11155   9
  -1  -7   5 41.4744 4.68225   1
  -1   7   5 45.0214 5.13042   7
  -1   7   5 41.3853 3.64736   4
   1   7  -5 42.9794 6.44907  15
   1   7  -5 52.7183 5.36514  10
   1   7  -5 42.8770 7.35902   2
   1   7  -5 49.8511 6.23225  11
  -1  -7  -5 514.250 19.5453   9
  -1  -7  -5 496.205 18.6076   6
   1  -7   5 479.312 18.4610  13
  -1   7  -5 514.985 22.3359   2
   1   7   5 472.593 17.9618   4
  -1   7  -5 485.784 23.7316  15
   1   7   5 485.506 20.1493   7
   1   7   5 478.433 22.3393  10
  -1   7  -5 527.078 21.6737  11
  -3  -7  -5 40.0908 5.55280   5
   3  -7   5 42.8569 5.98720   8
  -3  -7  -5 36.4585 4.73693   6
   3  -7   5 44.2044 4.95376  13
  -3   7  -5 43.1502 6.74286  11
   3   7   5 41.8866 4.77710   4
  -3   7  -5 42.6660 6.09803   2
  -3   7  -5 42.0039 5.71962   5
   3   7   5 48.5166 6.45484   7
   3   7   5 46.3550 6.60546  10
  -5  -7  -5 22.6184 5.08596   5
   5  -7   5 15.9213 4.44658   8
   5   7   5 21.7908 5.58211   7
  -5   7  -5 16.4534 4.84263   5
   5   7   5 22.8702 4.37100   4
  -5   7  -5 16.4342 5.22549  11
  10  -8  -5 222.066 13.9165  14
 -10  -8   5 233.946 14.8336   1
  10  -8  -5 270.570 19.7207   3
  10  -8  -5 251.015 15.7728   8
 -10  -8   5 218.746 14.5287  12
  10   8  -5 239.928 16.0219  10
 -10   8   5 247.084 14.4992  12
   8  -8  -5 265.236 19.3123   3
  -8  -8   5 250.093 13.2812  12
   8  -8  -5 235.998 12.3842   6
  -8  -8   5 234.767 14.1406   1
   8  -8  -5 260.057 15.3065   8
   8  -8  -5 231.779 13.7211  14
  -8  -8   5 256.992 11.9470  16
   8   8  -5 273.395 17.1972  10
   8   8  -5 245.173 12.4975   7
   6  -8  -5 807.073 31.1428  14
   6  -8  -5 847.469 31.8358   9
   6  -8  -5 875.031 38.5711   3
  -6  -8   5 831.884 28.8217  16
   6  -8  -5 851.220 29.3972   6
  -6  -8   5 863.016 30.9798  12
   6  -8  -5 855.056 32.5883   8
  -6  -8   5 837.552 31.2030   1
   6   8  -5 856.164 33.9868   2
  -6   8   5 844.742 33.6673  15
   6   8  -5 853.969 34.4529  10
  -4  -8   5 1307.23 42.5548  16
   4  -8  -5 1359.26 45.3766   8
  -4  -8   5 1328.86 44.0859  12
   4  -8  -5 1321.92 44.4632  14
  -4  -8   5 1335.72 44.8468   1
   4  -8  -5 1322.19 43.0186   6
   4  -8  -5 1309.21 51.7024   3
   4  -8  -5 1298.40 45.2173   9
   4   8  -5 1378.46 47.7227  10
   4   8  -5 1277.59 44.2350  11
   4   8  -5 1352.22 48.9133   2
  -4   8   5 1341.85 43.7406   7
  -2  -8   5 207.604 9.52830  16
  -2  -8   5 203.584 11.0251   1
   2  -8  -5 206.843 11.0059   9
   2  -8  -5 208.120 9.77343   6
   2  -8  -5 189.343 9.86289   8
  -2  -8   5 211.939 9.30707  13
   2   8  -5 229.934 15.6262   2
   2   8  -5 223.453 12.5249  10
  -2   8   5 217.541 10.9506   7
   2   8  -5 208.442 12.9194  15
   2   8  -5 210.724 11.9579  11
   0  -8   5 241.374 12.4740   1
   0  -8  -5 269.015 12.7781   9
   0  -8   5 246.773 11.1031  13
   0  -8  -5 256.916 11.5576   6
   0   8   5 240.707 12.7246   7
   0   8   5 237.069 14.9030  10
   0   8  -5 234.240 14.8395  15
   0   8  -5 269.716 16.3709   2
   0   8  -5 243.398 14.0479  11
   2  -8   5 817.602 28.3415  13
  -2  -8  -5 800.354 28.7069   6
   2  -8   5 768.445 30.1559   8
  -2   8  -5 792.501 31.0582  11
  -2   8  -5 758.194 29.0591   5
   2   8   5 814.700 32.9922  10
  -2   8  -5 813.111 31.9488   2
   2   8   5 801.548 30.0639   7
   4  -8   5 340.044 17.2262   8
  -4  -8  -5 345.997 16.1558   6
   4   8   5 355.823 19.2022  10
  -4   8  -5 344.292 17.6721  11
  -4   8  -5 300.090 15.9575   5
   4   8   5 375.140 17.8504   7
  -6  -8  -5 241.552 14.1592   5
   6  -8   5 241.718 14.0282   8
  -6  -8  -5 238.742 13.6504   6
  -6   8  -5 217.712 13.6828   5
  -6   8  -5 232.790 14.0721  11
   6   8   5 236.284 14.8029   7
   9  -9  -5 17.2540 4.86153   8
  -9  -9   5 9.91704 4.39933   1
   9  -9  -5 7.00957 3.15803  14
   9  -9  -5 11.6415 6.20614   3
  -9  -9   5 7.79554 4.47449  12
   9   9  -5 17.7416 6.23570  10
  -7  -9   5 21.6770 4.35051  12
   7  -9  -5 24.8115 6.75546   3
   7  -9  -5 15.2814 3.95222   6
   7  -9  -5 22.0336 4.96445   8
   7  -9  -5 21.9989 5.28180   9
   7  -9  -5 19.5100 4.57953  14
  -7  -9   5 17.8950 4.83805   1
  -7  -9   5 16.5111 3.41264  16
   7   9  -5 20.0971 5.66124  10
   7   9  -5 17.4502 5.91461   2
  -7   9   5 20.3956 4.80394  11
   5  -9  -5 235.867 13.5679   8
   5  -9  -5 236.151 11.4771   6
   5  -9  -5 210.962 11.9515  14
  -5  -9   5 219.012 11.8177  12
   5  -9  -5 246.882 18.2064   3
   5  -9  -5 227.497 12.9483   9
  -5  -9   5 241.429 12.9354   1
  -5  -9   5 211.513 10.3100  16
  -5   9   5 253.276 13.9292  10
   5   9  -5 252.328 16.8746   2
   5   9  -5 249.314 15.1603  10
  -3  -9   5 105.235 6.31854  16
   3  -9  -5 94.2713 7.77201   9
  -3  -9   5 89.6514 7.75916   1
   3  -9  -5 115.762 7.22109   6
   3  -9  -5 106.450 7.68460   8
  -3   9   5 101.741 9.73203  10
   3   9  -5 109.139 10.1472  10
  -3   9   5 101.527 6.91579   7
   3   9  -5 93.5435 8.42357  11
   3   9  -5 92.4354 11.6775   2
   1  -9  -5 6.13266 2.21137   6
  -1  -9   5 10.1233 2.97375  13
   1  -9  -5 10.0294 3.46232   9
  -1  -9   5 10.1859 3.80587   1
   1   9  -5 11.5138 4.66480  11
   1   9  -5 0.94652 4.20710   2
  -1   9   5 1.79002 3.94937  10
  -1   9   5 4.22016 2.36127   7
   1   9  -5 0.10206 2.88026  10
   1   9  -5 20.9899 5.42041  15
   1  -9   5 43.6333 4.82489  13
   1  -9   5 37.0919 6.08136   8
  -1  -9  -5 40.8998 4.99399   6
  -1   9  -5 40.5036 6.99841   2
   1   9   5 39.5614 5.42971   7
  -1   9  -5 37.8021 6.84470  11
   1   9   5 48.8443 7.38356  10
  -3  -9  -5 67.9880 6.80350   6
   3  -9   5 78.4678 8.63544   8
  -3   9  -5 95.1920 8.93273   5
  -3   9  -5 71.9433 8.24953   2
   3   9   5 66.9274 8.06374   7
   3   9   5 78.6087 10.0801  10
  -3   9  -5 70.3517 8.77430  11
   5  -9   5 12.2359 4.96206   8
  -5  -9  -5 17.6804 4.00635   6
   5   9   5 15.8744 5.75567  10
  -5   9  -5 12.2071 5.03035  11
   5   9   5 12.2424 5.24368   7
  -5   9  -5 14.4236 4.55848   5
   8 -10  -5 12.6958 5.20101   8
  -8 -10   5 11.3163 4.60320  12
   8 -10  -5 8.10796 3.71836  14
   8 -10  -5 19.5250 3.74436   6
   8 -10  -5 21.3168 7.27419   3
  -8 -10   5 15.4917 4.59339   1
  -8  10   5 7.85912 4.49941   5
   8  10  -5 18.4662 6.97867  10
  -6 -10   5 84.6883 7.67884   1
   6 -10  -5 88.3977 8.47889   9
   6 -10  -5 80.8820 7.41245  14
  -6 -10   5 84.6527 8.13614  12
   6 -10  -5 90.4092 7.38264   6
  -6 -10   5 85.4397 6.49347  16
   6 -10  -5 93.0541 9.39530   8
   6  10  -5 90.0776 11.3109  10
   6  10  -5 110.497 12.5993   2
  -6  10   5 82.2997 9.79925   2
  -4 -10   5 7.88687 3.96672   1
  -4 -10   5 4.55735 2.01961  16
   4 -10  -5 8.25976 3.20717   6
   4 -10  -5 2.79954 3.90023   9
   4 -10  -5 7.74004 3.66572   8
   4  10  -5 6.13009 4.02585  10
  -4  10   5 5.47802 4.01455  10
   4  10  -5 14.9269 5.74022   2
   2 -10  -5 2.33678 3.37386   9
  -2 -10   5 3.28655 3.37405   1
   2 -10  -5 3.03280 2.84776   6
  -2  10   5 7.13197 3.72061  10
   2  10  -5 3.54039 4.29281  11
   2  10  -5 1.27723 6.60043   2
   2  10  -5 6.89177 4.22580  10
  -2  10   5 4.34586 2.95774   7
   0 -10  -5 13.9593 3.97040   9
   0 -10   5 16.5821 4.07283   8
   0 -10  -5 12.0143 3.61632   6
   0  10  -5 15.6369 7.01603   2
   0  10   5 16.7669 4.41239   7
   0  10  -5 14.3484 5.68266  11
   0  10   5 17.9406 5.85310  10
   2 -10   5 3.74570 4.13400   8
  -2 -10  -5 2.07357 3.10611   6
  -2  10  -5 1.00136 3.20070  11
   2  10   5 2.11499 3.91705   7
  -2  10  -5 5.92270 4.04363   5
   2  10   5 9.58926 5.53065  10
  -2  10  -5 5.37761 3.91055   2
   4 -10   5 54.4165 7.27322   8
  -4 -10  -5 64.3258 6.91281   6
   4  10   5 52.1109 7.75544   7
   4  10   5 59.0565 9.35685  10
  -4  10  -5 60.0056 6.97384   5
  -4  10  -5 72.1680 9.15732  11
   7 -11  -5 149.926 11.6994   8
   7 -11  -5 147.811 10.0199  14
  -7 -11   5 155.282 10.8536  12
   7 -11  -5 135.526 8.93579   6
  -7  11   5 118.291 11.6165  11
   7  11  -5 142.816 14.5764  10
   5 -11  -5 189.431 13.1841   8
   5 -11  -5 178.853 10.7501   6
  -5 -11   5 183.025 12.0864   1
   5 -11  -5 202.945 13.5829   9
   5  11  -5 201.627 15.6168  10
   5  11  -5 193.945 15.3727   2
  -5  11   5 195.432 14.3947   2
   3 -11  -5 140.018 9.31873   6
  -3 -11   5 171.874 11.4612   1
   3 -11  -5 148.861 11.8945   9
  -3 -11   5 157.980 10.9196   8
  -3  11   5 164.555 13.1322  10
   3  11  -5 144.055 11.3044  11
   3  11  -5 153.207 12.5517  10
   3  11  -5 167.741 16.1407   2
   1 -11  -5 160.391 11.4697   9
  -1 -11   5 165.310 11.2384   8
   1 -11  -5 168.055 10.2089   6
   1  11  -5 154.492 15.3658   2
  -1  11   5 151.979 13.8184  10
   1  11  -5 147.911 12.3084  11
   1 -11   5 71.9260 8.82866   8
  -1 -11  -5 95.5020 8.19379   6
  -1  11  -5 91.5802 11.4299   2
   1  11   5 89.6164 10.7163  10
  -1  11  -5 104.232 10.9964  11
   1  11   5 78.8258 8.52871   7
  -3 -11  -5 45.5266 5.91687   6
   3 -11   5 49.0035 7.71721   8
  -3  11  -5 50.9306 7.97684  11
  -3  11  -5 51.5642 7.11811   5
   3  11   5 48.6457 9.14017  10
   3  11   5 39.5447 6.75360   7
  -4 -12   5 91.1674 9.04379   1
   4 -12  -5 84.9802 7.95528   6
  -4  12   5 79.5862 10.9582   2
   4  12  -5 88.1487 10.8775  10
   4  12  -5 84.9962 11.4948   2
   2 -12  -5 272.758 15.5595   9
  -2 -12   5 249.518 15.1556   8
   2 -12  -5 243.361 13.3507   6
   2  12  -5 279.924 20.0003   2
  -2  12   5 247.670 18.1731   2
   2  12  -5 228.828 15.1341  11
  -2  12   5 274.008 17.8710  10
   0 -12   5 429.947 21.2408   8
   0 -12  -5 413.981 18.5988   6
   0  12   5 404.279 22.8184  10
   0  12  -5 410.904 24.1657   2
   0  12  -5 435.088 21.9345  11
 -12   0   6 4.14848 5.16942   1
 -12   0   6 5.29261 4.27637  12
  12   0  -6 3.30292 3.75268  14
  12   0  -6 1.11960 5.34557   3
 -10   0   6 122.417 8.46455  16
 -10   0   6 118.831 10.0593   1
  10   0  -6 135.743 12.7967   3
  10   0  -6 125.563 9.17352  14
 -10   0   6 137.638 9.24409  12
  -8   0   6 608.181 21.9145  16
  -8   0   6 586.459 24.2777   1
  -8   0   6 622.451 22.7087  12
   8   0  -6 642.707 22.9337  14
   8   0  -6 609.485 28.7013   3
   6   0  -6 168.075 7.81394   9
   6   0  -6 181.815 8.07182  14
  -6   0   6 176.725 7.71976  12
  -6   0   6 170.886 9.25227   1
   6   0  -6 184.489 11.9895   3
  -6   0   6 178.883 7.68316  16
   4   0  -6 182.941 10.6694   3
  -4   0   6 160.573 6.13776  12
   4   0  -6 174.120 8.00412   9
  -4   0   6 163.745 7.63685   1
  -4   0   6 181.766 7.70439  13
   4   0  -6 184.205 8.48304   2
  -4   0   6 170.452 6.80990  16
   4   0  -6 165.174 6.45313  11
   4   0  -6 165.599 6.88180  14
  -2   0   6 931.663 29.0678  16
   2   0  -6 967.688 32.1898   2
   2   0  -6 979.565 30.6153  11
  -2   0   6 1027.46 30.7544   4
   2   0  -6 934.318 31.8912   3
  -2   0   6 895.442 29.7832   1
  -2   0   6 920.909 30.1612  13
   0   0   6 194.867 8.24000   7
   0   0  -6 191.361 7.88521   5
   0   0  -6 196.534 9.82037   2
   0   0   6 192.364 8.52268   4
   0   0  -6 199.745 9.18760  11
   0   0   6 187.202 7.94341  13
   0   0   6 180.897 7.28634   1
   0   0  -6 198.732 10.7537  15
  -2   0  -6 218.593 13.1993  15
  -2   0  -6 213.513 10.0131   5
  -2   0  -6 235.598 11.0937  11
   2   0   6 213.218 9.34491   7
   2   0   6 218.234 9.83729   4
   2   0   6 199.107 9.01273  13
   4   0   6 102.428 7.16395   4
   4   0   6 104.221 6.77870   7
  -4   0  -6 110.091 8.49563  11
   4   0   6 105.986 6.48661  13
  -4   0  -6 101.609 7.99756   5
  -6   0  -6 76.9865 8.38528  11
  -6   0  -6 70.5449 7.75164   5
   6   0   6 70.8051 7.36533   4
 -11  -1   6 1536.27 51.7513  12
  11  -1  -6 1441.05 59.0276   3
  11  -1  -6 1531.75 51.0566  14
 -11  -1   6 1452.57 53.6872   1
 -11  -1   6 1406.46 49.0454  16
  11   1  -6 1516.27 50.4730  14
 -11   1   6 1428.46 53.4662   1
 -11   1   6 1516.28 51.5402  12
 -11   1   6 1387.05 48.9522  16
  11   1  -6 1384.14 57.9111   3
   9  -1  -6 1144.21 38.7953  14
  -9  -1   6 1094.67 38.2693  12
  -9  -1   6 1075.42 40.2544   1
  -9  -1   6 1091.59 37.1980  16
   9  -1  -6 1118.45 45.5803   3
   9   1  -6 1130.14 45.9430   3
  -9   1   6 1063.75 36.9674  16
  -9   1   6 1033.54 39.9932   1
   9   1  -6 1160.11 38.3957  14
  -9   1   6 1144.53 38.6410  12
  -7  -1   6 1944.51 62.0225   1
  -7  -1   6 1876.26 59.6969  12
  -7  -1   6 1892.89 59.4173  16
   7  -1  -6 1810.50 59.2558   9
   7  -1  -6 2013.86 60.6160  14
   7  -1  -6 1892.93 67.0619   3
   7   1  -6 1917.82 61.9406  10
  -7   1   6 1913.64 61.6039   1
  -7   1   6 1863.36 59.1386  16
   7   1  -6 1902.85 66.8356   3
  -7   1   6 1960.67 59.7858  12
   7   1  -6 1956.77 59.7309  14
   5  -1  -6 3749.13 123.061   9
   5  -1  -6 4350.22 122.872  14
  -5  -1   6 4172.51 122.247  16
  -5  -1   6 4247.43 123.167  13
  -5  -1   6 4329.14 124.102   1
  -5  -1   6 4089.70 121.964  12
   5  -1  -6 3896.86 128.580   3
  -5   1   6 4324.32 123.775   1
   5   1  -6 3919.65 123.651   2
   5   1  -6 3810.36 124.787  10
  -5   1   6 4224.78 121.833  12
   5   1  -6 3721.37 122.634   9
   5   1  -6 4076.32 128.490   3
   5   1  -6 4217.82 122.059  14
  -5   1   6 4307.81 122.162  16
   3  -1  -6 2109.67 61.2574  14
  -3  -1   6 2014.83 61.4476  13
   3  -1  -6 2015.30 64.9415   3
   3  -1  -6 1913.42 60.9405  11
   3  -1  -6 2006.68 62.6118   9
  -3  -1   6 1992.47 59.7389  12
  -3  -1   6 1971.86 61.5785   1
   3  -1  -6 1906.65 59.9796   6
  -3  -1   6 2005.23 60.5024  16
   3   1  -6 2031.90 61.8244  15
  -3   1   6 2007.38 61.1732   1
   3   1  -6 2000.11 61.0058  11
   3   1  -6 2130.85 60.5051  14
   3   1  -6 1952.58 63.0865   2
  -3   1   6 2025.13 60.1966  16
  -3   1   6 2075.28 61.4821  13
   3   1  -6 1998.49 64.2038   3
   1  -1  -6 2860.17 86.5323   6
  -1  -1   6 2922.74 86.8634  16
  -1  -1   6 2974.18 88.2500   4
  -1  -1   6 2904.95 87.6817   1
   1  -1  -6 2892.01 89.3802   3
   1  -1  -6 2931.16 88.8427  11
   1  -1  -6 2845.85 87.2250   5
  -1  -1   6 2962.79 88.0406  13
  -1   1   6 2860.60 86.7542   1
   1   1  -6 3023.86 91.0373  15
  -1   1   6 2925.89 86.2795  16
  -1   1   6 2967.82 87.7959  13
   1   1  -6 2947.17 90.5439   2
  -1   1   6 2922.96 88.4143   4
   1   1  -6 2851.43 87.1475   5
   1   1  -6 2942.87 89.0361  11
   1  -1   6 3848.30 114.449   4
  -1  -1  -6 3812.79 114.319   5
   1  -1   6 3640.64 113.552   7
  -1  -1  -6 3808.22 115.617  11
   1  -1   6 3871.22 113.999  13
  -1   1  -6 3963.60 116.186  11
  -1   1  -6 3751.29 118.884  15
   1   1   6 3839.84 114.594   4
   1   1   6 3789.70 114.524   7
  -1   1  -6 3681.94 114.287   5
   1   1   6 3709.26 113.460  13
  -1   1  -6 3768.51 116.342   2
   3  -1   6 1021.58 34.5531   7
  -3  -1  -6 1081.24 36.6429   5
   3  -1   6 1076.58 35.4025  13
   3  -1   6 1063.70 35.7864   4
  -3  -1  -6 1090.68 37.5381  11
   3   1   6 1069.50 35.6726   7
   3   1   6 1056.76 34.9054  13
  -3   1  -6 1085.09 36.8244   5
   3   1   6 1074.84 36.1319   4
  -3   1  -6 1085.96 41.9757  15
  -3   1  -6 1084.11 37.7346  11
  -5  -1  -6 936.622 34.8368   5
   5  -1   6 941.770 33.2292   4
  -5  -1  -6 956.598 35.0794  11
   5   1   6 883.596 32.2017   7
  -5   1  -6 940.405 34.7848   5
   5   1   6 940.740 33.2888   4
  -5   1  -6 968.645 35.3218  11
  -7  -1  -6 926.085 35.2199   5
   7  -1   6 853.983 32.2090   4
  -7  -1  -6 913.042 34.4551  11
   7   1   6 843.065 32.4893   4
  -7   1  -6 844.009 34.4629   5
  -7   1  -6 883.769 34.1727  11
 -12  -2   6 407.385 22.4553   1
 -12  -2   6 429.510 21.5277  12
  12  -2  -6 438.162 26.9658   3
  12  -2  -6 438.152 20.9246  14
  12   2  -6 431.027 26.8854   3
  12   2  -6 455.938 20.1179  14
 -12   2   6 426.949 21.1093  12
 -12   2   6 431.212 23.2156   1
  10  -2  -6 502.481 21.6655  14
 -10  -2   6 506.147 23.4810   1
  10  -2  -6 526.287 28.1470   3
 -10  -2   6 503.004 21.5486  12
 -10  -2   6 484.316 19.7396  16
  10   2  -6 474.881 20.7378  10
  10   2  -6 503.391 27.6136   3
  10   2  -6 511.669 20.4150  14
 -10   2   6 469.718 19.6849  16
 -10   2   6 478.013 22.8119   1
 -10   2   6 497.629 21.2504  12
  -8  -2   6 2059.76 64.8199  16
   8  -2  -6 2134.48 66.6098  14
   8  -2  -6 2034.18 73.4448   3
  -8  -2   6 2071.25 65.7183  12
  -8  -2   6 2000.87 67.4557   1
   8  -2  -6 1986.46 64.5583   9
   8   2  -6 2052.69 73.0461   3
  -8   2   6 2079.75 64.6879  16
   8   2  -6 2076.67 67.4247  10
   8   2  -6 2150.77 65.1108  14
  -8   2   6 2132.80 65.7202  12
  -8   2   6 2039.01 67.4198   1
   6  -2  -6 2523.23 84.8027   3
  -6  -2   6 2564.92 79.3759   1
  -6  -2   6 2549.92 77.2701  16
   6  -2  -6 2489.79 78.0994   9
   6  -2  -6 2642.05 78.3836  14
  -6  -2   6 2521.47 77.4206  12
  -6  -2   6 2537.38 77.9468  13
  -6   2   6 2644.21 77.1890  16
   6   2  -6 2594.25 76.9337  14
   6   2  -6 2430.43 78.0928   2
   6   2  -6 2569.39 83.9776   3
   6   2  -6 2557.63 80.4864  10
  -6   2   6 2601.01 79.1528   1
   6   2  -6 2264.42 76.6885   9
  -6   2   6 2616.27 77.2991  12
  -4  -2   6 4574.20 132.447  13
   4  -2  -6 4307.47 131.290   6
   4  -2  -6 3970.77 133.008   9
  -4  -2   6 4539.77 131.371  12
   4  -2  -6 4517.69 132.364  14
  -4  -2   6 4721.23 133.423   1
   4  -2  -6 4170.93 137.249   3
  -4  -2   6 4665.32 131.780  16
  -4   2   6 4589.11 132.521   1
   4   2  -6 4334.06 133.860  15
   4   2  -6 4211.16 134.626  10
   4   2  -6 4555.18 130.961  14
  -4   2   6 4483.31 131.231  16
  -4   2   6 4886.17 132.737  13
   4   2  -6 4295.40 131.186  11
   4   2  -6 4322.64 136.548   3
   4   2  -6 4095.67 133.907   2
   2  -2  -6 4724.59 147.067   3
   2  -2  -6 4658.03 145.616   9
   2  -2  -6 4882.00 142.959   6
  -2  -2   6 4871.18 143.969   4
  -2  -2   6 5119.60 144.248  13
   2  -2  -6 4662.02 144.372  11
  -2  -2   6 5053.97 143.260  16
  -2  -2   6 5168.18 144.490   1
   2   2  -6 4624.07 146.610   2
  -2   2   6 4960.81 143.714  13
   2   2  -6 4619.96 144.430  11
   2   2  -6 4626.97 142.612   5
  -2   2   6 4781.48 142.240  16
   2   2  -6 4579.52 145.055   3
   2   2  -6 4862.70 146.122  15
  -2   2   6 5028.61 144.603   4
  -2   2   6 4985.48 142.857   1
   0  -2   6 963.612 31.5723  13
   0  -2  -6 1016.75 32.8078  11
   0  -2   6 956.776 31.6376   4
   0  -2  -6 1010.46 31.5356   5
   0  -2   6 969.150 31.4955   1
   0  -2  -6 924.194 30.3776   6
   0   2   6 949.937 30.8267  13
   0   2   6 979.021 32.0300   4
   0   2  -6 1030.49 34.3318   2
   0   2  -6 1032.32 35.8801  15
   0   2  -6 992.214 33.1890  11
   0   2  -6 938.401 31.4060   5
   0   2   6 992.894 32.4610   7
   2  -2   6 1345.28 43.1197  13
   2  -2   6 1346.24 43.3477   4
  -2  -2  -6 1369.57 44.7505  11
  -2  -2  -6 1327.21 43.6911   5
  -2   2  -6 1287.42 43.7798   5
   2   2   6 1334.59 43.6186   4
  -2   2  -6 1351.19 45.0931   2
  -2   2  -6 1358.90 45.2897  11
  -2   2  -6 1352.71 48.9000  15
   2   2   6 1355.23 42.3102  13
   2   2   6 1368.82 43.9221   7
   4  -2   6 2113.11 67.6161   4
   4  -2   6 2148.62 67.4284  13
  -4  -2  -6 2193.00 69.7965  11
  -4  -2  -6 2134.69 68.9271   5
  -4   2  -6 2150.26 69.1966   5
  -4   2  -6 2146.88 70.0085  11
   4   2   6 2082.41 67.8627   4
   4   2   6 2102.24 67.7198   7
  -6  -2  -6 873.302 32.1521  11
   6  -2   6 791.508 29.5087   4
  -6  -2  -6 800.590 31.5815   5
  -6   2  -6 821.427 31.8923  11
   6   2   6 764.153 29.4982   4
   6   2   6 780.355 29.0355   7
  -6   2  -6 779.488 31.4202   5
  11  -3  -6 234.972 18.5122   3
 -11  -3   6 207.695 13.3278  12
 -11  -3   6 194.895 14.3594   1
  11  -3  -6 220.087 13.7159  14
 -11  -3   6 200.496 11.0843  16
  11   3  -6 204.086 16.9395   3
  11   3  -6 213.508 11.8266  14
 -11   3   6 205.110 15.1139   1
 -11   3   6 213.547 13.2658  12
 -11   3   6 189.922 11.3839  16
  -9  -3   6 73.5254 5.95101  16
  -9  -3   6 59.4560 6.53121  12
   9  -3  -6 61.8134 6.73406  14
   9  -3  -6 49.4484 6.32872   8
  -9  -3   6 70.3496 8.03941   1
   9  -3  -6 52.6335 8.76350   3
   9   3  -6 63.7806 7.10089  10
   9   3  -6 57.8768 8.87170   3
  -9   3   6 60.6693 5.85886  16
  -9   3   6 65.6932 6.67822  12
   9   3  -6 64.0255 5.60029  14
  -9   3   6 56.5531 7.66948   1
  -7  -3   6 321.041 13.5735  12
   7  -3  -6 314.968 13.6019   9
  -7  -3   6 324.768 15.2615   1
   7  -3  -6 333.671 14.7718   8
  -7  -3   6 300.212 13.1720  13
   7  -3  -6 325.165 18.8377   3
   7  -3  -6 337.619 14.4448  14
  -7  -3   6 322.603 13.1483  16
  -7   3   6 331.105 12.9962  16
   7   3  -6 328.724 13.4432   2
  -7   3   6 352.947 13.8149  12
   7   3  -6 367.252 16.2931  10
   7   3  -6 352.845 12.9307  14
   5  -3  -6 1636.81 52.1213   9
   5  -3  -6 1629.61 50.3517   6
   5  -3  -6 1687.13 57.7911   3
   5  -3  -6 1619.71 52.0733   8
  -5  -3   6 1651.88 52.4447   1
  -5  -3   6 1630.58 51.0497  13
   5  -3  -6 1604.61 51.4036  14
  -5  -3   6 1625.56 50.6607  12
  -5  -3   6 1615.71 50.4853  16
   5   3  -6 1565.26 52.5104   2
  -5   3   6 1639.09 51.6263   1
   5   3  -6 1631.61 53.9453  10
  -5   3   6 1671.34 50.2316  12
  -5   3   6 1662.06 50.1012  16
  -3  -3   6 590.135 20.9709   1
   3  -3  -6 575.452 19.4534   6
  -3  -3   6 590.217 19.6918  16
   3  -3  -6 605.936 24.3251   3
  -3  -3   6 583.505 19.9571   4
   3  -3  -6 636.935 21.9044   9
   3  -3  -6 608.677 20.5837  14
  -3  -3   6 598.917 20.3288  13
  -3  -3   6 590.958 19.4817  12
  -3   3   6 582.808 19.9366  13
   3   3  -6 599.949 22.3787  10
   3   3  -6 608.493 21.3976  15
   3   3  -6 646.802 22.8832   3
   3   3  -6 604.653 22.9692   2
  -3   3   6 599.213 18.7797  16
  -3   3   6 571.699 19.5352   1
   3   3  -6 603.533 20.3600  11
  -1  -3   6 437.793 16.2218   1
   1  -3  -6 441.011 18.2821   3
   1  -3  -6 493.562 17.7655   9
  -1  -3   6 433.450 15.6268   4
   1  -3  -6 436.861 15.4348   5
  -1  -3   6 442.867 16.0619  13
  -1  -3   6 454.560 15.2432  16
   1   3  -6 463.842 19.0306  15
  -1   3   6 439.823 16.1881   4
  -1   3   6 433.550 15.1592  13
   1   3  -6 439.756 15.6761   5
   1   3  -6 483.864 19.0180   2
   1   3  -6 466.131 17.2611  11
  -1  -3  -6 719.056 25.1781   5
   1  -3   6 729.855 24.8102   4
   1  -3   6 719.709 24.9746  13
  -1  -3  -6 810.041 26.8596   9
  -1  -3  -6 751.278 26.3014  11
   1   3   6 710.405 25.2777   4
  -1   3  -6 758.049 27.4795   2
  -1   3  -6 749.233 29.8449  15
   1   3   6 704.943 23.7721  13
  -1   3  -6 746.219 26.9088  11
   1   3   6 729.706 25.8971   7
  -1   3  -6 701.445 25.4205   5
  -3  -3  -6 162.078 9.09075   9
   3  -3   6 166.211 8.62055   4
  -3  -3  -6 148.655 9.06117  11
  -3  -3  -6 137.996 8.46342   5
   3  -3   6 136.967 7.82847  13
  -3   3  -6 150.099 9.93183  11
   3   3   6 146.155 9.10576  10
   3   3   6 157.468 8.82293   4
   3   3   6 144.138 8.48701   7
  -3   3  -6 132.682 11.1184  15
  -3   3  -6 146.062 9.15569   5
  -3   3  -6 145.853 9.02003   2
  -5  -3  -6 201.240 12.1113  11
   5  -3   6 180.929 10.2917   4
  -5  -3  -6 177.326 11.2289   5
   5   3   6 170.259 10.5301   7
  -5   3  -6 190.423 12.1815  11
   5   3   6 177.414 10.3746   4
  -5   3  -6 194.531 11.9165   5
   7  -3   6 236.293 12.9573   4
  -7  -3  -6 235.569 14.8925   5
   7   3   6 228.149 13.1355   4
  -7   3  -6 219.033 13.8475   5
   7   3   6 221.853 12.2292   7
  -7   3  -6 234.858 13.9415  11
  12  -4  -6 922.744 36.1976  14
 -12  -4   6 856.310 37.5740   1
  12  -4  -6 935.701 42.9148   3
  12   4  -6 905.410 43.3393   3
 -12   4   6 932.256 35.8305  12
 -12   4   6 934.091 38.7246   1
 -10  -4   6 2025.48 70.7204   1
  10  -4  -6 2191.24 70.2591  14
 -10  -4   6 2004.40 66.9103  16
 -10  -4   6 2091.87 69.1482  12
  10  -4  -6 2117.99 77.5842   3
 -10  -4   6 1920.22 66.7098  13
  10  -4  -6 2208.90 70.3117   8
 -10   4   6 2247.46 69.3306  12
  10   4  -6 2027.86 76.3313   3
  10   4  -6 2119.53 69.8861  10
 -10   4   6 2076.47 67.1187  16
  -8  -4   6 3256.68 104.434   1
   8  -4  -6 3377.83 103.891  14
   8  -4  -6 3297.70 103.888   8
   8  -4  -6 3361.87 111.522   3
  -8  -4   6 3246.72 101.368  16
  -8  -4   6 3266.27 102.570  12
  -8  -4   6 3097.71 101.307  13
  -8   4   6 3372.29 101.374  16
   8   4  -6 3292.81 105.167  10
  -8   4   6 3580.54 102.888  12
  -6  -4   6 2375.40 71.6838  12
   6  -4  -6 2321.28 79.4953   3
   6  -4  -6 2285.29 72.3696   9
   6  -4  -6 2313.81 70.8243   6
   6  -4  -6 2309.89 72.3820  14
   6  -4  -6 2276.26 72.7834   8
  -6  -4   6 2343.49 70.9681  16
  -6  -4   6 2256.42 71.0990  13
  -6  -4   6 2294.53 73.0972   1
  -6   4   6 2383.15 70.5911  16
   6   4  -6 2382.73 75.0117  10
   6   4  -6 2172.06 72.7172   2
   4  -4  -6 2556.43 77.6453   6
   4  -4  -6 2566.92 79.8885   9
  -4  -4   6 2639.49 79.6991   1
  -4  -4   6 2595.76 78.2499  13
   4  -4  -6 2529.54 84.5462   3
   4  -4  -6 2541.11 79.2228   8
  -4  -4   6 2653.35 77.8904  16
  -4  -4   6 2587.02 77.9501  12
   4  -4  -6 2488.10 78.6013  14
   4   4  -6 2489.99 81.3015   2
   4   4  -6 2390.78 77.7350  11
  -4   4   6 2621.24 76.8958  16
  -4   4   6 2568.76 78.1114   1
   4   4  -6 2575.43 81.3545  10
  -4   4   6 2695.34 78.1877  13
   2  -4  -6 4767.16 139.981   6
   2  -4  -6 4847.12 145.803   3
  -2  -4   6 4992.06 141.567   1
  -2  -4   6 4688.53 139.877   4
  -2  -4   6 4977.53 140.075  16
  -2  -4   6 4855.30 140.700  13
   2  -4  -6 4603.05 142.358   9
  -2   4   6 4921.81 141.074   4
  -2   4   6 4462.94 139.539  13
   2   4  -6 4440.33 143.611  15
   2   4  -6 4670.62 144.617   2
   2   4  -6 4497.82 142.172  10
   2   4  -6 4438.80 141.830  11
   0  -4  -6 4243.12 129.813   5
   0  -4   6 4452.34 130.088  13
   0  -4   6 4478.83 130.578   1
   0  -4  -6 4327.24 131.644   9
   0  -4   6 4430.15 129.414   4
   0  -4  -6 4381.62 129.227   6
   0   4  -6 4181.01 131.884  11
   0   4  -6 4450.31 133.507   2
   0   4   6 4327.81 130.165   4
   0   4  -6 4000.34 130.019   5
   0   4  -6 4192.59 134.882  15
   0   4   6 4419.31 131.279   7
  -2  -4  -6 3286.67 96.8140   9
  -2  -4  -6 3118.55 95.9014   5
   2  -4   6 3058.82 94.6018   4
   2  -4   6 3148.45 95.3084  13
  -2   4  -6 3128.58 97.7181  11
  -2   4  -6 2954.53 95.8857   5
  -2   4  -6 3053.41 97.3317   2
   2   4   6 3126.54 96.4771   7
  -2   4  -6 3066.62 101.648  15
   2   4   6 3106.38 95.4568   4
   4  -4   6 1897.88 59.7611   4
   4  -4   6 1853.98 60.1592  13
   4  -4   6 1823.69 60.2030   8
  -4  -4  -6 1946.58 61.9470   5
  -4   4  -6 1860.21 62.4817  11
  -4   4  -6 1846.89 61.4994   5
   4   4   6 1812.05 60.8323   7
   4   4   6 1899.10 60.5391   4
   6  -4   6 720.147 26.1595   4
  -6  -4  -6 675.217 28.6295   5
  -6   4  -6 686.472 28.0597   5
   6   4   6 668.565 26.4589   7
  -6   4  -6 695.504 28.0304  11
   6   4   6 689.619 26.7239   4
 -11  -5   6 764.109 30.7466  12
  11  -5  -6 736.344 36.3072   3
  11  -5  -6 767.590 31.0704   8
  11  -5  -6 729.971 30.3041  14
 -11  -5   6 713.399 31.2798   1
  11   5  -6 710.039 29.9752  10
  11   5  -6 731.503 36.2466   3
 -11   5   6 765.755 29.9342  12
  -9  -5   6 997.163 35.7458  12
  -9  -5   6 945.687 36.8060   1
   9  -5  -6 1006.52 43.4803   3
  -9  -5   6 912.512 33.3413  13
   9  -5  -6 984.418 36.6003  14
  -9  -5   6 971.269 33.9301  16
   9  -5  -6 1002.15 36.6231   8
   9  -5  -6 1022.26 35.4103   9
   9   5  -6 978.894 37.2783  10
  -9   5   6 1044.42 35.6461  12
  -9   5   6 944.480 33.6273  16
  -7  -5   6 987.778 33.8328  13
   7  -5  -6 1080.24 36.9778   8
  -7  -5   6 966.644 36.1197   1
   7  -5  -6 1004.17 33.9995   6
  -7  -5   6 992.711 33.8866  16
   7  -5  -6 1027.14 36.1543  14
   7  -5  -6 1064.24 35.9187   9
  -7  -5   6 1016.48 34.9481  12
   7  -5  -6 1071.31 42.9851   3
   7   5  -6 1080.98 38.5700  10
   7   5  -6 979.562 35.4730   2
  -7   5   6 1067.40 33.8906  16
   5  -5  -6 1256.15 41.5515   8
   5  -5  -6 1327.65 47.9440   3
   5  -5  -6 1194.35 41.1450   9
  -5  -5   6 1231.40 40.0419  12
  -5  -5   6 1233.52 39.6640  13
  -5  -5   6 1239.56 41.6578   1
   5  -5  -6 1201.72 40.8016  14
  -5  -5   6 1209.32 39.4565  16
   5  -5  -6 1237.44 39.5861   6
   5   5  -6 1217.59 43.0021   2
  -5   5   6 1251.91 38.8234  16
   5   5  -6 1313.19 44.1542  10
   3  -5  -6 1389.01 45.0284   8
  -3  -5   6 1405.00 44.2217  13
  -3  -5   6 1328.87 43.1185   4
   3  -5  -6 1432.24 43.9788   6
  -3  -5   6 1433.67 45.7574   1
  -3  -5   6 1425.89 43.9304  16
   3  -5  -6 1434.92 46.2908   9
   3  -5  -6 1424.82 50.5268   3
   3   5  -6 1486.91 47.3530  10
   3   5  -6 1500.80 49.2469   2
  -3   5   6 1369.29 43.4129  13
   3   5  -6 1335.51 45.1946  11
   3   5  -6 1323.90 46.8016  15
  -3   5   6 1388.09 44.6318   4
   1  -5  -6 1882.82 58.3447   6
  -1  -5   6 1911.17 58.1874  16
  -1  -5   6 1904.64 59.7435   1
   1  -5  -6 1937.39 60.7348   9
  -1  -5   6 1886.24 58.8651  13
   1   5  -6 1879.26 59.6932  10
   1   5  -6 1889.57 63.6545  15
  -1   5   6 1943.84 60.5663   7
   1   5  -6 1690.42 58.4465   5
  -1   5   6 1906.82 59.0713   4
   1   5  -6 1989.17 63.4320   2
   1   5  -6 1915.85 61.1283  11
  -1  -5  -6 2021.52 63.7398   5
  -1  -5  -6 2006.25 62.7459   6
  -1  -5  -6 2180.14 65.1533   9
   1  -5   6 2014.87 62.3530   4
   1  -5   6 2030.76 63.3433  13
   1   5   6 2011.51 63.3471   4
  -1   5  -6 2055.50 65.9604  11
   1   5   6 2031.35 64.7805   7
  -1   5  -6 1951.91 68.9075  15
  -1   5  -6 2023.62 66.2925   2
  -1   5  -6 1910.94 63.7170   5
   3  -5   6 919.747 30.7306   4
   3  -5   6 905.483 31.5210  13
  -3  -5  -6 911.503 32.3986   5
   3  -5   6 883.213 32.1298   8
  -3   5  -6 915.081 33.7146  11
   3   5   6 900.181 33.9646  10
   3   5   6 891.593 32.4188   7
  -3   5  -6 874.361 32.4857   2
   3   5   6 908.919 31.3915   4
  -3   5  -6 862.562 32.2663   5
  -5  -5  -6 375.951 18.0808   5
   5  -5   6 366.732 15.6844   4
   5   5   6 367.259 16.4863   4
  -5   5  -6 373.739 18.1177  11
  -5   5  -6 348.151 16.9018   5
   5   5   6 357.642 17.3515   7
 -10  -6   6 3.61308 2.11949  16
  10  -6  -6 4.12320 4.96690   3
 -10  -6   6 3.70570 3.91289   1
  10  -6  -6 0.90340 3.90920   8
  10  -6  -6 2.16154 3.82334  14
 -10  -6   6 6.06746 4.11205  12
 -10   6   6 3.77738 3.81815  12
 -10   6   6 5.63716 2.82925  16
  10   6  -6 7.87657 4.43953  10
   8  -6  -6 25.9963 4.70534   9
  -8  -6   6 23.7283 4.55958  12
  -8  -6   6 11.2343 2.62722  16
   8  -6  -6 12.8292 2.97787   6
   8  -6  -6 16.3213 4.01114   8
  -8  -6   6 16.6896 3.98866   1
   8  -6  -6 18.7916 3.96655  14
   8  -6  -6 12.4620 5.20503   3
  -8   6   6 26.9529 3.71905  16
   6  -6  -6 245.567 10.9265   6
   6  -6  -6 263.022 12.7154   9
  -6  -6   6 223.938 11.0787  12
   6  -6  -6 245.355 12.0685  14
  -6  -6   6 231.339 12.3083   1
   6  -6  -6 272.372 13.2623   8
  -6  -6   6 239.348 10.7588  16
  -6  -6   6 241.644 10.4960  13
   6  -6  -6 271.184 17.8045   3
   6   6  -6 254.718 13.7726   2
   6   6  -6 272.240 15.0790  10
  -6   6   6 233.519 10.0512  16
  -6   6   6 228.952 12.6330  15
   4  -6  -6 388.936 16.2782   9
   4  -6  -6 376.334 14.3675   6
   4  -6  -6 382.100 15.8582   8
  -4  -6   6 364.020 15.9029   1
  -4  -6   6 376.714 14.7966  12
  -4  -6   6 378.722 14.2943  16
  -4  -6   6 372.723 14.1723  13
   4  -6  -6 379.461 15.5946  14
   4  -6  -6 402.201 21.0322   3
   4   6  -6 362.764 15.1700  11
   4   6  -6 410.252 18.9199   2
   4   6  -6 414.204 18.2891  10
  -4   6   6 363.365 13.8324  13
   2  -6  -6 155.316 7.68957   6
   2  -6  -6 165.833 9.46026   9
  -2  -6   6 169.979 8.08985  13
  -2  -6   6 152.525 8.86014   1
  -2  -6   6 160.513 7.52573  16
   2   6  -6 168.251 9.65454  10
   2   6  -6 175.596 11.4839  15
   2   6  -6 201.122 10.4525  11
   2   6  -6 191.674 12.7094   2
  -2   6   6 159.677 9.15989   7
  -2   6   6 156.242 7.75457   4
   0  -6   6 27.5067 3.89268   1
   0  -6  -6 27.3602 3.42512   6
   0  -6  -6 46.6236 5.34212   9
   0  -6   6 33.1329 3.92647  13
   0   6  -6 30.6347 5.50370  15
   0   6  -6 34.0000 5.50781  11
   0   6  -6 26.0281 3.76091   5
   0   6   6 36.0003 4.88583   7
   0   6  -6 27.9084 5.16432   2
   0   6   6 39.1256 3.98590   4
   2  -6   6 9.96553 3.12194  13
  -2  -6  -6 6.33215 2.01687   6
  -2  -6  -6 6.76719 2.89236   5
   2   6   6 10.4316 3.76419   7
  -2   6  -6 7.45562 3.13989   5
   2   6   6 8.90749 3.28366  10
   2   6   6 4.36770 2.86095   4
  -2   6  -6 10.9249 3.83148   2
  -2   6  -6 5.52990 3.06125  11
  -4  -6  -6 101.398 8.60194   5
   4  -6   6 103.227 8.54499   8
   4  -6   6 111.656 8.15732  13
  -4   6  -6 103.014 8.03094   5
   4   6   6 107.520 7.52821   4
   4   6   6 92.8766 8.34632  10
   4   6   6 101.351 8.24890   7
  -4   6  -6 98.9691 8.45353  11
  -6  -6  -6 154.479 11.5614   5
  -6   6  -6 129.178 9.73067   5
   6   6   6 152.049 11.2658   7
   6   6   6 143.562 10.0415   4
  -6   6  -6 141.859 10.3124  11
 -11  -7   6 405.563 20.2628  12
 -11  -7   6 394.077 21.2489   1
  11  -7  -6 438.860 20.9483  14
  11  -7  -6 439.341 21.5317   8
  11  -7  -6 435.045 26.3899   3
  -9  -7   6 779.583 29.2902  16
   9  -7  -6 821.867 31.6990   9
   9  -7  -6 874.140 39.8721   3
   9  -7  -6 809.158 32.4774  14
  -9  -7   6 778.679 32.1976   1
   9  -7  -6 900.914 34.0978   8
  -9  -7   6 849.833 31.9106  12
  -9   7   6 766.800 28.9817  16
   9   7  -6 833.221 34.1050  10
  -9   7   6 859.854 31.4050  12
  -7  -7   6 1505.19 51.7803   1
  -7  -7   6 1479.84 50.0615  12
   7  -7  -6 1543.67 52.4983   8
  -7  -7   6 1508.82 48.9008  16
   7  -7  -6 1475.60 51.2752  14
   7  -7  -6 1618.34 60.0309   3
   7  -7  -6 1539.26 49.0705   6
   7  -7  -6 1544.64 51.6550   9
  -7   7   6 1451.87 48.0997  16
   7   7  -6 1544.89 54.1175  10
   7   7  -6 1423.18 51.7042   2
   5  -7  -6 2225.68 70.9184   8
   5  -7  -6 2201.76 68.3254   6
   5  -7  -6 2200.83 78.2585   3
  -5  -7   6 2182.50 68.0177  16
   5  -7  -6 2155.35 70.6051   9
   5  -7  -6 2167.28 70.0621  14
  -5  -7   6 2209.80 70.5027   1
  -5  -7   6 2143.95 67.6022  13
  -5  -7   6 2219.64 69.2483  12
   5   7  -6 2132.68 73.3059   2
   5   7  -6 2284.06 73.5814  10
  -3  -7   6 2591.45 77.7328  16
   3  -7  -6 2586.96 78.0195   6
   3  -7  -6 2412.09 78.6957   8
   3  -7  -6 2526.91 80.3839   9
  -3  -7   6 2623.59 79.9768   1
  -3  -7   6 2594.04 77.7672  13
   3  -7  -6 2564.70 86.4627   3
  -3   7   6 2601.41 79.8257   7
   3   7  -6 2517.15 83.8737   2
   3   7  -6 2631.76 81.5737  10
   3   7  -6 2301.91 81.6762  15
   3   7  -6 2462.58 79.9312  11
  -3   7   6 2515.78 77.9492   4
  -1  -7   6 1358.39 46.3785   1
   1  -7  -6 1456.73 47.1515   9
  -1  -7   6 1430.85 45.0653  13
   1  -7  -6 1386.80 44.8468   6
   1   7  -6 1358.69 50.5759  15
   1   7  -6 1496.96 51.0738   2
   1   7  -6 1402.38 47.7530  11
   1   7  -6 1344.55 45.7759  10
  -1   7   6 1390.97 46.7936   7
  -1   7   6 1335.44 44.5409   4
  -1  -7  -6 989.463 34.3668   6
  -1  -7  -6 1114.23 36.4024   9
   1  -7   6 1003.71 34.5771  13
   1   7   6 1027.25 39.3960  10
   1   7   6 1007.09 34.3151   4
  -1   7  -6 941.246 34.8584   5
  -1   7  -6 1058.79 38.7205   2
   1   7   6 1040.03 36.7957   7
  -1   7  -6 1027.63 37.5631  11
  -3  -7  -6 1409.22 46.0937   6
   3  -7   6 1343.46 47.2384   8
   3  -7   6 1388.16 45.9856  13
  -3  -7  -6 1399.74 47.2909   5
  -3   7  -6 1327.58 47.2589   2
   3   7   6 1356.52 45.3295   4
   3   7   6 1410.26 47.9074   7
   3   7   6 1396.95 50.0909  10
  -3   7  -6 1312.65 47.7161  11
  -3   7  -6 1317.75 46.5427   5
   5  -7   6 821.976 31.9536   8
  -5  -7  -6 862.130 31.8211   6
  -5  -7  -6 897.748 33.7508   5
  -5   7  -6 795.042 32.0842   5
   5   7   6 866.888 33.0246   7
  -5   7  -6 843.039 33.1593  11
 -10  -8   6 421.644 20.5444  12
  10  -8  -6 441.011 26.6729   3
  10  -8  -6 452.086 21.5704  14
  10  -8  -6 448.453 22.3685   8
 -10  -8   6 411.540 21.2800   1
  10   8  -6 432.189 22.5249  10
 -10   8   6 446.428 20.2250  12
  -8  -8   6 340.705 14.4233  16
   8  -8  -6 337.285 16.8748   9
   8  -8  -6 345.185 18.2980   8
   8  -8  -6 317.579 14.7432   6
   8  -8  -6 345.657 22.8731   3
  -8  -8   6 350.022 16.5518  12
   8  -8  -6 336.167 17.0814  14
  -8  -8   6 293.630 16.2093   1
  -8   8   6 292.637 13.7083  16
   8   8  -6 334.180 19.2531  10
   6  -8  -6 477.775 18.8444   6
  -6  -8   6 462.792 19.6716  12
   6  -8  -6 453.944 20.2845  14
   6  -8  -6 489.365 21.7914   8
   6  -8  -6 494.649 21.2989   9
  -6  -8   6 461.195 20.4704   1
   6  -8  -6 519.099 28.0256   3
  -6  -8   6 479.310 18.3028  16
   6   8  -6 481.376 23.0951   2
   6   8  -6 519.520 23.6474  10
  -4  -8   6 276.597 14.1674   1
   4  -8  -6 291.177 12.7089   6
   4  -8  -6 292.015 18.9395   3
   4  -8  -6 309.972 15.0868   9
  -4  -8   6 297.583 12.5348  16
   4  -8  -6 299.903 14.3580   8
   4   8  -6 308.575 17.6868   2
   4   8  -6 315.160 16.9691  10
  -4   8   6 281.882 13.4011   7
   4   8  -6 297.649 14.3221  11
   2  -8  -6 346.373 14.4527   6
  -2  -8   6 348.194 14.0006  13
  -2  -8   6 339.027 13.8994  16
  -2  -8   6 311.881 15.4217   1
   2  -8  -6 360.698 16.1105   9
   2   8  -6 388.801 20.4545   2
   2   8  -6 358.427 16.9459  11
  -2   8   6 346.751 15.8782   7
   2   8  -6 362.366 16.2631  10
   2   8  -6 323.745 18.2111  15
   0  -8  -6 1058.51 36.2194   9
   0  -8   6 1010.93 34.3021  13
   0  -8  -6 975.252 34.2857   6
   0   8   6 968.310 39.2889  10
   0   8   6 998.142 36.2932   7
   0   8  -6 1006.71 37.2976  11
   0   8  -6 1034.88 39.3248   2
   2  -8   6 505.188 19.9398  13
   2  -8   6 489.378 21.7508   8
  -2  -8  -6 501.185 19.9758   6
  -2   8  -6 525.423 22.9275   2
  -2   8  -6 491.112 22.0103  11
  -2   8  -6 461.746 20.1584   5
   2   8   6 482.360 24.0132  10
   2   8   6 465.828 21.0479   7
   4  -8   6 189.923 12.3227   8
  -4  -8  -6 181.309 11.0914   6
   4   8   6 171.785 13.4303  10
   4   8   6 189.964 12.7565   7
  -4   8  -6 174.575 10.9271   5
  -4   8  -6 177.084 12.3080  11
  -9  -9   6 335.219 18.5039   1
   9  -9  -6 367.590 19.6758   8
  -9  -9   6 365.123 18.1922  12
   9  -9  -6 361.322 18.7975  14
   9  -9  -6 415.112 25.8668   3
   9   9  -6 381.664 21.4693  10
   7  -9  -6 152.159 10.9008   9
  -7  -9   6 158.910 10.6609  12
  -7  -9   6 155.481 9.03756  16
   7  -9  -6 151.809 14.8199   3
   7  -9  -6 154.861 12.0108   8
   7  -9  -6 167.107 11.1028  14
   7  -9  -6 143.185 8.80550   6
  -7  -9   6 152.670 10.7865   1
   7   9  -6 162.708 12.6581   2
   7   9  -6 185.183 14.6333  10
   5  -9  -6 18.4392 3.28758   6
   5  -9  -6 9.20374 3.30398   9
   5  -9  -6 6.55181 3.47578   8
  -5  -9   6 6.21090 3.55518   1
  -5  -9   6 5.76715 2.54535  16
   5   9  -6 5.49774 4.03390  10
   5   9  -6 6.47719 5.83657   2
   3  -9  -6 247.288 12.7434   8
   3  -9  -6 266.438 13.9685   9
   3  -9  -6 255.714 12.2429   6
  -3  -9   6 263.460 13.8422   1
  -3  -9   6 258.793 11.8168  16
   3   9  -6 280.432 17.5039   2
   3   9  -6 276.671 14.6434  11
  -3   9   6 290.653 16.8810  10
  -3   9   6 258.136 13.2809   7
   3   9  -6 262.820 14.5256  10
  -1  -9   6 366.835 15.4216  13
   1  -9  -6 362.647 15.8172   6
   1  -9  -6 386.060 17.8496   9
  -1  -9   6 348.935 17.1853   1
   1   9  -6 399.118 19.0558  11
   1   9  -6 403.651 21.8535   2
  -1   9   6 400.923 21.0507  10
  -1   9   6 377.535 17.5682   7
   1  -9   6 244.669 14.3038   8
  -1  -9  -6 243.031 12.2464   6
   1  -9   6 229.762 11.7098  13
  -1   9  -6 210.384 11.8141   5
   1   9   6 244.014 16.6237  10
  -1   9  -6 244.466 15.8357   2
  -1   9  -6 222.773 14.3259  11
   1   9   6 232.034 13.1143   7
  -3  -9  -6 267.024 13.7931   6
   3  -9   6 266.327 14.9130   8
  -3   9  -6 243.094 13.7930   5
  -3   9  -6 267.641 15.6460  11
   3   9   6 253.858 16.4534  10
   3   9   6 267.433 14.7359   7
  -8 -10   6 703.619 29.2287   1
   8 -10  -6 687.223 29.6864  14
   8 -10  -6 735.440 27.5931   6
   8 -10  -6 760.071 31.9624   8
  -8 -10   6 734.101 29.5285  12
   8 -10  -6 734.555 36.7627   3
   8  10  -6 746.642 33.3138  10
  -6 -10   6 1862.28 61.8131   1
   6 -10  -6 1777.96 58.9008   6
  -6 -10   6 1836.76 58.5022  16
   6 -10  -6 1806.48 62.4056   9
   6 -10  -6 1824.90 63.0281   8
   6  10  -6 1736.40 64.4589   2
   6  10  -6 1858.81 65.0386  10
   4 -10  -6 1813.74 64.5853   8
   4 -10  -6 1862.35 62.5570   6
   4 -10  -6 1979.77 66.1694   9
  -4 -10   6 1988.52 65.3153   1
  -4 -10   6 1997.09 62.4147  16
  -4  10   6 2041.64 68.2914  10
   4  10  -6 1921.36 69.9043   2
   4  10  -6 2043.22 67.9710  10
   2 -10  -6 1460.70 49.8553   9
   2 -10  -6 1343.40 46.6953   6
  -2 -10   6 1408.36 49.1075   1
   2  10  -6 1449.58 54.4423   2
  -2  10   6 1429.31 52.7218  10
  -2  10   6 1396.57 48.2442   7
   2  10  -6 1383.71 49.8791  11
   0 -10  -6 1716.32 57.6424   6
   0 -10   6 1825.60 61.0958   8
   0  10  -6 1835.86 64.0945   2
   0  10  -6 1669.07 60.3405  11
   0  10   6 1750.68 59.5276   7
   0  10   6 1779.73 64.3159  10
   2 -10   6 1079.35 40.2007   8
  -2 -10  -6 1051.34 37.3122   6
   2  10   6 1050.79 39.0886   7
   2  10   6 1065.55 43.0197  10
  -2  10  -6 975.627 37.2987   5
  -2  10  -6 1036.29 40.3026   2
  -2  10  -6 1008.85 39.5395  11
   7 -11  -6 328.727 15.8609   6
  -7 -11   6 358.627 18.2728   1
   7 -11  -6 364.963 19.8100   8
   7  11  -6 326.772 19.9201  10
   7  11  -6 354.120 25.4852   2
   5 -11  -6 364.916 19.3625   9
  -5 -11   6 348.476 18.1895   1
   5 -11  -6 352.326 16.1627   6
   5 -11  -6 363.144 18.8981   8
   5  11  -6 392.702 21.4165  10
   5  11  -6 412.887 23.6000   2
   3 -11  -6 668.669 26.5070   6
  -3 -11   6 703.495 29.2713   8
   3 -11  -6 711.764 29.6852   9
  -3 -11   6 695.540 28.8577   1
   3  11  -6 741.625 34.3466   2
   3  11  -6 709.176 29.3855  11
  -3  11   6 763.332 32.1702  10
   3  11  -6 714.257 29.7271  10
   1 -11  -6 230.994 12.2196   6
   1 -11  -6 248.619 14.4205   9
  -1 -11   6 221.613 14.5142   8
   1  11  -6 240.970 15.3725  11
   1  11  -6 228.716 17.8299   2
  -1  11   6 242.674 17.4830  10
  -1 -11  -6 57.3809 6.21210   6
   1 -11   6 57.2816 8.36121   8
  -1  11  -6 45.9462 5.88415   5
   1  11   6 53.0241 6.77073   7
  -1  11  -6 53.0472 9.26541   2
   1  11   6 75.4002 11.3088  10
  -1  11  -6 60.0998 8.87057  11
   4 -12  -6 122.778 8.74982   6
   4 -12  -6 152.415 12.0924   9
  -4 -12   6 132.667 10.3176   1
   4  12  -6 135.435 12.1299  10
  -4  12   6 153.672 13.3328   2
   4  12  -6 127.740 14.4323   2
  -4  12   6 146.909 12.7476  10
   2 -12  -6 37.6079 6.47559   9
   2 -12  -6 43.4675 5.56457   6
  -2 -12   6 33.5908 6.41914   8
   2  12  -6 46.5683 9.59522   2
  -2  12   6 50.3042 8.92671  10
   2  12  -6 45.5853 7.40589  11
   0 -12   6 275.787 15.9779   8
   0 -12  -6 282.473 14.4068   6
   0  12   6 256.975 18.6678  10
   0  12  -6 235.096 15.9156  11
   0  12  -6 252.240 18.3122   2
  12   0  -7 -1.4981 2.03262  14
 -12   0   7 3.16627 3.91899  12
  12   0  -7 -2.6015 5.16667   3
 -12   0   7 -2.1894 5.31904   1
  10   0  -7 3.87235 2.35240  14
 -10   0   7 1.09522 2.89216  12
  10   0  -7 0.24995 4.72106   3
 -10   0   7 -1.1242 2.28333  16
 -10   0   7 -0.9458 2.69034   1
  -8   0   7 0.97398 3.00852   1
   8   0  -7 10.7982 2.56526  14
   8   0  -7 -3.2765 3.19409   3
  -8   0   7 -0.3710 1.80823  12
  -8   0   7 3.96011 2.18217  16
  -6   0   7 7.56529 1.99959  13
   6   0  -7 4.41402 1.76171   9
  -6   0   7 0.81092 1.33665  12
   6   0  -7 4.38027 3.42819   3
   6   0  -7 1.09167 1.37466  14
  -6   0   7 3.12983 2.37108   1
  -6   0   7 1.25661 1.59822  16
   4   0  -7 3.97417 1.89953   9
  -4   0   7 0.89863 1.62515  13
  -4   0   7 0.93114 1.51230   1
  -4   0   7 -0.4444 0.69715  16
   4   0  -7 0.28345 0.96549  14
   4   0  -7 1.23615 1.68306   2
   4   0  -7 0.05239 0.83061  11
   4   0  -7 -0.4466 1.65471   3
  -2   0   7 0.45351 1.40651  13
   2   0  -7 1.94075 1.38093   3
   2   0  -7 -0.8927 1.15003  11
  -2   0   7 7.94063 1.61905   1
   2   0  -7 -1.6852 1.61057   2
  -2   0   7 -0.8433 1.46377   4
   0   0  -7 0.76247 2.31178   2
   0   0   7 -0.8854 1.29548   4
   0   0   7 2.63779 1.67048   7
   0   0  -7 1.27091 2.09137  15
   0   0   7 3.94641 1.48010  13
   0   0  -7 3.19636 1.41911   5
   0   0  -7 0.18406 1.35053  11
   2   0   7 1.62549 1.72664   4
  -2   0  -7 -1.1084 2.23532  15
  -2   0  -7 12.7214 3.04228   5
   2   0   7 0.85369 1.33049   7
  -2   0  -7 -0.3129 2.29471  11
   2   0   7 1.33786 1.46238  13
   4   0   7 1.46281 2.38154  13
  -4   0  -7 -0.6396 2.16991  11
   4   0   7 -2.5677 2.88260   4
  -4   0  -7 0.61418 2.83115   5
   6   0   7 0.60522 2.40554   4
  -6   0  -7 -4.3497 3.09682  11
  -6   0  -7 -0.6319 2.36077   5
  11  -1  -7 79.9028 7.46784  14
 -11  -1   7 98.9883 11.1537   1
 -11  -1   7 65.0683 7.44817  12
  11  -1  -7 86.1265 13.9164   3
 -11  -1   7 65.8292 6.94742  16
 -11   1   7 83.9646 10.4372   1
  11   1  -7 82.4802 7.79130  14
 -11   1   7 81.5942 7.51846  12
 -11   1   7 71.2689 7.01337  16
  11   1  -7 76.7628 11.7213   3
   9  -1  -7 8.80641 5.13839   3
  -9  -1   7 4.30801 3.77202   1
  -9  -1   7 2.09284 2.34154  12
   9  -1  -7 3.52176 2.22762  14
  -9  -1   7 5.14671 2.63693  16
   9   1  -7 3.86688 2.41746  14
  -9   1   7 8.14114 2.94616  12
   9   1  -7 1.63710 2.82064   3
  -9   1   7 -0.9157 1.37012  16
  -9   1   7 2.12957 2.52446   1
  -7  -1   7 104.658 7.37794   1
  -7  -1   7 99.7387 5.97411  12
   7  -1  -7 109.479 10.3014   3
   7  -1  -7 97.2229 5.97591   9
   7  -1  -7 107.543 6.56753  14
  -7  -1   7 103.468 6.19117  16
  -7  -1   7 111.474 6.98506  13
  -7   1   7 113.649 6.21803  16
  -7   1   7 97.0312 5.77495  12
   7   1  -7 113.182 10.7098   3
  -7   1   7 99.7741 7.08508   1
   7   1  -7 114.541 6.44532   2
   7   1  -7 98.5890 5.71525   9
   7   1  -7 114.879 6.13689  14
  -5  -1   7 672.310 24.4122   1
   5  -1  -7 669.272 23.1213  14
  -5  -1   7 696.961 22.8770  16
  -5  -1   7 708.668 23.8742  13
   5  -1  -7 691.042 24.4313   9
   5  -1  -7 700.115 28.8374   3
   5   1  -7 704.729 24.8887   2
   5   1  -7 672.533 22.4926  14
   5   1  -7 671.038 23.9781   9
  -5   1   7 732.048 24.0783  13
   5   1  -7 705.754 28.2660   3
  -5   1   7 684.608 24.1865   1
  -5   1   7 702.858 22.6746  16
  -3  -1   7 667.481 22.2472   4
   3  -1  -7 641.089 21.8151  11
  -3  -1   7 614.040 21.8633   1
   3  -1  -7 664.736 23.5282   9
  -3  -1   7 655.540 22.1206  13
  -3  -1   7 637.619 20.8752  16
   3  -1  -7 647.365 24.8493   3
   3   1  -7 653.473 21.8235  11
   3   1  -7 641.051 23.9919   3
  -3   1   7 632.047 20.4137  16
   3   1  -7 675.805 24.3630   2
  -3   1   7 623.658 21.2954   1
   3   1  -7 670.219 22.9919  15
  -3   1   7 668.580 22.5911   4
  -3   1   7 629.072 21.7928  13
  -1  -1   7 273.285 9.79561  16
   1  -1  -7 270.238 10.2387   5
  -1  -1   7 267.301 10.5531   1
   1  -1  -7 274.155 11.8390   3
  -1  -1   7 292.725 11.5236   4
  -1  -1   7 280.651 11.1920  13
   1  -1  -7 287.619 12.0048  11
   1   1  -7 301.785 12.2719  11
   1   1  -7 278.528 10.2211   5
  -1   1   7 266.164 10.7143  13
   1   1  -7 293.257 13.5617   2
   1   1  -7 287.785 13.9596  15
  -1   1   7 265.780 11.4840   4
  -1  -1  -7 22.8514 3.17860   5
   1  -1   7 19.9315 3.29352   4
   1  -1   7 14.5786 2.45806   7
  -1  -1  -7 9.87521 3.07111  11
   1  -1   7 22.4671 3.18718  13
  -1   1  -7 10.1602 3.30415   2
  -1   1  -7 12.7945 2.56181   5
  -1   1  -7 9.05508 3.06249  11
  -1   1  -7 10.5407 3.31985  15
   1   1   7 18.7969 2.80697  13
   1   1   7 9.85275 2.51575   7
   1   1   7 11.8530 2.59384   4
   3  -1   7 11.8570 3.62976   4
  -3  -1  -7 23.3417 4.01214   5
   3  -1   7 15.4795 2.93554  13
  -3  -1  -7 23.5111 4.77453  11
  -3   1  -7 15.5023 3.35689   5
   3   1   7 24.0776 3.49000   7
   3   1   7 15.0100 2.75494  13
  -3   1  -7 14.8427 4.21360  11
   3   1   7 21.2730 4.24855   4
   5  -1   7 190.837 11.5518   4
  -5  -1  -7 185.877 12.0677  11
  -5  -1  -7 198.737 12.4932   5
  -5   1  -7 202.847 12.5529   5
  -5   1  -7 182.040 12.0225  11
   5   1   7 167.455 11.2052   4
  12  -2  -7 351.045 23.7203   3
 -12  -2   7 332.290 17.4905  12
 -12  -2   7 332.294 20.0319   1
  12  -2  -7 361.489 18.3629  14
 -12   2   7 336.410 19.7566   1
  12   2  -7 344.424 16.7212  14
  12   2  -7 329.913 23.7479   3
 -12   2   7 371.731 18.4252  12
  10  -2  -7 396.118 24.3755   3
 -10  -2   7 361.771 16.3472  16
 -10  -2   7 393.680 19.9730   1
 -10  -2   7 380.288 17.5272  12
  10  -2  -7 425.200 18.7381  14
 -10   2   7 373.811 17.4051  12
 -10   2   7 357.181 19.0970   1
 -10   2   7 362.116 16.2441  16
  10   2  -7 402.947 16.9029  14
  10   2  -7 395.206 24.1891   3
   8  -2  -7 677.867 31.2855   3
   8  -2  -7 652.519 24.2081  14
  -8  -2   7 614.969 23.3953  13
  -8  -2   7 597.961 22.4820  16
  -8  -2   7 624.194 25.1980   1
   8  -2  -7 617.635 22.8559   9
  -8  -2   7 636.749 23.1231  12
   8   2  -7 652.969 25.6937  10
   8   2  -7 714.351 31.4146   3
   8   2  -7 636.833 22.6567  14
  -8   2   7 659.921 23.0889  12
  -8   2   7 609.902 24.6796   1
  -8   2   7 609.235 22.4443  16
   6  -2  -7 1129.21 38.2032   9
  -6  -2   7 1127.09 36.8110  12
  -6  -2   7 1140.57 36.9923  16
  -6  -2   7 1185.54 38.0004  13
   6  -2  -7 1157.17 37.8710  14
   6  -2  -7 1174.71 44.7944   3
  -6  -2   7 1141.08 39.0582   1
   6   2  -7 1054.87 37.1414   9
  -6   2   7 1193.04 36.8714  16
  -6   2   7 1187.62 38.8354   1
   6   2  -7 1226.81 40.9361  10
   6   2  -7 1129.59 38.6562   2
   6   2  -7 1251.08 44.5674   3
  -4  -2   7 471.038 18.1000   1
   4  -2  -7 529.261 19.2885   9
   4  -2  -7 472.870 16.3760   6
  -4  -2   7 503.950 17.8221  13
   4  -2  -7 513.551 17.7299  14
   4  -2  -7 497.139 21.9220   3
  -4  -2   7 484.419 16.8484  16
  -4   2   7 513.314 17.7516  13
  -4   2   7 496.226 16.3141  16
   4   2  -7 513.217 19.7033   2
  -4   2   7 467.264 17.2917   1
   4   2  -7 500.843 16.9092  11
   4   2  -7 508.832 20.9217   3
  -2  -2   7 755.866 25.9454   1
  -2  -2   7 801.497 26.0767   4
   2  -2  -7 711.516 24.4598   5
   2  -2  -7 810.393 26.6961  11
   2  -2  -7 852.192 28.2742   9
  -2  -2   7 737.308 24.7691  16
   2  -2  -7 775.868 28.5042   3
  -2  -2   7 758.286 25.9354  13
  -2   2   7 761.030 25.4959  13
   2   2  -7 787.649 26.7170  11
   2   2  -7 814.595 29.0391   2
  -2   2   7 819.107 26.7527   4
   2   2  -7 817.613 28.5135  15
   0  -2   7 1281.76 40.8036   1
   0  -2  -7 1295.91 42.5130  11
   0  -2   7 1270.92 41.0466  13
   0  -2  -7 1255.97 40.7621   5
   0  -2   7 1294.86 41.1870   4
   0  -2  -7 1307.43 42.9942   9
   0  -2   7 1255.60 40.2635   7
   0   2   7 1280.05 41.8738   7
   0   2  -7 1300.46 45.8552  15
   0   2   7 1302.20 41.6896   4
   0   2  -7 1325.34 43.0937  11
   0   2   7 1253.83 40.2632  13
   0   2  -7 1201.70 40.5947   5
   0   2  -7 1332.75 44.4171   2
   2  -2   7 441.184 17.6820   4
   2  -2   7 447.764 17.4054  13
  -2  -2  -7 470.960 19.2926  11
  -2  -2  -7 457.409 18.1442   5
  -2   2  -7 471.380 18.3562   5
   2   2   7 475.527 16.8080  13
   2   2   7 454.514 18.1492   7
  -2   2  -7 456.247 19.7074  11
  -2   2  -7 442.710 19.0200   2
   2   2   7 443.537 18.0173   4
  -2   2  -7 462.023 22.8969  15
   4  -2   7 350.787 15.3049   4
  -4  -2  -7 329.096 16.3240   5
   4  -2   7 340.238 15.1724  13
  -4  -2  -7 372.847 17.6534  11
  -4   2  -7 328.969 16.3518   5
  -4   2  -7 351.523 17.2942  11
   4   2   7 351.294 15.4553   7
   4   2   7 325.279 15.7011   4
  -6  -2  -7 263.696 15.4172  11
   6  -2   7 263.841 13.9070   4
  -6  -2  -7 250.950 15.1947   5
   6   2   7 259.152 13.9329   4
  -6   2  -7 244.192 14.7933   5
  -6   2  -7 229.842 14.7135  11
 -11  -3   7 43.8855 5.77164  13
 -11  -3   7 36.4721 5.17133  16
  11  -3  -7 48.8690 10.1606   3
 -11  -3   7 48.7488 6.53433  12
 -11  -3   7 37.5528 6.84270   1
  11  -3  -7 42.4666 6.70873  14
 -11   3   7 45.2660 8.03679   1
 -11   3   7 44.9962 6.50089  12
  11   3  -7 38.8476 9.02257   3
 -11   3   7 42.3518 5.35850  16
   9  -3  -7 39.7513 5.45966  14
  -9  -3   7 45.3841 5.75338  12
   9  -3  -7 28.6573 4.14265   9
  -9  -3   7 31.3690 4.48354  13
  -9  -3   7 41.1531 6.72545   1
   9  -3  -7 40.1521 8.49665   3
  -9  -3   7 39.2922 4.94431  16
  -9   3   7 37.0009 5.01738  12
   9   3  -7 39.0220 8.48036   3
   9   3  -7 39.0896 6.22453  10
  -9   3   7 35.9123 6.10901   1
  -9   3   7 35.5101 4.53959  16
  -7  -3   7 204.035 11.5274   1
  -7  -3   7 205.998 9.63719  12
   7  -3  -7 214.411 10.6934  14
   7  -3  -7 197.639 10.1383   9
   7  -3  -7 224.754 15.8947   3
  -7  -3   7 195.194 9.22048  16
  -7  -3   7 207.231 9.84250  13
  -7   3   7 210.412 9.65156  12
  -7   3   7 217.960 11.3147   1
  -7   3   7 197.723 9.01681  16
   7   3  -7 197.169 10.0945   2
   7   3  -7 226.306 15.2162   3
   7   3  -7 219.271 12.5453  10
   5  -3  -7 5.77931 2.06467  14
   5  -3  -7 8.49452 1.87788   6
  -5  -3   7 2.94730 2.35436   1
   5  -3  -7 2.60004 3.07923   3
   5  -3  -7 3.89271 1.86883   9
  -5  -3   7 5.34735 2.08546  13
  -5  -3   7 2.74680 1.34579  12
  -5  -3   7 3.87321 1.42276  16
  -5   3   7 4.07301 1.40228  16
   5   3  -7 2.37829 2.15086  10
   5   3  -7 13.6080 3.39408   2
  -5   3   7 7.38994 1.88609  13
  -5   3   7 3.96800 2.01994   1
   5   3  -7 3.60531 3.07351   3
   3  -3  -7 337.400 16.5682   3
   3  -3  -7 325.160 11.8680   6
  -3  -3   7 339.659 13.0765  13
  -3  -3   7 331.604 12.1369  16
   3  -3  -7 357.115 14.7922   9
  -3  -3   7 317.937 13.2183   1
  -3  -3   7 320.691 12.5693   4
  -3   3   7 333.737 12.5955  13
   3   3  -7 353.963 14.3684  15
   3   3  -7 338.104 14.5109   3
   3   3  -7 353.931 15.9620   2
   3   3  -7 327.672 12.9612  11
  -3   3   7 340.828 13.5573   4
   3   3  -7 358.675 15.1230  10
   1  -3  -7 121.003 5.52271   6
   1  -3  -7 117.262 5.89712   5
   1  -3  -7 132.236 8.12104   9
  -1  -3   7 119.549 6.37053   4
  -1  -3   7 121.468 5.74105  16
  -1  -3   7 117.612 6.57228  13
  -1  -3   7 116.656 6.57292   1
   1  -3  -7 129.342 7.40358  11
  -1   3   7 122.039 6.76230   4
   1   3  -7 128.478 9.07910  15
  -1   3   7 130.902 7.49479   7
   1   3  -7 138.417 7.94855  11
  -1   3   7 112.123 5.70878  13
   1   3  -7 136.404 9.28764   2
   1  -3   7 167.238 8.70492  13
  -1  -3  -7 187.584 10.3347   9
   1  -3   7 174.314 8.70222   4
  -1  -3  -7 177.807 9.99548  11
  -1  -3  -7 152.338 7.38362   6
  -1  -3  -7 174.197 8.83453   5
   1   3   7 171.733 7.64765  13
  -1   3  -7 187.934 11.0244   2
   1   3   7 168.080 9.12752   4
  -1   3  -7 191.725 10.5343  11
   1   3   7 172.162 9.56823   7
  -1   3  -7 158.990 8.71943   5
  -1   3  -7 174.723 12.1138  15
   3  -3   7 0.09291 2.51685  13
  -3  -3  -7 3.77081 2.67219   5
  -3  -3  -7 -2.7290 2.70404  11
  -3  -3  -7 6.51761 2.98485   9
   3  -3   7 4.42806 2.36228   4
  -3   3  -7 0.30635 2.36454  11
   3   3   7 0.67359 3.09199   4
   3   3   7 1.26366 2.79197   7
  -3   3  -7 15.6554 3.70380   5
  -3   3  -7 3.61072 2.63281   2
  -5  -3  -7 12.5425 4.74252  11
   5  -3   7 19.2322 4.37836   4
  -5  -3  -7 11.7560 4.30659   5
   5   3   7 17.1650 4.46518   7
  -5   3  -7 15.6416 4.32274   5
   5   3   7 19.0190 4.76934   4
  -5   3  -7 11.7956 4.53553  11
  12  -4  -7 17.1917 5.38749  14
 -12  -4   7 11.0735 3.98311  12
  12  -4  -7 11.9841 6.82366   3
 -12  -4   7 18.2710 6.22165   1
  12   4  -7 8.66901 6.86737   3
 -12   4   7 9.86245 4.52259  12
 -12   4   7 19.1243 6.74587   1
 -10  -4   7 378.701 17.1623  13
 -10  -4   7 389.540 17.0504  16
  10  -4  -7 402.830 19.4307  14
 -10  -4   7 371.064 18.0598  12
 -10  -4   7 394.341 20.4157   1
  10  -4  -7 436.515 25.4547   3
 -10   4   7 384.782 16.8467  16
 -10   4   7 419.313 18.1014  12
  10   4  -7 398.707 19.4411  10
 -10   4   7 410.311 20.5244   1
  10   4  -7 394.694 24.4052   3
   8  -4  -7 537.137 27.9397   3
  -8  -4   7 484.354 18.9871  16
  -8  -4   7 470.203 19.2422  13
  -8  -4   7 490.385 19.7452  12
  -8  -4   7 505.830 21.7089   1
   8  -4  -7 528.089 20.3496   9
   8  -4  -7 515.767 21.0280  14
   8  -4  -7 515.289 21.3821   8
   8   4  -7 537.399 22.7551  10
  -8   4   7 507.281 18.9519  16
  -8   4   7 508.097 21.6779   1
  -8   4   7 504.466 19.5821  12
   6  -4  -7 40.6315 4.87882   9
   6  -4  -7 47.0584 5.34203   8
   6  -4  -7 43.1590 4.96075  14
  -6  -4   7 40.8593 3.94159  12
  -6  -4   7 46.8697 5.52937   1
  -6  -4   7 40.6866 4.19320  13
   6  -4  -7 45.8090 4.03022   6
  -6  -4   7 41.8828 4.12507  16
   6  -4  -7 55.6089 8.54481   3
   6   4  -7 47.1209 5.25818   2
  -6   4   7 57.5447 4.83372   1
   6   4  -7 53.3315 6.76114  10
  -6   4   7 51.7288 3.78686  16
   4  -4  -7 481.867 22.2785   3
   4  -4  -7 447.254 17.1259  14
   4  -4  -7 469.065 18.3555   9
  -4  -4   7 450.687 15.9487  12
  -4  -4   7 427.677 15.9888   4
  -4  -4   7 431.068 17.6259   1
  -4  -4   7 435.868 15.9740  16
   4  -4  -7 443.996 15.8419   6
  -4  -4   7 437.130 16.5047  13
   4   4  -7 460.390 19.5136   2
  -4   4   7 453.294 16.3708  13
   4   4  -7 491.343 20.1354   3
   4   4  -7 498.636 19.6248  10
   4   4  -7 428.137 16.1301  11
  -2  -4   7 405.864 15.9307   1
  -2  -4   7 390.247 14.6146   4
   2  -4  -7 394.986 14.3592   6
   2  -4  -7 405.661 18.7379   3
  -2  -4   7 410.945 15.3413  13
   2  -4  -7 443.051 17.4525   9
  -2  -4   7 395.281 14.4577  16
   2   4  -7 394.005 16.2507  11
   2   4  -7 449.432 19.1525   2
  -2   4   7 390.983 14.2164  13
   2   4  -7 425.847 18.3269  15
  -2   4   7 392.895 15.4960   4
   2   4  -7 407.459 16.4666  10
   0  -4  -7 156.943 7.95626   5
   0  -4  -7 177.690 9.96113   9
   0  -4   7 147.697 7.48405   4
   0  -4   7 149.465 7.89106  13
   0  -4   7 167.243 8.61555   1
   0  -4  -7 150.884 7.18184   6
   0   4   7 171.236 9.21677   7
   0   4  -7 163.782 9.92983  11
   0   4  -7 159.764 11.6178  15
   0   4  -7 155.562 8.12433   5
   0   4  -7 171.128 10.9392   2
   0   4   7 155.168 8.56958   4
   2  -4   7 605.841 22.7557  13
  -2  -4  -7 562.456 21.4095   6
  -2  -4  -7 620.282 23.3843   5
  -2  -4  -7 662.837 24.5401   9
   2  -4   7 651.098 22.5654   4
  -2   4  -7 629.283 24.9988   2
   2   4   7 604.958 23.7035   7
  -2   4  -7 625.775 25.2643  11
   2   4   7 607.136 23.0275   4
  -2   4  -7 588.142 23.4090   5
  -4  -4  -7 144.672 9.74443   5
   4  -4   7 143.598 8.58273   4
   4  -4   7 144.164 9.35121  13
  -4   4  -7 138.136 10.2798  11
   4   4   7 136.210 9.89566   7
   4   4   7 133.171 9.71005   4
  -4   4  -7 139.660 10.0298   5
   6  -4   7 3.32389 3.33618   4
  -6  -4  -7 2.08701 3.47211   5
   6   4   7 4.11607 2.89852   4
  -6   4  -7 4.19489 3.68858   5
   6   4   7 4.34163 3.94571   7
  -6   4  -7 6.57919 4.05951  11
  11  -5  -7 76.1300 8.68245  14
 -11  -5   7 67.5391 8.71800   1
  11  -5  -7 70.9171 11.9841   3
 -11  -5   7 79.3437 8.77027  12
  11   5  -7 69.3094 12.0175   3
 -11   5   7 67.1809 8.00160  12
 -11   5   7 66.3387 9.19041   1
  11   5  -7 69.0579 8.45893  10
   9  -5  -7 732.758 27.6775   9
   9  -5  -7 752.013 29.4182  14
  -9  -5   7 739.273 27.9349  12
  -9  -5   7 689.129 29.2080   1
  -9  -5   7 693.661 26.1348  16
  -9  -5   7 682.074 26.2264  13
   9  -5  -7 728.930 29.5279   8
   9  -5  -7 757.489 35.9163   3
   9   5  -7 728.712 30.1927  10
  -9   5   7 763.013 30.0653   1
  -9   5   7 733.725 26.3633  16
  -9   5   7 756.981 27.4661  12
  -7  -5   7 160.473 8.54451  16
   7  -5  -7 177.665 8.69647   6
   7  -5  -7 158.545 9.77503  14
  -7  -5   7 159.532 8.89780  12
   7  -5  -7 167.675 9.80523   9
  -7  -5   7 162.913 10.0870   1
   7  -5  -7 165.546 10.4916   8
   7  -5  -7 178.935 14.7592   3
  -7  -5   7 163.715 8.58776  13
   7   5  -7 154.211 9.65630   2
  -7   5   7 168.668 8.18170  16
   7   5  -7 184.618 12.3813  10
   5  -5  -7 26.9025 3.84166  14
  -5  -5   7 24.6464 3.18008  13
  -5  -5   7 26.7258 3.35369  12
  -5  -5   7 25.6576 3.08854  16
  -5  -5   7 24.8190 4.30327   1
   5  -5  -7 27.2780 6.25685   3
   5  -5  -7 23.4326 3.87421   8
   5  -5  -7 29.1669 3.35432   6
   5  -5  -7 21.7008 3.94633   9
  -5   5   7 28.4099 3.27734  13
   5   5  -7 32.8163 5.17019  10
   5   5  -7 24.1044 5.00563   2
   3  -5  -7 241.747 10.0173   6
  -3  -5   7 225.206 9.52801   4
  -3  -5   7 236.691 10.4144  13
   3  -5  -7 262.449 15.4721   3
   3  -5  -7 252.938 12.3827   9
  -3   5   7 236.868 10.8338   4
   3   5  -7 244.036 13.8307   2
   3   5  -7 253.387 12.7960  15
  -3   5   7 260.460 9.86715  13
   3   5  -7 260.303 12.7746  10
   3   5  -7 256.409 11.5796  11
  -1  -5   7 42.9195 3.65571   4
   1  -5  -7 51.9217 5.65049   9
   1  -5  -7 41.6396 3.66208   6
  -1  -5   7 42.5594 4.85850   1
  -1  -5   7 38.4723 4.23868  13
  -1   5   7 42.7003 4.48899   4
   1   5  -7 51.2184 5.97306  11
   1   5  -7 38.2963 6.04095  15
  -1   5   7 43.8078 5.25147   7
   1   5  -7 51.4035 6.99314   2
  -1  -5  -7 320.985 13.5898   6
  -1  -5  -7 378.917 16.2661   9
  -1  -5  -7 344.242 14.8401   5
   1  -5   7 345.111 13.6821   4
   1  -5   7 392.329 14.8786  13
  -1   5  -7 363.860 16.7381  11
  -1   5  -7 332.931 14.8274   5
  -1   5  -7 326.228 19.0311  15
  -1   5  -7 353.499 17.2782   2
   1   5   7 349.397 14.7469   4
   1   5   7 331.450 15.4537   7
  -3  -5  -7 521.829 21.1986   5
   3  -5   7 483.781 20.3301   8
   3  -5   7 499.574 19.2928   4
   3  -5   7 496.859 20.1917  13
   3   5   7 487.122 20.2709   4
  -3   5  -7 498.653 22.3014  11
   3   5   7 517.380 21.5932   7
   3   5   7 507.622 22.4331  10
  -3   5  -7 489.632 20.9078   5
  -5  -5  -7 6.98557 3.99906   5
  -5   5  -7 8.01352 4.49213  11
   5   5   7 5.92465 3.94331   4
  -5   5  -7 9.03211 4.09932   5
   5   5   7 6.04143 4.16589   7
  10  -6  -7 92.1553 11.7429   3
  10  -6  -7 93.9560 8.33272   9
  10  -6  -7 94.6382 10.3827   8
 -10  -6   7 85.9233 9.68167   1
  10  -6  -7 91.7057 9.91510  14
 -10  -6   7 85.5124 7.75008  12
  10   6  -7 107.999 10.3470  10
 -10   6   7 72.6607 9.45572   1
  -8  -6   7 108.006 9.35834   1
   8  -6  -7 100.352 8.68210  14
   8  -6  -7 116.626 13.0706   3
  -8  -6   7 93.6554 6.41404  13
   8  -6  -7 115.715 8.89305   9
   8  -6  -7 117.923 9.70951   8
  -8  -6   7 114.549 8.10151  12
   8  -6  -7 110.367 7.62091   6
  -8  -6   7 110.228 7.44507  16
  -8   6   7 92.9283 6.55662  16
   8   6  -7 125.094 10.1944  10
   6  -6  -7 57.4993 5.60444   9
  -6  -6   7 45.6657 4.39051  16
  -6  -6   7 53.8435 4.82432  13
  -6  -6   7 54.2394 4.72067  12
  -6  -6   7 48.8201 5.91364   1
   6  -6  -7 58.1060 6.44858   8
   6  -6  -7 50.2010 8.94149   3
   6  -6  -7 52.1506 5.54418  14
   6  -6  -7 57.4882 5.03978   6
   6   6  -7 59.8083 7.87909  10
   6   6  -7 60.8058 7.30131   2
   4  -6  -7 820.119 35.6143   3
   4  -6  -7 822.411 29.6290   8
  -4  -6   7 838.077 28.3997  13
  -4  -6   7 839.555 30.3360   1
   4  -6  -7 860.596 30.8317   9
   4  -6  -7 831.570 28.1119   6
  -4  -6   7 839.776 28.1756  16
   4   6  -7 920.605 32.6222  10
  -4   6   7 820.340 28.9356   4
   4   6  -7 865.837 33.1007   2
   4   6  -7 788.266 28.9212  11
  -2  -6   7 438.942 16.8335  13
   2  -6  -7 443.220 16.4289   6
  -2  -6   7 417.504 16.1273  16
   2  -6  -7 461.756 18.9088   9
  -2  -6   7 419.632 17.8070   1
   2   6  -7 421.334 20.5079  15
   2   6  -7 458.176 18.4188  10
   2   6  -7 455.013 19.0004  11
   2   6  -7 472.331 21.4151   2
  -2   6   7 432.955 18.4481   7
  -2   6   7 439.410 16.9344   4
   0  -6  -7 1.64230 2.69147   9
   0  -6   7 -1.0476 1.39009  13
   0  -6   7 0.94914 2.59246   1
   0  -6  -7 -0.2523 1.53677   6
   0   6  -7 3.11608 2.64300  11
   0   6   7 4.04884 2.24951   7
   0   6  -7 2.43966 3.28547  15
   0   6  -7 1.32980 2.26539   5
   0   6  -7 0.24356 3.53879   2
   0   6   7 1.35632 1.67384   4
  -2  -6  -7 153.096 8.55315   6
   2  -6   7 163.243 9.63607  13
  -2  -6  -7 176.584 10.3436   5
   2   6   7 156.882 11.2929  10
  -2   6  -7 164.013 10.8821  11
  -2   6  -7 166.617 11.3715   2
   2   6   7 151.146 9.04491   4
   2   6   7 171.664 11.0495   7
  -2   6  -7 158.477 9.89820   5
  -4  -6  -7 118.797 8.43524   6
  -4  -6  -7 130.342 10.0749   5
   4  -6   7 124.536 9.43667   8
  -4   6  -7 123.804 9.73389  11
   4   6   7 131.577 8.81553   4
  -4   6  -7 116.705 9.45262   5
   4   6   7 132.150 10.2840   7
 -11  -7   7 69.1786 8.54959  12
  11  -7  -7 77.4800 8.49531  14
  11  -7  -7 67.3068 11.0233   3
  11  -7  -7 73.5335 9.10100   8
   9  -7  -7 35.4328 6.01024   9
   9  -7  -7 38.8778 8.31778   3
  -9  -7   7 31.7444 5.61596  12
   9  -7  -7 44.3589 6.96792   8
   9  -7  -7 34.7276 6.14728  14
  -9  -7   7 39.7193 6.27407   1
  -9  -7   7 28.9779 4.43663  16
  -9   7   7 31.2472 4.27192  16
   9   7  -7 36.4679 6.89893  10
  -7  -7   7 270.339 12.2985  16
  -7  -7   7 261.857 14.5014   1
   7  -7  -7 250.432 14.4622   8
   7  -7  -7 261.199 11.8932   6
   7  -7  -7 261.965 14.0943  14
   7  -7  -7 277.204 19.9686   3
  -7  -7   7 251.260 12.8698  12
   7  -7  -7 266.074 14.2219   9
   7   7  -7 290.119 16.8417  10
   7   7  -7 251.800 14.5272   2
   5  -7  -7 82.0696 7.22437   8
   5  -7  -7 73.4784 5.30863   6
  -5  -7   7 70.0843 5.33114  13
  -5  -7   7 68.9490 5.96674  12
   5  -7  -7 76.6190 6.74771  14
  -5  -7   7 75.3700 5.36653  16
   5  -7  -7 66.7725 6.36998   9
   5  -7  -7 85.2929 10.0732   3
  -5  -7   7 74.4009 7.46924   1
   5   7  -7 71.5662 8.18952  10
  -5   7   7 69.4809 5.82315   4
   5   7  -7 75.7328 9.16615   2
   3  -7  -7 51.4473 6.33288   9
   3  -7  -7 31.7363 3.94152   6
  -3  -7   7 35.0644 3.74483  16
  -3  -7   7 36.1410 5.19366   1
  -3  -7   7 37.7413 4.17610  13
   3   7  -7 31.2192 6.97178   2
  -3   7   7 45.7073 5.85315   7
  -3   7   7 29.6269 3.87619   4
   3   7  -7 52.5760 6.08776  10
   3   7  -7 38.8525 5.53456  11
  -1  -7   7 166.076 10.2644   1
  -1  -7   7 179.492 9.23823  13
   1  -7  -7 197.613 11.3762   9
   1  -7  -7 166.701 8.92740   6
  -1   7   7 173.486 9.36362   4
   1   7  -7 174.565 12.6477  15
   1   7  -7 200.053 13.0524   2
   1   7  -7 197.033 12.0635  11
  -1   7   7 180.256 11.0537   7
   1  -7   7 218.170 11.1873  13
  -1  -7  -7 226.405 11.1153   6
  -1  -7  -7 253.797 12.9976   9
   1   7   7 234.016 13.2597   7
  -1   7  -7 207.994 11.5119   5
  -1   7  -7 216.182 12.9195  11
   1   7   7 239.330 14.8405  10
   1   7   7 229.355 11.5224   4
  -1   7  -7 252.697 14.6411   2
   3  -7   7 12.5609 4.36929   8
  -3  -7  -7 10.7618 3.31461   5
   3  -7   7 9.00702 3.09528  13
  -3  -7  -7 8.28982 3.08417   6
   3   7   7 12.3125 3.25170   4
   3   7   7 17.7209 4.37111   7
   3   7   7 10.2597 4.03604  10
  -3   7  -7 12.2205 4.55874  11
  -3   7  -7 15.5161 4.42067   5
  10  -8  -7 40.8981 7.61642   8
 -10  -8   7 50.0753 7.24520  12
  10  -8  -7 58.6377 10.9246   3
  10  -8  -7 55.8130 8.20540  14
 -10  -8   7 44.9364 7.78368   1
  10   8  -7 49.6643 7.58832  10
   8  -8  -7 75.6712 6.45142   6
  -8  -8   7 90.0241 8.32445   1
  -8  -8   7 89.5933 8.08872  12
   8  -8  -7 111.992 14.9785   3
   8  -8  -7 83.9135 9.30158   8
   8  -8  -7 81.4151 8.62941   9
   8  -8  -7 79.0905 8.47695  14
  -8  -8   7 87.4014 6.47597  16
   8   8  -7 86.1546 10.2045  10
   6  -8  -7 708.124 28.6448   8
  -6  -8   7 714.097 25.8119  16
  -6  -8   7 701.356 26.7884  12
   6  -8  -7 684.429 27.9461  14
  -6  -8   7 704.487 28.3222   1
   6  -8  -7 725.858 26.1192   6
   6  -8  -7 753.979 36.2643   3
   6  -8  -7 724.321 28.6233   9
   6   8  -7 708.317 30.5450   2
   6   8  -7 778.779 31.4221  10
   4  -8  -7 567.060 22.4938   8
   4  -8  -7 537.056 20.7594   6
   4  -8  -7 587.655 23.5224   9
  -4  -8   7 525.491 22.6596   1
  -4  -8   7 537.201 20.3406  13
  -4  -8   7 546.274 20.5056  16
  -4   8   7 571.618 22.7296   7
   4   8  -7 602.129 27.3046   2
   4   8  -7 594.995 24.6072  10
  -2  -8   7 396.080 16.2339  13
   2  -8  -7 394.993 16.2589   6
  -2  -8   7 375.313 17.7549   1
   2  -8  -7 413.471 18.6338   9
  -2   8   7 399.141 18.2318   7
   2   8  -7 398.520 18.7340  11
   2   8  -7 397.476 17.6822  10
   2   8  -7 425.938 21.5217   2
   2   8  -7 444.686 27.1629  15
   0  -8   7 423.590 17.4548  13
   0  -8  -7 457.596 19.3561   9
   0  -8  -7 406.104 17.1073   6
   0   8   7 411.971 21.7392  10
   0   8   7 421.430 19.4829   7
   0   8  -7 428.127 20.3068  11
   0   8  -7 375.176 17.1848   5
   0   8  -7 445.103 22.0566   2
   2  -8   7 79.8610 6.66944  13
   2  -8   7 66.7733 7.50497   8
  -2  -8  -7 75.7372 6.85142   6
   2   8   7 87.7494 8.90879   7
  -2   8  -7 67.8718 7.13133   5
  -2   8  -7 77.5865 7.72266  11
   2   8   7 83.2484 10.0875  10
  -2   8  -7 75.2552 8.42876   2
   4  -8   7 125.926 10.2087   8
  -4  -8  -7 134.585 9.06706   6
   4   8   7 120.110 11.4124  10
  -4   8  -7 125.874 9.83994   5
   4   8   7 124.470 10.2417   7
  -4   8  -7 133.828 10.2292  11
   9  -9  -7 8.15149 3.97666  14
  -9  -9   7 11.5454 4.98549   1
   9  -9  -7 -0.2201 4.20528   8
  -9  -9   7 4.02531 3.80557  12
   9  -9  -7 3.03860 5.91361   3
   9   9  -7 2.12500 4.82457  10
   7  -9  -7 44.1897 7.24168   8
   7  -9  -7 40.0121 9.57859   3
   7  -9  -7 34.2548 5.68318   9
  -7  -9   7 36.7231 5.86831  12
   7  -9  -7 39.6037 5.30835   6
  -7  -9   7 42.6476 6.09648   1
   7  -9  -7 38.2808 6.47946  14
  -7  -9   7 36.5056 4.74712  16
   7   9  -7 35.1023 6.70949  10
   7   9  -7 33.0845 6.64913   2
  -5  -9   7 143.104 8.27583  16
   5  -9  -7 140.942 8.48123   6
   5  -9  -7 162.076 10.7949   9
   5  -9  -7 150.072 10.4873   8
  -5  -9   7 134.282 10.3748   1
  -5   9   7 153.195 9.88301   7
   5   9  -7 150.210 11.9375  10
   5   9  -7 152.542 12.6355   2
   3  -9  -7 60.4083 5.85049   6
   3  -9  -7 56.1298 7.35431   9
  -3  -9   7 54.3462 7.12195   1
  -3   9   7 67.0715 6.96604   7
   3   9  -7 60.4109 7.25045  11
   3   9  -7 71.8432 7.22172  10
   3   9  -7 67.7965 9.43147   2
   1  -9  -7 120.414 9.60514   9
  -1  -9   7 129.047 9.65829   1
   1  -9  -7 113.433 7.49748   6
  -1  -9   7 120.443 7.56314  13
  -1   9   7 128.348 12.2813  10
  -1   9   7 112.150 9.52532   7
   1   9  -7 101.808 9.09734  11
   1   9  -7 114.694 12.0203   2
   1  -9   7 52.2250 5.66654  13
   1  -9   7 45.9234 7.15815   8
  -1  -9  -7 43.7055 5.44368   6
  -1   9  -7 34.2499 5.21138   5
  -1   9  -7 42.3367 7.32520  11
  -1   9  -7 49.0283 7.33259   2
   1   9   7 39.0043 5.96149   7
   1   9   7 46.9156 7.94234  10
   3  -9   7 0.16550 3.74513   8
  -3  -9  -7 3.12361 2.98046   6
  -3   9  -7 1.02448 2.45220   5
   3   9   7 -0.6953 4.06675   7
  -3   9  -7 4.04236 4.58465  11
   3   9   7 3.46757 4.42207  10
  -8 -10   7 -2.7775 3.15537  12
  -8 -10   7 0.57083 3.70421   1
   8 -10  -7 -0.2112 2.34774  14
   8 -10  -7 6.44754 3.61121   9
   8 -10  -7 1.62238 5.50787   3
   8 -10  -7 -0.5250 4.04488   8
   8 -10  -7 -0.3914 3.35222   6
   8  10  -7 0.94265 4.95415  10
  -6 -10   7 4.92168 4.12198   1
   6 -10  -7 11.8619 4.46938   8
   6 -10  -7 2.45050 3.41141   6
   6 -10  -7 3.33114 3.56936   9
  -6  10   7 4.95365 4.12278  10
   6  10  -7 5.51748 4.10173  10
   6  10  -7 8.75309 5.71678   2
  -4 -10   7 102.675 7.54614  16
  -4 -10   7 106.025 8.80395   1
   4 -10  -7 106.643 10.2475   9
   4 -10  -7 110.947 8.09752   6
  -4  10   7 130.386 12.2656  10
   4  10  -7 112.255 12.8646   2
   4  10  -7 109.058 10.8206  10
  -2 -10   7 76.5456 7.65153   1
   2 -10  -7 63.4627 6.50332   6
   2 -10  -7 87.8377 8.88091   9
  -2  10   7 86.0170 11.3289  10
  -2  10   7 71.3613 7.95740   7
   2  10  -7 80.8012 8.93037  11
   2  10  -7 93.4014 11.9327   2
   0 -10   7 19.3696 4.81429  13
   0 -10   7 20.1858 5.60882   8
   0 -10  -7 16.5750 3.53314   6
   0  10   7 21.4413 7.42626  10
   0  10  -7 16.5620 5.42602   2
   0  10  -7 32.9084 6.05878  11
   0  10   7 12.3585 4.81658   7
  -2 -10  -7 7.90881 3.57275   6
   2 -10   7 6.65591 4.86505   8
   2  10   7 10.5487 5.70802  10
  -2  10  -7 5.23007 4.40647  11
   2  10   7 -1.1466 3.99945   7
  -2  10  -7 12.4532 3.47619   2
   5 -11  -7 65.5375 8.21018   9
  -5 -11   7 64.2870 8.35925   1
   5 -11  -7 53.4803 5.85097   6
   5  11  -7 69.0560 9.79798  10
   5  11  -7 60.6224 9.26820   2
  -5  11   7 54.4723 8.37504  10
   3 -11  -7 162.173 10.0918   6
   3 -11  -7 170.616 11.9938   9
  -3 -11   7 166.931 12.1896   1
  -3  11   7 164.669 13.3308  10
   3  11  -7 149.803 13.9656   2
  -1 -11   7 127.680 11.2531   8
   1 -11  -7 132.174 9.26099   6
  -1  11   7 120.456 10.1403   7
   1  11  -7 121.807 10.2788  11
  -1  11   7 134.429 12.5282  10
  12   0  -8 2137.58 81.7922   3
 -12   0   8 2061.66 73.6696   1
 -12   0   8 2096.30 69.9939  12
 -10   0   8 1230.10 42.9723  12
 -10   0   8 1192.33 42.3869  16
  10   0  -8 1341.79 54.6298   3
 -10   0   8 1246.21 46.3523   1
  10   0  -8 1325.29 43.9608  14
  -8   0   8 2416.24 77.6952   1
  -8   0   8 2364.97 76.0458  13
  -8   0   8 2367.27 74.6339  16
   8   0  -8 2448.78 85.5574   3
   8   0  -8 2435.90 75.2086  14
   6   0  -8 3668.33 110.050  14
  -6   0   8 3657.52 109.868  16
  -6   0   8 3701.92 112.112   1
   6   0  -8 3735.54 118.886   3
  -6   0   8 3809.61 111.596  13
   6   0  -8 3338.04 111.221   9
   4   0  -8 3688.43 118.543   9
   4   0  -8 3733.24 120.964   3
  -4   0   8 4122.97 118.121   4
   4   0  -8 3804.52 119.502   2
  -4   0   8 3993.38 115.796  16
  -4   0   8 3998.38 117.292   1
  -4   0   8 4047.98 117.545  13
   4   0  -8 3668.05 116.396  11
   2   0  -8 5952.53 183.077  11
   2   0  -8 5771.62 185.240   2
  -2   0   8 6120.53 180.333  16
  -2   0   8 6353.50 182.401  13
  -2   0   8 6353.48 183.028   4
   0   0   8 3762.38 111.952   4
   0   0  -8 3623.47 113.122  11
   0   0   8 3597.00 110.806  13
   2   0   8 1128.18 37.7205  13
   2   0   8 1155.33 38.9406   4
  -2   0  -8 1189.10 41.1822  11
   2   0   8 1103.12 37.7469   7
  -2   0  -8 1118.32 38.8211   5
   4   0   8 1626.08 51.9911  13
  -4   0  -8 1556.47 54.1769   5
  -4   0  -8 1586.30 55.6836  11
   4   0   8 1575.26 52.8779   4
 -11  -1   8 384.602 18.4796  13
 -11  -1   8 396.656 17.7595  16
 -11  -1   8 412.725 18.7711  12
 -11  -1   8 397.733 21.3567   1
  11  -1  -8 435.711 27.2959   3
  11  -1  -8 422.270 19.3933  14
 -11   1   8 400.347 18.1224  12
  11   1  -8 395.564 18.2682  14
  11   1  -8 433.587 27.0451   3
 -11   1   8 381.208 17.6079  16
 -11   1   8 415.381 21.7061   1
  -9  -1   8 561.597 22.4776  13
   9  -1  -8 593.357 22.6640  14
  -9  -1   8 538.944 20.9828  16
  -9  -1   8 552.845 21.4633  12
   9  -1  -8 573.781 30.1002   3
  -9  -1   8 540.523 23.9468   1
  -9   1   8 556.723 24.2668   1
   9   1  -8 590.045 29.7127   3
   9   1  -8 599.558 21.8034  14
  -9   1   8 572.845 21.3723  16
  -7  -1   8 182.315 8.74107  16
   7  -1  -8 198.063 9.34712  14
  -7  -1   8 194.878 9.71791  13
  -7  -1   8 161.520 10.2151   1
   7  -1  -8 181.709 9.29002   9
   7  -1  -8 189.859 14.5205   3
   7   1  -8 181.095 8.39173  14
   7   1  -8 176.432 8.80308   9
  -7   1   8 177.343 9.75465  13
  -7   1   8 180.160 10.3771   1
  -7   1   8 181.592 8.44413  16
   7   1  -8 191.654 9.74612   2
   7   1  -8 216.293 15.0986   3
   5  -1  -8 1245.50 41.1801   9
   5  -1  -8 1258.52 45.7580   3
  -5  -1   8 1128.40 39.9125   1
   5  -1  -8 1191.64 39.1031  14
  -5  -1   8 1212.35 39.9145  13
  -5  -1   8 1197.89 38.5774  16
  -5   1   8 1249.13 40.0947   1
  -5   1   8 1297.72 40.1917  13
   5   1  -8 1284.68 45.3277   3
   5   1  -8 1240.85 38.5064  14
  -5   1   8 1192.28 38.3007  16
   5   1  -8 1266.58 41.8766   2
   5   1  -8 1197.03 40.5597   9
  -3  -1   8 1206.37 40.3569   1
  -3  -1   8 1249.13 39.2296  16
  -3  -1   8 1302.20 41.1150   4
   3  -1  -8 1263.91 40.8609  11
   3  -1  -8 1338.92 43.0666   9
  -3  -1   8 1296.25 40.9183  13
   3  -1  -8 1200.74 43.1616   3
  -3   1   8 1292.90 41.3550   4
  -3   1   8 1244.26 38.7308  16
  -3   1   8 1277.22 40.7395  13
   3   1  -8 1273.31 40.8917  11
   3   1  -8 1302.86 43.7895   2
   1  -1  -8 295.956 13.0965  11
  -1  -1   8 287.803 12.0487  13
  -1  -1   8 279.697 11.3484   1
  -1  -1   8 297.069 12.3586   4
   1   1  -8 308.325 13.5075  11
  -1   1   8 293.346 12.5816   4
  -1   1   8 290.654 12.5144   7
   1   1  -8 305.098 15.3230  15
  -1   1   8 287.193 11.8026  13
   1   1  -8 296.368 14.7731   2
   1  -1   8 726.938 25.8144  13
  -1  -1  -8 765.060 28.1082  11
   1  -1   8 713.903 25.2259   7
   1  -1   8 728.423 26.3850   4
  -1  -1  -8 748.243 26.0662   5
   1   1   8 751.748 26.7346   4
  -1   1  -8 727.655 31.3052  15
  -1   1  -8 726.107 26.0327   5
   1   1   8 764.110 26.4129   7
   1   1   8 732.531 25.3909  13
  -1   1  -8 727.059 28.0784  11
  -3  -1  -8 422.759 18.0087   5
   3  -1   8 396.409 16.5839  13
   3  -1   8 380.225 16.6831   4
  -3  -1  -8 412.107 18.9031  11
   3   1   8 401.127 17.1468   4
  -3   1  -8 399.594 19.0240  11
  -3   1  -8 378.094 17.5463   5
   3   1   8 382.641 16.3057   7
   3   1   8 383.610 15.7047  13
  -5  -1  -8 95.7812 9.73145  11
   5  -1   8 99.6626 8.01159   4
  -5  -1  -8 101.984 9.29595   5
   5   1   8 98.4181 8.69899   4
  -5   1  -8 75.3752 8.37358   5
  -5   1  -8 103.316 9.31628  11
 -12  -2   8 137.620 13.2076   1
 -12  -2   8 136.565 10.3644  13
  12  -2  -8 157.874 11.6887  14
  12  -2  -8 164.213 17.2547   3
 -12   2   8 146.044 13.4268   1
  12   2  -8 145.128 16.4968   3
 -10  -2   8 190.389 10.5474  16
 -10  -2   8 169.674 12.7793   1
 -10  -2   8 186.722 11.0578  13
 -10  -2   8 187.211 10.8130  12
  10  -2  -8 185.136 11.7652  14
  10  -2  -8 206.315 17.8030   3
 -10   2   8 186.721 10.0634  16
  10   2  -8 194.845 17.0273   3
 -10   2   8 199.775 13.2281   1
  -8  -2   8 1272.82 44.7544   1
   8  -2  -8 1295.80 52.0445   3
  -8  -2   8 1261.18 43.0480  13
  -8  -2   8 1202.33 41.6972  12
   8  -2  -8 1230.44 42.4566   9
  -8  -2   8 1286.06 42.0761  16
   8  -2  -8 1369.59 43.6885  14
  -8   2   8 1287.40 41.8393  16
  -8   2   8 1292.10 44.5657   1
   8   2  -8 1419.61 52.4828   3
   6  -2  -8 1196.82 41.5669   9
  -6  -2   8 1245.81 41.0741  13
  -6  -2   8 1227.31 39.8963  16
   6  -2  -8 1239.69 40.6712  14
   6  -2  -8 1242.74 47.9997   3
  -6  -2   8 1219.05 41.9313   1
  -6   2   8 1258.41 39.5880  16
   6   2  -8 1179.91 40.7649   9
   6   2  -8 1284.13 42.7209   2
   6   2  -8 1353.46 47.8394   3
  -6   2   8 1286.49 41.6819   1
  -6   2   8 1307.88 41.4220  13
   4  -2  -8 79.1884 6.46991   9
  -4  -2   8 75.3417 5.35865   4
  -4  -2   8 67.4177 5.39253   1
  -4  -2   8 74.1674 4.55798  16
  -4  -2   8 76.6105 5.20814  13
   4  -2  -8 72.0253 6.96801   3
   4   2  -8 80.2943 6.86006   3
   4   2  -8 76.1943 4.66041  11
  -4   2   8 74.4177 3.79101  16
  -4   2   8 74.7739 5.25506  13
  -4   2   8 80.0589 5.85882   4
   4   2  -8 89.9276 7.22079   2
  -2  -2   8 464.931 17.2004   4
  -2  -2   8 447.355 17.0674  13
   2  -2  -8 452.441 19.1441   3
  -2  -2   8 433.101 15.6254  16
   2  -2  -8 493.166 19.4909   9
  -2  -2   8 427.025 16.6146   1
   2  -2  -8 459.635 17.7705  11
  -2   2   8 469.853 16.7483  13
  -2   2   8 462.719 17.6865   4
   2   2  -8 471.825 17.9528  11
   2   2  -8 479.512 19.9543  15
   2   2  -8 477.919 20.2590   2
   0  -2  -8 781.305 26.6612   5
   0  -2   8 745.181 26.8688  13
   0  -2  -8 766.047 28.5457  11
   0  -2  -8 822.436 29.5812   9
   0  -2   8 792.226 27.3267   4
   0   2   8 792.390 27.7945   4
   0   2  -8 786.516 32.2011  15
   0   2  -8 808.221 30.5290   2
   0   2  -8 802.286 29.2949  11
   0   2   8 788.422 27.9797   7
   0   2   8 755.198 26.1947  13
  -2  -2  -8 445.231 19.0407   9
  -2  -2  -8 404.965 17.2940   5
   2  -2   8 414.640 17.0206   4
   2  -2   8 390.964 16.3719  13
  -2  -2  -8 404.116 18.4915  11
   2   2   8 398.216 17.1237   7
   2   2   8 393.045 15.6002  13
  -2   2  -8 461.942 19.5736   2
  -2   2  -8 387.499 17.1647   5
  -2   2  -8 399.531 19.0169  11
   2   2   8 384.056 17.2046   4
  -4  -2  -8 515.932 22.9145   5
   4  -2   8 527.375 21.3262  13
  -4  -2  -8 546.213 24.1073  11
   4  -2   8 526.422 21.6470   4
   4   2   8 555.291 22.4475   4
  -4   2  -8 503.921 22.5996   5
  -4   2  -8 554.796 24.2553  11
   4   2   8 517.962 21.2746   7
 -11  -3   8 1093.38 42.8112   1
 -11  -3   8 1029.87 38.7884  13
 -11  -3   8 1115.82 39.5381  12
  11  -3  -8 1185.73 41.5877  14
  11  -3  -8 1137.43 50.1123   3
 -11   3   8 1012.08 40.2603  16
 -11   3   8 1096.56 42.6921   1
  11   3  -8 1104.31 49.3346   3
  -9  -3   8 1874.41 62.2399  13
   9  -3  -8 1996.65 63.8567  14
  -9  -3   8 1905.52 61.9234  12
  -9  -3   8 1875.64 61.4177  16
   9  -3  -8 1824.59 61.6496   9
  -9  -3   8 1841.13 64.7656   1
   9  -3  -8 1933.00 73.0600   3
   9   3  -8 2102.27 73.5729   3
  -9   3   8 1949.09 64.6508   1
   9   3  -8 1955.27 65.7035  10
  -9   3   8 1957.17 61.4410  16
  -7  -3   8 1664.20 56.2042   1
  -7  -3   8 1650.05 53.6766  16
  -7  -3   8 1624.46 53.4518  12
  -7  -3   8 1661.39 54.6073  13
   7  -3  -8 1652.17 55.2162   9
   7  -3  -8 1656.62 54.9191  14
   7  -3  -8 1707.64 63.6832   3
   7   3  -8 1651.33 55.6482   2
   7   3  -8 1755.68 58.5393  10
  -7   3   8 1709.88 53.2936  16
  -7   3   8 1696.64 55.6226   1
   7   3  -8 1935.31 63.9940   3
  -7   3   8 1805.42 55.4339  13
  -5  -3   8 2549.72 77.6973  13
   5  -3  -8 2511.23 84.4290   3
   5  -3  -8 2367.79 75.8690   6
  -5  -3   8 2614.91 78.8960   1
   5  -3  -8 2467.99 79.1319   9
   5  -3  -8 2582.79 77.7450  14
  -5  -3   8 2566.88 76.6292  16
   5   3  -8 2693.68 83.0966   3
   5   3  -8 2400.85 79.9568   2
  -5   3   8 2622.34 77.6258  13
  -5   3   8 2144.21 77.7412   1
   5   3  -8 2577.12 81.1186  10
   3  -3  -8 2267.94 76.8660   3
   3  -3  -8 2391.74 75.2603   9
  -3  -3   8 2350.02 72.8123  13
  -3  -3   8 2429.96 73.4475   1
  -3  -3   8 2383.03 72.5608   4
  -3  -3   8 2349.11 71.5484  16
  -3   3   8 2383.14 73.4104   4
   3   3  -8 2279.07 73.0199  11
   3   3  -8 2349.95 76.4189   2
  -3   3   8 2394.99 72.2403  13
   3   3  -8 2309.23 74.6407  15
  -1  -3   8 1474.78 48.6152  13
  -1  -3   8 1506.80 48.7497   1
   1  -3  -8 1529.98 47.7998   5
   1  -3  -8 1565.35 50.1995  11
  -1  -3   8 1529.69 48.6032   4
   1  -3  -8 1586.02 51.4657   9
   1   3  -8 1538.16 50.5467  11
  -1   3   8 1512.34 49.3305   4
   1   3  -8 1597.72 52.9539   2
   1   3  -8 1487.59 53.1681  15
  -1   3   8 1481.59 49.8485   7
  -1   3   8 1481.87 47.6154  13
  -1  -3  -8 2025.20 66.5348   5
  -1  -3  -8 2148.30 68.8906  11
  -1  -3  -8 2272.30 69.7019   9
   1  -3   8 2095.34 66.5277   4
   1  -3   8 2097.07 66.6525  13
  -1   3  -8 2021.41 66.7869   5
  -1   3  -8 2158.81 69.8579  11
  -1   3  -8 2179.91 70.2342   2
   1   3   8 2151.30 67.8275   7
  -1   3  -8 1962.48 72.8311  15
   1   3   8 2137.04 67.4188   4
  -3  -3  -8 1521.05 50.1210   5
  -3  -3  -8 1515.19 51.5422  11
   3  -3   8 1439.24 48.4340  13
   3  -3   8 1450.06 48.4863   4
   3   3   8 1467.36 49.1040   4
  -3   3  -8 1458.92 51.6382  11
  -3   3  -8 1400.36 49.4623   5
   3   3   8 1432.70 49.2024   7
  -5  -3  -8 529.980 23.5007   5
   5  -3   8 486.865 20.5473   4
   5   3   8 515.106 21.8102   4
  -5   3  -8 512.384 22.7721   5
   5   3   8 503.442 21.3571   7
  -5   3  -8 522.146 23.7092  11
  12  -4  -8 212.785 19.1446   3
 -12  -4   8 184.544 13.8841   1
 -12  -4   8 188.568 12.7986  12
  12  -4  -8 197.402 13.8416  14
 -12   4   8 183.177 14.6274   1
  12   4  -8 186.917 18.1682   3
 -10  -4   8 14.7358 3.27046  13
 -10  -4   8 14.8499 3.56203  12
  10  -4  -8 12.1700 5.78545   3
 -10  -4   8 12.9765 4.33607   1
 -10  -4   8 15.1670 3.82563  16
  10  -4  -8 28.0365 5.92610  14
  10   4  -8 13.9875 4.18502  10
 -10   4   8 16.0684 4.32782   1
 -10   4   8 10.9155 2.82239  16
  10   4  -8 19.9909 6.39928   3
  -8  -4   8 9.19269 3.26010   1
   8  -4  -8 8.30577 4.48311   3
  -8  -4   8 8.65314 2.63833  12
  -8  -4   8 8.23619 2.27594  16
   8  -4  -8 10.1720 3.10394  14
   8  -4  -8 9.24612 3.04268   9
  -8  -4   8 9.79492 2.93223  13
   8   4  -8 15.0193 4.81013  10
  -8   4   8 7.38887 2.74584   1
  -8   4   8 12.0202 2.70257  16
   8   4  -8 18.2569 6.45779   3
   6  -4  -8 89.8807 5.50353   6
  -6  -4   8 79.8762 5.33462  12
  -6  -4   8 87.4641 5.84627  13
   6  -4  -8 79.2574 5.91380  14
   6  -4  -8 92.8526 9.81027   3
  -6  -4   8 77.0372 6.53088   1
  -6  -4   8 88.6971 5.50474  16
   6  -4  -8 85.3010 6.98864   9
  -6   4   8 90.7146 5.07357  16
   6   4  -8 105.796 10.2433   3
   6   4  -8 87.3769 7.13462   2
   6   4  -8 91.7979 8.80719  10
  -6   4   8 75.8562 6.01932   1
  -6   4   8 110.988 6.45268  13
   4  -4  -8 185.985 8.31886   6
   4  -4  -8 224.883 14.2791   3
  -4  -4   8 204.661 9.50470  13
  -4  -4   8 196.974 9.01945   4
  -4  -4   8 209.178 8.98807  16
   4  -4  -8 210.653 10.9823   9
  -4  -4   8 201.304 10.3762   1
  -4   4   8 206.445 10.0215   4
   4   4  -8 208.155 12.1789   2
  -4   4   8 192.922 8.99850  13
   4   4  -8 227.235 12.1664  10
   4   4  -8 187.713 8.95492  11
   2  -4  -8 561.138 21.9184   9
  -2  -4   8 521.782 18.3597  16
  -2  -4   8 501.638 19.8313   1
   2  -4  -8 500.150 18.0079   6
  -2  -4   8 529.725 18.8701   4
  -2  -4   8 545.463 19.6707  13
  -2   4   8 493.536 18.1009  13
  -2   4   8 535.589 21.0170   7
   2   4  -8 558.039 23.5026   2
  -2   4   8 541.812 20.1248   4
   2   4  -8 522.374 22.6495  15
   2   4  -8 557.779 20.9398  11
   0  -4  -8 218.249 12.0485   9
   0  -4   8 205.741 9.93242  13
   0  -4  -8 199.554 9.73243   5
   0  -4   8 194.387 9.38145   4
   0   4  -8 206.311 11.8840  11
   0   4  -8 184.467 13.4341  15
   0   4  -8 199.372 12.6219   2
   0   4   8 210.549 11.3894   7
   0   4   8 203.930 10.3184   4
  -2  -4  -8 9.29493 3.30588   5
   2  -4   8 3.59183 2.87940   4
   2  -4   8 6.69192 2.55783  13
  -2  -4  -8 3.36187 3.12896   9
   2   4   8 5.42964 2.74330   7
   2   4   8 8.00832 3.01351   4
  -2   4  -8 11.5132 3.63360  11
  -2   4  -8 6.25252 3.38569   2
  -2   4  -8 4.89636 2.23704   5
   4  -4   8 39.4331 5.13435  13
  -4  -4  -8 41.6384 6.23888   5
   4  -4   8 43.9646 5.72057   4
  -4   4  -8 31.4987 5.57481   5
  -4   4  -8 28.8701 6.18577  11
   4   4   8 40.5329 5.99117   7
   4   4   8 48.4751 5.87793   4
 -11  -5   8 364.574 20.1531   1
  11  -5  -8 366.172 24.4347   3
  11  -5  -8 400.844 20.1935  14
 -11  -5   8 344.203 17.4833  12
  11   5  -8 403.908 20.3530  10
 -11   5   8 370.916 20.1492   1
  11   5  -8 387.670 25.6421   3
  -9  -5   8 334.143 15.5032  12
  -9  -5   8 331.395 15.0501  13
   9  -5  -8 344.635 22.5898   3
   9  -5  -8 339.157 16.1747   9
   9  -5  -8 371.555 17.4259  14
  -9  -5   8 332.173 17.7439   1
  -9  -5   8 331.148 14.9173  16
   9   5  -8 381.689 23.2658   3
  -9   5   8 343.097 14.7153  16
   9   5  -8 350.290 19.0428  10
  -9   5   8 338.228 17.5224   1
   7  -5  -8 372.458 16.4530   9
  -7  -5   8 349.332 14.6514  13
  -7  -5   8 345.027 14.5266  12
   7  -5  -8 351.942 14.3680   6
   7  -5  -8 361.024 21.9378   3
  -7  -5   8 340.322 16.4292   1
  -7  -5   8 351.261 14.5489  16
   7  -5  -8 351.101 16.1983  14
   7   5  -8 386.325 19.1161  10
   7   5  -8 337.957 16.6321   2
   7   5  -8 394.564 21.4485   3
  -7   5   8 365.034 15.4753  13
  -7   5   8 338.565 15.5505   1
  -5  -5   8 857.118 31.5697   1
   5  -5  -8 866.564 30.9890  14
   5  -5  -8 881.767 29.3994   6
   5  -5  -8 903.860 37.9473   3
  -5  -5   8 862.596 29.5991  16
  -5  -5   8 841.990 30.0380  13
   5  -5  -8 877.002 32.0886   9
  -5  -5   8 910.303 29.8277  12
   5   5  -8 867.229 33.5227   2
   5   5  -8 938.404 34.4300  10
   5   5  -8 968.470 35.7679   3
  -5   5   8 852.708 29.6987  13
  -5   5   8 884.845 31.0569   4
   3  -5  -8 1281.06 48.0315   3
   3  -5  -8 1320.40 44.6403   9
  -3  -5   8 1249.77 41.1363   4
  -3  -5   8 1276.01 43.2322   1
   3  -5  -8 1303.12 41.2866   6
  -3  -5   8 1319.34 42.3998  13
  -3  -5   8 1272.39 41.2541  16
   3   5  -8 1368.19 44.7725  10
   3   5  -8 1258.45 43.0428  11
   3   5  -8 1314.74 46.7892   2
  -3   5   8 1315.66 42.9956   4
   1  -5  -8 696.094 26.8738   9
   1  -5  -8 661.741 23.2522   6
  -1  -5   8 663.105 24.3916  13
  -1  -5   8 687.095 23.6080   4
  -1  -5   8 677.095 25.1285   1
  -1   5   8 683.756 24.8220   4
  -1   5   8 670.675 25.9311   7
   1   5  -8 694.837 26.5855  11
   1   5  -8 735.430 28.9312   2
   1   5  -8 667.188 28.9587  15
  -1  -5  -8 370.863 16.1362   5
  -1  -5  -8 419.001 18.1282   9
   1  -5   8 368.632 15.1847   4
  -1  -5  -8 336.476 14.6332   6
   1  -5   8 383.238 15.9948  13
  -1   5  -8 384.262 18.6806   2
   1   5   8 354.466 16.0010   4
   1   5   8 387.004 17.4232   7
  -1   5  -8 387.407 18.1769  11
  -3  -5  -8 358.717 16.8473   5
   3  -5   8 345.624 15.9152  13
   3  -5   8 323.681 15.9680   8
  -3   5  -8 342.842 17.7008  11
  -3   5  -8 325.748 16.1456   5
   3   5   8 348.815 16.7056   7
   3   5   8 343.013 16.2310   4
  10  -6  -8 1275.03 46.4390  14
 -10  -6   8 1211.97 43.7814  12
  10  -6  -8 1195.97 44.0413   9
  10  -6  -8 1320.33 55.0690   3
 -10  -6   8 1230.16 46.4002   1
 -10   6   8 1230.30 46.1003   1
  10   6  -8 1329.15 53.9325   3
  10   6  -8 1263.60 47.5626  10
  -8  -6   8 2025.61 65.4872  13
  -8  -6   8 2030.96 66.0231  12
   8  -6  -8 1971.07 67.4184   9
   8  -6  -8 2127.70 68.6524  14
   8  -6  -8 2091.32 65.3420   6
  -8  -6   8 2045.57 65.4428  16
   8  -6  -8 2074.66 77.5292   3
  -8  -6   8 2043.72 68.7751   1
   8  -6  -8 2099.25 69.1861   8
   8   6  -8 2083.18 70.9985  10
   6  -6  -8 2383.83 78.3275   9
  -6  -6   8 2500.55 76.2796  12
   6  -6  -8 2403.20 77.7678  14
  -6  -6   8 2433.61 78.5486   1
   6  -6  -8 2465.72 75.7169   6
  -6  -6   8 2438.16 75.7875  16
  -6  -6   8 2453.36 76.0661  13
   6  -6  -8 2504.38 87.4012   3
   6   6  -8 2537.70 81.4272  10
  -6   6   8 2421.63 75.9605  13
   6   6  -8 2282.52 79.5266   2
  -4  -6   8 1845.13 59.3402  16
   4  -6  -8 1893.28 59.3785   6
   4  -6  -8 1903.99 62.8535   9
   4  -6  -8 1955.59 69.0808   3
  -4  -6   8 1786.20 61.3879   1
  -4  -6   8 1936.60 60.1886  13
   4   6  -8 2010.90 64.0444  10
   4   6  -8 1913.98 65.5261   2
  -4   6   8 1853.27 60.4973   4
   2  -6  -8 1516.86 50.9690   9
  -2  -6   8 1476.72 47.2950  16
   2  -6  -8 1443.02 47.2803   6
  -2  -6   8 1501.16 49.4673   1
  -2  -6   8 1469.79 48.2275  13
  -2   6   8 1475.01 48.6009   4
  -2   6   8 1519.84 50.6833   7
   2   6  -8 1452.88 49.9790  11
   2   6  -8 1528.68 53.5741   2
   0  -6  -8 1867.72 60.6956   6
   0  -6  -8 1926.93 63.9212   9
   0  -6   8 1961.08 61.9111  13
   0   6  -8 1882.51 64.4497  11
   0   6   8 1959.57 63.9013   7
   0   6   8 1919.33 62.1671   4
   0   6  -8 2000.40 66.3728   2
   2  -6   8 1718.81 55.3020  13
  -2  -6  -8 1727.33 56.1299   5
  -2   6  -8 1643.41 57.5583  11
  -2   6  -8 1486.30 55.0127   5
   2   6   8 1750.49 57.2514   7
   2   6   8 1700.85 55.4407   4
  -4  -6  -8 977.065 36.5580   5
  -4   6  -8 923.142 35.4068   5
   4   6   8 986.221 35.2450   4
  -4   6  -8 922.689 37.0158  11
   4   6   8 977.380 36.0959   7
  -9  -7   8 266.565 16.1323   1
   9  -7  -8 287.373 21.7431   3
   9  -7  -8 283.136 15.2557   9
   9  -7  -8 257.534 15.5811   8
   9  -7  -8 253.076 15.5697  14
   9   7  -8 277.805 17.1716  10
   7  -7  -8 463.266 20.4995   9
   7  -7  -8 456.267 27.0235   3
  -7  -7   8 419.483 17.6345  16
  -7  -7   8 458.146 20.3346   1
   7  -7  -8 442.139 20.3862   8
  -7  -7   8 431.642 17.5430  13
   7  -7  -8 430.626 17.3955   6
  -7  -7   8 447.738 18.5127  12
   7  -7  -8 442.039 19.8365  14
   7   7  -8 494.009 23.3655  10
   7   7  -8 406.731 20.4366   2
  -5  -7   8 118.007 7.17792  13
   5  -7  -8 122.337 9.44179   9
   5  -7  -8 115.106 12.7039   3
  -5  -7   8 119.428 9.12016   1
  -5  -7   8 134.468 7.63493  16
   5  -7  -8 130.671 7.32157   6
   5   7  -8 131.770 10.8299  10
  -5   7   8 118.783 7.97368   4
   5   7  -8 122.169 11.1559   2
   3  -7  -8 106.063 8.70827   9
  -3  -7   8 95.7409 6.79308  13
  -3  -7   8 97.1833 6.56371  16
  -3  -7   8 88.7393 7.79617   1
   3  -7  -8 102.319 6.53207   6
   3   7  -8 101.476 8.55089  10
   3   7  -8 102.369 8.12430  11
  -3   7   8 95.4457 8.28206   7
  -3   7   8 97.6898 6.65234   4
   3   7  -8 115.539 11.3602   2
  -1  -7   8 229.178 11.7016  13
   1  -7  -8 264.576 13.9212   9
  -1  -7   8 219.845 12.4328   1
   1  -7  -8 212.601 10.4226   6
   1   7  -8 247.323 15.6477   2
   1   7  -8 225.412 12.8329  11
  -1   7   8 228.880 13.2295   7
  -1   7   8 241.143 11.5252   4
  -1  -7  -8 211.706 10.7045   6
   1  -7   8 196.505 11.3881  13
   1   7   8 212.914 13.1992   7
  -1   7  -8 223.075 14.3576   2
  -1   7  -8 201.610 13.2567  11
   1   7   8 225.245 15.1719  10
   1   7   8 209.546 11.5172   4
   3  -7   8 267.429 13.9839  13
   3  -7   8 260.366 14.3838   8
  -3   7  -8 267.400 15.7289  11
   3   7   8 264.235 13.9213   4
   3   7   8 260.678 15.4421   7
   3   7   8 275.778 16.6768  10
 -10  -8   8 569.832 26.2821   1
  10  -8  -8 624.467 27.5028   8
  10  -8  -8 572.549 32.1300   3
  10  -8  -8 565.090 25.7673  14
 -10  -8   8 536.691 23.5901  12
  10  -8  -8 539.007 23.9234   9
  10   8  -8 520.701 26.0736  10
   8  -8  -8 371.578 24.6695   3
   8  -8  -8 330.840 17.3044   9
   8  -8  -8 335.731 17.1646  14
  -8  -8   8 296.352 16.5219   1
   8  -8  -8 306.233 17.7688   8
   8  -8  -8 318.590 14.8239   6
   8   8  -8 317.834 19.3804  10
   6  -8  -8 545.469 21.2186   6
  -6  -8   8 545.971 23.7814   1
   6  -8  -8 574.502 24.0278   9
  -6  -8   8 546.416 20.9420  16
   6  -8  -8 517.457 23.2054   8
   6  -8  -8 537.957 30.5518   3
   6   8  -8 614.267 26.3744  10
   6   8  -8 520.735 25.5093   2
  -4  -8   8 1172.51 42.0077   1
   4  -8  -8 1170.37 42.7980   9
  -4  -8   8 1195.62 39.5888  16
  -4  -8   8 1185.67 39.6778  13
   4  -8  -8 1164.83 39.5518   6
   4   8  -8 1185.25 46.2231   2
   4   8  -8 1206.06 43.4870  10
  -4   8   8 1228.39 42.5071   7
   2  -8  -8 859.741 30.0343   6
  -2  -8   8 808.561 31.6832   1
  -2  -8   8 850.857 30.3266  13
   2  -8  -8 893.586 33.2054   9
   2   8  -8 835.519 32.7372  11
  -2   8   8 863.174 32.8841   7
   2   8  -8 900.342 36.6580   2
   0  -8  -8 734.090 26.9668   6
   0  -8   8 743.035 27.5801  13
   0  -8  -8 765.951 29.4012   9
   0   8  -8 766.282 31.4860   2
   0   8   8 760.752 29.7898   7
   0   8  -8 698.249 29.3457  11
   0   8   8 714.013 32.5371  10
   2  -8   8 518.779 23.0144   8
  -2  -8  -8 463.265 20.1126   6
   2  -8   8 511.669 21.1148  13
   2   8   8 484.072 22.8584   7
  -2   8  -8 489.074 22.6139  11
   2   8   8 519.828 25.0704  10
  -2   8  -8 517.034 23.0935   2
   9  -9  -8 392.883 21.0040   8
  -9  -9   8 376.474 20.1542   1
   9  -9  -8 411.663 27.1557   3
  -9  -9   8 353.229 17.8676  12
   9  -9  -8 361.673 16.7445   6
   9  -9  -8 357.533 18.8740   9
   9  -9  -8 380.578 19.7480  14
   9   9  -8 388.455 21.9030  10
   7  -9  -8 775.658 28.1969   6
   7  -9  -8 773.367 31.9230   8
  -7  -9   8 721.034 30.2810   1
   7  -9  -8 784.213 38.8981   3
   7  -9  -8 786.433 31.6362   9
   7   9  -8 710.910 31.9416   2
   7   9  -8 806.700 34.1227  10
   5  -9  -8 869.290 34.0776   9
  -5  -9   8 826.970 30.2245  16
  -5  -9   8 864.661 33.4784   1
   5  -9  -8 845.211 30.5546   6
   5   9  -8 910.013 35.5746  10
   5   9  -8 879.500 37.0820   2
  -5   9   8 855.484 32.6755   7
   3  -9  -8 1315.82 44.3047   6
  -3  -9   8 1379.54 44.3470  13
   3  -9  -8 1370.38 47.8202   9
  -3  -9   8 1357.11 47.0441   1
   3   9  -8 1344.42 51.0685   2
   3   9  -8 1278.02 46.3669  10
  -3   9   8 1329.07 46.9198   7
   3   9  -8 1223.76 46.0087  11
   1  -9  -8 1272.92 44.1263   6
  -1  -9   8 1350.72 44.5878  13
   1  -9  -8 1351.80 47.1809   9
  -1   9   8 1324.21 47.4351   7
   1   9  -8 1269.66 47.1891  11
  -1   9   8 1308.34 51.4551  10
   1   9  -8 1322.65 49.9737   2
  -1  -9  -8 392.957 17.3540   6
   1  -9   8 383.256 17.4356  13
   1  -9   8 388.009 19.8500   8
  -1   9  -8 405.412 20.5356   2
   1   9   8 410.773 22.7023  10
  -1   9  -8 347.125 18.6133  11
   1   9   8 388.526 19.6825   7
   6 -10  -8 26.0644 4.86154   6
   6 -10  -8 29.2975 5.98184   8
   6 -10  -8 28.6880 6.10091   9
  -6 -10   8 25.4870 5.81790   1
  -6  10   8 34.4599 6.70508  10
   6  10  -8 35.6479 7.01032   2
   6  10  -8 30.0585 6.99880  10
  -4 -10   8 69.8793 8.47075   1
   4 -10  -8 72.7515 7.91833   9
   4 -10  -8 78.1625 6.98060   6
  -4  10   8 66.7211 7.34326   7
  -4  10   8 78.7026 10.2030  10
   4  10  -8 70.5621 10.4908   2
   4  10  -8 88.0756 9.23550  10
  -2 -10   8 14.3925 4.93328   1
   2 -10  -8 9.95331 4.25606   9
   2 -10  -8 7.48598 3.24361   6
  -2  10   8 7.87230 4.15331   7
   2  10  -8 7.86572 4.26257  11
   2  10  -8 12.7315 6.13745   2
  -2  10   8 5.40294 3.92085  10
   0 -10   8 7.71244 4.91746   8
   0 -10   8 12.7238 3.87409  13
   0 -10  -8 10.6943 3.66842   6
   0  10  -8 8.92928 4.16121   2
   0  10  -8 8.65276 4.48895  11
   0  10   8 5.51325 4.37730   7
   0  10   8 17.9493 6.21028  10
   5 -11  -8 235.388 12.8167   6
   5 -11  -8 252.426 15.7914   9
  -5 -11   8 212.057 14.5472   1
  -5  11   8 264.458 17.0358  10
   5  11  -8 252.304 15.9609  10
   5  11  -8 218.011 16.9879   2
  -3 -11   8 141.071 11.9111   1
   3 -11  -8 152.004 9.47763   6
   3 -11  -8 162.403 11.8636   9
   3  11  -8 165.092 13.9773   2
  -3  11   8 178.207 15.1866  10
 -12   0   9 2.66608 3.66285  13
  12   0  -9 7.09098 6.92589   3
 -12   0   9 -6.3119 4.33727   1
  12   0  -9 0.58851 3.31938  14
  10   0  -9 0.79690 2.54687  14
 -10   0   9 3.26817 4.10697   1
  10   0  -9 2.65384 5.02214   3
 -10   0   9 0.46097 1.60695  16
 -10   0   9 1.12308 3.21657  13
  -8   0   9 4.74851 2.42924  13
   8   0  -9 2.51336 2.00959   9
   8   0  -9 5.65059 1.98964  14
   8   0  -9 4.73666 3.78102   3
  -8   0   9 1.78605 3.15939   1
  -8   0   9 1.31860 2.01186  16
   6   0  -9 0.90246 2.35344   3
   6   0  -9 2.33298 2.13020   9
  -6   0   9 -0.1249 2.04704   1
  -6   0   9 2.68286 2.30486  13
  -6   0   9 -0.4907 1.50412  16
   6   0  -9 -0.5553 1.31494  14
  -4   0   9 1.22761 1.14501  16
  -4   0   9 1.32352 1.62134   1
  -4   0   9 0.77554 2.12097  13
   4   0  -9 0.63973 2.05868   3
   4   0  -9 2.31119 1.59848  11
   4   0  -9 1.77574 2.44512   9
  -4   0   9 2.45492 2.28941   4
  -2   0   9 -0.3412 1.53045   4
  -2   0   9 1.41692 1.54220  13
   2   0  -9 -0.4680 2.01386  11
   0   0  -9 -0.4110 2.38937  11
   0   0   9 3.02422 2.22601   7
   0   0   9 -0.8901 1.95708  13
   0   0   9 2.97875 2.71256   4
  -2   0  -9 0.21391 2.28685  11
  -2   0  -9 7.60495 2.85192   5
   2   0   9 -2.5017 2.11071  13
   2   0   9 0.86218 2.26258   4
  -4   0  -9 5.74970 3.67559   5
   4   0   9 -0.0309 3.79041   4
  -4   0  -9 -0.5020 3.64569  11
 -11  -1   9 159.195 13.2250   1
  11  -1  -9 185.710 17.1285   3
 -11  -1   9 164.054 10.7439  13
  11  -1  -9 184.355 11.3474  14
  11   1  -9 194.522 18.5041   3
 -11   1   9 174.752 13.5686   1
 -11   1   9 171.756 11.6538  13
 -11   1   9 163.271 11.3566  16
  -9  -1   9 67.5171 7.05176  13
   9  -1  -9 83.5664 6.88038  14
  -9  -1   9 81.6154 8.80043   1
  -9  -1   9 71.3390 6.09508  16
   9  -1  -9 60.9573 10.4079   3
  -9   1   9 73.4089 8.55193   1
   9   1  -9 80.9470 12.5113   3
  -9   1   9 85.5682 7.55796  13
  -9   1   9 76.3715 6.21667  16
  -7  -1   9 6.54695 3.23570   1
   7  -1  -9 4.51169 2.17890  14
  -7  -1   9 2.37433 2.01571  16
  -7  -1   9 5.44602 2.79743  13
   7  -1  -9 5.74943 4.49361   3
   7  -1  -9 4.53319 2.36935   9
   7   1  -9 6.54600 2.07702   9
  -7   1   9 3.73664 1.98519  16
   7   1  -9 8.88451 3.02595   2
  -7   1   9 9.45574 3.21994   1
  -7   1   9 5.41104 2.39321  13
   7   1  -9 9.25769 4.74308   3
   5  -1  -9 28.1862 5.76254   3
  -5  -1   9 16.0914 2.92112   1
  -5  -1   9 22.0765 2.76846  16
  -5  -1   9 19.0133 3.13921  13
   5  -1  -9 21.7262 4.05079   9
  -5  -1   9 19.6258 3.25888   4
  -5   1   9 27.7720 2.69655  16
  -5   1   9 22.7160 3.35261  13
   5   1  -9 23.2490 4.13442   9
  -5   1   9 20.0336 3.74647   4
   5   1  -9 23.9894 4.03221   2
  -5   1   9 28.3791 3.63400   1
   5   1  -9 22.8395 4.64999   3
   3  -1  -9 432.735 17.0648  11
  -3  -1   9 412.250 14.9471  16
  -3  -1   9 445.667 17.0790  13
  -3  -1   9 420.523 16.1854   1
   3  -1  -9 468.466 19.4254   9
  -3  -1   9 428.051 17.1498   4
  -3   1   9 429.987 16.5063  13
   3   1  -9 442.610 19.6561   2
  -3   1   9 458.367 17.7337   4
   3   1  -9 442.548 17.1255  11
   1  -1  -9 420.812 17.8256  11
  -1  -1   9 400.674 16.1458   7
  -1  -1   9 424.393 16.8859   4
  -1  -1   9 403.652 16.2095  13
   1   1  -9 459.058 20.2016   2
  -1   1   9 407.698 16.8859   4
   1   1  -9 402.577 19.9012  15
  -1   1   9 398.193 15.8217  13
  -1   1   9 429.459 17.2333   7
   1   1  -9 437.495 18.1903  11
  -1  -1  -9 51.8240 6.79064  11
   1  -1   9 52.8211 5.27219  13
   1  -1   9 59.5317 5.90281   4
  -1   1  -9 61.9530 7.05033  11
   1   1   9 53.7615 5.25955  13
   1   1   9 66.4449 5.99384   7
   1   1   9 60.1651 6.47145   4
  -3  -1  -9 15.0241 4.16606   5
  -3  -1  -9 15.1867 5.14702  11
   3  -1   9 14.2238 3.59751   4
  -3  -1  -9 17.1271 4.85358   9
   3  -1   9 19.5724 3.60513  13
  -3   1  -9 17.0666 4.40030  11
   3   1   9 13.2747 3.69809   4
   3   1   9 14.0152 3.01416  13
  -3   1  -9 19.4029 4.47854   5
 -12  -2   9 122.719 10.3568  13
 -12  -2   9 142.439 13.2007   1
  12  -2  -9 166.100 12.0030  14
  12  -2  -9 157.477 17.4971   3
 -12   2   9 145.394 13.1130   1
  12   2  -9 154.157 17.0904   3
  10  -2  -9 275.350 14.4189  14
 -10  -2   9 259.889 15.7941   1
 -10  -2   9 245.995 13.6573  13
 -10  -2   9 253.474 12.7081  16
  10  -2  -9 300.725 21.8993   3
 -10   2   9 259.472 15.7694   1
  10   2  -9 272.168 20.6432   3
 -10   2   9 259.186 12.7141  16
 -10   2   9 260.727 14.2121  13
  -8  -2   9 785.999 30.3625   1
   8  -2  -9 813.827 28.7442  14
   8  -2  -9 824.114 37.8364   3
  -8  -2   9 780.592 28.6190  13
  -8  -2   9 775.532 27.4236  16
   8  -2  -9 760.610 28.4478   9
   8   2  -9 714.989 28.6632   2
  -8   2   9 813.946 27.3496  16
  -8   2   9 790.137 29.8141   1
   8   2  -9 849.818 37.2358   3
  -8   2   9 810.273 29.0914  13
  -6  -2   9 559.650 21.6346  13
  -6  -2   9 563.337 22.3880   1
   6  -2  -9 609.501 28.3992   3
   6  -2  -9 544.107 20.9749  14
  -6  -2   9 586.470 20.4544  16
   6  -2  -9 583.707 22.7803   9
  -6   2   9 562.064 21.4817  13
  -6   2   9 559.839 19.7309  16
   6   2  -9 576.069 23.3574   2
   6   2  -9 666.896 28.1397   3
   6   2  -9 570.041 21.9736   9
  -4  -2   9 466.892 18.5677   1
  -4  -2   9 490.853 17.3240  16
  -4  -2   9 481.621 18.5873   4
   4  -2  -9 537.954 21.2159   9
   4  -2  -9 476.503 22.0493   3
  -4  -2   9 506.774 18.8547  13
  -4   2   9 504.751 19.4870   4
   4   2  -9 478.245 18.1342  11
  -4   2   9 506.901 18.5877  13
   4   2  -9 532.811 22.1233   2
   2  -2  -9 755.114 28.2615   9
  -2  -2   9 677.530 24.6496   1
  -2  -2   9 710.703 25.4362   4
  -2  -2   9 714.435 25.3660  13
   2  -2  -9 702.456 26.0334  11
  -2   2   9 737.988 26.0206   4
   2   2  -9 708.110 26.2242  11
   2   2  -9 745.493 29.1761   2
  -2   2   9 696.673 24.5398  13
   2   2  -9 701.538 28.2641  15
   0  -2  -9 335.512 15.6548  11
   0  -2   9 313.734 13.9631  13
   0  -2  -9 354.491 17.0040   9
   0  -2   9 308.574 13.9209   4
   0   2   9 309.206 13.0996  13
   0   2  -9 322.511 18.3622  15
   0   2   9 347.402 15.1495   7
   0   2  -9 335.475 17.1053   2
   0   2  -9 321.869 15.8528  11
   0   2   9 330.901 14.6852   4
  -2  -2  -9 357.971 17.7564   9
   2  -2   9 316.740 14.5773  13
  -2  -2  -9 345.043 15.7460   5
   2  -2   9 332.938 15.4138   4
  -2  -2  -9 318.933 17.1457  11
   2   2   9 339.094 15.5592   7
  -2   2  -9 338.825 17.7756  11
   2   2   9 335.497 16.0056   4
  -4  -2  -9 318.627 17.3595  11
   4  -2   9 311.715 14.9124  13
   4  -2   9 288.097 15.1203   4
   4   2   9 300.900 15.6280   4
  -4   2  -9 277.677 15.6525   5
  -4   2  -9 330.274 18.0253  11
  11  -3  -9 83.5229 13.3731   3
 -11  -3   9 72.1837 9.73496   1
  11  -3  -9 90.3176 8.35606  14
 -11  -3   9 84.8954 8.14211  13
  11   3  -9 90.2690 13.4837   3
 -11   3   9 93.2539 9.40598   1
  -9  -3   9 44.8699 5.61726  13
   9  -3  -9 47.6191 9.23489   3
   9  -3  -9 37.3493 4.89613   9
  -9  -3   9 40.6977 6.77679   1
  -9  -3   9 41.5016 4.86515  16
   9  -3  -9 44.6812 6.07682  14
  -9   3   9 49.1953 5.18324  16
  -9   3   9 39.1829 6.54390   1
   9   3  -9 46.7676 9.15432   3
  -9   3   9 40.9855 5.50539  13
   7  -3  -9 223.882 11.8638   9
  -7  -3   9 200.357 9.77905  16
  -7  -3   9 217.391 11.8871   1
   7  -3  -9 220.485 16.9122   3
   7  -3  -9 206.854 10.8831  14
  -7  -3   9 210.435 10.7623  13
  -7   3   9 237.756 11.6633  13
  -7   3   9 216.345 9.69753  16
  -7   3   9 229.787 11.7207   1
   7   3  -9 242.306 16.3717   3
   7   3  -9 223.252 12.3820   2
  -5  -3   9 -0.3291 2.39707   1
  -5  -3   9 0.06819 1.73790  16
  -5  -3   9 1.24405 2.24882  13
  -5  -3   9 0.79763 2.13139   4
   5  -3  -9 11.9630 4.02294   3
   5  -3  -9 -0.8991 2.34756   9
  -5   3   9 4.46029 2.32310  13
   5   3  -9 0.36992 1.86460   2
  -5   3   9 4.85166 2.67785   4
   3  -3  -9 0.67096 1.73143   3
  -3  -3   9 8.92104 2.33873  13
  -3  -3   9 0.35627 1.98457   4
  -3  -3   9 1.04428 1.98980   1
   3  -3  -9 -0.3722 2.54802   9
  -3  -3   9 0.95660 1.10533  16
  -3   3   9 0.81686 1.66725  13
   3   3  -9 0.26300 1.85068  11
   3   3  -9 2.17815 3.25079   2
  -3   3   9 1.62234 1.76404   4
  -1  -3   9 15.9758 3.49668   4
   1  -3  -9 14.2760 3.67257   9
  -1  -3   9 14.9915 2.85392   1
  -1  -3   9 15.3661 3.43698  13
   1   3  -9 19.8750 4.56129  15
  -1   3   9 11.1968 2.20546  13
   1   3  -9 11.6719 4.43844   2
   1   3  -9 15.4227 3.54513  11
  -1   3   9 25.9824 4.22689   7
  -1   3   9 13.8954 3.12873   4
  -1  -3  -9 10.8794 3.41265  11
   1  -3   9 18.4446 3.50680  13
  -1  -3  -9 15.9768 4.45957   9
   1  -3   9 9.73695 3.41826   4
  -1  -3  -9 9.55211 2.95262   5
  -1   3  -9 19.4799 4.68177  11
  -1   3  -9 11.9878 3.59289   2
   1   3   9 14.9757 4.19127   7
   1   3   9 12.7222 3.35953   4
   3  -3   9 68.7521 7.10389   4
  -3  -3  -9 100.584 8.31922   5
   3  -3   9 88.8673 7.23485  13
   3   3   9 91.7328 7.84722   4
  -3   3  -9 97.4039 8.98513  11
   3   3   9 92.5845 8.33151   7
  10  -4  -9 209.141 18.9307   3
 -10  -4   9 161.223 9.83605  16
  10  -4  -9 191.593 12.4414  14
 -10  -4   9 192.722 11.1213  13
 -10  -4   9 157.775 11.8164   1
 -10   4   9 168.676 9.61003  16
 -10   4   9 194.849 12.9788   1
  10   4  -9 212.530 17.5061   3
  -8  -4   9 87.1065 6.55131  16
  -8  -4   9 89.1667 8.44405   1
   8  -4  -9 89.4862 7.52533   9
   8  -4  -9 94.2534 7.80517  14
   8  -4  -9 96.1709 12.1586   3
  -8  -4   9 82.8762 6.53402  13
   8   4  -9 91.8456 7.66466   2
  -8   4   9 79.9461 7.00856  16
  -8   4   9 91.4977 7.47489   1
  -8   4   9 96.7782 7.69788  13
   8   4  -9 100.495 12.0599   3
   8   4  -9 103.981 10.1914  10
  -6  -4   9 437.584 17.7156  13
   6  -4  -9 425.117 18.9653   9
   6  -4  -9 427.928 16.0054   6
  -6  -4   9 422.746 18.7936   1
   6  -4  -9 433.892 23.7946   3
  -6  -4   9 452.505 17.2013   4
  -6  -4   9 418.096 16.5983  16
   6  -4  -9 414.006 17.6861  14
   6   4  -9 437.275 20.0185   2
   6   4  -9 476.908 22.9033   3
   6   4  -9 471.999 21.3773  10
  -6   4   9 435.370 17.4098  13
  -4  -4   9 254.395 10.6359  16
   4  -4  -9 253.051 15.5503   3
  -4  -4   9 256.194 11.1110   4
   4  -4  -9 268.598 13.5349   9
  -4  -4   9 241.937 11.9567   1
  -4  -4   9 247.335 11.6691  13
   4   4  -9 198.363 11.6762  11
  -4   4   9 259.881 11.9802   4
   4   4  -9 258.838 14.8715   2
  -4   4   9 254.380 10.8279  13
  -2  -4   9 4.15971 2.54380  13
  -2  -4   9 5.04769 2.60107   1
  -2  -4   9 4.20776 1.93774  16
  -2  -4   9 5.40047 1.95760   4
   2  -4  -9 8.77697 2.99810   9
  -2   4   9 5.24273 3.07436   7
   2   4  -9 8.53113 4.15005   2
   2   4  -9 6.91418 2.65764  15
   2   4  -9 6.73999 2.95906  11
  -2   4   9 6.58996 2.38458   4
   0  -4   9 234.493 12.1821  13
   0  -4  -9 264.211 14.2500   9
   0  -4   9 241.732 11.6810   4
   0   4   9 253.288 13.4794   7
   0   4   9 231.678 12.5610   4
   0   4  -9 274.803 14.7178  11
   0   4  -9 262.193 15.5566   2
   2  -4   9 211.617 11.3763   4
  -2  -4  -9 212.035 11.5183   5
   2  -4   9 197.956 11.0878  13
  -2   4  -9 202.952 13.6747  11
   2   4   9 222.472 12.0391   4
   2   4   9 206.090 11.9977   7
  -2   4  -9 225.939 13.3086   2
  -4  -4  -9 19.8316 4.80111   5
   4   4   9 25.5060 4.75440   4
  -4   4  -9 31.8244 5.80123  11
   4   4   9 40.0499 6.31304   7
  11  -5  -9 91.4234 13.7693   3
 -11  -5   9 101.089 10.8040   1
  11  -5  -9 96.4683 9.87816  14
 -11  -5   9 85.5201 7.88443  13
 -11   5   9 89.9686 9.21295   1
  11   5  -9 119.503 14.9970   3
  11   5  -9 97.8662 10.1262  10
  -9  -5   9 92.1072 7.37471  16
   9  -5  -9 105.894 13.5360   3
   9  -5  -9 101.893 8.53417  14
   9  -5  -9 104.367 8.04024   9
  -9  -5   9 95.5596 8.87769   1
  -9  -5   9 95.3724 7.18326  13
  -9   5   9 94.8593 8.21797  13
   9   5  -9 108.392 10.9324  10
   9   5  -9 111.684 12.4163   3
  -9   5   9 105.020 9.21074   1
  -7  -5   9 278.905 13.1459  13
  -7  -5   9 258.460 12.3518  16
   7  -5  -9 280.565 20.0358   3
   7  -5  -9 276.503 13.9965  14
   7  -5  -9 276.107 14.2549   9
  -7  -5   9 276.904 14.8469   1
   7  -5  -9 276.558 12.1460   6
   7   5  -9 309.366 18.6280   3
   7   5  -9 300.375 17.2553  10
  -7   5   9 276.686 13.1980  13
   7   5  -9 271.509 14.9048   2
  -5  -5   9 652.743 25.6986   1
   5  -5  -9 657.229 23.0268   6
  -5  -5   9 659.427 23.3985  16
  -5  -5   9 672.029 24.4312  13
   5  -5  -9 672.642 26.4812   9
   5  -5  -9 677.717 31.3034   3
   5   5  -9 698.371 27.8041  10
  -5   5   9 655.810 25.1000   4
  -5   5   9 623.928 23.3489  13
   5   5  -9 673.401 28.3861   2
   3  -5  -9 24.0185 5.05249   9
  -3  -5   9 20.3597 4.14437   1
  -3  -5   9 30.3088 4.33928  13
  -3  -5   9 20.8053 3.22169  16
   3   5  -9 27.6090 4.35786  11
  -3   5   9 21.9528 4.51368   7
  -3   5   9 22.0278 3.77793   4
   3   5  -9 31.6153 5.92880   2
  -1  -5   9 15.1893 3.77619   1
   1  -5  -9 14.9570 4.33431   9
  -1  -5   9 2.58814 2.76067  13
   1   5  -9 7.25603 3.03723  11
  -1   5   9 13.5033 4.04039   7
   1   5  -9 10.0172 4.00235   2
  -1   5   9 11.4871 3.67253   4
  -1  -5  -9 325.548 16.2134   9
  -1  -5  -9 295.731 13.8931   5
   1  -5   9 278.643 13.7215  13
  -1   5  -9 284.382 16.2570  11
  -1   5  -9 320.640 16.7890   2
   1   5   9 261.572 15.0664   7
   1   5   9 295.488 14.3059   4
   3  -5   9 89.1286 8.06949  13
  -3  -5  -9 100.914 8.06766   5
   3   5   9 74.0808 7.51925   4
   3   5   9 86.8068 8.10056   7
  -3   5  -9 72.0954 8.92847  11
  10  -6  -9 148.678 11.9934  14
  10  -6  -9 154.365 10.3237   9
 -10  -6   9 156.189 12.9140   1
  10  -6  -9 161.588 16.9786   3
  10   6  -9 165.517 13.3805  10
  10   6  -9 144.991 16.0888   3
  -8  -6   9 7.12672 2.45282  16
   8  -6  -9 4.14796 2.92047   6
  -8  -6   9 4.07682 4.05347   1
   8  -6  -9 3.58692 2.58704  14
   8  -6  -9 0.20468 2.97861   9
  -8  -6   9 3.30612 2.87622  13
   8  -6  -9 6.29647 4.87378   3
  -8   6   9 4.34773 2.90296  13
   8   6  -9 3.41708 4.87216   3
   8   6  -9 2.45606 2.91798   2
   8   6  -9 8.10279 3.98828  10
  -6  -6   9 85.5727 5.87324  16
   6  -6  -9 88.5964 8.07535   9
  -6  -6   9 95.5291 8.34723   1
   6  -6  -9 72.7035 10.8934   3
   6  -6  -9 83.5044 6.14723   6
  -6  -6   9 68.9464 6.39255  13
   6   6  -9 79.1272 8.85757   2
  -6   6   9 76.0771 6.56148   4
   6   6  -9 92.1390 10.0119  10
   4  -6  -9 279.640 14.4732   9
  -4  -6   9 275.174 11.8671  16
   4  -6  -9 238.862 17.0817   3
   4  -6  -9 267.459 11.4875   6
  -4  -6   9 264.964 13.7352   1
  -4  -6   9 265.387 12.5922  13
  -4   6   9 263.150 13.0560   4
   4   6  -9 278.206 16.2020   2
   4   6  -9 274.075 14.4703  10
   2  -6  -9 62.8269 7.75769   9
  -2  -6   9 70.3013 6.87816   1
  -2  -6   9 54.4337 5.84153  13
   2  -6  -9 53.5396 4.77710   6
   2   6  -9 88.0629 10.5476   2
   2   6  -9 60.7410 6.26811  11
  -2   6   9 57.1836 5.96368   4
  -2   6   9 51.0728 6.60258   7
   0  -6   9 185.659 10.2316  13
   0  -6  -9 184.537 12.0013   9
   0   6  -9 192.651 13.4846   2
   0   6   9 178.783 10.9714   4
   0   6  -9 186.863 12.4399  11
   0   6   9 177.148 11.4163   7
   2  -6   9 49.2776 6.90937   8
  -2  -6  -9 56.2837 6.67966   5
   2  -6   9 53.1830 6.23209  13
  -2   6  -9 50.2514 7.05562  11
   2   6   9 60.6889 6.95163   4
   2   6   9 65.2944 8.57844  10
  -2   6  -9 64.0079 6.89399   2
   2   6   9 82.0691 9.01507   7
   9  -7  -9 48.1681 11.0576   3
   9  -7  -9 65.0272 8.07097   9
   9  -7  -9 51.5425 7.00436  14
  -9  -7   9 45.6145 6.93357   1
  -9   7   9 54.6419 6.31550  13
   9   7  -9 48.1201 9.11120   3
   9   7  -9 59.9748 9.01889  10
   7  -7  -9 208.373 12.6636  14
  -7  -7   9 201.631 10.3944  16
  -7  -7   9 210.122 13.3525   1
  -7  -7   9 214.627 10.6962  13
   7  -7  -9 216.842 13.1971   9
   7  -7  -9 205.485 10.6683   6
   7  -7  -9 202.343 17.9219   3
   7   7  -9 241.950 15.7700  10
  -7   7   9 206.180 11.8637   4
   7   7  -9 201.816 13.5883   2
   5  -7  -9 8.85432 5.58429   3
  -5  -7   9 3.43639 3.58338   1
  -5  -7   9 6.01976 2.65196  16
  -5  -7   9 6.52429 2.93476  13
   5  -7  -9 11.9352 4.27774   9
   5  -7  -9 6.35273 2.71045   6
  -5   7   9 3.74647 2.23859   4
   5   7  -9 8.19914 4.58247  10
   5   7  -9 8.59950 3.87668   2
  -3  -7   9 26.8171 3.87153  13
  -3  -7   9 28.7163 4.07880  16
  -3  -7   9 27.4915 4.67205   1
   3  -7  -9 24.6437 3.74040   6
   3  -7  -9 27.0541 5.72735   9
  -3   7   9 25.5692 5.21760   7
  -3   7   9 22.2992 3.76701   4
   3   7  -9 19.7656 4.31918  11
   3   7  -9 32.2739 7.23416   2
   1  -7  -9 18.7557 3.37774   6
  -1  -7   9 20.7882 4.19344  13
   1  -7  -9 21.5245 5.32327   9
  -1   7   9 21.4085 4.50181   4
   1   7  -9 18.1686 4.82382  11
   1   7  -9 21.2487 6.47838   2
  -1   7   9 19.3924 5.03749   7
   1  -7   9 4.83141 3.49549  13
   1   7   9 3.76693 3.09016  10
  -1   7  -9 -1.4958 3.42626  11
   1   7   9 3.64905 4.14621   7
   1   7   9 1.46360 3.22896   4
  -1   7  -9 3.30980 3.93896   2
   8  -8  -9 248.382 20.3643   3
   8  -8  -9 256.201 15.2268  14
  -8  -8   9 248.929 15.5241   1
   8  -8  -9 239.274 12.1590   6
   8  -8  -9 248.451 15.1282   9
   8   8  -9 266.512 17.5096  10
   6  -8  -9 140.248 8.70542   6
  -6  -8   9 133.758 9.89692   1
  -6  -8   9 130.006 8.44155  16
  -6  -8   9 108.173 10.4057  13
   6  -8  -9 143.452 11.1891   9
   6  -8  -9 141.841 14.2396   3
   6   8  -9 139.736 12.2429   2
   6   8  -9 137.584 11.3271  10
   4  -8  -9 314.406 16.6895   9
   4  -8  -9 284.325 13.1461   6
  -4  -8   9 296.829 15.5947   1
  -4  -8   9 306.037 13.8647  13
  -4  -8   9 278.790 12.9148  16
   4   8  -9 298.279 16.2406  10
  -4   8   9 291.366 15.8949   7
   4   8  -9 286.185 17.7153   2
  -2  -8   9 780.578 30.2821   1
   2  -8  -9 708.387 27.1248   6
   2  -8  -9 792.368 31.1897   9
  -2  -8   9 765.657 28.2857  13
  -2   8   9 783.334 31.1947   7
   2   8  -9 814.963 34.1933   2
   0  -8   9 253.068 13.3065  13
   0   8  -9 252.152 15.1852  11
   0   8   9 265.736 17.7753  10
   0   8   9 262.906 14.9527   7
   0   8  -9 245.997 16.2682   2
   7  -9  -9 12.8814 5.19552   9
   7  -9  -9 10.9201 5.68117   3
   7  -9  -9 12.5092 3.62602   6
  -7  -9   9 8.43240 4.68534   1
   7   9  -9 16.8395 5.14676   2
   7   9  -9 11.9316 5.63149  10
   5  -9  -9 5.50561 3.10745   6
  -5  -9   9 3.66002 4.10006   1
   5  -9  -9 7.55431 4.38253   9
  -5   9   9 4.96205 2.72109   7
   5   9  -9 9.12176 5.68469   2
   5   9  -9 6.77152 4.46837  10
   3  -9  -9 37.0952 4.92069   6
  -3  -9   9 41.1116 6.48542   1
  -3  -9   9 34.4962 4.60945  13
   3  -9  -9 28.6137 6.25770   9
   3   9  -9 43.8933 7.81835   2
  -3   9   9 30.6080 6.12668   7
   1  -9  -9 112.812 9.83706   9
  -1  -9   9 113.055 7.94820  13
   1  -9  -9 111.087 7.99270   6
  -1   9   9 110.225 12.2663  10
   1   9  -9 101.720 9.80409  11
  -1   9   9 102.821 9.30913   7
   1   9  -9 114.798 10.8608   2
   6 -10  -9 18.6385 5.93405   9
   6 -10  -9 22.4056 4.39143   6
  -6 -10   9 25.7975 6.13571   1
   6  10  -9 13.8435 5.84450   2
   6  10  -9 17.3938 5.72428  10
  -4 -10   9 18.5050 5.63173   1
   4 -10  -9 28.9110 5.65359   9
   4 -10  -9 30.2536 4.78750   6
  -4  10   9 18.8539 5.49658  10
  -4  10   9 20.2605 5.01242   7
   4  10  -9 34.7746 7.74846   2
   2 -10  -9 14.0409 3.71654   6
   2 -10  -9 16.5895 4.96851   9
  -2  10   9 14.6858 6.39406  10
  -2  10   9 20.9115 5.40562   7
   2  10  -9 16.5438 4.77007  11
   2  10  -9 18.0823 6.17589   2
 -12   0  10 14.2534 4.12154  13
  12   0 -10 20.4195 7.54712   3
 -12   0  10 9.73260 5.40200   1
  10   0 -10 34.1477 9.42126   3
 -10   0  10 23.9792 6.03051   1
 -10   0  10 22.5891 4.11699  16
 -10   0  10 22.6078 5.03788  13
  -8   0  10 8.53748 2.89214  13
   8   0 -10 13.9592 6.03779   3
   8   0 -10 11.5468 2.98122   9
   8   0 -10 7.03143 2.74680  14
  -8   0  10 10.4069 3.24344   1
  -8   0  10 10.9824 2.83288  16
  -6   0  10 504.518 20.3411   1
  -6   0  10 548.172 21.2017   4
   6   0 -10 536.816 21.6398   9
  -6   0  10 530.917 18.6697  16
   6   0 -10 527.242 25.4192   3
  -6   0  10 512.307 20.4463  13
  -4   0  10 39.8823 5.19735   4
  -4   0  10 36.8139 4.72005  13
   4   0 -10 40.0692 5.52005   9
   4   0 -10 41.3823 4.33512  11
  -2   0  10 41.3539 5.53448   4
  -2   0  10 42.4806 4.91448  13
   2   0 -10 37.6993 5.04102  11
   0   0  10 41.6806 5.25608   4
   0   0 -10 35.9855 5.41492  11
   0   0  10 38.5972 4.48386   7
   0   0  10 37.8005 4.80393  13
  -2   0 -10 13.6977 4.30728  11
   2   0  10 7.38826 3.36139   4
   2   0  10 9.12049 3.32879  13
 -11  -1  10 413.039 21.8229   1
  11  -1 -10 423.495 19.6231  14
  11  -1 -10 447.168 28.8343   3
 -11  -1  10 444.054 20.1918  13
  11   1 -10 464.387 29.5650   3
 -11   1  10 404.592 21.3672   1
 -11   1  10 428.861 20.2428  13
  -9  -1  10 1305.18 45.8172  13
   9  -1 -10 1400.31 56.5342   3
  -9  -1  10 1255.81 43.8724  16
  -9  -1  10 1320.35 47.2888   1
   9  -1 -10 1324.06 44.9468  14
  -9   1  10 1317.72 47.1279   1
  -9   1  10 1274.38 43.6801  16
  -9   1  10 1399.92 46.6100  13
   9   1 -10 1447.81 57.2887   3
   7  -1 -10 1032.55 34.8990  14
  -7  -1  10 1057.15 36.3168  13
  -7  -1  10 991.795 34.0403  16
   7  -1 -10 1009.51 36.6342   9
  -7  -1  10 960.449 36.1157   1
   7  -1 -10 1110.63 44.4185   3
  -7   1  10 1056.13 34.1154  16
   7   1 -10 1108.19 43.5639   3
  -7   1  10 1014.48 36.2910   1
   7   1 -10 1023.07 36.3785   9
  -7   1  10 1069.64 36.4299  13
  -5  -1  10 985.782 33.8297   1
  -5  -1  10 975.436 34.1507   4
   5  -1 -10 1010.75 36.1015   9
  -5  -1  10 962.744 31.8432  16
   5  -1 -10 955.724 37.7971   3
  -5  -1  10 966.211 33.9267  13
   5   1 -10 996.941 36.9196   2
   5   1 -10 997.048 35.7561   9
  -5   1  10 959.781 34.4422   4
  -5   1  10 1026.84 34.1618  13
  -3  -1  10 1782.75 56.3999   4
   3  -1 -10 1749.58 58.9162   9
  -3  -1  10 1725.74 55.7453  13
   3  -1 -10 1713.87 56.2658  11
   3   1 -10 1705.41 56.1832  11
  -3   1  10 1794.02 56.8458   4
  -3   1  10 1726.06 55.4487  13
   3   1 -10 1697.46 59.8655   2
  -1  -1  10 810.888 28.7931   7
  -1  -1  10 838.825 29.7415   4
  -1  -1  10 793.238 28.8216  13
   1  -1 -10 816.298 30.8439  11
   1  -1 -10 859.889 32.5309   9
  -1   1  10 834.700 30.0814   4
   1   1 -10 817.196 31.1555  11
  -1   1  10 833.184 29.8356   7
  -1   1  10 780.993 28.4437  13
  -1  -1 -10 626.352 26.8831   9
   1  -1  10 584.389 23.8485   4
   1  -1  10 585.315 23.0431  13
  -1  -1 -10 623.595 26.2858  11
   1   1  10 597.650 22.4925  13
  -1   1 -10 613.821 26.1719  11
   1   1  10 598.055 24.1698   4
   1   1  10 600.895 23.5121   7
  -3  -1 -10 788.302 33.3396  11
   3  -1  10 829.042 30.7844   4
   3  -1  10 805.844 29.5796  13
  -3   1 -10 776.147 32.8279  11
   3   1  10 789.587 30.7462   4
  12  -2 -10 1063.62 50.2498   3
 -12  -2  10 1032.55 42.4155   1
  12  -2 -10 1144.73 40.6740  14
 -12  -2  10 1000.19 38.7635  13
  12   2 -10 1200.37 52.6350   3
 -12   2  10 1039.90 42.0121   1
 -12   2  10 999.522 39.5982  13
 -10  -2  10 966.701 37.4083  13
 -10  -2  10 982.904 36.1938  16
  10  -2 -10 1090.69 49.0208   3
  10  -2 -10 1159.21 38.8774  14
 -10  -2  10 1026.61 39.8750   1
  10   2 -10 1200.96 50.4707   3
 -10   2  10 1025.19 36.2691  16
 -10   2  10 1016.27 38.4338  13
 -10   2  10 1065.69 40.2203   1
  -8  -2  10 600.959 24.0035  13
  -8  -2  10 562.740 22.3250  16
   8  -2 -10 702.429 33.8347   3
  -8  -2  10 594.980 25.0830   1
   8  -2 -10 592.024 24.2522   9
   8  -2 -10 601.414 23.4808  14
  -8   2  10 666.258 24.9902  13
   8   2 -10 748.096 34.0840   3
   8   2 -10 634.722 25.1341   2
  -8   2  10 612.102 22.2517  16
  -8   2  10 639.738 25.1486   1
  -6  -2  10 1073.58 37.2513   1
   6  -2 -10 1043.60 37.9194   9
  -6  -2  10 1005.67 34.6186  16
  -6  -2  10 1093.77 36.8149   4
  -6  -2  10 1041.55 36.5955  13
   6  -2 -10 1074.26 42.9620   3
   6   2 -10 1053.96 38.9058   2
   6   2 -10 1107.45 41.7594   3
  -6   2  10 1065.90 37.2604   4
  -6   2  10 1053.63 36.4168  13
  -4  -2  10 887.767 30.9791   1
  -4  -2  10 902.838 31.3317  13
  -4  -2  10 883.374 29.1451  16
   4  -2 -10 839.055 34.1152   3
   4  -2 -10 939.749 34.1145   9
  -4  -2  10 900.707 31.2013   4
  -4   2  10 871.111 30.6280  13
   4   2 -10 923.549 35.1087   2
  -4   2  10 918.027 32.1649   4
   4   2 -10 858.087 30.5388  11
   2  -2 -10 1306.63 45.3510   9
  -2  -2  10 1231.18 41.6244   4
   2  -2 -10 1271.32 42.9397  11
  -2  -2  10 1232.65 41.5980  13
  -2   2  10 1262.59 42.5586   4
   2   2 -10 1228.39 43.0046  11
  -2   2  10 1242.98 42.6474   7
   2   2 -10 1224.84 45.5496   2
  -2   2  10 1206.95 40.7900  13
   0  -2 -10 1806.26 59.6788   9
   0  -2 -10 1722.71 57.8921  11
   0  -2  10 1680.32 55.2420  13
   0  -2  10 1669.24 55.5009   4
   0   2 -10 1629.65 58.0530  11
   0   2  10 1706.43 54.3413  13
   0   2  10 1675.36 56.0819   7
   0   2  10 1662.21 56.1250   4
   2  -2  10 536.853 21.5890  13
   2  -2  10 523.792 21.8015   4
  -2  -2 -10 523.553 24.4091  11
   2   2  10 534.248 22.6733   4
   2   2  10 536.423 22.0061   7
  -2   2 -10 522.045 24.6781  11
 -11  -3  10 105.917 8.53131  13
  11  -3 -10 125.732 9.67814  14
 -11  -3  10 100.547 10.9360   1
  11  -3 -10 128.129 15.0109   3
 -11   3  10 99.7280 9.38356  13
  11   3 -10 140.046 16.0898   3
 -11   3  10 88.4700 9.90511   1
   9  -3 -10 299.579 21.5927   3
   9  -3 -10 271.169 13.8434   9
  -9  -3  10 287.766 14.0313  13
  -9  -3  10 263.576 14.9637   1
   9  -3 -10 301.735 14.9343  14
  -9  -3  10 267.367 12.8647  16
  -9   3  10 283.707 14.9958   1
  -9   3  10 296.826 15.0615  13
  -9   3  10 298.518 17.8867  16
   9   3 -10 321.088 22.1552   3
   7  -3 -10 104.576 7.56794  14
   7  -3 -10 101.077 11.8215   3
  -7  -3  10 96.2391 7.72127  13
   7  -3 -10 118.001 8.41144   9
  -7  -3  10 108.938 6.54249  16
  -7  -3  10 93.9329 8.35273   1
  -7   3  10 113.063 8.00794  13
   7   3 -10 105.758 8.83486   2
   7   3 -10 93.1039 7.26612   9
   7   3 -10 116.154 11.7141   3
  -5  -3  10 86.0090 6.46260  13
  -5  -3  10 83.5912 7.12215   1
   5  -3 -10 83.6523 9.32629   3
  -5  -3  10 93.7125 6.83782   4
   5  -3 -10 89.7332 7.58591   9
  -5  -3  10 92.2585 5.52245  16
   5   3 -10 84.6691 8.89106   2
  -5   3  10 87.7312 7.35883   4
  -5   3  10 84.6918 6.47522  13
  -3  -3  10 463.165 18.4795   1
  -3  -3  10 459.880 18.8507  13
   3  -3 -10 506.297 21.7470   9
  -3  -3  10 456.990 16.9366  16
  -3  -3  10 493.033 18.8009   4
   3   3 -10 486.270 22.9632   2
  -3   3  10 447.166 19.2326   4
  -3   3  10 455.793 17.6007  13
   3   3 -10 453.322 19.0456  11
  -1  -3  10 249.744 12.2198  13
  -1  -3  10 221.704 11.7158   4
   1  -3 -10 254.324 14.6704   9
   1   3 -10 258.261 15.7224   2
   1   3 -10 237.023 13.5875  11
  -1   3  10 227.052 12.8733   7
  -1   3  10 230.009 12.3145   4
  -1  -3 -10 100.913 9.61984   9
   1  -3  10 104.341 8.19524   4
   1  -3  10 103.337 8.16465  13
  -1   3 -10 97.0671 9.72622   2
   1   3  10 96.3902 8.57793   4
  -1   3 -10 89.0429 8.66781  11
   1   3  10 105.613 8.76055   7
   3  -3  10 151.351 10.3485  13
   3   3  10 158.181 10.7428   7
  -3   3 -10 147.776 12.1824  11
   3   3  10 146.670 11.0102   4
  10  -4 -10 755.169 39.3224   3
 -10  -4  10 712.429 28.6029  13
  10  -4 -10 784.289 30.7584  14
 -10  -4  10 756.094 31.3016   1
 -10   4  10 766.916 30.7670   1
  10   4 -10 809.610 39.1835   3
 -10   4  10 730.138 29.3516  13
  -8  -4  10 1305.77 44.8912  16
   8  -4 -10 1388.64 47.0519  14
  -8  -4  10 1355.98 48.3121   1
   8  -4 -10 1297.83 47.0695   9
  -8  -4  10 1368.60 46.3214  13
   8  -4 -10 1395.13 57.0683   3
   8   4 -10 1275.63 47.3937   2
   8   4 -10 1555.88 56.4065   3
  -8   4  10 1411.80 46.7833  13
   6  -4 -10 2544.39 89.9620   3
  -6  -4  10 2569.55 79.7060  16
   6  -4 -10 2519.92 83.2065   9
  -6  -4  10 2578.36 82.4005   1
  -6  -4  10 2567.49 80.4718   4
  -6  -4  10 2616.86 81.0964  13
  -6   4  10 2526.00 80.4630  13
  -6   4  10 2667.80 82.3685   4
   4  -4 -10 2038.23 67.0898   9
  -4  -4  10 2010.65 64.0610  13
  -4  -4  10 1991.43 62.2332  16
  -4  -4  10 2037.08 64.7367   1
  -4  -4  10 1970.65 63.2563   4
   4  -4 -10 1975.99 69.6046   3
   4   4 -10 2008.37 68.9581   2
  -4   4  10 2038.23 64.8535   4
  -4   4  10 1912.02 62.6397  13
  -2  -4  10 1056.31 36.6685   4
   2  -4 -10 1125.64 40.6237   9
  -2  -4  10 1083.79 37.2936  13
  -2  -4  10 1063.96 37.3183   1
  -2   4  10 1110.50 39.3887   7
   2   4 -10 1154.77 43.0227   2
  -2   4  10 1073.82 38.0129   4
   2   4 -10 1031.17 38.6104  11
   0  -4  10 1099.21 39.2393  13
   0  -4  10 1101.31 38.7004   4
   0  -4 -10 1222.75 42.8956   9
   0   4  10 1156.99 40.9723   7
   0   4 -10 1067.06 41.7242  11
   0   4  10 1149.96 40.2381   4
   0   4 -10 1165.73 43.6571   2
   2  -4  10 896.302 33.3907   4
   2  -4  10 952.295 34.3420  13
   2   4  10 981.102 35.5137   7
   2   4  10 917.061 34.9004   4
  -2   4 -10 949.693 37.5855  11
  11  -5 -10 257.905 15.7448  14
  11  -5 -10 246.264 20.6088   3
 -11  -5  10 220.314 15.8644   1
  11   5 -10 266.730 21.3987   3
 -11   5  10 243.330 14.3200  13
  -9  -5  10 558.552 25.5274   1
   9  -5 -10 594.940 24.7522  14
   9  -5 -10 564.783 23.9923   9
   9  -5 -10 573.795 32.8131   3
  -9  -5  10 567.118 23.1082  13
   9   5 -10 633.373 32.1236   3
  -9   5  10 547.638 23.5473  13
   7  -5 -10 898.957 41.8629   3
  -7  -5  10 889.913 34.1250   1
  -7  -5  10 908.609 31.4000  16
   7  -5 -10 884.202 32.6765  14
   7  -5 -10 913.850 34.2730   9
  -7  -5  10 910.696 32.3145  13
  -7   5  10 913.908 32.1770  13
  -7   5  10 894.882 33.2650   4
  -5  -5  10 760.799 29.3700   1
  -5  -5  10 777.907 27.2079  16
  -5  -5  10 777.132 28.5422  13
   5  -5 -10 828.449 31.6481   9
   5  -5 -10 795.500 35.7592   3
   5   5 -10 777.233 32.8018   2
  -5   5  10 809.178 29.5678   4
   3  -5 -10 686.656 27.7845   9
  -3  -5  10 645.229 23.3041  16
  -3  -5  10 666.603 25.6345   1
  -3  -5  10 689.320 25.2379  13
  -3   5  10 658.372 26.9539   7
   3   5 -10 697.261 29.7976   2
  -3   5  10 658.069 25.7049   4
   3   5 -10 623.005 25.4992  11
  -1  -5  10 476.991 20.2014  13
   1  -5 -10 521.270 23.0227   9
   1   5 -10 513.269 24.3181   2
   1   5 -10 475.743 21.8962  11
  -1   5  10 474.075 21.4105   7
  -1   5  10 487.293 20.8706   4
   1  -5  10 357.488 16.6809  13
  -1  -5 -10 363.260 19.4168   9
   1   5  10 442.060 20.9942  10
   1   5  10 375.873 18.7065   7
   1   5  10 367.523 17.9278   4
  -1   5 -10 370.092 19.1135   2
  -1   5 -10 366.184 19.5138  11
  10  -6 -10 136.463 16.1091   3
 -10  -6  10 132.421 9.50862  13
  10  -6 -10 133.536 10.2568   9
  10  -6 -10 124.815 10.8323  14
 -10  -6  10 127.661 11.7776   1
  10   6 -10 150.947 15.1270   3
  10   6 -10 151.115 13.1244  10
 -10   6  10 125.251 9.76397  13
   8  -6 -10 30.4361 5.58706   9
   8  -6 -10 26.7129 4.90184  14
  -8  -6  10 27.4725 4.67372  16
   8  -6 -10 32.2047 8.96306   3
  -8  -6  10 28.5469 5.81886   1
   8  -6 -10 25.0307 3.72685   6
  -8   6  10 31.3099 4.95562  13
   8   6 -10 32.4632 7.02057  10
   8   6 -10 36.7380 5.92913   2
  -6  -6  10 6.72991 3.10069   1
  -6  -6  10 7.19900 3.16340  13
  -6  -6  10 2.88512 1.93149  16
   6  -6 -10 4.31968 3.88727   3
   6  -6 -10 5.26364 3.90917   9
   6   6 -10 3.29769 3.87351   2
  -6   6  10 4.09022 2.39306   4
  -4  -6  10 50.4605 5.88285  13
   4  -6 -10 38.3617 6.58580   9
  -4  -6  10 41.8031 6.13960   1
  -4  -6  10 33.6120 4.28397  16
  -4   6  10 45.2310 6.74689   7
  -4   6  10 39.1836 5.53504   4
   4   6 -10 43.6559 7.37792   2
   2  -6 -10 100.953 9.45150   9
  -2  -6  10 97.6564 7.25253  13
  -2  -6  10 95.1718 8.25451   1
   2   6 -10 95.1836 10.4923   2
  -2   6  10 88.2706 8.22048   7
  -2   6  10 96.7763 7.62801   4
   2   6 -10 86.9467 7.61694  11
   0  -6 -10 136.127 10.1246   9
   0  -6  10 115.668 8.45421  13
   0   6  10 116.887 10.4994   7
   0   6 -10 140.336 11.0834  11
   0   6  10 105.691 8.50666   4
   0   6 -10 119.754 11.4102   2
  -9  -7  10 552.889 26.0143   1
   9  -7 -10 567.712 33.6356   3
   9  -7 -10 636.857 26.7130  14
   9  -7 -10 562.063 24.7898   9
   9   7 -10 607.245 28.2629  10
  -7  -7  10 643.231 24.1263  13
   7  -7 -10 651.814 23.5290   6
  -7  -7  10 655.267 27.2450   1
   7  -7 -10 635.234 34.7193   3
   7  -7 -10 615.619 26.4515   9
  -7   7  10 580.848 24.8226   4
   7   7 -10 663.508 29.6166  10
   7   7 -10 607.904 28.0308   2
  -5  -7  10 655.590 24.4933  16
  -5  -7  10 683.443 25.3282  13
   5  -7 -10 660.457 33.2871   3
  -5  -7  10 686.533 27.3592   1
   5  -7 -10 584.456 26.0394   6
   5  -7 -10 714.115 28.6868   9
  -5   7  10 665.784 27.7685   7
   5   7 -10 691.550 30.8970   2
  -3  -7  10 895.373 33.0756   1
   3  -7 -10 857.747 34.0156   9
  -3  -7  10 890.592 31.4219  13
  -3   7  10 893.145 33.8072   7
   3   7 -10 903.579 37.4261   2
  -3   7  10 848.372 31.7118   4
   3   7 -10 744.194 31.5517  11
   1  -7 -10 1145.62 42.3213   9
  -1  -7  10 1144.35 39.6063  13
   1   7 -10 1127.24 44.2691   2
   1   7 -10 1082.27 41.6535  11
  -1   7  10 1104.96 39.6687   4
  -1   7  10 1162.61 42.2709   7
   1  -7  10 629.221 26.3470   8
   1  -7  10 575.985 24.2162  13
  -1   7 -10 623.575 27.0758   2
   1   7  10 581.921 24.1757   4
   1   7  10 598.563 28.1130  10
  -1   7 -10 578.623 26.5734  11
   1   7  10 605.166 26.4282   7
   8  -8 -10 293.364 23.4382   3
   8  -8 -10 283.599 16.4272   9
  -8  -8  10 273.653 15.8930   1
   8  -8 -10 282.522 13.5745   6
   8   8 -10 267.347 15.6196   2
   8   8 -10 303.298 19.0178  10
   6  -8 -10 314.717 22.4881   3
  -6  -8  10 279.756 16.0167   1
  -6  -8  10 300.040 14.0463  13
   6  -8 -10 290.407 16.7254   9
   6  -8 -10 296.989 13.6091   6
   6   8 -10 284.053 17.6355   2
  -6   8  10 286.291 15.9642   7
   6   8 -10 291.865 17.7950  10
   4  -8 -10 474.099 22.4175   9
  -4  -8  10 486.538 21.6326   1
  -4  -8  10 463.021 19.1633  13
  -4   8  10 417.732 21.2639   7
   4   8 -10 461.393 24.2638   2
  -2  -8  10 222.395 13.5561   1
   2  -8 -10 236.765 14.6083   9
  -2  -8  10 210.727 11.7141  13
   2   8 -10 219.054 16.5102   2
  -2   8  10 225.853 14.4178   7
   2   8 -10 224.995 13.1216  11
   0  -8  10 78.4860 7.93629  13
   0   8 -10 88.3788 9.77066   2
   0   8  10 69.0305 8.33502   7
   0   8  10 89.3540 9.90232  10
   0   8 -10 99.9652 9.40318  11
  -7  -9  10 287.193 16.3856   1
   7  -9 -10 298.107 14.1673   6
   7  -9 -10 302.052 17.6245   9
   7   9 -10 315.098 18.3120   2
   7   9 -10 313.820 19.1544  10
   5  -9 -10 266.664 13.2876   6
   5  -9 -10 293.226 16.9317   9
  -5  -9  10 270.089 15.3501   1
  -5   9  10 280.408 15.4555   7
   5   9 -10 294.665 16.5382  10
   5   9 -10 285.411 18.6403   2
   3  -9 -10 35.3402 6.63561   9
  -3  -9  10 25.6595 5.25020   1
  -3  -9  10 27.1481 4.38505  13
  -3   9  10 34.1679 6.54726   7
   3   9 -10 39.9477 7.61876   2
 -10   0  11 1.42217 2.64750  16
  10   0 -11 3.08726 5.75367   3
 -10   0  11 3.07157 3.60274  13
 -10   0  11 1.08028 3.77085   1
  -8   0  11 0.38699 1.90028  16
  -8   0  11 0.81780 2.95272   1
  -8   0  11 -0.6123 2.77262  13
   8   0 -11 2.67337 2.63156   9
   8   0 -11 0.06393 4.44034   3
  -6   0  11 2.46654 2.36677   4
  -6   0  11 0.42564 1.91846  13
   6   0 -11 -0.5393 1.92718   9
   4   0 -11 0.71228 2.09680  11
  -4   0  11 8.27977 3.45612  13
   4   0 -11 0.22982 2.10689   9
  -4   0  11 4.90875 3.38273   4
  -2   0  11 3.74437 2.72024   7
  -2   0  11 0.32523 3.23099   4
   2   0 -11 0.29435 3.25318   9
  -2   0  11 -2.5002 1.61900  13
   2   0 -11 11.1655 3.70556  11
   0   0 -11 2.30536 2.66814  11
   0   0  11 3.19542 2.98199  13
   0   0  11 1.66502 2.74075   4
   2   0  11 4.04427 3.18036  13
  -2   0 -11 1.27566 2.93293  11
  -2   0 -11 0.59032 2.67628   9
   2   0  11 -1.1417 3.77146   4
 -11  -1  11 184.333 13.0413   1
  11  -1 -11 206.429 19.9060   3
 -11  -1  11 179.582 12.0079  13
 -11   1  11 171.248 12.6266   1
 -11   1  11 173.859 12.0974  13
  11   1 -11 209.057 19.7337   3
   9  -1 -11 270.930 20.9374   3
  -9  -1  11 233.778 13.2370  13
  -9  -1  11 225.165 11.3598  16
   9  -1 -11 234.206 12.4866   9
  -9  -1  11 205.203 13.2880   1
  -9   1  11 234.993 13.8204   1
  -9   1  11 233.836 11.3703  16
   9   1 -11 279.578 20.6752   3
  -9   1  11 261.936 13.8665  13
  -7  -1  11 31.1550 3.85243  16
  -7  -1  11 35.8357 5.38617  13
   7  -1 -11 26.6098 4.51097   9
   7  -1 -11 22.8337 6.63382   3
  -7  -1  11 33.4030 5.20632   4
  -7  -1  11 37.2921 5.42944   1
   7   1 -11 28.6808 4.86905   9
  -7   1  11 20.5148 4.56176  13
  -7   1  11 23.2490 4.89173   4
   7   1 -11 24.6991 6.43975   3
  -5  -1  11 7.13905 2.71237  13
  -5  -1  11 10.2988 3.76499   4
   5  -1 -11 11.4740 3.53508   9
   5   1 -11 7.57617 3.64912   9
  -5   1  11 4.62588 2.94441  13
  -5   1  11 6.68142 2.72294   4
  -3  -1  11 49.0826 5.73987  13
  -3  -1  11 71.7831 7.00203   4
   3  -1 -11 51.6039 5.92354  11
   3  -1 -11 54.6731 7.22686   9
  -3   1  11 59.1222 6.37728   4
  -3   1  11 57.7331 5.91911  13
   3   1 -11 50.0297 5.76990  11
   1  -1 -11 135.880 10.2238  11
  -1  -1  11 123.967 8.18109  13
  -1  -1  11 129.180 8.83159   4
   1  -1 -11 142.494 11.6753   9
  -1   1  11 116.241 8.00768  13
  -1   1  11 127.301 9.09163   7
  -1   1  11 131.890 9.11759   4
   1   1 -11 132.197 10.1777  11
  -1  -1 -11 161.243 12.1782  11
   1  -1  11 157.300  9.9999  13
   1  -1  11 143.812 9.89297   4
  -1  -1 -11 165.096 13.0806   9
  -1   1 -11 147.194 11.2788  11
   1   1  11 144.776 10.1717   4
  10  -2 -11 290.360 22.2631   3
 -10  -2  11 258.573 14.3683  13
 -10  -2  11 245.264 15.4221   1
  10   2 -11 331.918 23.1318   3
 -10   2  11 258.190 14.7371  13
 -10   2  11 265.944 15.5543   1
   8  -2 -11 297.358 20.3343   3
   8  -2 -11 265.538 14.1932   9
  -8  -2  11 254.186 11.8821  16
   8  -2 -11 255.853 12.7141  14
  -8  -2  11 256.482 14.4803   1
  -8  -2  11 258.646 13.7585  13
   8   2 -11 306.833 20.1983   3
  -8   2  11 279.173 13.6764  13
  -6  -2  11 316.748 15.0814   4
  -6  -2  11 324.269 13.4170  16
  -6  -2  11 329.910 15.3638  13
  -6  -2  11 323.532 15.2799   1
   6  -2 -11 326.672 19.3663   3
   6  -2 -11 337.127 16.8844   9
  -6   2  11 332.614 14.8863  13
   6   2 -11 336.837 17.3205   2
  -6   2  11 322.204 15.8212   4
   6   2 -11 326.259 15.9343   9
  -4  -2  11 557.326 21.6014   4
   4  -2 -11 573.229 24.6221   9
  -4  -2  11 544.888 21.5500  13
   4   2 -11 526.169 24.9735   2
  -4   2  11 521.703 20.7967  13
  -4   2  11 530.000 22.0718   4
   2  -2 -11 216.647 14.2501   9
  -2  -2  11 221.976 11.5533  13
  -2  -2  11 238.306 12.4366   4
  -2   2  11 228.645 12.8441   7
  -2   2  11 237.859 12.9577   4
   2   2 -11 228.294 12.9605  11
  -2   2  11 218.526 10.8096  13
   2   2 -11 213.274 14.6087   2
   0  -2  11 145.654 9.35413  13
   0  -2  11 158.782 10.3547   4
   0  -2 -11 161.285 11.6459  11
   0  -2 -11 159.423 12.0171   9
   0   2  11 154.780 9.87837   7
   0   2 -11 147.802 11.5801  11
   0   2  11 155.006 10.8674   4
   2  -2  11 215.426 11.9320  13
  -2  -2 -11 228.816 15.1842  11
   2  -2  11 218.320 12.7901   4
  -2   2 -11 215.258 14.2947  11
   2   2  11 201.242 13.1718   4
 -11  -3  11 9.41962 5.03475   1
 -11  -3  11 6.46858 3.75268  13
  11  -3 -11 4.61280 3.71639  14
  11  -3 -11 2.27825 5.98442   3
 -11   3  11 2.65373 4.19145   1
 -11   3  11 5.43087 4.13013  13
  11   3 -11 20.4060 8.36080   3
  -9  -3  11 2.18182 2.48005  16
  -9  -3  11 2.94770 4.03004   1
  -9  -3  11 -2.6969 2.92782  13
   9  -3 -11 2.63614 3.06413   9
   9  -3 -11 0.13408 2.83901  14
   9  -3 -11 -1.3031 3.00572   3
  -9   3  11 2.37963 3.31101  13
   9   3 -11 1.53009 4.59795   3
  -7  -3  11 0.69903 1.61584  16
   7  -3 -11 13.2555 5.15675   3
   7  -3 -11 -0.5727 2.93087   9
  -7  -3  11 1.22175 2.71420   4
  -7  -3  11 1.48332 3.08829  13
  -7  -3  11 1.37477 3.20881   1
  -7   3  11 1.74818 2.25815   4
  -7   3  11 0.51806 1.89348  13
   7   3 -11 -0.9469 2.23692   9
   7   3 -11 1.55134 3.03835   2
   5  -3 -11 128.519 11.2987   3
  -5  -3  11 133.406 7.43986  16
  -5  -3  11 141.830 8.77650   1
  -5  -3  11 145.465 9.05513   4
  -5  -3  11 146.939 9.51592  13
   5  -3 -11 145.378 10.8515   9
   5   3 -11 141.529 11.7808   2
  -5   3  11 142.369 9.87955   4
  -5   3  11 136.543 8.18960  13
  -3  -3  11 68.2747 5.93613   4
   3  -3 -11 63.9646 7.89146   9
  -3  -3  11 60.3066 6.47626  13
  -3   3  11 72.6457 7.53164   4
  -3   3  11 61.9779 5.26948  13
  -3   3  11 61.3364 7.04822   7
   3   3 -11 66.4988 6.52621  11
   3   3 -11 61.0631 8.69058   2
  -1  -3  11 41.9297 5.55472   4
   1  -3 -11 46.5292 7.21309   9
  -1  -3  11 40.1955 5.23101  13
   1   3 -11 42.5760 7.71720   2
  -1   3  11 41.4242 5.63378   4
   1   3 -11 52.9701 7.37800  11
  -1   3  11 38.5435 5.94819   7
  -1  -3 -11 3.01072 3.85738   9
   1  -3  11 -1.0467 3.22111   4
   1  -3  11 -1.1757 2.22368  13
   1   3  11 -2.3597 2.46408   4
  -1   3 -11 1.66236 3.92389  11
   1   3  11 -0.7108 3.33710   7
  10  -4 -11 10.2896 3.81445   9
 -10  -4  11 11.3104 4.90105   1
 -10  -4  11 3.58515 3.24498  13
  10  -4 -11 6.61793 6.47053   3
  10  -4 -11 8.26410 4.11864  14
 -10   4  11 5.39322 2.94974  13
  10   4 -11 10.4916 5.63502   3
   8  -4 -11 157.696 15.9941   3
  -8  -4  11 158.052 10.9444   1
  -8  -4  11 162.463 10.0007  13
  -8  -4  11 159.554 9.58282   4
  -8  -4  11 156.660 9.17827  16
   8  -4 -11 156.971 9.85270  14
   8  -4 -11 164.869 11.2278   9
  -8   4  11 144.699 9.90768  13
  -8   4  11 168.910 11.3368   4
   8   4 -11 167.639 11.5767   2
  -6  -4  11 358.690 15.1129  16
  -6  -4  11 363.767 16.7469  13
  -6  -4  11 372.127 17.3290   1
   6  -4 -11 371.605 22.3214   3
  -6  -4  11 379.105 16.0788   4
   6  -4 -11 387.428 18.8293   9
   6   4 -11 372.656 19.6273   2
  -6   4  11 348.385 15.6182  13
  -6   4  11 362.539 17.2378   4
  -4  -4  11 81.1180 6.31258   4
  -4  -4  11 78.6910 5.47860  16
  -4  -4  11 84.3070 6.96878  13
  -4  -4  11 83.2677 7.39455   1
   4  -4 -11 84.7458 9.07480   9
  -4   4  11 96.2721 8.85125   4
   4   4 -11 97.2810 10.6132   2
   2  -4 -11 151.271 11.2793   9
  -2  -4  11 156.196 9.36108   4
  -2  -4  11 143.937 9.27922  13
  -2   4  11 132.558 10.1313   4
   2   4 -11 156.270 10.7770  11
   2   4 -11 151.202 13.0525   2
  -2   4  11 145.880 10.7948   7
   0  -4  11 108.868 8.34794   4
   0  -4 -11 113.610 10.5087   9
   0  -4  11 104.996 8.68090  13
   0   4 -11 94.6946 9.00786  11
   0   4 -11 111.957 10.6945   2
   0   4  11 97.0004 8.62594   7
   0   4  11 104.850 8.66409   4
   9  -5 -11 -1.1144 3.20661  14
  -9  -5  11 -0.7377 3.75578   1
   9  -5 -11 1.87878 2.33347   9
  -9  -5  11 2.54451 2.99382  13
   9  -5 -11 3.19258 5.50709   3
  -9   5  11 0.15826 2.79122  13
   7  -5 -11 248.839 19.3749   3
  -7  -5  11 239.896 12.5099  13
  -7  -5  11 213.729 11.2347  16
  -7  -5  11 231.664 13.4561   1
   7  -5 -11 240.248 14.3104   9
   7   5 -11 243.484 15.3940   2
  -7   5  11 242.646 13.2601   4
  -7   5  11 239.349 12.2478  13
  -5  -5  11 162.842 10.9977   1
   5  -5 -11 154.992 13.7649   3
   5  -5 -11 199.056 12.5853   9
  -5  -5  11 166.418 9.08908  16
  -5  -5  11 176.710 10.6393  13
  -5   5  11 166.593 10.8384   4
   5   5 -11 160.335 12.7296   2
   3  -5 -11 57.2482 7.93926   9
  -3  -5  11 65.4875 6.84833  13
   3   5 -11 57.4828 6.47285  11
   3   5 -11 79.0266 10.2300   2
  -3   5  11 48.3063 6.45442   4
  -3   5  11 60.4107 7.85029   7
   1  -5 -11 107.561 10.2696   9
  -1  -5  11 110.049 8.85823  13
  -1   5  11 102.168 9.53613   4
   1   5 -11 96.1722 9.85467   2
  -1   5  11 94.6449 9.51333   7
   1   5 -11 93.9727 9.01555  11
   1  -5  11 3.17965 3.72529  13
   1   5  11 2.09910 4.10592   7
  -8  -6  11 99.2764 9.11368   1
  -8  -6  11 89.5923 8.16371  13
   8  -6 -11 99.5820 12.8956   3
   8  -6 -11 98.6637 9.55072   9
  -8   6  11 103.590 8.43391   4
   8   6 -11 127.537 10.1972   2
   6  -6 -11 89.2650 8.64160   9
   6  -6 -11 81.6310 10.7932   3
  -6  -6  11 79.2719 8.00637  16
  -6  -6  11 83.7244 8.75517   1
  -6  -6  11 88.3072 7.78787  13
  -6   6  11 107.467 8.82125   4
   4  -6 -11 4.65914 4.03496   9
  -4  -6  11 9.80966 3.83631  13
  -4  -6  11 4.71287 2.88871   1
  -4  -6  11 1.90419 2.45118  16
  -4   6  11 2.45954 3.62269   7
   4   6 -11 3.30038 4.85764   2
  -4   6  11 -0.1476 3.13157   4
   2  -6 -11 161.497 12.4886   9
  -2  -6  11 161.817 10.6131  13
  -2   6  11 155.190 11.9997   7
   2   6 -11 146.103 13.6831   2
  -2   6  11 162.063 10.4824   4
   2   6 -11 156.131 10.8331  11
   0  -6  11 211.971 12.4673  13
   0   6 -11 196.701 13.3868  11
   0   6  11 197.816 12.7279   4
   0   6 -11 196.180 14.1947   2
   0   6  11 193.632 13.5673   7
  -7  -7  11 1.06278 3.97292   1
   7  -7 -11 5.69332 4.37705   9
   7  -7 -11 8.36575 4.99282   3
  -7  -7  11 6.08853 3.43774  13
  -7   7  11 5.20071 3.45861   4
   7   7 -11 4.49520 2.89263   2
  -5  -7  11 147.638 9.20026  13
   5  -7 -11 145.911 11.2014   9
  -5  -7  11 134.362 10.8270   1
  -5   7  11 123.195 9.58629   4
   5   7 -11 133.906 12.6370   2
  -5   7  11 125.515 10.8047   7
   3  -7 -11 140.163 11.2378   9
  -3  -7  11 146.105 10.0901  13
  -3  -7  11 149.008 11.0469   1
  -3   7  11 150.917 10.7127   4
  -3   7  11 146.857 11.7750   7
   3   7 -11 146.104 13.3384   2
   1  -7 -11 -2.0885 3.80020   9
  -1  -7  11 -0.1679 2.44332  13
  -1   7  11 1.72533 3.90705   4
  -1   7  11 5.90549 3.64623   7
   1   7 -11 4.74288 5.06597   2
   1   7 -11 7.33087 3.52803  11
   6  -8 -11 18.8299 4.86785   9
  -6  -8  11 27.0971 4.73833  13
  -6  -8  11 28.2555 5.97856   1
  -6   8  11 17.4245 4.40665   7
   6   8 -11 21.0686 5.93707   2
   4  -8 -11 153.869 12.4140   9
  -4  -8  11 166.189 12.0127   1
  -4  -8  11 166.026 10.5574  13
   4   8 -11 158.092 14.2586   2
  -4   8  11 163.897 11.9059   7
  10   0 -12 1993.57 75.9065   3
 -10   0  12 1778.25 62.8830  13
  -8   0  12 1437.75 48.1144  13
  -8   0  12 1440.91 48.8059   4
   8   0 -12 1287.46 47.8533   9
  -6   0  12 1394.24 48.1760  13
   6   0 -12 1417.42 50.6912   9
  -6   0  12 1453.07 49.2546   4
  -4   0  12 1382.99 47.1740  13
  -4   0  12 1418.94 48.3372   4
   4   0 -12 1384.49 50.8317   9
   2   0 -12 904.647 36.7818   9
  -2   0  12 878.056 31.8293  13
  -2   0  12 907.239 33.0680   4
   2   0 -12 879.956 33.6176  11
  -2   0  12 818.217 32.1374   7
   0   0  12 1335.81 47.1528   4
   0   0 -12 1304.15 49.3513  11
   0   0 -12 1387.94 51.6252   9
 -11  -1  12 108.686 8.98751  13
  11  -1 -12 133.659 18.0491   3
 -11   1  12 107.951 9.84816  13
 -11   1  12 109.226 10.3965   1
  11   1 -12 109.719 14.1905   3
  -9  -1  12 265.956 14.5841  13
  -9  -1  12 255.786 12.6246  16
  -9  -1  12 261.584 15.0369   1
  -9  -1  12 282.693 15.3389   4
   9  -1 -12 289.222 21.1016   3
   9  -1 -12 251.415 13.6973   9
   9   1 -12 320.175 22.1422   3
  -9   1  12 258.358 14.5918  13
   7  -1 -12 438.800 20.4398   9
  -7  -1  12 465.047 19.6873  13
  -7  -1  12 431.931 19.2073   4
   7   1 -12 406.029 19.8611   9
  -7   1  12 429.520 18.9307  13
  -7   1  12 447.368 20.0754   4
  -5  -1  12 134.129 9.69474   4
   5  -1 -12 153.142 11.5304   9
  -5  -1  12 133.693 8.89590  13
   5   1 -12 122.318 10.5824   9
  -5   1  12 135.436 9.18384  13
  -5   1  12 124.566 9.08221   4
  -3  -1  12 318.041 15.2992   4
   3  -1 -12 304.658 17.2179   9
   3  -1 -12 288.815 14.8635  11
  -3  -1  12 285.828 13.9806  13
   3   1 -12 281.610 14.7300  11
   3   1 -12 278.215 16.8714   9
  -3   1  12 288.631 13.9175  13
  -3   1  12 286.255 14.9024   7
  -3   1  12 308.207 15.5490   4
  -1  -1  12 360.014 17.0889   4
   1  -1 -12 369.398 18.5295  11
  -1  -1  12 373.922 16.6560  13
   1  -1 -12 397.835 20.7890   9
   1   1 -12 351.727 18.5775  11
  -1   1  12 341.640 16.0760  13
  -1   1  12 362.058 17.1803   7
  -1   1  12 353.750 17.2034   4
  10  -2 -12 172.988 17.0322   3
 -10  -2  12 151.583 11.8917   1
 -10  -2  12 151.668 10.9597  13
 -10   2  12 138.884 10.5955  13
   8  -2 -12 31.0515 8.02460   3
  -8  -2  12 38.4833 4.38409  16
  -8  -2  12 41.3402 5.61297   4
  -8  -2  12 34.6643 5.92096  13
  -8  -2  12 42.4237 6.19340   1
   8  -2 -12 40.6821 6.27270   9
  -8   2  12 31.8145 4.94445  13
  -8   2  12 41.2968 6.55896   4
  -6  -2  12 345.173 16.4562  13
   6  -2 -12 369.208 18.7593   9
  -6  -2  12 369.100 17.0415   4
  -6   2  12 353.556 17.4698   4
   6   2 -12 371.714 18.3934   9
  -6   2  12 342.532 16.1817  13
  -4  -2  12 706.800 27.0070   4
  -4  -2  12 699.286 26.8493  13
   4  -2 -12 700.054 30.1002   9
  -4   2  12 655.761 25.4455  13
  -4   2  12 684.201 27.4376   4
  -2  -2  12 169.763 10.4431  13
  -2  -2  12 184.606 11.3006   4
   2  -2 -12 174.065 13.5472   9
   2   2 -12 165.196 11.5025  11
  -2   2  12 189.548 11.8393   7
  -2   2  12 184.616 12.0904   4
   0  -2  12 122.234 9.88132   4
   0  -2  12 115.035 8.69382  13
   0  -2 -12 139.613 12.3934   9
   0   2  12 131.969 10.0022   7
   0   2 -12 113.734 10.6749  11
   0   2  12 137.951 10.7923   4
  -9  -3  12 653.444 26.2279  13
  -9  -3  12 626.543 25.6384   4
  -9  -3  12 627.936 27.2111   1
   9  -3 -12 615.389 26.1425   9
   9  -3 -12 709.369 36.2000   3
  -9   3  12 629.204 27.1062   4
  -9   3  12 635.702 25.8197  13
   7  -3 -12 1055.45 45.1620   3
   7  -3 -12 1020.49 39.1754   9
  -7  -3  12 1052.10 38.3362   1
  -7  -3  12 1089.86 37.7896  13
  -7  -3  12 1060.00 37.5312   4
  -7  -3  12 1035.82 35.2964  16
   7   3 -12 989.456 38.0782   9
   7   3 -12 1068.89 40.9994   2
  -7   3  12 1033.72 38.2723   4
  -7   3  12 1099.92 37.6975  13
   5  -3 -12 830.063 33.9247   9
  -5  -3  12 869.465 31.3275   4
  -5  -3  12 844.290 31.3046  13
   5   3 -12 834.635 35.5220   2
  -5   3  12 834.439 30.4629  13
  -5   3  12 858.430 32.3154   4
   3  -3 -12 915.589 36.8994   9
  -3  -3  12 929.852 33.3392   4
  -3  -3  12 919.340 33.5231  13
   3   3 -12 971.587 39.1738   2
   3   3 -12 877.001 33.7678  11
  -3   3  12 904.711 34.1791   4
  -3   3  12 865.683 34.4029   7
  -1  -3  12 772.948 29.7169   4
  -1  -3  12 795.915 29.9664  13
   1  -3 -12 825.547 33.9484   9
   1   3 -12 779.905 32.3483  11
  -1   3  12 778.130 30.8281   7
  -1   3  12 812.969 31.2218   4
 -10  -4  12 191.323 12.1164  13
  10  -4 -12 205.639 12.7274  14
  10  -4 -12 198.545 19.4040   3
 -10  -4  12 175.084 13.2086   1
 -10   4  12 168.405 11.7714  13
  -8  -4  12 101.036 8.85349  13
   8  -4 -12 105.352 9.74404   9
   8  -4 -12 121.262 14.2835   3
  -8  -4  12 112.778 9.08340   1
  -8   4  12 120.228 10.9990   4
  -8   4  12 113.888 8.26258  13
   8   4 -12 117.979 9.83290   2
  -6  -4  12 28.4278 4.01173  16
   6  -4 -12 26.9282 7.07779   3
  -6  -4  12 21.1110 4.97693   4
   6  -4 -12 36.1210 6.51659   9
  -6  -4  12 30.8030 4.88658   1
  -6  -4  12 36.7413 5.16171  13
  -6   4  12 32.9272 4.81614  13
   6   4 -12 30.1259 6.21567   2
  -6   4  12 38.8638 6.20106   4
   6   4 -12 32.6764 5.52056   9
   4  -4 -12 24.7649 6.02681   9
  -4  -4  12 29.0183 4.72314  13
  -4  -4  12 27.5705 4.54260   4
  -4   4  12 29.1501 5.62220   7
   4   4 -12 27.5433 6.35201   2
  -4   4  12 33.2593 5.46581   4
   2  -4 -12 16.3720 5.57878   9
  -2  -4  12 20.3037 4.20821  13
   2   4 -12 26.4217 6.82215   2
   2   4 -12 23.8420 4.47515  11
  -2   4  12 14.0797 4.91801   4
  -2   4  12 18.8903 5.04173   7
   9  -5 -12 332.643 17.1150   9
  -9  -5  12 338.427 16.1087  13
  -9  -5  12 345.280 18.1961   1
   9  -5 -12 345.536 25.1182   3
  -9   5  12 313.213 16.0714  13
  -9   5  12 345.759 17.7806   4
   7  -5 -12 340.000 23.0746   3
   7  -5 -12 337.801 18.4812   9
  -7  -5  12 337.346 16.4394  13
  -7  -5  12 361.419 17.8989   1
   7   5 -12 328.641 18.6502   2
  -7   5  12 353.366 17.4469   4
  -5  -5  12 199.370 12.4243   1
   5  -5 -12 203.409 13.5901   9
  -5  -5  12 196.822 11.2857  13
  -5   5  12 184.734 12.6188   7
  -5   5  12 180.110 11.5051   4
   5   5 -12 228.300 16.0976   2
   3  -5 -12 238.201 14.6443   9
  -3  -5  12 208.730 11.9797  13
  -3   5  12 193.159 12.3142   4
  -3   5  12 206.698 13.9041   7
   3   5 -12 224.960 16.5081   2
  -1  -5  12 333.045 16.4489  13
   1  -5 -12 376.081 19.9433   9
   1   5 -12 366.076 20.4544   2
  -1   5  12 352.496 18.6090   7
  -1   5  12 348.389 17.9574   4
   1   5 -12 355.428 18.6445  11
  -8  -6  12 630.140 25.6818  13
  -8  -6  12 644.768 27.8934   1
   8  -6 -12 653.578 28.1289   9
   8  -6 -12 642.731 35.2194   3
   8   6 -12 674.279 28.7477   2
   6  -6 -12 861.420 40.0058   3
   6  -6 -12 880.783 35.4282   9
  -6  -6  12 875.783 32.5322  13
  -6   6  12 868.257 35.0992   7
   6   6 -12 896.585 37.6012   2
  -6   6  12 857.590 33.3432   4
   4  -6 -12 1229.27 46.2128   9
  -4  -6  12 1195.95 42.3107  13
  -4  -6  12 1236.56 43.7049   1
   4   6 -12 1249.28 49.1239   2
  -4   6  12 1182.13 43.1263   4
  -4   6  12 1157.93 44.6793   7
   2  -6 -12 962.348 38.5609   9
  -2  -6  12 996.203 35.4185  13
   2   6 -12 887.926 35.9447  11
   2   6 -12 961.379 39.8999   2
  -2   6  12 922.983 35.7268   4
  -2   6  12 973.820 37.5516   7
   5  -7 -12 277.348 16.5973   9
  -5  -7  12 294.875 16.2127   1
   5   7 -12 268.645 17.9317   2
  -5   7  12 259.987 16.4558   7
  -5   7  12 296.126 15.5703   4
  10   0 -13 3.07568 4.29309   3
 -10   0  13 1.92717 2.74591  13
 -10   0  13 7.44132 4.15851   4
  -8   0  13 -0.8763 3.44635   4
  -8   0  13 -3.8110 3.17147  13
   8   0 -13 -0.2381 3.08349   9
  -6   0  13 2.87132 3.77198   4
  -6   0  13 -1.1181 2.05580  13
   6   0 -13 0.96249 3.53387   9
   4   0 -13 -0.4092 3.75404   9
  -4   0  13 -0.9514 2.15615  13
  -4   0  13 2.53459 2.87626   7
  -4   0  13 2.25308 2.76711   4
  -2   0  13 3.59636 3.96541   4
  -2   0  13 3.19199 3.22618  13
   2   0 -13 3.63399 4.35313   9
   9  -1 -13 118.476 13.0327   3
   9  -1 -13 102.423 9.10373   9
  -9  -1  13 108.484 9.54729  13
  -9   1  13 114.401 9.01972  13
  -9   1  13 110.309 9.38230   4
  -7  -1  13 132.866 9.73495   4
   7  -1 -13 129.517 10.8094   9
  -7  -1  13 119.067 9.77855  13
  -7   1  13 122.878 8.93320  13
   7   1 -13 121.075 10.3059   9
  -7   1  13 131.585 10.5491   4
   5  -1 -13 28.5855 6.74606   9
  -5  -1  13 31.5681 5.60839  13
  -5  -1  13 28.7064 5.65775   4
  -5   1  13 31.8007 5.17073  13
  -5   1  13 25.6350 4.91140   4
   5   1 -13 34.3720 6.65991   9
  -3  -1  13 0.44184 3.54919  13
  -3  -1  13 -3.8100 3.28671   4
   3  -1 -13 -2.0567 3.75003   9
   3   1 -13 5.06569 2.85370  11
  -3   1  13 -0.4343 2.59290   4
  -3   1  13 1.67379 3.11188  13
   3   1 -13 -0.6688 4.08719   9
  -3   1  13 1.93434 3.21848   7
  -8  -2  13 129.790 9.80654   4
   8  -2 -13 107.949 9.85560   9
  -8  -2  13 113.763 9.66387  13
  -8   2  13 123.154 9.60052  13
  -8   2  13 99.2782 10.0909   4
  -6  -2  13 296.782 15.2865  13
  -6  -2  13 305.735 15.5002   4
   6  -2 -13 294.091 16.7701   9
  -6   2  13 287.358 15.3309   4
  -6   2  13 272.872 14.4458  13
   6   2 -13 290.425 16.7000   9
  -4  -2  13 223.286 13.0324   4
   4  -2 -13 230.560 15.6791   9
  -4  -2  13 234.771 13.2321  13
   4   2 -13 218.302 15.1473   9
  -4   2  13 225.764 13.6233   7
  -4   2  13 214.232 11.4671  13
  -4   2  13 227.100 13.3258   4
   2  -2 -13 139.736 12.1278   9
  -2  -2  13 134.617 9.61349   4
  -2  -2  13 141.431 10.4830  13
   2   2 -13 144.064 10.3250  11
  -2   2  13 137.948 10.6293   7
  -2   2  13 140.348 10.4622   4
   9  -3 -13 42.6132 6.48257   9
  -9  -3  13 39.8684 6.82822   1
  -9  -3  13 42.6440 5.80632  13
  -9  -3  13 46.9812 6.37298   4
  -9   3  13 42.6085 6.38032  13
  -9   3  13 43.0487 6.90208   4
  -7  -3  13 8.01278 3.17123   4
  -7  -3  13 5.64541 4.00513  13
   7  -3 -13 10.2009 3.78158   9
  -7   3  13 16.2831 4.52470   4
  -7   3  13 8.94896 3.59246  13
   7   3 -13 6.82253 3.83131   9
  -5  -3  13 25.2722 4.91002   4
  -5  -3  13 33.2167 5.81056  13
   5  -3 -13 33.7902 6.87944   9
  -5   3  13 26.2741 4.61010  13
   5   3 -13 34.7885 6.82027   9
  -5   3  13 26.4683 5.60418   4
  -5   3  13 23.3620 5.45067   7
  -3  -3  13 1.90462 2.57660   4
   3  -3 -13 2.61132 4.62278   9
  -3  -3  13 11.5944 3.84236  13
  -3   3  13 7.89719 4.31018   7
  -3   3  13 4.37794 3.27282   4
  -8  -4  13 59.2174 7.42669   1
  -8  -4  13 64.9674 7.07076  13
   8  -4 -13 68.1452 8.61557   9
   8  -4 -13 71.4673 11.9381   3
  -8   4  13 80.9500 9.07111   4
  -8   4  13 70.5158 7.68847  13
   6  -4 -13 20.2180 5.89699   9
  -6  -4  13 18.3673 4.89812  13
  -6   4  13 25.9609 5.00474   4
   6   4 -13 30.2397 7.14858   2
   6   4 -13 19.6504 5.14256   9
  -4  -4  13 124.260 9.93805  13
   4  -4 -13 111.011 11.2157   9
   4   4 -13 123.080 12.8316   2
  -4   4  13 117.738 10.0414   4
  -4   4  13 113.368 10.5020   7
   7  -5 -13 12.5548 5.32887   9
  -7  -5  13 14.6438 4.68697   1
  -7  -5  13 10.4593 4.38675  13
   7   5 -13 25.7278 5.12297   2
  -7   5  13 17.0763 5.24229   4
   5  -5 -13 25.0049 6.52203   9
  -5  -5  13 32.1718 5.02859  13
  -5   5  13 29.4680 5.94618   7
   5   5 -13 27.2083 6.78685   2
  -5   5  13 28.1642 5.74367   4
   6   0 -14 12.9466 4.40893   9
  -6   0  14 9.48863 3.46532  13
  -6   0  14 12.3522 4.65273   4
  -7  -1  14 535.683 23.5498   4
  -7  -1  14 541.768 23.5286  13
   7  -1 -14 560.066 25.7975   9
  -7   1  14 562.411 23.1427  13
  -7   1  14 532.641 24.1202   4
   7   1 -14 548.906 25.1815   9
  -5  -1  14 451.981 20.2510  13
   5  -1 -14 457.176 23.3418   9
  -5  -1  14 447.354 20.7874   4
   5   1 -14 429.557 22.5560   9
   0   0   0    0.00    0.00   0

 _exptl_absorpt_process_details
)
 SADABS 2016/2: Krause, L., Herbst-Irmer, R., Sheldrick G.M. & Stalke D.,
 J. Appl. Cryst. 48 (2015) 3-10
)
 _exptl_absorpt_correction_type   multi-scan
 _exptl_absorpt_correction_T_max  0.7479
 _exptl_absorpt_correction_T_min  0.5502
 _exptl_special_details
)
 The following wavelength and cell were deduced by SADABS from the
 direction cosines etc. They are given here for emergency use only:
 CELL 0.71071    7.079    7.558    7.779   89.978  118.585   90.046
)

;
_shelx_hkl_checksum              86146
loop_
_space_group_symop_operation_xyz
'x, y, z'
'-x, y, -z+1/2'
'x+1/2, y+1/2, z'
'-x+1/2, y+1/2, -z+1/2'
'-x, -y, -z'
'x, -y, z-1/2'
'-x+1/2, -y+1/2, -z'
'x+1/2, -y+1/2, z-1/2'
loop_
_atom_site_label
_atom_site_type_symbol
_atom_site_fract_x
_atom_site_fract_y
_atom_site_fract_z
_atom_site_U_iso_or_equiv
_atom_site_adp_type
_atom_site_occupancy
_atom_site_site_symmetry_order
_atom_site_calc_flag
_atom_site_refinement_flags_posn
_atom_site_refinement_flags_adp
_atom_site_refinement_flags_occupancy
_atom_site_disorder_assembly
_atom_site_disorder_group
Fe Fe 0.000000 0.500000 0.000000 0.00810(4) Uani 1 2 d S . P . .
S S 0.000000 0.15360(2) 0.250000 0.00688(5) Uani 1 2 d S T P . .
O1 O 0.16920(7) 0.04295(7) 0.39860(8) 0.01391(8) Uani 1 1 d . . . . .
O2 O 0.09661(7) 0.26840(6) 0.15737(7) 0.01223(8) Uani 1 1 d . . . . .
O3 O 0.000000 0.64461(9) 0.250000 0.01132(10) Uani 1 2 d S T P . .
H H 0.106(3) 0.718(2) 0.296(2) 0.037(4) Uiso 1 1 d . . . . .
loop_
_atom_site_aniso_label
_atom_site_aniso_U_11
_atom_site_aniso_U_22
_atom_site_aniso_U_33
_atom_site_aniso_U_23
_atom_site_aniso_U_13
_atom_site_aniso_U_12
Fe 0.00734(6) 0.00813(6) 0.00863(6) 0.00083(3) 0.00365(4) -0.00008(3)
S 0.00523(7) 0.00633(7) 0.00873(7) 0.000 0.00305(5) 0.000
O1 0.00844(16) 0.01536(19) 0.01643(19) 0.00751(16) 0.00475(14) 0.00421(14)
O2 0.01166(16) 0.01093(17) 0.01664(19) 0.00494(14) 0.00882(15) 0.00136(13)
O3 0.0115(2) 0.0120(2) 0.0110(2) 0.000 0.00587(19) 0.000
loop_
_atom_type_symbol
_atom_type_description
_atom_type_scat_dispersion_real
_atom_type_scat_dispersion_imag
_atom_type_scat_source
O O 0.0106 0.0060 'International Tables Vol C Tables 4.2.6.8 and 6.1.1.4'
H H 0.0000 0.0000 'International Tables Vol C Tables 4.2.6.8 and 6.1.1.4'
S S 0.1246 0.1234 'International Tables Vol C Tables 4.2.6.8 and 6.1.1.4'
Mg Mg 0.0486 0.0363 'International Tables Vol C Tables 4.2.6.8 and 6.1.1.4'
Fe Fe 0.3463 0.8444 'International Tables Vol C Tables 4.2.6.8 and 6.1.1.4'
loop_
_geom_angle_atom_site_label_1
_geom_angle_atom_site_label_2
_geom_angle_atom_site_label_3
_geom_angle
_geom_angle_site_symmetry_1
_geom_angle_site_symmetry_3
_geom_angle_publ_flag
O2 Fe O2 180.0 . 5_565 ?
O2 Fe O1 94.89(2) . 8_455 ?
O2 Fe O1 85.11(2) 5_565 8_455 ?
O2 Fe O1 85.11(2) . 4 ?
O2 Fe O1 94.89(2) 5_565 4 ?
O1 Fe O1 180.0 8_455 4 ?
O2 Fe O3 92.12(2) . . ?
O2 Fe O3 87.88(2) 5_565 . ?
O1 Fe O3 86.456(17) 8_455 . ?
O1 Fe O3 93.544(17) 4 . ?
O2 Fe O3 87.88(2) . 5_565 ?
O2 Fe O3 92.12(2) 5_565 5_565 ?
O1 Fe O3 93.544(16) 8_455 5_565 ?
O1 Fe O3 86.456(16) 4 5_565 ?
O3 Fe O3 180.0 . 5_565 ?
O2 Fe O2 82.933(13) . 8_455 ?
O2 Fe O2 97.067(13) 5_565 8_455 ?
O1 Fe O2 42.719(17) 8_455 8_455 ?
O1 Fe O2 137.281(17) 4 8_455 ?
O3 Fe O2 127.679(13) . 8_455 ?
O3 Fe O2 52.320(12) 5_565 8_455 ?
O2 Fe O2 97.067(14) . 4 ?
O2 Fe O2 82.933(13) 5_565 4 ?
O1 Fe O2 137.281(17) 8_455 4 ?
O1 Fe O2 42.719(17) 4 4 ?
O3 Fe O2 52.321(12) . 4 ?
O3 Fe O2 127.679(13) 5_565 4 ?
O2 Fe O2 180.000(17) 8_455 4 ?
O2 Fe O2 138.110(17) . 6_565 ?
O2 Fe O2 41.890(17) 5_565 6_565 ?
O1 Fe O2 112.15(2) 8_455 6_565 ?
O1 Fe O2 67.85(2) 4 6_565 ?
O3 Fe O2 119.838(19) . 6_565 ?
O3 Fe O2 60.163(19) 5_565 6_565 ?
O2 Fe O2 95.508(16) 8_455 6_565 ?
O2 Fe O2 84.492(16) 4 6_565 ?
O2 Fe O2 41.890(17) . 2 ?
O2 Fe O2 138.110(17) 5_565 2 ?
O1 Fe O2 67.85(2) 8_455 2 ?
O1 Fe O2 112.15(2) 4 2 ?
O3 Fe O2 60.162(19) . 2 ?
O3 Fe O2 119.837(19) 5_565 2 ?
O2 Fe O2 84.492(16) 8_455 2 ?
O2 Fe O2 95.508(16) 4 2 ?
O2 Fe O2 180.0 6_565 2 ?
O1 S O1 110.37(5) 2 . ?
O1 S O2 110.07(3) 2 . ?
O1 S O2 108.85(3) . . ?
O1 S O2 108.85(3) 2 2 ?
O1 S O2 110.07(3) . 2 ?
O2 S O2 108.61(4) . 2 ?
S O1 Fe 136.55(3) . 4_545 ?
S O1 O2 35.884(17) . . ?
Fe O1 O2 100.70(2) 4_545 . ?
S O1 O1 34.81(2) . 2 ?
Fe O1 O1 141.00(4) 4_545 2 ?
O2 O1 O1 60.44(2) . 2 ?
S O1 O2 35.266(19) . 2 ?
Fe O1 O2 143.63(3) 4_545 2 ?
O2 O1 O2 60.15(3) . 2 ?
O1 O1 O2 59.69(2) 2 2 ?
S O1 O2 128.20(3) . 4_545 ?
Fe O1 O2 46.660(15) 4_545 4_545 ?
O2 O1 O2 108.89(2) . 4_545 ?
O1 O1 O2 103.95(2) 2 4_545 ?
O2 O1 O2 162.93(3) 2 4_545 ?
S O1 O3 169.99(3) . 7_556 ?
Fe O1 O3 48.477(12) 4_545 7_556 ?
O2 O1 O3 146.78(3) . 7_556 ?
O1 O1 O3 150.219(18) 2 7_556 ?
O2 O1 O3 134.77(3) 2 7_556 ?
O2 O1 O3 61.812(18) 4_545 7_556 ?
S O1 O2 115.47(3) . 8_556 ?
Fe O1 O2 41.889(15) 4_545 8_556 ?
O2 O1 O2 87.59(2) . 8_556 ?
O1 O1 O2 147.88(2) 2 8_556 ?
O2 O1 O2 103.25(3) 2 8_556 ?
O2 O1 O2 88.55(2) 4_545 8_556 ?
O3 O1 O2 61.48(2) 7_556 8_556 ?
S O1 O3 92.43(3) . 3_545 ?
Fe O1 O3 44.735(13) 4_545 3_545 ?
O2 O1 O3 57.402(19) . 3_545 ?
O1 O1 O3 102.74(3) 2 3_545 ?
O2 O1 O3 114.31(3) 2 3_545 ?
O2 O1 O3 61.888(19) 4_545 3_545 ?
O3 O1 O3 93.213(19) 7_556 3_545 ?
O2 O1 O3 57.055(16) 8_556 3_545 ?
S O1 O3 103.04(3) . 1_545 ?
Fe O1 O3 98.36(2) 4_545 1_545 ?
O2 O1 O3 118.43(3) . 1_545 ?
O1 O1 O3 68.225(10) 2 1_545 ?
O2 O1 O3 117.83(2) 2 1_545 ?
O2 O1 O3 53.517(16) 4_545 1_545 ?
O3 O1 O3 83.063(18) 7_556 1_545 ?
O2 O1 O3 138.216(19) 8_556 1_545 ?
O3 O1 O3 107.90(2) 3_545 1_545 ?
S O1 O2 125.61(3) . 6_556 ?
Fe O1 O2 97.57(2) 4_545 6_556 ?
O2 O1 O2 161.28(3) . 6_556 ?
O1 O1 O2 102.25(2) 2 6_556 ?
O2 O1 O2 106.13(2) 2 6_556 ?
O2 O1 O2 81.00(2) 4_545 6_556 ?
O3 O1 O2 51.846(16) 7_556 6_556 ?
O2 O1 O2 108.94(2) 8_556 6_556 ?
O3 O1 O2 139.15(2) 3_545 6_556 ?
O3 O1 O2 54.201(14) 1_545 6_556 ?
S O1 O2 112.64(3) . 7_556 ?
Fe O1 O2 76.50(2) 4_545 7_556 ?
O2 O1 O2 108.58(3) . 7_556 ?
O1 O1 O2 139.88(3) 2 7_556 ?
O2 O1 O2 81.06(2) 2 7_556 ?
O2 O1 O2 115.78(2) 4_545 7_556 ?
O3 O1 O2 58.113(19) 7_556 7_556 ?
O2 O1 O2 43.930(18) 8_556 7_556 ?
O3 O1 O2 100.67(2) 3_545 7_556 ?
O3 O1 O2 132.750(18) 1_545 7_556 ?
O2 O1 O2 79.586(16) 6_556 7_556 ?
S O2 Fe 133.30(3) . . ?
S O2 O1 35.268(17) . . ?
Fe O2 O1 162.76(3) . . ?
S O2 O2 35.69(2) . 2 ?
Fe O2 O2 103.467(18) . 2 ?
O1 O2 O2 60.30(2) . 2 ?
S O2 O1 34.664(18) . 2 ?
Fe O2 O1 118.93(3) . 2 ?
O1 O2 O1 59.87(3) . 2 ?
O2 O2 O1 59.554(19) 2 2 ?
S O2 O3 109.58(3) . 3_545 ?
Fe O2 O3 116.93(2) . 3_545 ?
O1 O2 O3 75.34(2) . 3_545 ?
O2 O2 O3 131.04(3) 2 3_545 ?
O1 O2 O3 115.35(3) 2 3_545 ?
S O2 O1 161.06(3) . 4 ?
Fe O2 O1 48.234(17) . 4 ?
O1 O2 O1 136.19(2) . 4 ?
O2 O2 O1 129.457(18) 2 4 ?
O1 O2 O1 162.93(3) 2 4 ?
O3 O2 O1 71.16(2) 3_545 4 ?
S O2 O3 136.02(3) . 5_565 ?
Fe O2 O3 48.473(16) . 5_565 ?
O1 O2 O3 147.41(3) . 5_565 ?
O2 O2 O3 136.67(3) 2 5_565 ?
O1 O2 O3 101.60(2) 2 5_565 ?
O3 O2 O3 92.003(19) 3_545 5_565 ?
O1 O2 O3 61.674(18) 4 5_565 ?
S O2 O1 92.91(2) . 8_455 ?
Fe O2 O1 43.216(14) . 8_455 ?
O1 O2 O1 128.14(3) . 8_455 ?
O2 O2 O1 74.26(2) 2 8_455 ?
O1 O2 O1 76.75(3) 2 8_455 ?
O3 O2 O1 154.63(2) 3_545 8_455 ?
O1 O2 O1 91.45(2) 4 8_455 ?
O3 O2 O1 63.066(17) 5_565 8_455 ?
S O2 O3 102.68(3) . . ?
Fe O2 O3 46.179(13) . . ?
O1 O2 O3 117.36(2) . . ?
O2 O2 O3 66.987(10) 2 . ?
O1 O2 O3 116.76(2) 2 . ?
O3 O2 O3 124.71(2) 3_545 . ?
O1 O2 O3 64.564(18) 4 . ?
O3 O2 O3 94.652(16) 5_565 . ?
O1 O2 O3 57.743(14) 8_455 . ?
S O2 O1 96.99(3) . 6 ?
Fe O2 O1 110.45(2) . 6 ?
O1 O2 O1 86.141(18) . 6 ?
O2 O2 O1 131.544(16) 2 6 ?
O1 O2 O1 73.87(2) 2 6 ?
O3 O2 O1 58.092(17) 3_545 6 ?
O1 O2 O1 99.00(2) 4 6 ?
O3 O2 O1 62.03(2) 5_565 6 ?
O1 O2 O1 108.94(2) 8_455 6 ?
O3 O2 O1 156.50(2) . 6 ?
S O2 O1 82.22(2) . 7_556 ?
Fe O2 O1 96.37(2) . 7_556 ?
O1 O2 O1 71.42(3) . 7_556 ?
O2 O2 O1 61.81(2) 2 7_556 ?
O1 O2 O1 116.36(3) 2 7_556 ?
O3 O2 O1 86.268(19) 3_545 7_556 ?
O1 O2 O1 78.936(17) 4 7_556 ?
O3 O2 O1 138.69(2) 5_565 7_556 ?
O1 O2 O1 108.95(2) 8_455 7_556 ?
O3 O2 O1 54.810(13) . 7_556 ?
O1 O2 O1 142.086(19) 6 7_556 ?
Fe O3 Fe 121.32(3) . 2 ?
Fe O3 O2 111.776(15) . 3_455 ?
Fe O3 O2 87.820(13) 2 3_455 ?
Fe O3 O2 87.820(13) . 4 ?
Fe O3 O2 111.775(15) 2 4 ?
O2 O3 O2 140.28(3) 3_455 4 ?
Fe O3 O1 45.066(13) . 8_455 ?
Fe O3 O1 103.83(2) 2 8_455 ?
O2 O3 O1 70.063(18) 3_455 8_455 ?
O2 O3 O1 131.676(16) 4 8_455 ?
Fe O3 O1 103.83(2) . 7_556 ?
Fe O3 O1 45.066(14) 2 7_556 ?
O2 O3 O1 131.676(16) 3_455 7_556 ?
O2 O3 O1 70.062(18) 4 7_556 ?
O1 O3 O1 123.05(3) 8_455 7_556 ?
Fe O3 O2 160.05(3) . 6_566 ?
Fe O3 O2 43.649(12) 2 6_566 ?
O2 O3 O2 83.392(18) 3_455 6_566 ?
O2 O3 O2 87.996(18) 4 6_566 ?
O1 O3 O2 139.668(17) 8_455 6_566 ?
O1 O3 O2 56.514(17) 7_556 6_566 ?
Fe O3 O2 43.649(12) . 5_565 ?
Fe O3 O2 160.05(3) 2 5_565 ?
O2 O3 O2 87.996(19) 3_455 5_565 ?
O2 O3 O2 83.392(17) 4 5_565 ?
O1 O3 O2 56.514(17) 8_455 5_565 ?
O1 O3 O2 139.668(18) 7_556 5_565 ?
O2 O3 O2 154.48(3) 6_566 5_565 ?
Fe O3 O2 41.699(14) . . ?
Fe O3 O2 81.06(2) 2 . ?
O2 O3 O2 124.71(2) 3_455 . ?
O2 O3 O2 93.209(14) 4 . ?
O1 O3 O2 60.781(19) 8_455 . ?
O1 O3 O2 67.08(2) 7_556 . ?
O2 O3 O2 119.18(2) 6_566 . ?
O2 O3 O2 85.349(16) 5_565 . ?
Fe O3 O2 81.06(2) . 2 ?
Fe O3 O2 41.699(14) 2 2 ?
O2 O3 O2 93.209(14) 3_455 2 ?
O2 O3 O2 124.71(2) 4 2 ?
O1 O3 O2 67.08(2) 8_455 2 ?
O1 O3 O2 60.781(19) 7_556 2 ?
O2 O3 O2 85.349(17) 6_566 2 ?
O2 O3 O2 119.18(2) 5_565 2 ?
O2 O3 O2 46.03(2) . 2 ?
Fe O3 O1 120.55(2) . 3_455 ?
Fe O3 O1 41.721(11) 2 3_455 ?
O2 O3 O1 47.256(15) 3_455 3_455 ?
O2 O3 O1 147.539(16) 4 3_455 ?
O1 O3 O1 79.888(17) 8_455 3_455 ?
O1 O3 O1 86.788(19) 7_556 3_455 ?
O2 O3 O1 59.879(16) 6_566 3_455 ?
O2 O3 O1 127.526(16) 5_565 3_455 ?
O2 O3 O1 98.45(2) . 3_455 ?
O2 O3 O1 53.548(15) 2 3_455 ?
Fe O3 O1 41.721(11) . 4 ?
Fe O3 O1 120.55(2) 2 4 ?
O2 O3 O1 147.539(16) 3_455 4 ?
O2 O3 O1 47.256(15) 4 4 ?
O1 O3 O1 86.788(19) 8_455 4 ?
O1 O3 O1 79.888(17) 7_556 4 ?
O2 O3 O1 127.526(16) 6_566 4 ?
O2 O3 O1 59.879(16) 5_565 4 ?
O2 O3 O1 53.548(15) . 4 ?
O2 O3 O1 98.45(2) 2 4 ?
O1 O3 O1 151.88(3) 3_455 4 ?
Fe O3 H 108.3(11) . . ?
Fe O3 H 108.5(11) 2 . ?
O2 O3 H 118.7(12) 3_455 . ?
O2 O3 H 23.6(11) 4 . ?
O1 O3 H 146.7(11) 8_455 . ?
O1 O3 H 77.1(11) 7_556 . ?
O2 O3 H 72.9(11) 6_566 . ?
O2 O3 H 90.6(11) 5_565 . ?
O2 O3 H 116.2(12) . . ?
O2 O3 H 137.8(11) 2 . ?
O1 O3 H 131.0(11) 3_455 . ?
O1 O3 H 69.9(11) 4 . ?
Fe O3 H 108.5(11) . 2 ?
Fe O3 H 108.3(11) 2 2 ?
O2 O3 H 23.6(11) 3_455 2 ?
O2 O3 H 118.7(12) 4 2 ?
O1 O3 H 77.1(11) 8_455 2 ?
O1 O3 H 146.7(11) 7_556 2 ?
O2 O3 H 90.6(11) 6_566 2 ?
O2 O3 H 72.9(11) 5_565 2 ?
O2 O3 H 137.8(11) . 2 ?
O2 O3 H 116.2(12) 2 2 ?
O1 O3 H 69.9(11) 3_455 2 ?
O1 O3 H 131.0(11) 4 2 ?
H O3 H 100(2) . 2 ?
loop_
_geom_bond_atom_site_label_1
_geom_bond_atom_site_label_2
_geom_bond_distance
_geom_bond_site_symmetry_2
_geom_bond_publ_flag
Fe O2 2.0560(5) . ?
Fe O2 2.0560(5) 5_565 ?
Fe O1 2.1085(6) 8_455 ?
Fe O1 2.1085(6) 4 ?
Fe O3 2.2299(4) . ?
Fe O3 2.2300(4) 5_565 ?
Fe O2 3.4768(6) 8_455 ?
Fe O2 3.4769(6) 4 ?
Fe O2 3.5173(6) 6_565 ?
Fe O2 3.5173(6) 2 ?
S O1 1.4646(5) 2 ?
S O1 1.4646(5) . ?
S O2 1.4868(5) . ?
S O2 1.4868(5) 2 ?
O1 O2 2.4005(7) . ?
O1 O1 2.4048(11) 2 ?
O1 O2 2.4187(7) 2 ?
O1 O2 2.8166(7) 4_545 ?
O1 O3 2.9728(7) 7_556 ?
O1 O2 3.0680(8) 8_556 ?
O1 O3 3.1623(6) 3_545 ?
O1 O3 3.2414(9) 1_545 ?
O1 O2 3.2920(8) 6_556 ?
O1 O2 3.3503(9) 7_556 ?
O2 O2 2.4149(9) 2 ?
O2 O3 2.7537(6) 3_545 ?
O2 O3 2.9766(6) 5_565 ?
O2 O3 3.0886(9) . ?
O3 H 0.863(17) . ?
O3 H 0.863(17) 2 ?
loop_
_geom_hbond_atom_site_label_D
_geom_hbond_atom_site_label_H
_geom_hbond_atom_site_label_A
_geom_hbond_distance_DH
_geom_hbond_distance_HA
_geom_hbond_distance_DA
_geom_hbond_angle_DHA
_geom_hbond_site_symmetry_A
_geom_hbond_publ_flag
O3 H O2 0.863(17) 1.993(16) 2.7537(6) 146.4(16) 4 yes
