#------------------------------------------------------------------------------
#$Date: 2021-10-29 01:28:10 +0300 (Fri, 29 Oct 2021) $
#$Revision: 270106 $
#$URL: file:///home/coder/svn-repositories/cod/cif/1/56/50/1565050.cif $
#------------------------------------------------------------------------------
#
# This file is available in the Crystallography Open Database (COD),
# http://www.crystallography.net/
#
# All data on this site have been placed in the public domain by the
# contributors.
#
data_1565050
loop_
_publ_author_name
'Beucher, Helene'
'Schoergenhumer, Johannes'
'Merino, Est\'ibaliz'
'Nevado, Cristina'
_publ_section_title
;
 Chelation-Assisted C-C Bond Activation of Biphenylene by Gold(I) Halides
;
_journal_name_full               'Chemical Science'
_journal_paper_doi               10.1039/D1SC03814A
_journal_year                    2021
_chemical_formula_moiety         'C18 H12 Au Cl I N'
_chemical_formula_sum            'C18 H12 Au Cl I N'
_chemical_formula_weight         601.60
_space_group_crystal_system      triclinic
_space_group_IT_number           2
_space_group_name_Hall           '-P 1'
_space_group_name_H-M_alt        'P -1'
_atom_sites_solution_hydrogens   geom
_atom_sites_solution_primary     dual
_atom_sites_solution_secondary   difmap
_audit_creation_method           SHELXL-2018/3
_audit_update_record
;
2021-02-25 deposited with the CCDC.	2021-10-27 downloaded from the CCDC.
;
_cell_angle_alpha                97.8087(16)
_cell_angle_beta                 104.2790(15)
_cell_angle_gamma                107.5011(15)
_cell_formula_units_Z            2
_cell_length_a                   7.30740(10)
_cell_length_b                   10.1541(2)
_cell_length_c                   11.6688(2)
_cell_measurement_reflns_used    19330
_cell_measurement_temperature    160(2)
_cell_measurement_theta_max      33.1990
_cell_measurement_theta_min      2.1780
_cell_volume                     779.30(3)
_computing_cell_refinement
'CrysAlisPro, Version 1.171.40.68a (Rigaku Oxford Diffraction, 2019)'
_computing_data_collection
'CrysAlisPro, Version 1.171.40.68a (Rigaku Oxford Diffraction, 2019)'
_computing_data_reduction
'CrysAlisPro, Version 1.171.40.68a (Rigaku Oxford Diffraction, 2019)'
_computing_molecular_graphics    'ORTEPII (Johnson, 1976)'
_computing_publication_material  'SHELXL-2018 and PLATON (Spek, 2015)'
_computing_structure_refinement  'SHELXL-2018 (Sheldrick, 2015b)'
_computing_structure_solution    'SHELXT-2018 (Sheldrick, 2015a)'
_diffrn_ambient_environment      N~2~
_diffrn_ambient_temperature      160(2)
_diffrn_detector                 'hybrid pixel area detector'
_diffrn_detector_area_resol_mean 5.81
_diffrn_detector_type
'Pilatus 200K hybrid pixel area detector on \k goniostat'
_diffrn_measured_fraction_theta_full 1.000
_diffrn_measured_fraction_theta_max 0.902
_diffrn_measurement_device       'four-circle \k-geometry diffractometer'
_diffrn_measurement_device_type
'Rigaku Oxford Diffraction XtaLAB Synergy, dual radiation diffractometer'
_diffrn_measurement_method       '\w scans'
_diffrn_radiation_monochromator  mirror
_diffrn_radiation_probe          x-ray
_diffrn_radiation_type           'Mo K\a'
_diffrn_radiation_wavelength     0.71073
_diffrn_reflns_av_R_equivalents  0.0302
_diffrn_reflns_av_unetI/netI     0.0209
_diffrn_reflns_Laue_measured_fraction_full 1.000
_diffrn_reflns_Laue_measured_fraction_max 0.902
_diffrn_reflns_limit_h_max       11
_diffrn_reflns_limit_h_min       -9
_diffrn_reflns_limit_k_max       15
_diffrn_reflns_limit_k_min       -14
_diffrn_reflns_limit_l_max       17
_diffrn_reflns_limit_l_min       -17
_diffrn_reflns_number            25807
_diffrn_reflns_point_group_measured_fraction_full 1.000
_diffrn_reflns_point_group_measured_fraction_max 0.902
_diffrn_reflns_theta_full        25.242
_diffrn_reflns_theta_max         33.036
_diffrn_reflns_theta_min         2.160
_diffrn_source                   'micro-focus sealed X-ray tube'
_diffrn_source_type              'PhotonJet (Mo) X-ray source'
_exptl_absorpt_coefficient_mu    11.585
_exptl_absorpt_correction_T_max  1.000
_exptl_absorpt_correction_T_min  0.158
_exptl_absorpt_correction_type   gaussian
_exptl_absorpt_process_details
;
Numerical absorption correction based on gaussian integration over
a multifaceted crystal model 
plus an empirical absorption correction using spherical harmonics, 
implemented in the SCALE3 ABSPACK scaling algorithm.
CrysAlisPro, Version 1.171.40.68a (Rigaku Oxford Diffraction, 2019)
;
_exptl_crystal_colour            yellow
_exptl_crystal_density_diffrn    2.564
_exptl_crystal_description       plate
_exptl_crystal_F_000             552
_exptl_crystal_size_max          0.17
_exptl_crystal_size_mid          0.14
_exptl_crystal_size_min          0.03
_refine_diff_density_max         0.929
_refine_diff_density_min         -1.227
_refine_diff_density_rms         0.116
_refine_ls_extinction_coef       0.00144(15)
_refine_ls_extinction_expression Fc^*^=kFc[1+0.001xFc^2^\l^3^/sin(2\q)]^-1/4^
_refine_ls_extinction_method     'SHELXL-2018 (Sheldrick, 2015b)'
_refine_ls_goodness_of_fit_ref   1.039
_refine_ls_hydrogen_treatment    constr
_refine_ls_matrix_type           full
_refine_ls_number_parameters     201
_refine_ls_number_reflns         5319
_refine_ls_number_restraints     0
_refine_ls_restrained_S_all      1.039
_refine_ls_R_factor_all          0.0202
_refine_ls_R_factor_gt           0.0179
_refine_ls_shift/su_max          0.003
_refine_ls_shift/su_mean         0.000
_refine_ls_structure_factor_coef Fsqd
_refine_ls_weighting_details
'w=1/[\s^2^(Fo^2^)+(0.0167P)^2^+0.8729P] where P=(Fo^2^+2Fc^2^)/3'
_refine_ls_weighting_scheme      calc
_refine_ls_wR_factor_gt          0.0404
_refine_ls_wR_factor_ref         0.0409
_reflns_Friedel_coverage         0.000
_reflns_number_gt                4978
_reflns_number_total             5319
_reflns_threshold_expression     'I > 2\s(I)'
_cod_data_source_file            d1sc03814a2.cif
_cod_data_source_block           NV2009
_cod_original_cell_volume        779.30(2)
_cod_database_code               1565050
_shelx_shelxl_version_number     2018/3
_shelx_space_group_comment
;
The symmetry employed for this shelxl refinement is uniquely defined
by the following loop, which should always be used as a source of
symmetry information in preference to the above space-group names.
They are only intended as comments.
;
_oxdiff_exptl_absorpt_empirical_full_min 0.807
_oxdiff_exptl_absorpt_empirical_full_max 1.277
_oxdiff_exptl_absorpt_empirical_details
;
Empirical correction (ABSPACK) includes:
- Absorption correction using spherical harmonics
- Frame scaling
;
_shelx_res_file
;
TITL nv2009_mo_a.res in P-1
    x.res
    created by SHELXL-2018/3 at 07:44:14 on 03-Jun-2020
REM Old TITL NV2009_Mo in P-1
REM SHELXT solution in P-1: R1 0.058, Rweak 0.010, Alpha 0.030
REM <I/s> 0.000 for 0 systematic absences, Orientation as input
REM Formula found by SHELXT: C16 C8 Cl I Au
CELL 0.71073 7.3074 10.1541 11.6688 97.8087 104.279 107.5011
ZERR 2 0.0001 0.0002 0.0002 0.0016 0.0015 0.0015
LATT 1
SFAC C H Au Cl I N
UNIT 36 24 2 2 2 2

L.S. 4
PLAN  10
TEMP -113
CONF
BOND $H
fmap 2
acta
WGHT    0.016700    0.872900
EXTI    0.001438
FVAR       1.41621
AU1   3    0.226863    0.452866    0.620804    11.00000    0.01887    0.01857 =
         0.02234    0.00794    0.00741    0.00742
I1    5    0.076866    0.238917    0.717882    11.00000    0.03237    0.02743 =
         0.04058    0.01732    0.01600    0.00928
CL1   4    0.710582    1.023882    0.841841    11.00000    0.06208    0.02669 =
         0.03946   -0.00322    0.02390   -0.00660
N1    6    0.117671    0.344376    0.434954    11.00000    0.02195    0.02268 =
         0.02403    0.00553    0.00333    0.00977
C1    1    0.001104    0.207867    0.393220    11.00000    0.02975    0.02183 =
         0.03106    0.00640    0.00233    0.00759
AFIX  43
H1    2   -0.036307    0.153399    0.449192    11.00000   -1.20000
AFIX   0
C2    1   -0.066117    0.144104    0.271805    11.00000    0.03647    0.02485 =
         0.03566   -0.00008   -0.00130    0.00898
AFIX  43
H2    2   -0.148362    0.046804    0.243687    11.00000   -1.20000
AFIX   0
C3    1   -0.011366    0.224703    0.191683    11.00000    0.03590    0.03343 =
         0.02715   -0.00200   -0.00165    0.01604
AFIX  43
H3    2   -0.056736    0.181974    0.107379    11.00000   -1.20000
AFIX   0
C4    1    0.109875    0.368431    0.231941    11.00000    0.02468    0.03201 =
         0.02471    0.00454    0.00380    0.01570
C5    1    0.176763    0.427302    0.357126    11.00000    0.02071    0.02488 =
         0.02349    0.00717    0.00514    0.01223
C6    1    0.155053    0.449068    0.137607    11.00000    0.03956    0.04440 =
         0.02256    0.00885    0.00728    0.01825
AFIX 137
H61   2    0.116265    0.533288    0.147691    11.00000   -1.50000
H62   2    0.078858    0.388370    0.056521    11.00000   -1.50000
H63   2    0.299535    0.478199    0.147016    11.00000   -1.50000
AFIX   0
C7    1    0.308460    0.574799    0.421169    11.00000    0.02021    0.02449 =
         0.02340    0.00848    0.00729    0.01278
C8    1    0.344784    0.607962    0.546671    11.00000    0.01964    0.02177 =
         0.02151    0.00894    0.00862    0.00990
C9    1    0.463979    0.740130    0.623760    11.00000    0.02249    0.02115 =
         0.02487    0.00734    0.01060    0.00989
C10   1    0.554639    0.846776    0.569505    11.00000    0.02601    0.02031 =
         0.03294    0.00886    0.01185    0.00790
AFIX  43
H10   2    0.636541    0.938917    0.617472    11.00000   -1.20000
AFIX   0
C11   1    0.523268    0.816090    0.444879    11.00000    0.02861    0.02748 =
         0.03137    0.01539    0.01477    0.01031
AFIX  43
H11   2    0.586069    0.888750    0.409190    11.00000   -1.20000
AFIX   0
C12   1    0.404231    0.683950    0.370681    11.00000    0.02785    0.03109 =
         0.02371    0.01238    0.01147    0.01376
AFIX  43
H12   2    0.387287    0.667051    0.285975    11.00000   -1.20000
AFIX   0
C13   1    0.474326    0.742347    0.751845    11.00000    0.02242    0.02255 =
         0.02535    0.00644    0.01002    0.00857
C14   1    0.367325    0.610010    0.773082    11.00000    0.02187    0.02425 =
         0.02372    0.00714    0.00910    0.00961
C15   1    0.364804    0.596115    0.889928    11.00000    0.03015    0.03231 =
         0.02612    0.01033    0.01147    0.01034
AFIX  43
H15   2    0.292840    0.507236    0.902647    11.00000   -1.20000
AFIX   0
C16   1    0.466697    0.711257    0.987435    11.00000    0.04104    0.04385 =
         0.02299    0.00887    0.01282    0.01084
AFIX  43
H16   2    0.464899    0.701363    1.066986    11.00000   -1.20000
AFIX   0
C17   1    0.570445    0.839865    0.969195    11.00000    0.03990    0.03622 =
         0.02689    0.00005    0.00948    0.00475
AFIX  43
H17   2    0.640478    0.918762    1.036329    11.00000   -1.20000
AFIX   0
C18   1    0.573599    0.855268    0.853307    11.00000    0.02971    0.02640 =
         0.02981    0.00224    0.01213    0.00254
HKLF 4




REM  nv2009_mo_a.res in P-1
REM wR2 = 0.0409, GooF = S = 1.039, Restrained GooF = 1.039 for all data
REM R1 = 0.0179 for 4978 Fo > 4sig(Fo) and 0.0202 for all 5319 data
REM 201 parameters refined using 0 restraints

END

WGHT      0.0167      0.8729

REM Highest difference peak  0.929,  deepest hole -1.227,  1-sigma level  0.116
Q1    1   0.1179  0.4071  0.5934  11.00000  0.05    0.93
Q2    1   0.1856  0.4442  0.6626  11.00000  0.05    0.88
Q3    1   0.3349  0.4877  0.6446  11.00000  0.05    0.80
Q4    1   0.2801  0.4340  0.6711  11.00000  0.05    0.69
Q5    1   0.2733  0.4422  0.5798  11.00000  0.05    0.56
Q6    1   0.2256  0.4996  0.6260  11.00000  0.05    0.56
Q7    1   0.2370  0.4196  0.5860  11.00000  0.05    0.56
Q8    1   0.1959  0.2917  0.7656  11.00000  0.05    0.53
Q9    1   0.3867  0.6803  0.5835  11.00000  0.05    0.53
Q10   1  -0.0466  0.1529  0.6934  11.00000  0.05    0.53
;
_shelx_res_checksum              97903
_shelx_hkl_file
;
   0   0   2 13739.7 330.501   8
   0   0   2 14356.9 349.070  14
   0   0   3 21580.8 504.800   8
   0   0   3 21138.0 530.556  14
   0   0  -4 19903.2 489.777   5
   0   0   4 19127.8 493.365   4
   0   0   4 20943.8 481.981   8
   0   0   4 20846.2 515.455  14
   0   0  -5 11799.3 307.953   5
   0   0   5 11360.3 311.291   4
   0   0  -5 12353.6 296.071  10
   0   0   5 11920.3 297.530   8
   0   0   5 11687.3 334.253  14
   0   0   6 3697.25 130.228   4
   0   0  -6 3765.45 125.301   5
   0   0  -6 3648.54 112.622  10
   0   0   6 3877.50 116.394   8
   0   0   7 1038.89 62.4537   4
   0   0  -7 1089.88 58.4547   5
   0   0   7 1244.62 80.5233  14
   0   0  -7 874.373 44.3741  10
   0   0   7 1014.69 48.7235   8
   0   0  -8 16333.9 461.429  12
   0   0  -8 16492.6 471.802  14
   0   0   8 16599.1 468.595  14
   0   0  -8 16921.1 406.210  10
   0   0   8 16181.1 408.875   8
   0   0   8 16682.2 437.360   4
   0   0  -8 17245.0 428.814   5
   0   0   9 18032.8 523.296   3
   0   0   9 19371.1 526.385  14
   0   0  -9 19089.5 518.408  12
   0   0   9 19085.2 488.607   4
   0   0   9 17095.3 455.140   8
   0   0  -9 18631.8 448.422  10
   0   0  -9 20597.0 480.766   5
   0   0  10 399.654 61.3129   3
   0   0  10 434.834 62.9785  14
   0   0 -10 470.591 47.3272   5
   0   0 -10 450.686 60.3147  12
   0   0  10 374.387 33.8408   8
   0   0  10 440.470 49.7599   4
   0   0  11 4832.62 177.605  13
   0   0 -11 5134.30 168.775   5
   0   0 -11 4959.11 206.473  12
   0   0  11 4744.88 174.909   4
   0   0  11 4816.81 211.626   3
   0   0  12 7760.04 255.872  13
   0   0 -12 8575.86 246.381   5
   0   0  12 8262.51 255.994   4
   0   0  12 7786.09 297.175   3
   0   0 -12 7922.11 291.958  12
   0   0 -13 2590.72 153.248  12
   0   0  13 2856.23 166.185   3
   0   0  13 2766.12 130.199  13
   0   0  14-29.1580 59.9598   3
   0   0 -14 62.8822 58.7434  12
   0   0  15 779.650 102.315   3
   0   0 -15 764.654 100.193  12
   0   0  16 872.517 115.796   3
   0  -1  16 1999.43 154.465   3
   0  -1  15 211.562 76.0812   3
   0  -1  14 148.441 67.6197   3
   0  -1  13 506.317 63.3707  13
   0  -1  13 428.698 76.1505   3
   0  -1  12 4350.36 168.333  13
   0  -1  12 4373.62 172.538   4
   0  -1  12 4446.82 208.539   3
   0   1 -12 4289.56 162.558   5
   0  -1  11 6049.20 206.741  13
   0  -1  11 5813.64 241.799   3
   0  -1  11 6129.00 212.810   4
   0   1 -11 6086.97 201.447   5
   0  -1  10 2793.92 142.428  14
   0  -1  10 2559.83 116.773  13
   0   1 -10 2646.60 115.496   5
   0  -1  10 2400.08 118.910   4
   0  -1   9 4745.60 192.345  14
   0   1  -9 4792.86 166.519   5
   0  -1   9 4787.86 174.221   4
   0  -1   8 38394.5 914.001  14
   0  -1   8 36990.4 880.554  13
   0   1  -8 36866.2 875.404   5
   0  -1   8 37161.1 884.596   4
   0  -1   7 18454.7 504.167  14
   0  -1   7 19173.1 483.145  13
   0   1  -7 19480.5 478.336   5
   0  -1   7 18871.3 485.674   4
   0  -1   6 10388.7 272.114  13
   0  -1   6 10638.2 291.643  14
   0  -1   6 9874.74 271.836   4
   0   1  -5 14337.3 395.392  12
   0  -1   5 15010.5 380.054  13
   0  -1   5 14975.8 397.912  14
   0  -1   5 14645.4 390.922   4
   0  -1   4 7270.03 204.070  14
   0   1  -4 7475.00 203.906  12
   0  -1   3 6028.85 156.160  13
   0  -1   3 6049.00 165.952  14
   0  -1   2 7998.25 192.889  13
   0  -1   2 8281.79 196.383  12
   0   1  -1 10687.9 252.148  11
   0  -1   1 10446.7 248.918   6
   0   1  -1 10794.5 249.950   6
   0  -1   1 10388.1 250.792   7
   0   1  -1 11224.1 251.777   7
   0   1  -1 10438.6 251.124  13
   0   1  -1 10461.3 249.216  12
   0  -1   1 11165.2 249.437  12
   0   1   0 47523.0 1018.15  13
   0  -1   0 46175.0 1017.10   6
   0  -1   0 42179.8 1014.62  11
   0   1   0 43503.0 1014.88  11
   0   1   0 47442.1 1016.44  14
   0  -1   0 44055.4 1014.04   7
   0   1   1 62005.5 1366.70  11
   0  -1  -1 57788.3 1371.30   6
   0  -1  -1 63267.2 1366.23   3
   0   1   1 56803.6 1371.63  14
   0   1   2 22217.0 505.456  14
   0  -1  -2 20790.3 487.459   4
   0  -1  -3 35963.1 815.901   5
   0   1   3 36614.4 846.003  14
   0  -1  -3 37058.4 822.831   4
   0   1   4 65319.4 1440.02   4
   0  -1  -4 64224.5 1444.20   4
   0   1   4 65044.5 1474.33  14
   0  -1  -5 16567.9 410.332   5
   0   1   5 17066.4 415.599   4
   0   1   5 16388.4 439.660   3
   0   1   5 16232.2 449.224  14
   0   1   6 76.2458 27.8463   3
   0   1   6 80.3926 21.0222   4
   0  -1  -6 56.4095 17.2507   5
   0   1   6 97.5109 21.7830   8
   0   1   7 3458.68 150.163   3
   0  -1  -7 3457.57 158.142  14
   0   1   7 3505.05 155.482  14
   0  -1  -7 3678.25 121.351   5
   0   1   7 3789.39 127.127   8
   0   1   7 3962.33 130.135   4
   0   1   8 3129.60 117.625   4
   0   1   8 2948.67 141.454   3
   0   1   8 3227.65 149.486  14
   0  -1  -8 3173.30 150.094  14
   0  -1  -8 3163.80 111.434   5
   0  -1  -8 3178.14 115.477  10
   0   1   8 3483.10 117.957   8
   0   1   9 2403.25 101.057   4
   0  -1  -9 2502.22 136.688  14
   0   1   9 2472.04 131.971  14
   0   1   9 2435.73 127.738   3
   0  -1  -9 2434.23 94.7517   5
   0  -1  -9 2205.78 93.0076  10
   0   1   9 2451.85 96.2625   8
   0   1  10 9835.12 318.443   3
   0  -1 -10 9525.00 324.710  14
   0  -1 -10 8399.11 303.862  12
   0   1  10 9349.04 270.262   4
   0  -1 -10 9552.81 258.432  10
   0   1  10 9436.42 259.588   8
   0  -1 -10 9287.09 258.209   5
   0   1  11 22.5989 25.6968   8
   0   1  11 29.0326 49.8556   3
   0  -1 -11 57.8489 50.3455  12
   0  -1 -11-6.12172 24.3532  10
   0  -1 -11 46.4867 30.0061   5
   0  -1 -12 5587.90 233.791  12
   0   1  12 5766.63 238.108   3
   0   1  13 5342.63 205.444  13
   0   1  13 6075.97 249.259   3
   0  -1 -13 6095.74 247.769  12
   0   1  14 474.530 84.8096   3
   0  -1 -14 391.297 81.4601  12
   0   1  15 419.337 87.5499   3
   0  -1 -15 439.417 85.3218  12
   0   1  16 1290.23 131.808   3
   0  -2  16 2712.28 181.307   3
   0   2 -16 2864.52 173.965   7
   0   2 -15 2018.48 142.457  12
   0   2 -15 1863.32 139.633   7
   0  -2  15 2257.72 160.073   3
   0  -2  14 99.5027 65.7581   3
   0   2 -14 109.703 59.3164  12
   0   2 -13 3490.10 150.092   5
   0  -2  13 3804.74 193.747   3
   0  -2  13 3341.32 150.581  13
   0  -2  13 3540.94 161.983   4
   0  -2  12 2022.90 112.176  11
   0  -2  12 2148.31 112.890  13
   0   2 -12 2216.52 112.931   5
   0  -2  12 2049.28 116.910   4
   0  -2  12 2198.37 142.664   3
   0  -2  11 1685.72 97.7897  13
   0  -2  11 1499.75 98.2789   4
   0   2 -11 1743.28 97.0953   5
   0  -2  10 5053.00 207.323  14
   0  -2  10 4867.93 182.066  13
   0   2 -10 4967.35 180.564   5
   0  -2  10 4681.36 184.810   4
   0  -2   9 26.1868 36.1164  14
   0  -2   9 75.3501 36.9470   4
   0   2  -9 114.661 36.2214   5
   0  -2   8 18453.4 497.451  14
   0  -2   8 18665.9 477.707  13
   0  -2   8 17647.3 477.741   4
   0  -2   8 16924.7 411.089   2
   0   2  -8 17483.2 406.004   1
   0  -2   7 36622.5 914.262   4
   0  -2   7 38037.7 898.209  13
   0  -2   7 35751.8 914.688  14
   0  -2   6 22181.3 562.153  14
   0  -2   6 21706.4 546.026  13
   0  -2   5 8353.58 221.335  13
   0  -2   5 8648.10 233.111  14
   0   2  -4 67265.5 1559.50  13
   0  -2   4 70249.9 1564.06  13
   0  -2   4 67615.6 1566.99  12
   0  -2   4 67526.6 1569.19  11
   0  -2   3 5924.01 159.867  11
   0  -2   3 5516.73 157.016  13
   0  -2   3 5738.93 155.639  12
   0   2  -2 609.407 29.7274  11
   0   2  -2 527.580 26.6169   6
   0  -2   2 565.471 28.6417   7
   0   2  -2 583.544 29.0311   7
   0  -2   2 597.846 27.0197  12
   0  -2   2 553.894 28.4511  13
   0   2  -1 288.873 18.6685  11
   0  -2   1 316.453 18.8407  11
   0   2  -1 304.691 18.2011   6
   0  -2   1 256.400 16.6337   7
   0   2  -1 259.338 18.5432  13
   0  -2   1 281.123 16.4532  12
   0   2   0 475.797 26.3446  13
   0  -2   0 501.211 25.5654   6
   0   2   0 561.106 24.9536  11
   0  -2   0 509.668 25.1566  14
   0  -2   0 510.086 23.4123   7
   0  -2  -1 9414.58 236.611  14
   0   2   1 9636.91 237.545  13
   0  -2  -1 9792.24 237.017   6
   0   2   1 9330.64 229.846  11
   0  -2  -1 10101.9 222.944   3
   0  -2  -1 9420.61 229.441   7
   0  -2  -2 46594.2 1031.32   6
   0  -2  -2 45571.4 1019.04   3
   0   2   2 44257.5 1016.55   3
   0  -2  -2 46405.4 1032.85  14
   0   2   2 43840.8 1020.59  11
   0   2   3 10160.6 233.761   5
   0  -2  -3 10009.2 265.228   6
   0  -2  -3 10088.8 240.548   4
   0   2   3 10021.1 255.102   3
   0  -2  -3 10320.3 268.339  14
   0   2   3 10029.7 251.127  11
   0  -2  -4 53484.2 1212.40   6
   0   2   4 48866.3 1207.96  14
   0  -2  -4 53137.7 1214.41  14
   0   2   4 49892.3 1198.77   3
   0  -2  -4 51548.0 1175.27   4
   0  -2  -5 42188.1 999.489   6
   0   2   5 41921.1 987.831   3
   0  -2  -5 41983.2 958.504   4
   0  -2  -6 3528.58 149.028   6
   0   2   6 3401.12 140.954   3
   0   2   6 3455.17 149.855  14
   0   2   7 1830.65 57.7879   1
   0  -2  -7 1668.40 55.3088   2
   0  -2  -7 1947.38 108.486   6
   0  -2  -7 1900.70 115.643  14
   0   2   7 1666.02 110.236  14
   0   2   7 1754.44 99.2331   3
   0   2   7 2075.76 93.9217   8
   0  -2  -8 3615.65 155.662   6
   0  -2  -8 3523.24 165.694  14
   0   2   8 3083.84 158.780  14
   0   2   8 3421.06 131.974   8
   0   2   8 3238.22 147.860   3
   0   2   9 3051.89 146.315   3
   0  -2  -9 3037.66 146.529   6
   0  -2  -9 3224.31 163.770  14
   0  -2  -9 3385.14 131.690  10
   0   2   9 3182.55 128.174   8
   0  -2 -10 1702.75 120.718  14
   0  -2 -10 1845.46 111.084   6
   0  -2 -10 1537.08 84.3496  10
   0   2  10 1666.55 86.3610   8
   0   2  11 1566.27 111.335   3
   0  -2 -11 1592.77 121.627  14
   0  -2 -11 1553.90 113.418  12
   0  -2 -11 1470.00 82.0418  10
   0   2  11 1540.81 82.3669   8
   0  -2 -12 361.736 75.1576  12
   0  -2 -12 269.498 70.5224  14
   0   2  12 274.143 67.1826   3
   0  -2 -13 3278.10 181.913  12
   0   2  13 3760.40 190.630   3
   0  -2 -14 1507.62 129.836  12
   0   2  14 1618.46 131.163   3
   0  -2 -15 69.3757 67.0955  12
   0   2  15 44.6642 70.9771   3
   0   2  16 163.848 80.8055   3
   0  -3  16 1606.18 145.682   3
   0   3 -16 1424.24 130.723  12
   0  -3  16 1592.24 130.133   9
   0   3 -16 1726.66 137.465   7
   0   3 -15 3582.16 197.158  12
   0  -3  15 3849.73 211.655   3
   0   3 -15 3866.06 201.257   7
   0   3 -14 1435.42 121.893  12
   0  -3  14 1578.45 136.220   3
   0   3 -14 1764.04 132.419   7
   0   3 -13 1736.22 124.341  12
   0  -3  13 1383.83 97.4219  13
   0   3 -13 1445.57 118.734   7
   0   3 -12 10890.7 362.099   7
   0  -3  12 11435.7 335.296  13
   0   3 -12 9666.36 350.234  12
   0   3 -12 10838.3 331.173   5
   0  -3  12 9859.44 334.661   4
   0  -3  11 4869.82 189.604  11
   0  -3  11 4524.20 190.482   4
   0   3 -11 4808.83 187.167   5
   0   3 -11 4285.38 201.006  12
   0  -3  11 4979.47 191.866  13
   0  -3  10 269.976 51.2544  13
   0  -3  10 183.380 51.0037  14
   0  -3  10 144.191 44.9330   4
   0   3 -10 180.631 44.5311   5
   0  -3  10 210.343 20.4562   2
   0   3 -10 204.963 17.5920   1
   0  -3  10 269.009 49.2794  11
   0   3 -10 261.758 57.2191  12
   0   3  -9 497.142 63.5212  12
   0  -3   9 537.743 63.4465  11
   0  -3   9 646.625 68.6593   4
   0  -3   9 607.317 65.7771  14
   0  -3   8 2573.44 124.494  14
   0   3  -8 2383.10 120.801  12
   0  -3   8 2656.80 126.781  11
   0  -3   7 10095.9 297.216  14
   0  -3   7 10221.6 289.840  13
   0  -3   7 9834.05 296.792  11
   0   3  -6 33122.8 797.165  13
   0  -3   6 33310.1 807.283  13
   0  -3   6 34071.3 809.630  12
   0  -3   5 6990.12 123.544  12
   0  -3   5 6929.29 131.934  11
   0   3  -5 6880.50 114.621  13
   0  -3   4 37834.7 899.612  13
   0  -3   4 39429.6 895.511  12
   0   3  -4 39147.0 895.491   6
   0  -3   4 39375.7 903.166  11
   0   3  -4 38718.9 895.396  13
   0  -3   3 85928.2 1878.14  13
   0  -3   3 85650.9 1868.33  12
   0   3  -3 87992.9 1872.33   6
   0   3  -3 84927.6 1877.59  11
   0  -3   3 85062.7 1874.13   7
   0  -3   2 10721.1 278.178  11
   0   3  -2 11520.3 280.501  11
   0   3  -2 10622.5 276.012   6
   0  -3   2 10860.9 275.519   7
   0  -3   2 11608.8 283.412  13
   0  -3   2 11442.3 271.937  12
   0  -3   1 14942.5 351.067  12
   0   3  -1 15270.0 357.853  11
   0   3  -1 14726.7 358.754   6
   0  -3   1 13781.5 351.104   7
   0   3  -1 14902.0 360.677  13
   0   3   0 18742.2 435.307  13
   0   3   0 17646.6 432.453   6
   0  -3   0 17689.4 424.318  12
   0   3   0 17601.5 427.492  11
   0  -3   0 17616.2 431.020  14
   0  -3   0 18268.2 425.419   7
   0  -3  -1 7197.42 192.312  14
   0   3   1 7380.88 195.533  13
   0  -3  -1 6988.34 192.930   6
   0   3   1 7722.44 187.837  11
   0  -3  -1 6691.49 172.420   3
   0  -3  -1 7453.53 184.795   7
   0  -3  -2 10950.3 289.617  14
   0   3   2 11463.1 290.128  13
   0  -3  -2 11147.1 275.950  11
   0  -3  -2 10949.8 290.042   6
   0  -3  -2 11001.8 269.045   3
   0   3   2 11579.0 268.217   3
   0  -3  -2 11831.3 279.964   7
   0  -3  -3 5828.67 174.639   6
   0   3   3 5567.92 160.640  11
   0  -3  -3 6093.92 176.892  14
   0   3   3 5561.18 154.125   3
   0  -3  -4 92.2682 27.0347   6
   0   3   4 112.780 10.2458   5
   0   3   4 68.1961 19.3743   3
   0   3   4 84.4924 17.8296  11
   0  -3  -4 86.2520 13.3121   4
   0  -3  -5 25545.9 628.466   6
   0   3   5 25132.5 605.470   3
   0  -3  -5 23867.6 576.805   4
   0  -3  -5 25005.4 626.501  14
   0   3   5 24051.9 596.453  11
   0  -3  -6 37226.3 922.154   6
   0   3   6 38781.7 902.108   3
   0  -3  -6 39424.8 927.043  14
   0   3   6 40518.4 888.842  11
   0  -3  -7 1324.31 96.9007  14
   0   3   7 1211.55 83.0300   3
   0  -3  -7 1260.76 95.5371   6
   0  -3  -8 4411.53 190.908   6
   0  -3  -8 4526.43 201.211  14
   0  -3  -8 4171.29 123.519   2
   0   3   8 4252.77 124.646   1
   0   3   8 4367.47 178.054   3
   0   3   8 4413.81 168.705   8
   0  -3  -9 8711.58 307.687  14
   0   3   9 7920.92 257.605   8
   0   3   9 8252.00 279.052   3
   0  -3  -9 7858.58 283.522   6
   0   3  10 3370.85 165.895   3
   0  -3 -10 3684.52 189.327  14
   0  -3 -10 3650.32 153.289  10
   0   3  10 3688.98 150.311   8
   0  -3 -11 87.2176 55.1604  14
   0   3  11 52.1130 48.3549   3
   0  -3 -11 66.7049 40.4297  10
   0   3  11 60.0688 38.1294   8
   0   3  12 147.758 59.5824   3
   0   3  12 307.711 56.7776  11
   0  -3 -12 228.817 67.5023  12
   0  -3 -12 274.642 71.7068  14
   0  -3 -13 157.118 69.2999  12
   0  -3 -13 217.750 73.0242  14
   0   3  13 117.872 61.1276   3
   0  -3 -14 2099.12 149.281  12
   0   3  14 1848.07 135.667   3
   0   3  15 1089.60 112.657   3
   0  -4  16 468.427 98.2706   3
   0  -4  16 552.827 85.9883   9
   0   4 -16 484.743 90.3105   7
   0   4 -16 380.364 89.7161  12
   0   4 -15 1960.56 146.958  12
   0   4 -15 1770.07 138.572   7
   0  -4  15 1686.03 125.425   9
   0   4 -14 3144.48 182.015   7
   0   4 -14 3410.24 186.763  12
   0   4 -13 347.867 75.5582  12
   0  -4  13 260.530 59.2666  13
   0   4 -13 198.922 63.5244   7
   0   4 -12 3386.17 183.600  12
   0  -4  12 3947.64 174.707  13
   0   4 -12 3443.27 187.144   7
   0   4 -11 16596.7 499.490  12
   0   4 -11 16359.5 399.435   1
   0  -4  11 15598.5 403.722   2
   0  -4  11 15428.8 471.151  11
   0   4 -11 16852.7 471.995   5
   0  -4  11 16444.4 482.508   4
   0   4 -11 16187.3 502.908   7
   0  -4  10 3698.30 164.530  13
   0   4 -10 3273.34 164.795  12
   0  -4  10 3656.16 168.924  14
   0  -4  10 3237.56 162.925  11
   0  -4  10 3394.42 168.701   4
   0   4 -10 3579.05 177.082   7
   0  -4   9 6016.20 233.583  11
   0  -4   9 6886.61 234.025  13
   0   4  -9 6848.81 239.167  12
   0  -4   9 6661.89 236.595  14
   0   4  -9 6959.44 250.509   7
   0  -4   8 7763.73 231.745  14
   0  -4   8 7282.07 232.102  11
   0   4  -8 7806.31 232.648  12
   0   4  -8 7878.04 243.424   7
   0   4  -7 4432.90 157.698  12
   0  -4   7 4387.83 152.908  12
   0  -4   7 4109.07 157.523  11
   0   4  -7 4277.74 145.037  13
   0   4  -7 4310.60 164.632   7
   0  -4   6 9686.71 283.542  11
   0   4  -6 10192.3 276.138   6
   0   4  -6 9776.02 271.524  13
   0  -4   6 10055.3 275.764  12
   0   4  -6 10182.0 280.448  12
   0  -4   6 10056.7 282.191  13
   0   4  -5 2536.64 97.5916   6
   0  -4   5 2766.56 105.342  13
   0   4  -5 2714.94 99.1290  12
   0  -4   5 2638.69 96.3328  12
   0   4  -5 2619.69 97.4578  13
   0   4  -4 538.293 39.2729  11
   0   4  -4 547.623 37.1669   6
   0  -4   4 548.301 28.3361   9
   0  -4   4 519.725 35.0096  12
   0   4  -4 584.698 37.4870  12
   0   4  -4 472.033 37.0117  13
   0  -4   4 555.176 41.6811  13
   0  -4   3 33810.5 758.347  13
   0  -4   3 31644.6 740.043  12
   0  -4   3 31495.8 743.518   6
   0   4  -3 31700.8 747.583   6
   0  -4   3 33589.2 753.177  11
   0   4  -3 31601.1 743.223  12
   0   4  -3 32110.9 753.363  11
   0  -4   3 30421.6 720.276   9
   0  -4   3 31551.8 746.700   7
   0   4  -2 95463.7 2170.17  11
   0   4  -2 96905.6 2162.62  12
   0  -4   2 93028.3 2164.53   6
   0   4  -2 95813.3 2169.65   6
   0  -4   2 98833.6 2165.31   7
   0  -4   2 95653.0 2158.83  12
   0   4  -1 2266.85 83.0659  11
   0  -4   1 2459.78 79.7062  12
   0   4  -1 2450.87 86.9270   6
   0   4  -1 2294.27 80.8562   7
   0  -4   1 2509.97 81.8293   7
   0   4  -1 2507.74 89.8493  13
   0   4   0 22136.6 536.039  13
   0   4   0 23068.1 535.367   6
   0  -4   0 21889.6 523.034  12
   0   4   0 21075.3 527.592  11
   0  -4   0 22510.4 533.196  14
   0   4   0 21506.7 523.097   7
   0  -4   0 21954.4 523.487   7
   0  -4  -1 15524.9 388.660  14
   0   4   1 15645.7 394.893  13
   0   4   1 15187.6 390.101   6
   0  -4  -1 15059.1 378.729  11
   0   4   1 15556.0 382.478  11
   0  -4  -1 15613.2 362.678   3
   0   4   1 15035.9 378.442   7
   0  -4  -1 15791.9 379.130   7
   0  -4  -2 7514.92 218.760  14
   0   4   2 7465.44 218.704  13
   0  -4  -2 7322.92 217.500   6
   0   4   2 7590.11 207.743  11
   0  -4  -2 7953.77 204.740  11
   0  -4  -2 7651.65 204.964   7
   0  -4  -2 7765.40 191.860   3
   0   4   3 83.5921 23.6461  13
   0  -4  -3 106.570 24.2830   6
   0  -4  -3 44.2504 18.9450   7
   0   4   3 40.7585 16.5000  11
   0   4   3 63.1159 12.9151   3
   0   4   4 626.064 50.2099  13
   0   4   4 558.169 40.8471  11
   0  -4  -4 571.057 49.5909   6
   0   4   4 591.514 24.4272   5
   0   4   4 515.103 37.2042   3
   0  -4  -4 688.869 46.0342   7
   0  -4  -5 773.175 64.4282   6
   0  -4  -5 872.331 66.1195  14
   0  -4  -5 938.801 41.0427   4
   0   4   5 768.127 49.2891   3
   0   4   5 866.442 53.5982  11
   0  -4  -6 7543.71 255.826   6
   0  -4  -6 7075.36 247.197  14
   0  -4  -6 7465.23 196.329   4
   0   4   6 7424.40 224.055   3
   0   4   6 7465.26 222.699  11
   0  -4  -7 11258.1 360.161   6
   0   4   7 11881.6 322.537  11
   0  -4  -7 11471.9 354.060  14
   0   4   7 10890.3 323.207   3
   0  -4  -8 285.702 66.1775   6
   0   4   8 313.982 65.8943  14
   0  -4  -8 383.110 64.9575  14
   0   4   8 388.459 50.9389  11
   0   4   8 283.307 50.4647   3
   0  -4  -9 9653.90 255.034   2
   0   4   9 9436.79 255.755   1
   0  -4  -9 9625.90 349.651  14
   0   4   9 10077.9 325.097   3
   0   4   9 10275.4 318.204   8
   0   4   9 10078.5 311.138  11
   0  -4 -10 6131.44 271.292  14
   0   4  10 6887.66 242.214  11
   0   4  10 6704.78 236.470   8
   0   4  10 6217.52 243.964   3
   0  -4 -11 607.071 91.5056  14
   0   4  11 521.584 66.1708  11
   0   4  11 440.543 68.5284   3
   0   4  11 411.365 64.8711   8
   0  -4 -12 275.796 77.5886  14
   0   4  12 287.249 66.4487   3
   0  -4 -13 1137.88 120.985  14
   0   4  13 1102.01 101.929   3
   0  -4 -13 1177.27 114.472  12
   0   4  14 911.517 99.3589   3
   0  -4 -14 1075.12 116.349  12
   0  -5  16 932.947 103.111   9
   0   5 -16 879.662 113.786   7
   0   5 -16 626.165 104.344  12
   0   5 -15 555.423 90.9313   7
   0   5 -15 336.422 87.5360  12
   0  -5  15 458.359 75.8634   9
   0  -5  15 612.519 98.8965   3
   0   5 -14 2022.68 154.383  12
   0  -5  14 1881.43 129.592   9
   0   5 -14 2031.00 150.794   7
   0   5 -14 2125.23 143.961   6
   0   5 -13 1723.52 139.466  12
   0  -5  13 2169.43 132.257  13
   0   5 -13 1963.28 136.841   6
   0  -5  13 1923.65 127.349   9
   0   5 -13 2227.84 155.429   7
   0  -5  12 66.7904 51.0540  13
   0   5 -12 52.6539 53.2416   6
   0   5 -12-7.24597 54.0049  12
   0   5 -12 16.2757 58.9741   7
   0   5 -12 41.8778 28.0027   1
   0  -5  12 22.0384 26.9649   2
   0   5 -11 7055.94 253.966   6
   0  -5  11 7050.42 263.448  13
   0   5 -11 6872.14 267.248  12
   0   5 -11 7119.97 283.133   7
   0  -5  10 14719.3 431.771  14
   0   5 -10 13893.7 428.477  12
   0  -5  10 14879.2 433.625  13
   0   5 -10 14726.3 416.662   6
   0  -5  10 14085.4 437.402  11
   0   5 -10 14816.4 449.751   7
   0  -5  10 14471.1 455.256   4
   0  -5   9 1514.30 96.2921  14
   0   5  -9 1673.51 98.8609  12
   0  -5   9 1629.44 100.647  13
   0   5  -9 1565.06 90.9100   6
   0  -5   9 1529.02 101.110  11
   0   5  -9 1323.43 44.2651   8
   0   5  -9 1674.55 109.283   7
   0  -5   8 15148.1 436.736  11
   0   5  -8 15426.6 422.019   6
   0  -5   8 16177.6 426.705  12
   0  -5   8 15272.0 434.805  13
   0   5  -8 15338.4 430.874  12
   0   5  -8 16489.0 419.356  13
   0   5  -7 18866.4 483.189  12
   0  -5   7 18343.8 475.604  12
   0  -5   7 18754.9 490.423  13
   0  -5   7 17725.3 467.185   9
   0   5  -7 18769.7 473.387  13
   0  -5   7 18252.6 489.589  11
   0   5  -6 3282.74 121.645  12
   0  -5   6 3280.87 117.466  12
   0  -5   6 3208.30 127.444  11
   0  -5   6 3080.18 105.752   9
   0   5  -6 3248.93 119.336  13
   0   5  -5 70.8324 19.8571  12
   0  -5   5 85.7807 21.4266  12
   0   5  -5 78.0559 21.6205   6
   0  -5   5 100.338 16.1150   9
   0   5  -5 130.904 26.6039  13
   0   5  -4 4.65070 19.9691  13
   0   5  -4 20.0858 17.5205   6
   0  -5   4 21.0725 18.0631   6
   0  -5   4 16.3184 16.1996  12
   0   5  -4 17.3833 19.0092  11
   0   5  -4 22.0292 16.1047  12
   0  -5   4 16.0356 8.45695   9
   0  -5   4 35.0596 19.0737   7
   0   5  -3 8058.31 212.092  12
   0   5  -3 8167.81 222.101  11
   0   5  -3 7572.94 217.176   6
   0  -5   3 7759.96 212.972   6
   0  -5   3 7783.72 213.797   7
   0  -5   3 7493.37 205.701  12
   0   5  -2 18402.4 459.429  12
   0   5  -2 19337.2 468.450  11
   0   5  -2 19302.1 469.515   6
   0  -5   2 18604.4 462.924   6
   0   5  -2 19307.9 464.314   7
   0  -5   2 18590.0 459.659   7
   0  -5   2 17919.9 453.119  12
   0   5  -1 42019.0 1045.64  13
   0   5  -1 44878.2 1042.86   6
   0  -5   1 43654.9 1039.79   6
   0  -5   1 44666.3 1029.08  12
   0   5  -1 44392.8 1039.22  11
   0  -5   1 45272.8 1043.04  14
   0  -5   1 45447.9 1032.15   7
   0   5  -1 43446.9 1033.15   7
   0   5   0 4669.39 155.280  13
   0   5   0 4777.78 153.492   6
   0  -5   0 4915.98 143.700  12
   0   5   0 4652.94 147.684  11
   0  -5   0 5004.54 147.357  11
   0  -5   0 4866.43 153.006  14
   0  -5   0 4736.40 142.875   7
   0   5   0 4803.65 144.048   7
   0   5   1 37834.4 898.219  14
   0  -5  -1 37514.1 901.459  14
   0  -5  -1 37124.2 889.270  11
   0   5   1 37809.9 894.371  11
   0   5   1 37730.5 905.530  13
   0  -5  -1 38984.7 867.370   3
   0   5   1 35430.5 886.832   7
   0  -5  -1 38644.5 888.535   7
   0   5   2 33908.5 842.655  14
   0   5   2 33993.0 852.426  13
   0   5   2 36231.7 838.754  11
   0  -5  -2 34775.9 831.639  11
   0  -5  -2 36287.0 812.206   3
   0  -5  -2 34598.2 831.478   7
   0   5   3 778.538 57.9654  13
   0  -5  -3 852.407 59.7617   6
   0   5   3 823.276 51.0493  11
   0  -5  -3 929.336 61.0316  14
   0   5   3 828.373 57.1969  14
   0  -5  -3 889.101 52.1090   7
   0   5   4 717.719 55.8469  14
   0  -5  -4 699.494 57.5045  14
   0   5   4 706.209 57.6928  13
   0  -5  -4 712.515 58.5081   6
   0   5   4 656.480 48.4715  11
   0   5   4 501.769 34.9185   3
   0  -5  -4 742.410 51.4664   7
   0   5   5 2025.56 104.954  14
   0  -5  -5 2188.75 111.137  14
   0   5   5 2059.38 108.270  13
   0  -5  -5 2070.06 109.860   6
   0   5   5 2122.28 56.9446   5
   0   5   5 2052.15 93.4625  11
   0  -5  -5 2210.81 72.2007   4
   0   5   5 2043.48 81.3289   3
   0  -5  -5 2143.04 95.7670   7
   0   5   6 1693.03 101.963  14
   0  -5  -6 1760.37 104.335  14
   0   5   6 1905.39 106.484  13
   0  -5  -6 1576.11 104.421   6
   0   5   6 1735.27 87.6688  11
   0  -5  -6 1740.31 63.8873   4
   0   5   6 1637.03 78.0914   3
   0  -5  -6 1760.40 90.2914   7
   0  -5  -7 2081.77 124.790  14
   0   5   7 2063.55 122.574  14
   0   5   7 2036.71 117.829  13
   0  -5  -7 1919.65 125.865   6
   0   5   7 2131.13 103.771  11
   0   5   7 2105.68 99.6883   3
   0  -5  -7 2089.57 74.9832   4
   0  -5  -7 2371.71 111.155   7
   0   5   8 2425.52 124.018  11
   0  -5  -8 2497.80 147.126  14
   0   5   8 2468.29 120.880   3
   0   5   8 2708.31 142.968  13
   0   5   9 805.910 81.5779  13
   0   5   9 819.732 77.5206  11
   0  -5  -9 864.271 99.6688  14
   0   5   9 588.283 72.1011   3
   0   5   9 818.047 88.4270   8
   0   5  10 6333.92 236.851  11
   0   5  10 5820.26 236.127   3
   0   5  10 6248.44 241.066   8
   0  -5 -10 6213.26 275.083  14
   0   5  11 1927.63 129.327   3
   0  -5 -11 2015.10 151.053  14
   0  -5 -12 43.0716 68.1628  14
   0   5  12 12.0066 52.9390   3
   0  -5 -13 937.524 111.204  12
   0  -5 -13 933.859 114.282  14
   0   6 -16 337.862 94.4353  12
   0   6 -15 4256.06 231.172  12
   0   6 -15 4333.52 232.733   7
   0  -6  15 4263.25 230.759   3
   0   6 -14 2164.66 163.862  12
   0   6 -14 2190.50 149.988   6
   0  -6  14 1929.92 133.028   9
   0   6 -14 1921.59 154.895   7
   0  -6  13 309.095 72.5958  13
   0   6 -13 278.644 69.7367   6
   0   6 -13 212.514 69.6148  12
   0  -6  13 226.412 62.3384   9
   0   6 -13 173.427 79.6187   7
   0  -6  12 55.4099 56.1244  13
   0   6 -12 51.5501 49.8582   6
   0   6 -12 20.4402 50.3244  12
   0  -6  12 65.7429 48.8035   9
   0   6 -12 47.9731 60.1350   7
   0   6 -11 1195.78 93.0190   6
   0  -6  11 1059.83 96.4067  13
   0   6 -11 1152.14 99.3949  12
   0  -6  11 1202.57 98.4922   9
   0   6 -10 10919.7 310.463   6
   0  -6  10 10794.5 310.057   9
   0  -6  10 10442.1 324.376  13
   0   6 -10 9972.09 311.554  12
   0  -6   9 11442.7 333.465  12
   0   6  -9 11366.9 340.758  12
   0  -6   9 11473.7 351.503  13
   0   6  -9 11418.3 334.402   6
   0  -6   9 10786.1 349.717  11
   0  -6   9 11284.8 327.939   9
   0   6  -9 11054.5 324.026  13
   0   6  -8 3264.40 138.196  12
   0  -6   8 3458.11 149.441  13
   0  -6   8 3445.85 136.028  12
   0   6  -8 3211.13 136.176   6
   0  -6   8 3240.03 145.370  11
   0  -6   8 3001.36 120.389   9
   0   6  -8 3625.77 136.769  13
   0  -6   7 16956.3 450.264  12
   0  -6   7 18192.4 476.004  13
   0   6  -7 17127.2 457.995  12
   0   6  -7 18034.2 458.742   6
   0  -6   7 16571.9 467.500  11
   0  -6   7 17010.4 432.094   9
   0   6  -7 17539.8 454.558  13
   0   6  -6 41468.6 962.692  13
   0   6  -6 41436.6 960.247  12
   0  -6   6 41378.2 981.563  13
   0  -6   6 40996.9 952.199  12
   0  -6   6 38965.0 926.156   9
   0   6  -6 37377.0 967.880   7
   0  -6   6 38595.2 969.076  11
   0  -6   5 1472.10 68.8435  12
   0   6  -5 1471.46 76.7744  13
   0  -6   5 1462.88 80.7952  13
   0   6  -5 1551.14 80.3188  11
   0  -6   5 1260.98 74.5502  11
   0   6  -5 1525.50 72.8461  12
   0  -6   5 1297.47 47.5992   9
   0  -6   5 1344.19 72.3674   7
   0   6  -5 1219.75 72.9974   7
   0   6  -4 4361.37 139.557  12
   0   6  -4 4042.71 146.159  11
   0  -6   4 4111.91 138.025   6
   0   6  -4 4326.46 148.012  13
   0  -6   4 4145.21 133.435  12
   0  -6   4 4171.14 154.000  13
   0   6  -4 3907.53 141.748   7
   0  -6   4 4357.68 142.849   7
   0   6  -3 3117.62 108.901  12
   0   6  -3 3234.41 118.135  11
   0  -6   3 3014.55 110.780   6
   0  -6   3 3089.43 104.017  12
   0  -6   3 2942.23 122.325  13
   0   6  -3 2788.40 109.556   7
   0  -6   3 2841.90 107.799   7
   0   6  -2 5244.64 163.948  11
   0  -6   2 4488.86 156.315  11
   0  -6   2 5127.84 160.508   6
   0   6  -2 4439.40 162.273  13
   0  -6   2 5284.40 151.898  12
   0   6  -2 4865.99 156.717   7
   0  -6   2 5394.69 157.502   7
   0  -6   1 10099.2 271.153  11
   0  -6   1 10018.6 262.662  12
   0   6  -1 9632.74 272.343  11
   0  -6   1 9945.78 275.212   6
   0   6  -1 9634.84 281.263  13
   0  -6   1 10089.1 265.604   7
   0   6  -1 9397.44 264.992   7
   0   6   0 7781.91 237.736  13
   0   6   0 8003.81 234.705   6
   0  -6   0 7785.23 232.175   6
   0  -6   0 8079.02 224.931  11
   0  -6   0 7863.09 219.999  12
   0   6   0 8326.38 230.150  11
   0  -6   0 7740.28 199.684   3
   0  -6   0 7942.11 220.738   7
   0   6   0 7636.69 221.138   7
   0  -6  -1 328.773 38.7710  14
   0   6   1 271.450 37.0745  13
   0   6   1 335.569 39.7706   6
   0  -6  -1 283.564 34.0129  11
   0   6   1 341.930 35.2179  11
   0  -6  -1 326.908 22.4972   3
   0   6   1 292.372 31.8790   7
   0  -6  -1 335.588 35.2639   7
   0  -6  -2 36906.2 932.532  14
   0   6   2 38322.7 927.123  14
   0   6   2 36508.7 934.090  13
   0   6   2 38852.9 934.617   6
   0   6   2 41463.6 924.902  11
   0  -6  -2 38649.2 913.183  11
   0  -6  -2 39488.3 886.351   3
   0  -6  -2 36053.4 912.121   7
   0   6   3 27633.8 699.055  13
   0   6   3 27239.7 676.664  11
   0  -6  -3 27772.8 668.792  11
   0  -6  -3 27153.5 696.662  14
   0   6   3 28355.2 690.918  14
   0  -6  -3 27354.2 671.303   7
   0   6   4 245.586 45.6943  13
   0  -6  -4 265.896 45.5676   6
   0  -6  -4 241.830 37.0575   7
   0   6   4 221.423 33.2553  11
   0   6   4 258.612 43.3658  14
   0  -6  -4 304.762 44.6465  14
   0   6   5 5431.99 196.132  14
   0  -6  -5 5633.44 203.056  14
   0   6   5 5316.13 198.115  13
   0  -6  -5 4963.63 198.481   6
   0   6   5 5410.19 132.179   5
   0   6   5 5247.60 178.634  11
   0   6   5 5032.09 154.632   3
   0  -6  -5 5279.47 177.418   7
   0  -6  -6 8437.09 284.678  14
   0   6   6 8489.18 280.089  14
   0   6   6 8235.65 254.592  11
   0   6   6 9213.97 289.184  13
   0  -6  -6 8389.33 217.620   4
   0   6   6 8213.51 234.129   3
   0  -6  -6 8328.04 257.637   7
   0  -6  -7 4798.99 203.877  14
   0   6   7 4971.87 202.167  13
   0   6   7 4511.43 173.777  11
   0  -6  -7 4732.03 178.069   7
   0  -6  -7 4678.28 130.350   4
   0   6   7 4469.00 156.406   3
   0  -6  -8 40.9913 42.9524   7
   0   6   8 29.4774 37.8690  11
   0   6   8 75.3439 35.2861   3
   0  -6  -8 86.3589 57.8243  14
   0   6   9 46.1917 38.9089   3
   0  -6  -9-7.60765 58.2243  14
   0   6   9 9.42788 44.6926  11
   0   6   9 52.5312 53.2021   8
   0  -6 -10 476.613 94.2495  14
   0   6  10 609.902 86.1244   8
   0   6  10 592.781 71.2799   3
   0   6  11 3676.86 179.663   3
   0  -6 -11 4177.27 227.246  14
   0  -6 -12 1034.57 124.578  14
   0   7 -15 2890.22 198.320  12
   0   7 -15 3157.71 206.424   7
   0   7 -14 6737.47 298.151  12
   0   7 -13 1218.55 108.736   6
   0  -7  13 1383.54 121.881  13
   0   7 -13 1012.73 113.242  12
   0  -7  12 573.305 80.7725   9
   0   7 -12 693.745 87.5801   6
   0  -7  12 748.887 95.8836  13
   0   7 -12 695.144 87.4743  12
   0  -7  11 1122.53 88.9399   9
   0   7 -11 1069.05 91.0699   6
   0   7 -11 1010.08 94.7334  12
   0  -7  11 1314.68 107.698  13
   0   7 -10 1850.71 109.381   6
   0   7 -10 1851.76 112.816  12
   0  -7  10 1735.28 117.834  13
   0  -7  10 1508.04 66.9566  10
   0  -7  10 1934.47 100.558   9
   0   7 -10 1583.67 96.0400  13
   0   7  -9 7791.06 246.735  13
   0  -7   9 8007.49 275.162  13
   0   7  -9 7647.62 255.480  12
   0  -7   9 7368.95 245.502  12
   0   7  -9 7953.82 256.126   6
   0  -7   9 7579.11 230.386   9
   0   7  -9 7296.41 268.944   7
   0   7  -8 9964.20 293.213  13
   0   7  -8 9408.54 293.800  12
   0  -7   8 9889.66 288.571  12
   0  -7   8 9949.01 314.534  13
   0   7  -8 10536.8 300.519   6
   0  -7   8 9869.00 310.222  11
   0  -7   8 9102.42 262.802   9
   0   7  -8 10125.0 315.336   7
   0   7  -7 994.556 70.3890  13
   0  -7   7 877.117 61.6252  12
   0  -7   7 723.091 70.3255  13
   0   7  -7 858.764 65.6609   6
   0  -7   7 818.690 69.3682  11
   0   7  -7 907.437 67.1127  12
   0  -7   7 859.663 44.8174   9
   0   7  -7 874.953 72.6449   7
   0  -7   6 21732.6 556.746  13
   0   7  -6 20709.5 535.694  13
   0  -7   6 21585.9 522.799  12
   0   7  -6 20621.7 539.667   6
   0   7  -6 19889.6 527.437  12
   0  -7   6 21308.2 545.664  11
   0  -7   6 20089.7 483.852   9
   0   7  -6 20999.0 543.737   7
   0   7  -5 31727.9 782.633  12
   0   7  -5 33669.5 801.737  11
   0  -7   5 31380.0 778.127   6
   0   7  -5 32271.6 792.402   6
   0  -7   5 32560.5 787.764   7
   0   7  -5 31695.2 793.888   7
   0  -7   5 31930.5 806.206  13
   0  -7   5 32626.9 775.966  12
   0   7  -5 31707.5 793.232  13
   0   7  -4 459.766 48.4505  11
   0   7  -4 485.125 44.9210  12
   0  -7   4 559.862 49.6239   6
   0   7  -4 493.390 49.6933   6
   0  -7   4 517.624 47.6597   7
   0   7  -4 460.855 48.1269   7
   0   7  -4 583.300 52.4577  13
   0  -7   4 556.417 54.7328  13
   0  -7   4 577.194 45.1735  12
   0  -7   3 12330.3 351.737  11
   0   7  -3 13393.2 359.366  11
   0  -7   3 12811.0 349.785   6
   0   7  -3 13317.8 359.103   6
   0   7  -3 12665.4 350.611   7
   0  -7   3 13431.0 348.466   7
   0  -7   3 13177.7 372.421  13
   0  -7   3 13044.1 338.776  12
   0   7  -2 12148.3 359.989  13
   0  -7   2 13744.9 342.783  12
   0  -7   2 13322.0 371.587  13
   0  -7   2 12923.8 354.030   6
   0   7  -2 13103.2 360.134   6
   0   7  -2 13245.8 358.034  11
   0  -7   2 12432.1 351.433  11
   0  -7   2 13643.1 362.219  14
   0   7  -2 12927.7 350.362   7
   0  -7   2 13330.4 347.552   7
   0   7  -1 4924.36 178.215  13
   0  -7   1 4847.08 181.076  13
   0  -7   1 5102.07 173.952   6
   0   7  -1 5579.34 180.611   6
   0  -7   1 4982.83 159.338  12
   0   7  -1 4865.44 169.774  11
   0  -7   1 5378.98 170.504  11
   0  -7   1 5290.12 176.643  14
   0  -7   1 5211.83 163.867   7
   0   7  -1 5266.97 167.638   7
   0  -7   0 3217.76 126.670  14
   0   7   0 2967.08 127.627  13
   0   7   0 3321.40 129.614   6
   0  -7   0 2807.09 121.773   6
   0  -7   0 3030.27 111.747  12
   0  -7   0 2874.50 113.703  11
   0   7   0 3012.75 119.445  11
   0  -7   0 2938.30 91.1889   3
   0   7   0 2973.86 113.596   7
   0  -7   0 3147.32 113.838   7
   0  -7  -1 400.379 47.8276  14
   0   7   1 334.217 46.1114  13
   0  -7  -1 381.505 48.0513   6
   0   7   1 385.138 46.1355   6
   0  -7  -1 447.398 42.3083  12
   0  -7  -1 434.443 43.7187  11
   0   7   1 341.978 39.1262  11
   0  -7  -1 426.266 26.0393   3
   0   7   1 311.197 38.1281   7
   0  -7  -1 335.115 37.3121   7
   0  -7  -2 1696.33 94.1667  14
   0   7   2 1556.57 92.5061  13
   0   7   2 1633.20 92.8339   6
   0   7   2 1836.29 87.6609  11
   0  -7  -2 1743.22 81.9697  11
   0  -7  -2 1654.16 58.3825   3
   0  -7  -2 1743.48 81.8419   7
   0   7   3 15579.1 435.297  13
   0   7   3 15304.4 423.606  14
   0  -7  -3 15449.7 432.779  14
   0  -7  -3 15776.1 407.956   7
   0  -7  -3 15125.4 402.150  11
   0   7   3 15659.2 415.118  11
   0   7   4 15421.8 438.495  13
   0   7   4 15291.1 414.701  11
   0  -7  -4 14963.2 434.075  14
   0   7   4 15432.6 428.389  14
   0  -7  -4 15351.7 407.072   7
   0   7   5 647.404 73.2250  13
   0   7   5 724.793 63.7263  11
   0  -7  -5 739.720 74.1057  14
   0   7   5 851.200 76.7557  14
   0  -7  -5 788.400 62.6100   7
   0   7   5 699.316 30.3915   5
   0   7   6 11932.0 345.312  11
   0  -7  -6 11764.9 373.413  14
   0  -7  -6 11779.2 296.641   4
   0  -7  -6 12018.8 343.254   7
   0   7   7 4538.62 174.210  11
   0  -7  -7 4404.03 200.611  14
   0   7   7 4090.88 142.216   3
   0  -7  -7 4587.54 176.054   7
   0   7   8 686.303 57.0950   3
   0  -7  -8 661.861 89.3385  14
   0   7   8 888.836 78.5459  11
   0  -7  -9 320.431 76.8978  14
   0   7   9 385.923 83.8669   8
   0   7   9 445.590 52.5643   3
   0  -7 -10 1788.70 150.178  14
   0   7  10 1553.02 131.114   8
   0  -7 -11 813.224 117.353  14
   0   8 -15 84.5202 80.6522  12
   0   8 -14 4028.27 220.827  12
   0   8 -13 6615.78 280.216  12
   0  -8  13 7270.23 302.025  13
   0   8 -12 1022.61 101.310  12
   0  -8  12 1171.21 117.375  13
   0   8 -12 928.842 106.156   7
   0   8 -12 1175.01 100.195   6
   0  -8  11 4157.57 202.814  13
   0   8 -11 4363.92 187.715  12
   0   8 -11 3824.19 125.319   8
   0   8 -11 4302.53 203.884   7
   0   8 -11 4499.63 186.033   6
   0   8 -10 6017.00 222.692   6
   0   8 -10 5792.82 223.216  12
   0  -8  10 5979.59 242.984  13
   0   8 -10 5864.66 241.012   7
   0  -8   9 2408.02 139.846  13
   0  -8   9 2489.21 120.527  12
   0   8  -9 2453.67 127.493   6
   0   8  -9 2290.39 124.239  12
   0  -8   9 2593.17 98.1310   9
   0   8  -9 2508.46 140.467   7
   0   8  -8 1213.92 83.9103  13
   0  -8   8 1219.72 78.7137  12
   0  -8   8 1057.27 90.2739  13
   0   8  -8 1376.97 90.3777   6
   0   8  -8 1191.37 81.6898  12
   0  -8   8 1181.17 54.5369   9
   0   8  -8 1231.60 90.8984   7
   0   8  -7 402.003 51.8605  12
   0  -8   7 300.277 41.7267  12
   0   8  -7 445.488 53.9515   6
   0   8  -7 355.106 51.3048  13
   0  -8   7 367.630 56.3260  13
   0   8  -7 365.059 52.0018   7
   0   8  -6 1316.67 80.2437  12
   0   8  -6 1401.51 85.7338   6
   0  -8   6 1374.81 75.4074  12
   0   8  -6 1391.58 85.7962  13
   0  -8   6 1157.45 88.2130  13
   0   8  -6 1244.07 84.6614   7
   0   8  -5 15607.1 426.906  11
   0   8  -5 15112.4 409.920  12
   0  -8   5 14189.5 403.463   6
   0   8  -5 16008.6 425.152   6
   0  -8   5 16843.4 447.518  13
   0  -8   5 15302.6 400.756  12
   0   8  -5 15281.3 422.018  13
   0  -8   5 15484.1 414.699   7
   0   8  -5 14798.7 418.388   7
   0   8  -4 26952.6 688.846  11
   0  -8   4 25930.1 683.156  11
   0   8  -4 25372.0 672.177  12
   0  -8   4 27166.1 677.564   6
   0   8  -4 28539.6 692.085   6
   0   8  -4 28061.3 692.037  13
   0  -8   4 27966.1 665.561  12
   0  -8   4 26877.6 706.423  13
   0  -8   4 27134.7 677.104   7
   0   8  -4 27519.4 684.844   7
   0  -8   3 14.7049 30.6980  14
   0  -8   3 8.66948 34.5844  13
   0  -8   3 9.66452 31.8944   6
   0   8  -3 35.9233 31.6879   6
   0  -8   3 34.6324 25.9667  12
   0   8  -3 95.7406 35.4643  11
   0  -8   3 85.0526 33.6812  11
   0   8  -3 48.4798 30.3051   7
   0  -8   3 26.3099 27.0966   7
   0  -8   2 29974.5 718.733  12
   0  -8   2 29376.3 757.008  13
   0   8  -2 29662.1 742.950   6
   0  -8   2 29535.4 736.441   6
   0  -8   2 30355.6 735.678  11
   0   8  -2 30953.5 741.608  11
   0  -8   2 29003.2 740.023  14
   0   8  -2 29622.5 730.473   7
   0  -8   2 30176.0 726.125   7
   0  -8   1 19658.0 511.175  14
   0   8  -1 19216.4 516.645  13
   0  -8   1 19125.4 507.471   6
   0   8  -1 18716.1 509.216   6
   0   8  -1 18198.6 501.762  11
   0  -8   1 20131.0 489.918  12
   0  -8   1 18308.6 496.186  11
   0  -8   1 19514.0 465.111   3
   0   8  -1 19661.4 496.476   7
   0  -8   1 19158.1 491.158   7
   0  -8   0 558.787 56.1705  14
   0   8   0 536.076 59.0655  13
   0   8   0 523.937 56.1771   6
   0  -8   0 513.760 56.6713   6
   0  -8   0 531.266 51.1381  11
   0  -8   0 715.440 53.0210  12
   0   8   0 566.699 53.4660  11
   0  -8   0 551.654 33.0021   3
   0  -8   0 599.360 50.5493   7
   0   8   0 527.216 48.4611   7
   0  -8  -1 407.998 51.5814  14
   0   8   1 478.968 58.8279  13
   0   8   1 399.540 52.3007   6
   0  -8  -1 506.449 56.0608   6
   0  -8  -1 409.280 46.0325  11
   0   8   1 398.545 48.0236  11
   0  -8  -1 393.097 45.3186  12
   0  -8  -1 447.310 27.7377   3
   0  -8  -1 402.829 43.8035   7
   0  -8  -2 982.400 77.6473  14
   0   8   2 1012.33 81.2616  13
   0   8   2 1053.77 80.6556   6
   0  -8  -2 1033.21 79.8234   6
   0  -8  -2 1093.29 70.5098  12
   0  -8  -2 978.697 67.4879  11
   0   8   2 1025.88 71.2807  11
   0  -8  -2 1031.37 42.1433   3
   0  -8  -2 981.455 66.4610   7
   0   8   3 3698.50 162.807  13
   0  -8  -3 3823.28 162.396  14
   0  -8  -3 3722.42 140.821   7
   0   8   3 3475.28 144.478  11
   0  -8  -3 3701.19 138.270  11
   0  -8  -4 4424.64 185.559  14
   0  -8  -4 4268.77 160.396   7
   0   8   4 4456.44 168.660  11
   0  -8  -5 3793.51 171.437  14
   0  -8  -5 3366.67 141.537   7
   0   8   5 3399.65 146.258  11
   0  -8  -6 1576.97 115.404  14
   0   8   6 1454.15 96.8288  11
   0  -8  -7 8567.40 320.486  14
   0   8   7 9106.81 292.605  11
   0  -8  -8 2110.91 149.611  14
   0  -8  -9 59.4259 71.3866  14
   0   8   9 57.5359 71.0636   8
   0  -8 -10 417.475 99.4171  14
   0   8  10 715.483 104.605   8
   0   9 -15 54.5223 79.0902  12
   0   9 -14 315.431 84.6887  12
   0   9 -14 228.855 91.3026   7
   0   9 -13 3403.65 207.771   7
   0   9 -13 3471.75 190.472  12
   0  -9  12 5516.30 253.594  13
   0   9 -12 5214.63 226.154  12
   0   9 -11 69.3204 56.9126  12
   0   9 -11 165.763 58.5338   6
   0   9 -11 71.4469 61.7945   7
   0  -9  11 44.4570 66.2099  13
   0   9 -10 10512.3 339.409  12
   0   9 -10 10877.1 341.288   6
   0   9 -10 9959.39 350.762   7
   0  -9  10 10415.0 364.337  13
   0   9  -9 12149.5 367.932  12
   0   9  -9 12385.6 373.550   6
   0   9  -9 11779.9 383.096   7
   0  -9   9 12232.0 397.058  13
   0   9  -8 628.258 68.2157  12
   0   9  -8 605.068 68.8775   6
   0   9  -8 624.698 74.2525   7
   0  -9   8 546.954 61.0555  12
   0  -9   8 579.236 72.7540  13
   0  -9   7 376.787 47.5262  12
   0   9  -7 234.034 47.8587  12
   0   9  -7 251.422 51.1967   6
   0   9  -7 282.601 55.4220   7
   0  -9   7 441.922 66.6305  13
   0   9  -6 511.985 55.9490  12
   0   9  -6 528.837 60.9806   6
   0   9  -6 498.463 59.3985   7
   0  -9   6 506.216 67.7200  13
   0  -9   6 536.175 52.8091  12
   0   9  -5 4918.31 175.912  12
   0   9  -5 4898.68 188.821  11
   0  -9   5 4383.36 169.050   6
   0   9  -5 5141.97 190.376   6
   0  -9   5 5056.08 178.874   7
   0   9  -5 4927.18 184.464   7
   0  -9   5 5005.67 202.867  13
   0  -9   5 5080.94 169.021  12
   0  -9   4 12175.1 383.397  13
   0  -9   4 12409.9 340.861  12
   0  -9   4 12417.3 355.344   6
   0   9  -4 13049.6 369.159   6
   0   9  -4 12998.8 369.472  11
   0  -9   4 12018.0 360.580  11
   0  -9   4 12654.6 368.630  14
   0  -9   4 12935.8 354.985   7
   0   9  -4 12318.6 359.286   7
   0  -9   3 5831.24 187.419  12
   0  -9   3 5786.81 224.824  13
   0   9  -3 6037.39 210.645   6
   0  -9   3 5595.73 200.444   6
   0  -9   3 5818.75 202.957  11
   0   9  -3 5688.36 205.989  11
   0  -9   3 6394.64 213.963  14
   0   9  -3 5839.06 200.258   7
   0  -9   3 6016.73 196.975   7
   0  -9   2 310.988 52.1583  14
   0  -9   2 291.719 55.5264  13
   0  -9   2 312.673 44.2009  12
   0  -9   2 329.370 47.2700   7
   0   9  -2 337.178 49.9926  11
   0  -9   2 293.994 46.6389  11
   0   9  -2 273.474 49.0368   6
   0   9  -2 247.548 44.2338   7
   0  -9   2 366.701 52.7943   6
   0  -9   1 19550.9 533.327   6
   0   9  -1 19948.9 538.858   6
   0  -9   1 19639.3 535.037  14
   0   9  -1 20171.3 532.659  11
   0  -9   1 19748.3 510.807  12
   0  -9   1 19628.5 523.486  11
   0  -9   1 20584.0 517.801   7
   0   9  -1 19151.2 518.189   7
   0  -9   1 20546.2 484.094   3
   0  -9   0 11816.3 284.696   3
   0  -9   0 11834.8 346.096  14
   0  -9   0 11350.1 329.394  11
   0  -9   0 11345.8 319.970  12
   0   9   0 11979.3 339.566  11
   0   9   0 11496.0 344.514   6
   0  -9   0 11427.8 343.337   6
   0   9   0 10778.7 279.951   9
   0  -9   0 11237.2 320.601   7
   0   9   0 11717.5 328.605   7
   0  -9  -1 50.6846 36.4730  14
   0  -9  -1 41.8717 33.6520  12
   0   9   1 63.6460 41.1282   6
   0  -9  -1 41.7031 33.8743  11
   0   9   1 42.9805 38.8833  11
   0  -9  -1 41.3738 34.6088   7
   0  -9  -2 3335.52 137.660  11
   0  -9  -2 3265.24 136.028  12
   0   9   2 3234.58 142.926  11
   0   9   2 3403.54 156.367   6
   0  -9  -2 3548.00 158.845  14
   0  -9  -2 3573.42 137.667   7
   0  -9  -3 3735.30 170.381  14
   0  -9  -3 3714.80 146.710   7
   0   9   3 3779.06 156.876  11
   0  -9  -3 3663.94 151.103  12
   0  -9  -4 2697.44 146.980  14
   0  -9  -4 2677.57 122.475   7
   0   9   4 2784.69 132.232  11
   0  -9  -5 169.856 60.1545  14
   0   9   5 165.025 47.9998  11
   0  -9  -6 52.8056 54.7067  14
   0   9   6 42.4876 44.7661  11
   0  -9  -7 1140.26 113.127  14
   0  -9  -8 3573.32 202.703  14
   0  -9  -9 1553.84 145.050  14
   0   9   9 1509.14 144.842   8
   0   9  10 155.952 93.0237   8
   0  10 -14 24.0669 64.9960  12
   0  10 -13 831.095 101.615  12
   0 -10  13 962.688 122.334  13
   0  10 -13 947.751 116.485   7
   0  10 -12 3682.12 188.586  12
   0  10 -12 3788.46 205.821   7
   0 -10  12 3469.86 206.161  13
   0  10 -11 1954.39 132.689  12
   0  10 -11 2208.10 137.253   6
   0  10 -11 2301.39 153.113   7
   0 -10  11 2178.25 153.901  13
   0  10 -10 241.146 60.6534  12
   0  10 -10 127.300 55.8432   6
   0  10 -10 299.629 75.8650   7
   0 -10  10 289.737 71.7811  13
   0  10  -9 10945.9 353.776  12
   0  10  -9 11900.1 363.796   6
   0  10  -9 11468.2 374.309   7
   0 -10   9 10988.5 383.700  13
   0  10  -8 11587.3 357.362  12
   0  10  -8 12224.2 371.139   6
   0  10  -8 11815.0 375.113   7
   0 -10   8 11471.3 388.789  13
   0  10  -7 33.6415 41.2071  12
   0  10  -7 29.4965 46.6223   6
   0  10  -7 95.4549 52.4810   7
   0 -10   7 94.1440 54.9974  13
   0  10  -6 4865.15 184.024  12
   0 -10   6 4659.50 177.460   6
   0  10  -6 5065.40 196.456   6
   0  10  -6 4629.26 190.321   7
   0 -10   6 4876.54 172.535  12
   0 -10   6 5115.15 215.196  13
   0 -10   5 3820.05 144.118  12
   0 -10   5 4029.18 183.342  13
   0 -10   5 3536.05 150.890   6
   0  10  -5 3905.47 167.437   6
   0  10  -5 3704.51 164.974  11
   0 -10   5 3843.76 169.921  14
   0  10  -5 3729.68 161.368   7
   0 -10   4 1971.59 96.9550  12
   0 -10   4 1983.67 124.867  13
   0  10  -4 2187.78 120.022   6
   0  10  -4 1919.39 112.867  11
   0 -10   4 2113.38 119.710  14
   0  10  -4 1997.20 110.537   7
   0 -10   4 2091.15 106.823   7
   0 -10   3 1620.47 115.006  13
   0 -10   3 1789.26 91.2444  12
   0  10  -3 1653.17 106.904   6
   0  10  -3 1897.36 109.173  11
   0 -10   3 1423.31 100.926  14
   0  10  -3 1655.45 97.7821   7
   0 -10   3 1684.25 95.0557   7
   0 -10   2 474.014 50.8822  12
   0  10  -2 511.836 61.2520  11
   0  10  -2 476.229 64.2638   6
   0 -10   2 354.968 56.5262  14
   0 -10   2 541.134 58.2706   7
   0  10  -2 475.875 57.1326   7
   0  10  -1 1661.00 104.595  11
   0 -10   1 1696.10 89.8252  12
   0  10  -1 1731.87 107.978   6
   0 -10   1 1545.58 103.901  14
   0 -10   1 1802.37 95.8832   7
   0  10  -1 1676.10 97.4649   7
   0 -10   0 14123.2 414.217  14
   0  10   0 14181.3 405.830  11
   0 -10   0 13826.5 382.923  12
   0  10   0 13830.5 412.224   6
   0  10   0 13732.6 328.784   9
   0 -10   0 14616.2 389.279   7
   0  10   0 13770.6 390.248   7
   0 -10  -1 7678.41 268.774  14
   0  10   1 7931.39 257.443  11
   0 -10  -1 7494.45 239.181  12
   0  10   1 7743.19 266.561   6
   0  10   1 6832.97 201.527   9
   0 -10  -1 7887.74 239.839   7
   0  10   2 1307.13 93.2628  11
   0  10   2 1262.60 100.481   6
   0 -10  -2 1457.67 108.638  14
   0 -10  -3 7127.61 269.669  14
   0  10   3 7374.77 253.234  11
   0 -10  -4 3097.60 164.172  14
   0  10   4 2866.33 143.350  11
   0 -10  -5 405.743 79.9149  14
   0  10   5 423.850 68.0565  11
   0 -10  -6 7.20475 63.9417  14
   0 -10  -7 354.338 82.6135  14
   0 -10  -8 749.955 111.764  14
   0  10   8 746.799 122.471   8
   0  11 -14 1127.49 126.165  12
   0  11 -13 1833.41 139.917  12
   0  11 -12 891.565 100.308  12
   0 -11  12 891.812 122.333  13
   0  11 -12 1123.06 122.743   7
   0  11 -11 1291.37 110.617  12
   0  11 -11 1152.64 119.637   7
   0 -11  11 1498.66 141.143  13
   0  11 -10 533.302 78.6323  12
   0  11 -10 452.598 75.9251   6
   0  11 -10 456.643 87.4484   7
   0 -11  10 384.511 86.0555  13
   0  11  -9 1567.87 110.485  12
   0  11  -9 1618.76 118.582   6
   0  11  -9 1517.08 119.992   7
   0 -11   9 1725.15 133.815  13
   0  11  -8 8439.50 287.143  12
   0  11  -8 8607.65 301.434   7
   0 -11   8 8523.56 327.589  13
   0  11  -8 8788.13 301.582   6
   0  11  -7 7464.57 268.791   7
   0 -11   7 7222.68 287.277  13
   0  11  -7 7707.96 273.607   6
   0 -11   6 414.983 78.9301  13
   0  11  -6 386.335 71.8910   6
   0 -11   6 399.883 69.1439  14
   0  11  -6 375.932 66.1628   7
   0 -11   5 11431.5 381.804  13
   0  11  -5 11450.6 360.493   6
   0  11  -5 11620.9 362.989  11
   0 -11   5 11361.6 360.394  14
   0  11  -5 10885.1 347.730   7
   0 -11   4 4709.34 209.876  13
   0  11  -4 4585.78 192.081  11
   0 -11   4 4295.94 188.241  14
   0  11  -4 4422.58 182.792   7
   0  11  -4 4744.96 196.015   6
   0  11  -3 344.707 58.5195   7
   0  11  -3 297.364 60.5686   6
   0 -11   3 270.735 57.6675  14
   0  11  -3 234.064 55.6756  11
   0  11  -2 8.50839 42.3249   7
   0  11  -2 74.1613 51.8871   6
   0  11  -2 25.0122 46.8919  11
   0 -11   2 20.8141 46.4803  14
   0  11  -1 845.157 85.8302   6
   0 -11   1 779.512 81.0145  14
   0  11  -1 738.549 73.2303   7
   0  11  -1 832.819 81.0575  11
   0  11   0 1904.16 117.938  11
   0  11   0 1734.10 116.693   6
   0 -11   0 1855.31 121.724  14
   0  11   1 3902.73 173.999  11
   0  11   1 3692.02 180.245   6
   0 -11  -1 4115.92 187.062  14
   0 -11  -2 2053.63 134.747  14
   0  11   2 2142.81 126.561  11
   0 -11  -3 1716.24 130.126  14
   0  11   3 1961.17 121.665  11
   0 -11  -4 5383.58 240.147  14
   0  11   4 5845.64 226.434  11
   0 -11  -5 1588.40 130.147  14
   0 -11  -6 7.85806 65.1161  14
   0 -11  -7 501.387 104.145  14
   0 -12  12 2682.52 196.180  13
   0  12 -12 2592.81 157.961  12
   0  12 -11 123.890 64.4296  12
   0 -12  11 103.826 83.7990  13
   0  12 -11 70.2657 73.6320   7
   0  12 -10 127.849 63.2319  12
   0 -12  10 167.947 85.7083  13
   0  12 -10 100.701 73.0565   7
   0  12  -9 207.958 64.8526  12
   0  12  -9 285.227 77.9416   7
   0 -12   9 291.997 81.0480  13
   0  12  -8 2070.53 138.339   7
   0 -12   8 2033.73 155.321  13
   0  12  -8 2248.86 139.837   6
   0 -12   7 4580.19 227.252  13
   0 -12   7 4716.57 209.525  14
   0  12  -7 4290.04 197.316   7
   0  12  -7 4702.60 205.617   6
   0 -12   6 1891.55 142.191  13
   0  12  -6 1979.58 131.819   6
   0 -12   6 1857.02 128.129  14
   0  12  -6 2112.65 127.650   7
   0  12  -5 1963.11 130.052  11
   0  12  -5 2003.51 128.871   6
   0 -12   5 1682.15 121.600  14
   0  12  -5 1682.79 116.123   7
   0  12  -4 12015.7 386.213  11
   0  12  -4 12556.5 391.585   6
   0 -12   4 12444.6 390.435  14
   0  12  -4 11777.9 372.372   7
   0  12  -3 4642.13 201.889  11
   0 -12   3 4723.64 202.323  14
   0  12  -3 4766.21 191.633   7
   0  12  -3 4378.58 198.814   6
   0  12  -2 181.312 55.5078   7
   0  12  -2 262.230 66.9578   6
   0  12  -2 223.396 61.4303  11
   0 -12   2 254.830 65.0048  14
   0  12  -1 833.428 85.2659  11
   0  12  -1 756.591 89.8292   6
   0 -12   1 572.055 78.7952  14
   0  12  -1 723.841 77.6057   7
   0  12   0 1349.80 113.468   6
   0 -12   0 1260.51 108.968  14
   0  12   0 1246.21 100.486  11
   0 -12  -1 1214.89 109.595  14
   0  12   1 1166.58 101.079  11
   0  12   2 269.603 62.6708  11
   0 -12  -2 310.686 76.4538  14
   0 -12  -3 206.179 73.0047  14
   0 -12  -4 868.849 113.324  14
   0 -12  -5 3388.75 196.711  14
   0  13 -10-7.48348 68.1006   7
   0 -13  10 85.8349 80.1871  13
   0  13  -9 1082.29 114.921   7
   0 -13   9 1112.87 129.316  13
   0 -13   8 757.755 98.6611  14
   0 -13   8 633.734 105.822  13
   0  13  -8 674.766 90.7246   7
   0 -13   7 1016.79 112.278  13
   0  13  -7 1148.45 107.706   6
   0  13  -7 1307.64 110.859   7
   0 -13   7 1004.64 104.881  14
   0  13  -6 1865.62 134.219   6
   0  13  -6 1606.80 117.725   7
   0 -13   6 1632.64 125.709  14
   0 -13   5 133.758 65.0251  14
   0  13  -5 148.065 60.1863   7
   0  13  -5 108.393 65.4072   6
   0  13  -4 1146.67 107.667  11
   0  13  -4 1254.97 113.953   6
   0 -13   4 1284.57 110.773  14
   0  13  -4 1162.42 99.0553   7
   0  13  -3 6575.40 261.579  11
   0  13  -3 6857.15 266.923   6
   0 -13   3 6482.05 259.961  14
   0  13  -3 6558.80 246.374   7
   0  13  -2 3022.42 166.258  11
   0 -13   2 2832.28 163.747  14
   0  13  -2 2687.45 145.081   7
   0  13  -2 2939.18 167.281   6
   0  13  -1 922.689 105.871   6
   0  13  -1 735.406 88.5443  11
   0 -13   1 811.044 102.062  14
   0 -13   0 3332.17 182.053  14
   0  13   0 3213.30 179.426   6
   0  13   0 3151.55 168.180  11
   0 -13  -1 1054.38 114.105  14
   0  13   1 919.058 99.4026  11
   0 -13  -2 323.837 78.9537  14
   0 -13  -3 23.0641 73.6995  14
   0  14  -8 3057.92 175.852   7
   0 -14   8 3474.27 191.982  14
   0  14  -7 1940.34 138.548   7
   0 -14   7 2173.57 151.346  14
   0 -14   6 216.905 75.9339  14
   0  14  -6 279.072 72.3503   7
   0 -14   5 137.200 70.0382  14
   0  14  -5 81.1484 60.0575   7
   0  14  -5 267.795 78.4381   6
   0 -14   4 115.378 67.5655  14
   0  14  -4 73.3718 64.7181   7
   0  14  -4 151.450 71.2697   6
   0  14  -4 131.909 68.0481  11
   0  14  -3 1690.66 133.386   6
   0 -14   3 1436.16 125.915  14
   0  14  -3 1493.70 114.313   7
   0  14  -3 1387.19 124.520  11
   0 -14   2 3326.37 184.777  14
   0  14  -2 3631.05 196.263   6
   0  14  -2 3179.42 181.391  11
   0 -14   1 958.350 110.736  14
   0  14  -1 803.409 106.505   6
   0  14  -1 896.704 106.470  11
   0 -14   0 1244.27 124.101  14
  -1  15  -3 503.510 89.0575   7
  -1  15  -4 430.282 83.7051   7
   1 -14  -1 38.7309 75.4741  14
   1 -14   0 1815.17 144.135  14
   1 -14   1 5970.88 261.703  14
  -1  14  -1 5911.50 247.824  11
   1 -14   2 2687.88 168.076  14
  -1  14  -2 2745.17 154.409   7
  -1  14  -2 2657.92 160.066   6
   1 -14   3 126.936 70.3215  14
  -1  14  -3 313.554 72.9741   7
  -1  14  -3 218.538 71.5080   6
   1 -14   4 2616.86 163.043  14
  -1  14  -4 2533.32 152.551   7
   1 -14   5 1174.03 117.471  14
  -1  14  -5 1190.68 112.569   7
   1 -14   6 263.382 80.8699  14
   1 -14   6 300.442 83.1488  13
  -1  14  -6 421.750 83.0565   7
  -1  14  -7-6.77360 64.2143   7
  -1  14  -7-57.7279 88.6117   8
   1 -14   7 52.8196 68.2428  14
  -1  14  -8 165.109 77.7822   7
   1 -13  -4 2898.59 182.627  14
   1 -13  -3 1100.60 119.108  14
   1 -13  -2 509.934 89.5400  14
   1 -13  -1 150.235 66.7532  14
   1 -13   0 317.253 75.1435  14
  -1  13   0 180.593 57.5089  11
  -1  13  -1 2198.33 139.656   6
   1 -13   1 1947.36 138.194  14
  -1  13  -1 1918.86 124.522   7
  -1  13  -1 2144.82 131.509  11
  -1  13  -2 6105.87 246.324   6
   1 -13   2 6558.17 257.504  14
  -1  13  -2 6040.45 238.312   7
  -1  13  -2 6145.99 246.171  11
   1 -13   3 2242.93 146.812  14
  -1  13  -3 2387.89 140.916   7
  -1  13  -3 2466.04 143.521   6
   1 -13   4 2285.46 162.244  13
   1 -13   4 2229.46 148.096  14
  -1  13  -4 2110.68 135.081   7
  -1  13  -4 2466.62 141.945   6
   1 -13   5 8073.53 321.614  13
   1 -13   5 8142.57 304.855  14
  -1  13  -5 7792.44 290.745   7
  -1  13  -5 8151.60 292.343   6
   1 -13   6 1671.03 141.855  13
   1 -13   6 1913.36 137.751  14
  -1  13  -6 1942.39 132.400   7
   1 -13   7 170.693 68.6803  14
   1 -13   7 193.742 80.4138  13
  -1  13  -7 199.899 67.1602   7
  -1  13  -8 804.806 102.598   8
  -1  13  -8 890.137 101.809   7
   1 -13   8 820.129 109.436  13
  -1  13  -9 371.291 81.1611   7
   1 -13   9 390.906 99.3445  13
  -1  13 -10 707.464 105.414   7
  -1  13 -10 839.710 99.1049  12
   1 -13  10 900.524 123.134  13
  -1  13 -11 1301.73 124.588  12
   1 -12  -6 2797.92 182.858  14
   1 -12  -5 1219.24 121.996  14
  -1  12   5 1374.55 156.625   8
   1 -12  -4 238.126 79.6689  14
   1 -12  -3 5081.00 238.117  14
   1 -12  -2 3568.45 187.972  14
  -1  12   2 3365.22 161.308  11
  -1  12   1 25.1858 49.6109  11
   1 -12  -1 110.647 66.0670  14
   1 -12   0 360.101 69.3994  14
  -1  12   0 193.380 58.1370   7
  -1  12   0 203.437 54.1095  11
  -1  12  -1 967.746 91.9197   6
   1 -12   1 1199.54 102.542  14
  -1  12  -1 946.932 86.2150   7
  -1  12  -1 869.193 84.9237  11
  -1  12  -2 3326.62 165.326   6
  -1  12  -2 3782.59 171.683  11
   1 -12   2 3661.36 176.886  14
  -1  12  -2 3622.34 166.393   7
   1 -12   3 2553.70 158.868  13
  -1  12  -3 3062.17 152.544   6
  -1  12  -3 2909.78 149.960  11
   1 -12   3 3009.40 159.637  14
  -1  12  -3 2818.23 147.513   7
   1 -12   4 274.836 66.4832  14
   1 -12   4 376.234 72.8242  13
  -1  12  -4 365.892 66.6714   7
  -1  12  -4 351.713 64.5331   6
   1 -12   5 4063.65 201.665  13
   1 -12   5 3851.08 190.962  14
  -1  12  -5 3707.51 175.727   7
  -1  12  -5 4008.41 177.406   6
   1 -12   6 13796.4 445.776  13
   1 -12   6 12924.8 420.955  14
  -1  12  -6 13360.4 403.957   6
  -1  12  -6 12696.5 407.408   7
  -1  12  -7 2135.74 127.746   6
  -1  12  -7 1973.73 137.237   7
   1 -12   7 2232.32 155.334  13
  -1  12  -8 1232.04 113.948   7
  -1  12  -8 1164.93 102.895  12
   1 -12   8 1175.63 123.487  13
  -1  12  -9 2432.09 156.430   7
  -1  12  -9 2291.36 143.150  12
   1 -12   9 2610.29 176.409  13
  -1  12 -10 1669.63 138.498   7
  -1  12 -10 1753.69 130.540  12
   1 -12  10 1671.40 153.063  13
  -1  12 -11 280.564 88.0279   7
  -1  12 -11 319.557 79.5874  12
   1 -12  11 325.169 98.2654  13
  -1  12 -12 75.1734 72.0647  12
   1 -12  12-21.2102 85.9218  13
  -1  11   7 457.098 107.977   8
   1 -11  -7 465.274 92.6539  14
  -1  11   6 2849.87 205.074   8
   1 -11  -6 2786.82 172.702  14
   1 -11  -5 2750.39 165.822  14
  -1  11   5 2377.58 124.989   9
   1 -11  -4 209.367 64.5262  14
  -1  11   4 181.411 44.3025   9
  -1  11   3 3036.34 141.412  11
   1 -11  -3 2948.61 162.184  14
  -1  11   3 2746.35 109.960   9
  -1  11   2 11101.7 337.042  11
   1 -11  -2 11684.9 369.481  14
  -1  11   2 10619.4 279.225   9
   1 -11  -1 3964.35 184.817  14
  -1  11   1 3832.23 165.711  11
  -1  11   0 2408.00 132.311   6
   1 -11   0 2222.97 134.584  14
  -1  11   0 2632.99 131.863   7
  -1  11   0 2333.83 126.451  11
  -1  11  -1 5822.35 221.509   6
  -1  11  -1 5562.74 212.903  11
   1 -11   1 5976.46 229.123  14
  -1  11  -1 6064.76 218.119   7
   1 -11   2 2687.05 152.456  13
  -1  11  -2 2863.48 141.091   6
  -1  11  -2 2798.67 138.459  11
   1 -11   2 2725.73 145.983  14
  -1  11  -2 2792.24 138.732   7
   1 -11   3 1581.56 119.380  13
  -1  11  -3 1713.01 108.543   6
  -1  11  -3 1812.70 113.974  11
   1 -11   3 1674.57 113.883  14
  -1  11  -3 1736.47 109.156   7
   1 -11   4 974.042 98.6500  13
   1 -11   4 925.970 86.0977  14
  -1  11  -4 891.867 80.6231   7
  -1  11  -4 966.777 82.8481   6
   1 -11   5 384.220 63.9741  14
  -1  11  -5 244.185 59.2657   7
   1 -11   5 336.682 52.2850   6
  -1  11  -5 468.693 64.1813   6
   1 -11   5 364.205 69.0012  13
  -1  11  -6 6820.76 239.663   6
   1 -11   6 6674.17 269.122  13
  -1  11  -6 6701.94 251.193   7
  -1  11  -7 11972.1 370.873  12
  -1  11  -7 12634.6 366.814   6
   1 -11   7 11553.3 398.815  13
  -1  11  -7 11396.1 377.682   7
  -1  11  -8 1853.86 121.899  12
  -1  11  -8 1997.40 119.238   6
   1 -11   8 1975.37 142.801  13
  -1  11  -8 1792.10 128.352   7
  -1  11  -9 4216.27 194.895  12
   1 -11   9 4495.85 224.329  13
  -1  11  -9 4165.49 188.199   8
  -1  11  -9 4599.35 212.677   7
  -1  11 -10 7523.91 285.039  12
   1 -11  10 7623.81 316.481  13
  -1  11 -10 7311.42 296.533   7
  -1  11 -11 899.680 101.339  12
   1 -11  11 957.538 118.457  13
  -1  11 -11 919.282 109.737   7
  -1  11 -12-36.7981 70.9369  12
   1 -11  12-29.8153 80.5185  13
  -1  11 -12 8.73229 70.7470   7
  -1  11 -13 225.505 81.8991  12
   1 -11  13 237.168 100.594  13
  -1  10  10 2093.13 151.247   9
   1 -10  -9 1160.18 131.455  14
  -1  10   9 1175.71 139.100   8
  -1  10   9 1008.42 109.604   9
   1 -10  -8 164.336 77.0420  14
  -1  10   8 84.5291 74.9391   8
  -1  10   8 54.2659 55.8310   9
   1 -10  -7 2705.21 169.114  14
  -1  10   7 2407.11 155.739   9
   1 -10  -6 1340.80 115.938  14
  -1  10   6 1073.82 93.8882   9
  -1  10   6 1343.34 142.987   8
  -1  10   5 1006.38 80.3653  11
   1 -10  -5 997.941 99.5431  14
  -1  10   5 1106.88 84.0011   9
  -1  10   4 1313.04 88.1149  11
   1 -10  -4 1316.33 107.580  14
  -1  10   4 1165.92 80.1338   9
   1 -10  -3 155.502 53.4656  14
  -1  10   3 167.116 34.5109   9
  -1  10   3 161.435 45.5851  11
   1 -10  -3 122.851 38.1762  11
   1 -10  -2 5537.37 185.004  11
  -1  10   2 5265.65 192.622  11
  -1  10   2 5108.37 157.324   9
   1 -10  -2 5423.55 216.900  14
  -1  10   1 8630.79 271.558  11
   1 -10  -1 8769.69 263.241  11
  -1  10   1 8315.92 282.049   6
  -1  10   1 8403.16 213.784   9
   1 -10  -1 8820.85 293.068  14
  -1  10   0 3384.37 150.771   6
   1 -10   0 3106.22 150.842  14
   1 -10   0 3166.85 136.602   7
  -1  10   0 3233.99 142.102   7
  -1  10   0 3227.14 141.823  11
   1 -10   0 3272.45 136.486  11
   1 -10   0 3221.96 135.626  12
   1 -10   1 4726.48 178.915   6
  -1  10  -1 4573.83 182.903   6
   1 -10   1 4442.49 170.124  11
   1 -10   1 4832.30 171.928  12
  -1  10  -1 5055.72 184.073  11
   1 -10   1 4705.44 190.368  14
   1 -10   1 4449.16 170.458   7
  -1  10  -1 4459.65 176.718   7
   1 -10   2 14567.0 439.104  13
   1 -10   2 14501.7 399.522  12
  -1  10  -2 15553.2 420.628   6
   1 -10   2 14509.7 407.117   6
  -1  10  -2 14611.8 415.856  11
   1 -10   2 14226.0 405.154  11
   1 -10   2 15600.9 431.955  14
  -1  10  -2 13875.5 410.065   7
   1 -10   2 14357.2 405.848   7
   1 -10   3 1413.75 106.796  13
   1 -10   3 1367.59 83.7014  12
   1 -10   3 1349.84 85.9172   6
  -1  10  -3 1544.54 96.1392   6
  -1  10  -3 1345.02 92.7645  11
   1 -10   3 1548.94 102.493  14
  -1  10  -3 1394.93 93.5200   7
   1 -10   4 325.537 50.1431  12
   1 -10   4 337.495 48.7307   6
  -1  10  -4 422.736 54.7188   6
  -1  10  -4 422.761 57.4795   7
   1 -10   4 373.665 60.8177  14
   1 -10   4 265.922 61.4958  13
  -1  10  -5 589.557 64.4377  12
  -1  10  -5 623.867 64.1390   6
   1 -10   5 563.755 55.2980   6
   1 -10   5 628.565 59.9544  12
   1 -10   5 507.374 70.5655  13
  -1  10  -5 576.296 68.8317   7
  -1  10  -6 1016.09 81.8111  12
  -1  10  -6 1140.12 82.5514   6
   1 -10   6 1118.28 98.1991  13
  -1  10  -6 1121.65 89.3906   7
  -1  10  -7 3773.03 165.394  12
  -1  10  -7 3971.95 161.729   6
   1 -10   7 3849.37 188.517  13
  -1  10  -7 3715.39 174.569   7
  -1  10  -8 5400.53 217.988  12
  -1  10  -8 6219.76 215.992   6
   1 -10   8 5621.42 243.543  13
  -1  10  -8 5754.84 232.333   7
  -1  10  -9 27.4295 52.0133  12
  -1  10  -9 124.802 51.6607   6
   1 -10   9 7.32540 64.5994  13
  -1  10  -9 51.2263 55.7312   7
  -1  10  -9-4.28089 45.9381   8
  -1  10 -10 8070.44 293.284  12
   1 -10  10 8161.67 324.246  13
  -1  10 -10 7913.50 306.288   7
  -1  10 -11 8361.96 315.005  12
  -1  10 -11 8418.83 329.816   7
  -1  10 -12 881.118 101.412  12
   1 -10  12 801.276 116.660  13
  -1  10 -12 910.574 109.903   7
  -1  10 -13 706.352 99.6142  12
   1 -10  13 871.569 132.997  13
  -1  10 -14 1538.49 142.673  12
  -1   9  11 131.010 68.8941   9
   1  -9 -10 1898.08 159.440  14
  -1   9  10 1912.74 160.524   8
  -1   9  10 1984.40 143.021   9
   1  -9  -9 1630.82 141.985  14
  -1   9   9 1971.91 153.210   8
  -1   9   9 1528.44 123.120   9
   1  -9  -8 782.031 100.010  14
  -1   9   8 708.453 105.877   8
   1  -9  -7 1382.93 116.517  14
  -1   9   7 1293.95 134.035   8
   1  -9  -6 8906.18 313.653  14
  -1   9   6 8348.32 265.762  11
   1  -9  -5 3480.80 173.167  14
  -1   9   5 3572.36 143.981  11
   1  -9  -4 87.8858 49.1120  14
  -1   9   4 93.6806 35.2852  11
  -1   9   4 98.0164 40.3563   9
   1  -9  -4 128.952 47.6625   7
   1  -9  -3 25.7290 41.6950  14
   1  -9  -3 19.5532 36.0231  12
  -1   9   3 51.3113 31.6992  11
  -1   9   3 30.2974 28.5040   9
   1  -9  -3 25.8237 27.8141  11
   1  -9  -3 25.6156 35.2776   7
   1  -9  -2 1315.07 63.7341   3
   1  -9  -2 1206.69 90.9340  14
   1  -9  -2 1175.80 87.6167   6
   1  -9  -2 1342.40 82.5057  12
  -1   9   2 1330.80 79.3871  11
   1  -9  -2 1292.95 75.0346  11
  -1   9   2 1297.65 62.5802   9
   1  -9  -2 1286.18 81.2464   7
   1  -9  -1 6263.01 174.546   3
   1  -9  -1 5931.70 215.234  14
  -1   9   1 5829.42 216.319  13
  -1   9   1 6018.29 212.509   6
   1  -9  -1 5845.05 207.101   6
  -1   9   1 6245.31 200.781  11
   1  -9  -1 6101.20 193.864  11
   1  -9  -1 5968.82 197.956  12
  -1   9   1 6144.23 203.247   7
   1  -9  -1 6352.38 201.001   7
   1  -9   0 15633.3 437.711  14
  -1   9   0 15079.2 437.460  13
   1  -9   0 15463.3 426.383   6
  -1   9   0 16158.0 432.528   6
   1  -9   0 15414.9 412.761  11
   1  -9   0 14876.6 412.684  12
  -1   9   0 15438.0 420.229  11
   1  -9   0 15450.4 391.076   3
   1  -9   0 15629.6 417.611   7
  -1   9   0 15291.2 422.428   7
  -1   9  -1 1932.77 108.265  13
  -1   9  -1 2118.95 106.383   6
   1  -9   1 2099.84 104.779   6
  -1   9  -1 2120.35 104.483  11
   1  -9   1 1883.90 96.2210  12
   1  -9   1 1910.15 96.5487  11
   1  -9   1 2045.39 111.112  14
   1  -9   1 2088.45 101.804   7
  -1   9  -1 1994.07 102.688   7
   1  -9   2 8255.93 242.441  12
  -1   9  -2 7676.64 258.475  13
   1  -9   2 7682.78 268.296  13
   1  -9   2 7899.22 245.497   6
  -1   9  -2 7859.20 252.979   6
  -1   9  -2 8324.79 254.292  11
   1  -9   2 7973.95 246.436  11
   1  -9   2 7878.34 260.306  14
   1  -9   2 7885.35 246.846   7
  -1   9  -2 7797.46 250.114   7
   1  -9   3 19656.7 528.024  13
  -1   9  -3 17063.3 502.049  13
   1  -9   3 18696.9 486.885  12
   1  -9   3 17988.5 486.741   6
  -1   9  -3 19292.8 499.682   6
   1  -9   3 18421.4 495.715  11
  -1   9  -3 19396.9 508.102  11
   1  -9   3 19415.0 515.678  14
  -1   9  -3 19111.7 504.178   7
   1  -9   3 19044.7 496.319   7
  -1   9  -4 1507.03 88.1822  12
   1  -9   4 1336.84 85.8225  11
  -1   9  -4 1446.34 85.7486   6
   1  -9   4 1403.83 78.9762   6
  -1   9  -4 1306.92 87.5332   7
   1  -9   4 1339.62 84.5488   7
   1  -9   4 1274.02 95.0166  13
   1  -9   4 1367.41 79.6389  12
   1  -9   5 2205.04 113.794  11
  -1   9  -5 2090.45 108.083  12
   1  -9   5 2054.21 97.7335   6
  -1   9  -5 2391.01 108.585   6
  -1   9  -5 2059.73 113.208   7
   1  -9   5 2359.59 113.807   7
   1  -9   5 2198.66 103.892  12
   1  -9   5 2288.77 128.205  13
  -1   9  -6 3607.45 151.479  12
  -1   9  -6 3635.32 144.985   6
  -1   9  -6 3311.37 152.861   7
   1  -9   6 3639.47 142.038  12
   1  -9   6 3503.50 167.135  13
  -1   9  -7 1288.06 90.7885  12
  -1   9  -7 1268.08 83.1968   6
  -1   9  -7 1444.46 100.459   7
   1  -9   7 1430.06 84.7373  12
   1  -9   7 1251.23 101.160  13
  -1   9  -8 1800.16 111.930  12
  -1   9  -8 1938.66 104.180   6
  -1   9  -8 1857.41 118.793   7
   1  -9   8 1988.15 129.912  13
  -1   9  -9 795.283 84.5405  12
  -1   9  -9 1002.59 78.2058   6
  -1   9  -9 846.013 65.9807   8
  -1   9  -9 867.536 89.3209   7
   1  -9   9 956.642 98.6895  13
  -1   9 -10 244.537 59.9783  12
  -1   9 -10 271.968 36.4844   8
  -1   9 -10 286.039 55.5968   6
   1  -9  10 292.229 70.8981  13
   1  -9  11 8379.87 327.931  13
  -1   9 -11 7560.52 289.947  12
  -1   9 -12 7257.26 278.930   1
   1  -9  12 8126.83 336.085  13
  -1   9 -12 8220.32 309.605  12
   1  -9  13 150.553 82.0275  13
  -1   9 -13 279.903 83.6532  12
  -1   9 -14 2023.88 160.830  12
  -1   8  12 63.4532 64.2752   9
  -1   8  11 97.3862 72.2153   8
   1  -8 -11 19.7460 77.4974  14
  -1   8  10 90.7597 70.1191   8
   1  -8 -10 141.321 70.4967  14
  -1   8   9 2919.48 132.952   3
  -1   8   9 3210.16 186.406   8
   1  -8  -9 2708.94 174.968  14
  -1   8   8 3555.01 197.081   8
   1  -8  -8 3449.92 185.339  14
   1  -8  -7 31.6297 48.4396  14
  -1   8   7 58.6702 38.9627  11
   1  -8  -6 5611.08 227.056  14
  -1   8   6 5544.14 188.445  11
  -1   8   5 14039.8 379.549  11
   1  -8  -5 13995.8 420.250  14
   1  -8  -5 14023.5 392.424   7
  -1   8   5 13629.4 409.535  13
   1  -8  -4 3545.44 119.499   3
   1  -8  -4 3337.19 154.775  14
  -1   8   4 3378.87 152.642  13
  -1   8   4 3321.14 130.253  11
  -1   8   4 3406.66 104.261   5
   1  -8  -4 3397.11 138.667   7
   1  -8  -3 5102.34 193.993  14
  -1   8   3 5070.42 191.063  13
   1  -8  -3 4795.52 187.268   6
   1  -8  -3 4936.52 160.930  11
  -1   8   3 4717.77 164.762  11
   1  -8  -3 4990.07 174.165   7
  -1   8   3 4923.40 156.992   5
   1  -8  -3 5083.73 151.963   3
   1  -8  -2 3334.09 109.624   3
   1  -8  -2 3438.40 146.403  14
  -1   8   2 3131.51 139.944  13
   1  -8  -2 3330.63 140.294   6
   1  -8  -2 3211.89 120.297  11
   1  -8  -2 3241.55 131.563  12
  -1   8   2 3259.15 125.656  11
  -1   8   2 2973.58 108.841   9
   1  -8  -2 3047.27 125.411   7
   1  -8  -1 3699.59 116.472   3
   1  -8  -1 3521.31 146.273  14
  -1   8   1 3346.40 144.484  13
  -1   8   1 3554.65 143.072   6
   1  -8  -1 3461.84 141.587   6
   1  -8  -1 3572.05 134.659  12
   1  -8  -1 3530.39 128.106  11
  -1   8   1 3589.14 134.254  11
  -1   8   1 3447.14 106.894   9
   1  -8  -1 3302.56 132.917   7
  -1   8   1 3377.41 135.633   7
   1  -8   0 7863.49 217.865   3
   1  -8   0 8203.81 255.359  14
  -1   8   0 7631.76 251.620  13
   1  -8   0 7722.54 242.402   6
  -1   8   0 7987.17 246.496   6
   1  -8   0 7809.12 232.572  11
   1  -8   0 7914.70 236.784  12
  -1   8   0 8141.78 240.061  11
  -1   8   0 7936.86 190.797   9
  -1   8   0 7511.18 238.985   7
   1  -8   0 8443.56 241.560   7
  -1   8  -1 3106.85 130.464  13
   1  -8   1 2728.40 129.617  13
  -1   8  -1 2734.15 118.988   6
   1  -8   1 3110.03 122.702   6
   1  -8   1 2808.20 114.459  11
  -1   8  -1 2969.06 120.570  11
   1  -8   1 2770.04 113.292  12
   1  -8   1 2840.16 125.824  14
   1  -8   1 2803.51 115.990   7
  -1   8  -1 2969.15 121.463   7
   1  -8   2 223.570 40.7435  14
   1  -8   2 195.015 43.5793  13
  -1   8  -2 223.295 40.8894  13
  -1   8  -2 142.770 34.3384   6
   1  -8   2 261.126 38.1014   6
  -1   8  -2 137.633 33.0925   7
  -1   8  -2 287.246 42.1345  11
   1  -8   2 210.846 36.0716  12
   1  -8   2 201.470 35.9269  11
   1  -8   2 246.885 39.6049   7
  -1   8  -3 16949.0 442.986  11
   1  -8   3 15841.4 432.371  11
  -1   8  -3 17082.8 437.915  12
  -1   8  -3 16150.2 430.482   6
   1  -8   3 16288.1 423.955   6
   1  -8   3 16604.4 432.609   7
  -1   8  -3 16307.8 439.460   7
   1  -8   3 15687.3 423.450  12
  -1   8  -3 15030.5 437.823  13
   1  -8   3 17216.5 458.510  13
  -1   8  -4 34368.1 848.187  12
   1  -8   4 33961.9 850.370  11
  -1   8  -4 36233.0 843.285   6
   1  -8   4 33878.2 831.931   6
   1  -8   4 34710.1 846.354   7
  -1   8  -4 34280.6 854.884   7
   1  -8   4 34144.0 870.376  13
   1  -8   4 34635.5 838.021  12
   1  -8   5 1323.10 83.1307  11
  -1   8  -5 1214.83 77.3042  12
   1  -8   5 1200.27 67.5028   6
  -1   8  -5 1241.85 73.8598   6
  -1   8  -5 1205.06 82.5850   7
   1  -8   5 1272.35 79.5207   7
  -1   8  -5 1264.39 83.1661  13
   1  -8   5 1345.37 75.4670  12
   1  -8   5 1124.53 86.8705  13
   1  -8   6 12498.1 380.230  13
   1  -8   6 12709.8 347.234  12
  -1   8  -6 12934.8 348.300   6
  -1   8  -6 12279.5 356.420  12
  -1   8  -6 12792.8 361.668  13
   1  -8   6 12306.9 354.823   7
  -1   8  -6 11620.4 362.545   7
   1  -8   7 10844.8 311.399  12
   1  -8   7 11865.9 355.007  13
  -1   8  -7 11564.8 313.570   6
  -1   8  -7 10849.3 324.673  12
   1  -8   7 10065.4 265.848   9
  -1   8  -7 11222.7 326.270  13
   1  -8   8 3002.89 132.607  12
   1  -8   8 3372.52 162.972  13
  -1   8  -8 2942.12 129.070   6
  -1   8  -8 2806.01 139.267  12
   1  -8   8 2855.82 103.797   9
  -1   8  -8 3230.40 140.745  13
   1  -8   9 70.4858 52.7129  13
  -1   8  -9 15.0119 35.3877   6
  -1   8  -9-10.1044 39.0053  12
   1  -8   9 58.0608 28.7510   9
  -1   8  -9 45.4144 24.3772   8
   1  -8  10 14.2390 53.0828  13
  -1   8 -10 52.7310 41.5997   6
  -1   8 -10 107.663 49.3399  12
   1  -8  10 59.3560 38.7755   9
  -1   8 -10 81.6640 18.2123   8
  -1   8 -11 1003.32 98.5232  12
   1  -8  11 1332.93 119.963  13
  -1   8 -11 1109.95 86.9551   6
  -1   8 -12 4492.70 231.660   7
  -1   8 -12 4722.12 223.396  12
   1  -8  12 5280.63 255.199  13
  -1   8 -12 4698.24 192.890   1
  -1   8 -13 3916.86 215.795  12
   1  -8  13 4648.66 234.006  13
  -1   8 -13 4171.64 229.043   7
   1  -8  14 247.275 84.6729  13
  -1   8 -14 288.169 93.2813   7
  -1   8 -14 292.528 91.1460  12
  -1   8 -15 3584.30 229.634  12
   1  -7 -12 1303.32 139.310  14
  -1   7  11 110.557 55.2431   3
  -1   7  11 168.264 68.0371   8
   1  -7 -11 131.715 76.2807  14
   1  -7 -10 1554.76 137.088  14
  -1   7  10 1558.56 126.372   8
  -1   7  10 1566.83 106.410   3
   1  -7  -9 913.855 104.918  14
  -1   7   9 1027.90 81.4314   3
  -1   7   9 945.540 103.064   8
   1  -7  -8 2951.09 158.943  14
  -1   7   8 2952.12 122.982   3
  -1   7   8 3256.10 172.230   8
   1  -7  -7 1705.41 117.786  14
  -1   7   7 1567.84 84.7054  11
  -1   7   7 1622.02 108.200  13
  -1   7   7 1617.79 85.5463   3
   1  -7  -7 1667.52 77.5873   4
  -1   7   7 1513.23 125.538   8
   1  -7  -6 506.201 65.2996  14
  -1   7   6 472.421 46.1704  11
  -1   7   6 427.971 60.8100  13
  -1   7   6 534.612 45.8314   3
   1  -7  -6 402.739 39.4925   4
   1  -7  -6 532.419 58.9456   7
  -1   7   5 6025.18 213.779  13
  -1   7   5 6084.92 189.548  11
   1  -7  -5 6057.36 223.267  14
  -1   7   5 6259.55 219.614  14
   1  -7  -5 6121.83 204.602   7
   1  -7  -4 17439.8 462.012  14
  -1   7   4 16048.6 448.159  14
  -1   7   4 16798.8 452.203  13
  -1   7   4 16954.8 423.424  11
  -1   7   4 16128.9 388.975   5
   1  -7  -4 16400.1 412.200   3
   1  -7  -4 16701.3 435.183   7
   1  -7  -3 2880.26 128.890  14
  -1   7   3 2799.91 121.671  14
  -1   7   3 2550.67 119.915  13
   1  -7  -3 2472.18 119.616   6
  -1   7   3 2663.51 103.578  11
   1  -7  -3 2717.62 100.301  11
   1  -7  -3 2648.15 94.9208   3
  -1   7   3 2545.44 95.0258   5
   1  -7  -3 2481.43 107.879   7
   1  -7  -2 15367.9 424.859  14
  -1   7   2 14862.4 419.654  13
   1  -7  -2 15099.1 418.181   6
   1  -7  -2 15899.6 396.409  11
   1  -7  -2 15147.9 407.851  12
  -1   7   2 15187.8 399.162  11
   1  -7  -2 15730.9 407.942   7
   1  -7  -2 16058.1 387.429   3
   1  -7  -1 26688.1 616.418   3
   1  -7  -1 26115.7 652.048  14
  -1   7   1 25126.9 649.925  13
   1  -7  -1 24897.7 641.824   6
  -1   7   1 24723.0 642.818   6
  -1   7   1 25328.0 631.288  11
   1  -7  -1 25162.0 633.743  12
   1  -7  -1 26602.7 627.765  11
  -1   7   1 26694.1 606.945   9
   1  -7  -1 26210.0 636.061   7
  -1   7   1 23429.4 633.940   7
   1  -7   0 1243.48 57.8521   3
   1  -7   0 1282.75 75.7554  14
  -1   7   0 1108.70 71.6447  13
   1  -7   0 1162.06 68.1161   6
  -1   7   0 1227.07 69.9046   6
   1  -7   0 1213.35 64.5247  11
   1  -7   0 1156.24 65.9128  12
  -1   7   0 1184.74 66.0748  11
  -1   7   0 1236.62 41.0346   9
   1  -7   0 1256.73 68.7093   7
  -1   7   0 1196.54 69.6121   7
   1  -7   1 48.6132 28.4405  14
   1  -7   1 84.0637 30.7300  13
  -1   7  -1 110.676 29.1711  13
   1  -7   1 75.4784 29.5215   6
  -1   7  -1 75.1745 26.4476   7
   1  -7   1 76.4820 26.4073  12
  -1   7  -1 53.4589 23.1662  11
   1  -7   1 98.9978 27.6331  11
   1  -7   1 64.4068 23.3595   7
   1  -7   2 56.1469 29.8723  13
  -1   7  -2 140.669 32.4872  13
   1  -7   2 173.666 29.7460   6
  -1   7  -2 136.026 28.9248  11
   1  -7   2 128.017 27.7392  12
   1  -7   2 163.550 30.8390  11
   1  -7   2 135.135 28.5955   7
  -1   7  -2 172.606 31.6759   7
  -1   7  -3 2578.06 107.721  12
   1  -7   3 2632.57 107.506  11
  -1   7  -3 2695.27 112.697  11
   1  -7   3 2639.71 100.344   6
   1  -7   3 2575.60 102.764  12
   1  -7   3 2838.62 122.571  13
  -1   7  -3 2451.87 111.709  13
  -1   7  -3 2476.79 109.140   7
   1  -7   3 2657.62 107.428   7
  -1   7  -4 14938.7 408.037  12
   1  -7   4 15930.0 393.908   6
   1  -7   4 15795.6 400.963  12
   1  -7   4 16282.6 430.484  13
   1  -7   4 16358.2 410.402   7
  -1   7  -5 16018.4 407.537  13
  -1   7  -5 15948.2 402.821  12
   1  -7   5 16632.4 428.084  13
   1  -7   5 16389.3 394.706  12
   1  -7   5 16281.8 402.655   7
   1  -7   6 127.523 18.9140   9
   1  -7   6 101.778 36.7776  11
   1  -7   6 123.703 33.3184  12
  -1   7  -6 101.311 33.9483  12
  -1   7  -6 74.9759 34.8478  13
   1  -7   6 107.354 38.4875  13
   1  -7   7 27522.5 709.951  11
   1  -7   7 27239.6 685.289  12
   1  -7   7 27948.0 722.570  13
  -1   7  -7 28090.5 699.813  12
   1  -7   7 26367.6 657.974   9
  -1   7  -7 28275.2 697.160  13
   1  -7   8 15530.8 443.672  13
  -1   7  -8 14919.6 420.819  12
   1  -7   8 15252.0 409.109  12
   1  -7   8 13934.5 427.607  11
  -1   7  -8 14737.6 410.716  13
  -1   7  -8 14123.4 377.319   8
  -1   7  -9 154.287 46.2346  12
   1  -7   9 126.118 52.3741  13
  -1   7  -9 159.602 44.2305  13
  -1   7  -9 169.786 20.9570   8
  -1   7  -9 101.735 49.9530   7
  -1   7  -9 121.204 39.3629   6
   1  -7  10 2691.89 157.157  13
  -1   7 -10 2453.80 141.137  12
  -1   7 -10 2618.86 150.761   7
  -1   7 -10 2702.06 125.520   6
   1  -7  11 3190.41 180.795  13
  -1   7 -11 3030.26 164.010  12
  -1   7 -11 2719.73 135.637   1
  -1   7 -11 3037.06 172.004   7
  -1   7 -11 3167.87 143.767   6
  -1   7 -12 1951.65 147.891   7
   1  -7  12 2559.91 166.230  13
  -1   7 -12 2364.75 153.615  12
  -1   7 -12 2052.83 108.270   1
   1  -7  13 1216.79 117.491  13
  -1   7 -13 1123.61 117.210  12
  -1   7 -13 1236.91 128.368   7
   1  -7  14 273.903 78.5981  13
  -1   7 -14 346.778 95.3258  12
  -1   7 -14 230.185 88.4723   7
  -1   7 -15 865.569 129.189  12
  -1   7 -15 909.396 119.620   7
   1  -6 -13 2365.46 177.788  14
  -1   6  12 2906.23 171.546   3
   1  -6 -12 3463.14 210.789  14
  -1   6  11 438.836 75.1913   3
  -1   6  11 618.772 83.2550   8
   1  -6 -11 551.032 97.2155  14
   1  -6 -10 897.794 106.958  14
  -1   6  10 1051.11 94.4803   3
  -1   6  10 1144.53 101.459   8
   1  -6  -9 8104.39 302.872  14
  -1   6   9 7946.21 243.080  11
  -1   6   9 7244.19 258.149   3
  -1   6   9 7707.12 287.375   8
  -1   6   8 2004.92 105.705   1
  -1   6   8 2009.90 117.586  13
  -1   6   8 2204.70 99.5305  11
  -1   6   8 1982.79 130.853   8
   1  -6  -8 1980.09 88.2562   4
  -1   6   8 1937.82 105.126   3
   1  -6  -7 91.5346 25.4760   4
  -1   6   7 81.1335 31.1725   3
   1  -6  -7 106.563 45.1585  14
  -1   6   7 79.2688 38.6298  13
   1  -6  -7 76.5505 39.7178   7
  -1   6   7 104.125 28.0800  11
  -1   6   7 55.3167 48.2791   8
   1  -6  -6 1897.12 109.324  14
  -1   6   6 1919.02 104.264  13
   1  -6  -6 1588.67 108.166   6
  -1   6   6 1878.06 82.2174  11
   1  -6  -6 1704.62 76.1655   4
  -1   6   6 1834.53 86.1845   3
   1  -6  -6 1674.84 94.6768   7
   1  -6  -5 2560.17 102.007   3
   1  -6  -5 2481.58 121.361  14
  -1   6   5 2356.27 112.708  13
  -1   6   5 2304.37 92.7408  11
  -1   6   5 2300.48 93.8804   3
   1  -6  -5 2583.17 109.874   7
   1  -6  -4 21291.0 565.323  14
  -1   6   4 21787.2 556.543  13
  -1   6   4 21404.0 498.321   5
  -1   6   4 20839.5 529.370  11
   1  -6  -4 22578.9 530.877   3
   1  -6  -4 22088.1 547.428   7
   1  -6  -3 13996.5 381.929  14
  -1   6   3 13208.1 371.822  13
  -1   6   3 13047.1 350.974  11
   1  -6  -3 13498.0 345.591  11
   1  -6  -3 13688.4 362.214   7
  -1   6   3 13869.1 341.056   5
   1  -6  -3 14535.1 348.553   3
   1  -6  -2 265.723 26.5344   3
   1  -6  -2 310.287 39.7015  14
  -1   6   2 284.746 37.7924  13
   1  -6  -2 293.089 38.9154   6
   1  -6  -2 331.138 30.1853  11
  -1   6   2 212.240 27.6002  11
   1  -6  -2 288.774 35.6729   7
   1  -6  -1 27199.5 626.117   3
   1  -6  -1 26688.3 656.183  14
  -1   6   1 25265.5 651.773  13
   1  -6  -1 25824.6 646.249   6
   1  -6  -1 26542.7 643.010  12
  -1   6   1 25788.2 635.745  11
   1  -6  -1 25646.6 631.278  11
  -1   6   1 26710.6 618.258   9
  -1   6   1 26549.3 644.574   7
   1  -6  -1 26408.1 641.849   7
  -1   6   0 46647.8 1096.23  13
   1  -6   0 46680.5 1085.45   6
   1  -6   0 46367.2 1082.43  12
   1  -6   0 45773.3 1076.92  11
  -1   6   0 46201.3 1080.73  11
  -1   6   0 45796.9 1047.14   9
  -1   6   0 43968.3 1083.14   7
   1  -6   0 47635.9 1084.55   7
   1  -6   1 399.546 37.0349  12
   1  -6   1 535.400 40.8309  11
  -1   6  -1 518.972 40.0264   6
   1  -6   1 457.488 38.3991   6
  -1   6  -1 500.490 44.2378  13
   1  -6   1 507.184 41.0438   7
   1  -6   2 3395.24 118.984  11
  -1   6  -2 3388.27 120.687  12
  -1   6  -2 3458.48 122.162  11
   1  -6   2 3410.76 113.620   6
  -1   6  -2 3439.38 116.607   6
   1  -6   2 3389.82 115.769  12
  -1   6  -2 3398.66 126.749  13
   1  -6   2 3230.48 117.809   7
  -1   6  -3 2128.90 89.3229  12
  -1   6  -3 2147.01 83.5774   6
   1  -6   3 2095.25 80.1542   6
  -1   6  -3 1895.84 90.6712  13
   1  -6   3 2067.18 84.5951  12
   1  -6   3 2047.01 87.9931   7
   1  -6   4 6885.29 213.900  13
   1  -6   4 6483.87 190.453  12
   1  -6   4 6368.97 179.647   6
  -1   6  -4 7131.35 189.213   6
  -1   6  -4 6731.27 198.267  12
   1  -6   4 6002.83 154.205   9
   1  -6   4 6563.58 196.524   7
   1  -6   5 8432.36 239.012  12
   1  -6   5 8453.31 261.897  13
  -1   6  -5 8690.71 234.074   6
  -1   6  -5 8378.25 245.955  12
   1  -6   5 7620.64 246.852  11
  -1   6  -5 8214.38 245.899  13
   1  -6   5 8199.31 243.651   7
   1  -6   6 3880.19 136.311  12
   1  -6   6 3963.49 155.594  13
  -1   6  -6 3657.58 141.448  12
  -1   6  -6 3741.06 127.870   6
   1  -6   6 3314.83 143.854  11
  -1   6  -6 3637.67 139.173  13
  -1   6  -6 3625.02 146.742   7
  -1   6  -7 1026.47 72.2289  12
   1  -6   7 1124.31 80.9430  13
   1  -6   7 1097.57 69.6700  12
  -1   6  -7 1067.17 61.9954   6
   1  -6   7 972.117 76.1199  11
  -1   6  -7 1039.02 70.2921  13
  -1   6  -7 944.408 75.8809   7
  -1   6  -8 20143.3 507.101  13
   1  -6   8 20681.6 538.837  13
   1  -6   8 19776.7 504.738  12
  -1   6  -8 18501.3 513.932  12
   1  -6   8 17925.7 525.144  11
  -1   6  -8 20605.4 532.681   7
  -1   6  -8 18154.9 447.551   8
  -1   6  -8 18230.2 538.996   5
  -1   6  -9 14982.8 436.062  12
   1  -6   9 14706.0 420.780  12
   1  -6   9 15596.4 455.133  13
  -1   6  -9 15611.2 409.792   6
   1  -6   9 13609.5 443.663  11
  -1   6  -9 15143.0 447.768   7
  -1   6  -9 14885.5 452.352   5
  -1   6 -10 157.661 56.8463   7
   1  -6  10 315.081 67.2901  13
  -1   6 -10 274.008 47.6929   6
  -1   6 -10 219.301 56.6706  12
   1  -6  10 177.802 14.1162  10
  -1   6 -10 237.770 46.2604   1
  -1   6 -11 6083.67 255.236  12
   1  -6  11 7427.51 283.884  13
  -1   6 -11 6162.90 209.379   1
  -1   6 -11 6950.35 277.291   7
  -1   6 -11 6807.88 232.944   6
  -1   6 -12 4907.42 237.722  12
   1  -6  12 6175.70 252.510  13
  -1   6 -12 5539.43 216.204   6
  -1   6 -12 5726.75 258.460   7
  -1   6 -12 5320.31 176.514   1
  -1   6 -13 780.609 108.973  12
   1  -6  13 949.727 98.0418  13
  -1   6 -13 777.808 107.327   7
  -1   6 -14 9.18167 68.4267  12
   1  -6  14 6.50436 55.4621  13
  -1   6 -14 36.3319 66.4490   7
  -1   6 -15 73.0213 71.6543   7
  -1   6 -15 63.9282 76.7976  12
  -1   5  14-7.07207 63.5638   3
  -1   5  13 510.251 83.8345   3
   1  -5 -13 437.586 93.0112  14
   1  -5 -12 3615.79 209.554  14
  -1   5  12 3861.81 193.944   3
   1  -5 -11 3320.90 199.121  14
  -1   5  11 3608.14 165.653   8
  -1   5  11 3225.53 175.500   3
   1  -5 -10 61.2626 58.6065  14
  -1   5  10-11.7833 49.5356   3
  -1   5  10 11.1535 39.1855  11
  -1   5  10 26.0692 48.5891   8
  -1   5   9 6530.04 199.847   1
  -1   5   9 6677.38 238.383  13
   1  -5  -9 6731.86 265.187  14
  -1   5   9 6640.28 211.785  11
   1  -5  -9 6424.49 204.825   4
  -1   5   9 6212.85 235.317   3
  -1   5   9 6646.77 243.801   8
  -1   5   8 17913.1 479.141   1
   1  -5  -8 18584.5 534.265  14
  -1   5   8 19156.8 509.838  13
  -1   5   8 17834.4 474.109  11
  -1   5   8 18292.6 503.273   3
   1  -5  -8 19066.3 472.022   4
  -1   5   8 19235.2 529.303   8
   1  -5  -7 5776.17 216.341  14
  -1   5   7 5652.24 197.940  13
   1  -5  -7 5113.01 220.107   6
  -1   5   7 5295.06 170.952  11
   1  -5  -7 5854.40 173.654   4
  -1   5   7 5732.62 192.641   3
  -1   5   7 5777.75 222.171   8
   1  -5  -7 5449.33 195.088   7
   1  -5  -6 1146.77 81.4574  14
  -1   5   6 1283.28 77.7293  13
  -1   5   6 1208.89 60.4541  11
   1  -5  -6 1196.41 60.2420   4
  -1   5   6 1194.60 67.6899   3
  -1   5   6 1057.22 90.2058   8
   1  -5  -6 1107.29 72.6601   7
   1  -5  -5 3818.07 128.975   3
   1  -5  -5 3884.40 150.103  14
  -1   5   5 3562.48 137.273  13
   1  -5  -5 3474.25 149.355   6
  -1   5   5 3529.63 116.619  11
  -1   5   5 3398.29 123.496   3
   1  -5  -5 3784.87 136.414   7
   1  -5  -4 3841.22 145.382  14
  -1   5   4 3865.46 137.919  13
   1  -5  -4 3872.07 134.092   7
   1  -5  -4 3757.29 122.701   3
  -1   5   4 3625.77 121.791   3
  -1   5   4 3795.76 118.423  11
  -1   5   3 16967.5 432.418  13
   1  -5  -3 17625.6 427.851   7
   1  -5  -3 17959.8 415.455   3
  -1   5   3 16781.0 413.154   3
  -1   5   3 17828.1 413.318  11
   1  -5  -3 17678.6 409.213  11
  -1   5   2 17521.9 438.982  13
   1  -5  -2 16757.6 415.985  11
  -1   5   2 17541.6 420.231  11
   1  -5  -2 16644.2 428.709   7
   1  -5  -2 17404.1 418.114   3
   1  -5  -1 641.844 42.5621   7
  -1   5   1 640.794 45.4056  13
   1  -5  -1 664.402 43.7302   6
  -1   5   1 565.828 41.8857   6
   1  -5  -1 612.316 35.8695  11
  -1   5   1 719.208 40.0727  11
   1  -5  -1 642.780 43.3194  12
  -1   5   1 617.007 31.8371   9
   1  -5  -1 633.942 35.6397   3
   1  -5   0 40573.0 1008.01  14
  -1   5   0 41394.7 1008.99  13
  -1   5   0 44216.6 1002.80   6
   1  -5   0 42946.1 1000.40   6
   1  -5   0 42363.2 1000.28  12
  -1   5   0 43445.2 998.002  11
   1  -5   0 41061.2 992.914  11
  -1   5   0 43017.4 972.325   9
   1  -5   0 45045.5 1003.56   7
  -1   5  -1 53629.5 1266.96  11
   1  -5   1 56318.9 1266.51  12
   1  -5   1 54591.1 1263.34  11
   1  -5   1 54371.9 1262.03   6
  -1   5  -1 55233.2 1264.10   6
   1  -5   1 54277.4 1266.95   7
  -1   5  -1 53584.3 1274.95  13
  -1   5  -2 208.156 26.0791  11
   1  -5   2 163.394 24.1915  12
  -1   5  -2 190.141 22.1089   6
   1  -5   2 211.111 23.7888   6
  -1   5  -2 195.236 28.0588  13
   1  -5   2 217.166 26.3890   7
   1  -5   3 48483.0 1120.90   6
  -1   5  -3 47725.9 1124.11   6
   1  -5   3 49023.6 1136.39   7
   1  -5   3 49156.0 1132.04  12
   1  -5   4 22909.1 228.085  12
  -1   5  -4 22105.1 198.052   6
  -1   5  -5 2588.56 91.9650   6
  -1   5  -5 2512.48 104.102  13
   1  -5   5 2648.86 100.907  12
   1  -5   6 415.441 41.6762  12
   1  -5   6 373.646 44.3578  13
  -1   5  -6 408.873 36.2564   6
   1  -5   6 434.833 47.2005  11
  -1   5  -6 317.627 42.0935  12
  -1   5  -6 396.218 41.4474  13
  -1   5  -6 464.285 33.5995   8
  -1   5  -6 435.846 46.9889   7
   1  -5   7 87.8095 30.0757  12
   1  -5   7 4.33881 28.9351  11
  -1   5  -7 29.3525 26.6025  12
  -1   5  -7 43.8681 22.1952   6
  -1   5  -7 39.6510 11.5063   8
  -1   5  -7 24.3756 28.0024   7
  -1   5  -7 78.1635 33.5575  13
   1  -5   7 33.3584 30.2292  13
  -1   5  -8 5637.04 208.475  12
   1  -5   8 5606.67 197.199  12
   1  -5   8 6145.71 220.369  13
   1  -5   8 5413.12 215.930  11
  -1   5  -8 5710.15 213.824   7
  -1   5  -8 6026.85 222.257   5
  -1   5  -9 21258.7 521.048   5
  -1   5  -9 19636.9 471.248   1
   1  -5   9 20427.6 507.946  14
   1  -5   9 21895.3 532.980  13
  -1   5  -9 20039.7 510.363  12
   1  -5   9 19093.5 525.532  11
  -1   5  -9 20908.0 525.015   7
  -1   5 -10 11496.9 372.102   7
  -1   5 -10 10587.7 328.851   6
  -1   5 -10 11344.1 353.726   5
  -1   5 -10 10753.1 358.472  12
  -1   5 -10 10811.6 305.349   1
  -1   5 -11 1800.73 132.094   7
  -1   5 -11 1942.14 133.806  12
   1  -5  11 1815.55 127.010  13
  -1   5 -11 1751.62 80.3914   1
  -1   5 -12 11925.1 398.020   7
   1  -5  12 12150.9 367.194  13
  -1   5 -12 10491.8 376.943  12
  -1   5 -12 9733.28 255.681   1
  -1   5 -13 4830.31 235.006   7
   1  -5  13 4456.65 207.730  13
  -1   5 -13 4418.44 231.271  12
  -1   5 -14 226.490 86.6091  12
  -1   5 -14 373.230 84.0006   7
   1  -5  14 261.240 64.0173  13
  -1   5 -15 102.555 73.4499  12
  -1   5 -15 194.241 75.9771   7
  -1   4  15 786.128 104.807   3
   1  -4 -14 7.74081 58.7282  12
  -1   4  14 65.2534 65.1669   3
   1  -4 -14-26.0873 64.2134  14
  -1   4  13 909.494 97.3046   3
   1  -4 -13 789.717 104.131  14
  -1   4  12 886.676 93.2050   3
   1  -4 -12 743.005 102.383  14
   1  -4 -11 3381.60 193.957  14
  -1   4  11 3741.76 151.874  11
  -1   4  11 3410.95 176.866   3
  -1   4  11 3483.79 155.302   8
  -1   4  10 3174.29 142.432  13
   1  -4 -10 2830.40 172.104  14
  -1   4  10 3175.45 135.514  11
  -1   4  10 2866.05 157.831   3
  -1   4  10 2893.90 140.010   8
  -1   4   9 1545.37 69.8631   1
   1  -4  -9 1544.79 117.883  14
  -1   4   9 1668.82 99.7538  13
  -1   4   9 1643.54 87.7129  11
  -1   4   9 1530.64 108.383   3
   1  -4  -9 1424.76 84.6094   4
  -1   4   9 1586.14 99.4922   8
  -1   4   8 16964.1 450.422   1
   1  -4  -8 17702.2 515.725  14
  -1   4   8 19498.1 526.939  14
  -1   4   8 18591.9 487.689  13
   1  -4  -8 18345.1 522.920   6
  -1   4   8 18855.1 465.156  11
  -1   4   8 17056.3 495.292   3
   1  -4  -8 18462.6 464.258   4
  -1   4   8 17295.9 496.196   8
  -1   4   7 20991.3 536.034   1
   1  -4  -7 22497.2 584.567  14
  -1   4   7 21760.5 581.284  14
  -1   4   7 21851.7 554.933  13
   1  -4  -7 20874.4 597.701   6
  -1   4   7 21993.9 531.604  11
   1  -4  -7 21542.2 533.382   4
  -1   4   7 20609.8 558.478   3
  -1   4   7 20737.1 573.849   8
  -1   4   6 2547.72 119.411  14
   1  -4  -6 2424.27 117.526  14
  -1   4   6 2476.03 106.005  13
   1  -4  -6 2516.22 129.791   6
  -1   4   6 2456.33 90.9237  11
   1  -4  -6 2452.47 93.4397   4
  -1   4   6 2577.03 109.749   3
  -1   4   6 2723.17 129.933   8
  -1   4   5 19013.1 488.780  14
  -1   4   5 18976.1 473.266  13
   1  -4  -5 18212.3 497.683   6
  -1   4   5 17709.5 449.614  11
  -1   4   5 18459.7 468.396   3
   1  -4  -5 18682.5 457.281   4
   1  -4  -5 19600.6 472.352   3
  -1   4   4 14388.1 381.482  14
  -1   4   4 15000.8 374.101  13
   1  -4  -4 13926.5 388.534   6
   1  -4  -4 15305.8 366.624   3
  -1   4   4 15400.3 367.658   3
   1  -4  -4 14774.2 373.224   7
  -1   4   3 6965.10 201.626  14
  -1   4   3 6586.77 194.173  13
  -1   4   3 6769.61 164.303   5
  -1   4   3 6969.99 179.123  11
   1  -4  -3 6842.67 176.034  11
   1  -4  -3 7195.12 187.821   3
  -1   4   3 6572.70 185.180   3
   1  -4  -3 6775.39 194.225   7
  -1   4   2 7555.56 207.630  14
  -1   4   2 7255.13 204.182  13
   1  -4  -2 7316.78 188.053  11
  -1   4   2 7406.81 190.233  11
   1  -4  -2 7694.82 203.332   7
   1  -4  -2 7593.07 194.656   3
  -1   4   2 6966.69 188.578   5
   1  -4  -1 963.618 46.9246   7
  -1   4   1 920.810 48.4900  13
  -1   4   1 931.656 47.7718   6
   1  -4  -1 954.371 40.7322  11
  -1   4   1 862.831 40.5588  11
  -1   4   1 930.296 37.8552   9
   1  -4  -1 929.824 41.0060   3
   1  -4   0 8466.55 242.910  13
  -1   4   0 9609.16 247.486  13
  -1   4   0 9095.43 238.375   6
   1  -4   0 9371.21 238.814   6
  -1   4   0 9515.66 237.622  11
   1  -4   0 9264.80 240.583  12
   1  -4   0 9171.66 234.006  11
  -1   4   0 9279.71 219.848   9
   1  -4   0 9444.68 241.947   7
  -1   4  -1 40667.0 877.988  11
   1  -4   1 39338.0 876.079  12
   1  -4   1 36578.2 867.100   6
  -1   4  -1 36749.5 868.451   6
  -1   4  -1 36821.8 880.891  13
   1  -4   1 38141.8 876.570   7
  -1   4  -1 34715.1 875.391   7
   1  -4   2 33647.9 768.865   6
   1  -4   2 34634.1 783.129   7
  -1   4  -2 35054.8 786.900   7
  -1   4  -2 35853.0 789.834  13
   1  -4   2 35512.3 781.473  12
   1  -4   3 3377.35 116.520  11
   1  -4   3 3668.34 114.866   7
   1  -4   3 3692.77 123.109  13
   1  -4   3 3864.10 113.815  12
   1  -4   3 3622.89 100.309   6
   1  -4   4 58709.9 1365.99   7
   1  -4   4 60738.0 1378.71  13
   1  -4   4 59652.0 1363.25  12
  -1   4  -4 57364.3 1347.92   6
   1  -4   5 23799.8 590.500  12
  -1   4  -5 23784.9 575.986   6
  -1   4  -5 23442.5 593.702  13
  -1   4  -5 24872.0 569.115   8
   1  -4   6 211.990 37.4522  11
   1  -4   6 196.439 29.8484  12
  -1   4  -6 168.299 11.6566   8
  -1   4  -6 113.175 21.8616   6
  -1   4  -7 2434.33 119.365   7
  -1   4  -7 2774.69 130.626   5
   1  -4   7 2680.96 113.666  12
   1  -4   7 2596.57 122.777  13
  -1   4  -8 5733.84 199.262   5
   1  -4   8 5272.19 198.278  13
   1  -4   8 5302.67 189.900  14
  -1   4  -8 4884.56 192.113   7
  -1   4  -8 5436.15 163.090   1
   1  -4   9 5130.55 206.029  14
   1  -4   9 5844.90 222.875  13
  -1   4  -9 5091.05 162.408   1
  -1   4  -9 5727.39 208.338   5
  -1   4  -9 5474.07 217.510   7
   1  -4  10 3904.24 176.527  13
  -1   4 -10 3623.92 114.783   1
   1  -4  10 3334.58 160.680  11
  -1   4 -10 3810.89 164.307   5
  -1   4 -10 3357.64 174.217   7
   1  -4  11 1038.38 89.2227  13
  -1   4 -11 1270.67 94.2808   5
   1  -4  11 1262.70 100.074   4
  -1   4 -11 1258.48 112.240   7
   1  -4  11 972.129 41.9268   2
   1  -4  12 2382.99 136.491  13
  -1   4 -12 2232.51 152.858   7
  -1   4 -13 9482.29 364.529  12
  -1   4 -13 10164.3 367.168   7
   1  -4  14 2733.69 148.997  13
  -1   4 -14 2447.84 163.219   7
   1  -4  15 69.0439 70.4849   3
  -1   4 -15 111.314 65.9157   7
  -1   4 -15 81.7778 68.7830  12
  -1   3  16 1490.99 136.771   3
  -1   3  15 2650.62 171.519   3
   1  -3 -15 2847.28 176.067  12
   1  -3 -14 684.596 94.9951  12
   1  -3 -14 565.296 95.1437  14
  -1   3  14 594.510 90.7768   3
   1  -3 -13 961.745 107.186  14
  -1   3  13 1170.31 108.295   3
   1  -3 -12 3702.26 199.564  14
  -1   3  12 3809.37 188.614   3
   1  -3 -11 1019.43 105.342  14
  -1   3  11 1007.69 77.4245   8
  -1   3  11 1279.07 106.809   3
   1  -3 -10 2059.88 136.523  14
  -1   3  10 1823.82 124.676   3
  -1   3  10 2103.58 106.522   8
  -1   3   9 290.856 59.5160  14
   1  -3  -9 161.310 54.2364  14
  -1   3   9 351.583 46.9265   8
   1  -3  -9 276.900 20.1377   2
  -1   3   9 307.176 22.0976   1
  -1   3   9 230.175 54.6188   3
   1  -3  -8 2410.49 133.135  14
  -1   3   8 2214.35 128.906  14
   1  -3  -8 2302.55 102.116   4
  -1   3   8 2088.52 118.433   3
  -1   3   8 2312.20 111.916   8
  -1   3   8 2267.76 79.5337   1
   1  -3  -7 19277.2 520.581  14
  -1   3   7 19498.1 520.773  14
  -1   3   7 18332.1 461.718   1
   1  -3  -7 19410.4 479.111   4
  -1   3   7 18869.3 506.456   3
  -1   3   7 18150.0 498.776   8
  -1   3   6 17891.2 465.055  14
   1  -3  -6 17785.3 464.771  14
  -1   3   6 17469.1 420.723  11
  -1   3   6 16910.8 457.582   8
   1  -3  -6 18055.7 432.200   4
  -1   3   6 17106.8 450.634   3
   1  -3  -5 116.889 21.8115   4
  -1   3   5 113.508 28.0140  14
  -1   3   5 135.904 23.4526  13
  -1   3   5 104.690 23.4807   3
  -1   3   5 99.7756 17.1585  11
  -1   3   5 56.8888 24.8649   8
   1  -3  -4 55517.2 1226.61   3
  -1   3   4 54405.5 1240.67  14
  -1   3   4 53723.4 1222.94  13
  -1   3   4 49987.3 1205.06  11
  -1   3   4 53384.4 1227.93   3
  -1   3   4 52460.4 1264.00   8
  -1   3   3 48268.6 1143.49  14
  -1   3   3 48508.4 1133.66  13
   1  -3  -3 45758.0 1148.49   6
  -1   3   3 50977.5 1117.50  11
   1  -3  -3 51095.9 1134.69   3
  -1   3   3 46293.9 1132.16   3
   1  -3  -3 49548.4 1137.51   7
  -1   3   2 468.341 32.1058  14
  -1   3   2 485.072 30.4001  13
  -1   3   2 510.501 21.5717   5
   1  -3  -2 452.792 21.8619  11
  -1   3   2 446.471 22.1837  11
   1  -3  -2 512.933 31.9344   7
   1  -3  -2 488.046 28.1147   3
  -1   3   2 485.032 28.3080   3
   1  -3  -1 4001.56 112.011   3
  -1   3   1 4118.03 119.516  14
  -1   3   1 4177.53 118.110  13
   1  -3  -1 4173.05 106.755  11
  -1   3   1 3791.66 106.610  11
  -1   3   1 4156.16 108.731   9
  -1   3   1 4102.92 117.668   7
   1  -3  -1 4311.10 117.330   7
   1  -3   0 1272.24 48.8690   7
  -1   3   0 1097.19 46.8196   7
   1  -3   0 1107.55 48.3004  13
  -1   3   0 1116.43 48.3277  13
  -1   3   0 1173.80 44.4754   6
   1  -3   0 1118.25 46.7101  12
  -1   3   0 1097.02 43.4209  11
   1  -3   0 1142.51 36.7354   9
  -1   3   0 1267.71 37.3711   9
  -1   3   0 1195.00 58.0167   5
  -1   3  -1 12800.3 324.485  12
  -1   3  -1 14004.8 315.840   6
   1  -3   1 12379.0 314.615   6
   1  -3   1 13600.5 324.971   7
   1  -3   1 13210.4 323.882  12
  -1   3  -1 13728.2 328.703  13
  -1   3  -2 33912.2 780.491  12
   1  -3   2 37020.1 779.919  12
   1  -3   2 31567.4 762.896   6
  -1   3  -2 34111.9 764.983   6
   1  -3   2 30539.3 779.994  11
  -1   3  -2 34664.0 784.425  13
   1  -3   2 33254.9 778.786   7
   1  -3   3 16536.1 410.525   7
  -1   3  -3 16332.6 404.462   8
  -1   3  -3 15509.0 410.226  12
   1  -3   3 17357.0 410.708  12
   1  -3   3 18055.1 422.008  13
  -1   3  -3 16971.1 395.032   6
   1  -3   4 3155.11 112.933  13
  -1   3  -4 2997.50 84.1895   8
  -1   3  -4 2994.42 107.044  12
   1  -3   4 3308.37 106.183  12
   1  -3   5 63006.2 1500.41  13
  -1   3  -5 61979.4 1492.36  12
   1  -3   5 66683.7 1488.62  12
  -1   3  -6 24246.6 559.640   1
  -1   3  -6 23633.7 592.208   5
   1  -3   6 21306.2 532.753  10
  -1   3  -6 22144.0 578.094  12
   1  -3   6 24908.0 577.449  12
  -1   3  -7 1444.96 84.8255   5
  -1   3  -7 1104.65 77.0351  12
  -1   3  -7 1171.54 58.6493   1
   1  -3   7 1371.05 83.2290  14
   1  -3   7 1260.03 47.8207  10
  -1   3  -7 1299.67 83.6382   7
   1  -3   8 9980.36 316.270  14
  -1   3  -8 10373.3 309.477   5
  -1   3  -8 9813.99 319.188   7
  -1   3  -8 10011.1 262.515   1
   1  -3   9 3230.03 156.548  14
   1  -3   9 3366.61 153.408  13
  -1   3  -9 3525.91 145.776   5
  -1   3  -9 3340.16 162.307   7
  -1   3  -9 3334.92 94.4377   1
   1  -3   9 2988.16 96.7256   2
   1  -3  10 1589.00 102.561  13
  -1   3 -10 1481.42 112.578   7
  -1   3 -10 1744.32 102.425   5
   1  -3  10 1579.84 104.670   4
   1  -3  11 1161.41 89.1889  13
  -1   3 -11 1110.61 85.1593   5
   1  -3  11 1167.76 89.0258   4
  -1   3 -11 862.482 92.1566   7
   1  -3  12 48.9156 42.5760   4
  -1   3 -12 44.3370 46.3078   5
   1  -3  12 14.7725 46.9493  13
  -1   3 -12 26.5742 48.6082   7
  -1   3 -13 2388.98 149.558   7
   1  -3  13 2462.59 134.655  13
  -1   3 -14 4658.61 218.527   7
   1  -3  14 4139.00 184.397  13
  -1   3 -15 913.176 108.180   7
   1  -3  15 1073.69 119.451   3
  -1   2  16 426.081 98.5820   3
   1  -2 -15 3529.24 196.934  12
  -1   2  15 3261.50 191.313   3
   1  -2 -14 2207.98 148.186  12
  -1   2  14 2183.95 153.330   3
   1  -2 -13 74.4793 61.2361  12
  -1   2  13-35.0883 63.8588   3
  -1   2  12 3579.68 184.099   3
   1  -2 -11 10685.8 369.977  14
   1  -2 -11 10738.8 299.408  10
  -1   2  11 11098.1 312.965   8
  -1   2  11 10997.2 365.683   3
   1  -2 -10 1190.68 51.0831   5
   1  -2 -10 1113.47 99.7999  14
  -1   2  10 1118.52 72.0784   8
  -1   2  10 1132.06 97.3490   3
   1  -2  -9 1877.27 67.2539   5
  -1   2   9 1854.03 117.666   3
  -1   2   9 1896.85 93.4193   8
  -1   2   9 1790.67 119.733  14
   1  -2  -9 1912.42 121.816  14
  -1   2   8 124.460 39.0984   3
  -1   2   8 171.708 46.9847  14
   1  -2  -8 83.7866 40.5742  14
   1  -2  -8 132.694 17.3181   5
  -1   2   8 108.174 30.4020   8
   1  -2  -7 6671.21 171.523   2
  -1   2   7 6593.89 171.358   1
   1  -2  -7 6319.37 170.299   5
   1  -2  -7 7000.31 236.711  14
  -1   2   7 6646.11 233.579  14
   1  -2  -7 6289.04 202.891   4
  -1   2   7 6417.71 224.984   3
  -1   2   7 7105.69 210.903   8
  -1   2   6 20931.5 502.471   1
   1  -2  -6 20193.6 488.925   5
  -1   2   6 20821.9 543.174   3
   1  -2  -6 22669.1 526.090   4
  -1   2   6 21957.6 538.356   8
  -1   2   6 21417.2 552.686  14
  -1   2   5 6942.45 186.916   1
   1  -2  -5 6867.41 166.417   5
  -1   2   5 6984.45 206.546   3
   1  -2  -5 6639.27 194.086   4
  -1   2   5 6501.13 209.129   8
  -1   2   5 6939.69 212.817  14
   1  -2  -4 4013.38 124.251   3
  -1   2   4 4109.59 121.397   1
  -1   2   4 3842.05 129.010  14
   1  -2  -4 3774.98 128.259  14
   1  -2  -4 3647.29 115.948   4
  -1   2   4 3910.38 138.198   8
  -1   2   3 48477.1 1100.13   1
  -1   2   3 47353.0 1095.76  14
   1  -2  -3 48545.5 1097.10  14
  -1   2   3 47006.0 1067.72  11
  -1   2   3 46392.3 1078.90  13
   1  -2  -3 46462.8 1087.63   3
  -1   2   3 46225.8 1120.23   8
   1  -2  -2 84594.1 1946.42  14
  -1   2   2 90702.4 1946.13  14
  -1   2   2 89062.3 1936.37  13
   1  -2  -2 86028.4 1923.42  11
  -1   2   2 83289.8 1924.06  11
  -1   2   2 85920.0 1983.36   8
   1  -2  -2 87117.5 1941.42   3
   1  -2  -2 82768.6 1930.08   5
   1  -2  -1 4433.90 119.289   3
   1  -2  -1 4649.97 122.542  14
  -1   2   1 4361.02 121.312  14
  -1   2   1 4493.08 118.522  13
  -1   2   1 4354.59 114.992   5
  -1   2   1 4502.70 109.779  11
   1  -2  -1 4558.90 116.467   9
  -1   2   1 4282.04 150.120   8
   1  -2  -1 4515.31 120.319   7
   1  -2   0 22405.1 513.052  13
  -1   2   0 22683.1 513.397  13
  -1   2   0 22288.2 535.647   8
   1  -2   0 24044.3 513.547   7
   1  -2   0 22103.5 512.874  12
   1  -2   0 20561.6 504.353   9
  -1   2   0 20456.6 517.880   5
  -1   2  -1 7971.75 207.286  13
  -1   2  -1 7799.48 221.125   5
   1  -2   1 8070.23 204.062   7
  -1   2  -2 1907.70 67.3765  13
   1  -2   2 1712.78 61.8610  12
  -1   2  -2 1846.69 49.9474   6
  -1   2  -2 1975.69 57.8648   8
   1  -2   2 1705.57 61.8357   7
  -1   2  -2 1734.91 81.5156   5
   1  -2   3 7535.79 195.668  13
   1  -2   3 6985.91 185.034  12
  -1   2  -3 7220.77 194.161   1
  -1   2  -3 7188.97 187.863   7
   1  -2   4 144.016 22.6605  12
  -1   2  -4 61.5265 16.2597   1
  -1   2  -4 116.677 19.3143   7
   1  -2   4 97.4081 20.7362  13
  -1   2  -5 4276.12 152.300   5
   1  -2   5 4354.15 143.366  12
  -1   2  -5 4107.85 124.398   1
   1  -2   5 4108.78 149.406  13
   1  -2   5 4424.05 148.317  14
   1  -2   5 3947.09 116.303  10
  -1   2  -5 4265.29 144.617   7
  -1   2  -6 38627.7 878.902   1
   1  -2   6 39214.8 929.994  14
   1  -2   6 39009.4 933.599  13
   1  -2   6 36728.0 876.301  10
  -1   2  -6 36842.6 920.080   5
   1  -2   7 14751.8 424.468  14
  -1   2  -7 15518.4 408.937   5
  -1   2  -7 15103.0 355.816   1
   1  -2   7 14538.7 359.287   2
  -1   2  -7 14599.1 420.346  12
  -1   2  -8 5427.30 209.551  12
   1  -2   8 5119.87 190.306  13
   1  -2   8 4987.07 204.506  14
  -1   2  -8 5226.35 183.990   5
  -1   2  -9 18864.1 535.531  12
   1  -2   9 19194.7 508.475   4
  -1   2  -9 18632.3 499.038   5
   1  -2   9 17925.0 505.686  13
   1  -2   9 19253.6 537.444  14
  -1   2 -10 8087.42 294.636  12
   1  -2  10 8881.41 274.840   4
   1  -2  10 8461.98 275.402  13
  -1   2 -10 8599.61 270.572   5
  -1   2 -11 1086.28 94.9131  12
  -1   2 -11 1029.91 77.5987   5
   1  -2  11 882.603 73.4136   4
   1  -2  11 997.039 81.5822  13
  -1   2 -12 277.703 64.2979  12
  -1   2 -12 275.812 63.4980   7
  -1   2 -12 381.633 55.0294   5
   1  -2  12 287.828 51.9150   4
   1  -2  12 321.354 56.1782  13
  -1   2 -13 394.780 75.4479  12
  -1   2 -13 608.629 81.5143   7
   1  -2  13 508.472 69.1167  13
   1  -2  14 1738.49 140.332   3
  -1   2 -14 1493.30 124.171  12
   1  -2  14 1522.00 106.710  13
  -1   2 -14 1560.41 125.058   7
  -1   2 -15 3083.43 179.433  12
   1  -2  15 2716.33 180.444   3
  -1   2 -15 2927.83 173.752   7
  -1   1  16 157.427 81.2298   3
  -1   1  15 848.772 106.557   3
  -1   1  14 4528.16 221.344   3
  -1   1  13 1220.91 111.881   3
  -1   1  12 1418.37 81.1055  13
  -1   1  12 1421.48 116.796   3
   1  -1 -12 1405.63 71.2919   5
  -1   1  11 11932.7 324.459   8
   1  -1 -11 11755.5 300.857  10
  -1   1  11 11574.2 385.312   3
   1  -1 -11 12639.0 319.203   5
  -1   1  10 9851.07 328.555  14
   1  -1 -10 9673.43 258.252  10
  -1   1  10 9904.32 277.213   8
  -1   1  10 9576.71 292.193   4
  -1   1  10 9691.52 330.005   3
   1  -1 -10 10242.5 267.625   5
  -1   1   9 927.183 81.1203  14
  -1   1   9 789.367 77.0414   3
  -1   1   9 766.721 62.4567   4
  -1   1   9 809.830 56.5353   8
  -1   1   8 11178.8 349.033  14
  -1   1   8 10790.3 321.161   4
   1  -1  -8 12255.9 298.846   5
  -1   1   8 9944.73 345.028   3
  -1   1   8 11827.5 312.508   8
  -1   1   7 7772.34 258.581  14
  -1   1   7 8028.71 227.510   8
   1  -1  -7 7089.37 237.615   4
  -1   1   7 7718.76 260.047   3
  -1   1   7 7935.96 237.328   4
  -1   1   6 2279.45 108.492  14
  -1   1   6 2080.54 93.0509   4
   1  -1  -6 2059.88 92.2194   4
  -1   1   6 2089.44 88.5277   8
   1  -1  -6 1958.41 63.7022   2
  -1   1   5 10068.1 285.041  14
  -1   1   5 10181.2 273.384   4
   1  -1  -5 10208.1 271.462   4
  -1   1   5 9509.25 243.456   1
   1  -1  -5 10581.7 247.104   2
  -1   1   4 5891.31 177.004  14
  -1   1   4 5796.01 169.588   4
   1  -1  -4 6158.30 171.296   4
  -1   1   4 5946.84 183.156   8
   1  -1  -4 5619.60 175.159   8
  -1   1   4 5855.00 157.504   1
   1  -1  -4 6020.78 159.410   2
  -1   1   3 16762.5 389.257  14
   1  -1  -3 13458.3 383.361  14
  -1   1   3 17399.0 386.958   1
   1  -1  -3 16018.0 385.418   1
  -1   1   3 17566.7 408.336   8
  -1   1   3 14082.4 384.726   3
   1  -1  -3 16007.6 384.993   4
   1  -1  -3 16035.0 386.248   3
  -1   1   2 48670.0 1073.28   3
   1  -1  -2 46588.8 1071.03   4
  -1   1   2 48400.1 1056.31  13
  -1   1   2 47850.4 1085.34   1
   1  -1  -2 42151.1 1068.14  14
  -1   1   2 49373.8 1070.97  14
  -1   1   2 48574.3 1071.84   9
   1  -1  -2 40476.5 1078.27   8
  -1   1   2 44780.4 1085.35   8
  -1   1   1 40782.9 928.195   3
   1  -1  -1 43718.9 950.646   1
  -1   1   1 39958.8 951.997   1
  -1   1   1 41725.5 919.725  13
  -1   1   1 41830.0 923.806  14
  -1   1   1 42757.1 926.834   9
  -1   1   1 39592.6 938.107   8
   1  -1  -1 42194.6 924.916   7
  -1   1   0 5605.20 160.404   1
   1  -1   0 5079.64 135.332  13
  -1   1   0 5435.32 136.594  13
   1  -1   0 5545.83 137.957   5
  -1   1   0 5496.78 137.224   5
   1  -1   0 5126.32 132.746  12
  -1   1   0 5613.21 140.555   8
   1  -1   0 5543.71 140.928   8
   1  -1   0 5056.63 131.815   7
  -1   1   0 5685.50 133.047   7
   1  -1   1 82876.7 1830.06  12
   1  -1   1 80542.3 1851.18   1
  -1   1  -1 79939.0 1839.10   5
   1  -1   1 77116.8 1828.84   8
  -1   1  -1 83509.9 1828.70   7
   1  -1   2 10326.5 259.183   1
  -1   1  -2 10268.2 250.120   7
   1  -1   2 9721.25 251.693  12
   1  -1   2 10327.0 259.932   5
   1  -1   3 338.655 29.7395  14
  -1   1  -3 279.577 22.4973   1
   1  -1   3 380.530 25.3784   1
   1  -1   3 313.654 27.0836  12
   1  -1   3 290.713 22.0320  10
   1  -1   3 343.205 29.2755   5
   1  -1   4 574.819 31.1579   2
  -1   1  -4 600.741 30.2594   1
   1  -1   4 643.796 35.0409  10
   1  -1   4 652.893 47.5253  14
  -1   1  -4 621.728 49.1951   5
   1  -1   5 1774.47 60.0719   2
  -1   1  -5 1851.16 88.2221   5
   1  -1   5 1912.94 94.3570  14
   1  -1   6 8607.39 217.076   2
  -1   1  -6 9077.05 263.763   5
   1  -1   6 9239.37 287.543  14
   1  -1   6 9301.13 217.025   8
  -1   1  -7 14121.7 370.611   5
  -1   1  -7 14146.1 398.090  12
   1  -1   7 13202.1 316.165   8
   1  -1   7 14306.1 370.541   4
   1  -1   8 4256.12 179.995  14
  -1   1  -8 4307.31 177.445  12
   1  -1   8 4102.07 107.073   8
   1  -1   8 4224.58 153.279   4
  -1   1  -9 8585.32 291.277  12
   1  -1   9 8959.12 262.953   4
   1  -1   9 8160.59 290.589  14
   1  -1   9 8227.70 268.306  13
  -1   1  -9 9129.22 265.359   5
  -1   1 -10 17793.9 524.143  12
   1  -1  10 18625.7 488.393   4
   1  -1  10 18282.2 501.373  13
  -1   1 -10 18929.5 490.444   5
  -1   1 -11 4024.44 187.666  12
  -1   1 -11 4219.26 161.117   5
   1  -1  11 4181.41 160.174   4
   1  -1  11 4421.30 174.054  13
  -1   1 -12 170.058 56.3154  12
   1  -1  12 84.6202 38.8630   4
  -1   1 -12 131.931 40.9254   5
   1  -1  12 103.173 48.8278  13
   1  -1  13 1128.30 110.425   3
  -1   1 -13 1223.39 105.710  12
   1  -1  13 887.328 81.9223  13
  -1   1 -14 2354.35 152.805  12
   1  -1  14 2404.29 158.904   3
   1  -1  15 1037.49 115.436   3
  -1   1 -15 794.960 98.8281   7
  -1   1 -15 796.294 98.3038  12
   1  -1  16 316.256 91.3813   3
   1   0 -16 914.804 111.663  12
  -1   0  16 802.022 100.874   9
  -1   0  16 908.977 115.750   3
   1   0 -15 3068.49 177.871  12
  -1   0  15 3254.13 189.869   3
  -1   0  15 2963.94 173.835   9
   1   0 -14 966.583 102.634  12
  -1   0  14 986.635 106.324   3
  -1   0  13 671.749 90.5171   3
  -1   0  13 880.799 76.8035   4
  -1   0  12 579.268 55.4491  11
  -1   0  12 548.912 53.6576  13
   1   0 -12 652.974 54.7235   5
  -1   0  12 658.048 67.2948   4
  -1   0  12 535.369 75.7426   3
  -1   0  11 5455.94 200.838   4
  -1   0  11 5398.66 230.677   3
   1   0 -11 5969.99 187.006   5
  -1   0  10 21562.6 585.720  14
  -1   0  10 21706.8 538.151  13
   1   0 -10 21437.1 540.029   5
  -1   0  10 20805.3 559.845   4
  -1   0  10 20355.2 594.601   3
  -1   0   9 12362.4 305.795  13
  -1   0   9 11946.2 346.908  14
   1   0  -9 10237.9 259.132  10
  -1   0   9 12092.7 328.362   4
   1   0  -9 12058.5 308.375   5
  -1   0   9 9835.32 340.703   3
  -1   0   8 414.819 37.0008  13
  -1   0   8 557.897 57.9367  14
  -1   0   8 482.029 51.4943   4
  -1   0   8 355.381 34.3890   8
  -1   0   7 28929.1 678.376  13
  -1   0   7 29039.7 718.733  14
  -1   0   7 30095.0 707.638   4
  -1   0   6 20630.5 542.452   4
  -1   0   6 20850.5 551.088  14
   1   0  -6 21387.4 521.539   8
   1   0  -6 20744.9 496.111   1
   1   0  -5 1842.22 87.6819   4
  -1   0   5 2005.05 90.0719   4
   1   0  -5 1919.27 61.9108   1
  -1   0   5 1668.53 88.6245   3
  -1   0   5 1852.83 66.2186  13
  -1   0   5 1901.00 90.3596  14
  -1   0   5 1937.87 77.3251   8
   1   0  -5 1923.25 72.1296   8
   1   0  -4 139.180 21.9390   4
   1   0  -4 165.460 15.8844   1
   1   0  -4 164.695 16.8220   2
  -1   0   4 170.583 17.5984   2
  -1   0   4 164.099 25.7792   3
  -1   0   4 168.351 27.2534  14
  -1   0   4 151.377 13.2472  13
  -1   0   4 163.785 15.4773  11
  -1   0   4 223.474 23.1900   8
   1   0  -4 154.684 18.4068   8
  -1   0   3 271.065 15.8736  11
  -1   0   3 229.232 23.9669  14
  -1   0   3 209.709 19.1772   8
  -1   0   3 208.482 19.6052   9
  -1   0   3 188.830 22.1067   3
   1   0  -3 213.285 23.3026   4
   1   0  -2 8347.19 209.463   2
  -1   0   2 7485.71 185.713  11
  -1   0   2 7550.83 194.022  14
  -1   0   2 7684.99 195.859   9
   1   0  -2 8261.77 194.910   9
  -1   0   2 8078.60 204.396   4
  -1   0   2 8059.36 199.380   3
   1   0  -1 41857.7 912.325   3
  -1   0   1 39256.4 915.617   4
  -1   0   1 36153.4 910.886   3
   1   0  -1 41431.1 917.895   4
  -1   0   1 40189.6 907.265  11
  -1   0   1 43855.1 914.270   9
  -1   0   1 36356.2 930.670   2
  -1   0   0 5777.32 134.252   6
   1   0   0 6348.08 160.572   2
  -1   0   0 5973.34 159.686   2
  -1   0   0 5379.96 145.602  10
  -1   0   0 5126.07 129.755  12
   1   0   1 9185.15 213.223   5
  -1   0  -1 8446.58 207.394   6
  -1   0  -1 8735.40 225.573   2
  -1   0  -1 9083.26 224.743  10
  -1   0  -1 8850.98 212.446  12
  -1   0  -2 116588. 2867.63  12
  -1   0  -2 131555. 2864.99   2
   1   0   2 130636. 2858.82   5
  -1   0  -2 118282. 2852.25   6
  -1   0  -2 129939. 2874.51  10
  -1   0  -2 141102. 2882.03  14
  -1   0  -3 16423.0 410.353  14
  -1   0  -3 15618.0 397.898  12
   1   0   3 15793.9 372.346   1
   1   0   3 15232.3 374.456   2
  -1   0  -3 15364.9 375.267   2
  -1   0  -3 16082.0 377.608   6
  -1   0  -3 16301.4 384.630   5
  -1   0  -3 17179.9 397.724  10
  -1   0  -4 7891.34 230.621  14
  -1   0  -4 7520.04 226.795  12
   1   0   4 7404.53 183.765   1
  -1   0  -4 6739.41 201.210   6
  -1   0  -4 7249.55 206.554   5
  -1   0  -4 6736.23 206.809  10
   1   0   4 7282.44 199.991   5
  -1   0  -5 8962.51 271.215  14
  -1   0  -5 8634.08 264.036  12
   1   0   5 8616.99 235.021   4
  -1   0  -5 8715.97 250.757   5
  -1   0  -5 8907.19 244.104  10
   1   0   5 8608.09 214.023   1
  -1   0  -6 5659.96 181.153   5
  -1   0  -6 5384.30 192.339  12
  -1   0  -6 5194.13 166.334  10
   1   0   6 5605.24 164.345   4
  -1   0  -7 6900.19 211.900   5
  -1   0  -7 6778.21 231.791  12
  -1   0  -7 6425.85 198.568  10
   1   0   7 6995.74 198.936   4
   1   0   8 948.705 47.8153   8
  -1   0  -8 788.377 59.2109   5
  -1   0  -8 923.400 54.8208  10
   1   0   8 887.607 55.9967   4
  -1   0  -9 436.781 46.5255   5
  -1   0  -9 426.092 53.2371   6
  -1   0  -9 337.357 54.3224  12
   1   0   9 413.964 31.6263   8
   1   0   9 403.383 41.4643   4
  -1   0 -10 5514.23 198.453   6
  -1   0 -10 5330.33 181.423   5
   1   0  10 5627.12 179.503   4
   1   0  10 5223.87 149.799   8
  -1   0 -10 5218.91 213.405  12
  -1   0 -11 13140.2 364.448   5
  -1   0 -11 13263.1 388.003   6
   1   0  11 13532.7 360.103   4
  -1   0 -11 12634.8 408.001  12
   1   0  11 13287.5 416.915   3
   1   0  12 1171.35 91.9062  13
  -1   0 -12 1253.33 104.982  12
   1   0  12 1127.88 106.979   3
   1   0  13 1231.60 98.5832  13
   1   0  13 1376.36 116.328   3
  -1   0 -13 1346.10 112.435  12
  -1   0 -14 2592.86 161.745  12
   1   0  14 2549.87 164.219   3
  -1   0 -15 1295.20 119.962  12
   1   0  15 1214.78 121.970   3
   1   1 -16 164.299 71.2201  12
  -1  -1  16 37.6689 64.7107   9
  -1  -1  16 59.6388 72.6709   3
   1   1 -15 2670.62 163.256  12
  -1  -1  15 2971.22 183.118   3
  -1  -1  15 2798.51 165.346   9
  -1  -1  14 3034.17 179.593   3
   1   1 -14 3003.47 168.379  12
   1   1 -13 746.442 67.9009   5
  -1  -1  13 524.828 68.1936   4
  -1  -1  13 677.953 89.6200   3
   1   1 -13 687.828 82.2534  12
   1   1 -12 119.342 51.1099  12
  -1  -1  12 94.4012 35.6411  11
  -1  -1  12 73.6056 49.4448   3
   1   1 -12 63.2755 35.3707   5
  -1  -1  12 42.5387 40.6207   4
  -1  -1  12 96.8752 34.0810  13
   1   1 -11 524.408 55.5391   5
  -1  -1  11 449.222 57.5740   4
   1   1 -11 601.288 68.9065  12
  -1  -1  11 389.874 49.0919  11
   1   1 -10 4738.22 192.773  12
  -1  -1  10 4783.95 184.993   4
  -1  -1  10 4938.04 198.613  14
  -1  -1  10 4972.68 169.358  13
  -1  -1  10 4769.37 175.748  11
  -1  -1   9 14621.9 414.924   4
  -1  -1   9 14825.7 427.650  14
   1   1  -8 4777.50 190.811  12
  -1  -1   8 4878.56 206.058   3
   1   1  -8 5512.21 139.788   1
  -1  -1   8 5827.14 197.251   4
  -1  -1   8 5784.32 177.048  13
  -1  -1   8 5705.42 202.883  14
  -1  -1   7 8091.15 256.852  14
  -1  -1   7 8701.07 225.594  13
  -1  -1   7 7934.88 233.632  11
  -1  -1   7 8141.93 207.588   2
   1   1  -7 7872.41 203.487   1
  -1  -1   7 7696.69 265.407   3
  -1  -1   7 8181.36 252.286   4
   1   1  -7 7699.19 213.032   8
  -1  -1   6 45418.9 1046.64  14
  -1  -1   6 40941.4 998.859  13
  -1  -1   6 45400.5 1001.45   2
  -1  -1   6 41196.5 1059.27   3
  -1  -1   6 42525.0 1011.71  11
   1   1  -6 44141.3 998.044   8
  -1  -1   6 40764.2 1036.76   4
  -1  -1   5 40624.5 904.119  13
  -1  -1   5 39413.8 946.951  14
  -1  -1   5 39136.9 914.685  11
   1   1  -5 37564.4 906.710   8
  -1  -1   5 39261.8 917.379   2
  -1  -1   4 4977.45 124.805  13
  -1  -1   4 4903.14 150.393  14
   1   1  -4 4482.56 122.343  13
  -1  -1   4 5228.90 135.005  11
  -1  -1   4 4359.30 139.969   9
  -1  -1   4 4913.24 144.100   2
  -1  -1   4 4633.34 161.594   3
  -1  -1   3 24555.5 628.867   3
  -1  -1   3 26980.6 600.339  13
   1   1  -3 27208.0 599.240  13
  -1  -1   3 26075.9 616.004  14
  -1  -1   3 25813.1 607.320  11
  -1  -1   3 24067.4 611.139   9
   1   1  -3 25215.9 614.257  10
  -1  -1   3 26847.1 603.454  10
  -1  -1   3 25087.1 641.619   4
   1   1  -2 7637.54 214.407   4
  -1  -1   2 7654.70 209.483   4
  -1  -1   2 7482.57 179.862  13
  -1  -1   2 7688.02 184.631  11
  -1  -1   2 6883.50 183.633   9
   1   1  -2 7853.72 198.004  10
  -1  -1   2 6867.17 190.049   3
   1   1  -1 11470.7 267.954  11
  -1  -1   1 10808.4 263.354   3
  -1  -1   1 10583.0 279.031   4
  -1  -1   1 11180.5 281.931  10
  -1  -1   1 11570.3 270.117   6
  -1  -1   0 20375.8 480.559   6
   1   1   0 21255.3 481.384   6
  -1  -1   0 21041.4 472.128  14
   1   1   0 19477.7 480.092  11
  -1  -1   0 19636.7 502.303  10
  -1  -1   0 20499.8 476.956   4
   1   1   1 510.813 28.0026  11
  -1  -1  -1 576.088 41.4199  10
  -1  -1  -1 462.503 26.7862   6
  -1  -1  -1 605.483 30.1945  14
  -1  -1  -2 14713.9 359.967   6
  -1  -1  -2 14256.1 372.925  14
  -1  -1  -2 15442.4 393.683  10
  -1  -1  -2 15034.6 373.500   2
  -1  -1  -3 61421.7 1463.47   6
  -1  -1  -3 64311.7 1491.53  14
  -1  -1  -3 61408.9 1495.92  10
  -1  -1  -3 61642.0 1466.48   2
  -1  -1  -4 24073.1 608.128   2
  -1  -1  -4 25309.2 622.220   6
  -1  -1  -4 25177.0 650.325  14
  -1  -1  -4 24483.8 637.744  10
   1   1   4 26755.5 595.805   4
   1   1   4 26627.1 608.775   5
  -1  -1  -5 10886.2 294.781   6
   1   1   5 10612.5 274.633   5
  -1  -1  -5 10943.2 298.139  10
  -1  -1  -5 11088.6 265.202   2
   1   1   6 24921.7 571.129   1
  -1  -1  -6 23759.7 571.860   2
  -1  -1  -6 23266.6 637.844  14
  -1  -1  -6 24850.3 627.180   6
  -1  -1  -6 24729.9 613.262  10
   1   1   6 24801.4 581.227   4
   1   1   7 4090.89 102.385   1
  -1  -1  -7 3614.00 164.916  14
  -1  -1  -7 4044.43 161.705  12
  -1  -1  -7 3955.83 166.277   6
  -1  -1  -7 3714.06 141.059  10
   1   1   7 3949.15 122.272   4
  -1  -1  -8 297.913 51.2451  14
  -1  -1  -8 241.909 46.6789   6
  -1  -1  -8 222.402 44.7869  12
  -1  -1  -8 276.335 38.5452  10
   1   1   8 253.121 27.8253   4
   1   1   9 18.0204 20.7278   4
   1   1   9 63.5707 37.1064   3
  -1  -1  -9 17.1705 41.4805  14
   1   1   9 16.5014 41.7366  14
  -1  -1  -9 27.8453 40.1238   6
  -1  -1  -9 76.2328 38.9005  12
  -1  -1  -9 21.1455 28.4850  10
   1   1   9 42.4330 25.4661   8
   1   1  10 2732.41 105.830   8
  -1  -1 -10 2577.15 142.437  12
  -1  -1 -10 2756.46 114.799  10
  -1  -1 -10 3022.76 142.705   6
   1   1  10 2867.98 147.542   3
  -1  -1 -11 2927.60 157.643  12
   1   1  11 3149.92 161.463   3
  -1  -1 -12 3831.00 190.782  12
   1   1  12 4397.63 201.456   3
   1   1  13 52.3293 61.3411   3
  -1  -1 -13 123.979 63.0868  12
   1   1  14 2550.09 160.001   3
  -1  -1 -14 2534.05 161.472  12
   1   1  15 3194.13 185.953   3
   1   2 -16 1479.79 130.319  12
  -1  -2  16 1485.35 125.907   9
  -1  -2  16 1496.99 138.829   3
   1   2 -15 814.431 98.8610  12
  -1  -2  15 857.788 110.581   3
   1   2 -14 5651.50 238.595  12
  -1  -2  14 5813.02 258.180   3
  -1  -2  14 5331.38 234.325   9
  -1  -2  13 6931.17 227.799  13
   1   2 -13 6240.78 255.376  12
  -1  -2  13 6589.18 261.326   9
   1   2 -13 7283.94 240.073   5
   1   2 -12 51.7222 47.6531  12
  -1  -2  12 62.2495 39.1530  13
  -1  -2  12 112.781 40.9267  11
   1   2 -12 88.2374 43.0939   5
  -1  -2  12 61.9523 47.5794   4
   1   2 -11 3035.82 152.745  12
  -1  -2  11 3371.42 146.342  11
  -1  -2  11 3163.34 151.513   4
  -1  -2  11 3219.69 159.643  14
   1   2 -10 852.003 76.5532  12
  -1  -2  10 975.721 69.4753  13
  -1  -2  10 1011.75 89.2813   3
   1   2 -10 741.112 29.7312   1
  -1  -2  10 777.398 70.5602  11
  -1  -2  10 884.086 76.7570   4
  -1  -2  10 803.004 77.6874  14
  -1  -2   9 3540.32 158.520  14
  -1  -2   9 3410.46 131.551  13
   1   2  -9 3348.94 152.513  12
  -1  -2   9 3033.24 159.564   3
  -1  -2   9 3556.48 107.776   2
  -1  -2   9 3388.69 143.168  11
  -1  -2   9 3570.38 153.181   4
   1   2  -9 3313.97 107.471   8
  -1  -2   8 16095.4 435.194  14
  -1  -2   8 15064.4 388.107  13
   1   2  -8 15531.6 429.309  12
  -1  -2   8 15037.6 377.122   2
   1   2  -8 14174.7 364.696   8
  -1  -2   8 15163.9 423.725   4
  -1  -2   7 1725.59 75.1400   2
  -1  -2   7 1902.73 98.2701  14
  -1  -2   7 1611.61 79.1239  11
  -1  -2   7 1664.12 71.0973  13
   1   2  -7 1596.95 89.9707  12
   1   2  -7 1658.45 62.0245   8
  -1  -2   7 1636.78 94.3191   4
  -1  -2   6 17798.3 431.783  11
  -1  -2   6 17047.4 418.164  13
   1   2  -6 15864.0 441.181  12
  -1  -2   6 16917.9 438.395   9
   1   2  -6 17041.9 411.062   8
   1   2  -6 17338.0 415.963  13
  -1  -2   6 17009.2 447.432  14
  -1  -2   5 53738.6 1220.64  11
  -1  -2   5 52723.0 1210.03  13
   1   2  -5 50095.2 1226.21  12
  -1  -2   5 52463.2 1194.74  10
  -1  -2   5 51251.4 1221.74   9
   1   2  -5 53591.4 1206.79  13
  -1  -2   5 53817.0 1232.01  14
   1   2  -4 26572.0 636.235  13
   1   2  -4 27767.5 645.532  12
  -1  -2   4 26633.4 639.216  13
  -1  -2   4 28841.4 648.834  11
  -1  -2   4 28589.9 646.502   9
  -1  -2   4 26711.8 638.260  10
  -1  -2   4 26750.4 688.839   4
  -1  -2   3 9691.65 244.651  13
   1   2  -3 10180.2 244.244  13
  -1  -2   3 10298.3 243.323  12
   1   2  -3 9404.49 239.606  12
   1   2  -3 9983.87 255.181   6
  -1  -2   3 10791.2 252.360  11
   1   2  -3 9653.82 242.212   9
  -1  -2   3 9526.33 244.268   9
  -1  -2   3 9381.96 254.622  10
  -1  -2   3 9334.54 285.595   4
   1   2  -2 65239.8 1491.92  11
  -1  -2   2 65233.6 1493.37   6
  -1  -2   2 67544.6 1483.73   9
   1   2  -2 62572.0 1481.66   9
  -1  -2   2 66230.2 1476.03  12
  -1  -2   2 61646.4 1491.06  13
   1   2  -2 66541.4 1475.83  12
  -1  -2   1 8168.79 187.576  14
  -1  -2   1 7576.65 178.999  12
   1   2  -1 7609.64 196.146  11
  -1  -2   1 7366.58 196.544   6
  -1  -2   1 7792.80 184.086   3
  -1  -2   1 7648.20 183.402   7
   1   2  -1 7016.09 182.020   7
  -1  -2   0 846.218 37.8840  11
   1   2   0 735.074 36.1987  11
  -1  -2   0 712.766 37.0681   6
  -1  -2   0 731.659 31.5600  14
   1   2   0 706.419 30.7086  14
   1   2   0 753.941 26.3697   7
  -1  -2   0 754.872 26.3161   7
   1   2   1 1648.19 59.1594  14
  -1  -2  -1 1611.90 61.0089  14
  -1  -2  -1 1781.71 65.9177   6
   1   2   1 1557.91 63.1091   6
  -1  -2  -1 1729.60 55.5879   4
  -1  -2  -1 1549.69 49.6465   7
   1   2   2 3537.24 114.714  11
  -1  -2  -2 3772.06 117.061   6
   1   2   2 3666.17 115.324  14
  -1  -2  -2 3680.06 118.025  14
   1   2   3 28259.6 712.060  11
   1   2   3 29827.6 719.924  14
  -1  -2  -3 30893.6 725.850  14
  -1  -2  -3 29360.2 713.716   6
   1   2   3 30499.6 694.837   5
  -1  -2  -4 26611.5 668.718  14
   1   2   4 25558.6 660.568  14
  -1  -2  -4 26263.3 649.648   6
   1   2   4 27022.0 623.856   5
  -1  -2  -5 5574.33 166.186   2
  -1  -2  -5 5622.78 185.351   6
   1   2   5 5385.96 196.363  14
   1   2   5 5591.79 157.352   5
  -1  -2  -6 18845.7 514.561  14
   1   2   6 18336.9 510.694  14
   1   2   6 17031.4 476.906   3
  -1  -2  -6 17078.6 446.304   2
  -1  -2  -6 18228.7 489.146   6
  -1  -2  -6 18818.8 489.599  10
   1   2   6 19436.5 451.027   5
  -1  -2  -7 26083.4 661.529   6
  -1  -2  -7 24588.1 638.863  10
  -1  -2  -7 24324.9 587.091   2
   1   2   7 24577.0 636.469   3
   1   2   7 25329.4 673.427  14
  -1  -2  -7 25004.9 668.632  14
  -1  -2  -8 4824.12 209.840   6
  -1  -2  -8 5074.55 209.145  14
   1   2   8 5171.87 214.559  14
  -1  -2  -8 5547.67 189.832  10
   1   2   8 4966.54 191.422   3
   1   2   8 5157.77 134.982   1
   1   2   9 217.833 47.1493   3
  -1  -2  -9 248.656 58.4137  14
  -1  -2  -9 297.650 61.4429   6
  -1  -2  -9 273.272 53.1135  12
  -1  -2  -9 237.840 43.9544  10
   1   2   9 265.271 42.7595   8
   1   2  10 2106.84 121.284   3
  -1  -2 -10 1903.52 129.480  14
  -1  -2 -10 2068.35 106.750  10
  -1  -2 -10 1972.59 124.135  12
   1   2  10 1960.51 98.8992   8
  -1  -2 -11 2403.05 141.469  12
   1   2  11 2013.25 128.707   3
  -1  -2 -12 1434.97 116.304  12
   1   2  12 1334.93 109.075   3
  -1  -2 -13 574.767 87.5953  12
   1   2  13 627.646 88.3332   3
  -1  -2 -14 246.404 74.4269  12
   1   2  14 176.750 70.1572   3
   1   2  15 2013.11 149.714   3
   1   3 -16 1618.30 135.257   7
   1   3 -16 1671.35 137.746  12
  -1  -3  16 1680.47 134.115   9
  -1  -3  16 1623.55 146.712   3
  -1  -3  15 96.8685 57.7962   9
   1   3 -15 112.049 58.6669   7
   1   3 -15 77.5128 62.9748  12
   1   3 -14 3024.20 170.557  12
  -1  -3  14 3119.85 169.536   9
  -1  -3  13 9634.28 365.936   3
  -1  -3  13 10414.8 357.188   9
   1   3 -13 10910.6 359.536  12
  -1  -3  13 10798.8 321.295  13
  -1  -3  12 5078.01 204.640  11
  -1  -3  12 4833.51 232.617   3
  -1  -3  12 5457.00 229.124   9
   1   3 -12 5164.89 220.499  12
  -1  -3  12 5629.50 201.042  13
  -1  -3  11 218.607 57.2504  14
   1   3 -11 294.308 25.6079   1
  -1  -3  11 252.204 27.3578   2
  -1  -3  11 311.219 64.1044   3
   1   3 -11 248.926 56.4194  12
  -1  -3  11 245.911 53.4380  11
  -1  -3  11 200.952 58.3607   9
  -1  -3  11 323.551 59.4163   4
  -1  -3  10 17566.7 486.917   4
  -1  -3  10 17533.3 491.876  14
   1   3 -10 17226.2 491.316  12
  -1  -3  10 16452.1 421.314   2
  -1  -3  10 16639.4 471.585  11
  -1  -3  10 18412.2 502.726   9
   1   3 -10 15974.8 401.787   8
  -1  -3   9 12864.2 386.359   4
  -1  -3   9 14014.6 390.745  14
  -1  -3   9 13023.3 351.359  13
   1   3  -9 12937.7 381.776  12
  -1  -3   9 12769.1 339.847   2
  -1  -3   9 12770.2 366.307  11
  -1  -3   9 13072.1 382.214   9
   1   3  -9 11910.9 312.432   8
  -1  -3   8 1575.75 92.0864  14
  -1  -3   8 1431.73 81.7838  11
   1   3  -8 1409.95 57.6114   8
  -1  -3   8 1558.61 89.1664   9
  -1  -3   8 1642.99 100.623   4
  -1  -3   8 1580.00 76.8109  13
   1   3  -8 1312.45 83.5347  12
   1   3  -7 1579.44 82.7985  12
  -1  -3   7 1863.94 78.4646  13
  -1  -3   7 1655.90 82.9955   9
   1   3  -7 1750.85 72.2184  13
  -1  -3   7 1754.02 90.0728  14
  -1  -3   6 159.878 23.3259  13
   1   3  -6 225.969 28.2277  12
  -1  -3   6 228.756 19.1602  10
  -1  -3   6 174.945 25.6635   9
   1   3  -6 192.243 23.6899  13
  -1  -3   5 20486.6 505.014  11
   1   3  -5 21738.6 513.283   6
  -1  -3   5 19692.5 494.123  10
  -1  -3   5 19581.2 496.259   9
   1   3  -5 21466.2 494.429  13
   1   3  -5 20036.7 498.264  12
  -1  -3   5 20663.5 498.130  13
  -1  -3   5 20165.9 500.037  12
  -1  -3   4 58398.9 1331.02  11
   1   3  -4 58708.5 1336.43   6
  -1  -3   4 56690.9 1317.78   9
  -1  -3   4 58355.0 1319.12  12
   1   3  -4 58173.2 1322.58  13
   1   3  -4 54453.1 1317.06  12
  -1  -3   4 58751.6 1327.08  13
   1   3  -3 24486.0 580.643  13
  -1  -3   3 23953.6 567.077  12
  -1  -3   3 24550.0 584.168  13
   1   3  -3 24534.8 568.319  12
   1   3  -3 26060.4 591.260   6
   1   3  -3 23825.5 583.955  11
  -1  -3   3 23185.4 582.808  11
  -1  -3   3 25129.2 569.903   9
   1   3  -3 23458.6 566.898   9
   1   3  -3 25313.7 579.773   7
  -1  -3   2 20000.5 467.929  12
  -1  -3   2 22445.5 493.075  13
   1   3  -2 21916.2 490.880  11
   1   3  -2 20941.8 470.279  12
   1   3  -2 20858.4 492.628   6
  -1  -3   2 18516.7 485.939   6
   1   3  -2 19552.7 470.236   9
  -1  -3   2 20550.9 477.243   7
   1   3  -2 18186.6 474.572   7
  -1  -3   1 84805.9 1888.41   6
  -1  -3   1 81681.1 1865.12  12
   1   3  -1 85994.2 1886.28  11
  -1  -3   1 82285.6 1883.22  11
  -1  -3   1 80890.8 1874.55  14
  -1  -3   1 83513.5 1868.51   7
   1   3  -1 80444.3 1869.07   7
   1   3   0 14331.5 364.173  13
   1   3   0 15061.2 360.348  11
  -1  -3   0 14167.6 360.971   6
   1   3   0 14675.1 350.809  14
  -1  -3   0 13848.7 350.619  14
  -1  -3   0 14028.3 340.485   7
   1   3   0 14687.4 341.643   7
   1   3   1 8151.29 229.916  11
  -1  -3  -1 8925.48 237.147   6
   1   3   1 9005.24 236.053   6
  -1  -3  -1 8666.36 229.048  14
   1   3   1 8458.28 224.098  14
  -1  -3  -1 8598.50 213.415   7
   1   3   2 13198.5 338.293  14
  -1  -3  -2 13230.1 342.575  14
   1   3   2 12739.6 340.157  11
   1   3   2 12298.0 341.507   6
   1   3   2 13299.5 308.257   3
  -1  -3  -2 13401.3 322.792   7
   1   3   3 6686.08 204.820  11
  -1  -3  -3 7038.15 213.094  14
   1   3   3 7335.33 211.567  14
  -1  -3  -3 7538.96 213.125   6
   1   3   3 7172.95 185.693   3
   1   3   4 9675.04 277.304  11
   1   3   4 10519.4 289.872  14
   1   3   4 9688.24 251.959   5
  -1  -3  -4 10324.0 285.660   6
   1   3   4 10071.9 264.518   3
   1   3   5 7511.59 225.966  11
   1   3   5 7169.42 235.422  14
  -1  -3  -5 7544.71 243.566  14
   1   3   5 7510.99 192.622   5
  -1  -3  -5 7030.05 228.516   6
   1   3   6 59.4695 27.8443   3
  -1  -3  -6 110.245 27.2125   2
  -1  -3  -6 122.229 39.5523   6
   1   3   6 99.4410 40.7019  14
  -1  -3  -6 69.8167 39.8227  14
   1   3   6 93.5556 32.3991  11
   1   3   6 76.1677 19.8527   5
  -1  -3  -7 17033.8 424.227   2
  -1  -3  -7 16841.7 479.529   6
  -1  -3  -7 17178.9 497.402  14
   1   3   7 16395.3 488.464  14
   1   3   7 16322.8 461.137  11
  -1  -3  -7 16528.2 470.171  10
   1   3   7 16121.4 450.216   3
  -1  -3  -8 22467.3 568.668   2
  -1  -3  -8 23873.4 659.442  14
   1   3   8 23723.9 669.183  14
   1   3   8 24839.7 642.321  11
  -1  -3  -8 24855.6 662.821   6
  -1  -3  -8 24643.5 633.619  10
   1   3   8 23499.5 618.802   3
  -1  -3  -9 1255.06 108.680  14
   1   3   9 1188.36 96.3674  11
  -1  -3  -9 1287.43 95.1533  10
   1   3   9 1341.27 96.8930   3
   1   3  10 2224.51 127.167   3
  -1  -3 -10 2342.41 138.636  12
  -1  -3 -10 2339.79 148.751  14
   1   3  10 2209.54 127.769  11
  -1  -3 -10 2247.81 122.381  10
   1   3  10 2065.28 115.274   8
  -1  -3 -11 3087.15 165.664  12
  -1  -3 -11 2820.07 168.274  14
   1   3  11 2697.49 148.790   3
   1   3  11 3145.06 154.675  11
   1   3  12 1787.00 118.873  11
  -1  -3 -12 1663.15 128.196  12
   1   3  12 1949.47 126.725   3
   1   3  13 247.092 67.2156   3
  -1  -3 -13 412.023 85.9194  12
  -1  -4  17 1993.80 148.313   9
  -1  -4  16 145.888 68.0959   9
   1   4 -16 213.289 78.3093   7
   1   4 -16 192.724 77.9573  12
  -1  -4  15 33.8955 62.5955   3
  -1  -4  15 91.3422 60.7599   9
   1   4 -15 125.905 65.7050   7
   1   4 -15 44.3852 61.3213  12
  -1  -4  14 48.5168 59.7142   3
   1   4 -14 7.12697 61.6111  12
  -1  -4  14 20.4280 48.3884   9
   1   4 -14 37.8818 52.1983   7
   1   4 -13 3894.82 195.254  12
  -1  -4  13 3842.95 168.387  13
  -1  -4  13 4176.04 198.231   9
   1   4 -13 3870.68 199.721   7
  -1  -4  13 3895.81 202.825   3
   1   4 -12 12698.5 415.768  12
  -1  -4  12 14446.4 398.464  13
  -1  -4  12 13235.9 426.110   3
  -1  -4  12 12190.0 329.849   2
  -1  -4  12 13543.9 422.040   9
   1   4 -12 11195.6 410.168   7
  -1  -4  11 1883.75 119.930  11
  -1  -4  11 2097.52 94.3491   2
  -1  -4  11 2027.50 132.911   9
   1   4 -11 2001.69 129.055  12
  -1  -4  11 2091.94 114.134  13
  -1  -4  10 5202.89 211.964   4
  -1  -4  10 5187.85 201.888  14
   1   4 -10 4709.76 194.281  12
  -1  -4  10 4690.42 166.825   2
  -1  -4  10 4796.59 190.938  11
  -1  -4  10 4763.97 195.192   9
   1   4 -10 4575.70 132.802   8
  -1  -4   9 26724.7 668.185  14
   1   4  -9 25528.8 661.364  12
  -1  -4   9 25259.1 657.151  11
  -1  -4   9 25243.8 655.423   9
   1   4  -9 24751.0 600.941   8
  -1  -4   9 26115.2 692.994   4
   1   4  -8 9515.73 282.982  12
   1   4  -8 9524.52 287.251   6
  -1  -4   8 9411.78 283.176  11
  -1  -4   8 9082.26 275.017   9
   1   4  -8 9585.17 261.693  13
  -1  -4   8 9568.94 286.373  14
  -1  -4   7 1893.14 92.0387  11
   1   4  -7 2054.11 91.2710  12
  -1  -4   7 1851.88 86.5905  13
  -1  -4   7 2006.06 70.9508  10
  -1  -4   7 2007.67 87.5455   9
   1   4  -7 1910.44 81.5821  13
   1   4  -6 2702.37 98.4948  13
   1   4  -6 2520.98 98.2136  12
  -1  -4   6 2836.72 105.755  13
  -1  -4   6 2696.41 100.997  12
  -1  -4   6 2549.74 105.248  11
  -1  -4   6 2720.82 97.3355   9
   1   4  -6 2547.27 110.391   7
  -1  -4   5 1718.49 70.3378  12
   1   4  -5 1717.97 69.4459  12
   1   4  -5 1649.48 72.1310  13
  -1  -4   5 1898.21 79.4398  13
   1   4  -5 1665.78 79.6323   6
  -1  -4   5 1814.31 67.1234   9
   1   4  -5 1758.79 79.8990   7
  -1  -4   4 20175.5 474.736  12
   1   4  -4 20291.4 489.377  13
  -1  -4   4 20602.1 495.699  13
   1   4  -4 18592.9 474.829  12
  -1  -4   4 19701.5 489.149   6
   1   4  -4 19419.0 496.734   6
   1   4  -4 20311.4 494.344  11
  -1  -4   4 19352.5 470.554   9
   1   4  -4 20763.1 490.742   7
  -1  -4   3 15626.5 377.039  12
   1   4  -3 16069.9 397.463  13
  -1  -4   3 15417.7 401.155  13
   1   4  -3 15965.3 403.937   6
   1   4  -3 15092.5 378.630  12
   1   4  -3 17693.1 403.118  11
   1   4  -3 14831.6 371.460   9
   1   4  -3 15879.7 388.808   7
  -1  -4   3 16707.1 389.520   7
  -1  -4   2 112.957 14.2290  12
   1   4  -2 75.8429 20.5962   6
   1   4  -2 112.851 21.4068  11
   1   4  -2 116.481 13.0355   9
   1   4  -2 120.061 18.0130   7
  -1  -4   2 144.476 19.6174   7
   1   4  -1 21226.0 519.070   6
  -1  -4   1 19483.9 511.391   6
   1   4  -1 19844.3 511.283  11
  -1  -4   1 21357.7 491.517  12
  -1  -4   1 20332.9 503.831  14
  -1  -4   1 21139.3 494.372   7
   1   4  -1 21558.1 495.779   7
   1   4   0 68860.8 1584.47  13
  -1  -4   0 69395.1 1582.00   6
   1   4   0 67367.3 1576.91  11
  -1  -4   0 66500.6 1568.80  14
  -1  -4   0 67911.0 1556.09   7
   1   4   0 69298.9 1556.60   7
   1   4   1 6290.33 188.514  13
  -1  -4  -1 5812.88 173.050  11
   1   4   1 5717.32 176.574  11
  -1  -4  -1 5978.31 175.856  14
   1   4   1 5864.67 171.562  14
  -1  -4  -1 5681.27 180.660   6
  -1  -4  -1 6287.81 162.428   7
   1   4   2 20674.2 489.386  11
   1   4   2 19553.2 482.954  14
  -1  -4  -2 19279.1 487.597  14
  -1  -4  -2 18417.7 464.137   7
  -1  -4  -2 19655.1 493.400   6
  -1  -4  -3 14239.0 383.411   6
   1   4   3 14053.4 376.553  14
   1   4   3 15237.6 380.039  11
   1   4   3 14096.6 337.197   3
  -1  -4  -3 14366.8 358.365   7
  -1  -4  -4 7194.17 230.008   6
  -1  -4  -4 7118.19 231.312  14
   1   4   4 7570.69 229.391  14
   1   4   4 7298.70 223.939  11
   1   4   4 7460.89 193.748   3
  -1  -4  -4 7159.70 205.416   7
   1   4   5 2242.21 107.519  11
  -1  -4  -5 2584.74 123.316  14
   1   4   5 2398.23 115.922  14
   1   4   5 2333.41 90.9020   3
  -1  -4  -5 2427.30 116.263   6
   1   4   5 2561.80 81.6644   5
   1   4   6 360.504 55.5000  14
  -1  -4  -6 232.504 49.3440  14
  -1  -4  -6 297.714 52.1856   6
   1   4   6 270.471 43.2136  11
   1   4   6 235.707 24.7619   5
   1   4   6 294.382 35.9131   3
  -1  -4  -7 1579.00 107.186   6
   1   4   7 1503.69 96.7486  11
   1   4   7 1469.52 108.113  14
  -1  -4  -7 1613.78 113.765  14
   1   4   7 1341.88 84.4847   3
  -1  -4  -7 1410.98 79.2400   2
  -1  -4  -8 6096.79 194.047   2
  -1  -4  -8 6369.30 261.009  14
  -1  -4  -8 6471.18 242.364  10
   1   4   8 5950.53 219.839   3
   1   4   8 6862.34 241.234  11
  -1  -4  -9 8136.07 308.406  14
  -1  -4  -9 7619.14 279.056  10
   1   4   9 7444.92 265.956   3
  -1  -4 -10 163.020 61.8754  14
   1   4  10 64.1248 46.7920   3
   1   4  10 58.5557 51.9945  11
  -1  -4 -10 64.1748 54.0342  10
   1   4  10 51.6439 50.6098   8
  -1  -4 -11 3151.22 172.909  12
  -1  -4 -11 3155.99 184.050  14
   1   4  11 3136.12 156.736   3
   1   4  11 3530.83 171.526  11
  -1  -4 -12 3440.20 187.476  12
   1   4  12 3338.26 165.843   3
  -1  -4 -12 3376.36 193.861  14
  -1  -4 -13 696.738 99.6778  12
   1   5 -16 1723.81 143.399   7
   1   5 -16 1901.94 150.760  12
  -1  -5  16 1780.46 138.683   9
  -1  -5  16 1617.07 145.176   3
   1   5 -15 269.819 81.7844   7
   1   5 -15 259.341 81.9194   6
  -1  -5  15 80.4066 65.7906   9
  -1  -5  15 199.212 75.4560   3
   1   5 -15 47.4502 67.5216  12
   1   5 -14 349.439 85.7336   6
   1   5 -14 445.227 84.6506  12
  -1  -5  14 460.335 80.0122   9
  -1  -5  14 347.781 78.5725   3
  -1  -5  13 588.009 77.5031  13
   1   5 -13 558.744 89.3641   6
   1   5 -13 510.005 89.1518  12
  -1  -5  13 560.187 50.7193   2
  -1  -5  13 511.262 84.2869   3
   1   5 -12 3923.49 188.868   6
   1   5 -12 3837.50 188.503  12
  -1  -5  12 3944.56 177.195  13
  -1  -5  12 3741.89 186.240   9
  -1  -5  12 3571.80 143.931   2
   1   5 -11 7612.64 203.386   8
   1   5 -11 7596.79 280.165  12
  -1  -5  11 8821.25 279.441  13
   1   5 -11 8948.88 292.500   6
  -1  -5  11 8631.85 287.853   9
  -1  -5  11 7915.37 254.393   2
  -1  -5  10 1069.41 85.5433  14
  -1  -5  10 943.271 77.6024  13
   1   5 -10 936.273 79.4246  12
   1   5 -10 822.460 77.7566   6
  -1  -5  10 947.713 83.4892  11
  -1  -5  10 869.999 76.9703   9
   1   5 -10 872.799 46.2770   8
  -1  -5  10 816.898 91.3521   4
   1   5  -9 9248.91 256.296  13
  -1  -5   9 8809.64 278.698  14
  -1  -5   9 9301.55 275.678  13
   1   5  -9 9082.00 274.833  12
   1   5  -9 9482.13 287.468   6
  -1  -5   9 8723.52 278.733  11
  -1  -5   9 8844.92 265.731   9
  -1  -5   9 8231.27 211.987  10
   1   5  -9 8304.27 290.515   7
   1   5  -8 23576.2 563.551  13
  -1  -5   8 22932.4 580.170  13
   1   5  -8 21599.1 573.567  12
   1   5  -8 23545.3 591.451   6
  -1  -5   8 22314.2 584.544  11
  -1  -5   8 22115.7 565.305   9
  -1  -5   8 21917.1 540.666  10
   1   5  -8 22031.9 596.259   7
   1   5  -7 11796.7 314.244  13
   1   5  -7 11530.9 316.660  12
  -1  -5   7 11748.7 317.126  12
   1   5  -7 12347.0 337.070   6
  -1  -5   7 11575.3 329.860  11
  -1  -5   7 11209.2 306.775   9
   1   5  -7 10978.4 332.090   7
   1   5  -6 10008.1 268.147  12
   1   5  -6 9808.21 270.977  13
  -1  -5   6 9339.28 265.539  12
   1   5  -6 10289.0 287.132   6
  -1  -5   6 9605.63 256.886   9
   1   5  -6 9719.00 283.337   7
  -1  -5   6 9957.36 282.887  11
  -1  -5   5 20554.4 502.053  12
   1   5  -5 20157.6 502.857  12
   1   5  -5 20117.4 514.679  13
   1   5  -5 21301.0 524.935  11
  -1  -5   5 21444.2 526.313  11
  -1  -5   5 20548.0 492.417   9
   1   5  -5 20654.3 519.806   7
   1   5  -4 3011.76 97.8789  12
   1   5  -4 3042.16 112.595  11
  -1  -5   4 2904.89 108.289   6
   1   5  -4 2951.85 110.470  13
  -1  -5   4 2668.57 93.7523  12
   1   5  -4 2893.26 105.406   7
  -1  -5   3 513.543 32.4917  12
   1   5  -3 678.857 48.7599  13
  -1  -5   3 552.951 43.5192   6
   1   5  -3 624.158 46.6530  11
   1   5  -3 706.560 38.1438  12
   1   5  -3 528.466 26.8528   9
  -1  -5   3 632.238 40.9538   7
   1   5  -3 598.221 39.5047   7
  -1  -5   2 6237.34 175.464  14
   1   5  -2 6284.75 182.474  11
  -1  -5   2 5685.69 157.928  12
   1   5  -2 5606.03 150.446   9
   1   5  -2 5739.21 166.130   7
  -1  -5   2 6028.83 166.249   7
   1   5  -1 1162.40 61.3135  11
  -1  -5   1 1028.11 47.8079  12
  -1  -5   1 1051.13 55.6916  14
   1   5  -1 1105.01 50.7811   7
  -1  -5   1 1056.69 49.1077   7
   1   5   0 15887.6 422.964  13
  -1  -5   0 14800.3 414.348   6
  -1  -5   0 16308.5 395.405  12
  -1  -5   0 16764.3 411.926  11
   1   5   0 15886.1 414.203  11
  -1  -5   0 16821.3 410.865  14
  -1  -5   0 15780.3 392.704   7
   1   5   0 15942.5 394.580   7
   1   5   1 35046.6 818.641  13
  -1  -5  -1 32383.5 806.869   6
  -1  -5  -1 31527.3 793.252  11
   1   5   1 33867.0 805.262  11
   1   5   1 32237.9 794.413  14
  -1  -5  -1 34240.7 780.819   7
   1   5   2 3812.10 149.807  13
  -1  -5  -2 3737.18 144.169   6
   1   5   2 4125.07 147.958   6
  -1  -5  -2 3843.25 132.797  11
   1   5   2 4043.47 141.925  11
   1   5   2 3998.79 138.088  14
  -1  -5  -2 4005.82 123.489   7
   1   5   3 20359.0 529.570  13
   1   5   3 20423.6 513.823  11
  -1  -5  -3 20333.7 519.224  14
   1   5   3 19852.5 511.418  14
  -1  -5  -3 19330.6 489.041   7
  -1  -5  -3 19202.0 520.860   6
   1   5   3 20709.7 522.842   6
  -1  -5  -4 22493.4 575.841   6
   1   5   4 21758.2 563.761  14
  -1  -5  -4 22559.5 573.498  14
   1   5   4 22740.8 563.949  11
  -1  -5  -4 23041.4 541.730   7
   1   5   4 21449.9 509.751   3
  -1  -5  -4 21512.3 500.119   4
   1   5   5 266.121 44.9649  14
  -1  -5  -5 293.374 49.0880  14
   1   5   5 276.598 25.6618   5
  -1  -5  -5 312.951 40.4159   7
  -1  -5  -5 281.008 50.6630   6
   1   5   5 206.287 40.6068  11
   1   5   5 246.336 25.6509   3
   1   5   6 195.176 21.7263   5
  -1  -5  -6 155.052 48.3170   6
  -1  -5  -6 127.123 35.1843   7
   1   5   6 153.390 26.8437   3
   1   5   6 139.126 40.8871  11
  -1  -5  -6 189.070 50.7668  14
   1   5   6 248.538 50.7480  14
  -1  -5  -7 405.357 53.6241   7
   1   5   7 510.526 64.5655  11
  -1  -5  -7 541.857 75.0202  14
   1   5   7 492.771 47.1964   3
   1   5   8 3259.01 139.327   3
  -1  -5  -8 3286.50 137.293   2
   1   5   8 3631.94 168.354  11
  -1  -5  -8 3746.80 191.392  14
  -1  -5  -8 3493.22 178.641  10
  -1  -5  -8 3626.92 154.774   7
   1   5   9 2453.11 144.604  11
  -1  -5  -9 2359.07 158.297  14
  -1  -5  -9 2409.84 146.609  10
   1   5   9 2026.53 117.427   3
   1   5  10 1240.77 94.2051   3
  -1  -5 -10 1254.50 121.162  14
  -1  -5 -10 1179.17 105.620  10
   1   5  10 1226.40 108.377   8
   1   5  10 1452.11 115.240  11
  -1  -5 -11 200.387 74.5644  12
  -1  -5 -11 147.872 73.9401  14
  -1  -5 -12 3381.85 202.216  14
  -1  -5 -12 3406.91 188.018  12
   1   6 -16 4368.67 231.624  12
   1   6 -15 1420.31 141.483   6
   1   6 -15 1842.83 153.974  12
  -1  -6  15 1504.84 137.435   3
   1   6 -14 241.047 79.0938   6
   1   6 -14 353.630 88.5908  12
  -1  -6  14 437.657 89.2035   9
  -1  -6  14 406.405 86.2913   3
  -1  -6  13 6159.71 241.359  13
   1   6 -13 5073.14 235.329  12
   1   6 -13 4582.58 248.886   7
   1   6 -13 6203.58 255.673   6
  -1  -6  13 5765.44 246.258   9
  -1  -6  13 5320.63 195.323   2
  -1  -6  13 5662.68 256.316   3
   1   6 -12 2043.52 134.484  12
  -1  -6  12 2220.21 134.473  13
   1   6 -12 2249.36 154.712   7
   1   6 -12 2326.20 143.157   6
  -1  -6  12 2147.55 133.815   9
  -1  -6  12 2060.69 114.268   2
   1   6 -11 720.629 77.8767   6
   1   6 -11 609.958 71.9383  12
  -1  -6  11 678.986 74.1472  13
   1   6 -11 607.134 40.0336   8
  -1  -6  11 651.578 68.6290   9
   1   6 -11 719.007 87.6802   7
  -1  -6  10 1241.75 92.3163  14
   1   6 -10 1282.19 80.5242  13
   1   6 -10 1334.89 90.3946  12
  -1  -6  10 1382.56 94.7429  13
   1   6 -10 1455.51 100.235   6
  -1  -6  10 1352.74 84.4636   9
   1   6 -10 1304.51 102.710   7
   1   6  -9 79.6249 33.1845  13
  -1  -6   9 80.6638 33.9004  13
   1   6  -9 54.8974 38.4963   6
   1   6  -9 30.3363 28.8144  12
  -1  -6   9 99.0721 32.0717   9
  -1  -6   9 118.734 42.8338  11
  -1  -6   9 59.2960 19.5740  10
   1   6  -9 132.125 45.7029   7
   1   6  -8 19916.2 499.322  13
  -1  -6   8 18446.1 513.088  13
   1   6  -8 18841.1 500.630  12
  -1  -6   8 19784.8 501.525  12
   1   6  -8 20176.5 523.861   6
  -1  -6   8 18667.8 516.737  11
  -1  -6   8 18804.5 490.852  10
  -1  -6   8 19358.0 486.561   9
   1   6  -8 19509.5 527.253   7
   1   6  -7 21275.8 537.447  12
   1   6  -7 21594.9 542.196  13
  -1  -6   7 20985.3 534.539  12
  -1  -6   7 19880.7 555.300  13
   1   6  -7 22082.8 561.745   6
  -1  -6   7 21849.0 559.298  11
  -1  -6   7 21469.0 521.324   9
   1   6  -7 21045.1 557.805   7
  -1  -6   6 1939.99 82.7108  12
   1   6  -6 2174.88 95.9761  13
  -1  -6   6 1896.11 100.616  13
   1   6  -6 2164.88 103.791   6
   1   6  -6 2085.64 99.9326  11
   1   6  -6 1847.23 84.8994  12
  -1  -6   6 1794.53 96.0667  11
  -1  -6   6 1943.03 72.7532   9
   1   6  -6 2033.80 97.5190   7
   1   6  -5 15440.3 427.676  11
  -1  -6   5 14958.6 427.208  11
   1   6  -5 16075.2 409.170  12
   1   6  -5 17254.0 438.587   6
  -1  -6   5 16347.2 422.448   6
  -1  -6   5 16838.4 404.962  12
   1   6  -5 16632.0 425.318  13
  -1  -6   5 15570.7 433.595  13
   1   6  -5 15939.5 421.849   7
  -1  -6   4 46566.3 1066.12  11
   1   6  -4 45718.7 1064.58  11
   1   6  -4 44270.2 1039.89  12
   1   6  -4 45569.7 1070.82   6
  -1  -6   4 44335.1 1058.25   6
  -1  -6   4 44246.1 1070.55  13
   1   6  -4 44995.8 1061.40  13
  -1  -6   4 43858.8 1033.65  12
   1   6  -4 40923.5 1047.63   7
  -1  -6   4 45156.3 1049.12   7
   1   6  -3 3897.10 138.755  13
  -1  -6   3 3693.18 144.352  13
  -1  -6   3 3867.39 115.571  12
  -1  -6   3 3811.02 136.513   6
   1   6  -3 3853.46 141.311   6
   1   6  -3 3729.19 137.161  11
   1   6  -3 3435.36 98.5640   9
  -1  -6   3 3699.99 124.811   7
   1   6  -3 3613.31 124.524   7
  -1  -6   2 1221.60 53.8022  12
   1   6  -2 1221.65 72.8870   6
  -1  -6   2 1093.72 67.3244   6
   1   6  -2 987.147 41.2132   9
  -1  -6   2 1229.56 59.1485   7
   1   6  -2 1113.33 57.9428   7
   1   6  -2 1259.50 70.2860  11
   1   6  -1 108.966 30.5428   6
   1   6  -1 143.779 25.2736   7
  -1  -6   1 127.455 23.2376  12
   1   6  -1 136.837 29.9990  11
  -1  -6   1 197.488 32.9964  11
  -1  -6   1 138.043 24.4255   7
  -1  -6   0 4898.22 149.019  12
   1   6   0 4937.51 167.490  11
  -1  -6   0 5123.43 165.401  11
   1   6   0 5086.11 174.457   6
  -1  -6   0 5064.59 149.662   7
   1   6   0 4908.00 150.086   7
   1   6   0 4663.93 172.757  13
   1   6   1 14933.8 412.331  13
   1   6   1 15174.4 408.871   6
  -1  -6  -1 13754.5 403.172   6
  -1  -6  -1 14209.6 389.715  11
   1   6   1 15332.7 401.742  11
  -1  -6  -1 15083.9 398.869  14
  -1  -6  -1 15569.3 377.809   7
   1   6   2 5797.74 203.319  13
  -1  -6  -2 5598.96 196.000   6
   1   6   2 5529.91 193.986   6
   1   6   2 6003.91 192.123  11
  -1  -6  -2 5720.94 180.804  11
  -1  -6  -2 5450.30 188.962  14
   1   6   2 5962.64 188.016  14
  -1  -6  -2 5426.46 168.074   7
   1   6   3 477.357 56.8197  13
  -1  -6  -3 328.466 48.8163   6
   1   6   3 386.764 51.4920   6
   1   6   3 374.653 47.7195  11
   1   6   3 380.169 45.2921  14
  -1  -6  -3 404.233 47.6364  14
  -1  -6  -3 380.209 38.5704   7
   1   6   4 11531.1 359.981  13
  -1  -6  -4 11877.3 354.801   6
   1   6   4 11633.1 339.672  11
   1   6   4 12031.9 344.803  14
  -1  -6  -4 11869.0 349.813  14
  -1  -6  -4 11912.1 319.295   7
   1   6   5 14791.6 443.126  13
   1   6   5 15220.9 421.783  11
  -1  -6  -5 14974.0 434.815  14
   1   6   5 14583.9 425.088  14
  -1  -6  -5 14637.7 397.153   7
   1   6   5 15324.3 368.828   5
   1   6   6 763.605 37.3728   5
   1   6   6 722.945 71.5468  11
  -1  -6  -6 677.982 74.8116  14
   1   6   6 567.169 38.8907   3
  -1  -6  -6 714.515 60.8623   7
   1   6   7 2260.85 126.887  11
   1   6   7 2293.67 92.0920   3
   1   6   8 2763.79 147.647  11
  -1  -6  -8 2719.21 165.832  14
   1   6   8 2369.29 104.143   3
   1   6   9 1811.70 127.320  11
  -1  -6  -9 1865.57 137.557  10
   1   6   9 1796.28 96.2704   3
  -1  -6  -9 1833.17 148.512  14
  -1  -6 -10 255.555 84.8995  14
   1   6  10 228.666 73.5442   8
  -1  -6 -10 217.526 69.2822  10
  -1  -6 -11-52.3386 76.9278  14
  -1  -6 -12 459.626 93.1679  12
  -1  -6 -12 340.083 94.7494  14
   1   7 -16 2811.45 194.092  12
   1   7 -15 4712.97 247.369  12
   1   7 -15 5024.67 264.153   7
  -1  -7  15 4950.07 252.759   3
   1   7 -14 251.627 84.1371   6
   1   7 -14 231.334 78.4094  12
   1   7 -14 99.0551 79.7791   7
  -1  -7  14 301.494 87.5581   3
   1   7 -13 3968.11 223.646   7
  -1  -7  13 3949.50 177.623   2
  -1  -7  13 4492.94 224.841   3
  -1  -7  13 4208.47 206.166  13
   1   7 -13 3932.23 200.639  12
   1   7 -12 9580.31 338.409   6
   1   7 -12 9336.44 324.503  12
  -1  -7  12 9839.54 336.558  13
  -1  -7  12 9610.27 313.687   9
   1   7 -12 9662.24 355.809   7
   1   7 -11 2756.15 127.837  13
  -1  -7  11 2950.96 153.902  13
   1   7 -11 2731.71 142.563  12
   1   7 -11 2894.77 154.882   6
  -1  -7  11 3118.20 135.585   9
   1   7 -11 2433.02 153.562   7
   1   7 -10 404.270 52.2606  13
  -1  -7  10 506.610 66.8667  13
   1   7 -10 402.382 63.4426   6
   1   7 -10 312.227 52.3204  12
  -1  -7  10 444.618 50.4586   9
  -1  -7  10 389.602 36.7478  10
   1   7 -10 420.794 67.0558   7
   1   7  -9 265.631 43.5549  13
  -1  -7   9 312.962 52.4242  13
   1   7  -9 345.204 55.9786   6
   1   7  -9 307.864 49.3832  12
  -1  -7   9 309.152 48.2760  12
  -1  -7   9 330.915 42.0156  10
  -1  -7   9 281.949 37.6572   9
   1   7  -9 303.189 56.0321   7
   1   7  -8 1120.78 74.2451  13
  -1  -7   8 1146.54 84.7109  13
   1   7  -8 1118.34 72.9698  12
  -1  -7   8 1005.54 68.1194  12
   1   7  -8 1013.87 81.7666   6
  -1  -7   8 1127.54 82.5145  11
  -1  -7   8 1064.32 57.4866   9
   1   7  -8 1048.91 81.7346   7
   1   7  -7 7496.30 227.161  12
  -1  -7   7 7389.69 246.511  11
   1   7  -7 8095.92 254.046   6
   1   7  -7 7607.24 236.293  13
  -1  -7   7 7558.68 252.283  13
  -1  -7   7 7702.74 225.114  12
   1   7  -7 7798.01 247.159   7
   1   7  -6 10362.5 310.089  11
   1   7  -6 10380.5 288.169  12
  -1  -7   6 10397.6 310.981  11
   1   7  -6 10802.0 317.101   6
  -1  -7   6 10374.8 317.283  13
  -1  -7   6 10365.7 283.450  12
   1   7  -6 10473.3 303.329  13
   1   7  -6 10400.2 304.452   7
   1   7  -5 468.906 42.7620  12
  -1  -7   5 464.318 51.2978  11
   1   7  -5 489.554 51.9452  11
  -1  -7   5 497.017 49.7457   6
   1   7  -5 469.893 52.6692   6
  -1  -7   5 472.324 54.1952  13
   1   7  -5 422.560 50.4426  13
  -1  -7   5 468.533 41.1949  12
   1   7  -5 397.694 46.9525   7
   1   7  -4 17946.7 461.666  11
  -1  -7   4 17560.1 455.774   6
   1   7  -4 17630.8 466.667   6
   1   7  -4 17293.7 458.321  13
  -1  -7   4 17071.1 470.001  13
  -1  -7   4 16789.8 427.741  12
  -1  -7   4 17253.6 442.636   7
   1   7  -4 16451.6 443.305   7
  -1  -7   3 25736.0 607.157  14
   1   7  -3 25296.3 616.352  13
  -1  -7   3 25020.0 581.076  12
  -1  -7   3 24929.2 628.534  13
  -1  -7   3 24894.5 611.888   6
   1   7  -3 25491.1 621.469   6
   1   7  -3 26622.6 619.274  11
   1   7  -3 25482.5 598.491   7
  -1  -7   3 25347.1 593.315   7
  -1  -7   2 578.647 50.6689  14
  -1  -7   2 569.139 42.5051  12
   1   7  -2 705.910 59.9596   6
  -1  -7   2 605.543 57.3104   6
  -1  -7   2 547.140 52.8018  11
   1   7  -2 604.660 54.9127  11
   1   7  -2 455.891 27.0711   9
  -1  -7   2 516.980 43.2999   7
   1   7  -2 506.186 45.6894   7
  -1  -7   1 13501.9 370.425  14
  -1  -7   1 13598.4 380.873   6
   1   7  -1 14373.9 387.397   6
  -1  -7   1 14137.9 352.291  12
   1   7  -1 14462.8 381.426  11
  -1  -7   1 13414.3 371.191  11
  -1  -7   1 13560.9 322.874   3
   1   7  -1 13713.4 357.320   7
  -1  -7   1 13863.7 355.185   7
   1   7   0 13068.5 375.445  13
   1   7   0 13196.2 373.033   6
  -1  -7   0 13467.6 342.513  12
   1   7   0 12838.1 365.208  11
  -1  -7   0 13510.7 361.245  11
  -1  -7   0 12806.8 361.275  14
   1   7   0 12610.5 341.826   7
  -1  -7   0 13139.2 340.472   7
   1   7   1 1391.18 88.5468  13
   1   7   1 1491.20 90.4854   6
   1   7   1 1295.39 80.8395  11
  -1  -7  -1 1486.15 72.8885  12
  -1  -7  -1 1444.88 80.9828  11
  -1  -7  -1 1461.41 84.9608  14
  -1  -7  -1 1390.73 68.7684   7
   1   7   2 3688.38 160.309  13
   1   7   2 3583.17 152.748   6
  -1  -7  -2 3518.65 152.701   6
   1   7   2 3741.99 148.728  11
  -1  -7  -2 3627.63 138.070  11
  -1  -7  -2 4004.14 153.520  14
  -1  -7  -2 3752.21 129.768   7
  -1  -7  -3 294.956 50.1791  14
   1   7   3 365.617 51.1055  14
   1   7   3 244.940 50.5897  13
   1   7   3 270.130 49.9737   6
  -1  -7  -3 288.432 48.9202   6
   1   7   3 278.009 45.8574  11
  -1  -7  -3 315.743 39.1699   7
   1   7   4 1667.69 100.648  11
  -1  -7  -4 1829.56 108.434  14
   1   7   4 1817.50 103.501  14
  -1  -7  -4 1900.60 89.3838   7
   1   7   5 9647.88 303.251  11
   1   7   5 9497.52 248.681   5
  -1  -7  -5 9636.43 316.828  14
  -1  -7  -5 9640.69 279.952   7
  -1  -7  -6 9276.62 319.766  14
   1   7   6 9106.45 301.734  11
  -1  -7  -7 6.81020 50.2898  14
   1   7   7 15.8830 44.5129  11
  -1  -7  -8 3962.43 211.674  14
   1   7   8 4006.31 188.190  11
  -1  -7  -9 1228.52 129.265  14
  -1  -7  -9 1126.87 118.480  10
  -1  -7 -10 455.700 93.6456  14
  -1  -7 -10 565.498 97.0126  10
  -1  -7 -11 46.1852 74.8424  14
   1   8 -16 355.580 98.3338  12
   1   8 -15 1903.05 153.762  12
   1   8 -15 1994.83 180.535   7
  -1  -8  15 2295.11 172.406   3
   1   8 -14 2921.47 174.828  12
   1   8 -14 2763.66 175.600   6
   1   8 -14 2757.39 191.986   7
  -1  -8  14 2921.21 187.379   3
   1   8 -13 28.2516 61.4658   6
   1   8 -13-58.7113 62.1901  12
   1   8 -13-68.6687 76.1791   7
  -1  -8  13 108.506 69.6717   3
  -1  -8  12 7282.45 288.024  13
   1   8 -12 7387.88 271.925  12
   1   8 -12 7252.01 299.510   7
   1   8 -12 7692.73 288.305   6
   1   8 -11 11032.8 341.111  12
  -1  -8  11 11674.8 369.047  13
   1   8 -11 11417.3 373.268   7
   1   8 -11 11795.6 366.317   6
  -1  -8  10 2286.43 134.850  13
   1   8 -10 2344.19 121.343  12
   1   8 -10 2596.22 142.161   6
  -1  -8  10 2172.67 102.143  10
   1   8 -10 2146.74 136.188   7
   1   8  -9 3188.32 138.838  13
  -1  -8   9 3314.96 136.683  12
  -1  -8   9 3159.07 157.375  13
   1   8  -9 3233.13 154.683   6
   1   8  -9 2952.62 134.398  12
  -1  -8   9 3121.02 112.250   9
   1   8  -9 3015.65 152.499   7
  -1  -8   8 4601.70 192.831  13
  -1  -8   8 4687.81 164.175  12
   1   8  -8 4516.51 186.134   6
   1   8  -8 4594.67 166.595  12
   1   8  -8 4172.11 170.074  13
   1   8  -8 4688.51 185.404   7
   1   8  -7 685.621 66.7139  11
   1   8  -7 687.277 57.8241  12
   1   8  -7 620.519 67.4644   6
   1   8  -7 760.283 67.1266   7
  -1  -8   7 692.685 55.3224  12
   1   8  -7 738.758 66.5681  13
  -1  -8   7 676.246 71.5114  13
   1   8  -6 1803.14 104.027  11
   1   8  -6 1834.08 90.0371  12
   1   8  -6 1963.61 110.071   6
   1   8  -6 1833.80 98.8720   7
  -1  -8   6 2041.37 115.968  13
  -1  -8   6 1857.99 85.3419  12
   1   8  -6 1926.70 103.633  13
   1   8  -5 3681.56 149.639  11
  -1  -8   5 3491.58 140.338   6
   1   8  -5 3336.66 148.249   6
   1   8  -5 3317.12 136.311   7
  -1  -8   5 3411.05 155.548  13
  -1  -8   5 3513.90 122.752  12
   1   8  -5 3453.25 144.284  13
  -1  -8   4 450.021 42.0322  12
   1   8  -4 348.357 50.6377  13
  -1  -8   4 411.360 59.2295  13
   1   8  -4 372.103 52.0975   6
  -1  -8   4 349.617 48.5276   6
   1   8  -4 498.550 55.3655  11
  -1  -8   4 411.598 51.9336  14
   1   8  -4 306.264 45.9319   7
  -1  -8   4 416.303 46.3944   7
  -1  -8   3 10420.4 283.870  12
   1   8  -3 10477.1 318.429  13
   1   8  -3 10839.5 324.487   6
  -1  -8   3 10299.8 313.525   6
  -1  -8   3 10554.6 311.387  11
   1   8  -3 11563.9 322.756  11
  -1  -8   3 10600.4 309.010  14
   1   8  -3 10369.9 298.643   7
  -1  -8   3 10600.1 296.090   7
  -1  -8   2 15558.6 398.175  14
  -1  -8   2 14935.9 366.516  12
   1   8  -2 16041.4 414.079   6
  -1  -8   2 14807.1 399.622   6
   1   8  -2 15932.8 405.802  11
  -1  -8   2 15201.7 395.494  11
   1   8  -2 14851.7 380.222   7
  -1  -8   2 15625.1 377.450   7
  -1  -8   1 22.7979 11.5863   3
  -1  -8   1 36.5435 12.3221   3
  -1  -8   1 42.5018 33.3942  14
   1   8  -1 8.44133 36.2437  13
   1   8  -1 50.7724 41.0074   6
  -1  -8   1 36.3156 36.9469   6
   1   8  -1 5.36590 29.0451   7
  -1  -8   1 44.8655 28.6794  12
  -1  -8   1 46.2442 35.0304  11
   1   8  -1 61.9883 37.3482  11
  -1  -8   1 7.65510 27.5057   7
   1   8   0 16343.0 462.447  13
  -1  -8   0 16590.1 444.516  11
  -1  -8   0 16262.4 422.897  12
   1   8   0 16513.7 452.579  11
   1   8   0 16579.6 460.811   6
  -1  -8   0 16191.9 456.786   6
  -1  -8   0 16459.8 450.601  14
   1   8   0 16213.9 424.973   7
  -1  -8   0 16590.2 423.872   7
  -1  -8  -1 8364.23 246.120  12
  -1  -8  -1 8382.36 260.133  11
   1   8   1 8821.94 273.930  11
   1   8   1 8334.56 275.812   6
  -1  -8  -1 8250.76 269.831  14
  -1  -8  -1 8605.78 244.416   7
  -1  -8  -2 643.264 55.7664  12
   1   8   2 729.755 68.1204  11
  -1  -8  -2 554.275 56.4580  11
  -1  -8  -2 568.238 65.6576  14
  -1  -8  -2 521.926 47.6705   7
   1   8   2 696.985 70.2496   6
  -1  -8  -3 4.75326 40.2516  14
   1   8   3-9.82545 42.7573   6
   1   8   3 56.9159 38.8600  11
  -1  -8  -3 40.1995 30.4054   7
  -1  -8  -4 523.459 69.1554  14
   1   8   4 546.514 64.4319  11
  -1  -8  -5 2531.89 143.564  14
   1   8   5 2726.08 139.874  11
  -1  -8  -6 2731.20 159.165  14
   1   8   6 3324.03 158.859  11
  -1  -8  -7 2221.83 151.378  14
   1   8   7 2236.82 136.528  11
  -1  -8  -8 139.971 74.5307  14
  -1  -8  -9 2874.11 190.330  10
  -1  -8  -9 2716.52 189.377  14
  -1  -8 -10 1762.00 160.532  14
   1   9 -15 987.427 113.692  12
   1   9 -14 967.598 106.441  12
   1   9 -14 1092.72 126.785   7
  -1  -9  14 916.322 116.865   3
   1   9 -13 1194.26 107.480  12
   1   9 -13 1287.33 116.896   6
   1   9 -13 989.882 116.504   7
  -1  -9  13 1000.17 116.372   3
   1   9 -12 290.192 65.9979  12
   1   9 -12 189.468 64.8189   6
  -1  -9  12 307.372 77.0881  13
   1   9 -12 395.791 82.9742   7
   1   9 -11 6845.83 251.103  12
   1   9 -11 7265.46 274.280   6
  -1  -9  11 6971.09 279.659  13
   1   9 -11 6620.30 270.707   7
  -1  -9  10 9517.27 334.131  13
   1   9 -10 10010.8 329.918   6
   1   9 -10 9184.82 298.357  12
  -1  -9  10 8540.04 282.058  10
   1   9 -10 9285.48 321.168   7
   1   9  -9 241.428 51.9212  12
   1   9  -9 297.269 65.3165   6
  -1  -9   9 280.906 66.6857  13
   1   9  -9 356.737 67.7081   7
   1   9  -8 8698.13 279.263  12
   1   9  -8 9657.57 313.752   6
  -1  -9   8 8994.72 315.371  13
   1   9  -8 9759.29 306.485   7
   1   9  -7 12811.8 376.429  11
   1   9  -7 11938.6 344.237  12
   1   9  -7 12514.0 379.050   6
  -1  -9   7 12081.0 385.311  13
   1   9  -7 12050.7 363.505   7
   1   9  -6 1062.62 86.1086  11
   1   9  -6 1360.92 96.3048   6
  -1  -9   6 1208.10 94.7977  13
  -1  -9   6 1174.79 69.6170  12
   1   9  -6 1220.26 83.6989   7
  -1  -9   5-4.12465 34.1876  14
  -1  -9   5 53.3456 40.8326  13
  -1  -9   5 25.8333 26.8637  12
   1   9  -5 57.8982 39.0968   6
   1   9  -5 54.1178 37.9240  11
   1   9  -5 44.5326 33.9832   7
  -1  -9   4 11.9627 35.1687  14
   1   9  -4 48.8581 33.2768   7
   1   9  -4 99.8060 43.5160   6
  -1  -9   4 2.47319 28.8846  12
   1   9  -4 22.0284 38.8548  11
  -1  -9   4 39.0818 31.7379   7
  -1  -9   3 3271.02 118.005  12
   1   9  -3 3100.38 145.561   6
   1   9  -3 3191.75 143.550  11
  -1  -9   3 3039.54 135.811  14
   1   9  -3 2739.85 122.076   7
  -1  -9   3 3070.97 125.159   7
  -1  -9   2 11349.5 293.057  14
  -1  -9   2 11642.0 262.985  12
   1   9  -2 11072.4 299.514  11
   1   9  -2 11229.3 275.223   7
  -1  -9   2 11661.7 273.189   7
   1   9  -2 11548.5 309.893   6
   1   9  -1 5590.03 208.467   6
  -1  -9   1 5480.18 197.852  14
  -1  -9   1 5703.63 175.649  12
   1   9  -1 6134.41 208.790  11
   1   9  -1 5616.43 182.559   7
  -1  -9   1 5487.17 177.889   7
   1   9   0 44.1557 42.4212   6
  -1  -9   0 30.6528 34.9393  14
  -1  -9   0 45.5987 35.8961  12
   1   9   0 35.6480 39.0476  11
  -1  -9   0 51.7649 33.8381   7
  -1  -9  -1 11390.8 332.068  12
   1   9   1 12240.5 367.403  11
  -1  -9  -1 12657.5 367.162  14
   1   9   1 12328.0 373.459   6
   1   9   2 11255.3 353.594  11
   1   9   2 11204.5 361.665   6
  -1  -9  -2 12109.4 361.866  14
  -1  -9  -3 85.0215 51.7984  14
   1   9   3 63.7982 47.8423  11
   1   9   3 76.9852 49.4527   6
   1   9   4 1439.90 103.959  11
  -1  -9  -4 1314.77 104.592  14
   1   9   5 1299.02 103.591  11
  -1  -9  -5 1227.97 107.920  14
   1   9   6 2703.91 150.828  11
  -1  -9  -6 2540.55 155.949  14
  -1  -9  -7 681.101 103.104  14
  -1  -9  -8 88.7722 84.1248  10
  -1  -9  -8 78.8964 73.7258  14
  -1  -9  -9 427.194 108.209  10
  -1  -9  -9 448.291 104.104  14
   1  10 -14 467.562 88.1910  12
  -1 -10  14 540.941 101.046   3
   1  10 -13 19.0380 61.4995  12
   1  10 -13-8.49895 72.4700   7
  -1 -10  13 59.3910 69.7890   3
  -1 -10  12 81.7838 72.1266  13
   1  10 -12 70.8322 65.2482   6
   1  10 -12 74.3367 55.7253  12
   1  10 -12 61.0204 64.5972   7
  -1 -10  12 8.12709 60.5798   3
   1  10 -11 528.698 72.7098  12
   1  10 -11 622.391 88.8421   6
  -1 -10  11 543.536 87.2686  13
   1  10 -11 573.603 84.2852   7
  -1 -10  10 7901.00 302.936  13
   1  10 -10 7933.19 293.134   6
   1  10 -10 7515.71 262.050  12
  -1 -10  10 7068.25 260.007  10
   1  10 -10 8018.81 291.907   7
   1  10  -9 3815.79 163.016  12
   1  10  -9 4002.02 189.444   6
   1  10  -9 3818.17 180.641   7
  -1 -10   9 3966.88 194.957  13
   1  10  -8 392.869 56.7773  12
   1  10  -8 378.139 71.0540   6
   1  10  -8 287.493 63.6493   7
  -1 -10   8 298.342 71.2132  13
   1  10  -7 10435.8 339.637  11
   1  10  -7 11052.9 350.331   6
   1  10  -7 10440.1 329.819   7
  -1 -10   7 9999.52 352.540  13
  -1 -10   6 14557.8 453.537  13
   1  10  -6 14958.8 436.934  11
   1  10  -6 15086.8 445.737   6
   1  10  -6 14479.5 421.473   7
  -1 -10   6 14799.0 430.363  14
  -1 -10   5 378.654 60.6587  14
   1  10  -5 246.670 56.0359  11
   1  10  -5 288.927 52.1455   7
   1  10  -5 273.084 62.8665   6
   1  10  -4 3257.05 154.878  11
  -1 -10   4 3426.25 152.477  14
   1  10  -4 3554.24 166.048   6
   1  10  -4 3414.12 144.034   7
  -1 -10   4 3243.77 139.972   7
   1  10  -3 1361.14 98.3368  11
  -1 -10   3 1502.32 98.7239  14
   1  10  -3 1506.86 105.559   6
   1  10  -3 1462.50 90.4698   7
   1  10  -2 2363.61 127.580  11
  -1 -10   2 2436.25 125.020  14
   1  10  -2 2158.08 109.020   7
   1  10  -2 2295.79 131.560   6
   1  10  -1 4070.53 173.617   6
  -1 -10   1 3750.77 159.312  14
   1  10  -1 3614.43 159.712  11
   1  10  -1 3832.39 140.973   7
   1  10   0 483.036 70.7336   6
   1  10   0 389.868 62.1192  11
   1  10   1 1452.64 102.167  11
   1  10   1 1493.10 110.437   6
  -1 -10  -1 1523.21 108.380  14
   1  10   2 8729.70 294.449  11
   1  10   2 8437.58 302.674   6
  -1 -10  -2 8633.08 298.207  14
  -1 -10  -3 4815.31 211.826  14
   1  10   3 5225.41 212.222  11
   1  10   4 367.469 71.2267  11
  -1 -10  -4 435.184 77.6183  14
  -1 -10  -5 4006.68 201.971  14
   1  10   5 4189.89 194.089  11
  -1 -10  -6 2230.01 157.504  14
  -1 -10  -7 580.637 101.955  14
  -1 -10  -8-18.6863 83.4505  14
  -1 -11  13 436.468 92.3427   3
  -1 -11  12 443.651 95.3121  13
   1  11 -12 544.771 78.1270  12
  -1 -11  12 336.844 90.9933   3
   1  11 -12 431.874 85.5749   7
  -1 -11  11 1050.71 117.331  13
   1  11 -11 1213.79 112.850   6
   1  11 -11 969.927 90.2292  12
  -1 -11  11 1008.56 108.213   3
   1  11 -11 1119.83 112.647   7
   1  11 -10 486.715 69.6288  12
   1  11 -10 488.551 81.0822   6
   1  11 -10 428.647 79.8315   7
  -1 -11  10 480.714 91.5954  13
   1  11  -9 1557.44 103.136  12
   1  11  -9 1649.71 124.347   6
  -1 -11   9 1851.49 138.523  13
   1  11  -9 1644.76 119.917   7
   1  11  -8 2132.11 138.669   6
   1  11  -8 1747.19 119.527   7
  -1 -11   8 2020.33 143.178  13
   1  11  -7 886.889 89.6371  11
   1  11  -7 881.731 93.8808   6
  -1 -11   7 878.094 88.4469  14
   1  11  -7 947.048 89.1045   7
   1  11  -6 8709.70 307.999  11
   1  11  -6 9784.71 323.951   6
  -1 -11   6 9262.05 306.379  14
   1  11  -6 8762.19 294.969   7
   1  11  -5 7593.16 274.721  11
  -1 -11   5 7660.97 267.086  14
   1  11  -5 7463.51 255.845   7
   1  11  -5 7686.45 280.956   6
   1  11  -4 93.1618 61.6553   6
   1  11  -4 20.9224 47.2138   7
   1  11  -4 82.4166 49.7046  11
  -1 -11   4 24.9359 49.8772  14
   1  11  -3 8206.17 284.284  11
   1  11  -3 8449.83 294.435   6
  -1 -11   3 7778.10 273.662  14
   1  11  -3 7884.29 259.794   7
   1  11  -2 4567.29 196.373  11
  -1 -11   2 4797.84 196.523  14
   1  11  -2 4369.10 173.868   7
   1  11  -2 4850.77 206.221   6
   1  11  -1 312.355 67.5186   6
  -1 -11   1 208.329 59.8196  14
   1  11  -1 275.157 62.5945  11
   1  11   0 462.560 74.2248   6
  -1 -11   0 433.433 71.0117  14
   1  11   0 559.748 78.8819  11
   1  11   1-6.20331 54.7160   6
   1  11   1 84.8477 52.7294  11
  -1 -11  -1 110.325 59.2333  14
   1  11   2 1858.48 123.816  11
   1  11   2 1863.00 134.000   6
  -1 -11  -2 2031.40 132.404  14
  -1 -11  -3 2622.16 155.418  14
   1  11   3 2616.33 152.464  11
  -1 -11  -4 1963.60 141.755  14
   1  11   4 1700.38 125.625  11
  -1 -11  -5 390.729 88.4905  14
  -1 -11  -6 3356.60 200.274  14
   1  12 -11 1869.28 145.503   7
  -1 -12  11 2056.25 167.298  13
   1  12 -10 1775.71 134.317   7
  -1 -12  10 1781.82 152.861  13
   1  12 -10 1576.54 131.887   6
   1  12  -9 119.756 66.5535   6
   1  12  -9 291.480 73.0781   7
   1  12  -8 382.213 77.6013   6
  -1 -12   8 269.233 65.7280  14
   1  12  -8 293.927 69.3588   7
  -1 -12   7 337.231 66.2775  14
   1  12  -7 358.912 73.2571  11
   1  12  -7 314.052 65.9461   7
   1  12  -7 345.969 75.7236   6
   1  12  -6 1898.80 131.072  11
  -1 -12   6 1624.15 116.782  14
   1  12  -6 1632.08 113.914   7
   1  12  -5 5531.33 232.520  11
   1  12  -5 5656.61 238.944   6
  -1 -12   5 5689.77 225.321  14
   1  12  -5 5212.62 208.135   7
   1  12  -4 2096.75 136.458  11
   1  12  -4 1875.26 135.049   6
  -1 -12   4 2268.40 131.661  14
   1  12  -4 2096.14 120.675   7
   1  12  -3 923.893 99.7238  11
   1  12  -3 925.770 101.488   6
  -1 -12   3 886.708 91.7049  14
   1  12  -3 883.162 80.9098   7
   1  12  -2 7318.56 280.657  11
   1  12  -2 7589.26 288.781   6
  -1 -12   2 7884.30 280.418  14
   1  12  -2 7470.01 253.465   7
   1  12  -1 5213.03 222.204  11
  -1 -12   1 5143.94 220.096  14
   1  12  -1 5119.40 228.541   6
   1  12   0 198.994 69.3350   6
  -1 -12   0 147.259 65.3214  14
   1  12   0 73.6477 59.8692  11
   1  12   1 239.659 74.0577   6
   1  12   1 301.016 72.4024  11
  -1 -12  -1 300.982 72.2230  14
   1  12   2 908.733 99.5184  11
  -1 -12  -2 833.561 103.639  14
  -1 -12  -3 2172.30 149.907  14
  -1 -12  -4 961.111 109.382  14
   1  13 -10 4174.52 212.525   7
   1  13  -9 3657.04 190.658   7
   1  13  -8 125.138 64.0497   7
   1  13  -8 241.090 79.1625   6
   1  13  -7 752.852 99.1334   6
   1  13  -7 607.681 82.9297   7
  -1 -13   6 415.751 75.0978  14
   1  13  -6 453.726 85.1434  11
   1  13  -6 501.506 90.5663   6
   1  13  -6 366.272 71.8029   7
  -1 -13   5 905.644 96.7721  14
   1  13  -5 814.604 99.9325  11
   1  13  -5 666.635 98.1420   6
   1  13  -5 664.806 79.5531   7
   1  13  -4 2380.65 153.416  11
  -1 -13   4 2307.85 142.442  14
   1  13  -4 2309.88 131.796   7
   1  13  -4 2372.34 157.683   6
   1  13  -3 458.497 86.3577   6
   1  13  -3 259.222 59.4468   7
   1  13  -3 319.999 78.7325  11
  -1 -13   3 300.303 70.5759  14
   1  13  -2 1080.67 112.490  11
   1  13  -2 1042.39 112.889   6
  -1 -13   2 985.767 104.206  14
   1  13  -1 6126.11 251.041  11
   1  13  -1 5424.12 250.216   6
  -1 -13   1 5567.19 241.129  14
   1  13   0 2733.58 163.549  11
  -1 -13   0 2781.65 165.604  14
   1  13   0 2748.44 169.064   6
   1  13   1 600.636 92.7462  11
  -2  15  -2 3250.10 181.348   7
  -2  15  -4-12.1036 105.333   8
  -2  15  -5 304.431 107.267   8
   2 -14  -1 893.433 113.629  14
  -2  14   1 842.386 139.715   8
   2 -14   0 2453.05 166.613  14
  -2  14   0 2349.13 210.432   8
   2 -14   1 333.123 84.1406  14
  -2  14  -1 157.311 107.782   8
  -2  14  -1 398.137 78.8997   7
  -2  14  -2 1164.52 108.959   7
   2 -14   2 1104.16 112.748  14
   2 -14   3 5860.73 266.384  13
  -2  14  -3 5486.41 235.965   7
  -2  14  -3 5554.35 313.780   8
   2 -14   3 5615.54 251.884  14
   2 -14   4 3673.60 210.296  13
   2 -14   4 3809.75 203.785  14
  -2  14  -4 3875.19 192.648   7
  -2  14  -4 4012.23 252.252   8
   2 -14   5 8.58890 64.5913  13
   2 -14   5 111.846 76.0473  14
  -2  14  -5 20.3983 83.8947   8
  -2  14  -5 6.62916 65.6125   7
   2 -14   6 2449.75 171.740  13
   2 -14   6 2297.11 158.503  14
  -2  14  -6 1983.10 142.654   7
  -2  14  -6 1972.48 160.132   8
   2 -14   7 1226.42 125.924  14
  -2  14  -7 1206.75 117.338   7
   2 -13  -4 1835.97 146.548  14
  -2  13   4 1790.05 171.262   8
   2 -13  -3 45.9454 67.9767  14
  -2  13   3 108.951 96.5665   8
   2 -13  -2 2259.16 151.865  14
   2 -13  -1 1676.70 131.017  14
  -2  13   1 1311.57 159.410   8
   2 -13   0 414.118 80.7406  14
  -2  13   0 525.886 116.993   8
  -2  13   0 300.986 72.2365   7
   2 -13   1 910.604 101.067  14
  -2  13  -1 922.237 92.2907   7
  -2  13  -1 1004.94 149.171   8
   2 -13   2 46.7512 58.5515  14
  -2  13  -2 175.439 104.190   8
  -2  13  -2 131.954 60.7814   7
   2 -13   3 2454.77 163.763  13
   2 -13   3 2941.50 165.745  14
  -2  13  -3 2698.86 208.034   8
  -2  13  -3 2349.36 143.165   7
  -2  13  -3 2688.72 144.949   6
   2 -13   4 7715.30 303.407  13
  -2  13  -4 7727.76 344.612   8
  -2  13  -4 7210.70 274.172   7
   2 -13   5 2889.69 180.774  13
  -2  13  -5 3153.82 169.663   7
  -2  13  -5 3060.30 201.521   8
   2 -13   5 3245.94 179.042  14
   2 -13   6 1214.06 126.448  13
  -2  13  -6 894.769 99.7411   7
  -2  13  -6 1020.41 117.623   8
   2 -13   6 919.472 103.463  14
   2 -13   7 6511.65 290.175  13
  -2  13  -7 6322.99 271.121   8
  -2  13  -7 6663.53 269.521   7
  -2  13  -8 2430.09 154.085  12
   2 -13   8 2859.53 187.446  13
  -2  13  -8 2458.02 162.826   7
  -2  13  -9 77.1239 65.7531  12
   2 -13   9 124.665 79.4947  13
  -2  13  -9 102.254 76.6652   7
  -2  13 -10 81.2138 68.8264  12
  -2  13 -11 349.933 104.836   1
   2 -12  -6 32.4644 69.2046  14
  -2  12   6-10.7608 87.8485   8
   2 -12  -5 1720.90 139.925  14
  -2  12   5 1388.98 151.986   8
   2 -12  -4 4555.90 224.068  14
  -2  12   4 4958.63 277.177   8
   2 -12  -3 2203.75 146.915  14
  -2  12   3 1995.38 177.212   8
   2 -12  -2 458.220 80.5897  14
  -2  12   2 515.565 69.5907  11
   2 -12  -1 6785.43 266.217  14
  -2  12   1 6677.14 335.203   8
  -2  12   1 6610.89 241.187  11
   2 -12   0 4434.70 204.760  14
  -2  12   0 4552.18 273.801   8
  -2  12   0 4635.47 194.569   7
   2 -12   1-6.11314 51.4083  14
  -2  12  -1 126.005 57.3214   7
   2 -12   2 158.789 57.9785  14
  -2  12  -2 132.724 53.5192   6
  -2  12  -2 121.359 55.4422   7
   2 -12   3 230.100 65.5885  13
   2 -12   3 337.426 67.3179  14
  -2  12  -3 178.507 87.8297   8
  -2  12  -3 318.968 63.4917   7
  -2  12  -3 400.373 63.6960   6
   2 -12   4 3288.25 184.607  13
   2 -12   4 3435.28 176.126  14
  -2  12  -4 3451.07 168.822   7
  -2  12  -4 3353.96 214.064   8
  -2  12  -4 3647.54 159.600   6
   2 -12   5 6169.01 263.647  13
   2 -12   5 6176.44 251.872  14
  -2  12  -5 5763.85 235.503   7
  -2  12  -5 5640.80 272.407   8
  -2  12  -5 6454.57 224.839   6
  -2  12  -6 733.401 97.2870   8
  -2  12  -6 857.222 93.9210   7
   2 -12   6 732.727 97.5817  13
  -2  12  -7 2853.60 156.396  12
  -2  12  -7 2676.83 158.596   8
  -2  12  -7 2543.52 154.631   7
   2 -12   7 3103.48 181.509  13
  -2  12  -8 9439.79 327.666  12
  -2  12  -8 8892.34 310.575   8
  -2  12  -8 9066.80 332.923   7
   2 -12   8 9508.22 359.958  13
  -2  12  -9 2514.82 156.494  12
  -2  12  -9 2161.31 154.565   7
   2 -12   9 2424.93 171.164  13
  -2  12 -10 717.748 99.7636  12
  -2  12 -10 667.159 103.836   7
   2 -12  10 556.598 106.203  13
  -2  12 -11 1651.06 141.665  12
  -2  12 -11 1341.93 134.207   1
  -2  12 -11 1672.94 145.937   7
   2 -12  11 1522.82 160.280  13
  -2  11   8 1508.07 152.160   8
   2 -11  -8 1537.71 141.015  14
   2 -11  -7 189.630 75.4154  14
  -2  11   7 49.2477 78.0226   8
  -2  11   7 215.598 58.1163   9
   2 -11  -6 22.3626 55.5524  14
  -2  11   6-59.9678 84.6281   8
  -2  11   6-9.09793 43.1251   9
   2 -11  -5 140.416 64.6850  14
  -2  11   5-40.6895 69.3519   8
  -2  11   5 103.505 42.3903   9
   2 -11  -4 2636.01 157.406  14
  -2  11   4 2656.77 112.267   9
  -2  11   4 2635.19 192.917   8
   2 -11  -3 6589.66 254.224  14
  -2  11   3 5699.30 178.899   9
  -2  11   3 5949.36 299.083   8
   2 -11  -3 6375.51 200.565  11
  -2  11   3 6143.10 216.827  11
  -2  11   2 696.124 39.9925   9
   2 -11  -2 858.602 89.6249  14
  -2  11   2 831.420 74.2596  11
   2 -11  -2 773.330 63.3827  11
   2 -11  -1 4761.97 202.863  14
  -2  11   1 4115.06 179.475   7
  -2  11   1 4514.43 178.321  11
   2 -11  -1 4620.36 167.314  11
   2 -11   0 11695.7 372.275  13
  -2  11   0 11619.2 349.249  11
   2 -11   0 11459.6 332.826  11
   2 -11   0 11594.0 370.016  14
  -2  11   0 11453.0 354.664   7
   2 -11   1 4898.52 203.207  14
  -2  11  -1 4719.88 204.365   5
  -2  11  -1 4234.43 182.651   7
  -2  11  -1 4674.82 185.507   6
   2 -11   2 1112.61 95.7668  14
  -2  11  -2 1136.74 91.4619   7
  -2  11  -2 1284.16 88.6140   6
   2 -11   2 1077.28 78.1776   6
   2 -11   3 4012.84 194.858  13
   2 -11   3 4059.51 185.699  14
  -2  11  -3 4162.07 179.366   7
  -2  11  -3 4489.45 172.500   6
   2 -11   3 4216.00 159.654   6
   2 -11   4 3160.88 170.126  13
   2 -11   4 3415.09 168.030  14
   2 -11   4 3132.27 132.964   6
  -2  11  -4 3712.70 150.878   6
  -2  11  -4 3451.17 207.263   8
  -2  11  -4 3255.05 157.028   7
  -2  11  -5 3011.04 134.302   6
   2 -11   5 2495.63 113.974   6
  -2  11  -5 2865.19 148.810   7
  -2  11  -5 2863.25 173.361   8
   2 -11   5 3038.51 165.227  13
  -2  11  -6 2265.67 129.885  12
  -2  11  -6 2302.88 116.292   6
   2 -11   6 1911.03 138.461  13
  -2  11  -6 2235.36 133.235   7
  -2  11  -6 2146.36 141.270   8
   2 -11   7-21.8280 59.8559  13
  -2  11  -7 16.6952 49.7149   8
  -2  11  -7 85.1233 54.9983   7
  -2  11  -7 93.4472 54.9695  12
   2 -11   8 5761.14 251.523  13
  -2  11  -8 4904.34 199.518   8
  -2  11  -8 5200.71 228.920   7
  -2  11  -8 5110.53 220.459  12
   2 -11   9 10751.5 387.207  13
  -2  11  -9 9916.36 359.947   7
  -2  11  -9 9965.82 349.683  12
  -2  11 -10 1741.24 133.980  12
   2 -11  10 1967.94 159.831  13
  -2  11 -11 1319.55 127.466  12
  -2  11 -11 1555.65 129.294   1
   2 -11  11 1442.33 144.642  13
   2 -11  12 3945.41 241.609  13
  -2  11 -12 3742.77 210.641  12
   2 -11  13 473.003 119.166  13
  -2  10  11 1674.55 142.495   9
  -2  10  10 151.923 75.4845   9
  -2  10  10 221.169 88.5472   8
  -2  10   9 689.283 101.282   9
  -2  10   9 661.307 110.904   8
   2 -10  -9 917.845 111.333  14
  -2  10   8 2784.52 163.758   9
  -2  10   8 3040.40 200.493   8
   2 -10  -8 3094.15 181.953  14
  -2  10   7 2866.55 169.753   1
   2 -10  -7 2984.92 173.359  14
  -2  10   7 2816.49 185.505   8
  -2  10   7 2608.07 148.883   9
   2 -10  -6 20.4292 53.0059  14
  -2  10   6 9.18208 65.8937   8
  -2  10   6-4.66597 44.2339   9
   2 -10  -5 3146.32 166.068  14
  -2  10   5 2730.93 128.739   9
  -2  10   5 3069.00 196.060   8
   2 -10  -4 1876.47 124.105  14
  -2  10   4 1813.71 91.8681   9
  -2  10   4 2037.77 161.248   8
  -2  10   4 2004.16 102.426  11
   2 -10  -3 1977.99 124.900  14
  -2  10   3 1945.87 86.1250   9
  -2  10   3 2078.68 166.901   8
  -2  10   3 2101.10 104.239  11
   2 -10  -3 2118.91 95.1959  11
   2 -10  -2 2418.97 106.383  11
  -2  10   2 2416.16 113.700  11
  -2  10   2 2329.86 85.2629   9
   2 -10  -2 2439.07 135.478  14
   2 -10  -1 49.0924 30.1711   3
   2 -10  -1 20.3107 40.8373  14
   2 -10  -1 81.3834 44.8675  13
   2 -10  -1 45.0488 38.4040   6
  -2  10   1 59.6391 40.1747   7
  -2  10   1 66.2381 36.0622  11
   2 -10  -1 55.2135 35.5681  11
  -2  10   1 53.8442 38.4729   5
   2 -10   0 7227.69 256.360  14
   2 -10   0 6925.97 254.237  13
  -2  10   0 7376.51 240.468  11
   2 -10   0 7315.11 227.378  11
   2 -10   0 7025.28 236.782   6
  -2  10   0 7606.99 256.110   5
   2 -10   0 7246.35 219.114   3
  -2  10   0 7026.35 243.754   7
   2 -10   1 18760.8 508.600  14
   2 -10   1 17116.5 474.272   6
  -2  10  -1 18041.5 484.698   6
   2 -10   1 17766.1 472.753  11
   2 -10   1 17811.2 479.917  12
  -2  10  -1 18401.6 521.803   5
   2 -10   1 17823.1 464.346   3
  -2  10  -1 17722.1 491.292   7
   2 -10   2 5274.94 211.917  14
   2 -10   2 4933.71 214.622  13
   2 -10   2 5448.90 194.447  12
  -2  10  -2 5964.60 200.048   6
   2 -10   2 5687.97 191.279   6
   2 -10   2 5753.03 197.249  11
  -2  10  -2 6168.21 247.806   5
  -2  10  -2 5844.00 209.760   7
   2 -10   3 5407.21 210.768  14
   2 -10   3 4798.58 210.772  13
  -2  10  -3 5448.39 188.602   6
   2 -10   3 5217.99 178.544   6
   2 -10   3 5623.75 195.545  11
  -2  10  -3 5171.14 199.169   7
  -2  10  -3 5620.76 250.601   5
  -2  10  -4 20183.8 534.470  12
  -2  10  -4 20723.6 514.971   6
   2 -10   4 18317.8 495.030   6
  -2  10  -4 18921.2 588.313   8
  -2  10  -4 18712.5 531.778   7
   2 -10   4 19830.2 554.769  13
  -2  10  -5 3235.51 148.801  12
  -2  10  -5 3473.59 136.085   6
   2 -10   5 3062.00 120.459   6
  -2  10  -5 3381.78 176.534   8
  -2  10  -5 3053.96 150.824   7
   2 -10   5 3166.15 164.619  13
  -2  10  -6 33.8388 41.2421  12
  -2  10  -6 66.4511 38.8176   6
  -2  10  -6 68.6181 48.3422   7
  -2  10  -6 72.5074 48.5580   8
   2 -10   6 76.0380 54.7922  13
  -2  10  -7 103.765 50.2858  12
  -2  10  -7 33.3286 34.1661   6
  -2  10  -7 13.8903 41.6245   8
   2 -10   7 26.9207 52.8285  13
  -2  10  -8 795.675 84.4669  12
  -2  10  -8 615.075 64.5034   8
   2 -10   8 824.378 95.5114  13
  -2  10  -9 6103.79 244.662  12
   2 -10   9 6514.59 275.556  13
  -2  10  -9 5799.68 189.695   8
   2 -10  10 6211.16 286.117  13
  -2  10 -10 6040.92 263.877   1
  -2  10 -10 6479.04 261.523  12
  -2  10 -11 401.334 88.1226  12
  -2  10 -11 409.233 77.3632   1
   2 -10  11 365.669 95.6397  13
  -2  10 -11 379.114 85.8470   7
  -2  10 -12 3747.82 207.365  12
   2 -10  12 4251.63 251.210  13
  -2  10 -12 3625.36 212.120   7
  -2  10 -13 4140.89 228.149  12
  -2  10 -13 4239.77 239.376   7
   2 -10  13 4380.10 254.416  13
   2 -10  14 654.584 120.734  13
  -2   9  12 732.136 104.862   9
  -2   9  11 494.527 93.6214   9
  -2   9  11 551.593 95.0925   8
  -2   9  10 1214.05 118.543   9
  -2   9  10 1532.76 136.310   8
   2  -9 -10 1514.16 139.670  14
  -2   9   9 282.324 77.2382   9
  -2   9   9 146.944 75.8147   8
   2  -9  -9 278.719 78.1737  14
  -2   9   8 3240.87 167.669   1
  -2   9   8 2830.86 167.282   9
  -2   9   8 3315.76 194.102   8
   2  -9  -8 3047.21 177.009  14
  -2   9   7 6942.37 267.780   1
   2  -9  -7 6950.93 270.495  14
  -2   9   7 6767.16 289.488   8
  -2   9   7 6106.63 247.180   9
   2  -9  -6 2386.20 141.850  14
  -2   9   6 2258.80 124.870   9
  -2   9   6 2418.46 167.409   8
  -2   9   5 1030.06 68.8964  11
   2  -9  -5 1180.18 97.5564  14
  -2   9   5 1095.60 79.0933   9
  -2   9   5 1283.76 123.634   8
   2  -9  -4 11684.3 310.366   3
   2  -9  -4 11234.3 355.475  14
  -2   9   4 10662.7 307.913  11
   2  -9  -4 10812.2 296.451  11
  -2   9   4 10912.9 312.448   9
  -2   9   4 11642.5 414.680   8
   2  -9  -3 5242.72 168.921   3
   2  -9  -3 5355.56 207.650  14
  -2   9   3 5038.81 197.874  13
   2  -9  -3 5308.08 198.030   6
  -2   9   3 5094.13 173.603  11
   2  -9  -3 5169.81 164.734  11
  -2   9   3 4917.66 161.826   9
   2  -9  -3 5243.42 188.288   7
  -2   9   3 5033.63 254.921   8
  -2   9   2 81.6350 32.3400   5
   2  -9  -2 134.789 31.7771   3
   2  -9  -2 85.4682 39.9912  14
  -2   9   2 117.115 40.2561  13
   2  -9  -2 91.1217 39.6832   6
   2  -9  -2 95.9018 37.1415  12
   2  -9  -2 61.3913 28.0232  11
  -2   9   2 130.574 23.9073   9
  -2   9   2 122.938 31.4342  11
   2  -9  -2 128.384 40.9490   7
  -2   9   1 1022.49 71.7396   5
   2  -9  -1 745.971 54.8229   3
   2  -9  -1 891.045 75.4890  14
   2  -9  -1 951.853 75.5119  13
  -2   9   1 853.468 72.9925  13
   2  -9  -1 771.997 65.5011   6
  -2   9   1 732.671 59.0220  11
   2  -9  -1 851.308 58.4918  11
   2  -9  -1 815.457 65.0555  12
  -2   9   1 783.570 37.9058   9
  -2   9   1 924.020 72.3028   7
   2  -9  -1 960.607 72.1298   7
   2  -9   0 1289.06 88.2558  14
  -2   9   0 1141.75 83.0968  13
   2  -9   0 1140.16 74.3825   6
  -2   9   0 1249.48 80.4818  11
   2  -9   0 1173.21 76.5607  12
   2  -9   0 1268.32 72.2012  11
   2  -9   0 1253.29 69.3938   3
  -2   9   0 1258.29 89.5822   5
   2  -9   0 1222.08 78.4660   7
  -2   9   0 1200.23 80.0721   7
   2  -9   1 14526.6 417.649  14
  -2   9  -1 14190.5 412.143  13
   2  -9   1 14179.4 391.760   6
  -2   9  -1 14635.6 398.962   6
   2  -9   1 14508.9 398.271  12
   2  -9   1 15061.7 393.963  11
  -2   9  -1 15098.3 439.336   5
  -2   9  -1 14506.4 408.415   7
   2  -9   1 14651.8 400.852   7
   2  -9   2 17927.7 483.969  14
   2  -9   2 17799.6 459.780  12
  -2   9  -2 16983.6 474.511  13
  -2   9  -2 16964.9 455.804   6
   2  -9   2 16820.8 446.792   6
   2  -9   2 17716.3 457.358  11
  -2   9  -2 18391.0 524.783   5
   2  -9   2 17550.3 463.535   7
  -2   9  -2 17274.8 470.356   7
   2  -9   3 400.068 60.4769  13
  -2   9  -3 479.511 59.1598  13
   2  -9   3 476.087 46.3452   6
  -2   9  -3 356.402 54.7333   7
  -2   9  -3 508.189 48.9602   6
   2  -9   3 489.165 55.1767  12
   2  -9   3 561.041 56.7478  11
  -2   9  -3 477.629 80.6185   5
   2  -9   3 546.813 57.9584   7
  -2   9  -4 10255.3 319.388  13
   2  -9   4 10516.4 305.969  12
   2  -9   4 10655.4 338.170  13
  -2   9  -4 11223.7 299.978   6
   2  -9   4 10256.7 286.862   6
  -2   9  -4 10298.4 316.258  12
   2  -9   4 10184.3 311.981  11
  -2   9  -4 10375.0 358.132   8
   2  -9   4 10245.1 310.279   7
  -2   9  -4 11263.6 387.138   5
   2  -9   5 20608.2 560.678  11
  -2   9  -5 21211.8 563.804  12
   2  -9   5 21405.2 589.775  13
   2  -9   5 21292.2 551.021  12
  -2   9  -5 20235.3 585.478   8
  -2   9  -5 21822.4 628.646   5
   2  -9   6 3431.15 168.547  13
  -2   9  -6 3466.39 154.699   8
  -2   9  -6 3274.84 150.904  12
   2  -9   7 542.118 74.1977  13
  -2   9  -7 641.791 60.8212   8
  -2   9  -7 531.382 67.8851  12
   2  -9   8 3942.70 191.821  13
  -2   9  -8 3603.44 177.071   7
  -2   9  -8 3533.65 134.141   8
  -2   9  -8 3573.71 169.671  12
   2  -9   9 2549.78 160.475  13
  -2   9  -9 2537.48 141.755  12
  -2   9  -9 2151.98 85.1535   8
  -2   9  -9 2250.79 138.979   7
  -2   9 -10 2737.26 157.533  12
  -2   9 -10 2919.63 160.272   1
  -2   9 -10 2740.25 161.700   7
   2  -9  10 2963.69 182.811  13
  -2   9 -11 1301.67 109.294   1
   2  -9  11 1563.28 142.092  13
  -2   9 -11 1414.08 120.938  12
  -2   9 -11 1629.34 128.364   7
  -2   9 -12 118.181 67.2383  12
  -2   9 -12 211.763 61.6463   1
   2  -9  12 50.7676 79.7380  13
  -2   9 -12 85.8094 62.8377   7
  -2   9 -13 3849.95 218.032  12
   2  -9  13 3934.97 231.138  13
  -2   9 -13 3764.33 222.762   7
  -2   9 -14 4452.27 249.705  12
   2  -9  14 4956.17 251.466  13
  -2   8  12 1429.33 132.290   9
   2  -8 -11 2724.49 185.240  14
  -2   8  11 2480.68 166.739   9
  -2   8  11 2538.79 163.963   8
   2  -8 -10 340.016 81.6071  14
  -2   8  10 397.226 80.8943   9
  -2   8  10 278.857 71.9283   8
  -2   8  10 391.229 67.2429   3
   2  -8  -9 7.38950 59.8676  14
  -2   8   9-14.8105 60.4551   9
  -2   8   9 22.1005 59.6840   8
  -2   8   9 18.4330 41.6775   3
   2  -8  -8 53.3571 54.0589  14
  -2   8   8 97.4413 41.0339   3
  -2   8   8 47.5867 50.4315   1
  -2   8   8 54.3140 53.3090   9
  -2   8   8 95.2438 60.2840   8
   2  -8  -7 7152.75 227.455   4
  -2   8   7 7156.77 265.316   1
  -2   8   7 7234.14 256.325  13
   2  -8  -7 7135.81 272.119  14
  -2   8   7 7113.17 267.420   9
  -2   8   7 7836.99 299.322   8
   2  -8  -6 12753.1 346.766   3
   2  -8  -6 11998.4 385.357  14
  -2   8   6 12363.7 370.806  13
  -2   8   6 12302.1 328.139  11
  -2   8   6 11875.0 368.503   9
  -2   8   6 12202.6 417.139   8
   2  -8  -5 409.679 47.5977   3
   2  -8  -5 558.391 68.2177  14
  -2   8   5 417.568 60.6914  13
   2  -8  -5 423.547 54.7353   7
  -2   8   5 423.012 40.7538  11
  -2   8   5 384.790 54.7232   9
  -2   8   5 431.387 75.8941   8
   2  -8  -4 8325.48 272.238  14
  -2   8   4 8039.33 259.776  13
   2  -8  -4 7925.42 263.906   6
  -2   8   4 7801.70 202.891   5
   2  -8  -4 8037.16 219.301  11
  -2   8   4 7781.63 227.303  11
  -2   8   4 7786.95 237.819   9
  -2   8   4 8153.09 317.721   8
   2  -8  -4 7746.09 249.298   7
   2  -8  -3 19396.5 523.212  14
  -2   8   3 18180.3 511.705  13
   2  -8  -3 18349.1 507.939   6
  -2   8   3 19491.0 469.454   5
   2  -8  -3 19209.1 505.933  12
   2  -8  -3 19425.7 474.005  11
  -2   8   3 18836.9 480.883  11
  -2   8   3 18747.7 478.982   9
   2  -8  -3 19390.9 503.884   7
  -2   8   3 18797.6 588.635   8
  -2   8   2 11580.0 302.088   5
   2  -8  -2 10599.1 327.148  14
   2  -8  -2 11040.9 324.189  13
  -2   8   2 10791.9 322.542  13
   2  -8  -2 10731.2 316.680   6
   2  -8  -2 10851.8 291.481  11
   2  -8  -2 11031.5 314.285  12
  -2   8   2 10934.9 300.280  11
  -2   8   2 10992.0 284.473   9
  -2   8   2 10309.7 314.024   7
   2  -8  -2 11072.7 314.263   7
  -2   8   1 1249.23 75.8836   5
   2  -8  -1 1143.44 79.5911  14
  -2   8   1 1231.74 79.5465  13
   2  -8  -1 1156.35 78.7339  13
   2  -8  -1 1148.17 71.5625   6
  -2   8   1 1307.71 71.2354  11
   2  -8  -1 1106.21 72.7905  12
   2  -8  -1 1245.71 64.8551  11
  -2   8   1 1284.41 50.2996   9
  -2   8   1 1090.76 74.7936   7
   2  -8  -1 1076.99 71.3851   7
   2  -8   0 4231.14 166.795  14
  -2   8   0 4403.81 166.402  13
   2  -8   0 4391.70 154.512   6
  -2   8   0 4622.30 159.455   6
  -2   8   0 4523.08 158.092  11
   2  -8   0 4662.30 150.881  11
   2  -8   0 4473.58 158.742  12
  -2   8   0 4736.35 175.974   5
   2  -8   0 4644.45 161.156   7
  -2   8   0 4012.44 159.383   7
   2  -8   1 1926.01 101.439  14
  -2   8  -1 1879.94 98.6879  13
   2  -8   1 1755.89 84.3404   6
   2  -8   1 1913.46 92.2750  12
   2  -8   1 1795.33 85.7140  11
   2  -8   1 2100.69 96.8264   7
  -2   8  -1 1799.76 112.317   5
  -2   8  -2 6781.09 225.622  13
   2  -8   2 6390.51 229.833  13
   2  -8   2 6737.50 203.631   6
   2  -8   2 6740.90 211.870  11
   2  -8   2 6860.26 218.156   7
   2  -8   3 7626.12 255.931  13
  -2   8  -3 7412.08 242.697  13
   2  -8   3 7783.92 232.843  12
   2  -8   3 7413.91 215.035   6
  -2   8  -3 7489.72 239.976  12
   2  -8   3 7294.49 231.512  11
   2  -8   3 7908.37 237.767   7
  -2   8  -3 8214.44 305.142   5
   2  -8   4 54.2141 31.5994   7
  -2   8  -4 120.865 42.5914   8
  -2   8  -4 22.3452 31.7785  13
   2  -8   4 27.7293 36.5881  13
   2  -8   4 66.8955 24.4746   6
  -2   8  -4 31.0054 24.4716   6
  -2   8  -4 66.2609 33.9250  12
   2  -8   4 58.8160 32.3502  12
   2  -8   4 67.7354 33.6282  11
  -2   8  -4 69.0159 54.6222   5
  -2   8  -5 13524.2 381.747   8
   2  -8   5 13496.6 365.243   7
   2  -8   5 14219.7 399.826  13
   2  -8   5 14916.1 366.019  12
  -2   8  -5 13959.7 342.470   6
   2  -8   5 13633.0 373.073  11
  -2   8  -5 13732.5 372.729  12
   2  -8   5 13822.5 301.527   9
  -2   8  -5 14191.8 429.823   5
  -2   8  -6 28592.1 717.283  13
   2  -8   6 27366.2 700.246  12
   2  -8   6 29001.5 747.461  13
  -2   8  -6 29167.5 681.439   6
  -2   8  -6 27426.8 716.632  12
   2  -8   6 26843.4 718.731  11
  -2   8  -6 27835.8 703.676   8
  -2   8  -6 26123.3 718.099   7
   2  -8   6 27657.1 708.371   7
  -2   8  -6 28849.2 768.110   5
  -2   8  -7 1544.66 99.3818  12
  -2   8  -7 1391.70 72.2374   6
  -2   8  -7 1471.05 76.3840   8
  -2   8  -7 1210.79 90.9060   7
   2  -8   7 1359.80 86.3998  12
   2  -8   7 1324.23 103.575  13
  -2   8  -8 10421.9 334.221  12
   2  -8   8 11106.5 364.015  13
  -2   8  -8 10215.3 276.958   8
  -2   8  -8 11003.4 346.194   7
  -2   8  -9 6420.44 240.792  12
   2  -8   9 6798.57 267.491  13
  -2   8  -9 6603.21 248.677   7
  -2   8  -9 6858.18 248.631   1
  -2   8 -10 2227.95 132.426   1
   2  -8  10 2524.18 165.625  13
  -2   8 -10 2185.04 138.094  12
  -2   8 -10 2582.86 153.103   7
  -2   8 -11 685.630 88.3181  12
  -2   8 -11 547.508 72.1851   1
   2  -8  11 846.013 105.514  13
  -2   8 -11 773.960 94.6221   7
  -2   8 -12 190.436 67.7033  12
  -2   8 -12 105.156 50.8366   1
  -2   8 -12 109.979 61.9392   7
   2  -8  12 44.7729 64.3082  13
  -2   8 -13 640.192 106.425  12
  -2   8 -13 650.819 101.445   7
   2  -8  13 738.389 106.575  13
  -2   8 -14 3583.99 229.058   7
  -2   8 -14 3614.99 226.787  12
   2  -8  14 4004.25 211.484  13
  -2   7  13 184.952 77.9968   9
  -2   7  12 1314.05 120.498   3
  -2   7  12 1384.67 129.416   9
  -2   7  12 1802.11 129.482   8
   2  -7 -12 1462.33 143.963  14
  -2   7  11 2548.97 153.297   3
  -2   7  11 3115.64 177.710   9
  -2   7  11 2709.26 158.495   8
   2  -7 -11 2751.65 183.263  14
  -2   7  10 1452.31 109.214   3
   2  -7 -10 1458.52 127.443  14
  -2   7  10 1458.62 125.405   9
  -2   7  10 1641.08 123.822   8
   2  -7  -9 6.88873 52.7210  14
  -2   7   9 16.9519 43.0126   1
  -2   7   9 28.7746 41.7375   3
  -2   7   9-14.4819 57.2955   9
  -2   7   9 65.6005 59.3303   8
  -2   7   8 2210.41 116.116   3
   2  -7  -8 2124.79 104.984   4
   2  -7  -8 2272.20 138.975  14
  -2   7   8 2426.60 125.390  13
  -2   7   8 2239.73 123.498   1
  -2   7   8 2216.95 143.272   9
  -2   7   8 2552.58 149.544   8
   2  -7  -7 1576.03 84.3974   4
  -2   7   7 1428.67 87.9189   3
  -2   7   7 1553.36 102.775   1
   2  -7  -7 1540.04 107.831  14
  -2   7   7 1556.85 96.7444  13
  -2   7   7 1592.68 70.9637  11
  -2   7   7 1706.69 114.523   9
  -2   7   7 1358.86 111.846   8
  -2   7   6 2477.76 109.910   3
  -2   7   6 2455.06 133.912   1
   2  -7  -6 2664.67 111.617   3
   2  -7  -6 2627.37 134.467  14
  -2   7   6 2440.82 118.558  13
   2  -7  -6 2399.36 135.972   6
  -2   7   6 2265.52 89.0848  11
  -2   7   6 2214.61 122.743   9
   2  -7  -6 2586.08 121.093   7
  -2   7   6 2614.63 152.029   8
   2  -7  -5 5456.84 172.976   3
  -2   7   5 5303.99 193.170  14
   2  -7  -5 5326.45 199.990  14
  -2   7   5 5243.20 187.045  13
   2  -7  -5 5058.57 198.501   6
  -2   7   5 5113.36 154.793  11
  -2   7   5 4770.50 179.476   9
  -2   7   5 4813.48 221.440   8
   2  -7  -5 5280.55 184.679   7
   2  -7  -4 131.674 41.0834  14
  -2   7   4 138.740 37.1019  14
  -2   7   4 192.858 41.0841  13
  -2   7   4 146.305 18.2237   5
   2  -7  -4 135.333 38.1002   6
   2  -7  -4 174.153 38.9402   7
  -2   7   4 178.075 25.7383  11
  -2   7   4 210.760 35.4642   9
   2  -7  -4 115.612 23.5775  11
  -2   7   4 155.929 53.3186   8
   2  -7  -3 17097.3 445.897  14
  -2   7   3 16219.4 433.392  13
  -2   7   3 15839.0 393.940   5
   2  -7  -3 15994.9 432.747   6
  -2   7   3 15494.5 402.533  11
   2  -7  -3 16313.6 398.130  11
  -2   7   3 15828.0 409.415   9
  -2   7   3 16026.5 498.965   8
   2  -7  -3 16142.7 425.916   7
  -2   7   2 30125.3 702.734   5
   2  -7  -2 29686.0 732.876  14
   2  -7  -2 29096.2 727.863  13
  -2   7   2 28591.5 724.236  13
   2  -7  -2 29276.7 719.456   6
  -2   7   2 29617.0 702.331  11
   2  -7  -2 28806.7 718.230  12
   2  -7  -2 27596.8 692.162  11
  -2   7   2 29098.0 693.008   9
  -2   7   2 29113.6 812.137   8
   2  -7  -2 29932.9 719.957   7
  -2   7   1 4200.12 148.246   5
   2  -7  -1 4246.01 157.526  14
  -2   7   1 4305.96 156.058  13
   2  -7  -1 4359.66 156.836  13
   2  -7  -1 4158.88 145.893   6
  -2   7   1 4150.06 138.285  11
   2  -7  -1 4164.88 147.914  12
   2  -7  -1 4538.59 136.172  11
  -2   7   1 4131.47 120.972   9
   2  -7  -1 4180.39 147.866   7
   2  -7   0 13570.3 372.631  14
  -2   7   0 13294.2 368.919  13
   2  -7   0 12780.7 351.673   6
   2  -7   0 13471.0 348.306  11
   2  -7   0 13659.4 361.288  12
  -2   7   0 13839.7 356.730  11
  -2   7   0 13588.5 377.386   5
   2  -7   0 13789.6 363.359   7
   2  -7   1 22561.3 587.222  14
  -2   7  -1 21958.2 581.917  13
   2  -7   1 22416.6 561.499   6
  -2   7  -1 22918.3 565.019   6
   2  -7   1 22843.8 565.141  11
   2  -7   1 24064.9 575.912  12
  -2   7  -1 24028.2 614.048   5
   2  -7   1 22972.5 574.674   7
   2  -7   2 2803.50 108.764  12
  -2   7  -2 2457.13 111.429  13
   2  -7   2 2672.32 120.151  13
   2  -7   2 2538.18 93.9580   6
  -2   7  -2 2633.69 98.9697   6
   2  -7   2 2757.91 106.264  11
  -2   7  -2 2666.30 141.036   5
   2  -7   2 2664.03 108.961   7
  -2   7  -2 2443.21 144.426   8
  -2   7  -3 2446.94 111.286  13
   2  -7   3 2488.19 103.565  12
   2  -7   3 2347.34 117.170  13
  -2   7  -3 2693.27 94.1895   6
   2  -7   3 2511.96 89.2482   6
   2  -7   3 2469.51 105.774  11
  -2   7  -3 2443.65 146.196   5
   2  -7   3 2546.04 106.461   7
  -2   7  -3 2583.74 133.912   8
  -2   7  -3 2328.68 108.795   7
  -2   7  -4 1986.74 100.795  13
   2  -7   4 2228.68 96.7645  12
   2  -7   4 2083.43 112.329  13
   2  -7   4 2053.93 77.8865   6
  -2   7  -4 2237.16 83.6566   6
   2  -7   4 2191.60 102.528  11
  -2   7  -4 2393.90 136.563   5
   2  -7   4 2282.05 100.548   7
  -2   7  -4 2058.56 110.138   8
  -2   7  -4 1984.71 101.587   7
   2  -7   5 1032.93 66.2364  12
   2  -7   5 988.086 79.1794  13
  -2   7  -5 885.421 50.8679   6
   2  -7   5 881.265 70.3350  11
  -2   7  -5 973.252 70.5013  12
  -2   7  -5 1111.29 94.4246   5
  -2   7  -5 964.777 66.0537   8
  -2   7  -5 985.665 72.4323   7
   2  -7   5 976.633 66.0268   7
  -2   7  -6 16629.7 451.096  13
   2  -7   6 16353.1 440.185  12
   2  -7   6 16497.8 474.644  13
  -2   7  -6 17489.4 417.274   6
  -2   7  -6 15190.8 448.041  12
  -2   7  -6 16274.0 490.350   5
  -2   7  -6 16518.5 427.743   8
  -2   7  -6 16773.8 459.645   7
   2  -7   6 16343.4 444.811   7
  -2   7  -7 12747.3 359.611  13
  -2   7  -7 11925.9 360.121  12
   2  -7   7 12968.9 387.386  13
   2  -7   7 12422.6 348.676  12
  -2   7  -7 12491.5 319.924   6
  -2   7  -7 13028.5 371.576   7
  -2   7  -7 11676.1 311.084   8
  -2   7  -7 11804.6 383.848   5
  -2   7  -8 803.272 77.4504   7
  -2   7  -8 834.499 55.5374   6
  -2   7  -8 814.784 36.7845   8
   2  -7   8 697.388 82.5779  13
  -2   7  -8 746.590 75.8372  12
  -2   7  -8 773.504 78.4517   1
   2  -7   9 8381.98 310.435  13
  -2   7  -9 8220.29 289.596  12
  -2   7  -9 8568.04 297.946   7
  -2   7  -9 8096.44 280.041   1
  -2   7 -10 9244.27 321.290  12
   2  -7  10 10428.6 358.270  13
  -2   7 -10 10140.0 334.743   7
  -2   7 -10 9380.34 293.350   1
  -2   7 -11 713.837 68.7991   1
  -2   7 -11 789.440 97.0363   7
   2  -7  11 843.601 104.855  13
  -2   7 -11 734.225 89.9315  12
  -2   7 -12 247.286 70.5825  12
  -2   7 -12 293.462 74.6425   7
   2  -7  12 246.206 69.3641  13
  -2   7 -13 557.620 95.6916  12
  -2   7 -13 545.000 101.227   7
   2  -7  13 642.024 91.4955  13
  -2   7 -14 1570.44 149.727   7
  -2   7 -14 1299.07 143.827  12
   2  -7  14 1616.16 131.674  13
   2  -6 -13 1097.74 126.834  14
  -2   6  13 1082.31 118.369   9
  -2   6  13 1193.10 116.250   3
  -2   6  12 22.8300 62.1355   3
  -2   6  12 141.295 66.9410   9
  -2   6  12 11.5765 52.6818   8
   2  -6 -12 47.6721 69.7591  14
  -2   6  11 2655.89 160.492   3
  -2   6  11 3087.32 179.227   9
  -2   6  11 3099.11 162.673   8
   2  -6 -11 3039.02 184.822  14
  -2   6  10 6449.46 254.813   3
   2  -6 -10 7009.60 283.328  14
  -2   6  10 7155.18 283.711   9
  -2   6  10 7041.25 263.875   8
   2  -6  -9 1741.67 93.8173   4
  -2   6   9 1777.56 109.937   3
   2  -6  -9 1611.75 121.583  14
  -2   6   9 1746.28 96.8284   1
  -2   6   9 1791.72 133.113   9
  -2   6   9 1849.15 123.482   8
  -2   6   8 818.041 72.7012   3
   2  -6  -8 769.127 62.4677   4
   2  -6  -8 778.666 79.8186  14
  -2   6   8 901.177 70.5737  13
  -2   6   8 828.106 70.4638   1
  -2   6   8 830.080 48.1276  11
  -2   6   8 768.484 91.6633   9
  -2   6   8 818.524 85.1345   8
  -2   6   7 6211.07 213.066   3
   2  -6  -7 6652.68 236.837  14
  -2   6   7 6074.57 229.102  14
  -2   6   7 6334.96 213.059  13
  -2   6   7 6635.06 224.140   1
  -2   6   7 6344.54 177.663  11
  -2   6   7 6851.53 248.422   9
  -2   6   7 6136.97 242.229   8
   2  -6  -7 6331.54 221.262   7
  -2   6   6 1647.11 87.3822   3
  -2   6   6 1680.89 100.714   1
   2  -6  -6 1694.56 85.8774   3
  -2   6   6 1756.46 100.235  14
   2  -6  -6 1647.25 99.8954  14
  -2   6   6 1534.16 86.6240  13
  -2   6   6 1515.38 63.5963  11
  -2   6   6 1696.31 103.036   9
  -2   6   6 1702.14 114.382   8
   2  -6  -6 1697.80 94.4733   7
  -2   6   5 118.266 30.5347   3
   2  -6  -5 167.745 37.8345  14
  -2   6   5 188.459 37.4586  14
  -2   6   5 187.274 36.1385  13
   2  -6  -5 160.488 36.8079   7
   2  -6  -5 208.820 46.5962   6
  -2   6   5 150.907 20.8394  11
  -2   6   5 78.4985 30.4037   9
  -2   6   5 206.850 50.1193   8
   2  -6  -4 2240.39 109.609  14
  -2   6   4 2342.74 106.780  14
  -2   6   4 2309.86 103.034  13
   2  -6  -4 2383.18 112.540   6
  -2   6   4 2273.29 80.4336  11
  -2   6   4 2362.67 100.062   9
  -2   6   4 2376.85 139.695   8
   2  -6  -4 2346.54 102.764   7
   2  -6  -3 269.111 34.4871   3
  -2   6   3 314.812 38.4300  14
   2  -6  -3 380.443 43.4120  14
   2  -6  -3 285.831 34.6140  13
  -2   6   3 361.516 39.9964  13
   2  -6  -3 284.939 36.5005   7
   2  -6  -3 373.868 43.3800   6
  -2   6   3 370.635 26.6566   5
  -2   6   3 289.127 26.5519  11
   2  -6  -3 371.832 27.7072  11
  -2   6   3 324.840 33.4416   9
  -2   6   3 244.227 50.0012   8
  -2   6   2 27313.0 745.420   8
   2  -6  -2 27596.3 668.338   7
  -2   6   2 27686.8 672.904  13
   2  -6  -2 26794.1 669.347  13
   2  -6  -2 26941.4 666.498   6
  -2   6   2 28080.9 651.056   5
  -2   6   2 25625.8 645.769  11
   2  -6  -2 27529.5 668.877  12
   2  -6  -2 26793.3 641.986  11
  -2   6   2 27501.0 649.120   9
   2  -6  -2 28171.4 659.060   3
   2  -6  -1 17866.3 450.009   7
  -2   6   1 17208.6 453.147  13
   2  -6  -1 17324.1 453.228  13
   2  -6  -1 17041.0 443.272   6
  -2   6   1 17299.6 437.316  11
   2  -6  -1 18029.2 449.756  12
   2  -6  -1 18218.4 431.697  11
  -2   6   1 17600.9 423.542   9
  -2   6   1 17876.4 449.285   5
   2  -6  -1 17606.0 441.812   3
   2  -6   0 51.0712 21.1848   7
  -2   6   0 55.5059 25.2147  13
   2  -6   0 89.1320 21.8762   6
   2  -6   0 26.3474 20.8654  12
   2  -6   0 23.2014 17.5051  11
  -2   6   0 15.0227 23.5992   5
  -2   6  -1 20929.0 535.649  13
  -2   6  -1 21191.7 515.824   6
   2  -6   1 21381.6 512.985   6
   2  -6   1 21702.6 521.597  11
   2  -6   1 20857.0 526.595  12
  -2   6  -1 20793.8 532.356   7
   2  -6   1 21125.4 528.671   7
  -2   6  -1 21334.9 593.524   8
  -2   6  -1 21442.1 560.994   5
  -2   6  -2 50582.0 1235.76   5
  -2   6  -2 48653.0 1190.29  13
   2  -6   2 51874.7 1183.98  12
   2  -6   2 50118.3 1161.51   6
  -2   6  -2 49529.2 1164.90   6
   2  -6   2 47957.6 1178.57  11
   2  -6   2 51456.3 1144.87   9
   2  -6   2 52208.8 1185.62   7
  -2   6  -2 47483.3 1225.75   8
  -2   6  -3 4236.92 152.043  13
   2  -6   3 4255.06 144.046  12
   2  -6   3 4350.76 125.089   6
  -2   6  -3 4571.28 129.484   6
   2  -6   3 4718.20 152.334  11
  -2   6  -3 4512.31 195.990   5
   2  -6   3 4382.58 147.744   7
  -2   6  -3 4196.26 162.799   8
  -2   6  -3 4010.03 148.836   7
   2  -6   4 674.144 60.7612  13
   2  -6   4 694.870 50.8811  12
  -2   6  -4 701.802 38.4032   6
  -2   6  -4 818.948 76.9228   5
  -2   6  -4 678.039 53.4383   8
  -2   6  -4 539.640 51.0284   7
   2  -6   4 670.018 51.7691   7
   2  -6   5 102.613 35.6317  13
  -2   6  -5 162.595 21.6590   6
   2  -6   5 165.165 31.2570  12
  -2   6  -5 96.0630 40.2658   5
   2  -6   5 160.637 32.2235   7
  -2   6  -5 117.170 30.7594   7
  -2   6  -5 165.953 27.3071   8
  -2   6  -6 3539.77 141.777  13
   2  -6   6 3651.69 135.735  12
   2  -6   6 3553.79 156.292  13
  -2   6  -6 3378.59 111.145   6
   2  -6   6 3071.48 145.724  11
  -2   6  -6 3507.89 112.760   8
  -2   6  -6 3601.08 147.765   7
  -2   6  -6 3570.15 163.662   5
  -2   6  -7 11025.6 332.610   7
   2  -6   7 11060.0 315.729  12
   2  -6   7 11310.9 347.906  13
  -2   6  -7 11062.5 284.590   6
   2  -6   7 10278.3 338.959  11
  -2   6  -7 10567.1 263.225   8
  -2   6  -7 10669.2 330.566   1
  -2   6  -8 8199.53 280.288   7
   2  -6   8 8546.43 265.142  12
   2  -6   8 8900.91 301.379  13
  -2   6  -8 8300.19 233.258   6
  -2   6  -8 8573.82 291.048   5
  -2   6  -8 8280.13 267.241   1
  -2   6  -9 62.7551 48.7143   7
  -2   6  -9 165.812 37.0374   6
   2  -6   9 97.9393 25.8038  10
   2  -6   9 66.7312 53.2882  13
  -2   6  -9 176.857 45.2953   1
   2  -6  10 9649.97 336.220  13
  -2   6 -10 8919.85 310.121   7
  -2   6 -10 8685.99 260.725   1
  -2   6 -11 8322.44 254.844   1
  -2   6 -11 8869.32 327.313   7
   2  -6  11 9076.20 332.812  13
  -2   6 -12 113.247 74.9468  12
  -2   6 -12 16.5572 58.8307   7
   2  -6  12 14.1775 62.9178  13
  -2   6 -13 1749.67 148.966   7
   2  -6  13 1686.15 131.272  13
  -2   6 -13 1543.97 141.936  12
  -2   6 -14 1797.37 152.240   7
  -2   6 -14 1459.20 142.350  12
   2  -6  14 1766.70 134.657  13
  -2   6 -15 493.355 98.2182   7
  -2   5  15 802.125 106.198   3
  -2   5  14 1485.39 134.010   9
  -2   5  14 1361.91 125.014   3
  -2   5  13 247.417 74.0540   9
  -2   5  13 129.553 65.5561   3
  -2   5  12 237.242 70.2512   9
  -2   5  12 227.497 67.9258   3
  -2   5  12 225.650 60.0985   8
  -2   5  11 180.990 60.8436   3
  -2   5  11 271.705 69.4544   9
  -2   5  11 298.453 64.2100   8
   2  -5 -11 276.514 75.9997  14
   2  -5 -10 7292.80 248.023   4
  -2   5  10 7302.48 278.072   3
   2  -5 -10 8059.73 301.884  14
  -2   5  10 7819.56 299.727   9
  -2   5  10 7665.11 268.037   8
  -2   5   9 10503.9 333.192   3
   2  -5  -9 10530.4 305.656   4
  -2   5   9 10231.3 292.347   1
   2  -5  -9 10017.6 346.173  14
  -2   5   9 10935.3 312.133  13
  -2   5   9 9987.14 270.216  11
  -2   5   9 10092.1 357.170   9
  -2   5   9 10155.1 328.940   8
  -2   5   8 35.5538 31.8414   1
  -2   5   8 21.8145 31.6333   3
   2  -5  -8 47.6695 43.2534  14
  -2   5   8 46.2691 39.0182  14
  -2   5   8 50.0667 33.5580  13
   2  -5  -8 59.7758 42.0612   6
  -2   5   8 36.2095 20.2263  11
  -2   5   8 50.4690 44.5157   8
  -2   5   7 9246.71 276.342   3
  -2   5   7 9045.06 286.515  14
   2  -5  -7 8756.79 287.997  14
  -2   5   7 9559.62 265.603  13
  -2   5   7 9139.61 272.157   1
  -2   5   7 8313.68 227.905  11
  -2   5   7 9122.88 303.250   9
  -2   5   7 9091.65 299.852   8
   2  -5  -7 9274.36 279.658   7
  -2   5   6 20525.8 560.331   3
  -2   5   6 21820.5 576.235  14
   2  -5  -6 22600.3 583.101  14
  -2   5   6 22430.4 555.674  13
  -2   5   6 22400.7 575.156   1
   2  -5  -6 21906.5 558.686   3
  -2   5   6 22011.4 520.982  11
  -2   5   6 22193.0 587.823   9
  -2   5   6 22041.2 602.396   8
   2  -5  -6 22870.2 570.832   7
  -2   5   5 5305.09 175.418   3
  -2   5   5 5102.21 191.234   1
  -2   5   5 5386.10 185.110  14
   2  -5  -5 5795.91 192.490  14
  -2   5   5 5631.44 174.115  13
  -2   5   5 5417.55 144.700  11
  -2   5   5 5371.52 186.576   9
   2  -5  -5 5494.30 180.780   7
  -2   5   5 5364.85 209.926   8
   2  -5  -4 1158.34 62.5575   3
  -2   5   4 1127.10 61.3289   3
  -2   5   4 1033.45 65.7541  14
   2  -5  -4 1152.92 70.3556  14
  -2   5   4 1048.51 59.3814  13
   2  -5  -4 1196.22 72.8873   6
  -2   5   4 1106.39 44.3248  11
  -2   5   4 1171.00 65.0741   9
  -2   5   4 1095.65 85.9861   8
   2  -5  -4 1131.68 64.6827   7
   2  -5  -3 1773.96 75.3344   3
  -2   5   3 1572.44 78.7980  14
   2  -5  -3 1690.81 74.1824  13
  -2   5   3 1670.21 76.3223  13
  -2   5   3 1708.76 57.5054   5
   2  -5  -3 1604.27 79.8450   6
   2  -5  -3 1675.21 56.6566  11
  -2   5   3 1672.11 59.4035  11
  -2   5   3 1642.48 71.7594   9
  -2   5   3 1606.36 108.053   8
   2  -5  -3 1642.90 76.1860   7
   2  -5  -2 3025.55 106.934   7
  -2   5   2 3200.04 154.236   8
  -2   5   2 3092.57 108.280  13
   2  -5  -2 3122.82 108.251  13
   2  -5  -2 3094.99 107.845   6
  -2   5   2 3209.15 96.3097   5
  -2   5   2 2950.82 92.1655  11
   2  -5  -2 3087.68 88.7599  11
  -2   5   2 3026.21 98.0332   9
   2  -5  -2 3155.18 104.034   3
   2  -5  -1 19156.8 453.698   7
   2  -5  -1 16650.8 448.547  13
  -2   5   1 18011.8 453.000  13
   2  -5  -1 17883.8 443.571   6
   2  -5  -1 17350.2 449.943  12
   2  -5  -1 18085.7 432.544  11
  -2   5   1 18075.5 432.167   9
   2  -5  -1 18534.7 446.755   3
  -2   5   1 18434.2 447.203   5
   2  -5   0 23413.3 586.381   7
  -2   5   0 23339.0 589.580  13
   2  -5   0 24088.2 574.393   6
   2  -5   0 24549.8 575.289  11
   2  -5   0 24245.5 587.130  12
   2  -5   0 24253.4 562.742   9
  -2   5   0 24819.8 598.782   5
   2  -5   1 381.113 33.2081   7
  -2   5  -1 510.353 51.5050   8
  -2   5  -1 353.413 34.8344  13
  -2   5  -1 422.536 26.9420   6
   2  -5   1 383.080 25.3829   6
   2  -5   1 414.661 31.0729  11
   2  -5   1 396.038 33.8719  12
   2  -5   1 447.684 21.7361   9
  -2   5  -1 444.284 45.2991   5
  -2   5  -2 40841.5 326.918  13
   2  -5   2 40730.3 298.002  12
   2  -5   2 40746.8 205.508   6
   2  -5   2 40864.3 303.729  11
  -2   5  -2 41315.5 421.491   5
   2  -5   2 40869.1 303.287   7
  -2   5  -3 42446.1 360.829  13
   2  -5   3 41945.6 330.188  12
  -2   5  -3 43967.0 240.002   6
   2  -5   3 42670.4 223.085   6
   2  -5   3 42660.7 335.209   7
  -2   5  -3 41926.3 352.165   8
  -2   5  -3 44884.4 498.402   5
  -2   5  -4 3222.58 89.7401   6
   2  -5   4 3256.28 115.272   7
  -2   5  -4 2959.50 144.927   5
   2  -5   4 2957.93 111.729  12
  -2   5  -4 2963.88 116.011  12
  -2   5  -5 14881.1 419.134   1
   2  -5   5 15298.5 391.386  12
  -2   5  -5 13532.9 394.928  12
   2  -5   5 14531.9 415.390  13
  -2   5  -5 14893.8 401.463   7
  -2   5  -5 15406.5 360.530   6
  -2   5  -5 14760.1 365.082   8
  -2   5  -5 14580.2 433.631   5
   2  -5   6 12126.4 326.757  12
   2  -5   6 11782.0 352.380  13
  -2   5  -6 12527.4 341.819   7
  -2   5  -6 11949.2 294.374   6
  -2   5  -6 11313.7 280.135   8
  -2   5  -6 12018.5 342.606   1
   2  -5   7 1693.87 107.680  13
   2  -5   7 1775.49 91.4042  12
  -2   5  -7 1709.16 99.3027   7
  -2   5  -7 1626.36 69.4937   6
  -2   5  -7 1609.74 106.253   5
  -2   5  -7 1608.21 90.6760   1
  -2   5  -8 3834.81 147.744   1
   2  -5   8 4278.60 187.189  13
   2  -5   8 4021.02 158.473  12
  -2   5  -8 4309.94 174.602   7
  -2   5  -8 3827.09 130.652   6
   2  -5   8 3566.73 122.575  10
  -2   5  -8 4131.27 174.811   5
  -2   5  -9 1768.99 88.8001   1
   2  -5   9 1735.74 122.928  13
  -2   5  -9 1696.99 112.059   7
  -2   5  -9 1749.72 84.4163   6
   2  -5   9 1463.16 65.9004  10
  -2   5  -9 1690.95 112.055   5
  -2   5 -10 2238.08 98.7166   1
   2  -5  10 2561.76 150.740  13
  -2   5 -10 2442.59 144.740   7
  -2   5 -11 7895.30 219.654   1
   2  -5  11 7592.05 224.813   2
  -2   5 -11 7983.24 308.620   7
   2  -5  12 5691.67 240.586  13
  -2   5 -12 5781.18 265.811   7
   2  -5  13 56.5543 59.5917  13
  -2   5 -13 92.1418 75.7734   7
   2  -5  14 2977.74 163.759  13
  -2   5 -14 2970.44 185.872   7
  -2   5 -15 1965.60 151.282   7
  -2   4  16 8.33023 78.0791   3
  -2   4  15 849.471 111.909   3
  -2   4  14 1160.97 118.842   9
  -2   4  14 1163.44 114.985   3
  -2   4  13 1326.83 121.934   9
  -2   4  13 1062.85 111.586   3
  -2   4  12 89.2360 58.3649   9
  -2   4  12-18.2886 46.4040   8
  -2   4  12 7.44492 54.4662   3
  -2   4  11 1493.12 100.019   8
  -2   4  11 1337.81 115.856   9
  -2   4  11 1414.23 120.722   3
  -2   4  10 1164.34 88.4392   8
  -2   4  10 1168.00 57.8952   1
  -2   4  10 1379.86 68.1160  11
  -2   4  10 1371.87 110.708   9
   2  -4 -10 1146.09 85.7451   4
  -2   4  10 1245.51 102.161   3
  -2   4   9 5295.12 221.428  14
  -2   4   9 5423.81 183.602  13
   2  -4  -9 5284.90 168.865   2
  -2   4   9 5417.39 169.022   1
  -2   4   9 5658.22 162.938  11
  -2   4   9 5480.88 216.649   3
   2  -4  -9 5572.77 193.207   4
  -2   4   9 5336.59 203.824   8
  -2   4   8 5302.68 204.538  14
  -2   4   8 5922.96 177.177  13
  -2   4   8 5524.18 171.082   1
  -2   4   8 5290.66 199.481   8
  -2   4   8 5430.68 202.774   3
  -2   4   7 924.863 70.1270   3
  -2   4   7 981.098 74.2511  14
  -2   4   7 929.205 57.6960  13
  -2   4   7 862.656 60.5190   1
  -2   4   7 932.169 42.0899  11
  -2   4   7 916.121 80.5494   9
  -2   4   7 1004.29 76.8873   8
   2  -4  -6 24563.3 618.979   4
  -2   4   6 24202.7 630.077   3
  -2   4   6 26018.6 641.256  14
  -2   4   6 25303.4 610.059  13
  -2   4   6 24664.8 628.781   1
  -2   4   6 25374.7 581.463  11
  -2   4   6 24329.6 647.777   9
  -2   4   6 25029.7 658.954   8
  -2   4   5 26249.2 653.470   3
  -2   4   5 25974.9 658.489  14
  -2   4   5 27020.0 639.306  13
  -2   4   5 26836.7 666.468   1
  -2   4   5 26283.2 609.015  11
  -2   4   5 26288.9 663.292   9
   2  -4  -5 27199.3 655.316   7
  -2   4   5 26397.7 690.595   8
   2  -4  -4 7034.86 200.460   3
  -2   4   4 6979.01 201.878   3
  -2   4   4 7215.95 207.617  14
  -2   4   4 6890.29 192.521  13
  -2   4   4 7049.24 222.783   1
  -2   4   4 6635.84 166.995  11
  -2   4   4 6826.25 204.539   9
   2  -4  -4 6841.30 202.219   7
  -2   4   4 7026.29 240.393   8
  -2   4   3 20622.5 501.820   3
   2  -4  -3 21498.9 502.787   3
  -2   4   3 20695.7 540.640   1
  -2   4   3 21088.6 507.418  14
   2  -4  -3 21041.2 495.737  13
  -2   4   3 21187.6 497.626  13
  -2   4   3 20220.0 472.867  11
   2  -4  -3 20015.9 470.631  11
  -2   4   3 20886.0 502.258   9
   2  -4  -3 21308.3 505.387   7
  -2   4   3 20654.6 559.040   8
   2  -4  -2 21357.2 501.249   3
  -2   4   2 21204.8 553.977   1
  -2   4   2 21551.8 506.315  14
  -2   4   2 20708.0 499.047  13
   2  -4  -2 20381.6 497.018  13
  -2   4   2 21046.5 487.471   5
   2  -4  -2 20914.1 503.719   6
   2  -4  -2 20420.2 477.308  11
  -2   4   2 19617.9 494.830   9
   2  -4  -2 20691.2 502.188   7
  -2   4   2 22102.5 576.099   8
   2  -4  -1 1281.92 58.0658   3
   2  -4  -1 1222.63 60.5976  14
  -2   4   1 1340.43 59.4589  13
  -2   4   1 1392.83 57.8226   5
   2  -4  -1 1336.03 55.7045   6
   2  -4  -1 1338.73 60.0202  12
   2  -4  -1 1392.80 48.8044  11
   2  -4  -1 1396.79 52.0570   9
  -2   4   1 1326.01 51.9624   9
  -2   4   1 1165.90 82.9269   8
   2  -4  -1 1444.16 61.1938   7
  -2   4   0 4568.74 139.755  13
   2  -4   0 4500.38 125.384   6
  -2   4   0 4480.45 143.045   5
   2  -4   0 4540.26 129.688  11
   2  -4   0 4562.55 137.953  12
   2  -4   0 4925.31 126.326   9
   2  -4   0 4546.61 138.141   7
  -2   4  -1 4988.57 167.130   5
  -2   4  -1 4940.48 198.047   1
  -2   4  -1 5212.43 155.846  13
   2  -4   1 4842.35 149.359  12
   2  -4   1 4733.20 153.732  13
   2  -4   1 5248.79 132.426   6
   2  -4   1 5308.56 150.158  11
   2  -4   1 5156.13 136.096   9
  -2   4  -1 4765.28 164.843   8
   2  -4   1 5500.45 151.755   7
  -2   4  -2 7858.60 221.169  13
   2  -4   2 8187.43 214.523  12
  -2   4  -2 8006.89 187.837   6
   2  -4   2 7680.17 186.500   6
  -2   4  -2 8015.11 243.278   5
   2  -4   2 7570.19 211.123   7
  -2   4  -2 7345.26 214.549   7
  -2   4  -2 7055.39 221.380   8
  -2   4  -3 35836.1 921.207  13
   2  -4   3 40800.3 914.642  12
  -2   4  -3 38171.0 953.045   1
  -2   4  -3 39322.3 880.054   6
  -2   4  -3 38287.7 905.417   8
  -2   4  -3 38103.5 916.359   7
  -2   4  -3 37318.2 959.556   5
   2  -4   4 32536.6 764.181  12
  -2   4  -4 32201.2 791.950   1
  -2   4  -4 32232.0 728.959   6
  -2   4  -4 30599.4 741.100   8
  -2   4  -4 30990.3 814.370   5
  -2   4  -5 1383.78 51.3549   6
  -2   4  -5 1506.82 81.1912   1
  -2   4  -5 1490.73 77.3874   7
   2  -4   5 1320.58 70.6395  12
  -2   4  -6 29595.6 759.333  12
   2  -4   6 30768.7 750.683  12
   2  -4   6 30914.8 782.789  13
  -2   4  -6 30609.2 753.162   1
  -2   4  -6 31617.6 763.475   7
  -2   4  -6 29103.4 777.955   5
  -2   4  -7 17643.8 480.207   5
  -2   4  -7 18320.1 475.807  12
   2  -4   7 16426.0 455.180  12
   2  -4   7 17131.0 489.626  13
  -2   4  -7 17625.3 448.424   1
   2  -4   7 16395.2 423.257  10
  -2   4  -7 16754.1 466.943   7
  -2   4  -8 2676.61 132.160   5
   2  -4   8 3008.09 153.507  13
   2  -4   8 2439.24 127.170  14
   2  -4   8 2782.29 125.988  12
  -2   4  -8 2809.02 136.500  12
  -2   4  -8 2677.32 133.608   7
   2  -4   8 2348.96 91.2154  10
  -2   4  -8 2506.43 103.512   1
  -2   4  -9 5.54436 37.3845   7
   2  -4   9 97.5413 43.5392  13
  -2   4  -9 5.73668 36.0110  12
  -2   4  -9 73.7408 43.9451   5
   2  -4   9 59.0744 26.6541   2
  -2   4  -9 26.5486 22.5796   1
   2  -4  10 1129.17 95.2938  13
  -2   4 -10 1161.95 90.2133   5
  -2   4 -10 1261.87 102.560   7
  -2   4 -10 1053.80 97.7693  12
   2  -4  10 983.346 54.1574   2
  -2   4 -11 2280.50 150.391  12
   2  -4  11 2324.67 132.037  13
  -2   4 -11 2516.18 154.307   7
  -2   4 -12 4216.39 217.776  12
  -2   4 -12 4697.72 223.472   7
   2  -4  12 4377.85 199.382  13
  -2   4 -13 1511.72 129.669  12
   2  -4  13 1588.97 115.060  13
  -2   4 -14 257.700 78.1802   7
   2  -4  14 420.030 74.5333  13
  -2   4 -14 547.805 95.1390  12
  -2   4 -15 3314.83 191.563   7
  -2   4 -15 2715.33 183.416  12
  -2   3  16 1169.69 126.183   3
  -2   3  15 24.8665 62.8883   9
  -2   3  15 32.5600 71.7801   3
   2  -3 -14 2595.24 170.061  14
  -2   3  14 2851.47 172.414   3
  -2   3  14 2235.15 159.428   9
  -2   3  13 5210.29 238.253   3
  -2   3  12 668.423 91.1872   3
  -2   3  12 764.284 72.0376   8
  -2   3  11 975.432 78.0890   8
  -2   3  11 934.380 99.6240   3
   2  -3 -10 6446.08 170.831   2
  -2   3  10 6537.06 261.568   3
   2  -3 -10 6283.48 231.677   4
  -2   3  10 6296.67 224.034   8
  -2   3   9 1052.09 62.1332  13
  -2   3   9 861.349 84.4736  14
   2  -3  -9 935.032 49.2830   2
  -2   3   9 851.046 70.8978   8
   2  -3  -9 938.810 71.3710   4
  -2   3   9 937.715 85.1554   3
  -2   3   8 2774.15 102.003   1
   2  -3  -8 2897.44 103.955   2
  -2   3   8 2801.75 104.591  13
  -2   3   8 2829.57 138.319  14
  -2   3   8 2764.69 137.283   3
  -2   3   8 2752.45 127.315   8
  -2   3   7 6515.04 198.607   1
  -2   3   7 6904.42 229.729  14
  -2   3   7 7020.62 193.294  13
  -2   3   7 6784.15 178.006  11
  -2   3   7 6706.68 226.191   3
  -2   3   7 6789.37 228.371   8
  -2   3   6 1667.31 79.7953   1
  -2   3   6 1849.73 90.5803  14
  -2   3   6 1778.66 67.2330  13
   2  -3  -6 1480.54 48.0552   5
  -2   3   6 1761.89 53.4278  11
   2  -3  -6 1855.20 83.5419   4
  -2   3   6 1726.28 87.6940   3
  -2   3   6 1733.94 97.0933   8
  -2   3   5 48815.0 1139.18   1
  -2   3   5 49387.5 1139.17  14
  -2   3   5 47381.3 1108.34  13
   2  -3  -5 45038.9 1092.22   5
  -2   3   5 48639.3 1084.86  11
   2  -3  -5 50838.7 1134.43   3
   2  -3  -5 48524.6 1129.87   4
  -2   3   5 49300.8 1137.52   3
  -2   3   5 48968.4 1170.36   8
  -2   3   4 41049.6 980.719   1
  -2   3   4 41164.6 942.819  13
  -2   3   4 40906.1 962.815  14
   2  -3  -4 39340.7 935.170   5
   2  -3  -4 42108.0 961.664   3
  -2   3   4 41834.6 1010.39   8
   2  -3  -3 9.13954 14.9300   3
  -2   3   3 43.0138 22.3092   1
  -2   3   3 22.0129 14.5224  14
  -2   3   3 20.6073 11.2404  13
   2  -3  -3 19.6755 10.7331  13
   2  -3  -3 19.8775 15.5220   7
  -2   3   3 13.7066 25.9761   8
   2  -3  -3 26.5001 12.1721   5
   2  -3  -2 36756.5 825.426   3
  -2   3   2 37520.2 874.956   1
  -2   3   2 37205.2 824.120  14
  -2   3   2 36414.1 816.204  13
   2  -3  -2 35903.1 814.732  13
   2  -3  -2 34656.1 823.440   5
   2  -3  -2 33614.6 795.796  11
   2  -3  -2 37631.1 819.865   9
  -2   3   2 37663.9 874.778   8
   2  -3  -2 35807.0 822.449   7
   2  -3  -1 25968.7 657.651   5
   2  -3  -1 28899.9 653.346   3
  -2   3   1 27353.1 713.716   1
  -2   3   1 27783.9 647.585   5
  -2   3   1 27584.4 647.469  13
   2  -3  -1 26970.6 634.529  11
   2  -3  -1 27578.6 649.935  12
  -2   3   1 27960.1 644.410   9
   2  -3  -1 28053.1 643.671   9
   2  -3  -1 26979.7 648.623   7
  -2   3   1 26967.4 683.529   8
   2  -3  -1 27931.9 693.735   8
  -2   3   0 1596.43 100.269   1
  -2   3   0 1605.98 64.0666  13
   2  -3   0 1629.44 51.1452   6
  -2   3   0 1678.44 67.0529   5
   2  -3   0 1517.39 60.7613  12
   2  -3   0 1658.51 56.7823   9
  -2   3   0 1612.40 62.0596   7
   2  -3   0 1595.96 85.4770   8
   2  -3   1 83.2962 17.6046  13
  -2   3  -1 67.0442 16.5971  13
   2  -3   1 66.9353 6.70683   6
   2  -3   1 39.7284 20.6490   8
  -2   3  -1 48.8527 18.1653   8
  -2   3  -1 60.0774 13.9863   7
   2  -3   1 48.3945 19.8763   5
  -2   3  -1 38.5025 17.7813   5
   2  -3   1 76.3646 15.4011  12
  -2   3  -2 72.8451 19.8460  13
   2  -3   2 85.1087 17.1347  12
  -2   3  -2 103.753 17.4878   7
  -2   3  -2 104.113 17.4853   8
   2  -3   2 118.634 22.0939   8
  -2   3  -2 88.1310 23.9030   5
   2  -3   3 7730.76 214.898  12
  -2   3  -3 7832.21 216.683   7
   2  -3   3 8320.82 218.373   8
  -2   3  -3 7982.31 248.837   5
  -2   3  -3 7702.13 200.898   8
  -2   3  -3 7774.81 239.503   1
   2  -3   4 27693.1 657.375  12
   2  -3   4 27592.2 678.957  13
  -2   3  -4 25715.4 656.451   7
  -2   3  -4 27691.6 672.821   1
  -2   3  -5 6645.15 202.143   1
   2  -3   5 6968.53 201.368  12
  -2   3  -6 1091.51 63.3243   1
  -2   3  -6 998.831 70.5253  12
   2  -3   6 1230.18 71.3816  12
  -2   3  -6 1121.69 79.4976   5
   2  -3   6 1007.06 54.0341  10
  -2   3  -6 1120.95 71.4662   7
   2  -3   7 32075.6 786.135   2
  -2   3  -7 33854.1 785.887   1
  -2   3  -7 33817.8 831.217  12
   2  -3   7 33434.2 843.534  13
  -2   3  -7 33602.2 828.897   5
   2  -3   7 30793.0 776.289  10
  -2   3  -7 33480.0 824.119   7
   2  -3   8 19605.1 532.225  13
  -2   3  -8 20257.4 538.409  12
  -2   3  -8 19177.6 517.896   5
  -2   3  -8 19073.0 525.565   7
   2  -3   8 18057.6 468.628   2
  -2   3  -9 206.849 53.4775   7
   2  -3   9 215.539 47.9883  13
  -2   3  -9 132.121 44.5654  12
  -2   3  -9 301.276 52.2658   5
   2  -3   9 185.280 25.7419   2
  -2   3 -10 4260.94 174.619   5
  -2   3 -10 3997.33 199.664  12
   2  -3  10 4051.31 179.456  13
  -2   3 -10 4055.43 193.477   7
   2  -3  11 1981.98 119.663  13
  -2   3 -11 2171.09 118.671   5
   2  -3  11 1802.82 109.297   4
  -2   3 -11 1894.23 136.117  12
  -2   3 -11 1852.03 131.725   7
  -2   3 -12 2372.93 154.278  12
  -2   3 -12 2327.68 148.825   7
   2  -3  12 2564.04 141.786  13
  -2   3 -13 808.817 101.239  12
   2  -3  13 1174.19 99.2217  13
  -2   3 -13 970.831 102.121   7
  -2   3 -14 158.656 72.1973  12
  -2   3 -14 36.6474 60.3016   7
   2  -3  14 22.7119 51.3680  13
  -2   3 -15 840.298 109.515   7
  -2   3 -15 1139.67 120.813  12
  -2   2  16 771.192 113.266   3
  -2   2  15 635.854 92.6093   9
   2  -2 -15 684.637 95.6581  12
  -2   2  15 584.974 97.2467   3
  -2   2  14 191.633 67.2964   9
   2  -2 -14 204.053 75.6236  12
  -2   2  14 197.023 70.9712   3
  -2   2  13 6759.37 284.556   9
  -2   2  13 6856.53 284.590   3
   2  -2 -13 7179.84 285.769  14
   2  -2 -12 8123.82 207.251   5
   2  -2 -12 7246.70 289.825  14
  -2   2  12 7529.57 296.149   9
  -2   2  12 7321.29 244.251   8
  -2   2  12 7994.22 305.672   3
   2  -2 -11 50.8848 23.2291   5
  -2   2  11-34.4285 59.5332   3
   2  -2 -11 122.987 55.9666  14
  -2   2  11 68.6543 50.7096   9
  -2   2  11 50.2495 38.3574   8
   2  -2 -10 3755.10 187.790  14
  -2   2  10 4240.52 194.250  14
  -2   2  10 4077.82 139.449  11
  -2   2  10 4542.69 165.712   8
  -2   2  10 4121.97 201.857   9
  -2   2  10 4212.02 201.547   3
   2  -2 -10 4408.12 128.410   5
  -2   2   9 11064.0 357.880  14
   2  -2  -9 11164.2 276.755   2
  -2   2   9 10645.8 291.239  11
  -2   2   9 10351.0 365.024   9
  -2   2   9 11264.3 323.239   8
  -2   2   9 10659.7 356.588   3
   2  -2  -9 11168.3 282.230   5
   2  -2  -9 11047.6 336.144   4
  -2   2   8 6663.88 232.112  14
  -2   2   8 6402.42 178.803  13
   2  -2  -8 6334.20 178.182   2
  -2   2   8 6093.10 211.892   8
  -2   2   8 6226.67 237.237   9
  -2   2   8 6154.93 230.529   3
  -2   2   7 1354.42 84.3622  14
  -2   2   7 1322.77 53.7498  13
   2  -2  -7 1354.65 62.0882   2
  -2   2   7 1277.15 60.2917   1
  -2   2   7 1314.22 55.7573  11
  -2   2   7 1228.79 85.3859   9
  -2   2   7 1373.16 82.4151   8
  -2   2   7 1302.74 83.2323   3
  -2   2   6 616.867 52.8973  14
  -2   2   6 731.940 33.6396  13
   2  -2  -6 651.977 45.3455   2
  -2   2   6 644.093 45.1099   1
  -2   2   6 714.624 32.1706  11
  -2   2   6 698.275 56.4301   9
  -2   2   6 672.659 59.1032   8
   2  -2  -6 769.605 53.0731   4
   2  -2  -5 12222.5 311.461   3
   2  -2  -5 12472.8 313.454   4
  -2   2   5 12238.2 313.181  14
  -2   2   5 11768.7 276.079  13
  -2   2   5 11580.1 307.403   1
   2  -2  -5 12616.9 312.704   2
  -2   2   5 10553.2 266.692  11
  -2   2   5 12925.3 345.356   8
  -2   2   5 10422.6 308.206   9
   2  -2  -5 12331.5 330.747   8
  -2   2   4 55176.7 1242.89  14
   2  -2  -4 52604.5 1255.83   1
  -2   2   4 53517.8 1256.62   1
  -2   2   4 51696.3 1213.18  13
  -2   2   4 56860.0 1289.51   8
   2  -2  -4 54642.6 1244.28   3
   2  -2  -4 54151.1 1245.06   4
  -2   2   3 22418.2 527.689  14
  -2   2   3 20622.6 509.431  13
   2  -2  -3 22519.6 509.621  13
   2  -2  -3 20970.1 553.151   1
  -2   2   3 23896.0 562.079   1
   2  -2  -3 23941.5 531.776   9
  -2   2   3 24383.3 569.223   8
   2  -2  -3 22218.7 533.030   3
  -2   2   3 20292.8 532.677   3
  -2   2   2 4140.93 115.467  13
  -2   2   2 4213.57 121.412  14
   2  -2  -2 4357.13 114.654  13
  -2   2   2 4597.50 161.485   1
  -2   2   2 4264.60 129.456   3
   2  -2  -2 4500.49 125.657   9
   2  -2  -2 4265.26 121.612   5
  -2   2   1 73367.0 1703.35   1
   2  -2  -1 74228.6 1697.35   1
  -2   2   1 74703.4 1643.06  13
  -2   2   1 67617.6 1662.39   8
   2  -2  -1 73327.4 1643.64   9
  -2   2   1 69786.4 1642.31   7
   2  -2   0 196699. 4825.71   5
  -2   2   0 226228. 4826.71   5
  -2   2   0 232439. 4820.35  12
  -2   2   0 188517. 4869.57   1
  -2   2   0 205301. 4815.42   7
   2  -2   0 221672. 4837.64   8
   2  -2   1 2605.84 90.9168  13
  -2   2  -1 2531.37 81.8731  12
  -2   2  -1 2439.28 91.1164   5
   2  -2   1 2587.23 90.3638   8
  -2   2  -1 2433.83 79.2996   7
  -2   2  -2 17529.0 437.433  12
   2  -2   2 18398.8 465.167   1
  -2   2  -2 17491.3 453.331   5
   2  -2   2 18386.6 439.462   8
  -2   2  -2 18078.7 432.970   7
  -2   2  -3 5544.25 156.532   7
  -2   2  -3 5258.26 160.812  12
   2  -2   3 5556.47 172.268   1
  -2   2  -3 5372.42 134.115   6
   2  -2   3 5665.04 152.789   8
   2  -2   3 5846.23 175.791   5
   2  -2   4 5413.66 180.676   5
   2  -2   4 5339.32 189.143  13
  -2   2  -4 5926.74 175.672  12
  -2   2  -4 5330.34 168.347   1
   2  -2   4 5226.78 170.621   2
   2  -2   4 5269.86 160.900  10
   2  -2   4 5774.78 152.150   8
  -2   2  -4 5425.94 166.598   7
  -2   2  -4 5468.60 145.797   6
  -2   2  -5 18812.6 483.182   1
   2  -2   5 19072.7 486.874   2
  -2   2  -5 18688.6 524.011   5
  -2   2  -5 19229.7 474.710   6
   2  -2   5 20730.7 460.315   8
   2  -2   5 18965.7 482.054  10
  -2   2  -5 19176.7 495.043   7
  -2   2  -6 4251.49 160.220  12
   2  -2   6 3710.19 129.588   2
  -2   2  -6 3906.36 161.334   5
  -2   2  -6 4135.92 139.047   6
   2  -2   6 4330.46 105.859   8
   2  -2   6 3932.12 134.071  10
   2  -2   6 3819.30 161.830  13
  -2   2  -7 4062.11 165.661  12
   2  -2   7 3962.51 160.571  13
  -2   2  -7 3841.10 137.482   6
  -2   2  -7 3640.98 153.279   5
   2  -2   7 3497.63 118.055   2
  -2   2  -7 3876.42 156.387   7
  -2   2  -8 21424.5 614.015  12
   2  -2   8 23732.3 606.664  13
  -2   2  -8 22975.1 594.588   5
  -2   2  -8 22991.4 571.949   6
   2  -2   8 21480.6 535.252   2
  -2   2  -8 24430.0 614.175   7
  -2   2  -9 7226.17 227.996   6
  -2   2  -9 7277.04 244.455   5
  -2   2  -9 7175.71 273.065  12
   2  -2   9 7047.42 269.358  14
   2  -2   9 7037.59 249.527  13
   2  -2  10 1298.64 95.3093  13
  -2   2 -10 1394.22 91.5874   5
  -2   2 -10 1333.81 81.2397   6
  -2   2 -10 1302.27 107.296  12
   2  -2  10 1333.09 87.8465   4
  -2   2 -10 1473.37 109.303   7
   2  -2  11 7921.73 272.436  13
  -2   2 -11 7712.05 258.348   5
   2  -2  11 7814.26 249.428   4
  -2   2 -11 7686.67 292.456  12
  -2   2 -11 7653.27 286.015   7
  -2   2 -12 3963.98 193.721  12
   2  -2  12 3462.22 166.775  13
  -2   2 -12 3547.08 180.305   7
  -2   2 -13 565.295 86.3785  12
  -2   2 -13 544.225 79.5271   7
   2  -2  13 494.659 75.0337  13
  -2   2 -14 7.64017 56.4195  12
   2  -2  14 5.54483 52.2710  13
  -2   2 -14 55.5901 65.1318   7
   2  -2  15 478.273 98.0304   3
  -2   2 -15 501.461 90.4132   7
   2  -1 -16 949.700 108.911  12
  -2   1  16 855.646 104.694   9
   2  -1 -15 187.663 78.9274  12
  -2   1  15 149.042 74.1030   3
  -2   1  15 282.073 71.4525   9
   2  -1 -14 168.963 64.2484  12
  -2   1  14 269.200 67.7966   9
  -2   1  14 204.566 68.1799   3
  -2   1  13 978.040 98.6969   9
  -2   1  13 878.252 101.152   3
   2  -1 -13 961.975 93.0361  12
   2  -1 -12 7908.09 296.628  14
  -2   1  12 7679.00 302.945   3
   2  -1 -12 8196.22 233.583   5
  -2   1  12 7977.39 304.112   9
  -2   1  11 6963.05 204.227  13
   2  -1 -11 7666.85 274.606  14
  -2   1  11 7144.10 281.551   9
  -2   1  11 7276.05 282.761   3
   2  -1 -11 7393.03 214.624   5
  -2   1  10 325.168 65.5444   3
  -2   1  10 365.303 33.4707  13
  -2   1  10 393.085 63.0932  14
   2  -1 -10 333.323 59.9129  14
  -2   1  10 341.159 73.0294   9
  -2   1  10 360.767 46.0024   8
  -2   1  10 358.873 51.6409   4
  -2   1  10 418.252 43.4808  11
  -2   1   9 20170.8 480.596  13
   2  -1  -9 19685.9 547.880  14
  -2   1   9 19732.4 549.570  14
  -2   1   9 19734.8 514.990   8
  -2   1   9 20578.6 570.121   9
  -2   1   9 18969.9 526.540   4
   2  -1  -9 17958.0 537.980   4
  -2   1   9 20165.6 500.129  11
  -2   1   8 18526.5 457.181  13
   2  -1  -8 18607.0 522.433  14
  -2   1   8 20490.2 533.755  14
  -2   1   8 19103.5 470.066  11
  -2   1   8 18232.8 524.760   9
  -2   1   8 19075.7 500.346   8
  -2   1   8 19203.3 511.111   4
  -2   1   7 874.614 67.9419   4
  -2   1   7 919.550 69.9682  14
   2  -1  -7 979.061 76.2996  14
   2  -1  -7 980.736 50.6121   1
   2  -1  -7 875.149 48.6152   2
  -2   1   7 901.364 44.7242  11
  -2   1   7 974.240 67.3048   8
  -2   1   7 801.745 65.7309   9
   2  -1  -7 944.430 63.3986   8
  -2   1   6 16906.5 442.169   4
   2  -1  -6 17152.0 442.229   4
  -2   1   6 16220.0 437.724  14
   2  -1  -6 15739.1 441.552  14
  -2   1   6 16237.0 383.605  13
  -2   1   6 16268.7 394.681  11
   2  -1  -6 17329.5 432.624   8
  -2   1   6 18022.4 452.989   8
  -2   1   6 16549.7 437.638   9
   2  -1  -6 16903.1 416.829   2
   2  -1  -6 16620.2 416.019   1
   2  -1  -5 9583.85 267.964   4
  -2   1   5 9937.60 270.182   3
   2  -1  -5 9458.30 263.868   3
   2  -1  -5 9727.69 258.887   2
   2  -1  -5 9087.84 255.962   1
   2  -1  -5 8749.14 262.507  14
  -2   1   5 9600.73 261.809  14
  -2   1   5 9390.40 228.128  11
  -2   1   5 10013.7 280.394   8
  -2   1   5 9531.88 263.344   9
   2  -1  -5 8871.80 260.361   8
   2  -1  -4 2171.86 86.9576   1
   2  -1  -4 2053.24 86.3767   2
   2  -1  -4 1922.29 76.9463  14
  -2   1   4 2182.17 78.1205  14
  -2   1   4 1845.44 55.5685  11
  -2   1   4 2050.22 80.6223   9
  -2   1   4 2225.39 92.7717   8
  -2   1   4 2057.59 84.4864   3
   2  -1  -4 2161.44 86.3161   4
  -2   1   3 17735.4 448.979   1
   2  -1  -3 19280.1 457.706   2
  -2   1   3 17182.1 420.612  14
   2  -1  -3 16962.3 422.192  14
   2  -1  -3 18627.5 404.853  11
  -2   1   3 16140.1 405.089  11
  -2   1   3 18562.4 433.530   9
  -2   1   3 19060.1 448.264   8
  -2   1   3 17529.8 433.605   3
  -2   1   2 17166.4 428.225   1
   2  -1  -2 17266.5 434.284   2
   2  -1  -2 17247.0 380.837  13
  -2   1   2 15303.0 382.772  14
   2  -1  -2 15429.2 383.931  14
   2  -1  -2 15390.8 377.550  11
   2  -1  -2 16915.0 408.882   8
  -2   1   2 17376.2 410.591   8
  -2   1   2 18004.0 399.846   9
   2  -1  -2 17318.4 398.298   3
  -2   1   2 15868.5 396.486   3
  -2   1   1 81032.4 1773.20   1
   2  -1  -1 70974.7 1711.70  14
  -2   1   1 79582.6 1717.00   7
   2  -1  -1 72623.6 1724.92   3
  -2   1   1 81579.3 1728.20   3
   2  -1   0 115541. 2742.55   6
  -2   1   0 130247. 2750.16  12
  -2   1   0 120305. 2792.16   1
   2  -1   0 116977. 2798.37   2
   2  -1   0 113989. 2791.20   1
  -2   1   0 126346. 2746.31   7
  -2   1  -1 23331.6 552.569  12
  -2   1  -1 23285.9 540.630   6
   2  -1   1 23793.9 540.605   6
   2  -1   1 24042.3 584.859   1
   2  -1   1 24186.5 546.425   7
  -2   1  -1 22878.5 546.835   7
  -2   1  -2 102.208 14.4842   7
  -2   1  -2 114.042 12.4576   6
   2  -1   2 136.635 12.1937   6
  -2   1  -2 125.206 17.1609  12
   2  -1   2 120.718 23.3863   2
   2  -1   2 145.850 24.6592   1
   2  -1   2 109.545 18.9048   5
   2  -1   3 50692.7 1163.45   5
   2  -1   3 49325.5 1165.94  14
  -2   1  -3 51025.3 1161.44  12
   2  -1   3 49100.9 1166.66   2
   2  -1   3 47724.4 1161.63   1
  -2   1  -3 49801.1 1137.03   6
   2  -1   3 51058.1 1164.35  10
  -2   1  -3 48998.5 1149.10   7
   2  -1   4 28635.6 680.532   5
   2  -1   4 27822.2 690.605  14
  -2   1  -4 27968.0 681.210  12
  -2   1  -4 27927.6 654.657   6
  -2   1  -4 27722.0 689.850   5
  -2   1  -4 27704.5 670.029   7
   2  -1   4 26970.9 673.874  10
   2  -1   4 27538.3 671.606   2
   2  -1   4 27794.2 668.114   1
   2  -1   5 2633.66 107.018   5
   2  -1   5 2414.66 115.407  14
   2  -1   5 2330.71 90.5747   2
   2  -1   5 2430.29 88.7161   1
  -2   1  -5 2544.14 91.5094   6
  -2   1  -5 2550.37 115.374   5
   2  -1   5 2373.16 99.2429  10
  -2   1  -5 2338.32 100.341   7
  -2   1  -6 895.346 71.2113   5
  -2   1  -6 830.480 55.9693   6
   2  -1   6 921.362 75.0126  14
  -2   1  -6 994.748 72.5334  12
   2  -1   6 887.149 48.9786   2
   2  -1   6 952.476 47.4719   1
  -2   1  -7 754.011 65.2125   5
  -2   1  -7 736.073 60.1784   6
  -2   1  -7 680.757 71.0864  12
   2  -1   7 767.145 74.0590  14
  -2   1  -8 9042.08 284.833   5
  -2   1  -8 9332.58 284.164   6
  -2   1  -8 8922.62 308.482  12
   2  -1   8 9352.03 270.041   4
   2  -1   8 9572.17 310.364  14
   2  -1   9 6514.80 234.524  14
  -2   1  -9 6314.63 206.059   6
  -2   1  -9 5722.16 201.604   5
  -2   1  -9 5652.23 225.817  12
   2  -1   9 5688.99 186.096   4
   2  -1   9 5411.70 141.672   8
   2  -1  10 2939.85 121.477   4
  -2   1 -10 2981.97 135.625   5
  -2   1 -10 3106.76 138.190   6
  -2   1 -10 3101.98 160.013  12
   2  -1  11 2237.84 126.611  13
  -2   1 -11 1965.91 110.206   5
   2  -1  11 2087.86 99.4945   4
  -2   1 -11 2103.53 135.365  12
  -2   1 -11 2329.82 134.698   7
  -2   1 -12 7874.75 297.444  12
  -2   1 -12 7948.30 287.129   7
   2  -1  12 7990.93 280.424  13
  -2   1 -13 2505.96 154.629  12
   2  -1  13 2308.79 136.251  13
  -2   1 -13 2209.02 140.933   7
  -2   1 -14 67.3937 62.9642  12
   2  -1  14 44.7826 68.3372   3
   2  -1  14 27.6932 55.9429  13
  -2   1 -14 39.9014 61.9806   7
   2  -1  15 502.740 91.6597   3
  -2   1 -15 497.566 86.9742   7
   2   0 -16 2033.84 148.656  12
  -2   0  16 2161.47 156.157   9
  -2   0  16 2225.26 168.151   3
   2   0 -15 242.693 67.4368  12
  -2   0  15 250.263 81.4735   3
  -2   0  15 269.156 72.7154   9
   2   0 -14 437.982 79.4663  12
  -2   0  14 442.654 76.9870   9
  -2   0  14 467.830 85.2962   3
   2   0 -13 2409.03 143.927  12
  -2   0  13 2523.97 160.908   3
  -2   0  13 2199.91 145.090   9
  -2   0  12 1566.23 74.9745  13
   2   0 -12 1715.21 115.571  12
  -2   0  12 1564.75 121.397   9
  -2   0  12 1418.95 117.744   3
   2   0 -12 1654.38 89.5220   5
  -2   0  12 1663.22 103.423   4
  -2   0  11 3130.76 154.799  14
  -2   0  11 3083.77 111.227  13
  -2   0  11 3101.79 128.904  11
  -2   0  11 3120.55 170.148   9
  -2   0  11 3003.27 144.219   4
   2   0 -11 3027.28 149.629  12
  -2   0  10 5880.03 175.525  13
  -2   0  10 6049.80 223.686  14
  -2   0  10 5901.36 243.658   9
  -2   0  10 5674.42 211.211   4
  -2   0   9 4519.40 177.851   4
   2   0  -9 4705.86 187.549  14
  -2   0   9 4749.09 138.797  13
  -2   0   9 4575.78 182.363  14
   2   0  -9 4486.23 132.453   1
  -2   0   9 4473.74 154.264  11
  -2   0   9 4440.24 192.225   9
   2   0  -9 4591.65 159.723   8
  -2   0   8 41658.7 1037.27   4
  -2   0   8 40898.2 1060.78   3
  -2   0   8 41049.2 1035.59  14
   2   0  -8 41368.0 1040.41  14
  -2   0   8 40960.0 972.298  13
   2   0  -8 42880.8 985.588   1
  -2   0   8 43933.6 995.767  11
  -2   0   8 42322.6 1044.41   9
   2   0  -8 43670.3 1007.77   8
  -2   0   7 19307.1 531.217   4
  -2   0   7 19866.9 540.408   3
  -2   0   7 19678.6 528.313  14
   2   0  -7 20278.5 529.374  14
  -2   0   7 20040.1 464.815  13
   2   0  -7 19845.8 490.132   1
  -2   0   7 20211.3 486.175  11
  -2   0   7 19774.3 523.563   9
   2   0  -7 19957.2 501.651   8
  -2   0   6 38.8089 28.6673   4
   2   0  -6 47.5684 27.2791   4
  -2   0   6 52.9461 23.7587  14
   2   0  -6 6.69128 18.7331  14
  -2   0   6 30.1966 6.96551  13
   2   0  -6 30.9925 18.6265   8
  -2   0   6 8.53757 20.4359   9
  -2   0   6 42.7257 14.2780  11
  -2   0   6 41.5229 19.2695   2
   2   0  -6 42.3789 18.7669   2
  -2   0   6 35.6734 21.5210   3
   2   0  -6 38.8906 19.8493   1
   2   0  -5 17269.4 455.894  14
  -2   0   5 17786.7 449.426  14
  -2   0   5 17650.7 421.166  11
   2   0  -5 17046.4 441.755   1
   2   0  -5 18038.7 449.684   2
  -2   0   5 17823.3 450.658   2
   2   0  -5 17577.0 441.673   8
  -2   0   5 17736.9 447.622   9
   2   0  -5 18405.2 465.957   4
  -2   0   5 17542.3 457.850   3
  -2   0   4 31350.3 744.301  14
   2   0  -4 32189.7 759.721  14
   2   0  -4 32020.9 727.712  11
  -2   0   4 32753.8 729.521  11
   2   0  -4 33984.9 770.208   2
   2   0  -4 32381.3 755.274   3
   2   0  -4 30493.4 757.489   1
  -2   0   4 31388.9 765.495   2
   2   0  -4 30051.4 743.691   9
   2   0  -4 29204.6 747.364   8
  -2   0   4 29854.9 750.245   9
  -2   0   4 32144.3 757.618   3
  -2   0   4 32413.2 766.311   4
  -2   0   3 293.556 19.7026  14
   2   0  -3 287.423 23.6256  14
  -2   0   3 245.006 17.2004  11
   2   0  -3 266.504 17.4437  11
   2   0  -3 229.452 23.1936   9
  -2   0   3 269.698 24.5840   9
  -2   0   3 283.458 28.3813   4
  -2   0   3 235.251 25.0819   3
   2   0  -2 1011.29 34.5257  14
  -2   0   2 971.189 30.9836  14
  -2   0   2 1030.65 48.4468   4
   2   0  -2 1103.01 52.2536   4
  -2   0   2 892.059 42.4758   3
  -2   0   2 993.673 38.5341  11
   2   0  -2 1094.18 46.0742   9
   2   0  -2 1081.37 52.5335  10
  -2   0   2 972.771 44.8148   9
  -2   0   2 1128.47 65.3091   2
   2   0  -2 1156.44 66.9683   2
   2   0  -1 521.245 20.3003   7
   2   0  -1 493.646 19.5969  12
  -2   0   1 455.460 19.2930  12
  -2   0   1 525.158 27.3473   3
   2   0   0 4568.38 119.582  14
   2   0   0 4289.05 116.158  12
  -2   0   0 4302.79 115.335  12
  -2   0   0 5107.29 163.587   2
   2   0   0 4134.65 155.313   2
  -2   0   0 4554.82 123.093   6
  -2   0   0 4732.45 145.550  10
   2   0   0 4537.49 109.976   7
  -2   0   0 4792.55 110.460   7
   2   0   1 44613.5 1019.41  14
  -2   0  -1 42872.5 1005.56  12
   2   0   1 44134.5 1008.54  12
  -2   0  -1 45758.7 1049.36   2
   2   0   1 42563.3 1004.21   6
  -2   0  -1 44024.8 1005.88   6
  -2   0  -1 43738.6 1038.98  10
  -2   0  -1 44089.1 994.303   7
   2   0   2 17441.0 435.390  14
  -2   0  -2 16203.3 414.892  12
   2   0   2 16583.1 436.190   2
  -2   0  -2 17777.0 438.465   2
  -2   0  -2 16910.4 407.897   6
   2   0   2 17302.5 417.871   5
   2   0   2 16983.4 405.683   6
  -2   0  -2 17160.3 443.154  10
  -2   0  -2 16883.4 402.001   7
  -2   0  -3 5374.25 167.169  12
  -2   0  -3 5470.45 170.359   2
   2   0   3 5384.57 170.052   2
   2   0   3 5541.68 165.617   1
  -2   0  -3 5326.34 152.715   6
   2   0   3 5524.33 161.660   5
   2   0   3 5711.16 178.350  10
  -2   0  -3 5592.05 185.449  10
   2   0   3 5193.56 176.576  14
  -2   0  -4 64564.0 1485.99  12
   2   0   4 64439.6 1468.51   5
  -2   0  -4 62688.6 1457.61   6
   2   0   4 62807.6 1461.87   1
   2   0   4 61707.5 1467.49   2
  -2   0  -4 62268.5 1466.22   2
  -2   0  -4 66310.9 1496.43  10
   2   0   4 62051.6 1492.53  14
   2   0   5 17168.6 469.570  14
   2   0   5 17361.7 429.108   1
  -2   0  -5 17575.4 438.110   6
  -2   0  -5 17025.1 459.191  10
   2   0   5 17146.4 443.993   5
   2   0   6 586.793 59.6574  14
  -2   0  -6 649.031 63.7979  12
   2   0   6 651.839 40.0603   1
  -2   0  -6 703.479 54.4732   6
  -2   0  -6 650.418 54.7308  10
   2   0   6 591.668 50.0491   5
   2   0   7 4002.59 167.733  14
  -2   0  -7 3635.04 162.137  12
   2   0   7 3806.20 114.811   1
  -2   0  -7 4017.85 154.777   6
  -2   0  -7 3789.84 144.676  10
   2   0   7 3917.94 124.551   4
  -2   0  -8 691.678 68.5391   6
  -2   0  -8 576.983 66.2705  12
   2   0   8 628.358 43.3298   4
   2   0   8 692.797 72.5475  14
  -2   0  -9 3275.30 159.868  12
   2   0   9 3235.90 111.929   4
   2   0   9 3049.62 110.067   8
  -2   0  -9 3395.49 152.606   6
  -2   0 -10 3519.81 159.545   6
  -2   0 -10 3368.50 168.423  12
   2   0  10 3503.01 119.591   4
  -2   0 -11 266.879 62.0303  12
  -2   0 -12 2414.40 147.890  12
   2   0  12 2167.77 142.253   3
  -2   0 -13 4500.99 210.453  12
   2   0  13 3972.73 199.168   3
   2   0  13 4118.39 187.423  13
  -2   0 -13 3754.05 185.790   7
  -2   0 -14 424.495 78.6280  12
   2   0  14 602.038 94.0578   3
  -2   0 -14 554.863 86.7865   7
   2   0  15 450.216 95.6409   3
  -2   0 -15 326.701 78.1380   7
   2   1 -16 3560.82 194.232  12
  -2  -1  16 3916.96 218.108   3
  -2  -1  16 3828.52 206.402   9
   2   1 -15 2792.83 163.624  12
  -2  -1  15 2685.71 169.998   9
  -2  -1  15 2919.54 185.384   3
   2   1 -14 100.892 66.4632  12
  -2  -1  14 37.0026 58.5620   9
  -2  -1  14-15.9687 69.9508   3
   2   1 -13 3708.10 180.893  12
  -2  -1  13 3625.40 193.840   9
   2   1 -13 3940.86 159.438   5
  -2  -1  12 5403.26 202.415  11
  -2  -1  12 5917.65 182.872  13
   2   1 -12 5800.03 227.984  12
  -2  -1  12 5784.83 250.056   9
  -2  -1  12 6121.49 228.251   4
  -2  -1  11 1918.17 119.109  14
   2   1 -11 2010.08 119.782  12
  -2  -1  11 2148.08 91.3720  13
  -2  -1  11 2113.67 110.389  11
  -2  -1  11 2325.78 146.607   9
  -2  -1  11 2189.35 123.025   4
  -2  -1  10 388.072 58.0290   4
  -2  -1  10 333.040 52.5516  14
  -2  -1  10 372.585 33.9009  13
  -2  -1  10 312.450 55.7028   3
   2   1 -10 399.139 30.9823   1
   2   1 -10 352.154 53.9984  12
  -2  -1  10 284.556 43.1762  11
  -2  -1  10 410.149 64.0020   9
   2   1 -10 337.610 40.1985   8
  -2  -1   9 101.939 38.9764   4
  -2  -1   9 60.5045 33.6625  14
  -2  -1   9 46.4672 16.6236  13
  -2  -1   9 48.5929 37.1486   3
  -2  -1   9 64.5787 20.7602   2
   2   1  -9 48.3127 18.8990   1
   2   1  -9 45.6048 31.7526  12
  -2  -1   9 58.5978 36.7416   9
   2   1  -9 59.3087 25.9556   8
  -2  -1   8 7095.00 261.372   3
  -2  -1   8 7127.00 240.581   4
  -2  -1   8 7284.28 234.259  14
  -2  -1   8 7324.81 184.441  13
   2   1  -8 7014.87 228.227  12
   2   1  -8 6759.39 198.554   1
  -2  -1   8 6758.26 205.168  11
  -2  -1   8 7343.05 236.636   9
   2   1  -8 7069.65 203.667   8
  -2  -1   7 32516.5 813.480   2
  -2  -1   7 33874.8 780.025  13
  -2  -1   7 32789.5 832.384  14
  -2  -1   7 33876.4 803.267  11
  -2  -1   7 33956.7 829.762   9
   2   1  -7 34323.2 806.510   8
   2   1  -7 35624.5 786.361  10
  -2  -1   7 31603.0 856.470   3
  -2  -1   7 31485.8 844.972   4
  -2  -1   6 24516.8 620.465   2
  -2  -1   6 24623.5 577.464  13
  -2  -1   6 25035.3 626.171  14
  -2  -1   6 24904.8 597.669  11
   2   1  -6 25011.5 604.875   8
  -2  -1   6 24707.7 619.238   9
   2   1  -6 26645.1 598.602  10
  -2  -1   6 23730.6 640.103   3
  -2  -1   5 6626.40 204.635   2
  -2  -1   5 6537.04 163.096  13
   2   1  -5 6592.14 160.885  13
  -2  -1   5 6377.37 196.551  14
   2   1  -5 6325.11 176.023  11
  -2  -1   5 6784.75 178.882  11
  -2  -1   5 6009.22 190.015   9
   2   1  -5 7056.66 192.364  10
  -2  -1   5 6483.46 204.415   3
  -2  -1   5 6691.39 222.161   4
  -2  -1   4 50977.5 1292.52   2
  -2  -1   4 54954.6 1270.41  14
   2   1  -4 53226.3 1241.16  13
  -2  -1   4 57434.5 1257.01  11
   2   1  -4 53143.3 1255.66  11
  -2  -1   4 55753.6 1267.60   9
   2   1  -4 58921.4 1280.48  10
  -2  -1   4 55320.1 1277.52   3
  -2  -1   4 53794.6 1297.06   4
  -2  -1   3 34003.9 823.282  14
   2   1  -3 35192.5 813.124  13
  -2  -1   3 35356.9 821.896  11
   2   1  -3 37453.8 836.309   6
  -2  -1   3 36624.4 831.492   9
   2   1  -3 37302.9 849.600  10
  -2  -1   3 35553.7 834.584  10
  -2  -1   3 34224.3 831.494   3
   2   1  -3 34727.6 857.684   4
  -2  -1   3 35075.6 851.006   4
  -2  -1   2 161.640 22.5752   4
  -2  -1   2 176.385 17.8228   3
   2   1  -2 164.753 18.2521   3
  -2  -1   2 166.992 17.6535  11
   2   1  -2 179.554 21.2937   6
   2   1  -2 191.457 26.5961  10
  -2  -1   2 217.311 35.1271   2
  -2  -1   1 14270.7 350.224   3
  -2  -1   1 15241.4 363.895   4
   2   1  -1 14965.5 352.091   3
  -2  -1   1 14889.0 361.544   6
  -2  -1   1 14745.5 360.060  11
   2   1  -1 15216.6 389.791  10
  -2  -1   1 14832.8 385.426  10
  -2  -1   1 13722.4 409.258   2
  -2  -1   0 1790.82 90.7369   2
  -2  -1   0 1790.91 61.5630  14
   2   1   0 1616.30 50.4340  14
  -2  -1   0 1633.82 49.8577  12
  -2  -1   0 1608.37 61.8098   6
   2   1   0 1881.75 67.1357  11
  -2  -1   0 1725.74 83.0495  10
   2   1   0 1703.68 65.9272   4
   2   1   0 1644.43 53.1454   3
   2   1   1 7831.63 208.538   4
  -2  -1  -1 8390.76 248.082   2
  -2  -1  -1 8315.72 223.748  14
   2   1   1 8079.59 210.959  14
  -2  -1  -1 7857.95 210.302  12
  -2  -1  -1 8262.40 215.627   6
   2   1   1 8218.99 221.117  11
  -2  -1  -1 7977.14 247.912  10
  -2  -1  -1 8296.07 192.236   7
  -2  -1  -2 38359.6 865.108   2
  -2  -1  -2 35110.8 840.040  12
   2   1   2 35718.9 843.686  14
  -2  -1  -2 35113.1 852.617  14
  -2  -1  -2 36994.5 834.821   6
   2   1   2 35362.9 831.562   6
  -2  -1  -2 37707.2 886.179  10
   2   1   2 33832.3 812.431   4
  -2  -1  -3 1803.13 84.6663  12
   2   1   3 1784.30 87.4160  14
  -2  -1  -3 1619.49 85.4772  14
   2   1   3 1916.02 73.2129   6
   2   1   3 1904.09 74.3400   5
  -2  -1  -3 1848.12 75.0451   6
  -2  -1  -3 1802.81 97.5034  10
  -2  -1  -3 1752.29 83.3297   2
  -2  -1  -4 13175.8 368.364  12
   2   1   4 13567.1 342.536   5
  -2  -1  -4 13174.8 345.119   6
   2   1   4 12735.2 373.622  14
  -2  -1  -4 13331.5 371.903  14
  -2  -1  -4 12820.8 375.396  10
  -2  -1  -4 13377.8 352.238   2
  -2  -1  -5 31808.2 778.413   2
   2   1   5 31357.3 814.919  14
  -2  -1  -5 31913.4 785.156   6
  -2  -1  -5 33574.6 813.159  10
   2   1   5 33156.2 777.893   5
  -2  -1  -6 14465.1 390.977   2
   2   1   6 16000.5 388.484   1
  -2  -1  -6 15494.1 432.331  12
   2   1   6 16209.0 441.838  14
  -2  -1  -6 15925.3 440.259  14
  -2  -1  -6 15495.4 415.648   6
  -2  -1  -6 15895.3 427.335  10
   2   1   6 14722.9 357.077   4
   2   1   6 16879.0 406.634   5
  -2  -1  -7 1218.57 90.1434  14
   2   1   7 1286.49 91.4321  14
  -2  -1  -7 1011.89 76.9364   6
  -2  -1  -7 947.260 78.0159  12
  -2  -1  -7 1218.55 78.6271  10
   2   1   7 1122.76 54.0155   1
   2   1   8 5277.88 213.988  14
  -2  -1  -8 5120.97 206.511  12
  -2  -1  -8 5472.10 193.892  10
   2   1   8 5491.20 148.640   1
  -2  -1  -8 5576.09 212.332   6
  -2  -1  -9 2733.03 146.362   6
  -2  -1  -9 2633.45 140.485  12
  -2  -1  -9 2788.54 125.715  10
  -2  -1 -10 1429.24 107.645   6
  -2  -1 -10 1507.53 109.141  12
  -2  -1 -11 361.982 69.5747  12
   2   1  11 442.166 68.8706   3
  -2  -1 -12 472.989 77.4220  12
   2   1  12 518.729 77.8813   3
  -2  -1 -13 757.819 97.7630  12
   2   1  13 629.494 89.3711   3
  -2  -1 -14 1544.03 131.618  12
   2   1  14 1647.48 131.284   3
  -2  -1 -14 1577.46 121.660   7
   2   2 -17 66.8779 76.8940  12
  -2  -2  16 1103.44 118.551   9
   2   2 -16 1093.04 112.034  12
  -2  -2  16 805.399 112.742   3
   2   2 -15 4346.61 205.867  12
  -2  -2  15 4152.09 214.769   9
   2   2 -14 2990.78 160.880  12
  -2  -2  14 2644.24 166.247   9
   2   2 -13 1869.20 125.015  12
  -2  -2  13 1832.80 137.594   9
  -2  -2  13 1854.19 138.844   3
  -2  -2  12 10229.9 275.430  13
   2   2 -12 9148.08 310.118  12
   2   2 -12 8768.76 224.344   1
  -2  -2  12 9550.98 303.907  11
  -2  -2  12 9879.34 353.254   9
  -2  -2  12 9143.86 335.775   3
  -2  -2  11 8932.54 298.765   4
  -2  -2  11 8838.50 316.944   3
  -2  -2  11 8970.27 295.777  14
  -2  -2  11 9383.17 252.666  13
   2   2 -11 8214.43 286.816  12
   2   2 -11 8146.79 230.370   1
  -2  -2  11 8889.04 237.354   2
  -2  -2  11 8468.42 277.657  11
  -2  -2  11 8463.37 311.782   9
   2   2 -11 8413.00 243.853   8
  -2  -2  10 140.051 48.4142   4
  -2  -2  10 124.219 44.3463  14
  -2  -2  10 120.192 25.2531  13
  -2  -2  10 104.399 27.5206   2
  -2  -2  10 115.747 48.4318   3
   2   2 -10 142.741 26.4019   1
   2   2 -10 122.164 42.0542  12
  -2  -2  10 102.173 40.5294   9
  -2  -2  10 126.375 37.6353  11
   2   2 -10 115.792 27.8639   8
  -2  -2   9 7355.10 257.739   4
  -2  -2   9 7438.49 248.207  14
  -2  -2   9 7238.62 204.705  13
   2   2  -9 7025.16 246.194  12
  -2  -2   9 7237.80 272.552   3
  -2  -2   9 7575.23 221.840   2
  -2  -2   9 7372.01 227.904  11
  -2  -2   9 7549.78 251.213   9
   2   2  -9 7304.56 210.756   8
  -2  -2   8 2426.06 139.495   3
  -2  -2   8 2419.39 105.606   2
  -2  -2   8 2456.38 86.5397  13
   2   2  -8 2759.25 123.840  12
  -2  -2   8 2756.34 124.203  14
   2   2  -8 2476.61 95.3783   8
  -2  -2   8 2349.49 113.641   9
  -2  -2   8 2631.09 130.115   4
  -2  -2   7 4468.00 132.411  13
   2   2  -7 4369.95 163.617  12
   2   2  -7 4792.23 130.347  13
  -2  -2   7 4703.60 171.424  14
  -2  -2   7 4698.49 150.058  11
   2   2  -7 4631.53 145.066   8
  -2  -2   7 4696.07 161.098   9
  -2  -2   7 4192.38 186.400   3
  -2  -2   7 4635.67 163.293   2
  -2  -2   6 29829.3 739.146   2
   2   2  -6 30557.2 719.226  12
   2   2  -6 30094.9 687.019  13
  -2  -2   6 31184.8 729.094  14
   2   2  -6 31183.3 706.887  11
  -2  -2   6 29690.3 707.939  11
  -2  -2   6 30075.6 718.152   9
  -2  -2   6 29149.8 755.631   4
  -2  -2   6 28794.2 749.549   3
  -2  -2   5 2261.76 107.916   2
  -2  -2   5 2360.34 91.3284  14
   2   2  -5 2398.09 85.2319  11
  -2  -2   5 2484.38 88.0448  11
  -2  -2   5 2314.52 77.8343  13
   2   2  -5 2217.22 73.9783  13
   2   2  -5 2323.76 84.3485  12
   2   2  -5 2299.36 85.2129   9
  -2  -2   5 2216.21 81.9867  10
  -2  -2   5 2410.33 90.3348   9
  -2  -2   5 2493.49 119.994   4
  -2  -2   5 2339.50 103.586   3
  -2  -2   4 27103.8 639.933  14
   2   2  -4 26615.4 629.825  12
   2   2  -4 28005.1 634.187  13
  -2  -2   4 27376.3 646.769   9
   2   2  -4 27251.0 643.580   9
  -2  -2   4 26025.6 652.704  10
  -2  -2   4 27997.0 659.030   3
  -2  -2   4 26203.6 691.760   4
  -2  -2   4 26481.3 644.410  11
   2   2  -3 64619.8 1431.90  12
   2   2  -3 63499.9 1451.16  13
  -2  -2   3 64949.9 1458.55  11
   2   2  -3 64276.6 1455.29   9
  -2  -2   3 62127.0 1475.68  10
  -2  -2   3 61757.2 1492.25   4
  -2  -2   2 38442.3 922.579   2
   2   2  -2 35467.6 846.031   3
   2   2  -2 36647.1 832.316   7
   2   2  -2 35344.7 848.346  13
  -2  -2   2 38637.3 857.131   6
   2   2  -2 36425.0 859.163   6
  -2  -2   2 35877.6 851.051  11
   2   2  -2 36430.2 847.517   9
  -2  -2   2 36763.3 871.179   4
  -2  -2   2 35666.0 841.599   3
  -2  -2   1 7746.17 183.385   3
   2   2  -1 7243.57 185.473   3
  -2  -2   1 7778.43 206.454   4
  -2  -2   1 7372.34 181.507  14
   2   2  -1 6351.83 201.808   6
  -2  -2   1 7652.01 203.941   6
  -2  -2   1 8094.85 257.636   2
   2   2  -1 6961.96 201.451  11
  -2  -2   1 7178.07 231.494  10
   2   2  -1 7523.36 174.475   7
  -2  -2   0 31280.4 701.825  14
   2   2   0 30788.3 696.994  14
  -2  -2   0 30637.4 718.198   6
  -2  -2   0 31594.2 771.771   2
   2   2   0 29278.9 718.266  11
  -2  -2   0 31741.8 765.659  10
  -2  -2   0 30673.3 706.281   4
   2   2   0 28734.6 689.631   3
  -2  -2  -1 3824.56 108.831   4
   2   2   1 4071.62 106.220   3
  -2  -2  -1 4200.01 127.835  14
   2   2   1 4421.26 122.822  14
  -2  -2  -1 4276.41 133.020   6
  -2  -2  -1 4303.21 161.732   2
   2   2   1 4587.16 138.667  11
  -2  -2  -1 4595.84 176.502  10
  -2  -2  -1 4200.01 103.490   7
  -2  -2  -2 1836.88 79.7251   6
  -2  -2  -2 1864.38 84.7645  14
   2   2   2 2123.79 80.1841  14
   2   2   2 2033.11 85.7371  11
  -2  -2  -2 1935.86 109.540  10
  -2  -2  -2 2063.71 99.2873   2
  -2  -2  -3 1830.48 82.5732   6
   2   2   3 1896.85 80.7481   6
   2   2   3 1948.55 86.1419  14
  -2  -2  -3 1871.31 92.2921  14
   2   2   3 1784.32 85.7033  11
  -2  -2  -3 1860.89 107.206  10
  -2  -2  -3 1854.76 93.6438   2
  -2  -2  -4 171.203 31.2970   2
   2   2   4 130.459 32.8319  14
  -2  -2  -4 192.290 30.4177   6
  -2  -2  -4 157.705 38.2944  10
   2   2   4 103.567 29.2753  11
   2   2   4 139.495 22.3565   5
  -2  -2  -5 11323.7 335.985  12
  -2  -2  -5 11251.1 345.905  14
   2   2   5 11836.1 350.796  14
  -2  -2  -5 11730.5 327.468   6
   2   2   5 11424.9 307.050   5
  -2  -2  -5 12031.2 353.840  10
  -2  -2  -5 11837.8 322.685   2
  -2  -2  -6 14270.8 384.615   2
  -2  -2  -6 14520.4 414.341  12
  -2  -2  -6 14319.3 423.850  14
   2   2   6 14618.1 438.255  14
  -2  -2  -6 14351.0 405.958   6
  -2  -2  -6 14215.4 418.061  10
   2   2   6 15637.8 383.504   5
  -2  -2  -7 2834.63 109.757   2
  -2  -2  -7 2881.43 139.027  12
  -2  -2  -7 2883.72 147.215  14
   2   2   7 2869.24 152.825  14
  -2  -2  -7 3225.26 144.403   6
  -2  -2  -7 3314.38 144.551  10
   2   2   7 3104.37 118.047   5
  -2  -2  -8 4823.59 199.421  14
   2   2   8 4531.54 199.843  14
  -2  -2  -8 4571.52 193.502   6
  -2  -2  -8 4593.13 187.009  12
  -2  -2  -8 4267.84 178.679  10
  -2  -2  -8 3987.65 135.841   2
   2   2   8 4462.30 135.624   1
  -2  -2  -9 11977.6 385.194  14
  -2  -2  -9 11551.4 370.728  12
  -2  -2  -9 11667.8 356.716  10
   2   2   9 12007.7 362.371   3
  -2  -2  -9 11642.6 388.991   6
   2   2  10 2601.46 139.281   3
  -2  -2 -10 2620.88 131.300  10
  -2  -2 -10 2854.57 151.912  12
  -2  -2 -11 164.080 63.1557  12
   2   2  11 91.3203 51.2811   3
  -2  -2 -12 88.0348 60.9203  12
   2   2  12 138.403 56.8375   3
   2   2  13 705.988 86.4680   3
   2   2  13 708.515 88.3196  11
  -2  -2 -13 877.490 103.089  12
  -2  -3  17 74.6562 75.5361   9
   2   3 -17 178.764 75.6468  12
  -2  -3  16 776.510 102.828   9
   2   3 -16 747.302 98.5006   7
   2   3 -16 672.598 94.4596  12
   2   3 -15 744.260 92.8583  12
  -2  -3  15 748.056 97.6846   9
  -2  -3  15 702.770 98.4332   3
   2   3 -14 3190.72 169.317  12
  -2  -3  14 3063.28 184.081   3
  -2  -3  14 3084.77 183.960   9
   2   3 -13 1677.55 118.922  12
  -2  -3  13 1508.55 133.295   9
  -2  -3  13 1566.93 128.547   3
   2   3 -12 2993.30 109.843   8
   2   3 -12 3032.23 157.287  12
  -2  -3  12 2914.66 110.591   2
   2   3 -12 2969.55 107.089   1
  -2  -3  12 2821.53 146.304  11
  -2  -3  12 3212.73 177.464   9
  -2  -3  12 3317.99 179.995   3
  -2  -3  11 16753.0 497.808   4
  -2  -3  11 17366.0 492.536  14
  -2  -3  11 16878.1 443.510  13
   2   3 -11 16939.4 492.274  12
  -2  -3  11 16827.2 441.188   2
  -2  -3  11 16664.5 514.220   3
  -2  -3  11 17179.6 475.656  11
  -2  -3  11 17989.4 506.485   9
   2   3 -11 16431.2 426.757   8
  -2  -3  10 4094.79 153.394   2
  -2  -3  10 4099.66 194.386   3
   2   3 -10 4292.97 183.252  12
  -2  -3  10 4155.05 143.851  13
  -2  -3  10 4463.75 182.134  14
  -2  -3  10 4282.20 164.039  11
   2   3 -10 3965.71 134.662   8
  -2  -3  10 4125.65 174.981   9
  -2  -3  10 3950.39 182.671   4
  -2  -3   9 2682.61 117.943   2
  -2  -3   9 2525.19 145.478   3
   2   3  -9 2569.43 125.351  12
  -2  -3   9 2412.45 98.1448  13
  -2  -3   9 2687.65 133.042  14
  -2  -3   9 2620.46 115.054  11
   2   3  -9 2453.55 96.8454   8
  -2  -3   9 2500.29 121.111   9
  -2  -3   9 2462.07 135.198   4
  -2  -3   8 19773.9 521.546  14
   2   3  -8 19276.3 471.647  13
   2   3  -8 19395.9 508.192  12
  -2  -3   8 19537.1 481.466  13
  -2  -3   8 19401.2 499.670  11
  -2  -3   8 19471.7 506.746   9
  -2  -3   8 18155.4 553.486   3
  -2  -3   8 19537.3 517.017   2
  -2  -3   7 9988.01 308.617   2
  -2  -3   7 10132.8 334.261   3
  -2  -3   7 10174.0 293.829  14
   2   3  -7 10331.7 263.487  13
   2   3  -7 10292.0 283.270  12
  -2  -3   7 10077.8 271.228  13
   2   3  -7 10333.6 302.645   6
   2   3  -7 10626.0 284.096  11
  -2  -3   7 10346.8 288.060   9
  -2  -3   7 9040.65 316.953   4
  -2  -3   6 531.886 42.7046  14
   2   3  -6 464.040 33.3089  13
   2   3  -6 484.627 35.6745  12
  -2  -3   6 434.761 35.1789  13
  -2  -3   6 400.465 53.4309   4
   2   3  -6 515.551 40.3534  11
  -2  -3   6 407.291 33.5992  10
  -2  -3   6 507.395 39.7910   9
  -2  -3   6 460.736 52.6107   3
  -2  -3   5 693.998 54.3101   3
   2   3  -5 617.808 44.9339   7
   2   3  -5 582.623 42.2140  11
  -2  -3   5 554.007 38.7517  13
   2   3  -5 627.042 38.2340  13
   2   3  -5 637.222 34.7860  12
   2   3  -5 565.405 37.9130   9
  -2  -3   5 620.792 44.5301  10
  -2  -3   5 635.344 41.3084   9
  -2  -3   5 561.339 60.8684   4
   2   3  -4 729.969 42.5573   7
   2   3  -4 817.021 43.4291  13
   2   3  -4 743.019 32.0715  12
  -2  -3   4 782.568 47.8214  11
   2   3  -4 745.009 41.9493   9
  -2  -3   4 663.339 51.4951  10
  -2  -3   4 714.637 42.1547   9
  -2  -3   4 745.791 48.9873   3
  -2  -3   4 887.947 72.9635   4
   2   3  -3 38689.9 906.422   7
  -2  -3   3 38987.2 893.027  12
   2   3  -3 38920.1 917.318  13
  -2  -3   3 40613.8 927.025   6
  -2  -3   3 40471.7 923.853  11
   2   3  -3 39001.1 889.986  12
  -2  -3   3 38333.0 953.276  10
   2   3  -3 39732.5 912.155   9
  -2  -3   3 40909.7 974.714   4
  -2  -3   3 37591.7 914.982   3
  -2  -3   2 51501.7 1193.20   4
  -2  -3   2 50658.7 1142.15   3
  -2  -3   2 52994.5 1140.75  14
   2   3  -2 48285.9 1160.11  13
  -2  -3   2 48615.6 1125.13  12
   2   3  -2 47861.8 1162.67  11
   2   3  -2 51533.1 1137.33   7
   2   3  -2 49374.9 1149.70   9
  -2  -3   2 48045.7 1165.12   6
  -2  -3   1 13378.2 241.920   6
  -2  -3   1 10858.0 206.460  14
   2   3  -1 13378.3 241.655  11
  -2  -3   1 12390.0 189.828  12
   2   3  -1 12917.6 193.031   7
  -2  -3   1 11463.2 192.661   7
  -2  -3   1 12187.1 191.054   3
  -2  -3   1 13058.0 248.063   4
  -2  -3   0 2710.22 93.4202   4
  -2  -3   0 2815.12 103.514   6
   2   3   0 2679.24 85.2833  14
  -2  -3   0 2630.70 87.6456  14
   2   3   0 2780.35 102.104  11
  -2  -3   0 2652.09 72.8098   7
  -2  -3  -1 41663.9 937.283   4
  -2  -3  -1 43353.9 956.782  14
   2   3   1 42600.5 949.116  14
   2   3   1 42058.9 969.366  11
  -2  -3  -1 41329.0 967.137   6
  -2  -3  -1 43986.0 1047.41  10
  -2  -3  -2 11891.4 319.545  14
   2   3   2 11980.5 311.145  14
  -2  -3  -2 11956.2 322.471   6
   2   3   2 12088.9 325.989  11
  -2  -3  -2 11668.4 372.408  10
  -2  -3  -2 11706.2 287.345   7
   2   3   3 2347.68 98.7116  14
   2   3   3 2139.42 95.2563   6
  -2  -3  -3 2235.13 99.0967   6
  -2  -3  -3 2352.23 112.621   2
   2   3   3 2421.97 104.363  11
  -2  -3  -3 2255.68 126.607  10
  -2  -3  -3 2244.98 76.1669   7
  -2  -3  -4 273.808 42.6419   2
   2   3   4 267.799 40.5124  14
  -2  -3  -4 216.805 46.0197  10
   2   3   4 275.437 39.6862  11
   2   3   4 197.983 27.6689   5
  -2  -3  -4 218.792 36.9271   6
   2   3   4 257.558 38.3199   6
   2   3   5 279.795 47.7444  14
  -2  -3  -5 290.906 48.0193  14
   2   3   5 344.922 34.3548   5
  -2  -3  -5 263.041 42.3521   6
  -2  -3  -5 328.553 53.6295  10
   2   3   5 330.115 48.5275  11
  -2  -3  -5 324.079 44.2222   2
   2   3   5 290.041 33.5626   3
   2   3   6 4750.25 193.200  14
  -2  -3  -6 4542.29 190.337  14
  -2  -3  -6 4787.97 180.414   6
   2   3   6 4690.32 147.563   5
   2   3   6 4363.30 182.224  11
  -2  -3  -6 4107.08 184.695  10
  -2  -3  -6 4454.12 162.765   2
   2   3   6 4513.09 158.413   3
   2   3   7 3347.85 140.624   3
  -2  -3  -7 3663.98 137.306   2
  -2  -3  -7 3862.83 177.619  14
   2   3   7 3818.20 182.867  14
  -2  -3  -7 3575.01 160.298  12
   2   3   7 3763.74 173.004  11
   2   3   7 3862.45 130.978   5
  -2  -3  -7 3596.95 165.725  10
  -2  -3  -7 3538.14 163.732   6
  -2  -3  -8 122.005 51.3406  14
  -2  -3  -8 124.356 45.1524  12
   2   3   8 56.5849 50.2010  11
  -2  -3  -8 99.0223 49.1840  10
   2   3   8 65.2572 39.7826   3
  -2  -3  -8 131.503 31.5196   2
  -2  -3  -9 4230.82 193.148  12
  -2  -3  -9 4554.05 207.293  14
   2   3   9 4555.78 209.033  11
  -2  -3  -9 4518.82 193.018  10
   2   3   9 4478.69 179.597   3
  -2  -3 -10 6545.51 252.775  12
   2   3  10 6614.30 260.809  11
  -2  -3 -10 6436.59 265.531  14
  -2  -3 -10 6029.63 235.501  10
   2   3  10 6105.48 228.183   3
   2   3  11 579.448 80.6298  11
   2   3  11 618.425 72.4234   3
  -2  -3 -11 595.422 89.9452  12
   2   3  12 396.254 74.5683  11
   2   3  12 318.612 65.1019   3
  -2  -3 -12 365.718 80.3641  12
  -2  -3 -13 984.305 110.212  12
  -2  -4  17 211.564 88.5667   9
   2   4 -17 358.601 91.3906   6
   2   4 -17 222.484 81.0658  12
   2   4 -16 779.940 104.040  12
  -2  -4  16 521.486 96.0197   9
  -2  -4  16 700.471 102.863   3
  -2  -4  15 2567.04 174.461   3
   2   4 -15 2748.67 166.962  12
  -2  -4  15 2650.81 174.673   9
  -2  -4  14 1406.05 127.215   3
  -2  -4  14 1473.87 134.234   9
   2   4 -14 1187.54 108.642  12
   2   4 -13 550.637 81.6771   7
  -2  -4  13 623.139 90.5954   9
  -2  -4  13 561.617 84.1558   3
  -2  -4  13 475.021 48.1335   2
   2   4 -13 548.773 81.6865  12
   2   4 -12 228.811 63.5365   7
   2   4 -12 156.046 30.4864   8
   2   4 -12 103.789 56.9140  12
  -2  -4  12 226.348 59.2895   9
  -2  -4  12 90.4870 34.3233   2
  -2  -4  12 111.371 54.9171   3
  -2  -4  11 5334.31 194.298   2
  -2  -4  11 5812.68 244.013   3
  -2  -4  11 5805.86 225.272  14
   2   4 -11 5424.08 219.132  12
   2   4 -11 5921.43 234.852   6
  -2  -4  11 5315.75 208.072  11
  -2  -4  11 5753.41 221.429   9
   2   4 -11 5282.36 166.521   8
   2   4 -11 5524.38 241.282   7
  -2  -4  10 23144.4 641.076   4
  -2  -4  10 21849.5 649.265   3
  -2  -4  10 22814.8 604.581   2
  -2  -4  10 23954.3 626.191  14
   2   4 -10 22642.3 609.355  12
   2   4 -10 24589.4 634.822   6
  -2  -4  10 23796.9 608.241  11
  -2  -4  10 22835.5 610.108   9
   2   4 -10 21807.5 564.081   8
   2   4 -10 23422.3 644.930   7
  -2  -4   9 2910.92 139.474   2
  -2  -4   9 2965.99 161.053   3
   2   4  -9 3193.76 113.121  13
  -2  -4   9 3148.38 140.858  14
   2   4  -9 3221.77 133.054  12
  -2  -4   9 3167.96 122.485  13
   2   4  -9 3125.88 145.902   6
  -2  -4   9 3026.50 133.707  11
  -2  -4   9 3191.60 135.480   9
   2   4  -9 2862.22 146.676   7
  -2  -4   8 3390.18 163.393   4
  -2  -4   8 3125.99 164.700   3
  -2  -4   8 3334.49 136.246  14
   2   4  -8 3303.51 113.561  13
   2   4  -8 3355.23 126.699  12
  -2  -4   8 3023.60 120.457  13
   2   4  -8 3532.64 149.332   6
  -2  -4   8 3316.26 132.347  11
  -2  -4   8 3370.85 131.367   9
   2   4  -8 3245.93 145.806   7
  -2  -4   7 23201.0 657.892   3
   2   4  -7 24431.9 617.186   7
   2   4  -7 24206.4 583.436  13
   2   4  -7 24141.2 589.435  12
  -2  -4   7 23830.6 594.827  13
   2   4  -7 26488.8 628.896   6
   2   4  -7 25512.2 605.223  11
  -2  -4   7 23656.6 604.211  11
  -2  -4   7 23102.0 584.609  10
  -2  -4   7 22917.0 593.197   9
  -2  -4   7 23082.0 651.714   4
  -2  -4   6 16356.0 477.545   3
   2   4  -6 16860.6 447.226   7
  -2  -4   6 17092.1 440.016  13
   2   4  -6 17557.8 430.397  13
   2   4  -6 17292.4 422.920  12
   2   4  -6 18020.3 461.500   6
   2   4  -6 16587.8 441.175  11
  -2  -4   6 17659.9 447.154  11
  -2  -4   6 17282.7 434.407   9
  -2  -4   6 16646.4 441.462  10
  -2  -4   6 16938.7 499.435   4
  -2  -4   5 894.006 63.1233   3
   2   4  -5 833.233 51.4179   7
  -2  -4   5 858.001 53.6851  13
   2   4  -5 795.968 48.7402  13
   2   4  -5 746.440 38.4976  12
   2   4  -5 786.468 57.2111   6
  -2  -4   5 857.609 55.0546  11
   2   4  -5 747.190 43.1182   9
  -2  -4   5 807.673 46.5244   9
  -2  -4   5 774.283 58.8765  10
  -2  -4   5 751.229 72.7886   4
   2   4  -4 3340.39 108.268   7
   2   4  -4 3458.29 114.526  13
  -2  -4   4 3169.01 94.5387  12
   2   4  -4 3141.85 92.3820  12
  -2  -4   4 3175.01 137.130  10
   2   4  -4 3103.61 102.219   9
  -2  -4   4 3217.49 117.063   3
  -2  -4   4 3132.47 154.616   4
   2   4  -3 414.672 29.1847   7
  -2  -4   3 433.952 22.5551  12
   2   4  -3 464.719 39.2732  13
  -2  -4   3 455.561 40.6740   6
   2   4  -3 456.882 39.1592  11
   2   4  -3 462.553 32.4313   9
  -2  -4   3 510.257 56.9720  10
  -2  -4   3 346.083 57.5681   4
  -2  -4   3 399.475 33.1525   3
  -2  -4   2 11712.1 299.160   3
  -2  -4   2 13086.7 370.325   4
  -2  -4   2 12623.7 309.430  14
  -2  -4   2 12410.5 292.662  12
   2   4  -2 12401.2 329.557  13
   2   4  -2 12395.4 329.423  11
   2   4  -2 12649.8 302.669   7
   2   4  -2 12142.1 310.721   9
  -2  -4   2 12266.2 330.722   6
  -2  -4   1 32370.2 748.822  14
  -2  -4   1 33320.1 734.058  12
   2   4  -1 33195.0 773.807  11
  -2  -4   1 32382.0 772.188   6
  -2  -4   1 34786.9 791.316   4
  -2  -4   1 32498.7 723.095   3
  -2  -4   1 31959.7 735.238   7
  -2  -4   0 911.858 48.8947  14
   2   4   0 1095.06 50.8125  14
   2   4   0 983.519 59.2160  11
  -2  -4   0 918.268 58.8684   6
  -2  -4   0 1019.15 56.7764   4
  -2  -4   0 1003.79 38.5278   7
   2   4   1 18253.1 440.979  14
  -2  -4  -1 17884.3 446.912  14
   2   4   1 17634.3 459.353  11
  -2  -4  -1 17775.6 460.663   6
  -2  -4  -1 17327.3 430.761   4
  -2  -4  -1 17667.6 420.171   7
  -2  -4  -2 40011.1 937.423  14
   2   4   2 39580.1 928.290  14
   2   4   2 42034.1 949.014  11
  -2  -4  -2 40129.8 946.394   6
  -2  -4  -2 40152.0 902.412   7
  -2  -4  -3 9365.52 278.140   6
   2   4   3 9696.13 280.027  11
   2   4   3 9386.29 266.613  14
  -2  -4  -3 9056.75 240.101   7
   2   4   4 2136.45 71.6530   3
   2   4   4 2258.80 104.959  14
  -2  -4  -4 2023.03 111.136  14
  -2  -4  -4 1952.01 103.868   6
   2   4   4 2074.18 103.911   6
  -2  -4  -4 2100.72 113.316   2
   2   4   4 2180.55 108.546  11
  -2  -4  -4 2223.62 135.402  10
  -2  -4  -4 2267.67 84.5433   7
   2   4   5 4946.84 161.598   3
  -2  -4  -5 5741.95 213.282  14
   2   4   5 5604.00 200.856  14
  -2  -4  -5 5749.78 202.921   6
   2   4   5 5745.54 167.144   5
  -2  -4  -5 5436.75 199.662   2
   2   4   5 5307.12 200.060  11
  -2  -4  -5 5466.25 225.743  10
  -2  -4  -5 5403.53 168.550   7
  -2  -4  -6 2376.99 119.184   2
  -2  -4  -6 2811.10 137.133   6
   2   4   6 2531.30 95.9533   5
   2   4   6 2505.74 131.407  11
   2   4   6 2556.30 135.585  14
  -2  -4  -6 2743.31 147.169  14
  -2  -4  -6 2636.85 146.155  10
   2   4   6 2285.92 101.743   3
  -2  -4  -7 3804.00 150.755   2
   2   4   7 3943.21 178.314  11
   2   4   7 3305.26 173.375  14
  -2  -4  -7 3698.79 181.605  14
  -2  -4  -7 3805.43 181.497  10
   2   4   7 3689.53 127.637   5
   2   4   7 3653.71 143.925   3
  -2  -4  -8 568.742 73.9516  12
  -2  -4  -8 633.011 85.5695  14
   2   4   8 526.373 77.6696  11
  -2  -4  -8 573.371 78.6208  10
   2   4   8 577.637 58.1136   3
  -2  -4  -9 542.857 84.9756  14
  -2  -4  -9 373.911 70.0369  12
  -2  -4  -9 399.580 71.9709  10
   2   4   9 374.844 78.0415  11
   2   4   9 364.751 54.7445   3
  -2  -4 -10 2090.91 146.573  14
   2   4  10 2009.92 138.993  11
  -2  -4 -10 1955.40 130.113  12
  -2  -4 -10 2080.28 133.355  10
   2   4  10 1902.08 113.568   3
   2   4  11 3789.37 187.957  11
  -2  -4 -11 3388.06 191.589  14
  -2  -4 -12 297.841 79.3139  12
   2   5 -17 810.616 110.420  12
   2   5 -16 686.705 102.468   7
   2   5 -16 866.486 118.481   6
   2   5 -16 741.027 104.719  12
  -2  -5  16 668.406 110.923   9
  -2  -5  16 764.330 108.399   3
   2   5 -15 5886.47 270.215   7
   2   5 -15 6621.65 300.672   6
   2   5 -15 5276.24 251.699  12
  -2  -5  15 6294.79 285.464   9
  -2  -5  15 5437.31 266.564   3
   2   5 -14 3140.12 188.666   7
   2   5 -14 3143.44 185.577  12
  -2  -5  14 3338.71 195.409   3
  -2  -5  14 3435.48 197.381   9
   2   5 -14 3258.36 197.561   6
   2   5 -13 164.674 74.5463   7
   2   5 -13 147.684 65.9068   6
   2   5 -13 138.151 63.3336  12
  -2  -5  13 159.530 62.4381   9
  -2  -5  13 182.452 64.8534   3
  -2  -5  13 147.860 44.0739   2
   2   5 -12 522.008 83.9980   7
  -2  -5  12 620.988 65.7052  13
   2   5 -12 638.721 86.9086   6
   2   5 -12 577.017 75.6802  12
  -2  -5  12 627.160 75.4105   9
   2   5 -12 563.419 46.3689   8
  -2  -5  12 500.473 77.3092   3
  -2  -5  12 616.017 65.8191   2
  -2  -5  11 673.228 89.0883   3
  -2  -5  11 769.224 74.6229   2
  -2  -5  11 766.190 81.8979  14
  -2  -5  11 727.719 67.1848  13
   2   5 -11 694.161 70.3225  12
   2   5 -11 734.440 82.9655   6
   2   5 -11 734.526 52.0643   8
  -2  -5  11 780.290 75.6251   9
   2   5 -11 604.777 82.9756   7
  -2  -5  10 3748.40 196.466   3
  -2  -5  10 4142.66 180.876   2
   2   5 -10 4414.05 148.213  13
  -2  -5  10 4620.23 181.933  14
   2   5 -10 4134.23 165.621  12
  -2  -5  10 4216.62 163.049  13
   2   5 -10 4569.96 190.698   6
  -2  -5  10 4418.91 176.570  11
  -2  -5  10 4286.03 168.437   9
   2   5 -10 4023.88 187.502   7
  -2  -5   9 17622.1 540.226   4
  -2  -5   9 17431.7 541.182   3
   2   5  -9 19292.5 471.345  13
  -2  -5   9 18598.4 498.896  14
  -2  -5   9 18911.4 490.478  13
   2   5  -9 17663.5 486.382  12
   2   5  -9 20158.5 525.346   6
  -2  -5   9 19285.0 504.264  11
  -2  -5   9 17454.6 449.072  10
  -2  -5   9 19112.6 489.757   9
   2   5  -9 18080.5 516.400   7
  -2  -5   8 6086.34 245.380   4
  -2  -5   8 5263.88 236.169   3
   2   5  -8 6423.08 188.424  13
   2   5  -8 6041.77 189.715  12
   2   5  -8 6498.14 223.097   6
   2   5  -8 6373.66 205.306  11
  -2  -5   8 5849.47 204.581  11
  -2  -5   8 5979.24 192.377   9
  -2  -5   8 5860.23 182.858  10
   2   5  -8 5771.67 211.590   7
  -2  -5   7 20551.4 593.635   3
   2   5  -7 20433.3 549.674   7
   2   5  -7 20861.6 522.392  12
   2   5  -7 22000.8 531.095  13
   2   5  -7 22557.9 567.128   6
   2   5  -7 21139.1 545.343  11
  -2  -5   7 21447.4 550.018  11
  -2  -5   7 21247.8 528.187   9
  -2  -5   7 20398.7 537.227  10
  -2  -5   7 20483.5 600.395   4
  -2  -5   6 31270.7 814.065   3
   2   5  -6 30803.1 774.735   7
   2   5  -6 31811.4 750.754  12
  -2  -5   6 32232.7 756.718  12
   2   5  -6 31513.7 766.377  13
   2   5  -6 33161.5 796.686   6
  -2  -5   6 31827.1 782.217  11
  -2  -5   6 31359.8 756.969   9
  -2  -5   6 31673.1 789.844  10
  -2  -5   6 31191.6 843.138   4
  -2  -5   5 9518.69 289.637   3
   2   5  -5 9500.13 264.838   7
   2   5  -5 9497.67 268.499  13
  -2  -5   5 9776.38 249.330  12
   2   5  -5 9238.92 284.991   6
  -2  -5   5 9578.32 277.151  11
   2   5  -5 9910.03 247.904  12
  -2  -5   5 9882.28 300.604  10
   2   5  -5 9323.12 249.952   9
  -2  -5   5 9810.10 335.425   4
  -2  -5   4 3338.20 122.739   3
   2   5  -4 3267.89 112.672   7
  -2  -5   4 3475.61 100.482  12
   2   5  -4 3502.36 125.700  13
   2   5  -4 3670.60 139.206   6
   2   5  -4 3275.43 100.640  12
   2   5  -4 3558.93 130.419  11
  -2  -5   4 3317.31 127.749  11
   2   5  -4 3299.12 106.608   9
  -2  -5   4 3434.03 172.957   4
  -2  -5   3 13155.6 345.269   3
  -2  -5   3 14178.8 434.867   4
  -2  -5   3 13407.0 349.015  14
   2   5  -3 13880.2 365.897  13
  -2  -5   3 13795.6 329.409  12
   2   5  -3 13912.8 378.182   6
   2   5  -3 13995.7 370.118  11
  -2  -5   3 14356.4 369.334  11
   2   5  -3 13568.9 341.396   9
   2   5  -3 13614.8 344.039   7
  -2  -5   2 4650.79 193.138   4
  -2  -5   2 4252.79 115.520   3
  -2  -5   2 3919.84 130.093  14
  -2  -5   2 4225.45 115.985  12
   2   5  -2 4291.84 150.753  13
   2   5  -2 4392.04 150.995  11
  -2  -5   2 4413.98 147.871  11
  -2  -5   2 4250.67 125.305   7
   2   5  -2 4057.66 123.944   7
   2   5  -2 4248.92 128.309   9
   2   5  -2 4198.93 154.608   6
  -2  -5   2 4293.03 149.908   6
  -2  -5   1 3254.16 113.204  14
  -2  -5   1 3449.02 100.487  12
   2   5  -1 3172.63 127.942  11
   2   5  -1 3585.18 136.235   6
  -2  -5   1 3292.94 129.075   6
  -2  -5   1 3844.11 151.976   4
  -2  -5   1 3478.80 103.318   7
   2   5  -1 3244.75 101.397   7
  -2  -5   0 9898.58 272.194  14
  -2  -5   0 9730.71 289.200   6
   2   5   0 9858.97 291.934   6
   2   5   0 10221.4 290.909  11
  -2  -5   0 10344.0 289.418   4
  -2  -5   0 10028.0 251.836   7
   2   5   1 1923.97 81.7474  14
   2   5   1 1868.13 98.2359  13
   2   5   1 1672.30 89.6518  11
  -2  -5  -1 1866.69 86.5061  11
   2   5   1 1697.92 91.6255   6
  -2  -5  -1 1535.47 87.6804   6
  -2  -5  -1 1806.50 76.1105   4
  -2  -5  -1 1829.17 65.7641   7
   2   5   2 17196.1 439.829  14
   2   5   2 17151.7 457.676  11
  -2  -5  -2 17738.4 462.393   6
  -2  -5  -2 16720.5 408.745   4
  -2  -5  -2 16988.6 414.895   7
  -2  -5  -3 19190.0 520.474   6
  -2  -5  -3 18917.7 517.207  14
   2   5   3 20235.2 507.684  14
  -2  -5  -3 19755.5 476.508   7
   2   5   3 19262.4 518.758  11
  -2  -5  -4 3963.29 163.031   6
   2   5   4 3422.28 151.610   6
   2   5   4 3933.56 159.689  11
  -2  -5  -4 3948.65 162.982  14
   2   5   4 4004.39 153.006  14
  -2  -5  -4 3827.92 127.044   7
   2   5   5 6195.02 164.090   3
  -2  -5  -5 6429.29 240.053  14
   2   5   5 6512.97 226.159  14
   2   5   5 6952.75 193.039   5
  -2  -5  -5 6492.29 235.879   6
  -2  -5  -5 6396.52 236.237   2
   2   5   5 6667.28 234.131  11
  -2  -5  -5 6990.49 270.867  10
  -2  -5  -5 6753.69 197.277   7
   2   5   6 12694.0 340.389   3
   2   5   6 12904.1 403.999  14
  -2  -5  -6 13954.1 429.262  14
   2   5   6 14299.5 352.521   5
   2   5   6 15003.0 420.135  11
  -2  -5  -6 13657.6 368.203   7
  -2  -5  -6 14022.9 441.918  10
  -2  -5  -6 13264.6 399.357   2
  -2  -5  -7 1291.67 91.9756   2
   2   5   7 1378.83 106.875  11
  -2  -5  -7 1360.99 114.133  10
   2   5   7 1125.73 65.6732   3
  -2  -5  -7 1424.90 119.065  14
  -2  -5  -8 50.0659 56.1445  14
  -2  -5  -8 74.8074 59.9771  10
   2   5   8 66.9386 58.6510  11
   2   5   8 35.7940 31.2118   3
  -2  -5  -9 52.1137 59.3973  14
  -2  -5  -9 42.6714 55.1497  12
   2   5   9 52.7876 60.1649  11
  -2  -5  -9 87.5564 61.3036  10
   2   5   9 73.8791 38.9040   3
  -2  -5 -10 1952.85 135.939  12
  -2  -5 -10 1715.14 129.527  10
   2   5  10 1822.37 140.309  11
  -2  -5 -10 1698.34 140.421  14
  -2  -5 -11 1817.48 135.847  12
  -2  -5 -11 1854.21 148.221  14
  -2  -5 -12 655.915 99.3496  12
   2   6 -17 1895.88 150.563  12
   2   6 -16 428.330 90.5924  12
   2   6 -16 317.029 92.7534   7
   2   6 -16 549.250 115.109   6
   2   6 -15 2940.60 196.731   6
   2   6 -15 2394.55 176.857   7
  -2  -6  15 2332.55 171.556   3
   2   6 -15 2436.61 176.115  12
   2   6 -14 7454.09 302.910  12
   2   6 -14 7592.70 330.930   7
   2   6 -14 8306.28 335.044   6
  -2  -6  14 8288.99 314.470   9
  -2  -6  14 7792.65 321.494   3
   2   6 -13 2395.53 169.539   7
   2   6 -13 2108.04 139.125  12
   2   6 -13 2348.06 156.820   6
  -2  -6  13 2169.51 138.514   9
  -2  -6  13 2102.34 152.598   3
  -2  -6  13 2154.17 125.941   2
   2   6 -12 7.52254 56.0932   7
  -2  -6  12 79.2343 48.5402  13
   2   6 -12 165.753 65.8670   6
   2   6 -12 122.583 53.3225  12
  -2  -6  12 56.7545 45.5350   9
  -2  -6  12 162.763 61.8483   3
  -2  -6  12 58.2623 49.3946   2
  -2  -6  11 3657.69 178.950   2
  -2  -6  11 4136.10 205.358   3
   2   6 -11 3976.10 168.794  12
  -2  -6  11 4066.93 171.129  13
   2   6 -11 3913.11 147.671  13
   2   6 -11 4476.97 200.303   6
  -2  -6  11 3935.48 165.401   9
   2   6 -11 3809.55 190.041   7
  -2  -6  10 2592.45 154.590   3
   2   6 -10 2395.81 107.467  13
  -2  -6  10 2415.13 124.605  14
   2   6 -10 2415.52 116.769  12
  -2  -6  10 2466.62 123.836  13
   2   6 -10 2662.10 142.658   6
  -2  -6  10 2369.78 116.104   9
   2   6 -10 2331.77 135.553   7
  -2  -6   9 2718.64 160.945   3
   2   6  -9 3127.61 120.360  13
   2   6  -9 2707.46 118.943  12
  -2  -6   9 2825.11 131.652  13
   2   6  -9 3034.46 147.724   6
  -2  -6   9 3148.53 141.080  11
  -2  -6   9 2863.10 120.053   9
  -2  -6   9 2726.71 109.620  10
   2   6  -9 3173.76 146.571   7
  -2  -6   8 4133.87 202.482   3
   2   6  -8 4447.50 172.762   7
   2   6  -8 4159.24 147.770  12
   2   6  -8 4549.54 156.441  13
  -2  -6   8 4640.77 171.515  13
   2   6  -8 4557.42 182.395   6
   2   6  -8 4393.41 169.021  11
  -2  -6   8 4576.41 173.513  11
  -2  -6   8 4238.40 147.499   9
  -2  -6   8 4046.27 154.310  10
  -2  -6   8 4496.95 211.352   4
  -2  -6   7 90.8516 46.3948   3
   2   6  -7 108.916 33.9224   7
   2   6  -7 43.5901 30.6916  13
  -2  -6   7 60.1009 33.3959  13
   2   6  -7 104.906 40.7822   6
  -2  -6   7 61.9625 28.1378  12
   2   6  -7 87.8815 27.2449  12
  -2  -6   7 208.220 41.6407  10
  -2  -6   7 96.4910 36.2306  11
  -2  -6   7 98.9692 51.2644   4
  -2  -6   6 15719.5 454.032   3
   2   6  -6 15776.1 420.197   7
  -2  -6   6 15953.4 434.646  13
   2   6  -6 15900.1 420.692  13
  -2  -6   6 15997.9 400.864  12
   2   6  -6 16119.0 444.813   6
  -2  -6   6 16019.1 433.631  11
   2   6  -6 15555.9 398.441  12
  -2  -6   6 16288.6 455.294  10
  -2  -6   6 16084.6 498.571   4
  -2  -6   5 26522.4 696.273   3
   2   6  -5 28194.3 674.109   7
  -2  -6   5 27680.4 653.753  12
   2   6  -5 29141.3 688.449  13
  -2  -6   5 27117.8 688.268   6
   2   6  -5 28039.5 705.793   6
   2   6  -5 28156.7 695.492  11
  -2  -6   5 27745.0 694.060  11
   2   6  -5 28196.0 656.108  12
   2   6  -5 25748.3 650.598   9
  -2  -6   5 28295.6 771.718   4
  -2  -6   4 5749.47 179.246   3
   2   6  -4 5750.35 174.840   7
  -2  -6   4 5912.01 158.131  12
   2   6  -4 5790.43 189.935  13
  -2  -6   4 5330.47 189.228   6
   2   6  -4 5863.13 202.321   6
   2   6  -4 5643.27 192.544  11
  -2  -6   4 5746.30 192.188  11
   2   6  -4 5603.73 160.153   9
  -2  -6   4 6029.22 253.502   4
  -2  -6   3 7459.60 296.964   4
  -2  -6   3 6963.30 201.501   3
  -2  -6   3 7720.05 216.052  14
  -2  -6   3 7630.39 194.428  12
   2   6  -3 7724.15 234.013  13
   2   6  -3 7661.87 242.315   6
  -2  -6   3 7159.31 229.354  11
   2   6  -3 7829.17 235.958  11
   2   6  -3 7045.78 199.093   9
   2   6  -3 7630.71 209.475   7
   2   6  -2 31863.9 731.189   7
  -2  -6   2 31552.4 730.979   7
  -2  -6   2 30157.2 719.116  12
   2   6  -2 32266.2 769.586  13
   2   6  -2 32356.9 769.245  11
   2   6  -2 33638.0 780.776   6
   2   6  -2 30613.1 728.955   9
  -2  -6   2 29023.2 708.339   3
  -2  -6   2 32554.4 832.825   4
  -2  -6   1 8648.65 221.330  12
   2   6  -1 8185.66 257.596  11
   2   6  -1 8239.37 262.001   6
  -2  -6   1 8021.13 256.572   6
  -2  -6   1 8771.73 224.415   7
   2   6  -1 8039.24 222.290   7
  -2  -6   1 8464.58 286.032   4
  -2  -6   0 251.664 27.0598   7
  -2  -6   0 219.982 39.6472   6
   2   6   0 209.464 41.0215   6
  -2  -6   0 216.675 27.5489  12
  -2  -6   0 256.473 40.4650  11
   2   6   0 331.989 45.1617  11
  -2  -6   0 175.914 41.1944   4
  -2  -6  -1 15.7626 22.4070   4
  -2  -6  -1 64.9935 30.4768  14
   2   6   1 58.7321 35.5257  13
  -2  -6  -1 11.8303 30.1838   6
   2   6   1 7.82053 28.3401   6
   2   6   1 7.52667 28.8057  11
  -2  -6  -1 41.2124 30.2267  11
  -2  -6  -1 17.8586 18.6803   7
   2   6   2 611.401 53.8740  14
  -2  -6  -2 549.125 53.2627  14
   2   6   2 620.726 66.0562  13
  -2  -6  -2 527.185 59.5848   6
   2   6   2 420.033 56.7449   6
   2   6   2 640.101 59.9426  11
  -2  -6  -2 596.960 38.7568   4
  -2  -6  -2 517.306 38.4947   7
  -2  -6  -3 12494.5 337.546  14
   2   6   3 12268.7 326.016  14
   2   6   3 11826.9 357.276  13
   2   6   3 12795.8 343.846  11
  -2  -6  -3 12205.8 295.227   7
  -2  -6  -3 11572.5 341.314   6
   2   6   4 6405.88 230.171  11
  -2  -6  -4 6362.48 191.114   7
  -2  -6  -4 6714.19 233.945  14
   2   6   4 6547.05 221.532  14
  -2  -6  -5 70.6636 54.7094  10
   2   6   5 140.142 46.9666  11
  -2  -6  -5 108.708 50.9959  14
   2   6   5 77.3557 46.9094  14
  -2  -6  -6 5418.99 231.248  14
  -2  -6  -6 5608.56 253.192  10
  -2  -6  -6 5740.79 225.314   2
   2   6   6 5424.40 220.806  11
  -2  -6  -7 7983.47 304.687  14
  -2  -6  -7 7358.25 305.829  10
  -2  -6  -7 7876.43 274.495   2
   2   6   7 7865.77 291.024  11
  -2  -6  -8 465.822 84.5467  10
   2   6   8 497.219 84.6857  11
  -2  -6  -8 643.959 92.6808  14
  -2  -6  -9 1119.04 103.225  12
  -2  -6  -9 1149.92 114.692  10
   2   6   9 1363.33 123.470  11
  -2  -6 -10 525.112 96.8400  14
  -2  -6 -10 734.882 94.9401  12
  -2  -6 -11 999.546 118.233  14
  -2  -6 -11 1134.40 114.077  12
   2   7 -16 642.694 103.517  12
   2   7 -15 38.0468 76.4655   6
   2   7 -15 15.7262 66.5792  12
   2   7 -15-61.8104 87.2281   7
  -2  -7  15 17.9365 69.8074   3
   2   7 -14 2797.51 181.266   6
   2   7 -14 2356.06 181.286   7
   2   7 -14 2304.14 149.417  12
  -2  -7  14 2463.80 170.980   3
   2   7 -13 7046.34 311.871   7
   2   7 -13 7400.63 277.962  12
  -2  -7  13 7984.56 320.354   3
  -2  -7  13 7535.81 279.393   2
   2   7 -12 1406.36 118.664   6
   2   7 -12 1270.51 116.584   7
  -2  -7  12 1092.51 103.917   2
  -2  -7  12 1005.32 110.168   3
   2   7 -12 1066.28 92.8810  12
  -2  -7  12 1250.86 103.840  13
  -2  -7  11 4083.34 213.193   3
   2   7 -11 4351.35 176.913  12
  -2  -7  11 4205.01 188.102  13
   2   7 -11 4425.43 164.884  13
   2   7 -11 4865.37 213.226   6
  -2  -7  11 4419.06 170.119   9
   2   7 -11 4456.75 206.545   7
  -2  -7  10 9696.55 366.405   3
   2   7 -10 10964.5 311.835  13
  -2  -7  10 10748.0 330.691  14
   2   7 -10 11052.7 319.409  12
  -2  -7  10 10793.3 339.921  13
   2   7 -10 11345.6 360.950   6
  -2  -7  10 10918.2 309.632   9
  -2  -7  10 10064.8 291.999  10
   2   7 -10 10819.8 349.776   7
  -2  -7   9 4844.38 230.181   3
   2   7  -9 5514.00 187.644  13
  -2  -7   9 5579.55 210.381  13
   2   7  -9 6070.83 225.088   6
   2   7  -9 5311.12 183.129  12
  -2  -7   9 5899.54 181.318   9
  -2  -7   9 4871.97 181.900  10
   2   7  -9 5350.15 208.603   7
   2   7  -8 100.726 41.9966   7
  -2  -7   8 45.2130 35.8140  13
   2   7  -8 80.4725 36.3284  13
   2   7  -8 61.3323 43.9141   6
   2   7  -8 94.0774 34.7690  12
  -2  -7   8 58.2764 36.5046  10
  -2  -7   8 97.3212 53.6828   3
  -2  -7   7 5.90383 38.9056   3
   2   7  -7 14.4904 32.7655   7
   2   7  -7 53.8643 34.1691  13
  -2  -7   7 26.4241 37.5544  13
   2   7  -7-9.63890 37.5162   6
  -2  -7   7 7.42273 26.4337  12
   2   7  -7 16.8759 22.9872  12
  -2  -7   7 54.1701 38.3343  10
  -2  -7   7 59.6878 35.3315  11
  -2  -7   7-23.4885 47.8598   4
  -2  -7   6 232.212 46.1307   3
   2   7  -6 141.285 35.0677   7
   2   7  -6 220.633 41.4003  13
   2   7  -6 202.454 45.7064   6
  -2  -7   6 202.540 30.3287  12
   2   7  -6 133.123 27.1431  12
   2   7  -6 177.366 40.5813  11
  -2  -7   6 160.313 38.1960  11
  -2  -7   6 158.638 60.3047   4
  -2  -7   5 16595.3 437.857   3
   2   7  -5 15957.6 421.797   7
  -2  -7   5 16367.2 400.050  12
   2   7  -5 16405.1 438.658  13
  -2  -7   5 16313.5 439.970   6
   2   7  -5 16520.0 456.352   6
  -2  -7   5 15872.3 442.775  11
   2   7  -5 16287.3 443.905  11
   2   7  -5 15350.6 391.864   9
  -2  -7   5 16570.4 521.033   4
  -2  -7   4 25381.6 626.197   3
  -2  -7   4 25393.5 743.697   4
  -2  -7   4 26614.6 637.618  14
   2   7  -4 25347.4 651.960  13
  -2  -7   4 26040.4 608.691  12
   2   7  -4 26398.7 669.306   6
  -2  -7   4 25532.3 654.072   6
  -2  -7   4 25462.7 652.842  11
   2   7  -4 26636.0 659.201  11
   2   7  -4 24070.5 602.735   9
   2   7  -4 25670.3 629.563   7
  -2  -7   3 128.764 22.0623   3
  -2  -7   3 108.948 30.8333  14
   2   7  -3 62.8268 36.8331  13
   2   7  -3 98.1653 27.6206   7
   2   7  -3 85.6299 38.3069   6
  -2  -7   3 60.9562 36.7894   6
  -2  -7   3 96.9685 21.8092  12
   2   7  -3 83.7784 35.3522  11
   2   7  -3 120.083 22.5315   9
  -2  -7   3 86.4236 29.1755   7
  -2  -7   2 9924.81 250.874   3
  -2  -7   2 11130.8 378.184   4
  -2  -7   2 11304.7 301.350  14
  -2  -7   2 11276.2 276.047  12
   2   7  -2 11113.7 322.504  13
   2   7  -2 11104.3 321.107  11
  -2  -7   2 10901.2 285.950   7
   2   7  -2 10971.3 285.651   7
   2   7  -2 10743.0 277.163   9
   2   7  -2 11524.6 331.640   6
   2   7  -1 21296.1 566.265   6
  -2  -7   1 21396.8 539.479  14
  -2  -7   1 21257.0 513.770  12
  -2  -7   1 21313.7 551.522  11
   2   7  -1 22425.9 563.734  11
  -2  -7   1 21466.4 593.213   4
   2   7  -1 21197.9 517.719   7
  -2  -7   1 19810.2 514.656   7
   2   7   0 2742.75 128.577   6
  -2  -7   0 2202.48 117.788   6
  -2  -7   0 2257.22 108.288  14
  -2  -7   0 2236.13 110.229  11
   2   7   0 2418.63 118.162  11
  -2  -7   0 2364.46 90.5208  12
  -2  -7   0 2399.71 122.124   4
  -2  -7   0 2347.62 89.0202   7
   2   7   1 1578.95 98.2466   6
  -2  -7  -1 1556.02 89.0954  14
  -2  -7  -1 1623.78 89.9701  11
  -2  -7  -1 1432.68 72.8066  12
   2   7   1 1503.50 94.7283  11
  -2  -7  -1 1517.31 82.2243   4
  -2  -7  -1 1490.00 68.5236   7
   2   7   2 2495.42 128.155  11
  -2  -7  -2 2557.77 121.257  14
   2   7   2 2557.52 130.962   6
  -2  -7  -2 2722.98 98.9801   7
  -2  -7  -3 1237.44 86.8179  14
   2   7   3 1276.03 83.4137  14
   2   7   3 1393.97 95.7241  11
  -2  -7  -4 4196.43 182.225  14
   2   7   4 4247.26 172.163  14
   2   7   4 4464.07 185.124  11
  -2  -7  -5 474.116 93.3305  10
   2   7   5 568.984 70.8109  11
  -2  -7  -5 558.742 79.6204  14
  -2  -7  -6 855.703 97.6229  14
  -2  -7  -6 957.921 120.492  10
  -2  -7  -6 1081.66 101.070   2
   2   7   6 1112.43 102.164  11
  -2  -7  -7 3820.90 214.922  10
  -2  -7  -7 3695.92 203.390  14
   2   7   7 3966.43 195.960  11
  -2  -7  -8 3046.90 191.986  10
  -2  -7  -8 3047.08 189.483  14
   2   7   8 3150.97 179.723  11
  -2  -7  -9 242.861 84.2850  10
  -2  -7  -9 84.7660 72.4298  14
  -2  -7  -9 304.660 70.9033  12
  -2  -7 -10 1051.26 114.862  12
  -2  -7 -10 1073.65 128.604  14
   2   8 -15-46.6912 75.6551   6
   2   8 -15-52.3817 88.0796   7
  -2  -8  15 81.3233 77.5803   3
   2   8 -15 22.3038 61.1521  12
   2   8 -14 68.1342 71.0973   6
   2   8 -14 19.3577 55.4077  12
   2   8 -14 55.6582 69.1377   7
  -2  -8  14 34.6243 66.8198   3
   2   8 -13 2875.12 150.761  12
   2   8 -13 2836.05 179.981   7
  -2  -8  13 2412.68 155.411   2
  -2  -8  13 2335.83 167.692   3
   2   8 -13 2890.85 177.359   6
   2   8 -12 6975.20 246.212  12
  -2  -8  12 7208.65 271.424  13
   2   8 -12 6740.56 277.301   6
   2   8 -12 6683.17 276.769   7
  -2  -8  12 6047.71 269.125   2
  -2  -8  12 6522.78 283.428   3
   2   8 -11 88.9241 58.9021   7
  -2  -8  11 179.096 62.1078  13
   2   8 -11 113.666 62.7222   6
   2   8 -11 129.154 51.2522  12
  -2  -8  11 105.851 31.7360  10
  -2  -8  11 92.9602 60.3534   3
   2   8 -10 7624.40 277.067   7
  -2  -8  10 7956.13 280.313  13
   2   8 -10 7773.56 285.931   6
   2   8 -10 7965.81 250.169  12
  -2  -8  10 7246.77 237.928  10
  -2  -8  10 7054.75 295.700   3
   2   8  -9 13106.5 392.879   7
  -2  -8   9 13707.3 405.850  13
   2   8  -9 13170.1 374.286  13
   2   8  -9 13673.5 417.925   6
   2   8  -9 13676.8 366.022  12
  -2  -8   9 11980.3 377.168  10
  -2  -8   9 11585.2 419.734   3
   2   8  -8 2983.26 140.294   7
  -2  -8   8 3311.44 156.196  13
   2   8  -8 3400.83 142.395  13
   2   8  -8 3149.41 158.117   6
   2   8  -8 3009.51 123.472  12
  -2  -8   8 2955.29 149.440  10
  -2  -8   8 2834.63 167.979   3
   2   8  -7 1646.50 93.1199   7
   2   8  -7 1704.97 96.3571  13
   2   8  -7 1676.69 110.092   6
   2   8  -7 1489.77 99.1832  11
   2   8  -7 1490.73 76.6067  12
  -2  -8   7 1602.61 113.346  10
  -2  -8   7 1467.30 106.438   3
   2   8  -6 3911.11 157.167  13
   2   8  -6 3959.80 172.314   6
   2   8  -6 3644.73 159.190  11
   2   8  -6 3994.65 150.631   7
  -2  -8   6 3901.12 163.417   3
  -2  -8   5 1946.38 96.3748   3
  -2  -8   5 1932.13 98.9027  14
  -2  -8   5 1942.40 79.5278  12
   2   8  -5 2071.45 108.613  13
   2   8  -5 1919.95 113.678   6
   2   8  -5 1853.12 106.119  11
   2   8  -5 1791.31 92.2337   7
  -2  -8   5 2242.44 157.250   4
  -2  -8   4 4034.34 136.141   3
  -2  -8   4 4745.14 240.712   4
  -2  -8   4 4387.63 155.661  14
   2   8  -4 4292.39 168.259  13
  -2  -8   4 4261.96 131.064  12
   2   8  -4 4350.78 178.968   6
   2   8  -4 4473.90 172.615  11
   2   8  -4 3835.23 118.455   9
   2   8  -4 4077.59 148.122   7
  -2  -8   3 6488.55 170.924   3
  -2  -8   3 6513.82 208.240  14
  -2  -8   3 6257.09 180.613  12
   2   8  -3 6553.67 225.556  11
   2   8  -3 6758.81 198.160   7
  -2  -8   3 6824.61 198.331   7
   2   8  -3 6659.78 234.810   6
  -2  -8   2 187.212 67.9264   4
   2   8  -2 273.452 39.7059   7
   2   8  -2 368.191 56.2788   6
  -2  -8   2 224.840 43.1059  14
  -2  -8   2 189.921 31.6188  12
   2   8  -2 222.590 28.1765   9
   2   8  -2 226.735 47.0730  11
  -2  -8   2 240.156 36.1736   7
   2   8  -1 13006.0 371.719   6
  -2  -8   1 11971.1 343.624  14
   2   8  -1 12187.1 360.728  11
  -2  -8   1 11995.8 313.708  12
  -2  -8   1 11877.8 385.098   4
   2   8  -1 11704.7 316.816   7
  -2  -8   1 11602.1 316.296   7
  -2  -8   0 13830.1 366.633  12
   2   8   0 14569.9 414.684  11
   2   8   0 14428.1 419.353   6
  -2  -8   0 14209.7 396.462  14
  -2  -8   0 14028.5 412.690   4
   2   8   1 1514.99 101.009  11
  -2  -8  -1 1593.39 94.6065  14
   2   8   1 1439.11 102.494   6
   2   8   2 5967.51 224.309  11
  -2  -8  -2 5887.15 214.876  14
   2   8   2 5789.86 224.989   6
   2   8   3 7096.37 255.277  11
  -2  -8  -3 6880.02 246.922  14
   2   8   3 6515.23 250.009   6
  -2  -8  -4 643.146 77.5282  14
   2   8   4 736.792 82.7602  11
  -2  -8  -5 62.8742 54.0132  14
  -2  -8  -5 125.597 75.2243  10
   2   8   5 78.2784 50.6580  11
  -2  -8  -6 64.1390 66.7983  14
  -2  -8  -6 9.58890 72.7496  10
   2   8   6 19.5652 55.6108  11
  -2  -8  -6-7.04984 62.9680   2
   2   8   7 914.700 102.302  11
  -2  -8  -7 956.731 123.378  10
  -2  -8  -7 715.771 100.469  14
  -2  -8  -8 1725.72 159.241  10
  -2  -8  -8 1882.00 160.540  14
  -2  -8  -9 1375.98 141.271  10
  -2  -8  -9 1095.03 131.409  14
   2   9 -14 715.234 110.713   6
   2   9 -14 999.051 122.174   7
  -2  -9  14 775.873 107.489   3
   2   9 -14 868.250 95.5810  12
   2   9 -13 1382.51 129.732   7
  -2  -9  13 1126.53 114.758   2
  -2  -9  13 1095.36 119.429   3
   2   9 -13 1366.66 104.276  12
   2   9 -12 1746.14 139.158   6
   2   9 -12 1561.28 109.081  12
   2   9 -12 1745.07 134.203   7
  -2  -9  12 1551.05 131.254   3
  -2  -9  11 3556.27 185.821  13
   2   9 -11 3804.94 194.106   6
   2   9 -11 3610.49 157.303  12
   2   9 -11 3555.84 182.430   7
  -2  -9  11 3398.01 193.828   3
   2   9 -10 101.603 56.4426   7
  -2  -9  10 38.1591 57.1670  13
   2   9 -10 53.5472 57.8649   6
   2   9 -10 54.0344 41.2353  12
  -2  -9  10-34.6404 47.6708  10
  -2  -9  10 54.3350 60.4236   3
   2   9  -9 10800.1 341.364   7
  -2  -9   9 10970.2 364.789  13
   2   9  -9 10685.3 311.574  12
  -2  -9   9 10041.7 376.036   3
  -2  -9   9 10097.3 339.040  10
   2   9  -9 11466.1 368.218   6
   2   9  -8 10202.9 348.696   6
  -2  -9   8 9630.38 348.902   3
   2   9  -8 10426.9 294.373  12
  -2  -9   8 9770.13 342.885  10
   2   9  -8 10483.8 321.300   7
   2   9  -7 523.825 76.1012   6
  -2  -9   7 581.626 72.4145   3
   2   9  -7 623.989 71.0926  11
  -2  -9   7 597.596 84.9794  10
   2   9  -7 580.295 64.2479   7
   2   9  -6 4917.31 201.944   6
  -2  -9   6 4079.51 169.659   3
   2   9  -6 4616.31 187.140  11
  -2  -9   6 4419.11 171.137  14
   2   9  -6 4128.82 164.173   7
   2   9  -5 10703.8 336.434   6
  -2  -9   5 9923.77 300.462  14
   2   9  -5 10352.6 320.590  11
   2   9  -5 9784.02 294.258   7
  -2  -9   5 9512.44 282.604   3
  -2  -9   4 882.073 115.657   4
   2   9  -4 1077.48 91.9237   6
  -2  -9   4 978.344 72.9919  14
   2   9  -4 1008.29 83.4923  11
   2   9  -4 811.668 38.2644   9
   2   9  -4 887.652 64.3055   7
  -2  -9   3 82.0929 35.3983  14
   2   9  -3 31.6965 17.5164   9
   2   9  -3 67.9367 44.1759  11
  -2  -9   3 138.669 68.2779   4
   2   9  -3 87.6372 34.8811   7
   2   9  -3 95.8558 46.9755   6
   2   9  -2 345.930 62.3163   6
  -2  -9   2 338.914 52.7111  14
   2   9  -2 357.900 58.9336  11
   2   9  -2 274.381 29.7433   9
   2   9  -2 371.184 46.1228   7
   2   9  -1 1855.36 114.076  11
   2   9  -1 1886.05 119.323   6
   2   9  -1 1718.38 75.5067   9
  -2  -9   1 1797.84 104.094  14
   2   9   0 9121.13 306.714  11
   2   9   0 9679.89 317.171   6
  -2  -9   0 8900.16 289.953  14
   2   9   1 3975.28 178.679  11
  -2  -9  -1 3992.04 171.042  14
   2   9   1 4051.07 183.816   6
   2   9   2 22.8359 50.6690   6
   2   9   2 38.7664 48.1978  11
  -2  -9  -2 5.03408 45.2487  14
   2   9   3 5828.85 231.640  11
   2   9   3 5878.68 233.959   6
  -2  -9  -3 5246.78 219.668  14
  -2  -9  -4 5368.15 225.941  14
   2   9   4 5189.50 225.510  11
  -2  -9  -5 299.805 75.9462  14
   2   9   5 302.595 70.9196  11
  -2  -9  -5 336.804 91.8585  10
  -2  -9  -6 45.8521 64.7654  14
   2   9   6 199.472 68.3457  11
  -2  -9  -6 135.664 89.0248  10
  -2  -9  -7 204.893 85.4947  14
  -2  -9  -7 226.172 93.6725  10
  -2  -9  -8 1320.58 144.058  14
  -2  -9  -8 1313.69 141.603  10
  -2 -10  14 1134.94 127.898   3
   2  10 -13 3685.46 203.270   7
  -2 -10  13 3385.35 204.369   2
  -2 -10  13 3395.91 203.156   3
   2  10 -13 3858.96 210.368   6
   2  10 -12 1050.11 116.405   6
   2  10 -12 1048.70 111.346   7
  -2 -10  12 956.435 109.107   3
  -2 -10  11 82.2406 63.3266  13
   2  10 -11 82.9205 48.8632  12
   2  10 -11 19.5269 53.5637   7
  -2 -10  11 89.8787 60.9144   3
   2  10 -11 112.132 69.6825   6
   2  10 -10 14.2239 59.3692   6
   2  10 -10 88.0431 58.6911   7
   2  10 -10 62.9125 40.6871  12
  -2 -10  10 5.17696 46.5361  10
  -2 -10  10-16.1764 60.2814   3
   2  10  -9 451.497 57.1205  12
   2  10  -9 431.888 69.8297   7
  -2 -10   9 359.594 68.8289  10
   2  10  -9 392.598 75.0878   6
   2  10  -8 8486.32 297.242  11
   2  10  -8 8290.92 282.194   7
  -2 -10   8 8056.34 312.767  10
   2  10  -8 9044.35 316.798   6
   2  10  -7 7437.54 280.049   6
  -2 -10   7 6936.22 245.558  14
   2  10  -7 7325.68 263.050  11
  -2 -10   7 6907.02 291.718  10
   2  10  -7 7000.05 243.210   7
   2  10  -6 141.621 59.1499   6
  -2 -10   6 208.728 53.8331  14
   2  10  -6 130.415 53.0806  11
   2  10  -6 197.476 51.5293   7
   2  10  -5 8882.43 304.448  11
  -2 -10   5 9303.08 289.045  14
   2  10  -5 9377.46 319.664   6
   2  10  -5 8617.77 275.140   7
   2  10  -4 10534.7 338.356  11
  -2 -10   4 10535.3 318.464  14
   2  10  -4 10443.1 347.305   6
   2  10  -4 10090.3 303.773   7
   2  10  -3 1117.38 93.7802  11
  -2 -10   3 1002.49 83.5324  14
   2  10  -3 1057.33 100.731   6
   2  10  -3 1072.61 73.8468   7
   2  10  -2 1376.62 105.402  11
   2  10  -2 1640.91 116.429   6
   2  10  -2 1453.06 82.6433   7
  -2 -10   2 1458.10 98.7524  14
  -2 -10   1 293.398 58.0177  14
   2  10  -1 373.098 61.7786  11
   2  10  -1 374.406 68.7827   6
   2  10   0 792.142 85.7642  11
  -2 -10   0 696.056 78.7886  14
   2  10   0 589.096 82.0602   6
   2  10   1 3982.11 184.398  11
   2  10   1 3577.09 181.258   6
  -2 -10  -1 3958.71 177.167  14
  -2 -10  -2 553.374 76.8006  14
   2  10   2 537.121 80.0381   6
   2  10   2 582.171 79.1303  11
   2  10   3 448.012 76.5666  11
  -2 -10  -3 501.596 78.4932  14
  -2 -10  -4 2550.48 203.642  10
  -2 -10  -4 2576.18 158.419  14
   2  10   4 2476.77 155.754  11
  -2 -10  -5 2423.60 200.650  10
  -2 -10  -5 2600.33 168.361  14
   2  10   5 2850.87 169.506  11
  -2 -10  -6 73.7155 77.2158  14
  -2 -10  -6-11.2377 98.4513  10
  -2 -11  13 3190.43 216.185   2
   2  11 -12 3991.09 210.714   7
   2  11 -12 4232.12 226.268   6
   2  11 -11 199.806 73.2363   7
   2  11 -11 338.562 87.2226   6
   2  11 -10 579.357 81.6694   7
   2  11 -10 545.410 93.7765   6
   2  11  -9 850.271 106.051   6
  -2 -11   9 735.362 94.8282  10
   2  11  -9 888.461 90.9343   7
  -2 -11   8 399.594 67.7651  14
   2  11  -8 504.035 74.6929  11
   2  11  -8 536.177 85.6876   6
  -2 -11   8 391.595 82.0514  10
   2  11  -8 472.215 70.3334   7
  -2 -11   7 3462.80 159.169  14
   2  11  -7 3074.72 165.657  11
   2  11  -7 3570.24 185.610   6
  -2 -11   7 3251.30 197.560  10
   2  11  -7 3350.85 153.973   7
   2  11  -6 3136.41 162.485  11
   2  11  -6 2891.33 167.150   6
  -2 -11   6 2945.52 145.292  14
   2  11  -6 2836.13 139.287   7
   2  11  -5 1128.37 99.6278  11
   2  11  -5 1256.06 110.348   6
  -2 -11   5 1048.09 90.1890  14
   2  11  -5 1004.79 82.0162   7
   2  11  -4 7502.35 272.207  11
   2  11  -4 7368.35 280.518   6
  -2 -11   4 6846.67 247.702  14
   2  11  -4 6968.17 232.997   7
   2  11  -3 5428.69 223.066  11
  -2 -11   3 5026.93 203.583  14
   2  11  -3 5185.23 187.251   7
   2  11  -3 5491.12 231.490   6
   2  11  -2 297.608 69.3974   6
   2  11  -2 395.167 73.3272  11
  -2 -11   2 196.505 58.9492  14
   2  11  -1 2801.06 158.881  11
   2  11  -1 2762.31 159.591   6
  -2 -11   1 2452.33 140.370  14
   2  11   0 2911.88 160.201  11
  -2 -11   0 2915.65 152.427  14
   2  11   0 2917.19 165.313   6
   2  11   1 258.636 70.7038  11
  -2 -11  -1 138.509 59.0047  14
   2  11   1 182.024 64.7594   6
   2  11   2 479.941 83.2225  11
  -2 -11  -2 299.727 70.2497  14
   2  11   2 299.482 73.8180   6
  -2 -11  -3 37.4270 86.8583  10
   2  11   3 20.9185 62.2814  11
   2  11   4 1007.86 111.464  11
   2  12 -11 4886.93 225.545   7
   2  12 -11 4689.98 241.068   6
   2  12 -10 81.0948 61.8098   7
   2  12 -10 217.397 78.9183   6
   2  12  -9 1274.16 127.487   6
  -2 -12   9 1292.18 122.180  10
   2  12  -9 1403.50 111.275   7
   2  12  -8 2327.35 151.840  11
   2  12  -8 2421.46 160.754   6
  -2 -12   8 2348.37 168.466  10
   2  12  -8 2244.15 133.011   7
   2  12  -7 966.649 99.9738  11
   2  12  -7 1097.29 112.848   6
  -2 -12   7 1120.07 128.217  10
   2  12  -7 968.521 87.1922   7
  -2 -12   6 392.498 103.224  10
   2  12  -6 421.274 75.7062  11
   2  12  -6 393.377 61.3364   7
   2  12  -6 475.679 86.2022   6
   2  12  -5 850.255 97.1199  11
   2  12  -5 794.236 100.338   6
   2  12  -5 762.596 76.8139   7
   2  12  -4 856.474 97.6136  11
   2  12  -4 786.837 99.0484   6
   2  12  -4 695.037 73.7687   7
   2  12  -3 5573.14 241.545  11
   2  12  -3 5961.14 254.911   6
   2  12  -2 2822.76 164.695  11
   2  12  -2 2698.06 163.854   6
   2  12  -1 81.2799 62.7796  11
   2  12  -1 84.7128 68.0676   6
   2  12   0 3174.29 177.400  11
   2  12   0 3064.22 178.545   6
   2  12   1 3147.60 180.803  11
   2  12   2 58.0552 75.0907  11
  -2 -13   8 3826.19 223.765  10
  -2 -13   7 2766.39 207.733  10
   2  13  -7 3609.00 202.354   6
  -2 -13   6 103.734 87.4942  10
   2  13  -6 154.761 79.3535   6
  -2 -13   5 64.0095 93.6927  10
   2  13  -5 153.044 73.4029   6
  -2 -13   4 85.6833 105.470  10
  -3  15  -3 11.7514 91.4711   8
  -3  15  -4 2990.28 210.585   8
  -3  15  -5 2690.06 189.805   8
   3 -14  -2 604.986 97.0362  14
  -3  14   2 767.001 139.137   8
   3 -14  -1 31.1419 63.5644  14
  -3  14   1 52.8050 88.9936   8
   3 -14   0 235.594 77.5919  14
  -3  14   0 55.5780 93.7333   8
   3 -14   1 1048.92 108.306  14
  -3  14  -1 1030.20 106.053   7
  -3  14  -1 728.343 144.529   8
   3 -14   1 1059.25 114.779  13
   3 -14   2 4438.82 223.249  14
  -3  14  -2 4965.29 285.210   8
  -3  14  -2 4770.32 218.576   7
   3 -14   2 4428.85 228.109  13
   3 -14   3 1249.05 122.277  14
  -3  14  -3 1252.23 146.166   8
  -3  14  -3 1225.74 116.149   7
   3 -14   4 918.682 111.571  14
  -3  14  -4 830.502 101.017   7
  -3  14  -4 825.444 121.779   8
   3 -14   4 1000.61 116.341  13
   3 -14   5 5702.38 262.483  14
  -3  14  -5 6037.65 279.224   8
  -3  14  -5 5735.00 253.024   7
   3 -14   5 6013.37 279.318  13
   3 -14   6 3617.64 201.142  14
  -3  14  -6 3329.91 186.764   7
  -3  14  -6 3394.70 191.285   8
   3 -14   6 3405.93 210.297  13
  -3  14  -7 48.5600 99.1136   1
   3 -13  -5 1755.56 144.944  14
  -3  13   5 1636.91 163.770   1
   3 -13  -4 419.009 88.1562  14
  -3  13   4 288.399 100.748   8
  -3  13   4 422.196 114.923   1
   3 -13  -3 5071.41 238.791  14
  -3  13   3 4975.81 278.611   1
  -3  13   2 3948.66 252.420   8
   3 -13  -2 4002.72 205.214  14
  -3  13   1 189.437 95.0443   8
   3 -13  -1 156.772 69.1592  14
   3 -13   0 1518.98 123.479  13
  -3  13   0 1505.72 173.999   8
  -3  13   0 1621.34 119.787   7
   3 -13   0 1642.34 128.325  14
   3 -13   1 2361.13 149.228  13
  -3  13  -1 1780.95 129.548   7
  -3  13  -1 2111.34 189.733   8
   3 -13   1 2055.34 139.637  14
   3 -13   2 1359.90 124.917  13
   3 -13   2 1507.78 124.406  14
  -3  13  -2 1430.50 158.431   8
  -3  13  -2 1410.05 114.034   7
   3 -13   3 2125.99 143.228  14
  -3  13  -3 1914.69 165.881   8
  -3  13  -3 1835.30 131.880   7
  -3  13  -4 639.904 86.6420   7
   3 -13   4 631.945 87.6804  14
  -3  13  -4 557.082 99.3558   8
   3 -13   4 482.923 91.8738  13
   3 -13   5 2341.98 154.374  14
  -3  13  -5 2505.95 151.817   7
  -3  13  -5 2541.24 170.499   8
   3 -13   5 2730.85 173.718  13
   3 -13   6 8521.59 325.350  14
  -3  13  -6 8288.16 315.117   7
  -3  13  -6 8466.61 319.072   8
   3 -13   6 8563.02 338.815  13
   3 -13   7 3275.00 200.790  13
  -3  13  -7 2852.95 213.375   1
  -3  13  -7 3353.69 186.099   7
  -3  13  -7 3288.66 168.910   8
  -3  13  -8 86.5212 70.3145  12
   3 -13   8 120.230 76.1350  13
  -3  13  -8 149.056 93.3222   1
  -3  13  -8 210.186 76.3091   7
  -3  13  -9 3919.36 235.417   1
  -3  13  -9 3746.45 204.304  12
   3 -13   9 3815.94 228.246  13
  -3  13 -10 1809.34 165.403   1
  -3  12   7 1405.65 154.439   8
   3 -12  -7 1378.91 131.327  14
   3 -12  -6 1092.82 119.236  14
  -3  12   6 1324.44 147.847   8
  -3  12   6 1073.38 129.973   1
   3 -12  -5 1066.05 114.229  14
  -3  12   5 1315.92 141.119   8
  -3  12   5 1207.17 137.003   1
   3 -12  -4 570.995 87.9641  14
  -3  12   4 453.287 104.701   8
  -3  12   4 550.968 108.604   1
   3 -12  -3 2045.32 143.782  14
  -3  12   2 8391.35 377.125   8
   3 -12  -2 8149.35 305.891  14
   3 -12  -1 2496.91 146.669  13
   3 -12  -1 2601.95 153.330  14
  -3  12   1 2757.49 210.010   8
  -3  12   1 2455.68 140.756   7
   3 -12   0 313.213 72.5592  13
   3 -12   0 200.645 62.0119  14
  -3  12   0 274.638 106.926   8
  -3  12   0 278.759 61.1962   7
   3 -12   1 5415.78 229.207  13
   3 -12   1 5384.73 227.748  14
  -3  12  -1 5536.29 295.711   8
  -3  12  -1 5037.97 214.211   7
   3 -12   2 4588.25 207.637  14
  -3  12  -2 4628.99 255.915   8
  -3  12  -2 4266.19 193.394   7
   3 -12   3 247.210 62.9392  14
  -3  12  -3 321.794 81.7548   8
  -3  12  -3 165.421 56.0993   7
   3 -12   4 42.3126 56.6986  13
   3 -12   4 32.6244 53.2738  14
  -3  12  -4 35.0512 51.5194   7
  -3  12  -4 40.3350 65.8622   8
  -3  12  -5 199.952 61.9326   7
   3 -12   5 212.531 77.3498  13
  -3  12  -5 148.268 64.7697   8
   3 -12   6 2805.65 173.761  13
  -3  12  -6 2740.53 155.148   8
  -3  12  -6 2395.86 152.433   7
  -3  12  -6 2796.59 157.169  12
  -3  12  -7 6382.01 256.959  12
  -3  12  -7 6113.83 236.556   8
   3 -12   7 6443.79 281.035  13
  -3  12  -7 6352.02 308.260   1
   3 -12   8 1328.75 130.610  13
  -3  12  -8 1320.84 145.495   1
  -3  12  -8 1347.24 118.093  12
   3 -12   9 1988.34 162.513  13
  -3  12  -9 1848.80 156.685   1
  -3  12  -9 1891.05 141.823  12
   3 -12  10 6070.70 295.547  13
  -3  12 -10 5399.67 271.350   1
  -3  12 -10 6301.24 272.254  12
   3 -12  11 2080.60 180.629  13
  -3  12 -11 1986.08 160.840  12
  -3  11   9 823.899 122.153   8
  -3  11   8 167.620 58.1457   9
  -3  11   8 172.319 92.3557   8
   3 -11  -8 188.633 73.8186  14
  -3  11   7 2267.70 161.176   1
  -3  11   7 2040.96 121.446   9
  -3  11   7 2009.87 166.330   8
   3 -11  -7 2111.10 151.096  14
  -3  11   6 3071.03 187.583   1
  -3  11   6 2665.76 133.003   9
  -3  11   6 3255.80 206.689   8
   3 -11  -6 3224.34 180.131  14
  -3  11   5 1132.60 123.874   1
  -3  11   5 1367.16 84.5435   9
  -3  11   5 1235.77 134.022   8
   3 -11  -5 1421.77 117.497  14
  -3  11   4 138.032 72.8665   1
   3 -11  -4 183.943 62.3428  14
  -3  11   4 40.0812 66.8519   8
  -3  11   4 129.708 39.3644   9
  -3  11   3 50.9042 27.5706   9
   3 -11  -3 69.0085 54.2442  14
   3 -11  -2 2431.25 141.012  14
   3 -11  -2 2185.43 131.888  13
   3 -11  -2 2252.92 101.549  11
   3 -11  -1 8744.15 300.918  13
   3 -11  -1 8842.56 259.874  11
   3 -11  -1 8663.55 303.301  14
  -3  11   1 8614.62 289.882   7
  -3  11   1 8122.69 373.480   8
   3 -11   0 5190.17 216.317  13
   3 -11   0 5148.79 187.366   6
   3 -11   0 5124.14 181.630  11
   3 -11   0 4922.40 212.450  14
  -3  11   0 5796.45 307.839   8
  -3  11   0 5499.76 210.758   7
   3 -11   1 1506.66 111.668  14
   3 -11   1 1567.01 116.526  13
   3 -11   1 1499.08 88.2229  11
  -3  11  -1 1657.40 114.089   5
   3 -11   1 1530.88 90.7349   3
  -3  11  -1 1309.48 137.905   8
  -3  11  -1 1641.18 109.772   7
   3 -11   1 1453.40 86.8399   6
   3 -11   2 8663.02 296.308  14
  -3  11  -2 8351.23 282.972   7
  -3  11  -2 8800.52 351.998   8
   3 -11   2 7781.33 247.201   6
   3 -11   3 3359.06 165.257  14
   3 -11   3 2978.74 122.417   6
  -3  11  -3 2989.11 151.637   7
  -3  11  -3 2825.92 178.503   8
  -3  11  -4 312.872 50.2159   6
   3 -11   4 282.638 40.2069   6
   3 -11   4 347.954 73.8435  13
  -3  11  -4 266.765 67.9904   8
   3 -11   5 1564.59 122.836  13
  -3  11  -5 1224.93 106.781   8
  -3  11  -5 1380.00 103.956  12
   3 -11   6 680.763 90.5984  13
  -3  11  -6 618.359 74.9537   8
  -3  11  -6 654.612 75.9803  12
  -3  11  -7 1287.31 107.010  12
  -3  11  -7 1321.23 92.5025   8
  -3  11  -7 1502.94 137.608   1
   3 -11   7 1280.15 118.755  13
   3 -11   8 2920.48 179.428  13
  -3  11  -8 2778.79 164.770   7
  -3  11  -8 2680.12 157.752  12
  -3  11  -8 2741.93 124.420   8
  -3  11  -8 2583.06 177.701   1
  -3  11  -9 27.9893 61.3173  12
  -3  11  -9 81.8581 59.3734   7
   3 -11   9 91.3480 76.2646  13
  -3  11  -9 74.2708 75.5641   1
  -3  11 -10 3491.77 193.897  12
  -3  11 -10 3353.53 196.101   7
   3 -11  10 3786.24 223.791  13
  -3  11 -11 6491.27 286.697  12
  -3  11 -11 6499.75 292.496   7
  -3  11 -11 5875.45 264.559   1
   3 -11  12 1752.21 176.020  13
  -3  10  11 82.7226 80.5417   9
  -3  10  10 376.151 90.4530   9
  -3  10  10 415.600 97.2356   8
   3 -10 -10 323.713 84.1997  14
  -3  10   9 2928.06 171.538   9
  -3  10   9 3224.82 197.396   8
   3 -10  -9 2971.28 184.948  14
  -3  10   8 1482.89 126.100   1
  -3  10   8 1561.07 117.081   9
  -3  10   8 1352.31 137.329   8
   3 -10  -8 1503.69 128.605  14
  -3  10   7 1498.10 126.586   1
  -3  10   7 1330.58 100.923   9
  -3  10   7 1512.06 140.089   8
   3 -10  -7 1587.08 124.476  14
  -3  10   6 7476.41 300.135   1
  -3  10   6 6695.24 240.217   9
  -3  10   6 7460.44 316.457   8
   3 -10  -6 7614.10 287.518  14
  -3  10   5 4465.14 223.958   1
  -3  10   5 4188.95 162.619   9
  -3  10   5 4257.04 231.492   8
   3 -10  -5 4662.28 207.153  14
  -3  10   4 191.556 72.1717   1
   3 -10  -4 237.751 59.0416  14
  -3  10   4 284.008 42.0176   9
   3 -10  -4 205.834 34.6407  11
  -3  10   4 156.532 69.4251   8
   3 -10  -3 2330.13 133.245  14
   3 -10  -3 2287.97 94.1574  11
  -3  10   3 2076.80 89.5296   9
  -3  10   3 2425.18 174.522   8
   3 -10  -2 1089.06 88.4291  13
   3 -10  -2 1035.42 79.5872   6
   3 -10  -2 1127.01 66.0495  11
   3 -10  -2 1189.95 75.4593   3
   3 -10  -2 1180.05 93.9342  14
   3 -10  -1 3099.44 156.901  14
   3 -10  -1 3498.39 158.965  13
   3 -10  -1 3101.75 135.866   6
  -3  10   1 3507.45 140.630   5
   3 -10  -1 3535.28 129.284  11
   3 -10  -1 3615.35 138.469   3
  -3  10   1 3217.80 150.798   7
  -3  10   1 3575.42 222.586   8
   3 -10   0 10098.1 323.518  14
   3 -10   0 10117.1 323.147  13
   3 -10   0 9595.54 289.913   6
   3 -10   0 9857.59 284.930  11
  -3  10   0 10429.7 314.045   5
   3 -10   0 9521.80 289.655   3
  -3  10   0 9702.30 312.144   7
  -3  10   0 10871.9 416.043   8
   3 -10   1 883.641 83.9509  14
   3 -10   1 1148.59 94.3284  13
   3 -10   1 1175.09 75.6845  11
   3 -10   1 1165.54 73.9238   6
  -3  10  -1 1353.36 98.6271   5
   3 -10   1 1236.13 79.1031   3
  -3  10  -1 1126.61 119.469   8
   3 -10   2 6172.24 223.807  14
   3 -10   2 4977.41 173.963   6
   3 -10   2 5500.51 190.854  11
  -3  10  -2 5476.58 252.724   8
  -3  10  -2 5945.88 235.519   5
   3 -10   3 16647.4 438.245  11
   3 -10   3 15815.4 406.766   6
  -3  10  -3 16400.7 494.240   8
  -3  10  -4 6366.82 236.309  12
   3 -10   4 6399.02 191.732   6
  -3  10  -4 6729.11 255.542   8
   3 -10   4 6828.01 257.971  13
  -3  10  -5 1000.89 87.3572  12
   3 -10   5 983.701 98.5398  13
  -3  10  -5 1171.23 93.8521   8
  -3  10  -6 6492.81 245.444  12
  -3  10  -6 6838.00 295.472   1
   3 -10   6 7050.40 274.605  13
  -3  10  -6 6594.92 232.980   8
  -3  10  -6 6627.16 251.563   7
  -3  10  -7 2379.39 138.424  12
  -3  10  -7 2337.96 162.160   1
   3 -10   7 2571.83 161.478  13
  -3  10  -7 2365.09 113.774   8
  -3  10  -7 2404.40 141.449   7
   3 -10   8 1030.88 110.082  13
  -3  10  -8 797.930 100.890   1
  -3  10  -8 864.250 89.6028  12
  -3  10  -8 793.065 60.2652   8
  -3  10  -8 961.863 97.6775   7
  -3  10  -9 361.868 71.0260  12
  -3  10  -9 270.652 76.4069   1
   3 -10   9 303.821 79.3474  13
  -3  10  -9 402.681 78.4514   7
  -3  10 -10 51.1707 64.0660  12
  -3  10 -10 68.9468 61.2176   1
   3 -10  10 123.742 75.3388  13
  -3  10 -10 100.041 66.5477   7
  -3  10 -11 3273.34 191.521  12
  -3  10 -11 3188.95 178.097   1
   3 -10  11 3325.02 219.012  13
  -3  10 -11 3300.72 196.760   7
  -3  10 -12 4773.64 243.241  12
   3 -10  12 5087.47 273.391  13
   3 -10  13 536.987 114.781  13
  -3   9  12 86.0709 81.7499   8
  -3   9  12 129.293 76.0022   9
   3  -9 -11-18.6932 81.3397  14
  -3   9  11-39.3986 73.8567   8
  -3   9  11 36.4277 70.8870   9
   3  -9 -10 910.162 112.330  14
  -3   9  10 1100.33 120.044   8
  -3   9  10 792.930 105.509   9
   3  -9  -9 1634.32 133.929  14
  -3   9   9 1447.58 121.276   9
  -3   9   9 1401.55 127.703   8
   3  -9  -8 2684.20 160.141  14
  -3   9   8 2416.63 145.329   9
  -3   9   8 2668.48 173.576   8
  -3   9   8 2752.07 156.001   1
   3  -9  -7 436.319 73.8332  14
  -3   9   7 428.870 74.5384   1
  -3   9   7 442.708 65.9772   9
  -3   9   7 470.845 90.9163   8
  -3   9   6 4029.85 177.347  13
   3  -9  -6 4468.04 196.859  14
  -3   9   6 3959.22 199.061   1
  -3   9   6 3894.34 164.475   9
  -3   9   6 4062.05 213.323   8
   3  -9  -5 10369.4 301.576   3
  -3   9   5 10286.3 361.370   1
   3  -9  -5 10310.5 338.038  14
  -3   9   5 10346.0 322.318  13
  -3   9   5 9683.51 298.591   9
  -3   9   5 10018.4 376.016   8
   3  -9  -4 3163.46 127.706   3
  -3   9   4 3022.00 175.194   1
   3  -9  -4 2678.96 145.528  14
  -3   9   4 3035.73 141.540  13
   3  -9  -4 2788.60 137.630   6
   3  -9  -4 2814.59 100.345  11
  -3   9   4 2793.98 117.856   9
  -3   9   4 2905.81 179.375   8
   3  -9  -3 832.380 63.2665   3
   3  -9  -3 959.326 82.2795  14
   3  -9  -3 934.132 77.0128  13
  -3   9   3 1000.10 79.5635  13
   3  -9  -3 1000.78 75.1228   6
  -3   9   3 974.864 58.2825   5
   3  -9  -3 903.294 53.0237  11
  -3   9   3 909.309 58.2211   9
  -3   9   3 884.525 105.546   8
   3  -9  -2 8382.73 246.837   3
   3  -9  -2 7969.27 269.725  14
   3  -9  -2 8808.83 270.782  13
  -3   9   2 8174.86 265.651  13
   3  -9  -2 8047.46 253.168   6
  -3   9   2 8377.50 239.980   5
   3  -9  -2 7868.47 256.391  12
   3  -9  -2 7994.36 227.849  11
  -3   9   2 7570.93 219.332   9
   3  -9  -2 8206.39 258.872   7
   3  -9  -1 8239.25 270.994  14
  -3   9   1 7978.54 265.016  13
   3  -9  -1 8170.47 268.158  13
   3  -9  -1 7920.50 246.649   6
  -3   9   1 8573.34 252.488   5
   3  -9  -1 8299.48 234.947  11
   3  -9  -1 7952.97 255.789  12
   3  -9  -1 8265.03 247.293   3
  -3   9   1 7659.88 340.346   8
   3  -9  -1 8060.07 257.110   7
   3  -9   0 393.731 55.2048  14
  -3   9   0 508.288 58.4749  13
   3  -9   0 489.055 59.0108  13
   3  -9   0 368.222 43.7693   6
   3  -9   0 481.974 54.1786  12
   3  -9   0 559.525 48.3717  11
   3  -9   0 450.327 49.1730   3
  -3   9   0 544.305 59.4367   5
   3  -9   0 478.725 54.6756   7
  -3   9   0 487.491 84.7832   8
   3  -9   1 669.209 67.1102  14
  -3   9  -1 518.907 58.3820  13
   3  -9   1 533.775 57.5963  12
   3  -9   1 613.722 51.2208   6
   3  -9   1 667.941 54.0095  11
   3  -9   1 537.456 56.1681   7
  -3   9  -1 469.041 80.4121   8
  -3   9  -1 621.702 65.3525   5
   3  -9   2 52.4706 35.1737   7
  -3   9  -2 47.0946 43.8501   8
  -3   9  -2 74.5976 36.3492  13
   3  -9   2 106.571 28.8515   6
   3  -9   2 57.2509 35.0912  12
   3  -9   2 80.5757 30.6061  11
  -3   9  -2 140.261 49.1816   5
  -3   9  -3 10336.6 325.703  13
   3  -9   3 10429.0 310.987  12
   3  -9   3 10373.1 339.702  13
  -3   9  -3 11286.9 295.465   6
   3  -9   3 10476.6 282.727   6
   3  -9   3 10352.2 310.276  11
  -3   9  -3 9898.63 321.348  12
   3  -9   3 10709.1 318.104   7
  -3   9  -3 11015.1 353.641   8
  -3   9  -3 10427.2 323.924   7
  -3   9  -3 11849.0 377.494   5
   3  -9   4 19843.3 544.060  13
   3  -9   4 17912.8 461.442   6
  -3   9  -4 19233.0 475.910   6
  -3   9  -4 18739.1 517.598  12
   3  -9   4 19045.4 510.916  11
  -3   9  -4 18511.9 529.194   8
  -3   9  -4 19358.0 522.163   7
  -3   9  -4 20827.2 592.090   5
   3  -9   5 1327.50 103.184  13
  -3   9  -5 1429.87 68.5014   6
  -3   9  -5 1423.27 97.4622  12
  -3   9  -5 1362.51 90.3050   8
  -3   9  -5 1452.38 99.3183   7
  -3   9  -5 1288.87 119.943   1
   3  -9   6 4871.89 217.186  13
  -3   9  -6 5073.47 150.375   6
  -3   9  -6 4541.58 192.369  12
  -3   9  -6 4985.34 230.152   1
  -3   9  -6 4523.90 194.441   7
  -3   9  -6 4546.33 171.413   8
   3  -9   7 15936.8 492.877  13
  -3   9  -7 15895.4 497.178   1
  -3   9  -7 16332.5 468.702  12
  -3   9  -7 15313.7 414.706   8
  -3   9  -7 16207.2 471.759   7
   3  -9   8 3221.39 178.684  13
  -3   9  -8 3172.82 172.290   1
  -3   9  -8 2935.43 158.242  12
  -3   9  -8 2787.20 104.426   8
  -3   9  -8 2994.14 161.231   7
  -3   9  -9 292.066 65.5335  12
  -3   9  -9 236.129 65.0837   1
   3  -9   9 346.722 81.1083  13
  -3   9  -9 289.108 68.8666   7
  -3   9 -10 888.355 99.4594  12
  -3   9 -10 1081.57 100.578   1
  -3   9 -10 994.542 103.730   7
   3  -9  10 828.919 111.902  13
  -3   9 -11 1126.91 100.255   1
   3  -9  11 1119.42 131.397  13
  -3   9 -11 1100.26 114.229  12
  -3   9 -11 1122.69 115.507   7
   3  -9  12 2971.78 200.925  13
  -3   9 -12 2971.95 187.499  12
  -3   9 -12 3117.19 193.791   7
  -3   9 -13 1411.47 145.560  12
   3  -9  13 1591.62 149.390  13
  -3   9 -13 1395.49 140.121   7
   3  -9  14 71.9636 74.0083  13
  -3   8  13 2976.88 198.734   9
  -3   8  12 1678.29 136.445   8
  -3   8  12 1226.18 131.667   9
  -3   8  12 1368.53 126.849   3
  -3   8  11 44.8007 75.9013   9
  -3   8  11 112.484 57.6259   3
  -3   8  11 143.706 71.8769   8
  -3   8  10 1273.38 104.499   3
   3  -8 -10 1054.16 119.175  14
  -3   8  10 1248.91 124.022   9
  -3   8  10 1356.83 120.872   8
  -3   8   9 3004.06 150.862   3
   3  -8  -9 3009.24 141.262   4
  -3   8   9 3266.80 158.412   1
   3  -8  -9 2878.77 171.946  14
  -3   8   9 3127.14 174.158   9
  -3   8   9 2763.85 169.995   8
  -3   8   8 1370.00 96.5738   3
   3  -8  -8 1203.35 87.8392   4
  -3   8   8 1383.67 104.893   1
   3  -8  -8 1512.58 117.150  14
  -3   8   8 1306.89 105.851   9
  -3   8   8 1392.22 118.675   8
   3  -8  -7 82.5477 41.3247   4
   3  -8  -7 65.2478 46.6291  14
   3  -8  -7 127.321 41.4427   3
  -3   8   7 161.074 54.5999   1
  -3   8   7 157.904 50.7404   9
  -3   8   7 164.869 68.3873   8
   3  -8  -6 622.124 62.7205   3
   3  -8  -6 619.008 76.9084  14
  -3   8   6 634.446 65.0725  13
  -3   8   6 626.222 79.6157   1
  -3   8   6 586.022 66.0143   9
  -3   8   6 570.942 82.3451   8
   3  -8  -5 6203.46 198.864   3
  -3   8   5 5222.60 231.774   1
   3  -8  -5 5910.86 222.335  14
  -3   8   5 5976.93 208.155  13
   3  -8  -5 5646.07 215.882   6
  -3   8   5 5520.68 195.586   9
  -3   8   5 5686.50 251.333   8
   3  -8  -4 23657.4 572.807   3
  -3   8   4 21707.9 635.102   1
   3  -8  -4 23103.5 603.477  14
  -3   8   4 22212.5 583.269  13
   3  -8  -4 22346.4 588.732   6
   3  -8  -4 22382.8 532.484  11
   3  -8  -4 21277.5 581.851  12
  -3   8   4 21754.8 562.309   9
   3  -8  -4 21959.6 580.737   7
  -3   8   4 21390.7 648.602   8
   3  -8  -3 2282.61 101.876   3
  -3   8   3 2291.05 145.709   1
   3  -8  -3 2138.30 115.406  14
   3  -8  -3 2081.54 106.326  13
  -3   8   3 2057.73 107.427  13
   3  -8  -3 2317.84 109.821   6
  -3   8   3 2283.15 87.0896   5
   3  -8  -3 2085.65 79.8408  11
   3  -8  -3 1902.93 102.534  12
  -3   8   3 2093.91 89.7773   9
  -3   8   3 2342.75 154.073   8
   3  -8  -3 2203.17 108.170   7
   3  -8  -2 8324.88 244.175   3
   3  -8  -2 7892.07 260.754  14
  -3   8   2 8206.37 258.687  13
   3  -8  -2 8339.24 259.348  13
   3  -8  -2 8064.81 245.603   6
  -3   8   2 8359.15 236.258   5
   3  -8  -2 8310.08 224.412  11
   3  -8  -2 7859.05 250.561  12
  -3   8   2 7915.85 223.835   9
   3  -8  -2 8213.41 252.811   7
   3  -8  -1 18634.6 508.313  14
  -3   8   1 18724.7 503.065  13
   3  -8  -1 17857.6 501.857  13
   3  -8  -1 18778.5 483.851   6
  -3   8   1 19329.8 490.936   5
   3  -8  -1 19155.7 497.511  12
   3  -8  -1 19409.5 472.222  11
   3  -8  -1 18985.6 488.256   3
   3  -8  -1 18949.2 497.711   7
   3  -8   0 8479.42 265.788  14
  -3   8   0 8694.25 263.709  13
   3  -8   0 8500.98 265.806  13
   3  -8   0 8157.92 237.411   6
  -3   8   0 8260.12 258.125   5
   3  -8   0 8591.09 237.438  11
   3  -8   0 8384.25 253.058  12
   3  -8   0 8559.38 249.325   3
  -3   8   0 7748.86 314.709   8
  -3   8   0 7374.46 252.195   7
   3  -8   0 8724.99 257.513   7
  -3   8  -1 399.996 50.6015  13
   3  -8   1 387.487 51.0931  14
   3  -8   1 389.951 45.9521  12
  -3   8  -1 345.127 46.6185   7
   3  -8   1 411.866 39.0279   6
   3  -8   1 404.238 42.1266  11
  -3   8  -1 426.867 67.1733   8
   3  -8   1 346.591 43.6277   7
  -3   8  -1 437.571 54.8737   5
  -3   8  -2 958.133 83.1776   5
  -3   8  -2 892.130 69.8189  13
   3  -8   2 760.697 62.0421  12
   3  -8   2 887.589 50.9956   6
   3  -8   2 1013.42 65.0881  11
   3  -8   2 995.156 38.9855   9
  -3   8  -2 844.403 66.3770   7
   3  -8   2 857.663 65.1077   7
  -3   8  -2 914.092 84.1837   8
  -3   8  -3 690.405 80.9551   5
  -3   8  -3 589.606 57.8880  13
   3  -8   3 547.164 53.8915  12
   3  -8   3 565.919 65.6641  13
   3  -8   3 567.473 38.0411   6
   3  -8   3 529.232 53.0271  11
   3  -8   3 655.338 32.0306   9
  -3   8  -3 602.689 63.8135   8
   3  -8   3 679.879 57.1584   7
  -3   8  -3 585.322 58.4915   7
  -3   8  -4 7644.97 296.818   5
  -3   8  -4 7718.64 300.130   1
  -3   8  -4 7133.78 245.916  13
   3  -8   4 7943.53 239.260  12
   3  -8   4 7187.51 262.067  13
  -3   8  -4 7683.82 207.149   6
   3  -8   4 7549.48 243.829  11
   3  -8   4 7484.60 196.665   9
   3  -8   4 7268.49 237.775   7
  -3   8  -4 7580.24 248.392   8
  -3   8  -4 7481.01 247.926   7
  -3   8  -5 10474.4 369.591   1
   3  -8   5 11477.0 356.135  13
   3  -8   5 11257.7 319.725  12
  -3   8  -5 11090.0 278.425   6
   3  -8   5 10889.8 330.467  11
  -3   8  -5 11040.9 333.687   7
  -3   8  -5 10769.4 313.427   8
   3  -8   5 10743.6 319.498   7
  -3   8  -5 11243.8 378.580   5
  -3   8  -6 57.1348 29.4593   8
  -3   8  -6 14.4006 34.7951   7
  -3   8  -6 36.3297 18.8352   6
   3  -8   6 11.6856 48.0671  13
   3  -8   6 74.8313 43.9989  11
  -3   8  -6 45.2935 48.2290   1
  -3   8  -7 10337.5 334.741   7
  -3   8  -7 10475.0 263.094   6
  -3   8  -7 9925.87 275.981   8
  -3   8  -7 10037.3 346.189   1
   3  -8   7 10857.7 359.663  13
  -3   8  -8 12182.9 381.167   7
  -3   8  -8 11259.5 376.087   1
   3  -8   8 11919.5 401.853  13
  -3   8  -9 1195.05 104.724   7
  -3   8  -9 1298.68 102.022   1
   3  -8   9 1201.34 116.129  13
  -3   8 -10 2636.28 158.738   7
  -3   8 -10 2586.51 141.999   1
   3  -8  10 2825.58 183.467  13
  -3   8 -11 3710.55 199.123   7
  -3   8 -11 3540.32 162.997   1
   3  -8  11 3645.51 215.101  13
  -3   8 -11 3611.04 199.061  12
  -3   8 -12 1513.27 135.721   7
   3  -8  12 1697.18 146.134  13
  -3   8 -12 1510.19 138.050  12
  -3   8 -13 250.737 80.8652  12
  -3   8 -13 377.137 90.9642   7
   3  -8  13 426.150 90.5617  13
   3  -8  14 124.055 80.1942  13
  -3   7  13 1250.87 132.786   3
  -3   7  13 1262.08 137.050   9
  -3   7  12 3866.70 190.080   8
  -3   7  12 4137.87 224.264   9
  -3   7  11 1323.12 111.413   8
  -3   7  11 1309.79 109.330   3
  -3   7  10 1671.22 122.504   8
  -3   7  10 1634.61 138.391   9
   3  -7 -10 1844.77 110.583   4
  -3   7  10 1786.43 123.190   3
  -3   7   9 6367.35 264.264   8
  -3   7   9 7097.81 281.440   9
   3  -7  -9 7160.11 239.548   4
  -3   7   9 6675.67 250.182   3
  -3   7   9 6699.60 240.995   1
  -3   7   8 4866.86 218.077   8
   3  -7  -8 5086.67 189.633   3
  -3   7   8 4513.52 191.863   1
  -3   7   8 4650.92 206.230   9
   3  -7  -8 4855.88 182.320   4
  -3   7   8 4816.86 191.882   3
  -3   7   7 1416.64 113.064   8
  -3   7   7 1552.72 89.8756  13
  -3   7   7 1413.21 100.752   1
  -3   7   7 1425.79 99.6986   9
   3  -7  -7 1431.19 87.8286   3
  -3   7   7 1243.71 88.1582   3
   3  -7  -7 1485.50 91.5984   4
  -3   7   6 130.382 41.8234  14
  -3   7   6 229.085 41.0273  13
  -3   7   6 153.922 51.5733   1
   3  -7  -6 166.528 39.3464   3
  -3   7   6 157.923 37.4041   3
   3  -7  -6 188.027 44.9662   7
   3  -7  -6 128.948 46.2837   6
  -3   7   6 174.340 41.0432   9
  -3   7   6 181.665 54.2881   8
   3  -7  -5 2745.51 117.486   3
  -3   7   5 2544.52 141.892   1
  -3   7   5 2708.04 127.460  14
  -3   7   5 2688.35 119.033  13
   3  -7  -5 2666.64 132.065   6
  -3   7   5 2647.85 118.338   9
  -3   7   5 2773.77 156.989   8
   3  -7  -5 2797.56 124.576   7
  -3   7   4 6309.19 246.958   1
   3  -7  -4 6377.59 210.244   7
  -3   7   4 5832.61 255.223   8
   3  -7  -4 6115.77 203.002  13
  -3   7   4 6569.79 208.706  13
   3  -7  -4 6658.36 219.458   6
   3  -7  -4 6222.22 167.640  11
  -3   7   4 6703.63 201.945   9
   3  -7  -4 6584.54 204.669   3
  -3   7   3 16580.1 514.842   1
   3  -7  -3 17400.1 459.020   7
  -3   7   3 17482.7 534.380   8
  -3   7   3 17422.5 458.461  13
   3  -7  -3 16821.8 454.907  13
  -3   7   3 17183.9 428.580   5
   3  -7  -3 17267.6 457.917   6
   3  -7  -3 17522.8 418.866  11
   3  -7  -3 17236.4 460.044  12
  -3   7   3 17268.7 441.342   9
   3  -7  -3 18028.7 453.491   3
  -3   7   2 2809.21 162.778   1
  -3   7   2 2616.45 116.665   7
   3  -7  -2 2649.99 115.194   7
  -3   7   2 2738.31 116.969  13
   3  -7  -2 2738.11 117.748  13
   3  -7  -2 2997.04 113.751   6
  -3   7   2 2907.00 106.042   5
   3  -7  -2 2810.48 94.2704  11
   3  -7  -2 2950.70 118.897  12
  -3   7   2 2746.73 100.051   9
   3  -7  -2 2860.43 114.033   3
  -3   7   1 17520.1 544.846   1
  -3   7   1 17693.1 455.607  13
   3  -7  -1 17036.4 455.836  13
   3  -7  -1 16982.2 434.889   6
  -3   7   1 17950.3 445.942   5
   3  -7  -1 16805.7 425.467  11
   3  -7  -1 17061.0 449.261  12
   3  -7  -1 17559.1 445.790   3
   3  -7  -1 17971.6 452.882   7
  -3   7   1 17491.8 456.078   7
  -3   7   0 31959.9 906.489   1
   3  -7   0 28436.8 781.862  14
  -3   7   0 31535.8 783.850  13
   3  -7   0 32570.7 789.356  13
  -3   7   0 30649.6 783.248   5
   3  -7   0 31923.0 757.984   6
   3  -7   0 32552.3 779.327  12
   3  -7   0 31837.4 758.661  11
  -3   7   0 32633.3 785.374   7
  -3   7   0 32113.7 847.325   8
   3  -7   0 32451.0 780.547   7
   3  -7   0 32837.6 776.242   3
  -3   7  -1 6066.30 279.442   1
  -3   7  -1 6226.13 201.418  13
   3  -7   1 6064.36 193.087  12
  -3   7  -1 6278.40 210.360   5
   3  -7   1 5789.85 170.390   6
  -3   7  -1 5960.79 199.706  12
   3  -7   1 6164.07 184.988  11
   3  -7   1 6292.65 164.223   9
   3  -7   1 5783.86 192.578   7
  -3   7  -1 5996.43 198.314   7
  -3   7  -1 6025.53 229.658   8
  -3   7  -2 2829.10 135.351   5
  -3   7  -2 2653.73 117.188  13
   3  -7   2 2797.84 112.675  12
   3  -7   2 2457.02 85.6828   6
   3  -7   2 2670.88 107.839  11
  -3   7  -2 2487.14 114.177  12
   3  -7   2 2752.02 85.9548   9
   3  -7   2 2635.60 112.027   7
  -3   7  -2 2621.19 129.506   8
  -3   7  -2 2820.47 118.482   7
  -3   7  -3 18403.6 510.661   5
  -3   7  -3 17425.0 531.343   1
  -3   7  -3 17620.7 468.265  13
   3  -7   3 17496.7 455.590  12
   3  -7   3 18376.7 487.810  13
   3  -7   3 16462.0 415.803   6
   3  -7   3 17786.2 461.445  11
  -3   7  -3 17281.5 466.796  12
   3  -7   3 18168.3 424.171   9
   3  -7   3 17455.0 457.329   7
  -3   7  -3 16768.0 470.249   8
  -3   7  -3 17816.8 468.252   7
  -3   7  -4 5341.46 226.598   1
  -3   7  -4 5564.10 193.096  13
   3  -7   4 5135.37 200.778  13
   3  -7   4 5243.74 177.670  12
  -3   7  -4 5148.49 142.287   6
   3  -7   4 5681.65 191.915  11
  -3   7  -4 4475.00 179.622  12
  -3   7  -4 5667.49 182.363   8
  -3   7  -4 5121.64 186.199   7
  -3   7  -4 5756.52 233.557   5
  -3   7  -5 1852.95 122.115   1
  -3   7  -5 2036.05 107.805   7
   3  -7   5 1935.20 118.550  13
   3  -7   5 2108.04 100.147  12
  -3   7  -5 1990.29 64.6462   6
   3  -7   5 1957.51 108.603  11
  -3   7  -5 1905.54 87.4095   8
  -3   7  -5 1930.24 127.841   5
  -3   7  -6 1872.83 119.887   1
  -3   7  -6 1984.03 109.478   7
   3  -7   6 2026.77 102.008  12
   3  -7   6 1813.36 118.728  13
  -3   7  -6 1965.33 62.8943   6
   3  -7   6 1570.39 107.950  11
  -3   7  -6 1822.14 78.8237   8
  -3   7  -6 1627.27 118.444   5
  -3   7  -7 573.288 32.1790   6
  -3   7  -7 493.803 65.6820   1
   3  -7   7 657.890 79.1494  13
  -3   7  -7 500.215 64.3463   7
  -3   7  -8 13486.1 334.574   6
  -3   7  -8 13541.1 407.932   1
  -3   7  -8 13557.9 414.085   7
   3  -7   8 14658.1 450.327  13
  -3   7  -9 13480.6 403.057   1
  -3   7  -9 13460.6 423.248   7
   3  -7   9 13711.5 455.317  13
  -3   7 -10 710.281 72.5617   1
  -3   7 -10 774.779 91.9831   7
   3  -7  10 897.940 112.433  13
  -3   7 -11 4629.08 181.721   1
  -3   7 -11 4867.76 232.986   7
  -3   7 -12 5725.01 268.392   7
   3  -7  12 5956.31 265.424  13
  -3   7 -13 803.209 116.026   7
   3  -7  13 867.164 112.045  13
  -3   7 -14-10.1020 76.6414   7
   3  -7  14 15.3433 70.6555  13
  -3   6  15 102.951 83.1719   3
  -3   6  14 18.4469 73.5671   9
  -3   6  14-8.55867 75.4694   3
   3  -6 -14 29.4112 76.3108  14
  -3   6  13 1094.04 124.875   9
  -3   6  13 957.998 116.871   3
   3  -6 -13 1181.99 136.698  14
  -3   6  12 1691.59 134.084   3
  -3   6  12 1532.12 117.326   8
  -3   6  12 1413.11 130.929   9
   3  -6 -11 3735.56 165.153   4
  -3   6  11 3310.87 182.016   3
  -3   6  11 3303.57 171.305   8
  -3   6  11 3618.84 207.089   9
  -3   6  10 744.274 85.1469   8
  -3   6  10 524.863 90.4243   9
  -3   6  10 749.113 84.0511   3
   3  -6 -10 583.495 69.0409   4
  -3   6   9 7682.10 287.987   8
  -3   6   9 7980.56 259.279   1
  -3   6   9 8387.90 308.852   9
  -3   6   9 8029.64 280.318   3
   3  -6  -9 8152.33 265.137   4
  -3   6   8 20082.6 580.631   8
  -3   6   8 21193.2 537.232  13
   3  -6  -8 21914.6 556.040   3
  -3   6   8 20174.2 552.607   1
  -3   6   8 19503.3 575.223   9
   3  -6  -8 20351.9 542.948   4
  -3   6   8 20101.5 556.689   3
   3  -6  -7 4912.05 181.599   4
   3  -6  -7 5300.18 185.468   3
  -3   6   7 4820.92 186.156   3
  -3   6   7 5117.15 196.137  14
  -3   6   7 5283.36 175.699  13
  -3   6   7 5056.37 195.614   1
   3  -6  -7 4863.78 216.011   6
  -3   6   7 5005.09 198.428   9
  -3   6   7 5077.15 215.489   8
   3  -6  -7 5108.82 192.042   7
  -3   6   6 357.665 48.3505   3
   3  -6  -6 464.276 50.5718   3
  -3   6   6 429.129 53.6948  14
  -3   6   6 355.026 43.2239  13
  -3   6   6 408.964 58.2114   1
   3  -6  -6 362.953 59.3540   6
  -3   6   6 469.138 55.1456   9
  -3   6   6 398.840 63.0628   8
   3  -6  -6 525.166 57.4510   7
  -3   6   5 8372.20 253.294   3
   3  -6  -5 8643.02 251.650   3
  -3   6   5 8350.02 281.404   1
  -3   6   5 7981.18 256.072  14
  -3   6   5 8236.90 243.733  13
   3  -6  -5 7834.45 268.024   6
  -3   6   5 8577.47 256.378   9
  -3   6   5 7899.12 294.746   8
   3  -6  -5 8612.16 257.626   7
   3  -6  -4 5200.69 167.248   3
  -3   6   4 4891.92 200.310   1
  -3   6   4 4768.59 168.740  14
   3  -6  -4 4780.23 157.628  13
  -3   6   4 4841.21 160.499  13
   3  -6  -4 4944.14 175.088   6
   3  -6  -4 4618.76 124.089  11
  -3   6   4 5087.52 163.565   9
   3  -6  -4 4686.77 166.022   7
  -3   6   4 5029.41 215.059   8
  -3   6   3 5803.68 230.122   1
   3  -6  -3 5387.24 183.490   7
  -3   6   3 5653.75 244.628   8
  -3   6   3 5556.94 182.563  13
   3  -6  -3 5983.19 181.731  13
   3  -6  -3 5677.41 184.847   6
  -3   6   3 5931.14 164.466   5
   3  -6  -3 5701.04 150.771  11
   3  -6  -3 5806.89 187.044  12
  -3   6   3 5641.58 175.368   9
   3  -6  -3 6279.33 187.145   3
  -3   6   2 8343.92 327.813   8
  -3   6   2 10068.2 272.623   7
   3  -6  -2 9240.43 266.721   7
  -3   6   2 9404.64 265.447  13
   3  -6  -2 9171.27 262.438  13
   3  -6  -2 9089.22 257.546   6
  -3   6   2 9679.54 252.719   5
   3  -6  -2 9038.67 235.660  11
   3  -6  -2 9753.57 267.146  12
  -3   6   2 9057.22 250.150   9
  -3   6   2 9512.54 330.471   1
  -3   6   1 29.0199 37.9169   1
   3  -6  -1 61.1173 25.9400   7
  -3   6   1 90.4441 26.7805  13
   3  -6  -1 44.1459 24.0663  13
   3  -6  -1 64.9267 21.7710   6
   3  -6  -1 87.7750 25.4088  12
   3  -6  -1 86.4720 17.8522  11
   3  -6  -1 75.3901 18.6308   9
  -3   6   1 77.9325 23.1874   5
  -3   6   0 29705.8 826.226   1
  -3   6   0 28034.7 701.420  13
   3  -6   0 27785.3 703.153  13
   3  -6   0 28395.6 674.913   6
  -3   6   0 28487.2 703.366   5
   3  -6   0 28518.7 681.265  11
   3  -6   0 27402.2 695.742  12
   3  -6   0 30182.2 675.332   9
   3  -6   0 28488.4 698.764   7
  -3   6   0 27928.7 744.396   8
  -3   6  -1 35118.7 854.510  13
   3  -6   1 35764.6 847.271  12
  -3   6  -1 35145.8 865.872   5
   3  -6   1 35238.6 817.211   6
   3  -6   1 35427.6 839.755  11
   3  -6   1 36219.4 822.306   9
  -3   6  -1 35406.8 853.481   7
  -3   6  -1 34334.2 878.104   8
   3  -6   1 34462.9 844.627   7
  -3   6  -2 520.073 49.7778  13
   3  -6   2 531.939 46.6342  12
   3  -6   2 535.807 27.8485   6
  -3   6  -2 618.010 61.2512   5
   3  -6   2 597.809 48.8020  11
  -3   6  -2 515.754 49.5688  12
   3  -6   2 583.055 36.3884   9
  -3   6  -2 541.454 51.1519   8
  -3   6  -2 538.548 49.6733   7
  -3   6  -3 21192.1 551.934  13
   3  -6   3 22419.2 541.794  12
   3  -6   3 21346.9 563.487  13
  -3   6  -3 21295.3 585.093   5
   3  -6   3 20895.7 547.788  11
  -3   6  -3 21806.5 550.330  12
  -3   6  -3 21428.6 603.913   1
  -3   6  -3 20581.0 542.284   8
  -3   6  -3 21292.1 547.447   7
  -3   6  -4 24923.3 712.623   5
  -3   6  -4 25392.1 707.508   1
  -3   6  -4 25969.2 671.765  13
   3  -6   4 28085.2 690.927  13
   3  -6   4 27034.5 658.500  12
  -3   6  -4 26376.4 667.049  12
  -3   6  -4 26477.9 647.428   8
  -3   6  -4 26425.8 666.529   7
  -3   6  -5 3660.91 163.468   1
  -3   6  -5 3599.27 143.953   7
   3  -6   5 3417.54 135.292   7
   3  -6   5 3729.90 161.278  13
   3  -6   5 3326.11 133.159  12
  -3   6  -5 3508.31 143.492  12
  -3   6  -5 3460.08 87.9683   6
  -3   6  -5 3666.78 119.322   8
  -3   6  -5 3260.11 166.951   5
   3  -6   6 282.397 53.3051  13
  -3   6  -6 254.150 17.0204   6
  -3   6  -6 253.230 45.2381  12
   3  -6   6 257.584 42.2085  12
  -3   6  -6 221.208 41.5507   7
  -3   6  -6 241.495 50.9862   1
   3  -6   7 522.679 71.7383  13
   3  -6   7 537.330 55.5580  12
  -3   6  -7 464.513 26.9669   6
  -3   6  -7 467.390 59.8747  12
  -3   6  -7 545.599 61.5359   7
  -3   6  -7 446.697 56.3826   1
  -3   6  -8 3835.70 116.011   6
  -3   6  -8 3849.67 175.762  12
   3  -6   8 4018.76 196.372  13
  -3   6  -8 4179.39 178.539   7
  -3   6  -8 4061.38 167.033   1
  -3   6  -9 9978.01 333.936  12
   3  -6   9 10370.1 366.288  13
  -3   6  -9 10680.1 340.085   7
  -3   6  -9 9899.55 301.779   1
   3  -6  10 3968.86 199.544  13
  -3   6 -10 3611.45 184.429  12
   3  -6  10 3303.64 143.780   2
  -3   6 -10 3417.27 141.977   1
   3  -6  10 3114.39 121.966  10
  -3   6 -10 3660.85 183.528   7
  -3   6 -11 347.299 79.6363  12
  -3   6 -11 389.869 51.0132   1
  -3   6 -11 499.030 84.7784   7
   3  -6  11 480.327 84.8524  13
  -3   6 -12 5513.71 258.294   7
  -3   6 -12 5480.37 263.603  12
   3  -6  12 5255.78 240.295  13
  -3   6 -13 5867.54 282.404   7
   3  -6  13 5388.96 246.643  13
  -3   6 -13 5651.14 283.694  12
  -3   6 -14 353.823 94.4319   7
  -3   6 -14 484.199 104.506  12
   3  -6  14 350.582 83.6772  13
  -3   5  15 1042.22 121.926   3
  -3   5  14 9.02975 70.8700   9
  -3   5  14 17.1214 68.8211   3
   3  -5 -14 18.2005 70.8355  14
  -3   5  13 774.540 106.304   9
  -3   5  13 657.975 99.2779   3
   3  -5 -13 784.726 110.612  14
   3  -5 -12 1831.56 150.252  14
   3  -5 -12 1910.40 127.844   4
  -3   5  12 2062.32 147.990   3
  -3   5  12 1956.82 151.272   9
  -3   5  12 1990.53 125.473   8
   3  -5 -11 1543.71 130.439  14
  -3   5  11 1710.33 141.050   9
  -3   5  11 1452.35 108.967   8
   3  -5 -11 1644.31 107.591   4
  -3   5  11 1449.47 120.448   3
  -3   5  10 1584.70 87.8946   1
   3  -5 -10 1824.91 129.167  14
  -3   5  10 1853.31 138.134   9
  -3   5  10 1817.68 117.027   8
   3  -5 -10 1832.65 108.115   4
  -3   5  10 1802.18 122.531   3
   3  -5  -9 185.493 44.4869   4
   3  -5  -9 126.983 56.2786  14
  -3   5   9 76.3313 34.5869   1
  -3   5   9 132.785 46.2765   3
  -3   5   9 46.4182 47.6395   9
  -3   5   9 47.6195 45.1704   8
  -3   5   8 9223.67 298.925   3
   3  -5  -8 9507.21 288.410   4
  -3   5   8 9745.62 268.198  13
  -3   5   8 9437.38 301.601  14
  -3   5   8 9472.53 286.039   1
   3  -5  -8 9409.84 293.559   3
  -3   5   8 9578.94 316.845   9
   3  -5  -8 8833.19 293.968   7
  -3   5   8 8661.08 305.648   8
  -3   5   7 21419.0 573.428   3
   3  -5  -7 22196.5 567.942   3
   3  -5  -7 20095.6 558.468   4
  -3   5   7 22170.3 542.709  13
  -3   5   7 22061.7 576.040  14
  -3   5   7 21552.6 574.780   1
  -3   5   7 22418.0 587.276   9
   3  -5  -7 21620.3 569.960   7
  -3   5   7 22002.3 601.803   8
  -3   5   6 1361.38 81.5312   3
   3  -5  -6 1399.79 79.4452   4
   3  -5  -6 1413.43 80.0863   3
  -3   5   6 1350.73 68.4899  13
  -3   5   6 1310.91 81.4380  14
  -3   5   6 1200.60 86.4875   1
  -3   5   6 1181.27 80.4340   9
   3  -5  -6 1293.74 80.2709   7
  -3   5   6 1566.67 106.901   8
  -3   5   5 10245.1 298.186   3
   3  -5  -5 10604.9 295.969   3
  -3   5   5 10227.4 279.210  13
  -3   5   5 10600.8 299.655  14
  -3   5   5 9864.32 318.595   1
  -3   5   5 10535.4 300.881   9
  -3   5   5 9903.33 340.043   8
   3  -5  -5 10707.7 299.041   7
   3  -5  -4 23984.0 612.123   5
  -3   5   4 25301.8 627.105   3
  -3   5   4 26051.9 627.947  14
   3  -5  -4 24943.6 607.670  13
  -3   5   4 24921.5 610.951  13
   3  -5  -4 25546.7 625.303   7
  -3   5   4 25255.8 691.123   8
  -3   5   4 25650.4 624.092   9
  -3   5   4 24723.0 665.005   1
  -3   5   3 10771.3 345.619   1
   3  -5  -3 11011.2 299.240   7
  -3   5   3 11100.7 373.005   8
  -3   5   3 11047.7 291.945  13
   3  -5  -3 11228.2 289.564  13
   3  -5  -3 10699.7 259.577  11
  -3   5   3 10794.7 292.928   9
   3  -5  -3 11079.3 309.129   5
  -3   5   2 312.281 53.5651   1
   3  -5  -2 339.165 35.4623   7
  -3   5   2 353.136 55.7207   8
  -3   5   2 346.159 33.6452  13
   3  -5  -2 323.153 32.8891  13
   3  -5  -2 365.346 34.3081   6
  -3   5   2 404.681 32.3034   5
   3  -5  -2 379.108 23.5215  11
   3  -5  -2 348.590 36.3262  12
   3  -5  -2 333.813 31.3890   9
  -3   5   2 391.988 33.1326   9
   3  -5  -2 341.050 44.2783   5
   3  -5  -1 463.880 49.1836   5
  -3   5   1 352.919 59.9431   1
  -3   5   1 448.087 38.9080  13
   3  -5  -1 394.527 36.5703  13
   3  -5  -1 465.926 32.5480   6
   3  -5  -1 475.554 30.0470  11
   3  -5  -1 442.153 38.5775  12
   3  -5  -1 450.559 32.7413   9
   3  -5  -1 416.555 38.6591   7
   3  -5   0 1098.58 79.0938   5
  -3   5   0 1058.15 98.5793   1
  -3   5   0 1021.39 60.7551  13
   3  -5   0 987.202 59.9185  13
   3  -5   0 1100.97 45.3423   6
  -3   5   0 1059.38 61.4753   5
   3  -5   0 1167.17 60.6586  12
   3  -5   0 1118.00 53.8824  11
   3  -5   0 1091.19 50.9085   9
  -3   5   0 1169.75 75.8196   8
  -3   5  -1 25357.2 618.089  13
   3  -5   1 25207.2 575.994   6
  -3   5  -1 24621.0 624.727   5
   3  -5   1 24288.7 607.238  12
   3  -5   1 24561.7 591.675   9
  -3   5  -1 24385.5 627.525   8
   3  -5   2 27995.2 658.477  12
  -3   5  -2 28765.9 691.223   5
   3  -5   2 26387.1 612.932   6
  -3   5  -2 27691.6 666.718   8
  -3   5  -2 27537.5 671.707  13
  -3   5  -3 56.2438 20.9419   8
  -3   5  -3 24.7367 23.1179   7
  -3   5  -3 44.1367 27.8074  13
   3  -5   3-3.55657 21.1544  13
   3  -5   3 75.4849 24.3928  12
  -3   5  -3-10.0721 26.3046   1
  -3   5  -3 26.7078 27.9422   5
  -3   5  -4 21762.7 605.664   1
  -3   5  -4 23184.2 578.116  12
   3  -5   4 23251.6 570.057  12
   3  -5   4 22850.4 598.030  13
  -3   5  -4 21799.0 618.528   5
  -3   5  -4 23019.2 551.208   8
  -3   5  -4 21811.3 571.835   7
   3  -5   4 22735.1 566.761   7
   3  -5   5 29452.8 726.684  12
  -3   5  -5 30073.9 741.382  12
   3  -5   5 31446.3 767.349  13
  -3   5  -5 29379.1 757.556   1
  -3   5  -5 29157.2 735.227   7
   3  -5   5 29756.3 725.106   7
  -3   5  -6 2068.59 106.929  12
   3  -5   6 2020.23 97.7337  12
   3  -5   6 1891.01 118.045  13
  -3   5  -6 1928.31 56.1704   6
  -3   5  -6 1902.41 58.2730   6
  -3   5  -6 1693.03 102.031   1
  -3   5  -6 1792.33 99.2311   7
  -3   5  -7 4339.73 181.576  12
   3  -5   7 4518.01 171.953  12
   3  -5   7 4570.72 202.572  13
  -3   5  -7 4624.29 128.461   6
  -3   5  -7 4815.58 134.867   6
  -3   5  -7 4542.59 194.978   5
  -3   5  -7 4774.16 184.193   7
  -3   5  -7 4705.60 177.662   1
  -3   5  -8 4363.46 163.464   1
  -3   5  -8 4254.02 183.152  12
  -3   5  -8 4255.29 129.628   6
  -3   5  -8 4331.49 187.625   5
  -3   5  -8 4291.69 131.761   6
   3  -5   8 3756.24 142.814  10
  -3   5  -8 4382.11 182.028   7
   3  -5   9 852.354 69.3619   2
  -3   5  -9 979.751 68.9335   1
  -3   5  -9 941.027 89.5188  12
   3  -5   9 906.633 95.4652  13
  -3   5  -9 901.017 54.2909   6
   3  -5   9 839.710 58.9206  10
  -3   5  -9 948.755 87.4784   7
   3  -5  10 1662.69 123.440  13
   3  -5  10 1547.36 84.6776   2
   3  -5  10 1514.29 78.9288  10
  -3   5 -10 1721.81 125.857  12
  -3   5 -10 1643.69 122.416   7
  -3   5 -11 970.556 108.029  12
   3  -5  11 1158.07 103.788  13
  -3   5 -11 980.010 104.643   7
   3  -5  12 1049.95 105.919  13
  -3   5 -12 926.245 114.663   7
  -3   5 -12 924.216 117.163  12
   3  -5  13 4321.54 209.552  13
  -3   5 -13 4513.35 240.538  12
  -3   5 -14 2397.81 169.355   7
  -3   5 -14 2190.70 168.100  12
   3  -5  14 2431.37 156.150  13
  -3   4  16 1127.21 129.256   3
   3  -4 -15 3299.56 201.411  14
  -3   4  15 3693.74 213.380   3
   3  -4 -14 659.472 103.590  14
  -3   4  14 580.344 99.8719   3
   3  -4 -13 1390.55 128.264  14
  -3   4  13 1301.77 125.408   3
  -3   4  13 1350.39 100.094   8
   3  -4 -12 2697.43 172.990  14
   3  -4 -12 3118.26 161.933   4
  -3   4  12 2921.60 180.317   3
  -3   4  12 3126.80 152.031   8
   3  -4 -11 3629.02 192.490  14
  -3   4  11 3116.92 194.334   9
  -3   4  11 3544.87 162.582   8
   3  -4 -11 3342.73 162.659   4
  -3   4  11 3598.50 190.000   3
   3  -4 -10 615.276 79.6133  14
  -3   4  10 587.701 76.9412   3
  -3   4  10 643.264 71.3577   8
  -3   4  10 547.639 80.2981   9
   3  -4 -10 705.128 69.8751   4
  -3   4   9 619.385 45.5822  13
  -3   4   9 611.508 70.3913  14
   3  -4  -9 453.989 66.7629  14
   3  -4  -9 519.080 51.3116   2
  -3   4   9 514.805 49.7072   1
  -3   4   9 618.338 77.0959   9
  -3   4   9 548.284 64.5911   8
   3  -4  -9 598.920 62.7842   4
  -3   4   9 513.455 64.7996   3
   3  -4  -8 122.022 40.9968   4
   3  -4  -8 187.979 44.5518  14
  -3   4   8 224.425 45.1263  14
  -3   4   8 229.819 29.0836  13
   3  -4  -8 213.555 38.3759   2
   3  -4  -8 203.736 44.7293   3
  -3   4   8 219.531 37.9805   1
  -3   4   8 258.920 46.0027   3
  -3   4   8 236.185 51.0815   9
  -3   4   8 205.748 50.1829   8
   3  -4  -7 11620.0 345.414  14
  -3   4   7 12145.3 344.365  14
  -3   4   7 12301.6 305.717  13
  -3   4   7 12600.7 342.773   1
   3  -4  -7 11199.5 285.184   5
  -3   4   7 11871.6 368.959   8
  -3   4   7 11950.3 355.391   9
   3  -4  -7 11955.9 339.555   4
  -3   4   7 11634.9 348.011   3
   3  -4  -7 12423.8 341.503   3
   3  -4  -6 22411.7 561.965   3
   3  -4  -6 22069.9 562.876   4
  -3   4   6 22242.3 569.324   3
  -3   4   6 23192.2 565.914  14
   3  -4  -6 22189.4 568.604  14
  -3   4   6 21986.4 529.267  13
  -3   4   6 22076.1 574.709   1
   3  -4  -6 20696.9 523.210   5
  -3   4   6 21983.0 571.440   9
  -3   4   6 22102.5 602.579   8
   3  -4  -6 22083.7 562.073   7
   3  -4  -5 157.290 24.4872   5
  -3   4   5 27.8570 25.8609   3
  -3   4   5 40.7085 24.9083   1
   3  -4  -5 17.1561 24.7427   3
  -3   4   5 46.5669 18.6428  13
   3  -4  -5 21.3220 20.3347  14
  -3   4   5 11.2527 21.9260  14
  -3   4   5 64.5386 27.1228   9
  -3   4   5 191.072 46.5628   8
  -3   4   4 34317.2 854.752   1
  -3   4   4 33526.4 810.514  14
   3  -4  -4 32490.1 813.755  14
  -3   4   4 32665.3 792.363  13
   3  -4  -4 34717.0 790.737  13
   3  -4  -4 33986.3 803.797   5
  -3   4   4 33819.3 813.885   9
  -3   4   4 35749.8 893.690   8
   3  -4  -4 33448.8 810.943   7
  -3   4   3 28413.0 719.300   1
  -3   4   3 28258.3 660.348  14
  -3   4   3 28137.4 649.005  13
   3  -4  -3 27083.4 661.099  14
   3  -4  -3 27480.5 646.306  13
   3  -4  -3 27369.9 662.377   5
   3  -4  -3 25948.3 618.458  11
   3  -4  -3 29089.1 657.417   9
  -3   4   3 28214.4 660.767   9
  -3   4   3 27750.7 720.778   8
   3  -4  -2 7628.61 212.086   3
  -3   4   2 7555.42 266.460   1
  -3   4   2 7334.95 202.482  13
   3  -4  -2 6520.05 203.542  14
   3  -4  -2 7282.42 201.050  13
   3  -4  -2 7417.58 217.018   5
   3  -4  -2 7285.29 181.977  11
  -3   4   2 7065.06 203.957   9
   3  -4  -2 7671.44 203.883   9
  -3   4   2 7396.63 245.999   8
  -3   4   2 7389.68 209.368   7
   3  -4  -1 6523.93 200.722   5
   3  -4  -1 6489.41 189.684   3
  -3   4   1 6850.52 259.060   1
  -3   4   1 6480.71 185.726  13
   3  -4  -1 6431.10 183.866  13
   3  -4  -1 6679.88 228.551   8
  -3   4   1 6248.61 186.184   7
   3  -4  -1 6726.26 180.266   9
  -3   4   1 6488.21 184.720   5
  -3   4   0 7391.25 275.780   1
   3  -4   0 7195.16 182.117   6
  -3   4   0 7546.49 212.424   5
  -3   4   0 7187.64 209.356  13
  -3   4   0 7542.84 209.062  12
   3  -4   0 7180.14 196.967   9
  -3   4   0 7001.92 204.550   7
   3  -4   0 7235.51 245.658   8
   3  -4   1 3002.39 77.9066   6
  -3   4  -1 3053.49 118.524   5
  -3   4  -1 2987.26 114.396  13
  -3   4  -1 3058.70 109.164  12
  -3   4  -1 3236.24 117.273   8
   3  -4   1 3258.21 141.450   8
  -3   4  -1 3096.72 108.931   7
  -3   4  -2 6818.85 195.776   8
   3  -4   2 6727.61 190.528   7
   3  -4   2 6937.79 223.503   8
  -3   4  -2 7077.45 196.538   7
  -3   4  -2 6528.08 213.762   5
  -3   4  -3 12125.6 351.484   5
  -3   4  -3 11737.7 356.482   1
   3  -4   3 12570.7 334.297   8
   3  -4   3 11577.3 313.526   7
  -3   4  -4 2607.13 111.144  12
  -3   4  -4 2817.66 128.074   1
  -3   4  -4 2336.15 129.006   5
   3  -4   4 2664.59 131.346   5
   3  -4   4 2825.81 105.312   8
   3  -4   4 2784.77 105.008   7
  -3   4  -5 25100.1 609.775  12
   3  -4   5 23834.8 634.395  13
  -3   4  -5 23597.8 539.514   6
  -3   4  -5 23091.3 539.745   6
  -3   4  -5 25565.0 604.096   7
  -3   4  -5 25507.8 619.975   1
  -3   4  -6 18626.2 493.723   1
   3  -4   6 18827.2 529.861  13
  -3   4  -6 19694.5 504.413  12
  -3   4  -6 18445.0 437.782   6
  -3   4  -6 17683.6 522.122   5
   3  -4   6 18157.2 473.739  10
  -3   4  -6 18402.5 491.792   7
  -3   4  -7 184.281 53.8152   5
  -3   4  -7 136.436 35.5574   1
   3  -4   7 132.355 39.5285   2
   3  -4   7 180.550 47.3741  14
  -3   4  -7 172.132 24.4564   6
  -3   4  -7 134.102 46.1307  12
   3  -4   7 125.868 32.4772  10
  -3   4  -7 79.8586 38.1693   7
  -3   4  -8 8388.37 247.936   1
   3  -4   8 7912.06 249.902   2
  -3   4  -8 7899.79 281.158  12
   3  -4   8 8243.53 282.944  14
   3  -4   8 8333.67 297.965  13
  -3   4  -8 8249.07 284.353   5
  -3   4  -8 8432.94 234.335   6
   3  -4   8 7840.64 240.415  10
  -3   4  -8 8604.21 280.065   7
   3  -4   9 7089.27 225.999   2
  -3   4  -9 8071.82 287.453  12
   3  -4   9 8413.44 287.923  13
  -3   4  -9 7665.19 269.938   5
   3  -4   9 7602.36 230.199  10
  -3   4  -9 7515.89 273.859   7
  -3   4 -10 2345.39 148.239  12
   3  -4  10 1975.73 87.6691   2
   3  -4  10 2212.53 133.978  13
  -3   4 -10 2062.90 136.645   7
  -3   4 -11 386.570 77.7520   7
   3  -4  11 357.603 66.4407  13
  -3   4 -11 423.437 83.8913  12
  -3   4 -12 7.86863 59.7021   7
   3  -4  12 80.4669 54.5858  13
  -3   4 -12 8.48241 67.6604  12
   3  -4  13 1031.73 103.954  13
  -3   4 -13 1073.41 115.599   7
  -3   4 -13 978.875 113.234  12
   3  -4  14 2462.05 153.917  13
  -3   4 -14 2558.56 169.907   7
  -3   4 -14 2368.08 169.269  12
  -3   3  16 620.849 110.875   3
   3  -3 -15 1687.02 142.220  14
  -3   3  15 1384.00 136.380   3
  -3   3  15 1513.77 138.976   9
   3  -3 -14 3051.31 184.412  14
  -3   3  14 3328.58 196.853   9
  -3   3  14 3193.18 193.220   3
  -3   3  13 91.5385 63.7597   3
  -3   3  13 205.435 79.8270   9
  -3   3  13 124.417 51.7792   8
   3  -3 -13 158.511 64.8791  14
   3  -3 -12 5839.04 256.633  14
  -3   3  12 6036.09 269.961   3
  -3   3  12 6225.90 223.514   8
   3  -3 -11 11752.5 398.540  14
  -3   3  11 11978.1 359.641   8
  -3   3  11 11348.5 401.099   3
   3  -3 -11 11817.6 285.236   5
   3  -3 -11 12060.0 380.530   4
  -3   3  10 703.400 80.7589  14
   3  -3 -10 563.834 75.0822  14
  -3   3  10 658.872 39.7537  13
   3  -3 -10 593.798 49.6070   2
  -3   3  10 650.638 36.3583  11
  -3   3  10 633.524 69.0144   8
   3  -3 -10 650.042 71.6234   4
  -3   3  10 672.912 79.9148   3
   3  -3  -9 161.068 43.6498   4
  -3   3   9 125.847 20.4695  13
  -3   3   9 65.5464 42.1486  14
   3  -3  -9 54.6322 37.7060  14
  -3   3   9 93.0696 41.5975   3
   3  -3  -9 38.7353 25.7346   2
  -3   3   9 97.1425 14.9267  11
  -3   3   9 115.436 15.7196  11
  -3   3   9 172.015 48.3791   8
  -3   3   8 4453.55 125.311  13
   3  -3  -8 4276.49 177.290  14
  -3   3   8 4494.19 175.038  14
  -3   3   8 4356.23 153.836   1
   3  -3  -8 4521.69 173.189   3
   3  -3  -8 4469.31 157.408   2
  -3   3   8 4754.51 186.099   8
  -3   3   8 4273.43 178.609   3
   3  -3  -8 4748.66 176.078   4
  -3   3   7 4961.77 135.219  13
   3  -3  -7 4995.79 183.122  14
  -3   3   7 4951.50 176.370  14
  -3   3   7 5024.85 172.060   1
   3  -3  -7 5141.68 175.062   2
   3  -3  -7 5002.93 177.073   3
  -3   3   7 5150.53 201.023   8
  -3   3   7 4795.75 182.402   3
   3  -3  -7 5161.57 181.171   4
   3  -3  -6 4468.43 156.027   3
  -3   3   6 4270.32 119.315  13
   3  -3  -6 4691.01 159.319  14
  -3   3   6 4319.24 152.381  14
  -3   3   6 4528.10 188.423   8
   3  -3  -6 4196.91 173.174   8
   3  -3  -6 4345.13 161.725   2
  -3   3   6 4384.19 159.997   1
  -3   3   5 11219.3 284.233  13
  -3   3   5 11944.7 314.869  14
   3  -3  -5 12101.0 319.244  14
  -3   3   5 12093.5 339.418   1
   3  -3  -5 12088.2 341.165   2
   3  -3  -5 11478.8 337.257   1
  -3   3   5 13391.0 383.446   8
   3  -3  -5 10626.1 337.860   8
   3  -3  -4 115.204 20.1135   5
   3  -3  -4 117.167 32.7150   1
  -3   3   4 121.088 34.2856   1
  -3   3   4 90.1206 22.8048  14
  -3   3   4 108.428 15.3436  13
   3  -3  -4 116.918 15.3304  13
   3  -3  -4 144.690 25.2575   9
  -3   3   4 104.384 33.4873   8
  -3   3   3 55012.4 1300.26   1
  -3   3   3 52770.9 1235.57  14
   3  -3  -3 54018.4 1239.95  14
  -3   3   3 53437.9 1228.22  13
   3  -3  -3 55524.6 1223.92  13
   3  -3  -3 53176.9 1237.67   5
   3  -3  -3 52186.8 1204.22  11
  -3   3   3 53378.0 1288.66   8
   3  -3  -3 55261.9 1242.79   9
  -3   3   3 53294.0 1248.82   3
   3  -3  -2 36777.5 858.435  13
  -3   3   2 35340.1 863.279  13
   3  -3  -2 36435.5 864.180  14
   3  -3  -2 36298.1 871.659   5
   3  -3  -2 38539.8 869.614   9
  -3   3   2 38205.9 905.922   8
  -3   3   2 38536.3 942.641   1
  -3   3   1 220.519 48.7974   1
   3  -3  -1 146.084 19.6453  14
   3  -3  -1 196.022 22.8978  13
  -3   3   1 160.380 25.2136  13
  -3   3   1 130.223 20.3481   7
   3  -3  -1 205.695 24.1772   9
   3  -3  -1 191.325 32.5748   8
   3  -3  -1 153.640 21.8587   7
  -3   3   0 17386.6 430.491   5
   3  -3   0 16688.0 490.439   1
  -3   3   0 17675.3 496.113   1
  -3   3   0 17001.1 419.171   7
   3  -3   0 17237.2 416.620   7
   3  -3   0 16869.5 449.100   8
  -3   3   0 16515.2 420.844  12
  -3   3  -1 25828.7 634.678   5
   3  -3   1 25783.4 639.784   5
  -3   3  -1 24476.3 618.675  12
   3  -3   1 26020.6 643.958   8
   3  -3   1 25851.5 612.384   7
  -3   3  -1 25972.5 617.262   7
   3  -3   1 27313.8 682.807   1
  -3   3  -2 812.524 48.4430  12
  -3   3  -2 858.300 58.7238   5
   3  -3   2 743.347 55.0868  13
  -3   3  -2 921.468 70.3168   1
   3  -3   2 836.031 67.6494   1
   3  -3   2 864.669 45.8127   7
  -3   3  -2 714.507 44.3946   7
   3  -3   2 799.114 55.9814   8
  -3   3  -3 118.123 31.6654   1
   3  -3   3 114.173 31.7115   1
  -3   3  -3 78.9527 20.8066   7
   3  -3   3 91.4208 24.5841   8
   3  -3   3 151.480 24.1078   7
  -3   3  -3 100.772 30.3530   5
  -3   3  -4 343.807 37.3028  12
   3  -3   4 415.603 48.3104   2
  -3   3  -4 420.138 46.7484   1
  -3   3  -4 375.529 17.6500   6
   3  -3   4 370.057 33.8507   8
   3  -3   4 352.957 46.3758   5
   3  -3   5 2689.45 131.324   5
   3  -3   5 2698.48 141.662  13
  -3   3  -5 3136.42 127.129  12
   3  -3   5 3037.69 127.487   2
  -3   3  -5 3016.61 123.355   1
  -3   3  -5 2820.60 85.0330   6
  -3   3  -5 3329.11 153.929   5
   3  -3   5 2755.86 113.772  10
   3  -3   5 3151.73 100.982   8
   3  -3   6 21669.2 601.573  13
   3  -3   6 22509.4 576.181  14
  -3   3  -6 22239.6 575.277  12
   3  -3   6 21389.5 557.771   2
  -3   3  -6 21973.1 554.817   1
  -3   3  -6 21642.0 518.999   6
  -3   3  -6 20831.5 595.261   5
   3  -3   6 20422.6 547.365  10
  -3   3  -6 20902.4 560.248   7
   3  -3   6 22535.9 516.793   8
   3  -3   7 8415.37 280.201  13
   3  -3   7 8622.41 271.753  14
  -3   3  -7 8173.21 268.022  12
   3  -3   7 7957.06 238.039   2
  -3   3  -7 8445.88 220.671   6
  -3   3  -7 7936.80 271.934   5
   3  -3   7 7683.27 234.837  10
  -3   3  -7 8356.11 257.286   7
   3  -3   7 7224.74 187.197   8
  -3   3  -8 514.623 67.1843   5
   3  -3   8 619.235 51.5514   2
  -3   3  -8 593.037 72.7318  12
   3  -3   8 663.345 73.1063  13
   3  -3   8 589.656 73.4175  14
  -3   3  -8 663.754 52.4842   6
   3  -3   8 495.474 53.0397  10
  -3   3  -8 533.777 65.6118   7
   3  -3   9 14471.8 424.907  13
  -3   3  -9 14002.1 412.270   5
  -3   3  -9 14487.1 426.690   7
  -3   3  -9 14729.9 443.149  12
   3  -3   9 12938.4 358.238   2
  -3   3 -10 9451.87 348.369  12
   3  -3  10 9325.46 319.567  13
  -3   3 -10 9559.03 334.448   7
  -3   3 -11 361.690 72.0618   7
   3  -3  11 340.373 64.7844  13
  -3   3 -11 367.902 77.8778  12
  -3   3 -12 473.343 81.0547   7
   3  -3  12 351.284 72.0861  13
  -3   3 -12 364.322 80.8597  12
  -3   3 -13 445.611 82.8235   7
   3  -3  13 380.194 70.4862  13
  -3   3 -13 292.881 81.7723  12
  -3   3 -14 1595.85 141.452  12
   3  -3  14 2015.54 135.001  13
  -3   3 -14 1854.79 140.954   7
  -3   3 -15 1042.16 116.325   7
   3  -2 -16 527.435 95.2772  12
  -3   2  16 407.399 93.8065   3
   3  -2 -15 2370.28 157.235  12
  -3   2  15 2717.86 180.224   9
  -3   2  15 2616.78 174.387   3
  -3   2  14 1626.90 138.141   9
  -3   2  14 1652.08 140.055   3
  -3   2  13 596.527 96.8403   9
   3  -2 -13 854.068 100.169  14
  -3   2  13 822.292 102.266   3
   3  -2 -12 66.2991 53.7484  14
  -3   2  12 34.2978 55.8742   9
   3  -2 -12 113.530 30.2644   5
  -3   2  12 72.3294 55.3995   3
   3  -2 -11 12990.4 409.890  14
  -3   2  11 12884.1 434.438   9
   3  -2 -11 13332.7 409.794   4
   3  -2 -10 18950.3 537.900  14
  -3   2  10 19883.5 541.720  14
  -3   2  10 17308.9 427.689  13
  -3   2  10 18513.3 427.781  13
  -3   2  10 19496.7 455.203  11
   3  -2 -10 18643.0 527.791   4
  -3   2  10 18772.5 549.296   3
  -3   2  10 19713.5 555.876   9
  -3   2  10 19466.6 510.653   8
   3  -2 -10 19656.0 468.150   2
   3  -2  -9 640.073 50.8514   2
   3  -2  -9 621.448 71.1284  14
  -3   2   9 592.691 67.4255  14
  -3   2   9 600.712 35.5150  11
  -3   2   9 692.750 69.4942   8
  -3   2   9 792.932 78.7504   9
   3  -2  -9 775.744 70.4744   4
   3  -2  -8 7773.98 262.424   4
   3  -2  -8 8141.69 239.479   2
   3  -2  -8 8249.96 269.956  14
  -3   2   8 8059.85 259.039  14
  -3   2   8 7945.64 201.726  11
  -3   2   8 8410.51 271.583   8
  -3   2   8 8012.73 268.777   9
   3  -2  -8 8173.59 264.029   8
   3  -2  -7 12166.4 344.464   4
   3  -2  -7 11418.5 326.983   1
   3  -2  -7 11548.3 335.034   3
   3  -2  -7 11576.0 325.879   2
   3  -2  -7 11603.1 339.470  14
  -3   2   7 12322.3 335.670  14
  -3   2   7 11582.3 277.529  11
  -3   2   7 11775.8 343.951   9
  -3   2   7 12828.5 368.159   8
   3  -2  -7 11760.1 343.613   8
   3  -2  -6 5573.27 176.941   3
   3  -2  -6 5254.17 173.822  14
  -3   2   6 5389.23 169.749  14
  -3   2   6 5025.46 124.505  11
  -3   2   6 5901.37 213.687   8
  -3   2   6 5280.89 178.588   9
   3  -2  -6 5490.14 186.373   8
   3  -2  -6 5603.48 181.290   2
   3  -2  -6 5323.36 178.631   1
  -3   2   5 114.300 23.0282  14
   3  -2  -5 88.4357 29.4065   2
   3  -2  -5 70.3936 27.2584   1
  -3   2   5 75.7642 22.8030   3
  -3   2   5 90.1208 25.2092   1
  -3   2   5 98.0517 23.3326   9
  -3   2   5 92.5372 31.0850   8
   3  -2  -5 96.7116 28.9231   8
  -3   2   4 1066.48 51.3343  14
   3  -2  -4 1186.32 55.5223  14
   3  -2  -4 1105.35 36.9797  13
   3  -2  -4 1128.08 75.5228   2
   3  -2  -4 1136.79 73.2404   1
  -3   2   4 1159.82 74.0518   1
   3  -2  -4 1096.13 32.7650  11
   3  -2  -4 1078.71 57.4669   9
  -3   2   4 1161.28 76.2439   8
  -3   2   4 941.324 56.8505   9
  -3   2   4 1046.32 60.5030   3
   3  -2  -4 1183.68 64.2006   4
  -3   2   3 1025.53 56.3739   3
  -3   2   3 1182.39 48.8990  14
   3  -2  -3 1156.13 49.4705  14
   3  -2  -3 1036.61 40.3735  13
   3  -2  -3 1013.63 35.8859  11
   3  -2  -3 1052.26 50.5934   7
  -3   2   3 1241.25 72.0237   8
   3  -2  -3 1037.31 64.4411   8
   3  -2  -3 1200.15 57.3523   9
   3  -2  -3 1205.77 81.3171   2
  -3   2   3 1099.82 76.8535   1
  -3   2   2 27364.1 641.745   3
   3  -2  -2 27405.4 641.070   3
   3  -2  -2 28923.0 712.116   2
  -3   2   2 26945.3 699.217   1
   3  -2  -2 23821.5 678.378   1
   3  -2  -2 24197.6 625.551  13
   3  -2  -2 25345.8 623.677  14
   3  -2  -2 27910.4 628.436  12
  -3   2   2 28393.3 662.510   8
   3  -2  -2 28314.6 640.058   9
   3  -2  -2 26368.8 627.067   7
  -3   2   1 36331.4 617.670   1
   3  -2  -1 35567.4 497.951  13
   3  -2  -1 35884.4 483.673  12
   3  -2  -1 34698.4 499.644   9
   3  -2  -1 34831.4 531.716   8
  -3   2   1 36860.6 485.433   7
   3  -2  -1 35922.1 481.334   7
  -3   2   0 7295.89 187.755   7
   3  -2   0 7102.37 185.490   7
   3  -2   0 7375.70 189.239  12
   3  -2   0 6798.91 176.685   6
   3  -2   0 6765.02 203.389   5
  -3   2   0 6935.73 189.799  12
   3  -2   0 7531.89 213.135   8
  -3   2   0 6877.15 242.079   1
   3  -2   0 6514.13 243.792   2
   3  -2   0 7954.26 248.295   1
  -3   2  -1 34616.2 818.182  12
   3  -2   1 35948.3 817.427  12
   3  -2   1 35345.2 870.628   1
   3  -2   1 33779.6 794.748   6
   3  -2   1 34290.9 836.051   8
   3  -2   1 35850.0 810.864   7
  -3   2  -1 35762.8 813.396   7
   3  -2   2 39850.1 905.934  12
  -3   2  -2 36687.9 906.774  12
  -3   2  -2 37929.9 945.311   1
   3  -2   2 38837.1 944.961   1
   3  -2   2 38513.3 951.661   2
  -3   2  -2 37892.4 878.515   6
   3  -2   2 38319.8 876.697   6
  -3   2  -2 36498.6 925.540   5
   3  -2   2 40600.8 918.814   8
  -3   2  -2 39379.4 899.969   7
   3  -2   2 40385.0 897.814   7
   3  -2   3 336.808 33.9224  12
  -3   2  -3 445.562 37.5853  12
   3  -2   3 338.485 43.4945   2
   3  -2   3 427.809 45.5768   1
  -3   2  -3 408.937 43.0559   1
  -3   2  -3 357.086 21.5684   6
   3  -2   3 398.301 40.7425  10
   3  -2   3 397.787 35.8665   8
  -3   2  -3 386.254 32.3855   7
   3  -2   4 6929.10 214.594  14
   3  -2   4 7135.77 208.358  12
   3  -2   4 6620.59 217.248   2
   3  -2   4 6853.63 215.141   1
  -3   2  -4 6961.45 177.666   6
  -3   2  -4 6549.85 226.446   5
   3  -2   4 7128.62 201.056   8
   3  -2   4 6598.83 210.542  10
  -3   2  -4 6545.47 198.645   7
   3  -2   5 3256.64 135.744  14
   3  -2   5 3129.02 125.733  12
  -3   2  -5 3167.70 129.506  12
   3  -2   5 3051.93 121.437   1
   3  -2   5 3076.72 125.412   2
  -3   2  -5 2864.85 140.550   5
  -3   2  -5 3113.49 98.9003   6
   3  -2   5 3100.27 107.617   8
   3  -2   5 3094.90 123.478  10
   3  -2   5 3250.19 134.701   5
   3  -2   6 2578.03 127.548   5
   3  -2   6 2807.73 135.787  14
  -3   2  -6 2963.27 132.651  12
   3  -2   6 3004.92 114.813   1
   3  -2   6 2651.90 113.764   2
  -3   2  -6 2721.74 142.255   5
  -3   2  -6 3022.45 101.784   6
   3  -2   6 2948.11 97.4082   8
   3  -2   6 2649.38 117.616  10
  -3   2  -6 2713.35 118.793   7
   3  -2   7 10469.3 334.755  14
  -3   2  -7 9878.86 320.771  12
   3  -2   7 10121.5 284.874   2
  -3   2  -7 9369.75 319.117   5
  -3   2  -7 9962.20 278.963   6
   3  -2   7 10464.8 256.885   8
  -3   2  -7 9689.88 303.692   7
   3  -2   8 1214.93 102.735  14
   3  -2   8 1294.72 94.7169  13
  -3   2  -8 1075.36 91.7326  12
   3  -2   8 1191.42 65.2878   2
  -3   2  -8 979.075 82.7407   5
  -3   2  -8 1183.07 75.3993   6
   3  -2   8 1262.96 44.6317   8
  -3   2  -8 1122.76 87.1094   7
  -3   2  -9 2088.27 110.164   6
  -3   2  -9 2033.26 118.032   5
  -3   2  -9 2025.16 136.340  12
   3  -2   9 1897.35 119.196  13
  -3   2  -9 1972.79 124.359   7
   3  -2  10 8786.93 304.817  13
  -3   2 -10 8902.71 295.240   5
   3  -2  10 8842.88 273.871   4
  -3   2 -10 8462.73 325.241  12
   3  -2  11 5101.93 215.230  13
  -3   2 -11 5026.05 234.315  12
  -3   2 -11 5663.09 233.394   7
   3  -2  12 11.7871 51.9685  13
  -3   2 -12-19.8670 59.8923   7
  -3   2 -12-7.49651 56.3730  12
   3  -2  13 2093.18 134.059  13
  -3   2 -13 2006.37 139.916   7
  -3   2 -13 1996.09 149.881  12
   3  -2  14 1580.02 123.059  13
  -3   2 -14 1373.29 132.133  12
  -3   2 -14 1515.95 127.215   7
   3  -1 -16 1391.85 127.577  12
  -3   1  16 1551.03 144.733   3
  -3   1  16 1195.63 131.995   9
   3  -1 -15 2306.39 152.729  12
  -3   1  15 2498.26 172.289   3
  -3   1  15 2406.79 167.764   9
   3  -1 -14 944.264 100.407  12
  -3   1  14 903.307 110.682   9
  -3   1  14 966.817 112.768   3
  -3   1  13 713.883 96.4796   3
  -3   1  13 740.883 98.9112   9
   3  -1 -12 6.15918 46.7290  14
  -3   1  12-25.8245 62.9754   9
  -3   1  12-23.9486 59.4925   3
  -3   1  11 1984.27 140.215   9
  -3   1  11 2128.43 94.4727  11
   3  -1 -11 2447.03 136.780  14
  -3   1  11 2105.93 129.630  14
   3  -1 -10 13241.3 401.558   4
   3  -1 -10 12943.4 387.986  14
  -3   1  10 12178.6 386.986  14
  -3   1  10 12410.8 326.562  11
   3  -1 -10 12617.3 368.725   8
   3  -1  -9 15754.1 468.040   4
   3  -1  -9 15841.5 419.974   1
   3  -1  -9 16049.1 461.417  14
  -3   1   9 16317.7 463.520  14
  -3   1   9 16270.7 401.438  11
  -3   1   9 16336.3 470.121   9
   3  -1  -9 16308.4 443.853   8
   3  -1  -8 371.145 51.2202   4
   3  -1  -8 403.521 43.1278   1
  -3   1   8 309.393 50.3666   3
   3  -1  -8 325.964 39.4427   2
  -3   1   8 374.725 48.5146  14
   3  -1  -8 298.568 47.3774  14
  -3   1   8 372.033 28.5950  11
  -3   1   8 265.140 46.8570   9
   3  -1  -8 304.956 46.2736   8
   3  -1  -7 33730.5 810.759   4
  -3   1   7 30297.8 800.130   3
   3  -1  -7 31116.2 782.240   1
   3  -1  -7 33411.4 787.687   2
   3  -1  -7 31307.8 795.024   3
   3  -1  -7 31332.1 801.823  14
  -3   1   7 32309.5 786.391  14
  -3   1   7 31881.2 741.629  11
  -3   1   7 31140.4 796.663   9
   3  -1  -7 32762.9 790.834   8
  -3   1   6 17688.8 475.843   3
   3  -1  -6 17780.3 470.041   1
   3  -1  -6 18673.4 475.193   2
   3  -1  -6 18086.8 470.912  14
  -3   1   6 18122.8 457.092  14
  -3   1   6 17819.4 424.303  11
  -3   1   6 17459.9 470.260   9
   3  -1  -6 18487.9 470.986   8
   3  -1  -5 3476.02 135.758   1
   3  -1  -5 3398.43 138.761   2
   3  -1  -5 3477.84 120.476  14
  -3   1   5 3430.58 114.583  14
  -3   1   5 3366.38 95.5450  11
   3  -1  -5 3585.42 95.1754  11
  -3   1   5 3336.96 124.740   9
   3  -1  -5 3316.49 128.760   8
  -3   1   5 3558.37 129.559   3
  -3   1   4 4067.86 156.513   2
   3  -1  -4 4074.39 155.696   2
   3  -1  -4 3780.04 146.820   1
   3  -1  -4 3908.04 119.153  14
   3  -1  -4 3818.67 95.8270  13
  -3   1   4 3933.28 114.215  14
  -3   1   4 3912.17 105.672  11
   3  -1  -4 3799.69 104.199  11
  -3   1   4 3826.33 130.796   9
  -3   1   4 3909.02 133.003   3
   3  -1  -4 3525.57 127.349   3
   3  -1  -3 6410.17 218.587   2
  -3   1   3 5811.22 155.698  14
   3  -1  -3 6080.52 156.783  13
   3  -1  -3 6218.78 160.291  14
   3  -1  -3 6131.07 156.075  11
  -3   1   3 6144.18 180.459   9
   3  -1  -3 6345.41 190.863   8
  -3   1   3 5593.88 175.969   3
   3  -1  -3 5987.02 185.896   4
  -3   1   2 3564.96 155.399   2
   3  -1  -2 3656.23 149.876   1
   3  -1  -2 3911.27 163.691   2
   3  -1  -2 3629.08 98.9174  14
   3  -1  -2 3746.84 105.461  12
   3  -1  -2 3710.55 106.596  11
   3  -1  -2 3611.05 105.160   7
  -3   1   2 3785.42 119.159   3
   3  -1  -1 22095.3 501.539  12
   3  -1  -1 20702.1 506.716   6
  -3   1   1 19813.7 502.323  12
   3  -1  -1 22031.8 499.776   7
  -3   1   1 23140.7 586.272   2
  -3   1   0 20230.8 521.324   2
   3  -1   0 19337.5 508.763   1
  -3   1   0 18962.7 443.587   7
   3  -1   0 19340.3 442.802   7
   3  -1   0 19474.3 448.379  12
   3  -1   0 19543.8 448.446   6
   3  -1   0 18988.0 484.211  10
   3  -1   0 18209.3 458.994   3
   3  -1   1 9754.57 238.872   6
   3  -1   1 9642.73 263.959   5
  -3   1  -1 9501.64 238.669   6
  -3   1  -1 10132.8 299.607   2
   3  -1   1 9904.10 289.148   1
  -3   1  -1 10035.2 247.917  12
   3  -1   1 10253.2 246.889  12
   3  -1   1 9787.73 237.011   7
   3  -1   2 46898.1 1043.42  14
  -3   1  -2 46130.5 1034.41  12
   3  -1   2 47598.0 1036.08  12
   3  -1   2 46597.1 1070.33   1
   3  -1   2 46626.6 1078.88   2
  -3   1  -2 46220.5 1019.05   6
   3  -1   2 47533.9 1051.55   5
  -3   1  -2 46840.5 1021.41   7
   3  -1   3 21546.8 542.543  14
   3  -1   3 22474.0 533.583  12
  -3   1  -3 21804.6 531.889  12
  -3   1  -3 21479.8 511.017   6
   3  -1   3 20427.8 505.928   6
   3  -1   3 21699.1 548.589   1
   3  -1   3 20502.2 552.128   2
   3  -1   3 21887.1 551.123  10
  -3   1  -3 21738.5 516.202   7
   3  -1   4 255.298 40.1603  14
   3  -1   4 187.069 32.7627   1
   3  -1   4 232.047 38.6349   2
  -3   1  -4 227.258 25.6811   6
   3  -1   4 249.891 38.9019  10
  -3   1  -4 269.397 29.4095   7
   3  -1   5 13633.7 374.337   5
   3  -1   5 14222.4 397.185  14
  -3   1  -5 13466.1 376.590  12
   3  -1   5 13015.6 367.023   2
   3  -1   5 13473.2 362.211   1
  -3   1  -5 13730.9 346.120   6
   3  -1   5 13859.6 379.820  10
  -3   1  -5 12804.7 356.278   7
  -3   1  -6 10215.6 315.712  12
   3  -1   6 10441.3 324.995  14
  -3   1  -6 10335.8 281.471   6
   3  -1   6 10439.4 308.484   5
   3  -1   6 9757.28 287.683   2
   3  -1   6 10391.1 284.382   1
   3  -1   7 762.846 51.6948   1
   3  -1   7 895.905 81.4404  14
  -3   1  -7 801.794 76.0577  12
  -3   1  -7 841.861 60.8616   6
   3  -1   7 737.400 68.0414   5
  -3   1  -7 857.610 72.0316   7
  -3   1  -8 429.463 66.6989  12
  -3   1  -8 386.504 51.1468   6
   3  -1   8 441.213 63.7379  14
  -3   1  -8 338.343 56.2861   7
  -3   1  -9 99.4761 46.8618   6
  -3   1  -9 82.3864 47.3096  12
   3  -1   9 136.910 32.7454   4
  -3   1  -9 166.917 52.5214   7
   3  -1  10 5318.09 169.843   4
  -3   1 -10 5365.22 231.378  12
  -3   1 -10 5425.93 221.518   7
  -3   1 -11 4786.82 219.597  12
  -3   1 -11 4558.10 206.125   7
   3  -1  11 4943.63 208.693  13
  -3   1 -12 1368.84 119.415  12
   3  -1  12 1505.83 113.274  13
  -3   1 -12 1319.57 112.119   7
  -3   1 -13 414.397 82.1392  12
  -3   1 -13 483.436 85.0271   7
   3  -1  13 425.889 78.5845  13
   3  -1  14 2621.21 168.315   3
   3  -1  14 2598.99 157.464  13
  -3   1 -14 2475.87 155.152   7
   3   0 -16 63.4916 69.8672  12
  -3   0  16 160.218 82.0183   9
  -3   0  16 138.337 77.0251   3
   3   0 -15 3141.17 174.347  12
  -3   0  15 3220.32 198.176   3
  -3   0  15 3131.01 194.419   9
   3   0 -14 4161.43 197.021  12
  -3   0  14 3810.92 214.883   3
  -3   0  14 4171.08 224.006   9
   3   0 -13 1243.76 103.144  12
  -3   0  13 1272.97 127.103   9
  -3   0  12 201.117 64.7654   9
   3   0 -12 124.315 53.0531  12
  -3   0  11 935.973 104.131   3
  -3   0  11 1099.51 90.6992   4
   3   0 -11 1275.03 63.8799   1
  -3   0  11 1215.82 94.9727  14
   3   0 -11 1143.42 43.3851  10
  -3   0  11 1236.79 105.415   9
   3   0 -11 1289.76 83.8508   8
  -3   0  10 1263.30 108.940   3
  -3   0  10 1299.65 95.4805   4
   3   0 -10 1203.23 67.6040   1
  -3   0  10 1258.45 91.4391  14
  -3   0  10 1242.45 67.8945  11
   3   0 -10 1291.34 55.0996  10
  -3   0  10 1224.08 97.7089   9
   3   0 -10 1136.43 78.9361   8
   3   0  -9 7212.66 270.943   4
  -3   0   9 7279.98 272.722   3
  -3   0   9 6645.59 250.951   4
   3   0  -9 7349.20 222.399   1
   3   0  -9 7280.67 248.861  14
  -3   0   9 7436.20 251.598  14
  -3   0   9 7324.15 209.512  11
   3   0  -9 7570.11 205.837  10
  -3   0   9 7164.00 253.634   9
   3   0  -9 7474.19 231.777   8
   3   0  -8 12738.9 382.134   4
  -3   0   8 11886.0 371.304   3
  -3   0   8 11571.4 368.090   4
   3   0  -8 11595.5 334.970   1
   3   0  -8 12187.1 356.313  14
  -3   0   8 11812.2 357.741  14
  -3   0   8 12435.2 315.037  11
  -3   0   8 12074.7 358.537   9
   3   0  -8 13239.1 327.560  10
   3   0  -8 12079.2 340.122   8
   3   0  -7 2058.91 100.163   2
   3   0  -7 1981.73 95.7644   1
  -3   0   7 2018.49 99.6836   2
   3   0  -7 1961.01 100.218  14
  -3   0   7 2063.50 97.9192  14
  -3   0   7 2110.00 76.7913  11
   3   0  -7 2179.33 93.4826  10
   3   0  -7 2064.12 95.7563   8
  -3   0   7 2203.76 103.413   9
   3   0  -7 2257.82 116.873   4
  -3   0   7 1761.45 102.374   3
   3   0  -6 52193.7 1194.78   2
   3   0  -6 48340.9 1183.61   1
  -3   0   6 48123.5 1194.49   2
   3   0  -6 48471.6 1181.68  14
  -3   0   6 49800.7 1167.81  14
   3   0  -6 47911.0 1142.04  11
  -3   0   6 48618.8 1145.94  11
   3   0  -6 54258.8 1189.61  10
   3   0  -6 51233.1 1179.14   8
  -3   0   6 51831.0 1184.60   9
  -3   0   6 49682.8 1190.66   3
   3   0  -5 33643.4 793.326   2
   3   0  -5 30632.5 776.684   1
  -3   0   5 31420.5 790.384   2
   3   0  -5 32967.0 763.116  14
  -3   0   5 32059.4 743.218  14
  -3   0   5 31874.1 735.016  11
  -3   0   5 32133.4 765.144   9
   3   0  -5 33826.8 777.097  10
   3   0  -5 32401.0 767.980   8
  -3   0   5 32717.3 782.107   4
  -3   0   5 31695.5 769.453   3
   3   0  -4 389.096 43.7147   1
   3   0  -4 453.092 50.4150   2
   3   0  -4 332.152 30.5280  14
  -3   0   4 361.685 23.8895  14
  -3   0   4 353.506 25.9375  11
   3   0  -4 504.856 29.0695  11
  -3   0   4 342.683 33.3429   9
   3   0  -4 383.343 41.2011  10
  -3   0   4 350.423 33.7376   3
  -3   0   4 475.477 42.0080   4
   3   0  -3 20549.3 528.814   2
  -3   0   3 18922.9 437.758  14
   3   0  -3 19813.8 453.021  14
   3   0  -3 20496.9 495.084  10
   3   0  -3 18868.1 469.063   9
  -3   0   3 19658.2 457.106  11
  -3   0   3 19178.5 469.134   3
  -3   0   2 23733.1 628.544   2
   3   0  -2 24024.3 544.450   7
   3   0  -2 24990.3 560.143  11
   3   0  -2 24227.4 569.360   9
   3   0  -2 25089.5 596.102  10
  -3   0   2 23696.3 563.839   3
   3   0  -2 23768.8 562.859   3
   3   0  -1 2645.64 71.2215   7
   3   0  -1 2456.66 72.6992  12
  -3   0   1 2619.29 87.2691   6
   3   0  -1 2618.47 88.7687   6
  -3   0   1 2477.11 72.9939  12
   3   0  -1 2789.19 89.3011   3
   3   0  -1 2566.12 96.8677   4
   3   0  -1 3093.90 141.903   2
  -3   0   1 3170.98 141.233   2
   3   0   0 2348.86 85.7339  14
   3   0   0 2617.36 78.7415  12
  -3   0   0 2588.05 76.9822  12
  -3   0   0 2422.52 122.520   2
  -3   0   0 2555.95 86.1445   6
   3   0   0 2670.84 87.1579   6
   3   0   0 2301.06 89.8439   4
   3   0   0 2571.54 86.9297   3
   3   0   0 2601.39 68.6969   7
  -3   0   0 2668.32 69.0938   7
  -3   0  -1 3130.28 99.5065  12
   3   0   1 3505.95 105.852  12
   3   0   1 3497.00 145.130   2
  -3   0  -1 3413.34 143.860   2
   3   0   1 3275.44 103.723   6
  -3   0  -1 3248.62 104.050   6
   3   0   1 3392.79 115.778  14
  -3   0  -1 3323.72 88.6719   7
   3   0   2 8834.99 258.630  14
  -3   0  -2 9368.99 243.715  12
   3   0   2 9041.51 279.336   2
  -3   0  -2 9342.22 282.006   2
   3   0   2 8749.21 268.664   1
   3   0   2 9028.46 252.331   5
   3   0   2 9431.13 237.688   6
  -3   0  -2 8832.82 238.060   6
  -3   0  -2 9246.43 284.965  10
  -3   0  -2 8961.25 224.565   7
   3   0   3 52965.9 1277.83  14
  -3   0  -3 54053.0 1261.79  12
   3   0   3 54348.9 1244.51   6
  -3   0  -3 54909.2 1249.08   6
   3   0   3 52753.5 1285.56   2
  -3   0  -3 52172.8 1287.29   2
   3   0   3 51878.3 1275.08   1
  -3   0  -3 56389.7 1313.49  10
   3   0   3 55401.6 1293.87  10
  -3   0  -3 53465.5 1238.38   7
   3   0   4 12318.9 350.915  14
   3   0   4 12322.9 345.643   2
  -3   0  -4 12376.0 344.719   2
   3   0   4 12120.0 336.966   1
  -3   0  -4 12488.4 321.355   6
  -3   0  -4 12952.3 370.551  10
  -3   0  -4 11523.1 315.702   7
   3   0   5 2109.25 111.321  14
  -3   0  -5 2276.74 111.885  12
   3   0   5 2233.21 98.2106   1
  -3   0  -5 2234.12 95.0010   6
  -3   0  -5 2272.76 116.076  10
  -3   0  -5 2130.77 93.8453   7
  -3   0  -6 20914.0 566.005  12
   3   0   6 21252.1 564.440  14
  -3   0  -6 21111.2 531.516   6
   3   0   6 20988.3 544.463   5
   3   0   6 20086.9 522.092   1
   3   0   7 9193.48 254.557   1
   3   0   7 9172.04 300.875  14
  -3   0  -7 8963.64 305.290  12
  -3   0  -7 8725.30 280.849   7
   3   0   7 8984.17 236.617   4
   3   0   7 9178.09 280.227   5
  -3   0  -7 9099.79 274.616   6
   3   0   8 471.417 40.3744   1
   3   0   8 570.906 74.3574  14
  -3   0  -8 508.447 59.2688   6
  -3   0  -8 457.736 66.8578  12
   3   0   8 566.946 35.4866   4
  -3   0  -8 583.673 65.2178   7
  -3   0  -9 774.595 83.6436  12
   3   0   9 719.118 38.0141   4
  -3   0  -9 732.061 75.6241   7
  -3   0  -9 670.126 75.7000   6
  -3   0 -10 1115.87 92.5353   7
  -3   0 -10 995.223 94.9482  12
  -3   0 -11 2343.58 135.348   7
  -3   0 -11 2115.75 141.622  12
  -3   0 -12 2154.25 133.846   7
  -3   0 -12 2146.42 147.387  12
  -3   0 -13 125.443 69.5742  12
   3   0  13 12.6864 60.1509  13
   3   0  13 115.478 63.3176   3
  -3   0 -13 30.7219 56.6073   7
   3   0  14 1083.99 115.524   3
   3   0  14 1260.31 118.215  13
   3   1 -17 1830.99 140.989  12
   3   1 -16 1250.74 115.853  12
  -3  -1  16 1367.99 137.977   9
  -3  -1  16 1380.67 135.303   3
  -3  -1  15 233.257 79.3084   9
   3   1 -15 264.471 69.4373  12
   3   1 -14 8182.08 297.130  12
  -3  -1  14 8278.06 341.452   9
   3   1 -13 8774.14 306.009  12
  -3  -1  13 9150.63 355.944   9
  -3  -1  13 8434.16 338.174   3
   3   1 -12 145.902 29.9949   1
  -3  -1  12-7.96591 56.0714   3
   3   1 -12 72.8635 48.5441  12
  -3  -1  12 60.1293 56.5579   9
   3   1 -12 78.9500 42.7181   8
  -3  -1  11 2004.73 123.113   4
  -3  -1  11 1744.25 133.381   3
  -3  -1  11 2073.84 117.921  14
   3   1 -11 1914.58 112.870  12
   3   1 -11 1953.83 88.4866   1
  -3  -1  11 1836.75 95.7762  11
  -3  -1  11 2039.70 131.229   9
   3   1 -11 1970.88 98.4881   8
  -3  -1  10 7109.67 280.322   3
  -3  -1  10 6785.72 251.319   4
   3   1 -10 6798.66 235.638  12
  -3  -1  10 6786.37 237.222  14
  -3  -1  10 6689.18 214.870   2
   3   1 -10 6786.78 210.458   1
  -3  -1  10 6997.05 251.685   9
   3   1 -10 6823.88 216.427   8
  -3  -1   9 7709.71 269.803   4
  -3  -1   9 7609.00 284.741   3
  -3  -1   9 7639.45 251.418  14
   3   1  -9 8191.58 237.190   8
  -3  -1   9 8228.05 263.117   9
   3   1  -9 7743.73 209.162  10
   3   1  -9 7828.49 236.456   1
  -3  -1   9 7725.59 240.641   2
   3   1  -8 3405.25 136.071   1
  -3  -1   8 3470.46 142.375   2
  -3  -1   8 3430.05 121.215  11
  -3  -1   8 3659.12 144.817  14
   3   1  -8 3345.55 131.391   8
  -3  -1   8 3547.83 145.132   9
   3   1  -8 3737.47 122.565  10
  -3  -1   8 3511.15 161.113   3
  -3  -1   7 2670.38 123.121   2
  -3  -1   7 2681.58 116.743  14
  -3  -1   7 2873.96 101.368  11
   3   1  -7 2896.62 99.0124  11
  -3  -1   7 2697.21 118.324   9
   3   1  -7 2817.10 113.160   8
   3   1  -7 2832.62 110.084  10
  -3  -1   7 2927.93 132.426   3
   3   1  -7 2884.07 147.236   4
  -3  -1   6 2573.23 122.929   2
   3   1  -6 2473.54 71.1763  13
  -3  -1   6 2585.72 105.525  14
  -3  -1   6 2659.17 93.3669  11
   3   1  -6 2782.66 92.5158  11
   3   1  -6 2534.23 105.637   8
   3   1  -6 2638.11 102.971   9
  -3  -1   6 2762.42 110.265   9
   3   1  -6 2654.27 113.424  10
  -3  -1   6 2730.52 116.910   3
  -3  -1   6 2629.89 128.155   4
   3   1  -5 52793.8 1218.86   3
  -3  -1   5 51228.4 1251.26   2
  -3  -1   5 51899.6 1194.07  14
   3   1  -5 53709.1 1193.06  11
  -3  -1   5 50708.2 1192.59  11
   3   1  -5 49394.5 1172.72  13
  -3  -1   5 53195.3 1214.26   9
   3   1  -5 57535.0 1242.82  10
   3   1  -5 48787.1 1202.91   9
  -3  -1   5 51200.5 1218.70   3
  -3  -1   5 52205.0 1242.78   4
  -3  -1   4 32430.7 792.262  14
   3   1  -4 33548.4 794.984  13
  -3  -1   4 34886.5 809.643  11
   3   1  -4 36031.6 809.614  11
  -3  -1   4 35068.9 822.953   3
   3   1  -4 34813.4 823.154   3
  -3  -1   4 35205.8 843.402   4
  -3  -1   4 35004.9 824.859   9
   3   1  -4 36313.7 852.851  10
   3   1  -3 1242.77 55.7351  11
   3   1  -3 1242.14 37.7978  12
  -3  -1   3 1168.99 55.1041  11
   3   1  -3 1370.28 79.7185  10
   3   1  -3 1321.59 60.7930   3
  -3  -1   3 1362.19 59.3008   3
  -3  -1   3 1286.44 67.9575   4
   3   1  -2 33479.1 834.043   4
   3   1  -2 34140.9 803.709   3
  -3  -1   2 34018.5 815.419   4
  -3  -1   2 33970.0 801.152   3
  -3  -1   2 34388.4 807.084  11
  -3  -1   2 34022.8 808.865   6
   3   1  -2 35161.8 851.418  10
  -3  -1   2 35833.5 887.791   2
   3   1  -1 26527.3 641.786   3
   3   1  -1 27698.7 671.973   4
  -3  -1   1 27955.8 654.136   6
  -3  -1   1 27537.8 621.494  12
  -3  -1   1 28599.7 691.646  10
  -3  -1   1 28922.4 726.037   2
  -3  -1   0 944.118 73.5114   2
   3   1   0 762.777 33.5073  14
  -3  -1   0 805.616 32.6455  12
  -3  -1   0 812.324 46.3363   6
   3   1   0 815.762 46.0680   6
   3   1   0 735.659 48.7255  11
  -3  -1   0 858.854 65.6150  10
   3   1   0 842.130 39.8108   3
   3   1   0 797.320 50.2871   4
  -3  -1  -1 4867.50 190.567   2
   3   1   1 5176.20 147.266  14
  -3  -1  -1 5083.99 142.098  12
  -3  -1  -1 5132.98 154.284   6
   3   1   1 5224.60 154.356   6
   3   1   1 5359.24 165.959  11
  -3  -1  -1 5062.22 191.754  10
   3   1   1 4724.43 154.155   4
   3   1   2 4116.04 126.944   4
  -3  -1  -2 4207.01 164.607   2
   3   1   2 4432.98 142.177  14
  -3  -1  -2 4154.83 132.186  12
   3   1   2 4243.57 133.966   6
  -3  -1  -2 4228.50 136.148   6
   3   1   2 3899.40 145.383  11
  -3  -1  -2 4347.87 178.926  10
  -3  -1  -2 4133.55 110.037   7
   3   1   3 7405.38 203.453   4
   3   1   3 8042.85 246.419  14
  -3  -1  -3 8036.88 232.995  12
  -3  -1  -3 8117.77 228.603   6
   3   1   3 7923.58 223.676   6
  -3  -1  -3 8010.85 207.122   7
  -3  -1  -3 8788.24 280.040  10
  -3  -1  -3 8170.44 255.462   2
   3   1   4 19693.2 495.057  14
  -3  -1  -4 18499.1 482.385   2
  -3  -1  -4 18984.2 460.453   6
   3   1   4 18627.3 453.899   6
  -3  -1  -4 20216.9 513.359  10
  -3  -1  -4 18850.8 444.886   7
  -3  -1  -5 2498.89 127.605  12
   3   1   5 2705.84 131.185  14
  -3  -1  -5 2532.08 109.877   6
  -3  -1  -5 2791.25 136.900  10
   3   1   5 2683.66 113.624   1
  -3  -1  -5 2691.45 117.480   2
  -3  -1  -6 7907.16 242.778   2
   3   1   6 7941.27 238.708   1
  -3  -1  -6 7842.06 269.672  12
   3   1   6 7889.27 269.517  14
  -3  -1  -6 8078.89 249.112   6
  -3  -1  -6 7411.02 265.757  10
   3   1   6 8328.37 245.498   5
   3   1   7 20259.8 507.143   1
   3   1   7 19577.6 557.400  14
  -3  -1  -7 19509.4 554.207  12
  -3  -1  -7 19449.6 547.476  10
   3   1   7 20855.6 530.766   5
  -3  -1  -7 19906.3 535.554   6
  -3  -1  -8 9982.69 331.368  12
  -3  -1  -8 9831.45 320.455   6
  -3  -1  -8 9886.06 317.649  10
   3   1   8 10529.4 310.635   5
  -3  -1  -9 105.117 52.8375  12
  -3  -1  -9 34.5718 55.2556   6
  -3  -1 -10 2810.53 140.314   7
  -3  -1 -10 2714.98 152.599  12
   3   1  11 1545.56 113.186   3
  -3  -1 -11 1546.18 119.180  12
  -3  -1 -11 1471.82 106.156   7
  -3  -1 -12 736.531 97.4084  12
   3   1  12 981.834 96.8756   3
  -3  -1 -13 345.110 81.1321  12
   3   1  13 290.269 67.4720   3
   3   2 -17 1417.51 123.153  12
  -3  -2  17 1425.46 143.726   9
   3   2 -16 389.793 82.5027  12
  -3  -2  16 266.777 93.2072   9
   3   2 -15 88.7753 56.2860  12
  -3  -2  15-37.2180 79.8926   9
  -3  -2  15 81.1120 68.3826   3
  -3  -2  14 930.308 125.253   9
  -3  -2  14 795.040 103.411   3
   3   2 -14 849.174 89.7435  12
   3   2 -13 8860.13 269.587   8
   3   2 -13 8885.38 307.653  12
  -3  -2  13 9023.95 346.804   9
  -3  -2  13 8972.62 347.606   3
   3   2 -12 11011.5 311.380   8
   3   2 -12 10569.9 342.951  12
   3   2 -12 10597.9 299.564   1
  -3  -2  12 10978.4 331.863  11
  -3  -2  12 11558.5 380.787   9
  -3  -2  12 10362.4 386.373   3
  -3  -2  11 913.914 99.7947   3
  -3  -2  11 1003.74 82.4967  14
  -3  -2  11 984.773 46.8444  13
   3   2 -11 1040.57 83.7771  12
   3   2 -11 876.149 65.0136   1
  -3  -2  11 963.788 68.9361   2
  -3  -2  11 1023.34 74.2107  11
  -3  -2  11 1004.68 91.7499   9
   3   2 -11 922.957 66.8822   8
  -3  -2  10 16484.9 452.906   2
   3   2 -10 16618.6 444.848   1
   3   2 -10 16841.5 467.587  12
  -3  -2  10 17015.6 466.697  14
  -3  -2  10 16951.3 446.453  11
   3   2 -10 16451.5 437.960   8
  -3  -2  10 16952.9 478.031   9
  -3  -2  10 16544.3 523.761   3
  -3  -2  10 16518.5 491.296   4
  -3  -2   9 12027.5 358.070   2
   3   2  -9 12179.1 361.036  12
  -3  -2   9 12356.5 358.040  14
  -3  -2   9 12563.6 340.768  11
   3   2  -9 12503.4 341.281   8
  -3  -2   9 12295.0 362.605   9
  -3  -2   9 12693.3 405.106   3
  -3  -2   8 1389.06 90.3337   2
   3   2  -8 1384.01 84.7328  12
   3   2  -8 1414.33 52.0036  13
  -3  -2   8 1581.96 86.1799  14
   3   2  -8 1594.02 74.2287  11
   3   2  -8 1331.55 76.3009   8
  -3  -2   8 1458.93 85.0687   9
  -3  -2   8 1373.03 99.1831   3
  -3  -2   7 559.555 59.4322   2
   3   2  -7 528.602 47.9380  12
  -3  -2   7 484.700 47.0280  14
   3   2  -7 494.182 28.3909  13
   3   2  -7 540.052 42.2404  11
  -3  -2   7 576.171 50.6760   9
  -3  -2   7 487.798 55.3915   3
  -3  -2   7 481.559 61.3923   4
  -3  -2   6 422.236 54.0344   2
   3   2  -6 491.128 29.3587  13
   3   2  -6 476.118 36.8424  12
  -3  -2   6 374.844 38.2501  14
   3   2  -6 463.416 37.8060  11
   3   2  -6 452.176 40.3635   9
  -3  -2   6 406.386 41.9426   9
  -3  -2   6 487.379 58.7976   4
  -3  -2   6 430.092 44.9538   3
  -3  -2   5 5011.73 198.423   2
   3   2  -5 4984.80 140.458  13
   3   2  -5 4641.57 137.503  12
  -3  -2   5 5161.52 154.081  14
  -3  -2   5 5057.02 154.785  11
   3   2  -5 4992.63 152.991  11
  -3  -2   5 5025.01 162.010   9
   3   2  -5 5027.06 156.916   9
  -3  -2   5 5145.58 192.188   4
  -3  -2   5 5159.69 167.655   3
   3   2  -4 40635.8 971.724   3
   3   2  -4 40940.1 926.929  12
   3   2  -4 40008.4 949.604  13
  -3  -2   4 38298.5 947.001  14
   3   2  -4 41496.2 961.998  11
  -3  -2   4 41241.9 962.243  11
  -3  -2   4 42110.6 984.288  10
   3   2  -4 41153.8 964.712   9
  -3  -2   4 41434.1 997.951   4
  -3  -2   4 42826.7 967.444   3
  -3  -2   3 15231.5 348.674  14
  -3  -2   3 14752.6 354.256  14
  -3  -2   3 14253.8 451.507   2
   3   2  -3 15250.3 384.083   3
  -3  -2   3 15860.6 387.861  11
   3   2  -3 15265.7 385.576   9
  -3  -2   3 15235.7 413.100  10
   3   2  -3 15863.6 443.719   4
  -3  -2   3 15095.6 379.270   3
  -3  -2   3 15654.5 406.954   4
   3   2  -2 19004.2 442.396   7
  -3  -2   2 19825.3 481.354   6
   3   2  -2 20013.5 467.153   3
  -3  -2   2 19450.7 484.550   4
   3   2  -2 20308.2 530.296   4
  -3  -2   2 20073.6 478.919  11
   3   2  -2 19346.1 476.259   9
  -3  -2   2 20206.7 566.135   2
  -3  -2   1 51871.5 1243.79   2
  -3  -2   1 49756.1 1134.65  14
  -3  -2   1 49842.9 1161.75   6
  -3  -2   1 49229.1 1206.84  10
  -3  -2   1 50249.5 1155.60   4
   3   2  -1 48181.1 1197.60   4
   3   2  -1 48665.4 1139.42   3
  -3  -2   0 21099.5 573.678   2
  -3  -2   0 19262.2 499.169  14
   3   2   0 21473.2 481.754  14
  -3  -2   0 20032.3 478.718  12
   3   2   0 19929.0 511.555   6
  -3  -2   0 20499.9 510.410   6
   3   2   0 21434.0 518.592  11
  -3  -2   0 20661.8 563.656  10
   3   2   0 20476.7 523.907   4
   3   2   0 20478.8 483.944   3
  -3  -2  -1 1221.61 88.0004   2
   3   2   1 1429.08 56.1191  14
  -3  -2  -1 1332.78 67.3323  14
  -3  -2  -1 1180.91 53.8577  12
  -3  -2  -1 1132.89 64.0807   6
   3   2   1 1276.15 66.6082   6
   3   2   1 1384.70 73.0433  11
  -3  -2  -1 1280.60 94.9705  10
   3   2   1 1101.80 61.4241   4
   3   2   1 1220.47 47.0987   3
  -3  -2  -2 17721.4 484.566   2
  -3  -2  -2 17702.4 453.930  14
   3   2   2 17785.2 436.098  14
  -3  -2  -2 17129.5 437.869  12
   3   2   2 17403.5 443.139   6
  -3  -2  -2 18022.8 447.442   6
   3   2   2 18302.0 460.530  11
  -3  -2  -2 18884.5 514.509  10
  -3  -2  -2 16693.6 400.653   7
  -3  -2  -2 17145.7 403.774   7
  -3  -2  -3 6061.55 203.482  14
   3   2   3 5891.91 192.854  14
  -3  -2  -3 6108.10 196.064  12
   3   2   3 5651.51 201.542  11
   3   2   3 6054.29 188.153   6
  -3  -2  -3 6177.84 192.401   6
  -3  -2  -3 5768.53 229.511  10
  -3  -2  -3 6188.43 213.973   2
   3   2   4 3940.77 154.990  14
  -3  -2  -4 3715.77 143.705   6
   3   2   4 3868.30 139.917   6
   3   2   4 4038.08 161.511  11
  -3  -2  -4 3838.97 174.778  10
  -3  -2  -4 3724.88 154.711   2
   3   2   5 3916.17 169.160  14
  -3  -2  -5 4036.19 165.499  14
  -3  -2  -5 3805.07 161.204  12
   3   2   5 3723.41 168.803  11
  -3  -2  -5 4052.84 158.253   2
  -3  -2  -5 4116.97 180.141  10
  -3  -2  -5 3976.08 152.621   6
  -3  -2  -6 224.471 40.1449   2
   3   2   6 104.779 51.4267  14
  -3  -2  -6 136.592 41.4269  14
  -3  -2  -6 129.396 41.1599   6
  -3  -2  -6 126.662 44.8337  12
  -3  -2  -6 171.136 47.2638  10
   3   2   6 126.059 48.6202  11
   3   2   6 109.525 33.3602   5
  -3  -2  -7 8470.38 255.149   2
   3   2   7 7705.18 292.293  14
  -3  -2  -7 7826.55 279.707  12
  -3  -2  -7 8330.77 277.971   6
   3   2   7 9149.42 317.766  11
  -3  -2  -7 8363.49 287.895  10
   3   2   7 8503.09 257.362   5
  -3  -2  -8 9637.66 330.482  12
  -3  -2  -8 9615.84 329.825   6
  -3  -2  -8 10206.2 329.116  10
   3   2   8 10399.3 304.655   5
   3   2   8 10818.2 368.998  11
   3   2   9 2213.06 148.157  11
  -3  -2  -9 2198.85 128.935  10
  -3  -2  -9 2043.24 129.170  12
   3   2  10 794.954 94.5806  11
   3   2  10 888.460 85.9646   3
  -3  -2 -10 894.481 86.9181  10
  -3  -2 -10 755.731 84.6715  12
   3   2  11 3128.31 160.824   3
  -3  -2 -11 3381.38 178.606  12
  -3  -2 -12 1748.20 133.569  12
   3   2  12 1702.85 135.074  11
  -3  -2 -13 95.8534 69.1321  12
   3   2  13 58.4315 72.3081  11
  -3  -3  17 2222.37 174.577   9
   3   3 -17 2084.04 146.389  12
   3   3 -16 276.327 73.7249  12
  -3  -3  16 142.043 79.7587   3
  -3  -3  16 210.649 89.8730   9
   3   3 -15 255.541 72.2342  12
  -3  -3  15 163.479 73.1826   3
  -3  -3  15 257.280 85.1059   9
   3   3 -14 237.356 64.8624  12
  -3  -3  14 97.9114 68.8353   9
  -3  -3  14 236.094 76.7203   3
   3   3 -13 1863.62 124.285  12
  -3  -3  13 1908.93 97.6036   2
  -3  -3  13 2147.63 147.667   9
  -3  -3  13 2008.79 150.109   3
  -3  -3  12 7088.87 298.783   3
  -3  -3  12 7767.38 265.881  14
   3   3 -12 7245.18 264.466  12
   3   3 -12 7001.18 228.045   1
  -3  -3  12 7436.53 238.905   2
  -3  -3  12 7726.59 258.672  11
  -3  -3  12 7437.03 281.951   9
   3   3 -12 7191.87 225.205   8
  -3  -3  11 6560.90 226.529   2
  -3  -3  11 6496.50 193.649  13
   3   3 -11 6615.60 242.550  12
  -3  -3  11 6969.15 240.015  14
  -3  -3  11 6604.53 227.669  11
   3   3 -11 6511.84 206.588   8
  -3  -3  11 6517.06 247.988   9
  -3  -3  11 6125.35 272.591   3
  -3  -3  10 1822.11 104.991   2
  -3  -3  10 1853.07 107.160  14
  -3  -3  10 1780.49 79.1327  13
   3   3 -10 2036.73 113.563  12
  -3  -3  10 1748.87 97.7883  11
  -3  -3  10 1719.15 104.700   9
   3   3 -10 1666.99 88.0151   8
  -3  -3  10 1615.62 130.768   3
  -3  -3  10 1470.34 112.850   4
  -3  -3   9 24803.3 658.278   2
   3   3  -9 24437.4 589.632  13
  -3  -3   9 25355.6 646.007  14
   3   3  -9 23664.0 630.832  12
   3   3  -9 25898.0 669.874   6
  -3  -3   9 25648.3 631.206  11
   3   3  -9 23836.8 618.858   8
  -3  -3   9 25645.5 646.333   9
  -3  -3   9 25426.0 694.949   3
  -3  -3   8 7511.23 261.797   2
   3   3  -8 7667.96 202.145  13
  -3  -3   8 7571.93 241.544  14
   3   3  -8 7258.44 222.918  12
   3   3  -8 8173.97 261.505   6
  -3  -3   8 7215.71 228.418  11
   3   3  -8 7491.88 225.299  11
  -3  -3   8 7544.28 238.182   9
  -3  -3   8 7847.02 271.874   3
  -3  -3   8 6800.36 267.274   4
  -3  -3   7 5.27059 31.3369   2
  -3  -3   7 26.5508 31.7594   3
  -3  -3   7 19.2706 25.6211  14
   3   3  -7 33.3102 18.6622  13
   3   3  -7 41.0557 31.9601   6
   3   3  -7-2.02999 17.0731  12
  -3  -3   7 36.8560 25.6410   9
   3   3  -7 2.64000 20.8938  11
  -3  -3   7 51.2022 27.4212  11
  -3  -3   7 28.8833 33.3495   4
  -3  -3   6 8587.25 293.439   2
  -3  -3   6 8453.52 239.227  14
   3   3  -6 8385.95 225.318  13
   3   3  -6 8409.59 219.115  12
   3   3  -6 8715.26 264.879   6
  -3  -3   6 8948.44 246.529  11
   3   3  -6 8434.53 241.631  11
   3   3  -6 8029.63 236.319   9
  -3  -3   6 8195.66 243.614   9
  -3  -3   6 8402.24 246.543  10
  -3  -3   6 8281.59 295.107   4
  -3  -3   6 8297.72 258.818   3
  -3  -3   5 8410.59 284.859   4
  -3  -3   5 8544.16 246.082   3
  -3  -3   5 8417.97 224.479  14
   3   3  -5 8225.91 205.556  12
   3   3  -5 8736.92 228.635  13
   3   3  -5 8258.55 233.478   7
   3   3  -5 8182.62 238.784  11
  -3  -3   5 8407.92 253.560  10
   3   3  -5 8479.13 235.498   9
  -3  -3   5 8120.48 293.955   2
   3   3  -4 2028.49 75.6242   7
   3   3  -4 2076.02 82.8887  13
   3   3  -4 2108.08 84.9231   9
  -3  -3   4 2038.00 103.044  10
  -3  -3   4 2080.65 84.1419   3
  -3  -3   4 2169.89 111.095   4
  -3  -3   3 2409.32 84.0776   3
  -3  -3   3 2395.36 110.614   4
  -3  -3   3 2409.26 145.831   2
  -3  -3   3 2432.39 69.2606  14
   3   3  -3 2405.48 93.3664  13
  -3  -3   3 2373.92 98.0215   6
   3   3  -3 2332.30 102.600   6
   3   3  -3 2544.63 93.7219   9
  -3  -3   3 2407.44 118.978  10
   3   3  -3 2143.52 72.6113   7
  -3  -3   2 5842.10 244.062   2
  -3  -3   2 5373.12 139.772  14
  -3  -3   2 5673.86 174.799   6
  -3  -3   2 5885.84 173.288  11
   3   3  -2 5260.91 134.487   7
  -3  -3   2 5317.09 148.033   3
  -3  -3   2 5754.46 180.334   4
  -3  -3   1 15401.8 462.033   2
   3   3  -1 14778.0 351.885   3
  -3  -3   1 14733.4 351.266  14
  -3  -3   1 14634.2 333.723  12
  -3  -3   1 15111.8 383.630   6
   3   3  -1 13913.5 382.066  11
  -3  -3   1 14141.2 332.709  12
  -3  -3   1 13127.2 424.741  10
  -3  -3   1 14412.4 374.662   4
  -3  -3   0 40127.6 996.633   2
  -3  -3   0 36177.4 899.472  14
   3   3   0 39789.4 891.615  14
  -3  -3   0 38177.9 890.574  12
  -3  -3   0 40216.4 925.958   6
   3   3   0 38871.0 928.937  11
  -3  -3   0 39084.8 997.237  10
   3   3   0 36940.9 880.804   3
  -3  -3   0 40650.6 901.816   4
  -3  -3  -1 8724.92 293.359   2
  -3  -3  -1 8115.48 235.770  14
   3   3   1 8593.23 222.371  14
  -3  -3  -1 8006.57 228.424  12
   3   3   1 8921.07 249.347   6
  -3  -3  -1 8506.14 247.004   6
   3   3   1 8560.79 252.885  11
  -3  -3  -1 9041.92 316.981  10
   3   3   1 7926.01 200.816   3
   3   3   2 2203.67 68.5139   3
  -3  -3  -2 2286.26 125.720   2
  -3  -3  -2 2588.09 109.852  14
   3   3   2 2482.38 94.3977  14
  -3  -3  -2 2266.32 101.537  12
   3   3   2 2449.20 112.648  11
  -3  -3  -2 2377.80 66.9006   7
  -3  -3  -2 2398.33 143.150  10
   3   3   2 2674.68 108.689   6
  -3  -3  -2 2444.76 106.432   6
  -3  -3  -3 20171.8 561.798   2
   3   3   3 21643.0 527.386  14
   3   3   3 20603.1 530.927   6
  -3  -3  -3 20436.0 533.885   6
   3   3   3 22370.1 553.552  11
  -3  -3  -3 20819.2 592.177  10
  -3  -3  -3 19893.9 485.396   7
   3   3   4 10257.6 304.902  14
  -3  -3  -4 10066.3 314.445  14
  -3  -3  -4 10185.1 308.292  12
   3   3   4 10418.8 319.594  11
  -3  -3  -4 10372.5 323.144   2
  -3  -3  -4 9931.87 341.873  10
   3   3   4 10252.4 299.127   6
  -3  -3  -4 10410.4 305.827   6
  -3  -3  -5 511.281 57.6250   6
   3   3   5 422.580 45.2919   5
   3   3   5 381.136 53.6960  14
  -3  -3  -5 447.614 59.5935  14
  -3  -3  -5 473.833 56.9358  12
  -3  -3  -5 487.980 69.7016  10
   3   3   5 372.957 59.1101  11
  -3  -3  -5 393.524 55.2741   2
  -3  -3  -6 145.618 42.9398   2
  -3  -3  -6 92.6547 40.6891   6
  -3  -3  -6 155.507 45.2665  12
   3   3   6 129.145 47.6334  14
  -3  -3  -6 104.057 43.8400  14
   3   3   6 123.948 48.6357  11
  -3  -3  -6 149.888 51.2052  10
   3   3   6 144.956 37.2438   5
   3   3   7 247.170 42.8353   3
  -3  -3  -7 243.939 45.5510   2
   3   3   7 161.589 62.1790  14
  -3  -3  -7 202.290 55.5155  14
  -3  -3  -7 278.390 53.3012  12
  -3  -3  -7 161.398 53.5873  10
   3   3   7 108.415 57.1532  11
   3   3   7 184.580 41.9482   5
   3   3   8 5424.98 192.302   3
  -3  -3  -8 5306.34 216.369  12
  -3  -3  -8 5335.56 226.896  14
   3   3   8 5361.32 251.001  11
  -3  -3  -8 5203.35 223.251  10
   3   3   8 5473.64 191.036   5
   3   3   9 3849.48 201.619  11
  -3  -3  -9 3362.78 170.165  12
  -3  -3  -9 3615.32 175.097  10
   3   3   9 3305.45 149.801   3
   3   3  10 158.048 63.3686  11
  -3  -3 -10 121.679 58.0352  10
   3   3  10 128.923 52.9698   3
  -3  -3 -10 213.484 59.9566  12
   3   3  11 1584.56 134.059  11
  -3  -3 -11 1401.89 120.102  12
   3   3  12 3383.24 190.386  11
  -3  -3 -12 2974.15 176.274  12
  -3  -4  17 3137.53 209.012   9
   3   4 -17 3208.54 210.176   6
   3   4 -17 3053.26 183.374  12
   3   4 -16 3392.80 196.288   7
   3   4 -16 3081.58 178.451  12
  -3  -4  16 2967.75 200.299   3
  -3  -4  16 3551.73 222.539   9
   3   4 -16 3498.09 220.434   6
   3   4 -15 111.297 67.7988   7
   3   4 -15 95.5410 88.6212   6
   3   4 -15 68.2870 56.6016  12
  -3  -4  15 28.4912 83.7542   9
  -3  -4  15-9.18871 70.9371   3
   3   4 -14 786.468 92.6758  12
   3   4 -14 905.958 100.884   7
   3   4 -14 582.166 107.306   6
  -3  -4  14 921.924 106.079   9
  -3  -4  14 644.010 97.8291   3
  -3  -4  13 2447.86 120.138   2
   3   4 -13 2606.66 153.394  12
   3   4 -13 2425.30 157.913   7
   3   4 -13 2592.30 173.661   6
  -3  -4  13 2256.37 149.076   9
  -3  -4  13 2223.65 159.909   3
  -3  -4  12 2216.28 153.657   3
   3   4 -12 2015.14 126.878  12
   3   4 -12 2138.17 148.388   6
  -3  -4  12 2079.79 130.103   9
   3   4 -12 2074.81 98.4523   8
  -3  -4  12 2046.98 116.703   2
  -3  -4  11 2623.28 136.183   2
  -3  -4  11 2529.47 134.667  14
  -3  -4  11 2542.36 110.217  13
   3   4 -11 2568.02 131.883  12
   3   4 -11 2723.45 154.290   6
  -3  -4  11 2486.04 127.682  11
  -3  -4  11 2486.88 134.151   9
   3   4 -11 2537.15 111.393   8
  -3  -4  11 2662.12 167.219   3
  -3  -4  10 1012.48 87.8566   2
   3   4 -10 1122.20 59.3441  13
  -3  -4  10 1139.96 86.3054  14
  -3  -4  10 1151.40 70.7535  13
   3   4 -10 1217.90 80.1602  12
   3   4 -10 1318.44 102.635   6
  -3  -4  10 1158.08 81.1173  11
   3   4 -10 1158.97 71.1744   8
  -3  -4  10 1241.08 86.7527   9
  -3  -4  10 1085.27 110.367   3
  -3  -4   9 3137.40 167.595   4
  -3  -4   9 3316.11 176.230   3
  -3  -4   9 3041.17 157.604   2
   3   4  -9 3485.37 115.402  13
  -3  -4   9 3462.66 149.544  14
   3   4  -9 3148.32 128.183  12
   3   4  -9 3402.54 162.046   6
   3   4  -9 3603.52 140.243  11
  -3  -4   9 3250.81 138.620  11
  -3  -4   9 3590.07 144.904   9
   3   4  -9 3319.60 156.724   7
  -3  -4   8 35968.1 972.898   4
  -3  -4   8 37167.3 959.666   3
  -3  -4   8 37816.0 968.618   2
  -3  -4   8 38181.0 920.861  14
   3   4  -8 36493.7 885.328  13
   3   4  -8 37045.6 892.966  12
   3   4  -8 38700.2 950.101   6
  -3  -4   8 37931.5 919.239  11
   3   4  -8 38793.0 914.318  11
  -3  -4   8 38209.8 915.620   9
   3   4  -8 36570.1 930.356   7
  -3  -4   7 9357.65 337.498   4
  -3  -4   7 10147.8 316.213   3
  -3  -4   7 9988.51 342.163   2
  -3  -4   7 10517.6 287.802  14
   3   4  -7 10041.6 264.248  12
   3   4  -7 9978.31 272.550  13
   3   4  -7 10598.8 317.874   6
  -3  -4   7 10380.8 295.438  11
   3   4  -7 10024.8 290.757  11
  -3  -4   7 9911.68 288.426   9
  -3  -4   7 10153.3 289.333  10
   3   4  -7 10420.5 296.664   7
  -3  -4   6 5988.14 247.804   2
   3   4  -6 6199.54 191.790   7
   3   4  -6 5786.49 162.514  12
   3   4  -6 6204.26 185.835  13
   3   4  -6 6436.06 216.806   6
   3   4  -6 6706.06 201.682  11
  -3  -4   6 6404.52 200.200  11
   3   4  -6 6061.39 185.270   9
  -3  -4   6 6321.14 206.377  10
  -3  -4   6 5962.48 243.214   4
  -3  -4   6 6504.22 209.185   3
   3   4  -5 20656.9 498.842   7
   3   4  -5 21079.1 504.574  13
   3   4  -5 20996.3 533.765   6
   3   4  -5 18501.9 509.877  11
  -3  -4   5 20795.9 516.829  11
   3   4  -5 19700.2 467.830  12
  -3  -4   5 20591.3 540.447  10
   3   4  -5 20029.1 501.438   9
  -3  -4   5 20794.4 577.737   4
  -3  -4   5 19934.2 512.579   3
   3   4  -4 14208.4 347.956   7
   3   4  -4 14028.8 366.403  13
  -3  -4   4 13787.7 375.522   6
   3   4  -4 14033.0 387.414   6
  -3  -4   4 14215.4 374.819  11
   3   4  -4 13525.1 359.301   9
  -3  -4   4 13294.9 403.818  10
  -3  -4   4 14293.3 359.747   3
  -3  -4   4 13842.1 412.929   4
  -3  -4   3 689.158 62.4862   4
  -3  -4   3 652.467 37.8757   3
  -3  -4   3 783.943 89.4674   2
  -3  -4   3 707.669 35.2840  14
   3   4  -3 708.625 52.8859  13
  -3  -4   3 668.470 53.4107   6
   3   4  -3 609.953 53.7607   6
  -3  -4   3 717.608 53.5461  11
   3   4  -3 614.529 45.3139   9
  -3  -4   3 681.708 71.0423  10
   3   4  -3 715.767 35.1608   7
  -3  -4   2 21.1196 12.1553   3
  -3  -4   2 26.2347 13.5159  14
   3   4  -2 17.3411 25.1568  13
  -3  -4   2 3.04547 21.6455   6
   3   4  -2 23.4846 27.1851   6
   3   4  -2 14.3938 9.88663   7
   3   4  -2 24.2658 21.5586  11
  -3  -4   2 42.6049 23.3679  11
  -3  -4   2 23.0482 24.9849   4
  -3  -4   1 207.137 23.5832  14
  -3  -4   1 323.299 41.2846   6
  -3  -4   1 200.062 54.5359   2
  -3  -4   1 278.466 17.5477  12
  -3  -4   1 291.233 35.6451  11
   3   4  -1 282.872 38.2391  11
  -3  -4   1 300.755 34.7831   4
  -3  -4   0 9399.08 250.389  14
  -3  -4   0 9549.32 274.990   6
  -3  -4   0 9336.97 331.418   2
   3   4   0 8938.39 274.279  11
  -3  -4   0 8825.10 265.409  11
  -3  -4   0 9468.97 345.987  10
  -3  -4   0 9263.98 249.321   4
  -3  -4  -1 27717.2 650.946   4
  -3  -4  -1 28589.5 757.925   2
  -3  -4  -1 28763.7 699.361   6
   3   4   1 28649.0 667.144  14
  -3  -4  -1 28927.2 681.430  14
   3   4   1 27393.0 700.338  11
  -3  -4  -1 26864.5 632.973   7
  -3  -4  -2 959.969 89.0743   2
   3   4   2 1246.39 77.9523   6
  -3  -4  -2 1126.96 77.3298   6
   3   4   2 1132.87 63.1899  14
   3   4   2 1040.86 75.0518  11
  -3  -4  -2 1194.05 107.078  10
  -3  -4  -2 1063.24 40.5406   7
  -3  -4  -3 6076.33 247.808   2
   3   4   3 6478.51 205.462  14
  -3  -4  -3 6647.02 225.083  14
   3   4   3 6718.96 219.773   6
  -3  -4  -3 6740.45 224.116   6
   3   4   3 6842.94 231.854  11
  -3  -4  -3 7207.27 275.340  10
  -3  -4  -3 6472.36 172.572   7
   3   4   4 11508.5 287.543   3
  -3  -4  -4 11458.9 368.356   2
  -3  -4  -4 11989.3 365.497  14
   3   4   4 11822.4 338.250  14
  -3  -4  -4 10470.2 334.378  12
   3   4   4 12010.8 343.781   6
   3   4   4 12211.4 324.003   5
  -3  -4  -4 12169.6 350.686   6
   3   4   4 11165.1 355.055  11
  -3  -4  -4 11964.2 396.197  10
  -3  -4  -4 11860.9 296.679   7
   3   4   5 3295.36 114.976   3
  -3  -4  -5 3515.62 163.075   2
  -3  -4  -5 3386.01 161.457  14
   3   4   5 3315.56 150.584  14
  -3  -4  -5 3414.95 149.133  12
   3   4   5 3680.02 133.013   5
  -3  -4  -5 3522.34 155.953   6
   3   4   5 3598.32 167.317  11
  -3  -4  -5 3300.61 175.855  10
  -3  -4  -5 3542.96 118.794   7
   3   4   6 63.7297 27.0462   3
  -3  -4  -6 61.8068 43.8270   2
   3   4   6 120.409 52.7860  14
  -3  -4  -6 130.079 53.0426  14
  -3  -4  -6 57.0769 45.3819  12
  -3  -4  -6 140.635 63.1571  10
   3   4   6 142.080 55.5534  11
   3   4   6 67.0493 34.3386   5
  -3  -4  -7 2949.28 137.853   2
  -3  -4  -7 2841.69 154.417  14
   3   4   7 2751.50 167.050  11
  -3  -4  -7 2799.39 143.521  12
  -3  -4  -7 2579.04 156.407  10
   3   4   7 2603.08 112.199   3
   3   4   7 2795.33 118.211   5
  -3  -4  -8 1368.11 114.205  14
   3   4   8 1417.06 125.918  11
  -3  -4  -8 1378.68 103.385  12
  -3  -4  -8 1344.55 115.719  10
   3   4   8 1313.23 79.1822   3
  -3  -4  -9 1369.40 111.088  12
  -3  -4  -9 1458.72 117.646  10
  -3  -4  -9 1298.23 111.786  14
   3   4   9 1447.32 133.540  11
  -3  -4 -10 754.261 89.6780  12
   3   4  10 629.079 97.9429  11
  -3  -4 -11 177.215 70.9376  12
   3   4  11 133.226 79.2228  11
  -3  -4 -12 1229.76 118.648  12
   3   5 -17 840.460 110.737  12
   3   5 -16 5187.60 258.870   7
   3   5 -16 5719.59 297.810   6
   3   5 -16 5331.48 248.196  12
  -3  -5  16 5414.55 279.042   9
  -3  -5  16 5243.04 267.476   3
   3   5 -15 3029.75 193.396   7
   3   5 -15 3566.19 229.898   6
   3   5 -15 3308.20 190.179  12
  -3  -5  15 3197.46 195.680   9
  -3  -5  15 3250.26 207.719   3
   3   5 -14 1332.16 129.543   7
   3   5 -14 1411.68 121.587  12
   3   5 -14 1217.16 132.254   6
  -3  -5  14 1251.56 121.484   9
  -3  -5  14 1318.17 130.847   3
   3   5 -13 7074.78 301.839   7
   3   5 -13 6858.88 264.952  12
  -3  -5  13 6931.60 251.496   2
   3   5 -13 7366.38 308.257   6
  -3  -5  13 7276.47 277.133   9
  -3  -5  13 7206.04 305.163   3
   3   5 -12 3180.71 185.067   7
   3   5 -12 3153.03 152.260  12
  -3  -5  12 2855.37 151.909   2
   3   5 -12 3604.70 188.993   6
  -3  -5  12 3322.53 162.390   9
   3   5 -12 3254.15 129.747   8
  -3  -5  12 2881.70 182.551   3
  -3  -5  11 782.090 83.8175   2
  -3  -5  11 747.867 95.1071   3
   3   5 -11 722.396 53.1794  13
  -3  -5  11 735.525 80.1111  14
   3   5 -11 694.620 65.0074  12
  -3  -5  11 720.831 64.7403  13
   3   5 -11 709.528 88.5903   6
   3   5 -11 675.267 59.4652   8
  -3  -5  11 570.669 66.7028   9
   3   5 -11 730.861 85.6868   7
  -3  -5  10 12.3107 44.6056   2
  -3  -5  10 89.4421 58.9221   3
  -3  -5  10 9.46023 41.9814  14
   3   5 -10 14.3201 27.3484  13
   3   5 -10 6.03539 45.3873   6
   3   5 -10 9.98110 33.2679  12
  -3  -5  10 13.6254 36.2279  11
  -3  -5  10 4.12354 32.3659   9
   3   5 -10 66.5276 43.8684   7
  -3  -5   9 292.329 62.8484   3
  -3  -5   9 232.193 60.6982   2
  -3  -5   9 241.636 42.8483  14
   3   5  -9 209.956 35.8089  13
   3   5  -9 336.517 59.9543   6
   3   5  -9 162.139 34.9436  12
   3   5  -9 301.954 46.7276  11
  -3  -5   9 286.264 43.1205   9
  -3  -5   9 251.242 47.3587  11
   3   5  -9 251.940 49.2495   7
  -3  -5   8 5135.85 219.440   3
  -3  -5   8 5321.20 236.235   4
  -3  -5   8 5502.67 237.260   2
  -3  -5   8 5816.95 191.024  14
   3   5  -8 5735.80 170.662  12
   3   5  -8 5617.33 177.261  13
   3   5  -8 6068.73 222.242   6
   3   5  -8 5807.07 196.381  11
  -3  -5   8 5805.47 200.538  11
  -3  -5   8 5538.59 186.946   9
  -3  -5   8 5333.62 184.192  10
   3   5  -8 5773.02 200.629   7
  -3  -5   7 18127.3 542.475   2
   3   5  -7 17604.2 465.931   7
   3   5  -7 17294.5 431.838  12
   3   5  -7 18287.7 455.209  13
   3   5  -7 18122.6 496.021   6
   3   5  -7 17581.6 470.238  11
  -3  -5   7 18058.5 476.023  11
  -3  -5   7 17372.5 476.208  10
  -3  -5   7 16721.9 528.287   4
  -3  -5   7 18021.2 493.041   3
   3   5  -6 4928.38 166.016   7
   3   5  -6 5444.83 171.557  13
   3   5  -6 5095.99 193.180   6
  -3  -5   6 5248.79 180.975  11
   3   5  -6 5206.91 180.479  11
   3   5  -6 5145.91 140.327  12
   3   5  -6 4730.64 158.739   9
  -3  -5   6 5086.14 193.404  10
  -3  -5   6 5239.18 229.945   4
  -3  -5   6 5358.53 185.017   3
   3   5  -5 18775.3 462.694   7
   3   5  -5 18774.5 477.118  13
   3   5  -5 19571.0 506.890   6
  -3  -5   5 18422.9 487.095  11
  -3  -5   5 17483.4 514.175  10
   3   5  -5 17713.3 462.480   9
  -3  -5   5 19110.7 557.826   4
  -3  -5   5 18749.1 475.570   3
  -3  -5   4 29163.9 678.724   3
  -3  -5   4 28735.7 755.168   4
  -3  -5   4 27622.7 668.196  14
   3   5  -4 27992.9 695.882  13
  -3  -5   4 28329.6 705.703   6
   3   5  -4 28427.7 719.429   6
  -3  -5   4 28654.8 704.150  11
   3   5  -4 27638.0 679.152   9
  -3  -5   4 27675.6 749.456  10
   3   5  -4 27876.5 669.292   7
  -3  -5   3 6265.43 221.664   4
  -3  -5   3 5441.07 160.296   3
  -3  -5   3 6083.41 165.910  14
  -3  -5   3 5551.57 139.641  12
   3   5  -3 6259.93 196.181  13
   3   5  -3 6432.92 210.263   6
  -3  -5   3 6158.55 199.131   6
  -3  -5   3 6447.41 199.084  11
   3   5  -3 6098.14 199.579  11
   3   5  -3 6120.34 179.829   9
  -3  -5   3 5900.96 241.918  10
   3   5  -3 5904.40 160.838   7
  -3  -5   2 1068.04 53.8425  14
  -3  -5   2 1099.48 36.4745  12
   3   5  -2 1168.55 74.6222  13
   3   5  -2 1221.57 79.9087   6
  -3  -5   2 1174.53 74.9970   6
  -3  -5   2 1089.22 69.6189  11
   3   5  -2 1242.83 76.5847  11
  -3  -5   2 1146.47 77.7664   4
  -3  -5   2 1028.19 39.9879   3
   3   5  -2 1233.74 46.3899   7
   3   5  -1 9123.74 278.529  13
   3   5  -1 9604.66 278.732  11
  -3  -5   1 8946.42 221.840  12
  -3  -5   1 8761.21 266.199  11
  -3  -5   1 9044.21 244.876  14
  -3  -5   1 8520.85 260.454   4
  -3  -5   1 9253.00 274.930   6
  -3  -5   0 6905.30 199.798   4
  -3  -5   0 6597.41 199.635  14
  -3  -5   0 7037.60 226.321   6
   3   5   0 7176.71 228.579  11
  -3  -5   0 7299.03 306.559  10
  -3  -5   0 6570.74 169.658   7
  -3  -5  -1 1554.86 62.9305   4
  -3  -5  -1 1793.83 126.528   2
  -3  -5  -1 1489.87 90.6313   6
   3   5   1 1585.45 74.8729  14
   3   5   1 1568.51 92.4239  11
  -3  -5  -1 1638.33 135.613  10
  -3  -5  -1 1480.50 51.3533   7
  -3  -5  -2 7443.94 284.780   2
   3   5   2 7746.41 249.089   6
  -3  -5  -2 7749.71 251.265   6
  -3  -5  -2 7284.28 237.748  14
   3   5   2 7437.14 223.906  14
   3   5   2 7440.59 250.389  11
  -3  -5  -2 8020.78 314.203  10
  -3  -5  -2 7455.96 191.254   7
  -3  -5  -3 37.8201 45.2518   2
  -3  -5  -3 111.322 44.7634   6
   3   5   3 70.2108 39.3920   6
  -3  -5  -3-17.2255 32.1169  14
   3   5   3 58.0697 31.2879  14
  -3  -5  -3 47.2510 49.4363  10
   3   5   3 70.1794 40.7349  11
  -3  -5  -3 75.1751 20.3974   7
   3   5   4 9763.31 296.246  14
  -3  -5  -4 9713.70 317.981  14
   3   5   4 9765.66 306.640   6
   3   5   4 10152.9 323.046  11
  -3  -5  -4 9997.47 363.753  10
  -3  -5  -4 9503.78 332.247   2
  -3  -5  -5 11267.7 367.585  14
   3   5   5 10689.6 336.811  14
  -3  -5  -5 10648.9 337.102  12
   3   5   5 11432.0 314.929   5
   3   5   5 11546.3 364.901  11
  -3  -5  -5 11350.1 394.603  10
  -3  -5  -5 11280.1 364.181   2
  -3  -5  -6 2094.08 127.409   2
  -3  -5  -6 2106.63 133.362  14
  -3  -5  -6 2302.12 124.976  12
   3   5   6 2360.70 102.227   5
   3   5   6 2067.77 138.151  11
  -3  -5  -6 1989.25 148.299  10
   3   5   6 1712.18 55.2550   3
  -3  -5  -7 1167.74 96.1683  12
  -3  -5  -7 1199.97 115.024  10
  -3  -5  -7 1108.48 107.427  14
   3   5   7 1358.51 119.792  11
  -3  -5  -8 3947.07 183.244  12
   3   5   8 3616.43 203.106  11
  -3  -5  -8 3764.13 194.403  14
  -3  -5  -8 3906.17 204.059  10
  -3  -5  -9 528.833 79.8086  12
  -3  -5  -9 461.538 81.5933  14
  -3  -5  -9 664.118 91.6142  10
   3   5   9 520.110 95.7869  11
   3   5  10 58.1736 76.1040  11
  -3  -5 -10 97.8720 63.9324  12
  -3  -5 -11 55.4877 66.1335  12
   3   6 -16 1664.91 155.157   7
   3   6 -16 1543.35 137.270  12
   3   6 -16 1877.79 178.660   6
   3   6 -15 3774.71 206.016  12
   3   6 -15 4392.76 239.924   7
  -3  -6  15 4068.98 231.457   3
   3   6 -15 4532.26 254.393   6
   3   6 -14 1101.93 104.593  12
   3   6 -14 1114.34 127.949   6
   3   6 -14 1034.89 129.396   7
  -3  -6  14 1155.13 128.383   3
   3   6 -13 2846.11 184.862   7
   3   6 -13 2848.85 151.468  12
  -3  -6  13 3050.03 160.436   2
   3   6 -13 3135.04 189.296   6
  -3  -6  13 2753.28 154.962   9
  -3  -6  13 2690.43 185.103   3
   3   6 -12 12806.1 431.933   7
   3   6 -12 13157.4 386.852  12
  -3  -6  12 12724.1 416.007   2
   3   6 -12 14203.4 448.519   6
  -3  -6  12 13297.5 397.695   9
  -3  -6  12 12222.8 445.441   3
  -3  -6  11 3382.28 200.559   3
  -3  -6  11 3299.21 182.152   2
   3   6 -11 3604.83 135.866  13
   3   6 -11 3811.13 151.082  12
   3   6 -11 4078.79 197.701   6
  -3  -6  11 3692.72 159.122   9
   3   6 -11 3484.25 179.921   7
   3   6 -10 10.5826 50.1664   7
   3   6 -10 2.85183 31.1376  13
   3   6 -10 25.0057 44.4255   6
   3   6 -10 81.0438 35.3058  12
  -3  -6  10 34.8387 37.7200   9
  -3  -6  10 98.7852 58.9026   2
  -3  -6  10-8.12897 59.4729   3
  -3  -6   9 1961.00 132.955   3
  -3  -6   9 2156.68 145.950   2
  -3  -6   9 1859.36 102.822  14
   3   6  -9 2113.94 95.9575  13
   3   6  -9 1981.90 89.4353  12
   3   6  -9 2161.89 128.491   6
   3   6  -9 2121.36 112.269  11
  -3  -6   9 1961.95 99.8746   9
  -3  -6   9 2005.11 99.6360  10
   3   6  -9 2034.93 114.229   7
  -3  -6   8 1500.21 124.806   2
   3   6  -8 1598.66 93.9439   7
   3   6  -8 1529.10 81.9348  13
   3   6  -8 1809.73 112.924   6
   3   6  -8 1466.68 92.4938  11
   3   6  -8 1560.79 70.5955  12
  -3  -6   8 1484.28 92.2610  10
  -3  -6   8 1542.97 107.365   3
   3   6  -7 1497.60 84.0904   7
   3   6  -7 1416.90 80.7841  13
   3   6  -7 1470.58 100.513   6
   3   6  -7 1667.32 96.1255  11
   3   6  -7 1486.50 63.3628  12
  -3  -6   7 1623.02 94.2591  11
  -3  -6   7 1484.77 97.0968  10
  -3  -6   7 1430.06 118.793   4
  -3  -6   7 1592.49 96.0477   3
   3   6  -6 5244.35 166.871   7
   3   6  -6 5073.41 174.137  13
   3   6  -6 5412.53 201.762   6
  -3  -6   6 4779.93 180.777  11
   3   6  -6 4758.96 154.828   9
  -3  -6   6 4458.73 198.817  10
  -3  -6   6 5233.88 236.329   4
  -3  -6   6 5118.57 177.595   3
  -3  -6   5 1431.16 123.670   4
  -3  -6   5 1496.89 77.0342   3
  -3  -6   5 1527.78 72.3633  14
   3   6  -5 1466.21 83.8472  13
   3   6  -5 1620.43 100.856   6
  -3  -6   5 1592.63 90.4809  11
   3   6  -5 1473.90 71.3039   9
  -3  -6   5 1537.03 112.609  10
   3   6  -5 1539.71 72.6701   7
  -3  -6   4 9838.27 267.407   3
  -3  -6   4 10749.7 354.361   4
  -3  -6   4 10526.7 273.899  14
  -3  -6   4 10191.3 246.415  12
   3   6  -4 10342.8 300.081  13
   3   6  -4 10685.5 320.250   6
   3   6  -4 10339.8 305.330  11
  -3  -6   4 10191.5 302.652  11
   3   6  -4 9676.68 273.684   9
  -3  -6   4 9787.29 350.381  10
   3   6  -4 9758.18 267.099   7
  -3  -6   3 19672.3 546.469   4
  -3  -6   3 19192.9 460.633   3
  -3  -6   3 19663.6 481.025  14
  -3  -6   3 18981.9 450.018  12
   3   6  -3 19558.8 513.444  13
   3   6  -3 20400.3 532.142   6
  -3  -6   3 19446.2 516.720   6
  -3  -6   3 19699.7 514.505  11
   3   6  -3 19734.5 519.474  11
   3   6  -3 18601.2 483.794   9
  -3  -6   3 19204.7 587.784  10
   3   6  -3 19935.2 471.235   7
  -3  -6   2 1426.03 92.5397   4
  -3  -6   2 1342.93 68.2075  14
  -3  -6   2 1457.02 49.8898  12
   3   6  -2 1600.65 95.0747  13
   3   6  -2 1552.19 96.1513   6
  -3  -6   2 1424.29 88.9816   6
  -3  -6   2 1281.37 82.6828  11
   3   6  -2 1615.30 93.8106  11
   3   6  -2 1332.98 71.7946   9
  -3  -6   2 1423.40 130.104  10
   3   6  -2 1428.29 57.9302   7
   3   6  -1 7386.05 249.707  11
  -3  -6   1 7588.54 196.918  12
   3   6  -1 7895.47 258.277   6
  -3  -6   1 7766.14 250.320   6
   3   6  -1 7661.61 254.614  13
  -3  -6   1 7610.92 239.579   4
  -3  -6   0 14092.5 400.512   6
   3   6   0 14405.3 404.935  11
  -3  -6   0 13766.2 345.460  12
  -3  -6   0 13538.9 337.714   7
  -3  -6   0 15273.7 509.538  10
  -3  -6   0 14242.5 370.087   4
  -3  -6  -1 2996.78 103.528   4
   3   6   1 2980.01 140.596  11
  -3  -6  -1 2989.98 191.015  10
  -3  -6  -1 2900.54 90.5684   7
  -3  -6  -1 3190.53 126.425  14
  -3  -6  -2 100.699 36.0279  14
   3   6   2 193.598 38.9472  14
  -3  -6  -2 145.282 62.6378  10
   3   6   2 133.991 45.4812  11
  -3  -6  -2 164.893 58.9139   2
  -3  -6  -3-32.2126 42.3823  14
   3   6   3 24.7855 34.6799  14
  -3  -6  -3-26.2916 56.3903  10
   3   6   3 35.7583 40.7442  11
  -3  -6  -3 28.4375 51.5170   2
   3   6   3-14.0307 42.0359   6
  -3  -6  -4 661.326 79.7603  14
   3   6   4 518.553 59.1067  14
   3   6   4 526.622 68.2715   6
  -3  -6  -4 640.963 93.3573  10
   3   6   4 572.793 74.5845  11
  -3  -6  -4 543.438 79.1481   2
  -3  -6  -5 6808.63 268.187  14
   3   6   5 7281.99 219.970   5
   3   6   5 7025.75 271.175  11
  -3  -6  -5 7024.86 300.509  10
  -3  -6  -5 6805.66 273.294   2
  -3  -6  -6 4337.92 208.619  14
   3   6   6 4585.18 211.842  11
  -3  -6  -6 4107.16 183.688  12
  -3  -6  -6 4350.02 224.618  10
  -3  -6  -6 4381.23 202.269   2
  -3  -6  -7 115.390 71.7776  10
   3   6   7 113.994 67.4991  11
  -3  -6  -7 140.453 67.3724  14
  -3  -6  -7 110.408 57.1761  12
  -3  -6  -8 1230.74 105.945  12
  -3  -6  -8 1280.54 127.588  10
  -3  -6  -8 1277.51 115.575  14
   3   6   8 1137.99 128.930  11
  -3  -6  -9 2399.20 146.542  12
  -3  -6  -9 2377.81 167.619  10
  -3  -6  -9 2120.75 151.973  14
   3   6   9 2110.87 168.143  11
  -3  -6 -10 759.531 106.840  14
   3   7 -16 653.834 127.999   6
   3   7 -15 1364.02 116.031  12
   3   7 -15 1347.07 152.248   7
  -3  -7  15 1508.24 143.867   3
   3   7 -15 1609.70 152.535   6
   3   7 -14 1974.26 126.512  12
   3   7 -14 1883.06 157.621   7
  -3  -7  14 1637.97 147.525   3
   3   7 -13 493.149 97.1665   6
   3   7 -13 526.150 71.4483  12
  -3  -7  13 495.612 84.3249   2
  -3  -7  13 579.251 101.556   3
   3   7 -13 446.502 87.4062   7
   3   7 -12 4229.95 168.526  12
   3   7 -12 3974.13 200.646   7
   3   7 -12 4017.28 208.391   6
  -3  -7  12 3630.53 211.321   3
  -3  -7  12 4059.65 207.118   2
  -3  -7  11 13089.6 451.336   2
   3   7 -11 13520.5 425.005   7
   3   7 -11 13459.6 380.520  12
   3   7 -11 14432.2 449.212   6
  -3  -7  11 13508.4 389.114   9
  -3  -7  11 13773.4 470.647   3
  -3  -7  10 2607.52 169.178   3
  -3  -7  10 2733.81 173.875   2
   3   7 -10 2685.70 118.703  13
   3   7 -10 2772.76 157.567   6
   3   7 -10 2763.36 116.121  12
   3   7 -10 2619.76 135.961  11
  -3  -7  10 2378.07 113.007  10
   3   7 -10 2590.04 141.099   7
  -3  -7   9 2975.10 185.581   2
   3   7  -9 3073.47 143.808   7
   3   7  -9 3019.48 127.912  13
   3   7  -9 3049.87 161.223   6
   3   7  -9 3197.29 146.676  11
   3   7  -9 3045.42 114.836  12
  -3  -7   9 2623.75 133.159  10
  -3  -7   9 2750.75 160.946   3
   3   7  -8 6983.45 236.789   7
   3   7  -8 7365.52 231.897  13
   3   7  -8 7527.86 270.353   6
   3   7  -8 7320.39 248.456  11
   3   7  -8 6977.33 204.560  12
  -3  -7   8 7214.37 254.016  10
  -3  -7   8 7535.00 263.118   3
   3   7  -7 4094.65 155.458  13
   3   7  -7 4103.01 151.338   7
   3   7  -7 3991.98 180.903   6
  -3  -7   7 3878.56 178.089  10
  -3  -7   7 3834.19 164.363   3
  -3  -7   6 664.638 93.7221   4
  -3  -7   6 722.808 58.4052   3
  -3  -7   6 625.337 50.7975  14
   3   7  -6 618.528 60.1304  13
   3   7  -6 622.102 70.7729   6
   3   7  -6 616.908 45.0699   9
  -3  -7   6 689.629 80.2707  10
   3   7  -6 630.057 55.1225   7
   3   7  -5 603.891 49.7133   7
   3   7  -5 634.839 61.2827  13
   3   7  -5 546.012 67.2148   6
   3   7  -5 670.737 65.2861  11
   3   7  -5 706.580 47.9940   9
  -3  -7   5 693.885 87.1717  10
  -3  -7   5 609.224 49.1084   3
  -3  -7   5 764.107 99.0913   4
  -3  -7   4 91.0616 22.7775   3
   3   7  -4 109.078 28.4989   7
   3   7  -4 113.529 39.5961  13
   3   7  -4 158.593 49.3508   6
  -3  -7   4 69.4623 17.3840  12
  -3  -7   4 174.928 54.8215  10
   3   7  -4 124.672 28.5725   9
   3   7  -4 124.037 38.7445  11
  -3  -7   4 56.4455 50.1830   4
   3   7  -3 9572.94 256.381   7
  -3  -7   3 9514.23 238.130  12
   3   7  -3 9948.54 301.465  13
   3   7  -3 10181.1 317.397   6
   3   7  -3 10313.4 308.031  11
  -3  -7   3 9428.38 370.012  10
   3   7  -3 9685.51 265.807   9
  -3  -7   3 9984.98 329.969   4
  -3  -7   3 9408.36 233.783   3
   3   7  -2 18635.8 455.296   7
  -3  -7   2 18313.2 444.495  12
   3   7  -2 20292.4 519.925  11
   3   7  -2 18289.4 473.729   9
  -3  -7   2 19408.1 623.612  10
   3   7  -2 18776.5 523.832   6
  -3  -7   2 19031.5 520.659   4
   3   7  -1 155.686 47.3503   6
  -3  -7   1 194.155 37.5053  14
   3   7  -1 221.639 49.9511  11
  -3  -7   1 211.134 44.7024   4
   3   7   0 5448.38 202.259  11
   3   7   0 4887.80 197.318   6
  -3  -7   0 4630.33 171.166  14
  -3  -7   0 4866.46 268.374  10
   3   7   1 10631.0 338.262  11
  -3  -7  -1 10589.5 314.653  14
  -3  -7  -1 10799.7 423.807  10
   3   7   2 3184.38 157.736  11
  -3  -7  -2 3369.39 208.578  10
  -3  -7  -2 3336.13 147.735  14
  -3  -7  -3 164.508 54.3980  14
   3   7   3 221.175 45.6791  14
   3   7   3 298.561 61.7948   6
   3   7   3 220.103 54.0164  11
  -3  -7  -3 271.038 77.3569  10
  -3  -7  -3 135.253 63.1353   2
  -3  -7  -4 1142.62 100.086  14
   3   7   4 1129.29 103.890  11
  -3  -7  -4 1313.37 129.984  10
  -3  -7  -4 1100.16 111.143   2
   3   7   4 1138.58 96.0341   6
  -3  -7  -5 563.923 85.5061  14
  -3  -7  -5 575.833 97.1238  10
   3   7   5 755.695 91.6999  11
  -3  -7  -5 631.789 88.4024   2
  -3  -7  -6 2855.95 149.450  12
   3   7   6 2770.55 168.789  11
  -3  -7  -6 2805.54 172.991  14
  -3  -7  -6 2912.40 190.401  10
   3   7   7 1214.06 121.333  11
  -3  -7  -7 1188.27 127.663  10
  -3  -7  -7 1093.06 115.335  14
  -3  -7  -8 80.9172 75.6231  10
   3   7   8 149.442 79.5345  11
  -3  -7  -8 77.5517 70.1733  14
  -3  -7  -9 1694.24 152.874  10
  -3  -7  -9 1780.89 145.697  14
   3   8 -15 1160.84 138.605   6
   3   8 -15 936.571 130.491   7
  -3  -8  15 1157.06 130.838   3
  -3  -8  14 387.901 93.3392   3
   3   8 -14 470.863 98.2507   6
   3   8 -14 474.373 93.9496   7
   3   8 -13 122.102 50.6610  12
  -3  -8  13 90.5651 66.9173   3
  -3  -8  13 77.6062 66.2139   2
   3   8 -13 85.5027 70.3676   6
   3   8 -13 131.238 68.9903   7
   3   8 -12 53.0146 44.1456  12
  -3  -8  12 80.6602 63.0486   3
  -3  -8  12 16.4404 68.6218   2
   3   8 -12 23.7726 65.1853   6
   3   8 -12 13.5791 62.1644   7
   3   8 -11 3421.19 170.602   7
   3   8 -11 3598.75 192.772   6
  -3  -8  11 3240.40 198.835   2
   3   8 -11 3423.98 139.149  12
  -3  -8  11 2976.54 130.732  10
  -3  -8  11 3230.93 200.758   3
   3   8 -10 12369.4 391.381   7
   3   8 -10 13288.1 427.987   6
  -3  -8  10 12783.0 455.603   2
   3   8 -10 12773.4 351.621  12
   3   8 -10 13854.1 401.992  11
  -3  -8  10 12137.6 368.806  10
  -3  -8  10 12852.6 432.467   3
   3   8  -9 796.244 92.2516   6
   3   8  -9 641.149 73.7128   7
   3   8  -9 715.552 77.6072  11
   3   8  -9 691.136 55.1780  12
  -3  -8   9 654.778 75.8465  10
  -3  -8   9 761.053 89.4188   3
   3   8  -8 9744.97 320.289   6
   3   8  -8 8760.09 273.221   7
   3   8  -8 7508.51 277.677  11
  -3  -8   8 8221.34 296.544  10
  -3  -8   8 8848.15 294.313   3
  -3  -8   7 11723.6 361.458   3
   3   8  -7 12986.1 401.148   6
  -3  -8   7 12665.2 351.398  14
  -3  -8   7 12153.3 403.502  10
   3   8  -7 12808.4 354.909   7
  -3  -8   6 4188.67 150.963   3
  -3  -8   6 4262.18 151.525  14
   3   8  -6 4301.22 190.417   6
   3   8  -6 4058.88 174.093  11
   3   8  -6 3713.58 129.157   9
  -3  -8   6 4145.76 203.703  10
   3   8  -6 4232.07 151.732   7
  -3  -8   5 138.381 36.6144  14
   3   8  -5 55.7544 45.9297   6
  -3  -8   5 95.9911 29.0995   3
  -3  -8   5 73.1364 58.9400  10
   3   8  -5 93.4387 26.3982   9
   3   8  -5 129.849 46.6738  11
   3   8  -5 147.950 36.4053   7
  -3  -8   4 2187.85 143.073   4
   3   8  -4 1992.70 122.781   6
  -3  -8   4 1722.34 89.3399  14
   3   8  -4 1903.67 112.958  11
   3   8  -4 1825.17 79.6888   9
  -3  -8   4 1737.47 148.044  10
   3   8  -4 1981.86 86.2390   7
  -3  -8   3 993.747 93.5178   4
  -3  -8   3 1218.61 73.1702  14
   3   8  -3 1172.89 90.8305  11
   3   8  -3 1283.05 96.9609   6
   3   8  -3 987.323 60.0981   9
  -3  -8   3 1260.72 135.482  10
   3   8  -3 1021.60 59.0166   7
  -3  -8   2 3893.20 151.817  14
   3   8  -2 4645.02 186.804  11
   3   8  -2 4337.83 186.883   6
   3   8  -2 4137.02 143.209   9
  -3  -8   2 4346.67 259.015  10
   3   8  -2 4144.22 131.983   7
   3   8  -1 8343.57 283.810   6
  -3  -8   1 7466.69 242.577  14
   3   8  -1 7888.39 272.819  11
   3   8   0-5.46160 50.6061   6
  -3  -8   0 36.0395 75.3932  10
   3   8   0 128.328 50.1240  11
  -3  -8   0 19.1002 39.1559  14
  -3  -8  -1 9359.17 402.140  10
  -3  -8  -1 9218.96 298.401  14
  -3  -8  -2 8151.35 362.345  10
  -3  -8  -2 8245.46 276.768  14
   3   8   2 8116.71 292.187  11
  -3  -8  -3 926.908 115.557   2
  -3  -8  -3 877.814 118.141  10
  -3  -8  -3 711.533 82.0080  14
   3   8   3 662.834 86.0105  11
  -3  -8  -4 1732.85 144.289   2
  -3  -8  -4 1498.98 150.119  10
  -3  -8  -4 1706.87 123.107  14
   3   8   4 1666.35 128.638  11
  -3  -8  -5 3735.22 207.420   2
   3   8   5 3713.55 194.811  11
  -3  -8  -5 3705.65 194.597  14
  -3  -8  -5 4015.49 235.947  10
   3   8   6 1393.87 129.277  11
  -3  -8  -6 1424.08 146.281  10
  -3  -8  -6 1387.00 131.440  14
   3   8   7 349.220 90.9257  11
  -3  -8  -7 355.901 95.0972  10
  -3  -8  -8 29.2892 86.0916  10
   3   9 -14 547.009 102.554   7
   3   9 -14 617.692 112.619   6
  -3  -9  14 694.756 112.873   3
   3   9 -13 30.2350 65.3411   7
   3   9 -13-17.6883 76.9672   6
  -3  -9  13-35.0679 76.2958   2
  -3  -9  13-27.7910 70.8953   3
   3   9 -12 140.684 64.6543   7
   3   9 -12 257.172 82.1698   6
  -3  -9  12 120.389 75.0986   3
  -3  -9  12 92.0590 72.9157   2
   3   9 -11 1207.87 120.271   6
  -3  -9  11 975.683 122.345   2
   3   9 -11 1000.37 97.2962   7
  -3  -9  11 1026.61 118.950   3
   3   9 -10 1975.92 143.546   6
   3   9 -10 1994.87 123.796   7
   3   9 -10 2087.87 131.507  11
  -3  -9  10 2079.60 121.423  10
  -3  -9  10 2016.42 140.641   3
   3   9  -9 4167.20 184.655  11
  -3  -9   9 3593.82 177.689  10
   3   9  -9 3886.47 199.481   6
   3   9  -9 3697.55 166.467   7
   3   9  -8 268.313 68.8598   6
  -3  -9   8 359.338 74.9813  10
   3   9  -8 371.783 59.8085   7
  -3  -9   8 381.765 56.0644  14
   3   9  -7 10076.8 339.042   6
  -3  -9   7 9303.23 285.604  14
  -3  -9   7 9149.30 343.523  10
   3   9  -7 9139.92 285.111   7
   3   9  -6 12206.7 392.080   6
  -3  -9   6 11441.7 336.875  14
   3   9  -6 11590.4 368.283  11
  -3  -9   6 11716.9 418.737  10
   3   9  -6 12154.2 337.947   7
   3   9  -5 820.667 90.9702   6
  -3  -9   5 840.625 68.5300  14
   3   9  -5 830.014 81.6569  11
  -3  -9   5 740.000 108.289  10
   3   9  -5 762.045 61.0805   7
   3   9  -4 1326.99 107.623   6
  -3  -9   4 1168.06 79.2683  14
   3   9  -4 1183.68 95.4804  11
  -3  -9   4 1183.46 132.591  10
   3   9  -4 1240.11 73.0099   7
   3   9  -3 5337.37 224.066   6
  -3  -9   3 5680.85 192.851  14
   3   9  -3 5586.34 218.018  11
  -3  -9   3 5109.45 286.506  10
   3   9  -3 5166.17 169.156   7
   3   9  -2 2403.70 136.822  11
  -3  -9   2 2372.08 117.646  14
   3   9  -2 2473.03 144.083   6
  -3  -9   2 2292.42 195.670  10
  -3  -9   1 290.025 53.4916  14
   3   9  -1 212.657 59.9667  11
   3   9  -1 178.933 57.7209   6
   3   9   0 978.691 92.5790  11
   3   9   0 872.794 93.3235   6
  -3  -9   0 845.573 77.3434  14
  -3  -9  -1 395.988 62.5712  14
  -3  -9  -1 303.685 97.2887  10
   3   9   1 466.916 75.3692  11
   3   9   1 371.706 72.2121   6
  -3  -9  -2 6127.21 317.612  10
  -3  -9  -2 6330.74 240.277  14
   3   9   2 6434.93 257.510  11
  -3  -9  -3 2563.32 149.329  14
   3   9   3 2618.25 157.933  11
  -3  -9  -3 2349.33 181.981   2
  -3  -9  -3 2963.75 210.714  10
  -3  -9  -4-46.1156 74.7229   2
  -3  -9  -4-33.2961 79.6483  10
   3   9   4 108.799 68.7623  11
  -3  -9  -5 2310.15 188.126  10
   3   9   5 2330.82 161.150  11
  -3  -9  -6 2669.92 200.930  10
   3   9   6 3056.98 191.187  11
   3  10 -13 908.132 107.306   7
  -3 -10  13 804.913 124.800   2
   3  10 -13 882.171 120.562   6
   3  10 -12 603.753 90.6766   7
  -3 -10  12 377.391 101.087   2
   3  10 -12 546.048 106.587   6
   3  10 -11 1249.92 110.789   7
  -3 -10  11 1324.73 143.947   2
   3  10 -11 1485.46 137.785   6
   3  10 -10 403.653 75.1977  11
   3  10 -10 452.640 74.7235   7
   3  10 -10 305.921 80.8274   6
  -3 -10  10 338.550 70.4185  10
   3  10  -9 471.872 67.5287   7
   3  10  -9 479.653 88.6511   6
  -3 -10   9 315.750 73.9127  10
   3  10  -8 800.178 78.9643   7
  -3 -10   8 747.116 96.8789  10
   3  10  -7 114.297 45.7019   7
  -3 -10   7 8.27740 70.5965  10
   3  10  -7 29.3482 49.0200  11
   3  10  -7 119.146 64.9503   6
   3  10  -6 6983.33 263.005  11
   3  10  -6 6917.85 227.445   7
   3  10  -6 7552.93 285.569   6
   3  10  -5 8380.23 296.158  11
   3  10  -5 8447.42 253.607   7
  -3 -10   5 7762.02 350.357  10
   3  10  -5 8265.86 309.926   6
  -3 -10   4-23.0614 90.4979  10
   3  10  -4 17.8316 47.0315  11
   3  10  -4 59.0136 58.5658   6
   3  10  -4-2.87634 39.9469   7
   3  10  -3 5922.89 236.797  11
   3  10  -3 5549.08 181.616   7
   3  10  -3 6065.43 248.708   6
  -3 -10   3 6068.00 324.774  10
   3  10  -2 5221.80 223.936  11
   3  10  -2 5560.17 235.476   6
  -3 -10   2 5379.61 317.059  10
   3  10  -1 2154.79 135.223  11
   3  10  -1 1940.44 135.594   6
  -3 -10   1 1840.89 189.621  10
   3  10   0 26.4337 58.2732   6
   3  10   0 6.49388 59.8094  11
   3  10   1 193.930 68.9730   6
  -3 -10  -1 193.239 89.7771  10
   3  10   1 149.261 70.6347  11
  -3 -10  -2 657.718 122.877   2
  -3 -10  -2 521.939 115.209  10
   3  10   2 620.260 93.8209  11
   3  10   2 562.598 87.6586   6
  -3 -10  -3 3572.51 236.512  10
  -3 -10  -3 3124.24 215.956   2
   3  10   3 3455.07 195.679  11
   3  10   4 1577.65 135.951  11
   3  10   5 159.599 77.9045  11
  -3 -11  12 44.6694 94.6289   2
   3  11 -12 250.464 80.5708   7
   3  11 -11 2568.03 177.059   6
  -3 -11  11 2467.56 201.909   2
   3  11 -11 2648.52 155.185   7
   3  11 -10 3099.11 191.248   6
   3  11 -10 3137.43 160.197   7
   3  11  -9 999.346 88.8199   7
  -3 -11   9 686.025 96.1644  10
   3  11  -9 1021.32 118.807   6
   3  11  -8-12.9909 53.4287  11
   3  11  -8 45.5288 46.2080   7
   3  11  -8 62.1171 71.5128   6
  -3 -11   8-16.5392 64.9046  10
   3  11  -7 198.380 52.8989   7
   3  11  -7 378.000 80.9679   6
  -3 -11   7 173.511 77.0009  10
   3  11  -7 367.314 74.0644  11
   3  11  -6 631.260 92.7239   6
  -3 -11   6 484.902 101.818  10
   3  11  -6 583.165 81.9569  11
   3  11  -5 2129.77 138.968  11
   3  11  -5 2301.57 150.035   6
  -3 -11   5 2109.03 181.574  10
   3  11  -4 3449.38 176.158  11
   3  11  -4 3139.20 180.331   6
  -3 -11   4 2894.29 224.543  10
   3  11  -3 260.994 74.1812   6
  -3 -11   3 140.240 98.7802  10
   3  11  -3 245.488 75.6044  11
   3  11  -2 5416.84 235.952  11
   3  11  -2 5180.75 235.696   6
  -3 -11   2 5150.65 327.894  10
   3  11  -1 5009.69 225.493  11
   3  11  -1 4865.53 224.671   6
   3  11   0 657.916 95.9310   6
   3  11   0 656.896 95.3104  11
   3  11   1 1075.01 113.452  11
  -3 -11  -1 841.653 140.916  10
   3  11   1 1029.85 110.671   6
   3  11   2 2205.85 158.039  11
  -3 -11  -2 2560.65 203.985   2
  -3 -11  -3 504.309 123.369   2
  -3 -12   8 197.568 85.8097  10
   3  12  -8 330.720 91.2005   6
  -3 -12   7 1023.59 129.143  10
   3  12  -7 1367.24 126.773   6
  -3 -12   6 1175.17 140.727  10
   3  12  -6 1155.23 124.342   6
  -3 -12   5 451.255 118.953  10
   3  12  -5 703.261 96.5430  11
   3  12  -5 595.179 97.6350   6
  -3 -12   4 543.094 121.094  10
   3  12  -4 530.624 91.2819  11
   3  12  -4 535.596 93.9903   6
  -3 -12   3 678.727 141.637  10
   3  12  -3 833.514 104.848  11
  -4  15  -2 302.765 100.890   8
  -4  15  -3 4234.22 248.306   8
  -4  15  -4 3455.40 212.578   8
   4 -14  -2 1586.16 140.201  14
  -4  14   2 1527.35 175.931   8
  -4  14   2 1509.18 178.385   1
   4 -14  -1 2219.34 159.021  14
  -4  14   1 2113.27 204.403   1
  -4  14   1 2376.32 214.792   8
   4 -14   0 1295.29 122.760  14
   4 -14   0 1352.53 127.803  13
  -4  14   0 980.320 156.852   1
  -4  14   0 1068.90 110.446   7
  -4  14   0 1253.28 164.080   8
   4 -14   1 136.843 70.5012  14
  -4  14  -1 107.639 64.2084   7
   4 -14   1 137.984 74.3514  13
  -4  14  -1 130.233 99.5542   1
  -4  14  -1 229.415 104.422   8
   4 -14   2 30.5994 61.0274  14
  -4  14  -2 34.1815 62.9735   7
  -4  14  -2-16.6799 97.7423   1
  -4  14  -2 98.0347 79.6970   8
   4 -14   2 111.087 69.0636  13
   4 -14   3 1024.19 112.254  14
  -4  14  -3 948.685 126.586   8
  -4  14  -3 1025.56 110.190   7
   4 -14   3 998.432 119.109  13
   4 -14   4 4043.81 212.957  14
  -4  14  -4 4251.02 289.748   1
  -4  14  -4 4218.08 210.083   7
  -4  14  -4 4271.14 228.693   8
   4 -14   5 2511.80 170.316  14
  -4  14  -5 2880.93 229.301   1
  -4  14  -5 2477.48 162.328   8
  -4  14  -5 2607.01 166.377   7
   4 -14   5 2405.47 176.261  13
  -4  14  -6 382.468 122.512   1
  -4  13   6 60.7164 98.6000   1
   4 -13  -5 496.205 93.4441  14
  -4  13   5 477.893 111.947   8
  -4  13   5 425.149 123.168   1
   4 -13  -4 2921.66 182.977  14
  -4  13   4 3449.48 229.038   1
   4 -13  -3 2925.26 176.084  14
  -4  13   3 2819.68 217.375   8
  -4  13   3 2839.53 216.239   1
   4 -13  -2 205.060 72.9896  14
  -4  13   2 125.337 94.3565   1
  -4  13   2 268.225 100.343   8
   4 -13  -1 6526.70 271.302  14
  -4  13   1 6776.54 350.313   1
  -4  13   1 6618.88 355.478   8
   4 -13  -1 6934.23 272.659  13
   4 -13   0 3968.34 203.105  14
   4 -13   0 3956.06 202.096  13
  -4  13   0 4248.38 280.153   1
  -4  13   0 4382.45 267.308   8
  -4  13   0 4090.61 194.563   7
   4 -13   1 70.2503 60.7782  14
  -4  13  -1 138.465 63.6105   7
  -4  13  -1 127.722 96.2919   1
  -4  13  -1 224.548 95.0987   8
   4 -13   1 70.7459 64.4246  13
   4 -13   2 802.104 97.2980  14
  -4  13  -2 830.273 158.430   1
  -4  13  -2 829.233 121.376   8
  -4  13  -2 822.265 93.6060   7
   4 -13   2 727.435 98.7450  13
   4 -13   3 1074.28 112.129  14
  -4  13  -3 1151.42 106.869   7
  -4  13  -3 956.475 115.047   8
   4 -13   3 1032.03 112.760  13
   4 -13   4 2164.44 145.582  14
  -4  13  -4 2166.01 200.611   1
  -4  13  -4 1926.23 147.631   8
   4 -13   5 3102.45 179.916  14
   4 -13   5 2852.00 181.814  13
  -4  13  -5 3008.84 169.358   8
  -4  13  -5 3222.73 231.569   1
   4 -13   6 800.008 108.805  13
  -4  13  -6 616.617 119.946   1
  -4  13  -6 867.882 91.2901   8
  -4  13  -7 1496.77 162.628   1
  -4  13  -7 1438.92 131.088  12
   4 -13   7 1574.43 143.587  13
  -4  13  -8 6653.17 283.310  12
  -4  13  -8 6656.77 316.035   1
  -4  13  -8 6125.67 281.733   7
   4 -13   8 6594.69 306.461  13
  -4  13  -9 2877.61 202.356   1
  -4  13 -10-9.45674 84.9973   1
  -4  12   7 515.365 106.862   8
  -4  12   7 468.716 101.908   1
   4 -12  -6 46.9910 63.4508  14
  -4  12   6 10.4484 76.4375   8
  -4  12   6-56.3928 85.5257   1
   4 -12  -5 927.518 104.966  14
  -4  12   5 879.354 122.346   8
  -4  12   5 1066.12 132.197   1
  -4  12   4 1973.85 169.490   1
   4 -12  -4 1848.78 137.273  14
  -4  12   3 2511.65 196.768   1
   4 -12  -3 2673.90 159.795  14
   4 -12  -2 571.263 84.5271  14
  -4  12   2 862.510 128.430   1
  -4  12   2 775.340 128.434   8
   4 -12  -2 893.950 91.3943  13
   4 -12  -1 1518.54 119.045  14
  -4  12   1 1855.62 177.760   1
  -4  12   1 1461.11 164.583   8
  -4  12   1 1494.94 112.002   7
   4 -12  -1 1465.03 114.174  13
   4 -12   0 8879.58 324.082  14
  -4  12   0 9336.30 431.717   1
  -4  12   0 8973.00 314.669   7
  -4  12   0 9705.56 402.684   8
   4 -12   0 9210.79 324.105  13
   4 -12   1 5459.45 233.731  14
  -4  12  -1 5201.80 327.775   1
  -4  12  -1 5534.36 276.925   8
   4 -12   1 5556.28 234.826  13
   4 -12   2-38.5979 55.6124  14
  -4  12  -2-17.6559 62.1006   8
   4 -12   2-19.9300 50.8452  13
   4 -12   3 4450.72 209.022  14
  -4  12  -3 5035.46 235.243   8
  -4  12  -3 4433.37 283.177   1
   4 -12   4 5767.56 246.654  14
  -4  12  -4 5895.14 313.005   1
  -4  12  -4 5841.47 251.201   8
   4 -12   5 1031.13 113.050  13
  -4  12  -5 957.151 99.4697   7
  -4  12  -5 1106.27 97.8933   8
  -4  12  -5 938.418 132.889   1
   4 -12   6 335.361 80.3765  13
  -4  12  -6 352.794 73.3989   7
  -4  12  -6 299.942 73.6591  12
  -4  12  -6 258.041 59.9359   8
  -4  12  -6 199.716 87.3445   1
  -4  12  -7 20.8964 64.1551  12
  -4  12  -7 87.1246 61.9111   7
   4 -12   7 8.71855 67.2991  13
  -4  12  -7-9.97173 82.0237   1
  -4  12  -8 2246.11 152.897  12
  -4  12  -8 2702.36 168.777   7
   4 -12   8 2416.49 174.538  13
  -4  12  -8 2168.06 174.491   1
  -4  12  -9 6240.44 275.105  12
  -4  12  -9 6435.60 280.177   7
  -4  12  -9 6194.41 288.985   1
   4 -12   9 6000.98 296.852  13
  -4  12 -10 1674.63 150.939   1
  -4  11   9 32.7439 60.3221   9
  -4  11   9 65.5858 80.9986   8
  -4  11   8 3512.14 170.502   9
  -4  11   8 3634.88 217.843   8
   4 -11  -8 3228.08 197.931  14
  -4  11   7 3389.92 196.975   1
  -4  11   7 2904.40 147.654   9
  -4  11   7 3654.37 215.519   8
   4 -11  -7 3188.34 184.381  14
  -4  11   6-60.1714 67.4654   1
  -4  11   6 4.18208 45.6526   9
  -4  11   6 96.4611 76.3256   8
   4 -11  -6 64.7225 64.6372  14
  -4  11   5 2524.00 176.754   1
  -4  11   5 2113.91 108.102   9
  -4  11   5 2221.79 174.323   8
   4 -11  -5 2334.73 148.908  14
  -4  11   4 3370.73 210.377   1
   4 -11  -4 3287.11 173.649  14
  -4  11   4 3046.85 124.225   9
  -4  11   4 3414.64 216.671   8
   4 -11  -3 1842.91 125.847  14
  -4  11   3 1809.14 156.480   1
   4 -11  -3 1703.82 117.514  13
  -4  11   2 457.573 101.797   1
   4 -11  -2 385.754 66.3559  13
   4 -11  -2 329.004 65.9931  14
   4 -11  -2 283.312 40.1465  11
  -4  11   2 393.682 95.5296   8
  -4  11   1 201.789 78.3946   1
   4 -11  -1 297.466 62.8022  14
   4 -11  -1 269.146 63.3949  13
   4 -11  -1 205.863 43.7154   6
   4 -11  -1 245.030 40.2174  11
  -4  11   1 180.016 78.5077   8
   4 -11   0 3334.76 173.388  14
   4 -11   0 3826.27 178.020  13
   4 -11   0 3618.29 143.145   6
   4 -11   0 3980.47 146.112  11
  -4  11   0 3621.33 249.410   1
  -4  11   0 3958.84 228.229   8
   4 -11   1 15758.9 459.638  14
   4 -11   1 15776.9 459.992  13
   4 -11   1 14367.5 399.883   6
   4 -11   1 14942.7 411.872  11
  -4  11  -1 15494.2 587.176   1
  -4  11  -1 15117.5 508.479   8
   4 -11   2 5216.45 170.760   6
   4 -11   2 5344.20 224.759  13
  -4  11  -2 5875.69 253.690   8
   4 -11   2 5149.65 220.781  14
  -4  11  -3 2870.76 212.993   1
   4 -11   3 3149.85 162.384  14
  -4  11  -3 2723.73 148.118   7
  -4  11  -3 3000.48 169.608   8
  -4  11  -4 10273.0 343.553  12
  -4  11  -4 10977.7 349.193   7
  -4  11  -4 10175.6 349.550   8
  -4  11  -4 10387.5 422.101   1
  -4  11  -5 4589.52 200.791  12
  -4  11  -5 4211.66 187.325   8
  -4  11  -5 4210.57 195.258   7
   4 -11   5 4498.33 217.045  13
  -4  11  -5 4408.81 245.654   1
  -4  11  -6 179.469 60.7671  12
  -4  11  -6 282.480 66.8730   7
  -4  11  -6 132.815 49.5282   8
   4 -11   6 209.780 70.8326  13
  -4  11  -6 226.519 85.9935   1
  -4  11  -7 224.062 66.6844  12
  -4  11  -7 203.728 65.9423   7
  -4  11  -7 149.844 46.4467   8
   4 -11   7 208.760 68.8124  13
  -4  11  -7 187.917 78.5032   1
  -4  11  -8 1284.17 116.074  12
  -4  11  -8 1175.26 113.503   7
   4 -11   8 1363.09 132.484  13
  -4  11  -8 1135.27 125.011   1
  -4  11  -9 2675.55 169.260  12
  -4  11  -9 2360.32 162.775   7
   4 -11   9 2786.72 191.526  13
  -4  11  -9 2551.54 170.592   1
  -4  11 -10 3140.53 193.598  12
   4 -11  10 3360.16 221.318  13
  -4  11 -10 3112.60 187.028   1
  -4  11 -10 2981.70 187.996   7
   4 -11  11 70.0576 94.6102  13
  -4  10  11 1312.73 136.433   8
  -4  10  11 1174.39 131.022   9
  -4  10  10 695.865 103.507   8
  -4  10  10 596.617 90.2611   9
  -4  10   9 34.4348 72.8966   8
  -4  10   9 33.3535 55.2819   9
  -4  10   8 1124.08 121.669   8
  -4  10   8 849.064 101.995   1
  -4  10   8 946.822 92.0559   9
  -4  10   7 6894.66 297.140   8
  -4  10   7 6835.71 283.938   1
  -4  10   7 6389.29 239.664   9
  -4  10   6 4683.62 240.056   8
  -4  10   6 4833.38 233.335   1
  -4  10   6 4406.98 178.153   9
  -4  10   5 1282.14 126.873   8
  -4  10   5 938.042 75.6239   9
  -4  10   5 1193.24 117.989   1
  -4  10   4 9838.10 371.998   1
  -4  10   4 9737.75 380.426   8
   4 -10  -4 9412.98 248.591  11
  -4  10   4 9010.54 273.039   9
   4 -10  -4 9644.19 295.610   3
   4 -10  -3 5106.17 195.231  13
   4 -10  -3 4710.53 182.414   6
   4 -10  -3 4536.10 147.449  11
  -4  10   3 4799.81 249.280   1
   4 -10  -3 5076.57 182.119   3
  -4  10   2 1410.95 147.790   8
   4 -10  -2 1340.28 96.2254  13
   4 -10  -2 1341.31 84.2951   6
   4 -10  -2 1172.34 65.9904  11
   4 -10  -2 1415.27 86.8876   3
  -4  10   2 1483.39 139.735   1
   4 -10  -1 229.888 48.5308   3
  -4  10   1 127.468 62.5167   8
   4 -10  -1 210.248 54.0549  13
   4 -10  -1 204.702 40.0349   6
   4 -10  -1 217.515 37.0808  11
  -4  10   1 271.150 48.6874   5
  -4  10   0 1795.65 142.513   8
  -4  10   0 1613.85 104.184   7
   4 -10   0 1717.43 108.553  13
  -4  10   0 1696.96 103.398   5
   4 -10   0 1512.07 81.6150   6
   4 -10   0 1561.91 82.9565  11
   4 -10   0 1675.45 96.3614   3
  -4  10   0 1493.38 158.806   1
  -4  10  -1 3706.46 197.602   8
  -4  10  -1 3886.19 167.980   7
   4 -10   1 3752.62 171.316  13
   4 -10   1 3652.86 132.577   6
  -4  10  -1 4072.74 173.387   5
   4 -10   1 3806.66 144.365  11
   4 -10   1 3578.73 152.491   3
  -4  10  -1 3286.68 232.294   1
   4 -10   2 7827.52 273.957  13
   4 -10   2 7463.44 238.472  11
   4 -10   2 7407.40 212.631   6
   4 -10   2 6760.49 263.751  14
  -4  10  -2 7846.05 264.511   7
  -4  10  -2 7659.85 288.674   8
   4 -10   3 1640.57 69.9085   6
   4 -10   3 1739.26 101.405  11
  -4  10  -3 1423.75 101.259   7
  -4  10  -3 1657.10 115.189   8
  -4  10  -3 1628.29 149.467   1
  -4  10  -4 4443.70 189.114   7
  -4  10  -4 4428.48 186.961   8
  -4  10  -4 4076.39 234.781   1
   4 -10   5 14201.2 454.810  13
  -4  10  -5 13806.4 408.205   8
  -4  10  -5 14464.3 433.957   7
  -4  10  -5 14442.4 490.811   1
   4 -10   6 6156.70 262.627  13
  -4  10  -6 5758.78 205.686   8
  -4  10  -6 6034.54 239.896   7
  -4  10  -6 6422.10 280.539   1
   4 -10   7 560.141 91.5207  13
  -4  10  -7 512.499 54.0284   8
  -4  10  -7 526.058 78.6554   7
  -4  10  -7 575.478 92.7004   1
  -4  10  -8 5626.39 255.201   1
   4 -10   8 5726.04 266.366  13
  -4  10  -8 5676.51 243.981   7
  -4  10  -9 1732.70 140.489  12
  -4  10  -9 1864.81 141.711   1
   4 -10   9 1905.01 158.798  13
  -4  10  -9 2158.64 149.157   7
  -4  10 -10 1212.76 123.562  12
  -4  10 -10 1098.32 112.817   1
  -4  10 -10 1076.31 115.949   7
   4 -10  10 1317.44 143.431  13
  -4  10 -11 670.416 106.093  12
  -4  10 -11 733.779 107.157   7
   4 -10  11 623.123 123.038  13
   4 -10  12 42.8362 84.0545  13
  -4   9  12 2082.70 161.424   8
  -4   9  12 2222.12 178.982   9
  -4   9  11 1122.72 126.266   9
  -4   9  11 1579.83 133.042   8
   4  -9 -11 1283.91 133.753  14
  -4   9  10 62.6201 64.9035   9
  -4   9  10 157.943 76.1516   8
  -4   9   9-6.70080 52.5907   9
   4  -9  -9 15.4719 50.5127   4
  -4   9   9-23.6623 64.3910   8
  -4   9   8 838.502 96.4642   1
  -4   9   8 932.726 86.9231   9
   4  -9  -8 910.228 85.4912   4
  -4   9   8 948.661 106.450   8
  -4   9   7 3367.01 158.106   9
  -4   9   7 3560.48 185.998   1
  -4   9   7 3286.74 190.403   8
  -4   9   6 3544.97 191.746   1
  -4   9   6 3692.32 206.076   8
  -4   9   6 3706.98 157.071   9
   4  -9  -6 4042.07 162.744   3
  -4   9   5 1073.71 112.781   1
  -4   9   5 1222.52 125.392   8
  -4   9   5 1625.14 99.0506  13
  -4   9   5 1440.66 87.6910   9
   4  -9  -5 1294.52 87.5761   3
  -4   9   4 3685.12 200.308   1
  -4   9   4 3883.75 213.961   8
   4  -9  -4 3788.16 158.099  13
  -4   9   4 4013.27 165.325  13
   4  -9  -4 3848.32 161.932   6
   4  -9  -4 3591.75 113.399  11
  -4   9   4 3763.61 143.108   9
   4  -9  -4 4426.62 162.406   3
   4  -9  -3 19573.2 495.344   3
  -4   9   3 18927.7 503.141  13
   4  -9  -3 18509.1 499.914  13
   4  -9  -3 17768.7 487.041   6
  -4   9   3 19204.8 468.038   5
   4  -9  -3 17560.1 447.670  11
  -4   9   3 17428.4 466.074   9
  -4   9   3 18405.2 576.707   1
  -4   9   2 7553.18 258.137   7
  -4   9   2 7980.57 260.567  13
   4  -9  -2 7873.50 258.970  13
   4  -9  -2 7360.72 237.844   6
  -4   9   2 8026.41 237.942   5
   4  -9  -2 8016.94 220.397  11
   4  -9  -2 8001.00 250.218   3
  -4   9   2 7859.32 330.958   1
  -4   9   1 645.721 102.283   1
  -4   9   1 619.356 66.4544  13
   4  -9  -1 614.166 63.6218  13
   4  -9  -1 592.459 52.3820   6
  -4   9   1 664.716 60.7690   5
   4  -9  -1 498.639 45.0094  11
   4  -9  -1 550.740 58.1767   3
  -4   9   1 604.362 63.6171   7
  -4   9   1 625.966 89.7095   8
  -4   9   0 5998.87 305.684   1
  -4   9   0 5720.12 208.191  13
   4  -9   0 5862.63 213.407  13
   4  -9   0 5294.38 173.627   6
  -4   9   0 5676.89 203.854   5
   4  -9   0 5553.38 178.636  11
   4  -9   0 5911.11 199.772   3
  -4   9   0 5645.95 249.865   8
  -4   9   0 5682.89 206.170   7
  -4   9  -1 5010.29 191.018  13
   4  -9   1 4796.28 193.911  13
   4  -9   1 5070.18 169.103  11
  -4   9  -1 4941.20 193.931   5
   4  -9   1 4815.71 152.709   6
  -4   9  -1 5098.96 219.770   8
  -4   9  -1 4502.89 183.247   7
  -4   9  -1 4935.26 268.844   1
   4  -9   2 1834.33 95.2792  11
  -4   9  -2 1791.85 109.956  12
  -4   9  -2 1989.15 118.206   5
   4  -9   2 1867.33 73.6341   6
   4  -9   2 1921.30 72.0545   9
  -4   9  -2 1761.59 106.378   7
  -4   9  -2 1839.58 118.830   8
  -4   9  -3 3345.93 147.897   7
  -4   9  -3 3133.72 148.770   8
  -4   9  -3 3216.55 166.088   5
   4  -9   3 2819.06 94.1546   6
   4  -9   3 3251.80 137.466  11
  -4   9  -3 2743.03 140.067  12
   4  -9   3 3265.57 102.975   9
  -4   9  -3 3143.30 192.885   1
  -4   9  -4 402.633 84.3898   1
  -4   9  -4 356.631 58.8357   7
   4  -9   4 419.443 59.3633  11
  -4   9  -4 530.795 60.7920   8
   4  -9   4 364.277 67.7079  13
  -4   9  -5 6467.70 282.420   1
  -4   9  -5 7131.45 251.052   7
  -4   9  -5 6587.47 224.195   8
   4  -9   5 6996.78 269.006  13
  -4   9  -6 15814.8 506.169   1
  -4   9  -6 16597.7 472.055   7
  -4   9  -6 15287.0 423.644   8
   4  -9   6 16733.9 500.885  13
  -4   9  -7 1265.79 117.479   1
  -4   9  -7 1379.09 107.583   7
   4  -9   7 1339.91 120.365  13
  -4   9  -8 2092.94 142.124   1
  -4   9  -8 1885.41 132.518   7
   4  -9   8 1969.09 149.522  13
  -4   9  -9 5385.26 236.551   1
  -4   9  -9 5606.49 244.137   7
   4  -9   9 5494.98 267.374  13
  -4   9 -10 2183.40 140.550   1
  -4   9 -10 2276.73 156.130   7
   4  -9  10 2495.73 183.649  13
  -4   9 -11 92.8292 70.9610   7
   4  -9  11 10.1358 79.5586  13
  -4   9 -12 18.5266 71.5018   7
   4  -9  12 19.3943 72.9226  13
  -4   8  13 136.007 88.7029   9
  -4   8  13 256.237 78.5492   3
  -4   8  12 293.679 76.3256   3
  -4   8  12 103.893 87.5557   9
  -4   8  12 352.724 83.4354   8
   4  -8 -12 311.342 89.1413  14
   4  -8 -11 3334.02 199.743  14
  -4   8  11 3247.78 182.867   3
  -4   8  11 3263.71 204.077   9
  -4   8  11 3624.23 192.865   8
   4  -8 -10 2926.39 176.492  14
  -4   8  10 3144.16 180.011   8
  -4   8  10 3071.96 183.497   9
  -4   8  10 2693.59 158.909   3
   4  -8 -10 3103.75 157.761   4
   4  -8  -9-15.2569 51.8708   4
  -4   8   9 45.2996 55.4653   1
  -4   8   9 120.288 57.5645   3
   4  -8  -9 47.9397 57.1708  14
  -4   8   9 20.0070 50.6013   9
  -4   8   9 21.7154 56.8153   8
   4  -8  -8 1409.13 102.189   4
  -4   8   8 1459.23 112.606   1
   4  -8  -8 1448.60 113.664  14
  -4   8   8 1308.32 102.027   9
  -4   8   8 1143.61 110.394   8
   4  -8  -7 1448.42 95.6783   3
   4  -8  -7 1367.34 108.764  14
  -4   8   7 1287.97 119.547   8
  -4   8   7 1320.77 96.6383   9
  -4   8   7 1364.50 112.321   1
  -4   8   6 1222.00 105.345   1
  -4   8   6 1106.59 79.7356  13
  -4   8   6 964.993 103.308   8
  -4   8   6 1149.24 81.9747   9
   4  -8  -6 1309.18 87.0009   3
  -4   8   5 983.162 95.8082   1
  -4   8   5 685.138 93.0924   8
  -4   8   5 849.262 68.8867  13
   4  -8  -5 782.473 73.4191   6
  -4   8   5 875.565 65.9300   9
   4  -8  -5 773.063 70.4244   3
  -4   8   4 396.544 79.0476   8
  -4   8   4 330.246 48.6598  13
   4  -8  -4 295.645 47.3791  13
   4  -8  -4 282.249 49.6654   6
   4  -8  -4 288.958 23.8954  11
  -4   8   4 326.181 43.1092   9
  -4   8   4 342.788 67.6595   1
   4  -8  -4 275.267 45.6713   3
  -4   8   3 5519.11 250.466   1
   4  -8  -3 5379.39 193.841   7
  -4   8   3 5252.83 189.861  13
   4  -8  -3 5420.53 190.307  13
   4  -8  -3 5506.60 186.297   6
   4  -8  -3 5355.81 151.937  11
   4  -8  -3 5573.43 193.172  12
  -4   8   3 5210.83 173.460   9
   4  -8  -3 5834.46 192.991   3
  -4   8   2 23698.3 712.635   1
  -4   8   2 23954.0 618.780  13
   4  -8  -2 23995.4 616.599  13
   4  -8  -2 23507.3 598.573   6
  -4   8   2 24533.3 600.318   5
   4  -8  -2 22833.2 612.051  12
   4  -8  -2 23645.4 576.950  11
   4  -8  -2 24724.7 616.134   3
  -4   8   2 24533.1 624.438   7
   4  -8  -2 24388.0 617.008   7
  -4   8   1 2634.60 185.880   1
  -4   8   1 2922.28 132.035  13
   4  -8  -1 3118.24 133.630  13
   4  -8  -1 2934.83 113.356   6
  -4   8   1 3085.32 126.022   5
   4  -8  -1 2970.47 127.359  12
   4  -8  -1 2852.05 106.332  11
   4  -8  -1 3156.02 130.505   7
  -4   8   1 3102.72 172.458   8
  -4   8   1 3210.65 136.184   7
   4  -8  -1 3270.48 132.996   3
   4  -8   0 8251.74 256.848   3
  -4   8   0 8081.98 368.758   1
  -4   8   0 8395.52 264.721  13
   4  -8   0 8315.98 268.628  13
   4  -8   0 8104.83 230.126   6
  -4   8   0 8598.48 262.748   5
   4  -8   0 8326.56 257.392  12
   4  -8   0 8449.15 239.126  11
   4  -8   0 8670.27 229.923   9
  -4   8   0 7729.01 295.235   8
   4  -8   0 8695.00 261.113   7
  -4   8   0 8435.19 264.668   7
  -4   8  -1 15447.6 430.657  13
   4  -8   1 15960.3 438.829  13
   4  -8   1 15892.5 420.651  12
  -4   8  -1 15499.7 435.807   5
   4  -8   1 14593.4 380.749   6
   4  -8   1 15713.6 406.971  11
   4  -8   1 16168.1 388.361   9
  -4   8  -1 15526.2 428.023   7
  -4   8  -1 15398.6 455.701   8
  -4   8  -2 8910.04 277.904  13
   4  -8   2 8443.72 262.460  12
   4  -8   2 7986.32 218.977   6
  -4   8  -2 8891.07 290.501   5
   4  -8   2 8729.05 258.920  11
  -4   8  -2 9166.26 280.295  12
   4  -8   2 9226.23 234.891   9
  -4   8  -2 8672.50 273.105   7
  -4   8  -2 8179.29 283.104   8
  -4   8  -3 645.102 89.0747   1
  -4   8  -3 626.256 66.8103  13
   4  -8   3 679.268 59.7098  12
  -4   8  -3 679.831 75.4063   5
   4  -8   3 691.799 63.3913  11
  -4   8  -3 764.351 68.8545  12
  -4   8  -3 718.995 66.8772   8
   4  -8   3 738.907 45.8264   9
  -4   8  -3 717.018 66.4520   7
  -4   8  -4 9.01985 37.9177  13
   4  -8   4 97.6129 48.4361  13
  -4   8  -4 22.1674 49.2539   1
   4  -8   4 30.0394 38.3292  11
  -4   8  -4-40.6625 38.7915  12
   4  -8   4 29.9977 35.9454   7
  -4   8  -4-26.5094 30.7607   7
  -4   8  -4 10.9080 30.5703   8
  -4   8  -4 119.067 53.5914   5
   4  -8   5 193.367 49.0742  11
  -4   8  -5 202.318 46.7003  12
  -4   8  -5 272.433 65.2902   1
   4  -8   5 213.026 56.0065  13
  -4   8  -5 164.459 45.3216   7
  -4   8  -5 309.410 44.2543   8
   4  -8   6 6157.85 249.009  13
  -4   8  -6 5587.45 243.716   1
  -4   8  -6 6310.02 229.796  12
  -4   8  -6 5510.25 180.766   8
  -4   8  -6 6106.81 225.998   7
  -4   8  -7 10280.1 338.425  12
  -4   8  -7 9952.20 348.369   1
   4  -8   7 10325.2 364.362  13
  -4   8  -7 9934.83 332.415   7
  -4   8  -8 1525.21 114.531  12
  -4   8  -8 1415.70 114.045   1
  -4   8  -8 1459.96 113.228   7
   4  -8   8 1768.33 138.440  13
  -4   8  -9 3049.85 159.469   1
  -4   8  -9 2979.31 166.741   7
   4  -8   9 2883.23 187.935  13
  -4   8  -9 2843.09 164.348  12
  -4   8 -10 5727.45 230.828   1
  -4   8 -10 6118.18 262.119   7
  -4   8 -10 6094.85 266.107  12
   4  -8  10 6672.35 299.448  13
  -4   8 -11 1564.82 133.065   7
  -4   8 -11 1280.64 126.956  12
   4  -8  11 1348.62 138.466  13
  -4   8 -12 259.861 87.6046  12
  -4   8 -12 169.955 82.0174   7
   4  -8  12 185.604 82.9658  13
  -4   8 -13 828.045 120.737   7
   4  -8  13 839.428 120.692  13
  -4   7  14 1025.49 126.929   3
  -4   7  13 223.728 83.2068   3
   4  -7 -13 352.146 97.2304  14
  -4   7  13 302.582 100.265   9
  -4   7  13 382.724 83.5629   8
  -4   7  12-24.0243 59.6813   3
  -4   7  12-41.0737 88.1631   9
  -4   7  12-13.6975 64.1944   8
   4  -7 -12 8.99047 71.1380  14
   4  -7 -11 1748.59 140.368  14
   4  -7 -11 1697.81 118.740   4
  -4   7  11 1554.65 127.086   3
  -4   7  11 1526.03 123.645   8
  -4   7  11 1488.74 138.227   9
   4  -7 -10 7616.02 297.032  14
  -4   7  10 7561.71 290.775   8
  -4   7  10 7591.86 304.753   9
  -4   7  10 6974.46 279.624   3
   4  -7 -10 8262.26 279.398   4
  -4   7   9 3634.32 169.089   1
   4  -7  -9 3542.27 180.759  14
  -4   7   9 3485.56 182.893   8
  -4   7   9 3896.21 191.808   9
   4  -7  -9 3816.27 167.966   4
  -4   7   9 3767.41 176.095   3
  -4   7   8 2170.39 123.857   3
   4  -7  -8 1988.59 115.983   4
   4  -7  -8 2035.99 128.314  14
  -4   7   8 2113.70 127.654   1
  -4   7   8 1913.81 123.909   9
  -4   7   8 2066.13 136.640   8
   4  -7  -7 8504.51 275.996   4
   4  -7  -7 8690.15 273.679   3
  -4   7   7 8025.37 275.285   3
   4  -7  -7 8503.49 288.224  14
  -4   7   7 8455.26 257.159  13
  -4   7   7 8261.16 294.230   1
  -4   7   7 8062.84 276.859   9
  -4   7   7 8071.87 309.000   8
   4  -7  -6 4353.39 167.683   3
  -4   7   6 4335.52 172.545  14
   4  -7  -6 4087.85 173.736  14
  -4   7   6 4133.65 154.270  13
  -4   7   6 4023.49 187.281   1
   4  -7  -6 3907.04 178.586   6
  -4   7   6 3935.47 162.474   9
  -4   7   6 3956.66 199.625   8
   4  -7  -5 915.903 71.9793   3
  -4   7   5 869.099 87.1561   1
   4  -7  -5 844.933 61.0850  13
  -4   7   5 843.990 63.3174  13
   4  -7  -5 902.210 75.2746  14
   4  -7  -5 831.009 74.9776   6
  -4   7   5 904.455 66.8471   9
   4  -7  -5 985.225 72.8766   7
  -4   7   5 961.959 99.0803   8
   4  -7  -4 21.2569 35.6091   3
  -4   7   4 6.61182 43.0653   1
   4  -7  -4 29.0710 32.8690  14
  -4   7   4 31.5199 27.8037  13
   4  -7  -4 8.85412 25.3507  13
   4  -7  -4 85.7127 36.9566   7
   4  -7  -4 36.3833 32.7098   6
  -4   7   4 30.8852 27.9425   9
   4  -7  -4 39.7413 11.6727  11
  -4   7   4-7.93396 47.8422   8
   4  -7  -3 1158.42 75.0429   3
  -4   7   3 1070.22 104.186   1
   4  -7  -3 1200.43 79.3935  14
  -4   7   3 1186.69 73.5194  13
   4  -7  -3 1107.92 70.4755  13
   4  -7  -3 1074.50 68.5117   6
   4  -7  -3 1084.08 46.2771  11
   4  -7  -3 896.113 67.7596  12
  -4   7   3 1089.24 64.7669   9
  -4   7   3 934.055 105.882   8
   4  -7  -3 1106.12 72.8724   7
  -4   7   2 7140.79 302.821   1
  -4   7   2 7593.26 232.349  13
   4  -7  -2 7303.33 236.617  14
   4  -7  -2 7357.48 230.529  13
   4  -7  -2 7495.07 217.741   6
  -4   7   2 7489.91 219.542   5
   4  -7  -2 6854.91 226.527  12
   4  -7  -2 7442.07 198.068  11
  -4   7   2 7742.88 238.585   7
   4  -7  -2 6837.59 227.238   7
   4  -7  -2 7794.87 234.768   3
   4  -7  -1 16587.6 431.578   3
  -4   7   1 16019.6 535.570   1
  -4   7   1 16563.1 432.937  13
   4  -7  -1 15713.4 433.105  14
   4  -7  -1 16171.0 432.822  13
  -4   7   1 16264.5 423.306   5
   4  -7  -1 15525.0 402.079   6
   4  -7  -1 15802.3 400.189  11
   4  -7  -1 15437.9 425.482  12
   4  -7  -1 15773.5 405.151   9
  -4   7   1 16184.2 482.011   8
  -4   7   1 16831.1 437.829   7
   4  -7   0 3587.65 140.433   3
  -4   7   0 3459.77 209.730   1
   4  -7   0 3349.06 141.302  14
  -4   7   0 3570.63 143.473  13
   4  -7   0 3639.34 145.738  13
   4  -7   0 3578.54 113.882   6
  -4   7   0 3737.11 145.500   5
   4  -7   0 3764.77 126.698  11
   4  -7   0 3679.18 139.767  12
   4  -7   0 3654.92 122.303   9
  -4   7   0 3528.34 165.775   8
  -4   7   0 3724.76 144.638   7
  -4   7  -1 13653.2 372.724  13
   4  -7   1 13199.5 374.952  13
   4  -7   1 13129.0 358.963  12
   4  -7   1 12385.9 319.073   6
  -4   7  -1 13564.5 377.080   5
   4  -7   1 13252.1 351.425  11
  -4   7  -1 12963.1 369.554  12
  -4   7  -1 12674.8 383.715   8
   4  -7   1 13152.5 336.961   9
  -4   7  -1 13733.0 370.100   7
  -4   7  -2 29942.2 721.187  13
   4  -7   2 29459.3 702.382  12
  -4   7  -2 30166.4 735.508   5
   4  -7   2 25946.0 643.713   6
   4  -7   2 30169.1 705.231  11
  -4   7  -2 30262.1 716.680  12
  -4   7  -2 29460.8 720.641   8
   4  -7   2 28677.3 676.623   9
  -4   7  -2 29179.2 711.250   7
   4  -7   2 26993.3 696.953   7
  -4   7  -3 5661.20 244.661   1
  -4   7  -3 5747.95 205.024  13
   4  -7   3 5378.90 187.008  12
  -4   7  -3 5528.16 220.172   5
  -4   7  -3 5267.43 196.288  12
   4  -7   3 5688.68 199.057  11
  -4   7  -3 5826.89 195.863   8
   4  -7   3 5684.35 190.562   7
  -4   7  -3 5645.27 197.257   7
  -4   7  -4 275.722 45.9204   7
  -4   7  -4 226.872 37.1005   8
   4  -7   4 191.209 41.0927   7
   4  -7   4 179.356 45.5026  13
   4  -7   4 232.646 40.2755  12
  -4   7  -4 283.412 47.3161  12
  -4   7  -4 144.908 49.8199   1
  -4   7  -5 4564.18 175.862   7
   4  -7   5 4295.84 164.290   7
   4  -7   5 4611.09 196.451  13
   4  -7   5 4201.16 163.673  12
  -4   7  -5 4238.30 208.483   5
  -4   7  -5 4326.05 175.583  12
  -4   7  -5 4159.12 146.665   8
  -4   7  -5 4452.73 201.444   1
  -4   7  -6 3082.15 149.561  12
  -4   7  -6 3322.95 167.633   1
  -4   7  -6 3292.33 149.701   7
   4  -7   6 3135.57 167.200  13
  -4   7  -7 2452.57 140.829   1
  -4   7  -7 2443.74 131.802   7
   4  -7   7 2087.55 144.198  13
  -4   7  -7 2550.50 136.870  12
  -4   7  -8 3914.03 180.882   1
   4  -7   8 4209.86 213.623  13
  -4   7  -8 4037.87 189.418  12
  -4   7  -8 4361.31 189.685   7
   4  -7   9 173.565 66.5113  13
  -4   7  -9 184.949 55.1414   1
  -4   7  -9 194.402 59.9805  12
   4  -7   9 131.473 41.6424  10
  -4   7  -9 145.688 57.3991   7
  -4   7 -10 5199.73 208.997   1
  -4   7 -10 6059.83 252.568   7
   4  -7  10 5865.81 266.770  13
  -4   7 -10 5863.99 254.559  12
  -4   7 -11 6004.00 267.363   7
   4  -7  11 5970.70 270.353  13
  -4   7 -11 5513.73 260.612  12
  -4   7 -12 585.666 103.626   7
   4  -7  12 630.429 97.3072  13
  -4   7 -12 512.398 101.226  12
  -4   7 -13 644.264 117.297   7
  -4   7 -13 777.836 114.946  12
   4  -7  13 835.908 110.274  13
  -4   6  15 1327.07 138.937   3
  -4   6  14 539.806 110.447   9
  -4   6  14 507.665 101.543   3
   4  -6 -14 429.340 98.1744  14
  -4   6  13 136.112 79.0529   3
   4  -6 -13 213.455 89.4338  14
  -4   6  13 156.348 79.8520   9
  -4   6  13 158.275 68.9117   8
   4  -6 -12 65.4267 57.0281   4
  -4   6  12 48.4266 57.9323   3
  -4   6  12 60.4368 68.6606   9
  -4   6  12 31.6487 51.2944   8
   4  -6 -12 60.1917 64.0925  14
   4  -6 -11 1152.36 114.742  14
  -4   6  11 1240.32 107.835   8
  -4   6  11 1062.04 119.054   9
   4  -6 -11 1030.95 95.6907   4
  -4   6  11 1129.23 110.611   3
   4  -6 -10 3690.71 184.533  14
  -4   6  10 3418.62 188.157   9
  -4   6  10 3501.88 178.054   8
  -4   6  10 3663.99 179.326   3
   4  -6 -10 3368.38 162.969   4
  -4   6  10 3336.14 151.670   1
   4  -6  -9 5548.70 226.331  14
  -4   6   9 5506.29 232.678   8
  -4   6   9 5475.41 232.544   9
   4  -6  -9 5312.21 212.544   4
  -4   6   9 5697.33 226.761   3
  -4   6   9 5801.49 213.449   1
   4  -6  -8 966.398 83.3860  14
  -4   6   8 728.266 74.3178   1
  -4   6   8 883.893 85.5574   9
  -4   6   8 745.180 83.2175   8
   4  -6  -8 660.649 69.7202   4
   4  -6  -8 911.981 78.4090   3
  -4   6   8 713.124 72.4787   3
  -4   6   7 8263.24 244.747  13
  -4   6   7 8443.35 272.920  14
   4  -6  -7 8690.07 281.756  14
  -4   6   7 8476.54 288.435   1
  -4   6   7 8375.84 306.311   8
  -4   6   7 8173.58 276.611   9
   4  -6  -7 8315.45 272.355   4
  -4   6   7 8377.21 277.509   3
   4  -6  -7 8713.74 272.284   3
  -4   6   6 24359.7 635.958   3
   4  -6  -6 25365.6 632.073   3
  -4   6   6 23423.0 604.159  13
  -4   6   6 24976.6 632.230  14
   4  -6  -6 25494.1 643.224  14
  -4   6   6 23085.2 659.437   1
  -4   6   6 24620.8 633.602   9
  -4   6   6 24404.5 688.194   8
   4  -6  -6 23713.5 629.349   7
   4  -6  -5 4534.65 166.825   3
  -4   6   5 4484.47 169.645   3
   4  -6  -5 4280.46 152.348   5
  -4   6   5 4646.94 167.531  14
   4  -6  -5 4563.62 173.096  14
   4  -6  -5 4516.20 147.250  13
  -4   6   5 4519.91 152.142  13
  -4   6   5 4260.16 195.425   1
  -4   6   5 4614.91 166.931   9
  -4   6   5 4566.40 214.683   8
   4  -6  -5 4222.16 162.905   7
   4  -6  -4 120.063 32.0935   5
  -4   6   4 204.790 52.2711   1
   4  -6  -4 219.210 39.7930   3
   4  -6  -4 145.447 35.3798  14
  -4   6   4 146.354 31.1155  13
   4  -6  -4 160.840 28.6295  13
   4  -6  -4 126.900 10.6671  11
  -4   6   4 204.274 33.4317   9
  -4   6   4 140.210 63.6699   8
  -4   6   3 5751.35 252.873   1
   4  -6  -3 6285.51 202.881  14
  -4   6   3 6280.20 194.278  13
   4  -6  -3 6173.11 189.618  13
   4  -6  -3 6010.08 193.782   6
   4  -6  -3 6237.41 158.893  11
  -4   6   3 6015.03 189.914   9
  -4   6   3 5761.49 247.385   8
   4  -6  -3 6237.60 201.563   3
   4  -6  -3 5845.28 218.585   5
  -4   6   2 5130.20 237.584   1
  -4   6   2 4931.84 170.656  13
   4  -6  -2 5122.03 175.161  14
   4  -6  -2 5228.64 169.997  13
   4  -6  -2 4953.73 158.082   6
   4  -6  -2 5092.11 142.435  11
  -4   6   2 5160.34 175.554   7
   4  -6  -2 5444.20 177.199   3
   4  -6  -2 4902.60 199.755   5
   4  -6  -1 4360.71 186.139   5
   4  -6  -1 4534.92 161.021   3
  -4   6   1 4279.23 230.517   1
   4  -6  -1 4472.46 158.644  14
  -4   6   1 4553.29 160.179  13
   4  -6  -1 4548.22 157.915  13
  -4   6   1 4516.28 155.194   5
   4  -6  -1 4526.13 136.381   6
   4  -6  -1 4525.44 137.231  11
  -4   6   1 4357.08 185.138   8
   4  -6  -1 4765.57 147.364   9
  -4   6   1 4522.30 159.021   7
   4  -6   0 8262.86 285.450   5
   4  -6   0 8293.87 247.669   3
  -4   6   0 7969.59 333.788   1
  -4   6   0 8516.95 251.677  13
   4  -6   0 8364.01 251.860  13
  -4   6   0 8206.75 248.753   5
   4  -6   0 7988.02 211.528   6
   4  -6   0 8486.33 232.315  11
  -4   6   0 8248.30 270.592   8
   4  -6   0 8377.94 232.193   9
  -4   6   0 8517.87 248.231   7
   4  -6   0 7605.91 238.537   7
  -4   6  -1 249.163 41.7510   8
   4  -6   1 190.645 34.7635   7
  -4   6  -1 105.570 33.5587  13
   4  -6   1 146.882 34.9131  13
   4  -6   1 184.621 16.8291   6
  -4   6  -1 144.521 32.0265   7
  -4   6  -1 91.2849 28.9841  12
   4  -6   1 144.095 28.2545   9
  -4   6  -1 246.253 40.5278   5
   4  -6   1 190.620 52.3767   5
  -4   6  -2 19572.3 615.744   1
  -4   6  -2 22460.4 577.117   5
  -4   6  -2 21244.8 563.635  13
  -4   6  -2 21750.7 557.329  12
  -4   6  -2 20473.5 553.947   8
   4  -6   2 21980.4 545.249   7
  -4   6  -2 22245.0 555.381   7
   4  -6   3 30850.6 751.772   7
  -4   6  -3 31452.7 763.453   7
  -4   6  -3 30612.6 795.304   5
  -4   6  -3 30012.3 764.850  12
  -4   6  -3 30578.1 753.889   8
  -4   6  -3 29678.6 823.130   1
   4  -6   4 2809.26 136.859  13
  -4   6  -4 2604.83 121.076  12
  -4   6  -4 2744.55 147.288   5
  -4   6  -4 2628.35 147.562   1
   4  -6   4 2505.41 111.107   7
   4  -6   5 9129.98 317.029  13
  -4   6  -5 9241.11 334.081   5
  -4   6  -5 9615.59 297.637  12
  -4   6  -5 10009.8 294.964   7
   4  -6   5 9466.12 282.240   7
  -4   6  -5 9148.13 320.296   1
  -4   6  -6 11741.0 377.098   1
  -4   6  -6 12403.2 370.085  12
   4  -6   6 11540.8 394.504  13
  -4   6  -7 3359.29 161.726   1
  -4   6  -7 3493.18 164.503  12
   4  -6   7 3418.87 184.212  13
  -4   6  -7 3778.10 162.643   7
   4  -6   8 1432.88 123.771  13
  -4   6  -8 1336.55 104.221  12
   4  -6   8 1286.24 96.5669   2
  -4   6  -8 1292.71 94.8117   1
   4  -6   8 1229.60 81.2450  10
  -4   6  -8 1407.65 100.887   7
   4  -6   9 53.5340 55.4297  13
   4  -6   9 88.7995 44.3214   2
  -4   6  -9 21.6699 42.6869   1
  -4   6  -9 13.2545 46.1535  12
   4  -6   9 64.1156 34.9062  10
  -4   6  -9 67.1222 53.8188   7
  -4   6 -10 1222.29 114.508  12
  -4   6 -10 1291.63 112.219   7
   4  -6  10 1203.18 114.483  13
  -4   6 -11 3932.86 213.898  12
  -4   6 -11 4130.21 210.576   7
   4  -6  11 4110.09 210.595  13
  -4   6 -12 3195.04 202.921  12
   4  -6  12 2950.78 179.158  13
  -4   6 -12 3598.44 207.277   7
  -4   6 -13-42.1058 79.8622  12
  -4   6 -13 38.7460 77.8717   7
   4  -6  13-37.3972 66.8047  13
  -4   5  15 293.383 97.2083   3
   4  -5 -14 3093.97 198.790  14
  -4   5  14 3086.68 199.852   3
  -4   5  14 3133.52 209.863   9
   4  -5 -13 1911.04 156.748  14
  -4   5  13 2537.25 143.686   8
  -4   5  13 2306.12 181.976   9
   4  -5 -13 2265.15 146.561   4
  -4   5  13 1934.70 158.318   3
   4  -5 -12 91.8738 58.4975   4
  -4   5  12 89.1225 64.7194   3
  -4   5  12 195.860 80.0262   9
  -4   5  12 277.805 66.7663   8
   4  -5 -12 174.040 71.2436  14
   4  -5 -11 685.314 90.8810  14
  -4   5  11 692.255 85.2140   8
  -4   5  11 718.254 96.6799   9
   4  -5 -11 771.920 83.6423   4
  -4   5  11 737.730 90.4870   3
   4  -5 -10 2441.78 146.980  14
  -4   5  10 2685.12 148.388   8
  -4   5  10 2507.10 155.755   9
   4  -5 -10 2783.94 142.548   4
  -4   5  10 2294.15 142.341   3
  -4   5  10 2349.74 117.236   1
   4  -5  -9 2113.24 126.715  14
   4  -5  -9 2220.80 115.482   2
  -4   5   9 2090.82 114.352   1
  -4   5   9 2141.29 132.241   9
  -4   5   9 1991.86 129.354   8
  -4   5   9 2255.51 130.448   3
   4  -5  -9 1989.14 118.441   4
  -4   5   8 3490.92 115.708  13
   4  -5  -8 3127.11 149.988  14
  -4   5   8 3539.10 152.069  14
  -4   5   8 3490.08 161.210   9
  -4   5   8 3319.15 168.838   8
  -4   5   8 3132.81 151.360   3
   4  -5  -8 3335.19 147.444   3
   4  -5  -8 3333.28 101.114   5
   4  -5  -8 3401.61 151.644   4
   4  -5  -8 3275.76 149.674   2
  -4   5   8 3313.38 149.609   1
   4  -5  -7 606.216 41.7052   5
   4  -5  -7 604.826 64.0387   4
  -4   5   7 726.977 68.2510   3
   4  -5  -7 606.216 60.3020   3
  -4   5   7 645.243 68.2214   1
   4  -5  -7 734.827 72.9151   2
  -4   5   7 605.386 43.8087  13
  -4   5   7 627.014 60.2737  14
   4  -5  -7 655.592 65.2639  14
  -4   5   7 591.060 63.7661   9
  -4   5   7 733.278 82.3608   8
   4  -5  -7 572.158 62.5872   7
  -4   5   6 10150.5 328.035   1
  -4   5   6 10541.3 302.113  14
  -4   5   6 10297.1 275.618  13
   4  -5  -6 10267.3 307.924  14
   4  -5  -6 9770.25 280.206   5
  -4   5   6 10087.9 354.557   8
  -4   5   6 10516.4 310.724   9
   4  -5  -6 10185.9 310.405   4
   4  -5  -6 10666.2 307.314   3
  -4   5   6 10200.4 311.191   3
  -4   5   5 37921.5 965.484   1
  -4   5   5 38568.0 916.103  14
  -4   5   5 37546.7 895.086  13
   4  -5  -5 38244.8 923.596  14
   4  -5  -5 38798.7 888.376  13
   4  -5  -5 34842.2 912.579   5
  -4   5   5 39259.8 1007.80   8
  -4   5   5 36439.6 920.683   9
   4  -5  -5 39915.6 925.862   3
  -4   5   5 36349.3 925.191   3
   4  -5  -4 5253.06 178.339   3
  -4   5   4 5419.51 220.190   1
  -4   5   4 5143.64 161.689  13
   4  -5  -4 5032.42 174.910  14
   4  -5  -4 5214.31 156.009  13
   4  -5  -4 5062.25 177.635   5
   4  -5  -4 4837.32 168.725  12
  -4   5   4 5284.43 229.293   8
   4  -5  -4 5312.19 170.106   9
  -4   5   4 5093.80 173.533   9
   4  -5  -4 5550.95 222.317   8
   4  -5  -3 10731.4 313.377   5
   4  -5  -3 11209.2 305.858   3
   4  -5  -3 10421.3 297.988  14
  -4   5   3 10943.1 292.296  13
   4  -5  -3 10602.5 285.518  13
  -4   5   3 11471.5 373.612   1
   4  -5  -3 10618.8 295.036  12
   4  -5  -3 10563.9 256.918  11
  -4   5   3 10932.6 355.258   8
  -4   5   3 10189.3 294.152   9
   4  -5  -3 10393.3 350.510   8
  -4   5   2 14192.8 382.947  13
   4  -5  -2 14715.9 385.134  14
   4  -5  -2 14443.5 378.090  13
  -4   5   2 14898.4 477.645   1
   4  -5  -2 13953.6 380.475  12
   4  -5  -2 14997.0 356.911  11
  -4   5   2 14409.9 387.068   7
   4  -5  -2 14786.4 442.832   8
   4  -5  -2 13951.8 379.887   7
   4  -5  -2 15375.9 392.980   3
   4  -5  -2 14916.5 407.484   5
   4  -5  -1 3702.56 149.139   5
   4  -5  -1 3703.44 134.710   3
  -4   5   1 4022.38 212.829   1
  -4   5   1 3505.14 131.436  13
   4  -5  -1 3340.93 125.780  14
   4  -5  -1 3574.82 128.561  13
   4  -5  -1 3200.12 123.618  12
   4  -5  -1 3804.41 124.717   9
   4  -5  -1 3390.40 167.065   8
   4  -5  -1 3466.66 125.210   7
  -4   5   1 3662.94 131.109   7
   4  -5   0 704.080 62.8655   5
  -4   5   0 502.120 76.7639   1
  -4   5   0 519.513 50.0259  13
   4  -5   0 614.334 49.9564  13
   4  -5   0 534.473 45.5419  12
   4  -5   0 600.795 30.2409   6
  -4   5   0 612.179 50.2348   5
  -4   5   0 581.838 47.6315  12
   4  -5   0 554.582 43.3867   9
  -4   5   0 680.664 60.0466   8
  -4   5   0 548.030 45.6339   7
   4  -5   0 642.474 48.2867   7
   4  -5   1 481.586 48.2043  13
  -4   5  -1 355.688 39.0295  12
  -4   5  -1 315.159 35.0624   7
   4  -5   1 336.983 37.1486   7
   4  -5   1 364.414 36.2546   9
  -4   5  -1 352.003 42.1438   8
   4  -5   1 349.814 16.7508   6
  -4   5  -1 330.749 43.6209   5
  -4   5  -2 921.302 69.7931   5
   4  -5   2 889.345 56.5679   7
  -4   5  -2 837.361 58.5223   7
  -4   5  -2 786.516 57.9984  12
  -4   5  -2 878.445 59.7329   8
  -4   5  -2 855.695 86.4591   1
   4  -5   3 17850.6 449.501   7
   4  -5   3 18461.6 481.243   8
  -4   5  -3 16241.6 452.980   7
  -4   5  -3 17299.8 486.965   5
  -4   5  -3 17526.1 461.061  12
   4  -5   3 17233.7 497.400   5
  -4   5  -3 17380.7 506.478   1
  -4   5  -4 19501.7 559.902   1
   4  -5   4 19543.3 553.916  13
  -4   5  -4 19697.3 529.297  12
  -4   5  -4 19707.5 565.601   5
  -4   5  -4 20762.7 524.526   7
   4  -5   4 21083.5 529.318   8
   4  -5   4 20274.4 515.541   7
   4  -5   4 20557.4 571.141   5
   4  -5   5 43.8808 42.3878  13
   4  -5   5 116.173 38.2898  12
  -4   5  -5 124.915 39.7275  12
  -4   5  -5 76.0144 32.5993   7
  -4   5  -5 99.7342 42.8642   1
   4  -5   6 11562.3 362.183   2
  -4   5  -6 11451.0 357.318   1
  -4   5  -6 12190.8 357.680  12
   4  -5   6 11810.6 344.352  12
   4  -5   6 11937.8 388.099  13
  -4   5  -6 11116.8 385.437   5
   4  -5   6 11594.1 337.595  10
  -4   5  -6 12194.3 348.544   7
   4  -5   7 17831.4 534.352  13
   4  -5   7 17204.3 485.603   2
  -4   5  -7 18064.3 485.128   1
  -4   5  -7 17250.9 492.895  12
   4  -5   7 16279.7 459.846  10
  -4   5  -7 17414.0 482.079   7
   4  -5   8 3076.37 172.722  13
  -4   5  -8 3373.24 145.694   1
   4  -5   8 3018.71 142.408   2
  -4   5  -8 3215.96 162.671  12
   4  -5   8 3266.58 137.469  10
  -4   5  -8 3369.05 157.644   7
   4  -5   9 892.383 95.0120  13
   4  -5   9 649.049 67.7339   2
   4  -5   9 956.568 71.3573  10
  -4   5  -9 907.753 94.7349  12
  -4   5  -9 997.677 93.8787   7
  -4   5 -10 1421.02 123.980  12
  -4   5 -10 1554.10 120.166   7
   4  -5  10 1495.40 117.788  13
  -4   5 -11 1140.80 119.799  12
  -4   5 -11 1032.28 105.068   7
   4  -5  11 1033.00 107.182  13
  -4   5 -12 2386.10 172.454  12
   4  -5  12 1925.68 140.591  13
  -4   5 -12 2233.69 163.901   7
  -4   5 -13 579.666 102.373  12
   4  -5  13 758.379 95.1086  13
  -4   5 -13 567.315 102.962   7
   4  -5  14 210.485 78.9680  13
  -4   5 -14 96.4510 80.3478   7
   4  -4 -15 59.7298 79.9782  14
  -4   4  15-28.3759 77.2180   3
  -4   4  14 1534.43 146.638   3
   4  -4 -14 1542.46 137.781  14
   4  -4 -13 6465.06 283.081  14
  -4   4  13 6292.66 295.872   3
   4  -4 -13 6576.91 272.806   4
  -4   4  13 6661.91 250.149   8
   4  -4 -12 2604.75 167.328  14
  -4   4  12 2365.68 137.622   8
   4  -4 -12 2522.21 152.470   4
  -4   4  12 2340.46 160.914   3
   4  -4 -11 2014.05 135.988  14
  -4   4  11 1991.82 123.110   8
   4  -4 -11 1969.90 122.825   4
   4  -4 -11 1672.22 48.3383   5
  -4   4  11 2028.03 137.392   3
   4  -4 -10 3732.33 179.634  14
   4  -4 -10 3369.98 104.768   5
  -4   4  10 3925.00 179.021   8
   4  -4 -10 3969.47 174.639   4
  -4   4  10 3612.05 178.623   3
   4  -4  -9 1732.43 113.176  14
  -4   4   9 1910.34 110.875  14
  -4   4   9 1716.61 57.5697  13
   4  -4  -9 1746.81 70.8908   5
   4  -4  -9 1769.99 108.218   3
   4  -4  -9 1875.96 102.875   2
  -4   4   9 1996.53 123.765   9
  -4   4   9 1888.62 123.272   8
  -4   4   9 1968.26 119.278   3
   4  -4  -9 1972.62 114.367   4
   4  -4  -8 3827.79 163.229  14
  -4   4   8 3936.16 159.354  14
  -4   4   8 4106.84 115.649  13
  -4   4   8 4114.99 162.718   1
   4  -4  -8 4182.15 165.958   2
   4  -4  -8 3503.62 127.613   5
  -4   4   8 3847.69 183.364   8
  -4   4   8 4098.67 174.008   9
  -4   4   8 3805.54 168.301   3
   4  -4  -8 4124.64 164.741   3
   4  -4  -8 4014.51 167.642   4
   4  -4  -7 164.923 28.3800   5
   4  -4  -7 92.5423 36.4921   4
   4  -4  -7 292.058 45.3040  14
  -4   4   7 134.894 36.7481  14
  -4   4   7 127.667 20.7432  13
  -4   4   7 100.225 45.4959   8
   4  -4  -7 96.0418 46.2237   8
  -4   4   7 90.6501 33.4607   9
   4  -4  -7 163.835 41.5264   2
   4  -4  -7 142.860 36.1125   3
  -4   4   7 121.263 42.0817   3
  -4   4   7 171.195 45.5189   1
   4  -4  -6 1819.62 97.5333   4
   4  -4  -6 1897.96 96.2690   3
  -4   4   6 1791.33 87.7426  14
  -4   4   6 1796.13 69.9658  13
   4  -4  -6 1643.57 88.2001  14
   4  -4  -6 1952.18 111.771   2
  -4   4   6 1733.50 105.135   1
   4  -4  -6 1606.05 78.5314   5
  -4   4   6 1735.46 125.211   8
  -4   4   6 1627.26 94.9214   9
   4  -4  -6 2000.80 120.873   8
   4  -4  -5 23545.4 572.160   3
  -4   4   5 21961.0 538.439  13
  -4   4   5 22184.2 555.118  14
   4  -4  -5 23043.2 564.190  14
   4  -4  -5 21234.9 525.969  13
   4  -4  -5 22831.9 609.913   2
  -4   4   5 22319.0 604.730   1
   4  -4  -5 21075.3 551.736   5
  -4   4   5 23684.6 640.479   8
  -4   4   5 22613.9 570.483   9
   4  -4  -5 23830.3 564.872   9
   4  -4  -5 20694.6 557.297   7
   4  -4  -4 38828.5 902.265   3
  -4   4   4 37145.2 954.922   1
   4  -4  -4 35476.8 945.448   1
  -4   4   4 36724.1 884.616  14
  -4   4   4 36232.6 877.705  13
   4  -4  -4 37184.3 891.435  14
   4  -4  -4 38095.8 867.882  13
   4  -4  -4 35332.9 891.457   5
  -4   4   4 37702.9 957.741   8
   4  -4  -4 38123.1 892.320   9
  -4   4   4 36655.6 897.606   9
   4  -4  -4 37381.8 940.327   8
   4  -4  -4 36887.3 889.020   7
  -4   4   3 1772.69 118.992   1
   4  -4  -3 1520.97 72.3032  14
  -4   4   3 1677.81 76.0252  13
   4  -4  -3 1473.98 65.2458  13
   4  -4  -3 1534.01 79.3938   5
   4  -4  -3 1541.19 73.6119  12
  -4   4   3 1573.22 77.3429   9
  -4   4   3 1366.34 98.0775   8
   4  -4  -3 1634.76 74.9351   7
   4  -4  -2 25896.8 625.097  14
   4  -4  -2 25301.2 621.998  13
   4  -4  -2 25004.6 640.827   5
   4  -4  -2 25723.3 626.085  12
   4  -4  -2 25575.7 624.172   7
   4  -4  -2 26383.0 676.571   8
  -4   4   2 26842.6 728.058   1
  -4   4   1 34166.5 958.797   1
   4  -4  -1 33047.4 836.334  14
   4  -4  -1 36065.2 845.335  13
   4  -4  -1 34650.4 860.427   5
   4  -4  -1 36499.1 842.075  12
   4  -4  -1 35365.5 842.863   9
   4  -4  -1 36217.4 839.363   7
  -4   4   0 25776.2 759.503   1
   4  -4   0 28418.8 688.781  13
   4  -4   0 27893.5 675.214  12
  -4   4   0 28038.2 698.838   8
   4  -4   0 27849.8 676.719   9
   4  -4   0 28128.3 672.518   7
   4  -4   1 75.6495 32.4485   8
   4  -4   1 16.7786 20.3388   7
   4  -4   1 54.7728 26.3139  13
   4  -4   1 32.7193 6.47506   6
   4  -4   1 35.9923 6.62447   6
   4  -4   1 9.18764 19.7353  12
  -4   4  -1 32.2121 24.6635   5
   4  -4   1 63.5268 36.2500   1
   4  -4   2 3171.42 111.796   7
   4  -4   2 3313.32 145.911   8
   4  -4   2 3167.98 116.619  12
  -4   4  -2 3126.41 133.077   5
  -4   4  -2 3025.59 118.709  12
   4  -4   2 3223.55 139.361   5
  -4   4  -2 3073.94 154.974   1
   4  -4   2 3187.75 154.687   1
  -4   4  -3 2713.40 116.578  12
   4  -4   3 3105.79 116.955  12
   4  -4   3 3127.33 151.609   2
   4  -4   3 2677.52 138.314   1
  -4   4  -3 2689.91 140.206   1
  -4   4  -3 3105.33 139.524   5
   4  -4   3 3031.96 137.789   5
   4  -4   3 3012.89 127.348   8
   4  -4   3 3080.40 110.796   7
   4  -4   4 7460.13 266.129  13
   4  -4   4 7949.04 234.726  12
  -4   4  -4 7545.41 239.228  12
  -4   4  -4 7468.58 261.642   1
   4  -4   4 8008.95 270.063   2
   4  -4   4 7808.74 234.310   8
  -4   4  -4 7705.59 232.221   7
   4  -4   4 7674.94 225.167   7
   4  -4   4 7714.89 263.870   5
   4  -4   5 12274.6 378.171   5
   4  -4   5 12083.1 369.683   2
  -4   4  -5 11767.2 363.055   1
   4  -4   5 12024.0 387.252  13
  -4   4  -5 12259.5 354.622  12
   4  -4   5 12741.6 348.299  12
   4  -4   5 11935.1 347.980  10
  -4   4  -5 12512.8 343.374   7
   4  -4   5 13093.4 332.329   8
   4  -4   6 135.485 45.4334   2
  -4   4  -6 96.9420 39.3371   1
   4  -4   6 92.7727 24.9968   8
  -4   4  -6 146.767 36.9218   7
   4  -4   6 176.866 55.7409  13
   4  -4   6 102.688 37.3127  12
  -4   4  -6 48.7382 37.0470  12
   4  -4   6 66.0023 33.4359  10
  -4   4  -6 50.8314 46.5331   5
   4  -4   7 14203.6 413.312   2
  -4   4  -7 14770.2 431.767  12
   4  -4   7 14931.7 418.935  12
   4  -4   7 14634.5 457.240  13
   4  -4   7 14685.3 430.838  14
  -4   4  -7 14333.0 447.049   5
  -4   4  -7 14619.8 348.324   6
   4  -4   7 13908.6 403.055  10
  -4   4  -7 13984.2 414.594   7
   4  -4   7 14893.5 361.136   8
   4  -4   8 11074.9 369.231  13
  -4   4  -8 11405.0 362.598  12
   4  -4   8 10787.7 327.483   2
   4  -4   8 10537.7 322.904  10
  -4   4  -8 11654.5 350.261   7
   4  -4   9 177.151 58.3434  13
   4  -4   9 95.5983 39.4086   2
  -4   4  -9 139.624 56.3738  12
   4  -4   9 117.575 44.4794  10
  -4   4  -9 173.347 56.3723   7
  -4   4 -10 2704.59 169.303  12
  -4   4 -10 2706.36 157.605   7
   4  -4  10 2570.37 153.132  13
  -4   4 -11 3605.68 203.381  12
  -4   4 -11 3776.80 196.735   7
   4  -4  11 3391.26 180.581  13
  -4   4 -12 1352.22 132.439  12
   4  -4  12 1486.90 121.352  13
  -4   4 -12 1543.56 135.433   7
  -4   4 -13 282.126 84.0685  12
  -4   4 -13 286.427 82.4914   7
   4  -4  13 297.677 76.1636  13
  -4   4 -14-32.7361 74.9249   7
   4  -4  14 14.1356 65.4805  13
  -4   3  16 731.367 117.195   3
  -4   3  15 531.163 100.568   9
  -4   3  15 426.547 97.6741   3
   4  -3 -15 423.156 87.3829  14
  -4   3  14 556.459 105.327   9
  -4   3  14 570.286 101.953   3
   4  -3 -14 549.409 88.9811  14
   4  -3 -13 3149.34 180.938  14
  -4   3  13 3339.21 204.523   3
  -4   3  13 3308.64 213.245   9
   4  -3 -12 6673.99 272.674  14
   4  -3 -12 7387.76 281.343   4
  -4   3  12 6977.88 295.662   3
  -4   3  12 6413.90 294.291   9
   4  -3 -11 1515.62 113.489   4
  -4   3  11 1499.79 120.606   3
   4  -3 -11 1344.92 112.608  14
   4  -3 -10 4582.52 204.435  14
  -4   3  10 4606.00 190.768  14
  -4   3  10 4650.46 195.824   8
   4  -3 -10 4362.83 192.523   4
  -4   3  10 4552.08 204.630   3
   4  -3  -9 18062.3 511.637   4
   4  -3  -9 17485.6 501.333   3
   4  -3  -9 17587.9 508.159  14
  -4   3   9 18580.1 497.515  14
  -4   3   9 18035.9 521.393   8
   4  -3  -9 18401.4 520.003   8
   4  -3  -8 2277.46 121.987   4
   4  -3  -8 2279.44 116.656   3
   4  -3  -8 2094.20 114.298  14
  -4   3   8 2259.01 108.989  14
  -4   3   8 2523.20 140.361   8
   4  -3  -8 2461.07 132.636   8
   4  -3  -7 524.393 61.6893   1
   4  -3  -7 557.695 55.2125  14
  -4   3   7 514.682 49.7862  14
   4  -3  -7 598.907 64.9172   8
  -4   3   7 491.603 72.3944   8
   4  -3  -7 606.298 61.1308   4
   4  -3  -7 625.264 57.0274   3
   4  -3  -6 4249.46 158.769   3
  -4   3   6 3739.76 157.032   3
   4  -3  -6 4396.66 166.520   4
   4  -3  -6 4275.05 151.430  14
  -4   3   6 4333.34 147.259  14
   4  -3  -6 4304.49 174.302   1
  -4   3   6 4323.49 173.173   1
  -4   3   6 4688.49 202.903   8
   4  -3  -6 4331.44 176.623   8
  -4   3   5 6685.48 215.371   3
   4  -3  -5 6772.36 219.742   4
   4  -3  -5 6741.65 212.922   3
  -4   3   5 6645.43 195.032  14
   4  -3  -5 6713.51 201.272  14
   4  -3  -5 6400.08 169.093  13
   4  -3  -5 6886.13 237.522   1
  -4   3   5 6632.48 237.929   1
   4  -3  -5 6918.89 207.257   9
  -4   3   5 7088.02 253.719   8
   4  -3  -5 6763.16 203.156   7
  -4   3   4 9491.59 282.739   3
  -4   3   4 10226.8 326.921   1
   4  -3  -4 9458.89 315.127   1
  -4   3   4 9942.12 262.891  14
   4  -3  -4 10331.5 268.951  14
   4  -3  -4 9839.22 247.671  13
   4  -3  -4 9453.76 234.465  11
  -4   3   4 10181.7 317.615   8
   4  -3  -4 10802.4 281.095   9
   4  -3  -4 10182.1 271.268   7
  -4   3   3 15767.7 412.415   3
  -4   3   3 16990.2 480.228   1
   4  -3  -3 15539.1 394.545  14
   4  -3  -3 15702.5 386.921  13
   4  -3  -3 15572.5 409.136   5
   4  -3  -3 16039.6 397.648  12
   4  -3  -3 15437.2 375.087  11
  -4   3   3 16452.7 443.637   8
   4  -3  -3 15689.8 397.650   7
   4  -3  -2 274.212 27.6085  14
   4  -3  -2 258.760 28.0664  13
   4  -3  -2 268.286 30.8736   7
   4  -3  -2 292.712 31.0371  12
   4  -3  -2 251.145 31.7867   5
   4  -3  -1 88906.3 2058.17  13
   4  -3  -1 93205.4 2050.11  12
  -4   3   1 88129.7 2051.40  12
  -4   3   1 85620.8 2156.63   1
   4  -3  -1 89818.2 2046.46   7
  -4   3   1 88115.6 2050.40   7
   4  -3   0 78340.5 1738.50  12
   4  -3   0 72996.8 1714.22   6
  -4   3   0 75045.6 1740.91  12
   4  -3   0 75063.1 1756.34  13
  -4   3   0 77390.3 1736.74   7
   4  -3   0 76471.5 1731.97   7
   4  -3   1 301.521 17.9473   6
   4  -3   1 341.236 56.5604   2
   4  -3   1 370.957 34.6806  12
  -4   3  -1 397.945 33.7533   7
   4  -3   1 303.447 31.0277   7
   4  -3   1 331.706 42.8667   8
   4  -3   2 6891.85 194.496  12
   4  -3   2 6581.78 242.334   2
  -4   3  -2 6374.17 234.529   1
   4  -3   2 6271.10 152.750   6
   4  -3   2 7212.83 218.796   8
  -4   3  -2 6510.65 188.350   7
   4  -3   2 6653.46 184.607   7
   4  -3   3 13999.4 396.449   5
   4  -3   3 14345.6 371.812  12
  -4   3  -3 14468.9 378.956  12
  -4   3  -3 13826.1 409.950   1
   4  -3   3 13610.2 413.408   2
   4  -3   3 14329.4 393.802  10
   4  -3   3 15091.6 394.101   8
   4  -3   3 14444.8 363.040   7
   4  -3   4 7445.53 269.096  13
  -4   3  -4 7620.46 232.926  12
   4  -3   4 7553.16 225.987  12
   4  -3   4 7259.55 251.390   2
  -4   3  -4 7235.17 179.283   6
   4  -3   4 7708.06 228.430   8
   4  -3   4 7173.39 235.196  10
   4  -3   4 7916.73 251.198   5
   4  -3   5 3134.63 146.349   5
   4  -3   5 3375.76 139.851  14
   4  -3   5 3119.98 159.076  13
  -4   3  -5 3054.01 133.916  12
   4  -3   5 3216.97 131.669  12
   4  -3   5 3213.00 144.035   2
  -4   3  -5 3167.96 90.5364   6
  -4   3  -5 3349.93 162.617   5
   4  -3   5 2873.02 131.847  10
   4  -3   5 3307.85 120.140   8
  -4   3  -5 2969.35 121.318   7
   4  -3   6 1424.03 101.370   5
   4  -3   6 1405.11 92.4537   2
  -4   3  -6 1525.34 95.6424  12
   4  -3   6 1664.73 95.9766  12
   4  -3   6 1454.24 96.8346  14
   4  -3   6 1243.91 103.402  13
  -4   3  -6 1508.12 58.4096   6
  -4   3  -6 1446.66 112.405   5
   4  -3   6 1365.84 66.9111   8
   4  -3   6 1393.38 88.3579  10
  -4   3  -6 1577.06 88.2838   7
   4  -3   7 2223.29 111.523   2
  -4   3  -7 2076.49 120.805  12
   4  -3   7 1840.38 125.641  13
   4  -3   7 2271.26 130.611  14
  -4   3  -7 1915.24 127.177   5
  -4   3  -7 2110.17 81.2167   6
   4  -3   7 1994.04 108.186  10
  -4   3  -7 2162.46 112.597   7
   4  -3   7 2134.92 79.4668   8
   4  -3   8 12408.3 364.293   2
  -4   3  -8 13046.1 407.092  12
   4  -3   8 13096.0 409.866  13
  -4   3  -8 12873.9 406.089   5
   4  -3   8 12810.0 376.060  10
  -4   3  -8 13654.6 392.115   7
  -4   3  -9 3800.61 188.647  12
   4  -3   9 3452.34 138.514   2
   4  -3   9 3533.08 177.638  13
  -4   3  -9 3663.20 172.504   7
  -4   3 -10 136.088 62.4995   7
   4  -3  10 99.8740 60.8547  13
  -4   3 -10 62.6054 57.8291  12
  -4   3 -11 4256.38 225.956  12
  -4   3 -11 4364.51 216.422   7
   4  -3  11 4231.48 203.632  13
  -4   3 -12 3372.23 202.946  12
   4  -3  12 3317.76 183.843  13
  -4   3 -12 3418.53 190.301   7
  -4   3 -13 343.536 92.9705  12
   4  -3  13 552.256 87.5378  13
  -4   2  16 746.355 113.997   3
   4  -2 -16 752.171 102.894  12
   4  -2 -15-21.3221 62.2679  12
  -4   2  15 71.3834 71.7361   9
  -4   2  15 85.6291 78.8442   3
  -4   2  14 145.803 74.8577   9
  -4   2  14 150.200 75.5858   3
   4  -2 -14 264.370 72.2825  14
   4  -2 -13 1388.06 114.411  14
  -4   2  13 1565.40 139.519   3
  -4   2  13 1230.86 130.612   9
   4  -2 -12 3858.47 189.940  14
   4  -2 -12 4067.56 203.567   4
  -4   2  12 3772.04 210.822   3
  -4   2  12 3833.11 208.840   9
   4  -2 -11 3737.52 177.947  14
  -4   2  11 3750.20 177.370  14
  -4   2  11 3230.56 180.037   9
   4  -2 -11 3510.09 180.525   4
   4  -2 -10 283.652 48.5165   1
  -4   2  10 240.728 56.0070  14
   4  -2 -10 264.120 55.0976  14
  -4   2  10 278.707 23.3310  11
   4  -2 -10 323.031 60.5431   8
   4  -2 -10 252.425 56.6114   4
   4  -2  -9 15152.1 440.264   4
   4  -2  -9 15043.9 412.602   1
   4  -2  -9 15240.4 428.720   3
   4  -2  -9 13862.4 429.019  14
  -4   2   9 15032.2 416.512  14
  -4   2   9 14291.2 345.920  11
  -4   2   9 14589.7 435.459   9
   4  -2  -9 15216.3 431.135   8
   4  -2  -8 31433.8 799.742   4
  -4   2   8 30282.8 793.060   3
   4  -2  -8 31744.7 784.270   3
   4  -2  -8 31602.4 780.364   1
   4  -2  -8 31005.1 786.562  14
  -4   2   8 32084.8 768.748  14
  -4   2   8 29913.3 706.498  11
  -4   2   8 31700.4 793.708   9
   4  -2  -8 31886.1 791.877   8
   4  -2  -7 1129.18 75.7528   3
  -4   2   7 1190.24 81.2164   3
   4  -2  -7 1132.54 81.0409   4
   4  -2  -7 1123.97 81.6850   1
   4  -2  -7 1356.18 80.5952  14
  -4   2   7 1049.16 65.7510  14
  -4   2   7 1137.86 78.9124   9
   4  -2  -7 1166.97 82.6066   8
   4  -2  -6 7299.04 230.086   3
  -4   2   6 7767.00 238.520   3
   4  -2  -6 7572.71 244.477   4
   4  -2  -6 7201.59 218.486  14
  -4   2   6 7138.96 209.755  14
   4  -2  -6 7122.24 244.868   1
   4  -2  -6 7192.29 178.234  11
   4  -2  -6 7610.51 225.921   9
  -4   2   6 7389.75 233.996   9
   4  -2  -6 7448.22 243.984   8
   4  -2  -5 5170.68 159.973  14
  -4   2   5 5183.64 154.291  14
   4  -2  -5 5150.02 130.040  13
   4  -2  -5 5206.81 133.646  11
  -4   2   5 5115.94 177.374   3
  -4   2   5 5286.42 178.070   9
   4  -2  -5 5157.02 198.038   1
  -4   2   4 5895.02 190.821   3
   4  -2  -4 6051.42 223.050   1
   4  -2  -4 5683.49 154.656  11
  -4   2   4 6151.78 167.617  14
   4  -2  -4 6105.24 156.956  13
   4  -2  -4 6466.44 172.257  14
  -4   2   4 6128.96 192.675   9
   4  -2  -4 6302.67 177.380   7
   4  -2  -3 2731.82 68.4626  13
   4  -2  -3 2968.92 69.5713  14
  -4   2   3 2807.22 90.7813   3
   4  -2  -3 2689.92 62.6479  11
   4  -2  -3 2869.10 73.9416  12
   4  -2  -3 2883.85 74.8714   7
   4  -2  -2 1598.23 64.2672  12
   4  -2  -2 1512.73 61.4434  11
   4  -2  -2 1623.97 69.5359  13
   4  -2  -2 1548.93 58.9940  14
   4  -2  -2 1618.16 63.4220   7
  -4   2   1 4359.40 134.705  12
   4  -2  -1 4590.11 131.882   6
   4  -2  -1 4511.81 133.869  12
  -4   2   1 4517.81 131.938   7
   4  -2  -1 4485.85 130.749   7
   4  -2   0 21610.2 507.372   7
  -4   2   0 21255.3 508.761   7
   4  -2   0 21059.1 513.245  12
   4  -2   0 20595.4 502.899   6
  -4   2   0 21684.5 515.849  12
   4  -2   0 21264.1 547.502   8
   4  -2   0 21217.6 528.742   3
  -4   2  -1 30571.3 715.385   7
   4  -2   1 30838.6 713.022   7
   4  -2   1 31333.0 723.613  12
  -4   2  -1 29934.3 724.588  12
   4  -2   1 28383.9 789.398   2
   4  -2   1 30477.8 752.490   8
   4  -2   1 29851.2 704.445   6
   4  -2   2 124.783 38.9489   2
  -4   2  -2 110.241 20.7062   7
   4  -2   2 79.5186 26.3070   8
   4  -2   2 124.570 21.5876   7
  -4   2  -2 155.023 17.2910   6
   4  -2   2 105.229 15.7114   6
   4  -2   2 207.744 29.9478  12
   4  -2   2 93.8792 31.6912  10
   4  -2   2 108.334 29.8172   5
   4  -2   3 23862.0 591.421  14
   4  -2   3 23648.6 582.436  12
   4  -2   3 22482.5 620.943   2
  -4   2  -3 23597.6 552.023   6
   4  -2   3 23462.0 602.914   5
   4  -2   3 24327.4 599.568   8
   4  -2   3 24059.9 611.556  10
  -4   2  -3 22347.7 568.044   7
   4  -2   4 24531.2 611.088   5
   4  -2   4 23292.3 602.626  14
  -4   2  -4 22766.8 592.060  12
   4  -2   4 24946.1 595.054  12
   4  -2   4 22919.5 617.254   2
  -4   2  -4 23281.2 555.058   6
   4  -2   4 22812.8 608.912  10
  -4   2  -4 22888.7 573.495   7
   4  -2   5 2227.54 117.157  14
  -4   2  -5 2120.86 107.481  12
   4  -2   5 2381.69 111.324  12
   4  -2   5 2425.98 119.388   2
  -4   2  -5 2322.24 83.1662   6
   4  -2   5 2170.74 98.2688   8
   4  -2   5 2171.97 113.402  10
   4  -2   5 2202.26 115.076   5
   4  -2   6 555.014 64.0255   5
   4  -2   6 515.156 66.2862  14
  -4   2  -6 507.995 57.3823  12
   4  -2   6 552.363 59.3465   2
  -4   2  -6 444.768 38.5560   6
   4  -2   6 455.385 57.0584  10
   4  -2   6 534.579 45.5919   8
  -4   2  -6 489.294 52.1551   7
   4  -2   7 1936.23 117.336   5
   4  -2   7 1918.43 102.038   2
   4  -2   7 1889.72 122.424  14
  -4   2  -7 2127.61 89.4756   6
   4  -2   7 1898.23 82.8058   8
  -4   2  -7 1890.84 102.482   7
  -4   2  -7 2046.94 118.759  12
  -4   2  -8 1027.70 82.4659   7
  -4   2  -8 1047.05 92.8550  12
   4  -2   9 4381.00 199.183  13
  -4   2  -9 4527.35 193.987   7
  -4   2  -9 4394.11 212.448  12
   4  -2  10 2296.26 142.304  13
  -4   2 -10 2358.02 157.914  12
  -4   2 -10 2117.47 140.993   7
   4  -2  11 666.634 91.0868  13
  -4   2 -11 621.900 90.1389   7
  -4   2 -11 691.608 98.2960  12
   4  -2  12 3838.83 194.461  13
  -4   2 -12 3765.19 194.776   7
  -4   2 -12 3794.99 208.851  12
   4  -2  13 1688.21 133.361  13
  -4   2 -13 1729.15 146.421  12
   4  -1 -16 3445.17 187.600  12
  -4   1  16 3197.77 211.107   9
  -4   1  16 3047.17 204.446   3
   4  -1 -15 639.900 94.5935  12
  -4   1  15 557.314 108.194   9
  -4   1  15 675.217 105.191   3
  -4   1  14 1347.26 142.477   9
  -4   1  14 1222.27 131.253   3
   4  -1 -14 1220.09 108.620  12
  -4   1  13 2475.84 173.277   9
   4  -1 -12 1390.40 108.422  14
  -4   1  12 1673.02 130.728   9
   4  -1 -12 1537.66 107.988   8
  -4   1  11 2865.32 171.756   3
   4  -1 -11 3159.38 175.432   4
   4  -1 -11 2881.89 125.708   1
   4  -1 -11 2908.14 151.248  14
  -4   1  11 3170.92 160.016  14
  -4   1  11 3222.62 170.220   9
   4  -1 -11 3087.20 147.814   8
   4  -1 -10 1317.22 106.992   4
  -4   1  10 1173.94 101.336   3
   4  -1 -10 1248.08 80.8088   1
   4  -1 -10 1188.46 92.2453  14
  -4   1  10 1198.13 91.8854  14
  -4   1  10 1176.85 56.7840  11
  -4   1  10 1314.03 101.885   9
   4  -1 -10 1312.31 92.6675   8
   4  -1  -9 2065.46 125.337   4
  -4   1   9 2035.13 122.683   3
   4  -1  -9 1922.57 103.873   1
   4  -1  -9 1824.76 108.890  14
  -4   1   9 2027.25 107.092  14
  -4   1   9 1999.35 73.4345  11
  -4   1   9 1904.42 116.794   9
   4  -1  -9 1907.39 108.060   8
   4  -1  -8 18935.9 525.211   4
  -4   1   8 17899.0 511.900   3
   4  -1  -8 18142.3 500.284   1
   4  -1  -8 18903.7 507.793   3
   4  -1  -8 18486.7 500.518  14
  -4   1   8 18594.1 484.050  14
  -4   1   8 18520.5 445.476  11
  -4   1   8 18204.5 506.779   9
   4  -1  -8 18571.8 500.017   8
   4  -1  -7 27220.1 665.216  14
  -4   1   7 26628.3 639.358  14
   4  -1  -7 23545.7 607.114  11
  -4   1   7 27033.3 610.853  11
   4  -1  -7 26116.1 670.503   1
   4  -1  -7 24565.8 657.128   3
   4  -1  -7 26698.0 667.826   8
  -4   1   7 25847.0 666.401   9
   4  -1  -7 27751.2 689.307   4
  -4   1   7 26583.1 671.789   3
   4  -1  -6 1495.83 77.2652  14
  -4   1   6 1538.40 66.9071  14
  -4   1   6 1491.24 56.7978  11
   4  -1  -6 1314.11 53.9872  11
   4  -1  -6 1438.27 90.6524   1
   4  -1  -6 1562.86 79.9531   9
   4  -1  -6 1481.66 86.8242   8
  -4   1   6 1430.18 83.9868   9
  -4   1   6 1369.53 82.8000   3
   4  -1  -6 1459.38 91.2043   4
   4  -1  -5 26142.0 603.655  13
   4  -1  -5 26471.5 635.713  14
  -4   1   5 26219.8 622.331  14
   4  -1  -5 26739.5 618.149  11
   4  -1  -5 26010.4 685.878   1
  -4   1   5 25731.6 697.714   2
  -4   1   5 26249.3 659.468   9
  -4   1   5 26211.7 658.043   3
   4  -1  -4 19158.7 486.935  14
  -4   1   4 20605.6 480.397  14
   4  -1  -4 18935.1 551.297   1
   4  -1  -4 20961.9 486.999  11
  -4   1   4 21293.2 522.402   9
  -4   1   4 21020.6 518.349   3
   4  -1  -4 19579.5 529.325   4
   4  -1  -3 2397.87 75.6716  14
   4  -1  -3 2416.08 96.3685   6
   4  -1  -3 2641.72 83.5383  12
   4  -1  -3 2590.17 86.7205  11
   4  -1  -3 2554.36 85.5215   7
   4  -1  -3 2580.30 100.385   3
  -4   1   3 2493.35 99.7473   3
  -4   1   2 152.914 41.1590   2
   4  -1  -2 143.406 27.1531   3
   4  -1  -2 150.793 14.1346  14
   4  -1  -2 193.665 19.2327  12
   4  -1  -2 149.607 22.9714   6
   4  -1  -2 149.958 22.0166  11
   4  -1  -2 190.742 20.4441   7
   4  -1  -1 1362.47 49.8090   7
   4  -1  -1 1318.06 51.9385  12
   4  -1  -1 1265.58 58.3330   6
   4  -1  -1 1276.39 61.3310  11
  -4   1   1 1196.01 51.1480  12
   4  -1  -1 1283.96 64.3774   3
  -4   1   1 1360.21 101.736   2
   4  -1   0 2145.56 68.1747   7
  -4   1   0 1914.35 69.1584   7
   4  -1   0 2320.21 77.4016  12
   4  -1   0 2225.27 78.6006   6
  -4   1   0 2076.42 75.6551  12
   4  -1   0 2197.54 88.6898   3
  -4   1   0 2237.15 127.391   2
   4  -1   1 18907.3 450.389  12
  -4   1  -1 18599.9 449.003  12
  -4   1  -1 19274.2 524.487   2
   4  -1   1 18481.8 520.304   2
   4  -1   1 18726.8 444.204   6
   4  -1   1 18744.8 475.715   5
  -4   1  -1 18625.1 445.550   6
   4  -1   1 18920.9 456.057  14
   4  -1   1 18503.6 435.496   7
   4  -1   2 21298.3 532.460  14
  -4   1  -2 21113.2 519.142  12
   4  -1   2 21258.4 522.278  12
   4  -1   2 20067.0 571.292   2
  -4   1  -2 21406.8 576.819   2
   4  -1   2 21039.5 505.224   6
  -4   1  -2 21214.6 507.994   6
   4  -1   2 22101.4 543.134   5
   4  -1   2 21281.3 561.256  10
  -4   1  -2 20311.4 501.211   7
   4  -1   3 2866.07 125.359  14
   4  -1   3 2996.95 114.088  12
   4  -1   3 2744.72 133.873   2
   4  -1   3 2840.04 121.344   5
   4  -1   3 2799.63 92.8330   6
  -4   1  -3 2726.41 95.4411   6
   4  -1   3 2621.58 128.074  10
  -4   1  -3 2645.64 92.7899   7
   4  -1   4 29404.6 737.329  14
  -4   1  -4 28385.9 713.744  12
   4  -1   4 27493.8 735.927   2
   4  -1   4 30275.2 726.273   5
  -4   1  -4 28829.8 687.952   6
   4  -1   4 28403.2 738.091  10
  -4   1  -4 28254.6 688.512   7
   4  -1   5 13582.5 398.703  14
  -4   1  -5 13780.1 385.433  12
   4  -1   5 13240.7 389.678   2
  -4   1  -5 13544.5 353.796   6
   4  -1   5 13500.4 399.091  10
   4  -1   5 13702.9 386.775   5
   4  -1   6 656.834 64.3040   2
   4  -1   6 695.097 71.0539  14
  -4   1  -6 694.901 52.5094   6
  -4   1  -6 517.531 62.1133  12
   4  -1   6 768.825 70.5491   5
  -4   1  -6 614.655 55.1674   7
   4  -1   7 1945.18 120.679  14
  -4   1  -7 2175.63 126.217  12
   4  -1   7 1960.64 115.208   5
  -4   1  -7 1944.28 104.305   7
  -4   1  -7 2092.68 98.6606   6
  -4   1  -8 1542.70 100.422   7
  -4   1  -8 1596.48 117.430  12
   4  -1   8 1749.76 114.945   5
  -4   1  -9 1752.87 133.355  12
  -4   1  -9 1574.72 110.302   7
  -4   1 -10 1312.30 116.652  12
  -4   1 -10 1168.47 106.631   7
   4  -1  11 178.277 64.4071  13
  -4   1 -11 143.881 67.7099  12
  -4   1 -11 107.743 58.4562   7
  -4   1 -12 946.152 112.400  12
   4  -1  12 1110.16 111.068  13
   4  -1  13 1387.67 126.277  13
  -4   1 -13 1543.18 138.308  12
   4   0 -17 543.483 93.3836  12
   4   0 -16 2776.88 165.191  12
  -4   0  16 2997.84 199.954   3
  -4   0  16 2815.42 201.348   9
  -4   0  15 3191.84 218.470   9
   4   0 -15 3582.15 184.715  12
  -4   0  14 341.733 89.9990   9
   4   0 -14 252.480 68.6423  12
   4   0 -13 5989.78 235.614  12
   4   0 -13 5829.63 220.636   8
  -4   0  13 6119.70 275.248   9
  -4   0  13 5668.05 274.162   3
   4   0 -12 7506.09 255.350   8
  -4   0  12 8006.57 303.085   9
  -4   0  12 7388.63 314.920   3
   4   0 -12 7274.71 230.985   1
  -4   0  11 1455.86 122.842   3
  -4   0  11 1594.53 108.930  14
  -4   0  11 1615.41 116.644   9
   4   0 -11 1567.46 98.9092   8
   4   0 -11 1480.27 88.1702   1
  -4   0  10 59.2818 47.6612   4
   4   0 -10-14.2289 52.0508   4
  -4   0  10 19.8409 40.4305   3
   4   0 -10-7.45932 34.3556   1
  -4   0  10 19.3820 39.2614  14
   4   0 -10 39.5501 28.1720  10
  -4   0  10 32.7843 24.3494  11
  -4   0  10 109.775 45.1510   9
   4   0 -10 24.2068 34.4065   8
  -4   0   9 1577.60 107.118   3
   4   0  -9 1568.08 115.289   4
  -4   0   9 1535.72 109.192   4
   4   0  -9 1385.67 88.5387   1
  -4   0   9 1681.97 94.5406  14
  -4   0   9 1454.45 68.8805  11
  -4   0   9 1488.50 99.6513   9
   4   0  -9 1511.30 82.1784  10
   4   0  -9 1424.71 89.2917   8
  -4   0   8 3598.67 157.384   2
   4   0  -8 3547.54 149.793   1
  -4   0   8 3481.50 115.141  11
   4   0  -8 3305.29 141.963  14
  -4   0   8 3319.39 132.433  14
   4   0  -8 3634.25 143.518  10
   4   0  -8 3495.27 143.808   8
  -4   0   8 3594.06 151.029   9
   4   0  -8 3592.50 168.065   4
  -4   0   8 3359.72 153.505   3
  -4   0   7 14631.5 430.238   2
   4   0  -7 14107.3 416.522   1
   4   0  -7 14478.3 401.607  14
  -4   0   7 14513.7 380.853  14
   4   0  -7 15107.0 367.678  11
  -4   0   7 14855.5 370.726  11
   4   0  -7 16050.4 424.478  10
   4   0  -7 15073.0 409.133   8
  -4   0   7 14680.3 411.290   9
   4   0  -7 14363.4 434.422   4
  -4   0   7 14332.2 427.572   4
  -4   0   7 14408.6 416.291   3
  -4   0   6 20632.7 561.176   2
   4   0  -6 20832.4 547.822   1
   4   0  -6 18451.8 460.711  13
   4   0  -6 20810.0 515.064  14
  -4   0   6 21061.9 491.552  14
  -4   0   6 21417.3 493.071  11
   4   0  -6 21695.4 490.000  11
  -4   0   6 20954.6 529.087   9
   4   0  -6 21942.4 556.689  10
   4   0  -6 21239.5 531.217   8
   4   0  -6 21207.7 555.675   4
  -4   0   6 20678.8 530.553   3
  -4   0   6 20902.4 543.521   4
   4   0  -6 20374.7 524.666   3
  -4   0   5 1572.96 56.5989  14
   4   0  -5 1521.31 72.3319  14
   4   0  -5 1452.44 95.2424   1
  -4   0   5 1507.21 103.116   2
  -4   0   5 1666.31 68.1968  11
   4   0  -5 1524.15 64.1359  11
  -4   0   5 1593.14 84.1460   9
   4   0  -5 1594.86 96.0850   4
  -4   0   5 1737.55 85.4031   3
   4   0  -5 1754.07 85.2738   3
   4   0  -4 51136.3 1114.13  11
  -4   0   4 49932.4 1114.36  11
   4   0  -4 49725.9 1096.47  12
   4   0  -4 47320.6 1098.35  14
   4   0  -4 48030.2 1134.58   6
  -4   0   4 50856.0 1133.98   3
   4   0  -4 49294.6 1132.04   3
   4   0  -3 34148.1 791.932   7
   4   0  -3 33468.9 821.488   6
   4   0  -3 34012.4 808.087  11
   4   0  -3 35376.1 786.361  12
   4   0  -3 33676.9 817.508   3
  -4   0   3 33016.5 816.750   3
  -4   0   3 32024.2 889.534   2
  -4   0   2 173.241 47.4353   2
   4   0  -2 106.057 22.8941   3
   4   0  -2 143.726 15.6296   7
   4   0  -2 135.627 15.1301  12
   4   0  -2 210.696 28.3108   6
   4   0  -2 183.137 26.1082  11
   4   0  -2 212.678 32.5070   4
  -4   0   1 10839.8 349.968   2
   4   0  -1 9795.14 243.230  14
   4   0  -1 10689.5 251.274  12
   4   0  -1 10711.6 274.541   6
   4   0  -1 9977.85 277.541  11
  -4   0   1 9426.46 248.149  12
   4   0  -1 10357.2 271.641   3
   4   0  -1 10084.7 289.685   4
   4   0  -1 10315.7 242.471   7
  -4   0   0 7690.42 273.011   2
   4   0   0 7189.02 201.937  14
   4   0   0 7651.66 195.922  12
  -4   0   0 7473.72 206.545   6
   4   0   0 7564.79 207.762   6
  -4   0   0 6704.03 189.278  12
   4   0   0 7185.44 218.365   4
   4   0   0 7378.36 206.509   3
   4   0   0 7412.89 177.425   7
   4   0   1 3369.29 122.783  14
   4   0   1 3516.67 115.965  12
  -4   0  -1 3501.68 109.005  12
   4   0   1 3712.25 166.581   2
  -4   0  -1 3567.54 162.420   2
   4   0   1 3394.16 114.352   6
  -4   0  -1 3317.63 115.659   6
  -4   0  -1 3384.62 91.7141   7
   4   0   1 3179.95 121.935   4
   4   0   1 3649.48 117.708   3
   4   0   2 4901.36 158.091   4
   4   0   2 4791.02 168.539  14
  -4   0  -2 5123.32 154.473  12
   4   0   2 5170.16 172.204   5
   4   0   2 5142.68 153.805   6
  -4   0  -2 4892.03 152.918   6
   4   0   2 4904.25 197.260   2
  -4   0  -2 4963.56 198.012   2
   4   0   2 5153.16 196.418  10
  -4   0  -2 4866.16 132.077   7
   4   0   3 1518.59 86.0339  14
   4   0   3 1481.93 99.5350   2
  -4   0  -3 1642.79 101.115   2
   4   0   3 1497.33 69.0873   6
   4   0   3 1662.89 87.8310   5
  -4   0  -3 1515.87 72.8510   6
   4   0   3 1665.35 104.161  10
  -4   0  -3 1542.87 58.8924   7
  -4   0  -4 2991.69 123.275  12
   4   0   4 2856.26 131.206  14
   4   0   4 3164.00 129.141   5
  -4   0  -4 2923.96 112.788   6
  -4   0  -4 2950.87 137.908   2
  -4   0  -4 2811.76 100.068   7
   4   0   5 23533.9 599.063   5
  -4   0  -5 23380.6 579.148   6
  -4   0  -5 22509.4 600.056  12
   4   0   5 22625.2 607.922  14
  -4   0  -5 22730.6 567.194   7
  -4   0  -6 6765.31 254.010  12
  -4   0  -6 7804.63 237.553   6
   4   0   6 8439.90 258.373   5
   4   0   6 7421.15 259.970  14
   4   0   7 210.210 54.2176  14
  -4   0  -7 311.830 47.4174   6
  -4   0  -7 345.955 65.0814  12
   4   0   7 281.423 24.9856   4
   4   0   7 294.951 51.9733   5
  -4   0  -7 237.975 50.3171   7
  -4   0  -8 5704.98 243.981  12
   4   0   8 6063.05 225.929   5
  -4   0  -8 5804.09 215.672   7
  -4   0  -9 5015.49 226.792  12
  -4   0  -9 5369.93 217.195   7
  -4   0 -10 741.137 94.4718  12
  -4   0 -10 884.877 89.4599   7
  -4   0 -11 65.3738 59.7649  12
  -4   0 -12 45.3433 67.0774  12
   4   0  13 586.753 99.7239  13
   4   1 -17 27.6988 67.4685  12
   4   1 -16 1022.58 104.577  12
  -4  -1  16 785.830 131.490   9
   4   1 -15 2025.00 135.421  12
  -4  -1  15 1993.70 163.733   3
  -4  -1  15 2401.99 188.724   9
   4   1 -14 2338.04 137.245  12
  -4  -1  14 2005.97 164.544   9
  -4  -1  14 2067.31 163.379   3
  -4  -1  13 65.3861 65.0657   3
   4   1 -13 176.579 56.9441  12
  -4  -1  13 56.5685 56.3012   9
   4   1 -13 77.5903 48.4749   8
  -4  -1  12 9246.14 362.728   3
  -4  -1  12 9162.29 305.699  14
   4   1 -12 8540.09 294.478  12
   4   1 -12 9063.87 275.706   1
  -4  -1  12 8793.61 326.589   9
   4   1 -12 9492.38 289.275   8
  -4  -1  11 12460.8 432.065   3
  -4  -1  11 12872.7 386.082  14
   4   1 -11 12479.7 374.721  12
   4   1 -11 12764.1 365.635   1
  -4  -1  11 12841.1 354.412  11
  -4  -1  11 12864.1 405.104   9
   4   1 -11 12763.7 368.053   8
  -4  -1  10 478.831 73.5873   3
  -4  -1  10 513.765 61.3629   2
   4   1 -10 570.271 60.8000   1
   4   1 -10 509.661 60.3476  12
  -4  -1  10 548.686 49.7531  11
  -4  -1  10 501.198 65.9127   9
   4   1 -10 500.559 47.0301  10
   4   1 -10 540.066 58.3337   8
  -4  -1  10 616.639 77.0060   4
  -4  -1  10 397.889 58.3705  14
  -4  -1   9 7115.63 252.312   2
   4   1  -9 7132.57 241.280   1
  -4  -1   9 7625.65 242.696  14
  -4  -1   9 7123.05 246.992   9
   4   1  -9 7096.63 234.343   8
   4   1  -9 7334.72 224.570  10
   4   1  -9 6831.84 280.976   4
  -4  -1   9 7266.98 265.113   3
   4   1  -8 5264.71 206.065   1
  -4  -1   8 5607.84 217.965   2
  -4  -1   8 5638.86 189.853  14
   4   1  -8 6118.57 176.284  11
  -4  -1   8 6169.83 210.071   9
   4   1  -8 6258.93 204.099  10
   4   1  -8 5854.95 202.428   8
  -4  -1   8 5609.47 214.432   3
   4   1  -8 6007.48 244.169   4
  -4  -1   8 5664.61 231.906   4
  -4  -1   7 6554.54 233.888   2
  -4  -1   7 6342.52 181.531  14
   4   1  -7 6596.21 179.069  11
   4   1  -7 6326.30 195.530   9
   4   1  -7 6409.72 204.545   8
  -4  -1   7 6553.01 208.470   9
   4   1  -7 6574.82 214.626  10
   4   1  -7 6449.73 242.966   4
  -4  -1   7 6213.20 228.146   4
  -4  -1   7 6051.71 209.633   3
   4   1  -6 4041.70 153.799   3
  -4  -1   6 4046.36 179.923   2
   4   1  -6 3969.10 111.733  13
  -4  -1   6 3879.00 120.320  14
  -4  -1   6 4160.25 133.397  11
   4   1  -6 4044.17 130.913  11
  -4  -1   6 4154.96 153.662   9
   4   1  -6 4083.10 144.896   9
   4   1  -6 3746.76 173.900   4
  -4  -1   6 4169.94 154.632   3
  -4  -1   6 3916.07 166.373   4
  -4  -1   5 853.049 81.0077   2
  -4  -1   5 799.045 33.9313  14
   4   1  -5 783.207 40.3994  13
  -4  -1   5 871.079 51.7463  11
   4   1  -5 837.045 49.2452  11
   4   1  -5 970.760 62.1264   3
  -4  -1   5 880.818 65.9182   4
  -4  -1   5 880.815 58.3173   3
   4   1  -5 951.243 59.8503   9
   4   1  -4 2954.59 104.977  11
   4   1  -4 2648.37 75.7704  12
   4   1  -4 2842.60 111.766   9
   4   1  -4 2482.39 128.607   4
  -4  -1   4 2909.50 109.080   3
   4   1  -4 3131.34 113.680   3
  -4  -1   4 3105.35 123.630   4
   4   1  -3 57199.0 1311.83  12
   4   1  -3 59262.0 1356.20  11
   4   1  -3 60375.3 1402.72   4
   4   1  -3 59349.5 1356.49   3
  -4  -1   3 59658.7 1354.09   3
  -4  -1   3 58465.3 1455.02   2
   4   1  -3 59485.6 1368.48   6
  -4  -1   2 29799.5 785.732   2
   4   1  -2 27325.1 688.676   6
   4   1  -2 28183.8 643.372   7
   4   1  -2 28074.4 686.445  11
   4   1  -2 29612.4 742.013  10
   4   1  -2 27416.4 715.454   4
   4   1  -2 28137.1 676.902   3
   4   1  -1 1265.55 77.1490   4
   4   1  -1 1354.84 60.8955   3
  -4  -1   1 1295.31 66.3046   6
   4   1  -1 1235.86 66.1920   6
  -4  -1   1 1233.38 42.1466  12
  -4  -1   1 1426.48 91.5447  10
  -4  -1   1 1387.14 104.746   2
  -4  -1   0 11994.7 371.485   2
   4   1   0 11846.7 272.909  14
   4   1   0 11262.2 303.926   6
  -4  -1   0 11995.5 304.353   6
  -4  -1   0 11096.2 351.354  10
   4   1   0 11855.0 356.203  10
   4   1   0 11700.9 291.333   3
   4   1   0 11113.9 319.361   4
  -4  -1  -1 11974.9 374.047   2
   4   1   1 11908.3 302.374  14
  -4  -1  -1 11678.2 297.065  12
   4   1   1 11849.2 317.243   6
  -4  -1  -1 12006.8 317.527   6
   4   1   1 10644.8 328.518  11
  -4  -1  -1 12605.4 380.008  10
   4   1   1 11847.1 304.235   3
   4   1   1 11939.4 329.400   4
   4   1   2 1390.37 72.0079   4
  -4  -1  -2 1728.67 107.098   2
   4   1   2 1557.79 75.8058  14
  -4  -1  -2 1534.50 69.5082  12
   4   1   2 1476.46 72.4726   6
  -4  -1  -2 1443.18 74.3402   6
   4   1   2 1620.93 84.7592   5
   4   1   2 1576.99 90.8038  11
  -4  -1  -2 1460.99 108.252  10
  -4  -1  -2 1432.10 44.2334   7
   4   1   3 527.262 37.6620   4
   4   1   3 574.516 55.7061  14
   4   1   3 585.161 52.5792   5
   4   1   3 640.292 48.1504   6
  -4  -1  -3 519.225 47.1476   6
  -4  -1  -3 588.484 65.7528   2
   4   1   3 564.166 60.4336  11
  -4  -1  -3 588.229 71.7945  10
  -4  -1  -3 500.826 29.5461   7
   4   1   4 62.1151 31.6540   5
   4   1   4 84.5862 15.9284   4
  -4  -1  -4 109.030 39.9042   2
   4   1   4 159.773 41.6242   1
   4   1   4 13.9868 35.7349  14
  -4  -1  -4 84.0818 31.5117   6
   4   1   4 73.5995 29.4414   6
  -4  -1  -4 103.850 31.3695  12
  -4  -1  -4 118.341 43.7383  10
  -4  -1  -4 102.623 20.8406   7
   4   1   5 1653.97 106.938  14
  -4  -1  -5 1744.14 101.285  12
  -4  -1  -5 1940.97 108.912   2
   4   1   5 1706.81 98.1181   1
   4   1   5 1540.52 91.1125   5
  -4  -1  -5 1824.55 94.7910   6
  -4  -1  -5 1741.18 115.418  10
  -4  -1  -5 1748.75 77.9286   7
  -4  -1  -6 7205.79 259.251  12
  -4  -1  -6 7190.33 245.723   2
   4   1   6 7685.51 241.310   1
   4   1   6 7274.86 240.119   5
  -4  -1  -6 7465.33 240.869   6
  -4  -1  -6 7633.31 271.628  10
   4   1   6 6887.50 258.906  14
   4   1   7 1360.51 105.004  14
  -4  -1  -7 1473.39 112.719  12
  -4  -1  -7 1558.11 91.0510   7
   4   1   7 1676.87 102.417   5
  -4  -1  -7 1413.02 94.2227   6
  -4  -1  -8 2268.96 143.099  12
   4   1   8 2350.04 128.416   5
  -4  -1  -8 2441.87 127.543   7
  -4  -1  -9 6256.60 256.815  12
  -4  -1  -9 6659.85 242.342   7
  -4  -1 -10 2216.76 144.244  12
  -4  -1 -11-14.1065 66.4895  12
  -4  -1 -12 333.095 82.9252  12
   4   1  12 425.331 87.8303  11
   4   2 -17 1150.17 112.197  12
   4   2 -16 382.915 75.9874  12
  -4  -2  16 299.380 103.006   9
  -4  -2  16 310.951 79.7280   3
  -4  -2  15 1301.64 133.003   3
   4   2 -15 1300.71 105.247  12
  -4  -2  15 1333.47 144.740   9
  -4  -2  14 2526.33 178.498   3
   4   2 -14 2648.20 145.367  12
  -4  -2  14 2334.55 171.151   9
  -4  -2  13 958.985 103.474   9
   4   2 -13 932.301 88.1880  12
  -4  -2  12 1185.15 124.851   3
  -4  -2  12 1044.31 86.7643  14
   4   2 -12 1079.81 91.0355  12
  -4  -2  12 1074.90 83.1593   2
   4   2 -12 970.704 77.4651   1
  -4  -2  12 1184.91 108.002   9
   4   2 -12 1099.67 78.7723   8
   4   2 -11 11422.7 347.846   1
  -4  -2  11 11993.2 362.302   2
   4   2 -11 11666.9 355.121  12
  -4  -2  11 11849.0 356.125  14
  -4  -2  11 11720.1 340.095  11
   4   2 -11 11903.4 343.941   8
  -4  -2  11 11739.7 375.633   9
  -4  -2  11 12376.5 420.128   3
   4   2 -10 13616.3 394.015   1
  -4  -2  10 13884.2 407.444   2
  -4  -2  10 13317.5 387.141  14
   4   2 -10 12707.1 388.032  12
  -4  -2  10 13965.6 375.165  11
  -4  -2  10 13591.9 405.053   9
   4   2 -10 13710.8 384.830   8
  -4  -2  10 13208.6 434.658   3
  -4  -2   9 1236.27 92.2145   2
  -4  -2   9 1197.94 78.3557  14
   4   2  -9 1232.04 80.4961  12
   4   2  -9 1194.61 95.3597   6
   4   2  -9 1171.33 67.7921  11
  -4  -2   9 1107.34 70.2276  11
   4   2  -9 1103.42 76.3512   8
  -4  -2   9 954.033 79.0334   9
  -4  -2   9 1086.81 92.2483   3
  -4  -2   9 1077.58 96.5903   4
  -4  -2   8 14239.5 436.268   2
  -4  -2   8 15072.4 399.861  14
   4   2  -8 14245.8 349.768  13
   4   2  -8 13987.7 392.485  12
   4   2  -8 16219.4 437.366   6
   4   2  -8 14905.7 385.572  11
  -4  -2   8 15053.7 390.605  11
   4   2  -8 14183.6 402.860   8
  -4  -2   8 14818.9 410.999   9
  -4  -2   8 14759.8 426.734   3
  -4  -2   8 14699.6 453.829   4
  -4  -2   7 8276.88 296.562   2
  -4  -2   7 8602.59 241.224  14
   4   2  -7 8516.64 218.150  13
   4   2  -7 7841.60 234.356  12
   4   2  -7 9222.68 281.448   6
   4   2  -7 8613.26 243.112  11
  -4  -2   7 8573.13 245.591  11
   4   2  -7 8137.93 250.483   9
  -4  -2   7 8447.49 262.632   9
  -4  -2   7 8484.76 269.085   3
  -4  -2   7 8445.73 296.111   4
  -4  -2   6 1657.11 116.562   2
  -4  -2   6 1807.10 69.4890  14
   4   2  -6 1741.75 67.2986  13
   4   2  -6 1758.17 66.1747  12
   4   2  -6 1754.57 99.0840   6
   4   2  -6 1811.72 81.7645  11
  -4  -2   6 1798.78 83.3033  11
   4   2  -6 1728.50 85.6954   9
  -4  -2   6 1775.94 108.112   4
  -4  -2   6 1666.86 90.1748   3
  -4  -2   5 86.1027 11.6189  14
   4   2  -5 50.5327 20.3925  13
   4   2  -5 25.1243 37.3667   4
  -4  -2   5 64.1688 32.1995   4
   4   2  -5 57.1266 9.86059  12
   4   2  -5 40.0929 22.1395  11
  -4  -2   5 64.5223 26.1014  11
   4   2  -5 50.3638 23.5651   9
   4   2  -5 22.4508 26.4174   3
  -4  -2   5 85.4478 26.4246   3
  -4  -2   5 78.1602 45.8373   2
   4   2  -4 696.226 45.2794  13
   4   2  -4 613.644 47.5175  11
  -4  -2   4 607.656 48.2693  11
  -4  -2   4 605.619 45.4915   3
   4   2  -4 559.631 69.2407   4
  -4  -2   4 704.076 58.0455   4
   4   2  -4 655.178 51.3269   9
   4   2  -4 752.595 78.9436  10
   4   2  -4 588.641 49.2667   3
  -4  -2   3 5881.43 251.946   2
   4   2  -3 5563.14 145.692   7
   4   2  -3 5895.46 181.718  11
  -4  -2   3 5695.17 178.483  11
   4   2  -3 5587.05 179.710   9
  -4  -2   3 5545.34 206.952  10
   4   2  -3 5745.36 174.739   3
   4   2  -3 5670.47 222.445   4
  -4  -2   3 5879.77 188.361   4
  -4  -2   3 5525.49 167.038   3
  -4  -2   2 23297.2 582.117   6
   4   2  -2 23236.9 589.323   6
   4   2  -2 23316.7 633.531   4
  -4  -2   2 23091.8 580.680   4
   4   2  -2 23449.6 567.331   3
  -4  -2   2 23691.8 678.358   2
   4   2  -1 21200.1 513.733   3
   4   2  -1 20670.2 574.298   4
  -4  -2   1 21516.1 535.754   6
   4   2  -1 21010.1 539.626   6
  -4  -2   1 21046.6 483.050  12
  -4  -2   1 21641.6 590.525  10
  -4  -2   1 23085.3 626.093   2
  -4  -2   0 4679.81 204.160   2
   4   2   0 4411.77 119.152  14
  -4  -2   0 4221.39 117.220  12
   4   2   0 4605.21 155.429   6
  -4  -2   0 4459.76 152.309   6
   4   2   0 3889.34 154.472  11
  -4  -2   0 4059.86 191.548  10
   4   2   0 4324.66 163.454   4
   4   2   0 4495.35 130.648   3
  -4  -2  -1 31835.9 865.599   2
   4   2   1 33566.8 778.451  14
  -4  -2  -1 33433.3 776.931  12
   4   2   1 32892.4 806.411   6
  -4  -2  -1 33757.8 808.236   6
   4   2   1 36144.1 830.451  11
  -4  -2  -1 34212.0 887.546  10
   4   2   1 32258.9 775.496   3
   4   2   1 30764.5 801.801   4
  -4  -2  -2 10814.7 354.301   2
   4   2   2 11207.2 296.788  14
  -4  -2  -2 11314.3 295.415  12
   4   2   2 10754.3 311.108   6
  -4  -2  -2 11277.0 313.308   6
   4   2   2 10998.1 330.731  11
  -4  -2  -2 10914.6 375.650  10
   4   2   2 10680.4 281.478   3
   4   2   3 122.401 34.1665   5
  -4  -2  -3 155.140 44.7329   2
   4   2   3 112.705 31.4136  14
  -4  -2  -3 152.048 40.6886   6
   4   2   3 112.763 33.2318   6
   4   2   3 141.961 40.9868  11
  -4  -2  -3 52.7822 48.7921  10
  -4  -2  -3 113.956 14.4503   7
  -4  -2  -4 1188.16 92.1496   2
   4   2   4 1177.72 84.5652  14
  -4  -2  -4 1293.10 82.3259  12
   4   2   4 1135.12 76.0776   5
   4   2   4 1219.96 75.8545   6
  -4  -2  -4 1197.36 79.2567   6
   4   2   4 1263.33 95.4462  11
  -4  -2  -4 1339.52 106.076  10
  -4  -2  -4 1255.53 53.3326   7
  -4  -2  -5 1994.08 115.947   2
   4   2   5 1806.49 113.968  14
  -4  -2  -5 1997.40 112.313  12
   4   2   5 2051.17 104.076   5
  -4  -2  -5 1907.02 104.819   6
   4   2   5 2100.99 131.825  11
  -4  -2  -5 1977.96 129.036  10
  -4  -2  -5 2040.01 82.8796   7
   4   2   6 1845.71 123.846  14
  -4  -2  -6 1640.03 113.623  12
   4   2   6 1869.58 101.905   5
  -4  -2  -6 1754.10 104.980   6
   4   2   6 1773.88 132.215  11
  -4  -2  -6 1816.25 123.371  10
   4   2   6 1762.97 102.353   1
  -4  -2  -6 1785.75 107.945   2
  -4  -2  -7 3145.50 144.269   2
  -4  -2  -7 3458.75 141.791   7
  -4  -2  -7 3221.27 163.079  12
  -4  -2  -7 3360.30 158.402   6
  -4  -2  -7 3222.59 169.681  10
   4   2   7 3645.37 151.700   5
   4   2   7 3289.60 193.213  11
   4   2   8 234.589 78.2698  11
  -4  -2  -8 321.199 66.0839  10
   4   2   8 262.897 56.1165   5
  -4  -2  -8 144.033 56.8182  12
  -4  -2  -9 2293.36 141.238  12
   4   2   9 2187.25 157.719  11
  -4  -2 -10 2929.20 167.022  12
   4   2  10 3592.38 200.193  11
  -4  -2 -11 1030.48 108.040  12
   4   2  11 982.323 118.510  11
   4   2  12 49.1662 76.8124  11
  -4  -2 -12 43.8852 71.2678  12
   4   3 -17 40.4787 62.5097  12
   4   3 -16 2235.18 144.899  12
  -4  -3  16 2469.94 191.569   9
  -4  -3  16 2073.56 170.082   3
   4   3 -16 2649.59 203.860   6
   4   3 -15 3735.29 188.644  12
  -4  -3  15 3769.18 226.317   3
  -4  -3  15 4530.68 241.570   9
   4   3 -15 4450.83 264.121   6
   4   3 -14 567.052 78.1459  12
   4   3 -14 849.395 120.618   6
  -4  -3  14 606.727 93.9508   9
  -4  -3  14 656.945 105.092   3
   4   3 -13 272.867 59.7667  12
   4   3 -13 276.515 80.6162   6
  -4  -3  13 403.941 77.7753   9
  -4  -3  13 456.478 61.6471   2
  -4  -3  13 391.368 90.3424   3
   4   3 -12 75.7634 37.7327   8
   4   3 -12 48.1308 58.7161   6
   4   3 -12 106.087 47.7137  12
  -4  -3  12 61.7211 48.4790   9
  -4  -3  12 152.678 71.7828   3
  -4  -3  12 115.654 49.8029   2
   4   3 -12 73.0820 43.8844   1
  -4  -3  11 3428.55 166.776   2
  -4  -3  11 3685.01 158.442  14
   4   3 -11 3614.50 161.530  12
   4   3 -11 3401.34 185.295   6
  -4  -3  11 3669.56 154.275  11
   4   3 -11 3732.18 150.221   8
  -4  -3  11 3735.86 172.644   9
  -4  -3  11 3841.60 203.965   3
  -4  -3  10 10464.3 345.975   2
  -4  -3  10 10900.9 319.356  14
   4   3 -10 10200.4 264.561  13
   4   3 -10 9873.65 312.009  12
   4   3 -10 11068.4 361.244   6
  -4  -3  10 11071.8 317.809  11
  -4  -3  10 10861.6 336.065   9
   4   3 -10 11215.4 317.747   8
  -4  -3  10 10891.1 370.078   3
  -4  -3   9 12037.0 387.851   2
  -4  -3   9 12291.8 344.035  14
   4   3  -9 11513.9 299.385  13
   4   3  -9 11537.9 329.650  12
   4   3  -9 12304.7 383.398   6
   4   3  -9 12944.1 340.005  11
  -4  -3   9 12045.4 342.748  11
  -4  -3   9 11727.3 354.255   9
  -4  -3   9 13013.7 390.818   3
  -4  -3   9 11810.0 397.079   4
  -4  -3   8 194.023 51.9444   2
  -4  -3   8 150.336 42.0212   3
  -4  -3   8 86.2360 30.4619  14
   4   3  -8 121.777 25.0606  13
   4   3  -8 113.491 46.7450   6
   4   3  -8 116.408 26.8259  12
   4   3  -8 135.944 36.9125   9
  -4  -3   8 116.268 39.4396   9
  -4  -3   8 114.599 34.1579  11
   4   3  -8 96.4877 34.2688  11
  -4  -3   7 37964.0 1011.43   2
  -4  -3   7 37751.2 928.840  14
   4   3  -7 39194.9 915.172  13
   4   3  -7 39920.3 904.466  12
   4   3  -7 40206.9 979.500   6
  -4  -3   7 39953.5 943.917  11
   4   3  -7 37587.3 937.590  11
   4   3  -7 39290.1 940.556   9
  -4  -3   7 38227.9 949.509   9
  -4  -3   7 37686.7 959.496   3
  -4  -3   7 38674.5 1011.93   4
  -4  -3   6 12691.9 428.066   2
  -4  -3   6 13486.9 342.080  14
   4   3  -6 13164.9 312.063  12
   4   3  -6 13132.8 341.164  13
   4   3  -6 13763.2 388.996   6
   4   3  -6 13158.0 359.100  11
  -4  -3   6 13260.1 361.438  11
   4   3  -6 13020.3 358.605   9
  -4  -3   6 13720.0 412.281   4
  -4  -3   6 13708.2 370.020   3
  -4  -3   5 119.500 43.5685   4
  -4  -3   5 163.096 31.0343   3
  -4  -3   5 102.038 19.6725  14
   4   3  -5 80.9802 25.3926  13
   4   3  -5 82.2453 34.4011   6
   4   3  -5 117.559 29.9324  11
  -4  -3   5 155.896 31.5528  11
   4   3  -5 101.605 31.5541   9
  -4  -3   5 193.131 39.6571  10
   4   3  -5 86.8012 22.3265   7
   4   3  -4 2807.31 87.7643   7
   4   3  -4 2797.19 107.334  13
  -4  -3   4 2743.87 112.938  11
   4   3  -4 2856.39 115.792  11
   4   3  -4 2823.95 111.960   9
  -4  -3   4 2761.28 135.968  10
  -4  -3   4 2570.64 101.971   3
  -4  -3   4 2793.47 127.237   4
   4   3  -3 3196.88 88.1248   7
  -4  -3   3 3295.99 129.199   6
  -4  -3   3 3154.08 132.989   4
  -4  -3   3 3281.12 109.899   3
  -4  -3   3 3587.33 130.119  11
   4   3  -3 3347.65 125.604   9
  -4  -3   3 3672.30 161.502  10
  -4  -3   3 3315.21 193.936   2
   4   3  -3 3306.10 119.493   3
  -4  -3   2 5436.35 176.577  11
  -4  -3   2 5324.35 179.007   6
  -4  -3   2 5278.83 173.596   4
   4   3  -2 5393.36 159.558   3
  -4  -3   2 5765.17 256.377   2
  -4  -3   1 7717.49 303.482   2
  -4  -3   1 7991.02 207.951  14
   4   3  -1 7692.92 240.809   6
  -4  -3   1 7788.04 236.971   6
  -4  -3   1 7161.68 283.393  10
   4   3  -1 7379.26 205.209   3
  -4  -3   0 4956.15 222.915   2
   4   3   0 4975.31 136.775  14
  -4  -3   0 4477.79 152.539  14
  -4  -3   0 4950.54 130.130  12
   4   3   0 4840.78 173.227   6
  -4  -3   0 4929.01 172.125   6
   4   3   0 5226.85 181.450  11
  -4  -3   0 4979.15 224.533  10
   4   3   0 4758.49 136.966   3
  -4  -3  -1 10707.1 358.707   2
   4   3   1 10145.0 269.585  14
  -4  -3  -1 10799.0 295.491  14
  -4  -3  -1 10100.8 268.401  12
   4   3   1 10901.9 306.015   6
  -4  -3  -1 10776.6 305.585   6
   4   3   1 10810.7 317.350  11
  -4  -3  -1 10721.9 382.987  10
   4   3   1 10041.2 258.708   3
  -4  -3  -2 28238.9 754.545   2
   4   3   2 27532.9 673.520  14
  -4  -3  -2 28264.3 699.431  14
  -4  -3  -2 27686.3 677.096  12
   4   3   2 28104.5 699.503   6
  -4  -3  -2 28495.0 706.289   6
   4   3   2 29014.3 724.217  11
  -4  -3  -2 29052.1 787.698  10
   4   3   2 26836.4 648.908   3
   4   3   3 6963.99 180.985   3
   4   3   3 7415.75 215.766  14
   4   3   3 7684.28 227.593   6
  -4  -3  -3 7760.71 235.147   6
  -4  -3  -3 8188.89 273.373   2
   4   3   3 7768.33 253.159  11
  -4  -3  -3 8037.94 293.605  10
  -4  -3  -3 6397.84 160.754   7
  -4  -3  -3 6454.27 159.512   7
   4   3   4 268.695 47.0973   5
  -4  -3  -4 337.501 60.4331   2
   4   3   4 284.686 46.3573  14
  -4  -3  -4 291.793 52.7312  14
  -4  -3  -4 211.026 48.6011   6
   4   3   4 280.582 47.8418   6
  -4  -3  -4 323.453 54.1141  12
  -4  -3  -4 338.722 68.6894  10
   4   3   4 265.352 55.6494  11
  -4  -3  -4 293.244 24.1745   7
  -4  -3  -4 292.964 26.2350   7
  -4  -3  -5 6349.95 242.107   2
   4   3   5 6430.08 234.043  14
  -4  -3  -5 6472.82 235.693  12
  -4  -3  -5 6329.63 229.053   6
   4   3   5 6462.91 216.703   5
   4   3   5 7035.24 263.069  11
  -4  -3  -5 6380.07 261.874  10
  -4  -3  -5 6239.77 185.011   7
   4   3   6 5640.71 234.654  14
  -4  -3  -6 6093.32 233.134  12
   4   3   6 6207.17 260.785  11
   4   3   6 6576.26 213.997   5
  -4  -3  -6 6093.93 253.082  10
  -4  -3  -6 5693.44 225.933   2
   4   3   7 775.478 71.1116   5
   4   3   7 644.416 97.0575  11
  -4  -3  -7 765.949 89.7118  10
   4   3   7 745.889 61.1870   3
  -4  -3  -7 579.134 75.3671  12
   4   3   8 9.36812 69.8159  11
  -4  -3  -8 26.6190 54.7383  10
   4   3   8 21.4539 38.1965   3
  -4  -3  -8-11.8841 50.3142  12
  -4  -3  -9 118.586 56.1398  12
   4   3   9 17.7885 68.6866  11
  -4  -3  -9 145.547 68.8032  10
  -4  -3 -10 2139.03 144.422  12
   4   3  10 2398.34 171.695  11
  -4  -3 -11 2317.58 155.211  12
   4   3  11 2225.49 166.903  11
  -4  -4  17 2051.82 187.064   9
   4   4 -17 1469.93 128.445  12
   4   4 -16 332.964 88.2399   7
   4   4 -16 182.556 106.006   6
   4   4 -16 191.991 73.7023  12
  -4  -4  16 122.124 88.0854   9
  -4  -4  16 152.699 93.8613   3
   4   4 -15 4975.67 229.285  12
   4   4 -15 5543.96 255.928   7
  -4  -4  15 5480.47 262.744   9
  -4  -4  15 4945.07 267.466   3
  -4  -4  14 5065.38 202.502   2
   4   4 -14 5217.38 244.899   7
   4   4 -14 4737.00 220.466  12
  -4  -4  14 4839.32 261.309   3
  -4  -4  14 5329.62 243.282   9
   4   4 -14 5629.35 279.614   6
   4   4 -13 38.4159 56.7420   7
   4   4 -13 116.537 79.0510   6
   4   4 -13 82.0665 55.2649  12
  -4  -4  13 20.0793 55.4692   9
  -4  -4  13 106.370 50.9906   2
  -4  -4  13-106.909 82.2981   3
   4   4 -12 481.300 58.3461   8
   4   4 -12 568.097 68.9975  12
   4   4 -12 309.989 76.4506   6
  -4  -4  12 462.647 70.6124   9
  -4  -4  12 408.427 69.3871   2
  -4  -4  12 443.029 91.3544   3
  -4  -4  11 951.098 96.5055   2
   4   4 -11 864.056 49.0405  13
   4   4 -11 976.393 75.0419  12
   4   4 -11 825.832 96.2840   6
  -4  -4  11 955.871 79.1663  11
  -4  -4  11 910.275 84.0319   9
   4   4 -11 959.947 73.7526   8
  -4  -4  11 891.121 102.579   3
  -4  -4  10 2817.10 163.581   3
  -4  -4  10 2660.46 155.191   2
   4   4 -10 2921.16 101.273  13
   4   4 -10 2969.86 119.695  12
   4   4 -10 3009.97 163.718   6
   4   4 -10 3055.40 133.809  11
  -4  -4  10 2895.53 134.010  11
  -4  -4  10 2961.63 141.448   9
   4   4 -10 2636.54 146.944   7
  -4  -4   9 9492.44 323.756   3
  -4  -4   9 9123.59 335.984   2
  -4  -4   9 9172.47 285.510  14
   4   4  -9 9298.33 256.761  13
   4   4  -9 9724.18 263.354  12
   4   4  -9 9949.04 329.481   6
  -4  -4   9 9683.71 293.775  11
   4   4  -9 9875.46 289.908  11
  -4  -4   9 9746.52 298.731   9
   4   4  -9 9652.87 306.020   7
  -4  -4   8 2243.09 124.338   3
  -4  -4   8 2248.79 147.654   4
  -4  -4   8 2289.92 146.894   2
  -4  -4   8 2256.97 104.987  14
   4   4  -8 2120.89 79.5883  12
   4   4  -8 2231.01 89.8240  13
   4   4  -8 2521.15 134.191   6
   4   4  -8 2218.21 106.427  11
  -4  -4   8 2212.42 109.683  11
   4   4  -8 2213.23 103.552   9
   4   4  -8 2378.32 112.824   7
  -4  -4   7 4588.65 179.581   3
  -4  -4   7 4613.72 217.778   4
  -4  -4   7 4480.14 218.600   2
  -4  -4   7 4638.09 159.173  14
   4   4  -7 4589.30 125.210  12
   4   4  -7 4845.69 153.301  13
   4   4  -7 4921.26 193.769   6
  -4  -4   7 4816.45 173.260  11
   4   4  -7 4762.59 169.160  11
   4   4  -7 4492.59 160.151   9
  -4  -4   7 4833.23 178.595  10
   4   4  -7 4705.01 163.368   7
  -4  -4   6 28098.1 718.616   3
  -4  -4   6 29452.0 780.867   4
  -4  -4   6 28067.8 809.424   2
  -4  -4   6 28028.2 691.470  14
   4   4  -6 28231.3 700.804  13
   4   4  -6 29466.6 747.216   6
   4   4  -6 29956.8 722.352  11
  -4  -4   6 29952.7 724.676  11
   4   4  -6 28508.2 709.942   9
  -4  -4   6 28639.4 739.829  10
   4   4  -6 29217.9 699.999   7
  -4  -4   5 13131.3 351.188   3
  -4  -4   5 13583.8 404.376   4
  -4  -4   5 12931.7 315.571  14
  -4  -4   5 12782.3 324.654  14
   4   4  -5 12932.0 350.573  13
   4   4  -5 13576.4 385.415   6
  -4  -4   5 13672.9 367.846  11
   4   4  -5 13841.5 369.038  11
  -4  -4   5 12757.5 392.494  10
   4   4  -5 13095.9 354.965   9
   4   4  -5 13051.0 332.767   7
  -4  -4   4 1596.23 73.1650   3
  -4  -4   4 1794.47 105.328   4
  -4  -4   4 1732.91 144.007   2
  -4  -4   4 1723.34 55.5453  14
   4   4  -4 1888.92 89.3829  13
  -4  -4   4 1748.33 93.7255   6
  -4  -4   4 1961.73 96.2303  11
   4   4  -4 1626.78 91.2634  11
   4   4  -4 1851.98 89.2800   9
  -4  -4   4 1866.77 116.334  10
   4   4  -4 1755.80 62.7657   7
  -4  -4   3 11654.8 297.688   3
  -4  -4   3 12287.6 341.977   4
  -4  -4   3 12589.5 449.928   2
  -4  -4   3 11151.4 279.676  14
   4   4  -3 11845.7 330.848  13
  -4  -4   3 11880.3 334.362   6
  -4  -4   3 11997.5 332.093  11
   4   4  -3 11442.8 321.700   9
  -4  -4   3 12072.9 382.965  10
   4   4  -3 11665.3 276.348   7
  -4  -4   2 8917.93 233.638  14
   4   4  -2 9462.07 281.372  13
  -4  -4   2 8995.75 272.666  11
  -4  -4   2 9466.85 279.909   6
  -4  -4   2 9300.46 270.560   4
  -4  -4   1 4008.27 131.185  14
   4   4  -1 4396.08 167.077   6
  -4  -4   1 4443.08 163.225   6
   4   4  -1 4040.17 161.894  11
  -4  -4   1 4162.26 142.812   4
  -4  -4   1 4470.64 224.276   2
  -4  -4   0 161.014 29.3037  14
  -4  -4   0 233.539 22.1206  12
  -4  -4   0 283.002 45.2899   6
   4   4   0 241.795 44.0875   6
  -4  -4   0 177.342 59.6038  10
   4   4   0 228.600 44.4507  11
  -4  -4   0 208.483 59.2952   2
  -4  -4  -1 165.198 36.1506  14
   4   4   1 131.615 27.5103  14
  -4  -4  -1 122.114 41.2570   6
   4   4   1 97.6084 40.3260   6
  -4  -4  -1 132.786 25.5565  12
  -4  -4  -1 139.319 60.7034  10
   4   4   1 198.032 44.7730  11
  -4  -4  -1 179.427 54.5414   2
   4   4   2 3513.00 126.714  14
  -4  -4  -2 3521.89 132.004  12
   4   4   2 3237.73 152.812  11
   4   4   2 3937.01 155.443   6
  -4  -4  -2 3394.84 150.718   6
  -4  -4  -2 3701.38 201.883  10
  -4  -4  -2 3533.50 181.598   2
   4   4   3 17098.0 456.358  14
  -4  -4  -3 16564.6 477.905  14
   4   4   3 17496.3 477.252   6
  -4  -4  -3 17908.8 487.555   6
   4   4   3 17691.5 502.293  11
  -4  -4  -3 18203.8 555.812  10
  -4  -4  -3 18093.7 525.915   2
  -4  -4  -4 2226.07 136.236   2
   4   4   4 2070.43 104.483  14
  -4  -4  -4 2077.62 116.677  14
  -4  -4  -4 2504.00 126.835  12
   4   4   4 2348.73 109.594   5
   4   4   4 2188.64 114.755   6
   4   4   4 2640.79 142.088  11
  -4  -4  -4 2003.63 144.331  10
   4   4   4 1881.92 59.1858   3
   4   4   4 1965.12 67.2546   3
  -4  -4  -5 3346.49 166.530   2
   4   4   5 3011.05 141.041  14
  -4  -4  -5 3195.73 152.208  14
  -4  -4  -5 3084.51 147.985  12
   4   4   5 3407.21 138.210   5
   4   4   5 3100.33 169.518  11
  -4  -4  -5 3209.06 182.132  10
   4   4   5 2799.47 97.7167   3
   4   4   5 2856.39 88.9914   3
  -4  -4  -6 6317.01 243.201   2
  -4  -4  -6 6021.32 237.512  14
  -4  -4  -6 6496.35 239.278  12
   4   4   6 6880.42 218.712   5
  -4  -4  -6 6474.80 271.544  10
   4   4   6 5682.29 178.221   3
   4   4   6 6504.63 270.855  11
   4   4   7 2460.79 168.432  11
  -4  -4  -7 2336.57 138.569  12
  -4  -4  -7 2159.53 152.594  10
  -4  -4  -8 94.4615 53.7377  12
   4   4   8 28.9202 74.4194  11
  -4  -4  -8 29.3055 59.3693  10
   4   4   9 1198.30 133.035  11
  -4  -4  -9 896.479 107.266  10
  -4  -4  -9 1039.53 98.7644  12
   4   4  10 808.156 118.688  11
  -4  -4 -10 850.473 99.1424  12
   4   5 -16 610.938 132.259   6
   4   5 -16 518.046 97.8663   7
   4   5 -15 979.673 118.425   7
   4   5 -15 1014.07 140.165   6
   4   5 -15 845.051 100.962  12
  -4  -5  15 935.331 113.384   9
  -4  -5  15 826.003 122.337   3
  -4  -5  14 5590.89 227.262   2
   4   5 -14 5368.64 229.547  12
   4   5 -14 5676.91 270.681   7
   4   5 -14 6438.21 299.079   6
  -4  -5  14 5684.15 249.555   9
  -4  -5  14 5504.76 281.405   3
  -4  -5  13 4550.89 207.997   2
   4   5 -13 4777.99 241.907   7
   4   5 -13 4527.12 191.784  12
  -4  -5  13 4190.88 247.753   3
  -4  -5  13 5165.96 219.129   9
   4   5 -12 383.496 55.6200   8
   4   5 -12 384.063 80.2702   7
   4   5 -12 407.720 83.9664   6
   4   5 -12 386.246 58.5764  12
  -4  -5  12 404.240 70.2971   9
  -4  -5  12 419.618 75.3658   2
  -4  -5  12 455.156 96.2617   3
  -4  -5  11 6875.59 279.716   2
   4   5 -11 6519.43 264.177   7
   4   5 -11 6850.32 220.918  12
   4   5 -11 7597.19 292.429   6
  -4  -5  11 7257.73 253.113   9
  -4  -5  11 7127.17 298.646   3
  -4  -5  10 3425.06 181.269   3
  -4  -5  10 3569.88 188.082   2
   4   5 -10 3390.48 122.316  13
   4   5 -10 3304.22 124.380  12
   4   5 -10 3548.49 182.465   6
   4   5 -10 3564.74 151.011  11
  -4  -5  10 3442.39 153.083   9
   4   5 -10 3277.66 160.346   7
   4   5  -9 2394.63 121.114   7
   4   5  -9 2580.82 101.930  13
   4   5  -9 2255.61 88.5980  12
   4   5  -9 2240.18 139.042   6
   4   5  -9 2408.18 118.854  11
  -4  -5   9 2449.43 138.158   3
  -4  -5   9 2396.90 156.102   2
  -4  -5   8 599.733 67.5690   3
  -4  -5   8 551.209 90.4487   2
  -4  -5   8 653.722 57.0122  14
   4   5  -8 631.393 52.4971  13
   4   5  -8 894.497 83.6314   6
   4   5  -8 691.215 62.3586  11
   4   5  -8 630.698 36.6022  12
  -4  -5   8 711.550 65.6521  11
   4   5  -8 628.575 56.7467   9
  -4  -5   8 641.945 62.1287  10
   4   5  -8 763.022 63.7972   7
  -4  -5   7 102.633 56.1493   4
  -4  -5   7 70.1063 38.0221   3
  -4  -5   7 180.975 61.2826   2
  -4  -5   7 140.907 31.8312  14
   4   5  -7 90.0313 32.4484  13
   4   5  -7 146.510 45.9019   6
   4   5  -7 99.2764 13.7659  12
   4   5  -7 138.301 39.2532  11
  -4  -5   7 127.809 39.8050  11
   4   5  -7 88.0625 32.6699   9
  -4  -5   7 109.561 42.8555  10
   4   5  -7 107.357 33.0751   7
  -4  -5   6 3936.06 145.169   3
  -4  -5   6 3995.47 194.465   4
  -4  -5   6 3769.51 215.945   2
  -4  -5   6 3729.31 117.620  14
  -4  -5   6 3823.90 124.425  14
   4   5  -6 3802.25 142.057  13
   4   5  -6 3932.89 171.069   6
   4   5  -6 3769.15 152.743  11
  -4  -5   6 4014.39 157.765  11
  -4  -5   6 3523.74 166.356  10
   4   5  -6 3782.84 139.477   9
   4   5  -6 3775.38 129.930   7
  -4  -5   5 25718.5 636.193   3
  -4  -5   5 27323.7 709.477   4
  -4  -5   5 25713.7 609.303  14
   4   5  -5 25260.2 647.510  13
   4   5  -5 26478.4 683.617   6
  -4  -5   5 26902.2 666.123  11
   4   5  -5 24785.8 660.704  11
   4   5  -5 25964.0 643.420   9
  -4  -5   5 25673.7 703.503  10
   4   5  -5 25734.0 619.012   7
  -4  -5   4 13404.7 346.097   3
  -4  -5   4 13739.5 405.065   4
  -4  -5   4 14603.2 508.691   2
  -4  -5   4 13407.7 331.528  14
   4   5  -4 13487.5 375.964  13
  -4  -5   4 13222.6 382.205   6
   4   5  -4 13936.0 400.795   6
  -4  -5   4 14101.7 384.716  11
   4   5  -4 13651.9 366.241   9
  -4  -5   4 13768.7 431.353  10
   4   5  -4 13224.8 331.811   7
  -4  -5   3 6921.06 190.399   3
  -4  -5   3 7228.88 240.851   4
  -4  -5   3 7784.59 343.157   2
  -4  -5   3 7177.21 190.275  14
   4   5  -3 7470.45 237.258  13
  -4  -5   3 7213.02 236.327   6
  -4  -5   3 7082.57 232.703  11
   4   5  -3 6974.09 219.642   9
  -4  -5   3 7384.26 288.308  10
   4   5  -3 7087.06 177.530   7
  -4  -5   2 18590.4 467.270  14
   4   5  -2 19303.4 518.646  13
  -4  -5   2 19513.4 517.830   6
   4   5  -2 20378.6 523.546  11
  -4  -5   2 18583.7 508.796  11
  -4  -5   2 20051.7 631.256   2
  -4  -5   2 19514.6 505.296   4
  -4  -5   1 5654.53 169.332  14
   4   5  -1 6075.24 211.536  13
  -4  -5   1 5255.38 130.729  12
   4   5  -1 6184.82 208.851  11
  -4  -5   1 5728.81 179.411   4
  -4  -5   1 6699.00 285.029   2
  -4  -5   1 5764.17 202.931   6
  -4  -5   0 94.0888 60.7915   2
  -4  -5   0 108.507 29.8469  14
  -4  -5   0 47.0629 40.8071   6
   4   5   0 57.3307 39.6579   6
  -4  -5   0 49.5248 17.7492  12
  -4  -5   0 39.9104 59.3304  10
   4   5   0 63.7021 40.4022  11
  -4  -5   0 35.4416 23.4572   4
   4   5   1 501.824 43.4649  14
  -4  -5  -1 376.790 38.2873  12
   4   5   1 372.203 58.1473   6
  -4  -5  -1 436.552 83.1327  10
   4   5   1 463.984 61.5902  11
  -4  -5  -1 382.781 74.0557   2
   4   5   2 1555.96 80.1092  14
  -4  -5  -2 1561.68 99.3315  14
   4   5   2 1490.14 99.4102   6
   4   5   2 1530.65 105.485  11
  -4  -5  -2 1631.88 138.271  10
  -4  -5  -2 1480.08 126.084   2
   4   5   3 2444.14 111.129  14
  -4  -5  -3 2307.70 126.537  14
  -4  -5  -3 2589.53 124.367  12
   4   5   3 2606.27 131.410   6
   4   5   3 2286.22 135.319  11
  -4  -5  -3 2467.74 170.023  10
  -4  -5  -3 2731.83 162.450   2
   4   5   4 4901.04 180.473  14
  -4  -5  -4 4436.14 193.506  14
  -4  -5  -4 4776.48 189.740  12
   4   5   4 4898.40 212.885  11
  -4  -5  -4 4894.58 223.637   2
  -4  -5  -4 5079.11 245.921  10
   4   5   4 4933.89 196.184   6
   4   5   4 4844.86 179.806   5
  -4  -5  -5 91.2622 59.4359   2
  -4  -5  -5 169.321 56.0986  14
   4   5   5 158.348 44.3097  14
  -4  -5  -5 141.106 51.8805  12
  -4  -5  -5 234.243 79.3969  10
   4   5   5 257.960 68.0282  11
   4   5   5 177.162 48.3607   5
  -4  -5  -6 4070.24 191.557  14
   4   5   6 4140.80 212.240  11
  -4  -5  -6 3798.96 177.329  12
  -4  -5  -6 4357.99 222.218  10
  -4  -5  -6 4118.88 194.596   2
  -4  -5  -7 4887.56 204.628  12
   4   5   7 4909.12 245.831  11
  -4  -5  -7 4740.66 237.784  10
  -4  -5  -7 4650.60 212.045  14
   4   5   8 635.725 113.260  11
  -4  -5  -8 555.036 96.2101  10
   4   5   9 67.5797 86.8130  11
  -4  -5  -9 165.710 83.2078  10
   4   6 -15 43.9299 86.1994   6
  -4  -6  15 71.4856 79.4950   3
   4   6 -15 9.78892 76.8326   7
   4   6 -14 891.234 120.090   6
   4   6 -14 835.871 117.035   7
  -4  -6  14 826.048 98.2581   2
  -4  -6  14 845.836 120.924   3
  -4  -6  13 5743.06 247.984   2
   4   6 -13 5651.83 208.990  12
   4   6 -13 5455.46 253.077   7
   4   6 -13 5982.27 276.872   6
  -4  -6  13 5617.38 229.864   9
  -4  -6  13 5335.05 279.309   3
  -4  -6  12 2536.04 164.484   2
   4   6 -12 2770.97 125.675  12
   4   6 -12 2750.38 163.304   7
   4   6 -12 3050.08 184.071   6
  -4  -6  12 3043.36 151.309   9
  -4  -6  12 2772.56 189.271   3
   4   6 -11 2769.10 154.951   7
   4   6 -11 2510.21 112.386  12
   4   6 -11 2865.40 169.683   6
  -4  -6  11 2512.03 168.156   2
  -4  -6  11 2772.93 172.620   3
   4   6 -10 13404.8 420.093   7
   4   6 -10 13835.3 382.088  13
   4   6 -10 14764.1 420.503  11
   4   6 -10 14383.2 371.411  12
  -4  -6  10 14418.9 455.987   3
  -4  -6  10 14645.8 482.720   2
  -4  -6   9 4894.10 244.115   2
   4   6  -9 4587.79 180.630   7
   4   6  -9 4576.68 163.775  13
   4   6  -9 5001.64 216.286   6
   4   6  -9 5117.52 190.315  11
   4   6  -9 4563.61 139.390  12
  -4  -6   9 4698.75 180.861  10
  -4  -6   9 4399.86 195.486   3
   4   6  -8 24.3035 32.7443   7
   4   6  -8 59.7023 34.3150  13
   4   6  -8 60.2468 47.6809   6
   4   6  -8 41.4342 17.1781  12
   4   6  -8 65.0340 40.1803  11
  -4  -6   8 28.2531 42.5988  10
  -4  -6   8 69.2488 44.0224   3
  -4  -6   8 36.6714 55.2851   2
   4   6  -7 242.532 41.2319   7
   4   6  -7 238.283 44.0971  13
   4   6  -7 261.355 55.9275   6
   4   6  -7 292.724 51.3051  11
   4   6  -7 238.418 37.0492   9
  -4  -6   7 258.185 52.1441  10
  -4  -6   7 240.610 48.1121   3
  -4  -6   7 233.778 73.4618   2
  -4  -6   6 1504.08 81.8415   3
  -4  -6   6 1615.56 124.921   4
  -4  -6   6 1299.46 136.903   2
  -4  -6   6 1546.85 68.2004  14
   4   6  -6 1657.50 90.1129  13
   4   6  -6 1667.36 109.697   6
   4   6  -6 1670.60 100.121  11
  -4  -6   6 1482.65 109.867  10
   4   6  -6 1410.72 79.1495   9
   4   6  -6 1667.36 75.9476   7
  -4  -6   5 6117.99 187.406   3
  -4  -6   5 6260.79 250.433   4
  -4  -6   5 6397.97 177.741  14
   4   6  -5 6294.26 212.743  13
   4   6  -5 6565.93 238.912   6
   4   6  -5 6086.26 196.260   9
  -4  -6   5 6250.66 256.702  10
   4   6  -5 6300.29 180.805   7
  -4  -6   4 8500.78 232.278   3
  -4  -6   4 9258.08 303.033   4
  -4  -6   4 8537.00 390.141   2
  -4  -6   4 9227.29 236.262  14
   4   6  -4 8616.56 272.873  13
   4   6  -4 8336.98 292.339   6
  -4  -6   4 8922.18 332.471  10
   4   6  -4 8629.84 256.896   9
   4   6  -4 8723.79 227.993   7
  -4  -6   3 3040.89 141.291   4
  -4  -6   3 2849.20 209.475   2
  -4  -6   3 2986.90 103.008  14
   4   6  -3 3108.61 140.248  13
   4   6  -3 2681.19 143.768   6
   4   6  -3 3104.19 141.256  11
   4   6  -3 2840.21 120.517   9
  -4  -6   3 3225.61 187.023  10
   4   6  -3 2900.41 86.5909   7
  -4  -6   2 6366.64 307.049   2
   4   6  -2 6017.88 218.011  11
  -4  -6   2 5853.96 176.373  14
   4   6  -2 5836.24 194.780   9
  -4  -6   2 5408.53 271.578  10
  -4  -6   2 5810.96 203.144   4
  -4  -6   1 17920.5 463.371  14
   4   6  -1 18794.2 511.870  11
  -4  -6   1 17952.2 470.593   4
  -4  -6   1 18317.3 602.048   2
  -4  -6   0 3172.33 107.750  12
   4   6   0 3468.98 158.264   6
   4   6   0 3232.93 154.937  11
  -4  -6   0 3514.53 222.186  10
  -4  -6   0 3425.30 205.022   2
  -4  -6  -1 495.288 57.6317  14
  -4  -6  -1 397.061 44.9939  12
  -4  -6  -1 395.331 79.9914   2
  -4  -6  -1 393.031 89.2841  10
   4   6   1 325.132 58.1806  11
   4   6   1 482.844 67.5622   6
   4   6   2 3924.27 174.830   6
  -4  -6  -2 4201.34 218.386   2
   4   6   2 3889.57 182.652  11
  -4  -6  -2 4244.79 232.843  10
  -4  -6  -2 3984.82 171.124  14
   4   6   2 3980.89 147.350  14
   4   6   3 3163.14 156.220   6
  -4  -6  -3 3203.42 186.116   2
   4   6   3 3167.80 165.813  11
  -4  -6  -3 3131.75 199.676  10
   4   6   3 3183.82 133.853  14
  -4  -6  -3 3200.35 158.104  14
   4   6   4 504.990 75.4552   6
   4   6   4 649.424 67.5965   5
  -4  -6  -4 710.548 95.2414   2
  -4  -6  -4 627.244 78.1533  14
  -4  -6  -4 586.565 95.4672  10
   4   6   4 581.438 85.5076  11
  -4  -6  -5 28.6227 60.1699   2
  -4  -6  -5 94.7142 56.1280  14
  -4  -6  -5 64.1134 62.4317  10
   4   6   5-7.40106 63.9857  11
  -4  -6  -6 112.788 55.6262  14
  -4  -6  -6 9.04358 67.4099  10
   4   6   6 32.8843 65.5852  11
  -4  -6  -7 2362.59 171.130  10
   4   6   7 2052.14 165.735  11
  -4  -6  -8 2390.06 174.930  10
   4   6   8 2731.03 198.324  11
  -4  -7  15-20.5705 85.8530   3
   4   7 -15-9.83867 79.0940   7
   4   7 -15 43.3020 88.3766   6
  -4  -7  14 131.894 67.5342   2
  -4  -7  14 92.4537 77.2915   3
   4   7 -14 77.3442 73.8288   7
   4   7 -14 166.990 88.8755   6
   4   7 -13 2758.80 170.232   7
  -4  -7  13 2507.32 167.397   2
  -4  -7  13 2299.64 181.601   3
   4   7 -13 2883.58 192.096   6
   4   7 -12 3451.56 181.434   7
   4   7 -12 3584.79 203.652   6
  -4  -7  12 3566.85 204.001   2
  -4  -7  12 3523.57 212.116   3
   4   7 -11 1317.34 105.757   7
   4   7 -11 1592.13 112.767  11
   4   7 -11 1766.65 139.232   6
  -4  -7  11 1091.62 127.202   2
  -4  -7  11 1660.99 134.711   3
   4   7 -10 2574.67 137.491   7
   4   7 -10 2947.68 171.809   6
   4   7 -10 3145.56 150.582  11
   4   7 -10 2843.50 103.936  12
  -4  -7  10 2742.94 158.298   3
  -4  -7  10 2546.48 182.174   2
  -4  -7   9 16581.7 556.483   2
   4   7  -9 16999.8 461.444   7
   4   7  -9 16606.5 448.713  13
   4   7  -9 17303.5 514.010   6
   4   7  -9 18223.9 482.806  11
   4   7  -9 16042.3 402.438  12
  -4  -7   9 15966.7 469.363  10
  -4  -7   9 16248.4 480.897   3
  -4  -7   8 3068.86 203.195   2
   4   7  -8 2892.98 130.172   7
   4   7  -8 3103.26 136.431  13
   4   7  -8 3555.34 178.009   6
   4   7  -8 3487.29 154.952  11
  -4  -7   8 3124.34 159.726  10
  -4  -7   8 3296.46 149.941   3
  -4  -7   7 1896.32 170.057   2
   4   7  -7 1892.42 92.4403   7
   4   7  -7 1974.99 106.809  13
   4   7  -7 2098.94 116.637  11
   4   7  -7 1717.02 87.1083   9
  -4  -7   7 1760.95 125.350  10
  -4  -7   7 1828.73 99.7735   3
   4   7  -7 2208.23 136.256   6
   4   7  -6 3850.19 132.276   7
  -4  -7   6 3685.48 189.584  10
   4   7  -6 3478.65 133.994   9
  -4  -7   6 3589.03 134.591   3
  -4  -7   5 2980.44 105.637   3
  -4  -7   5 3094.06 169.426   4
  -4  -7   5 3070.57 108.590  14
   4   7  -5 2992.16 155.776   6
   4   7  -5 2871.82 117.924   9
  -4  -7   5 3141.87 179.010  10
   4   7  -5 2886.22 106.299   7
  -4  -7   4 1215.53 95.6084   4
  -4  -7   4 1099.39 61.7287  14
   4   7  -4 1092.98 93.3548   6
  -4  -7   4 986.418 140.936   2
   4   7  -4 1140.31 90.0218  11
   4   7  -4 1200.89 71.6970   9
  -4  -7   4 1045.36 114.810  10
   4   7  -4 1221.88 55.8235   7
   4   7  -3 718.127 37.0421   7
   4   7  -3 683.783 77.9814   6
   4   7  -3 811.441 77.7998  11
  -4  -7   3 850.891 135.293   2
  -4  -7   3 850.894 76.2000   4
  -4  -7   3 714.796 103.153  10
   4   7  -3 729.990 59.7488   9
  -4  -7   2-10.7827 65.9117  10
   4   7  -2 51.5441 41.1158  11
   4   7  -2 13.2769 30.9370   9
  -4  -7   2 72.6371 79.7755   2
  -4  -7   1 5910.44 302.811   2
   4   7  -1 6565.22 241.950  11
  -4  -7   0 14647.2 502.327   2
   4   7   0 13819.9 418.067  11
  -4  -7   0 13253.6 507.787  10
  -4  -7   0 12937.9 376.042  14
   4   7   1 652.427 78.8338   6
  -4  -7  -1 559.353 101.633   2
   4   7   1 698.637 81.8484  11
  -4  -7  -1 538.877 103.065  10
  -4  -7  -1 567.500 66.7859  14
   4   7   2 3216.24 163.544   6
  -4  -7  -2 3396.13 205.338   2
   4   7   2 3401.87 172.210  11
  -4  -7  -2 2884.17 206.634  10
  -4  -7  -2 3106.17 152.879  14
   4   7   3 4962.90 224.042  11
  -4  -7  -3 4797.08 245.370   2
  -4  -7  -3 4747.72 258.179  10
   4   7   3 5146.78 214.279   6
   4   7   4 1581.53 127.620  11
  -4  -7  -4 1448.70 146.754  10
  -4  -7  -4 1394.85 131.677   2
   4   7   4 1522.65 116.058   6
  -4  -7  -5-9.97304 82.0323  10
   4   7   5 31.6863 66.1239  11
  -4  -7  -6 98.4224 79.7626  10
   4   7   6 78.1564 74.5849  11
  -4  -7  -7 301.173 96.3029  10
   4   7   7 190.608 87.4169  11
   4   8 -15 317.278 98.6069   7
   4   8 -14 2132.29 173.628   6
  -4  -8  14 1828.75 166.509   3
   4   8 -14 1782.11 151.408   7
   4   8 -13 1128.80 114.718   7
   4   8 -13 1262.22 134.465   6
  -4  -8  13 1222.91 124.326   2
  -4  -8  13 1062.79 132.901   3
   4   8 -12 1007.71 100.636   7
  -4  -8  12 969.100 121.879   2
  -4  -8  12 823.940 108.994   3
   4   8 -12 1116.04 124.561   6
   4   8 -11 1188.27 123.040   6
   4   8 -11 1426.30 108.216   7
   4   8 -11 1262.65 105.337  11
  -4  -8  11 1267.87 115.390   3
  -4  -8  11 1210.09 135.710   2
   4   8 -10 90.0556 53.7122   7
   4   8 -10 143.920 59.1628  11
   4   8 -10 177.150 71.8036   6
  -4  -8  10 38.6005 47.5484  10
  -4  -8  10 61.8745 56.3386   3
  -4  -8  10 72.1472 76.8360   2
   4   8  -9 4011.70 166.987   7
   4   8  -9 4011.42 181.599  11
   4   8  -9 4203.53 209.478   6
  -4  -8   9 3998.19 184.826  10
  -4  -8   9 4465.13 251.832   2
   4   8  -8 11825.0 343.124   7
   4   8  -8 12571.1 378.555  11
  -4  -8   8 12320.8 397.027  10
  -4  -8   8 11660.4 469.585   2
   4   8  -8 11407.7 398.810   6
   4   8  -7 2348.08 107.833   7
  -4  -8   7 2540.50 159.818  10
  -4  -8   7 2364.89 197.516   2
   4   8  -7 2511.94 152.653   6
   4   8  -6 6199.72 249.681   6
  -4  -8   6 5770.42 262.949  10
   4   8  -6 5880.47 188.244   7
   4   8  -5 9339.96 254.192   7
   4   8  -5 9345.67 310.733  11
   4   8  -5 10100.3 335.067   6
   4   8  -5 8862.21 263.880   9
  -4  -8   5 9500.05 366.079  10
  -4  -8   5 8551.75 421.990   2
   4   8  -4 1931.59 76.6875   7
   4   8  -4 1853.86 119.725  11
   4   8  -4 2113.80 132.718   6
  -4  -8   4 2360.66 216.902   2
   4   8  -4 1931.05 92.8231   9
  -4  -8   4 1985.51 162.532  10
   4   8  -3 164.024 58.0103   6
  -4  -8   3 43.1300 75.1428   2
  -4  -8   3 66.0962 64.6343  10
   4   8  -3 160.754 38.8201   9
   4   8  -3 233.421 56.5026  11
   4   8  -2 494.016 76.8274   6
  -4  -8   2 446.004 106.627   2
  -4  -8   2 406.643 103.222  10
   4   8  -2 377.718 67.8674  11
   4   8  -2 333.301 47.9169   9
  -4  -8   1 650.137 118.108   2
   4   8  -1 602.185 76.0712  11
   4   8   0 2035.25 133.046  11
  -4  -8   0 1857.18 179.224  10
  -4  -8   0 2000.71 176.032   2
   4   8   1 4972.69 216.567  11
   4   8   1 4666.90 210.054   6
  -4  -8  -1 4664.50 260.357   2
  -4  -8  -1 4385.52 267.103  10
   4   8   2 30.9407 59.3269   6
  -4  -8  -2 46.4434 78.2741  10
   4   8   2 55.0716 58.7051  11
  -4  -8  -2 30.1218 81.3509   2
   4   8   3 3710.42 195.237  11
   4   8   3 3492.59 182.492   6
  -4  -8  -3 3547.50 232.893  10
  -4  -8  -3 3507.47 215.368   2
  -4  -8  -4 2662.63 199.581  10
  -4  -8  -4 2877.60 188.179   2
   4   8   4 2731.45 171.987  11
  -4  -8  -5 658.096 124.374  10
   4   8   5 587.423 99.6189  11
   4   8   6 194.524 97.7237  11
   4   9 -14 1382.60 129.785   7
  -4  -9  13 4323.80 246.419   2
   4   9 -13 4227.39 212.614   7
   4   9 -12 1043.62 123.107   6
   4   9 -12 951.379 97.2081   7
  -4  -9  12 784.048 123.993   2
   4   9 -11 43.6976 60.5097  11
   4   9 -11 145.640 77.0122   6
   4   9 -11 37.9059 49.2941   7
  -4  -9  11 54.3250 80.2426   2
   4   9 -10 4.78348 48.5563   7
   4   9 -10 66.1589 58.9158  11
   4   9 -10 32.5457 67.4293   6
  -4  -9  10 99.7144 53.4030  10
  -4  -9  10 11.3628 75.7463   2
   4   9  -9 725.846 71.1248   7
   4   9  -9 799.686 89.1654  11
   4   9  -9 690.309 100.815   6
  -4  -9   9 713.750 86.0301  10
  -4  -9   9 622.813 121.439   2
   4   9  -8 2865.45 129.136   7
   4   9  -8 2872.12 154.880  11
  -4  -9   8 2607.48 163.818  10
  -4  -9   8 2517.12 209.002   2
   4   9  -8 3003.42 172.984   6
   4   9  -7 4898.80 171.429   7
  -4  -9   7 4990.16 297.952   2
   4   9  -7 5292.47 232.684   6
   4   9  -6 591.418 91.0248   6
  -4  -9   6 426.831 95.2078  10
   4   9  -6 482.073 79.2920  11
   4   9  -6 483.433 51.6102   7
   4   9  -5 7324.05 273.172  11
   4   9  -5 7478.46 289.919   6
  -4  -9   5 7400.23 330.961  10
  -4  -9   5 7235.97 398.659   2
   4   9  -4 9704.90 332.380  11
   4   9  -4 10528.9 354.187   6
  -4  -9   4 9028.96 395.985  10
  -4  -9   4 9319.15 469.409   2
   4   9  -3 711.519 85.3724  11
   4   9  -3 745.350 92.5797   6
  -4  -9   3 569.508 115.862  10
   4   9  -2 387.741 75.8224   6
  -4  -9   2 429.668 111.780  10
   4   9  -2 460.243 76.2837  11
  -4  -9   2 281.625 99.4503   2
   4   9  -1 1139.69 105.597  11
   4   9  -1 1120.42 108.628   6
  -4  -9   1 1022.28 140.436   2
  -4  -9   0 1484.26 167.276   2
   4   9   0 1895.49 135.390  11
  -4  -9  -1 456.208 107.496   2
  -4  -9  -1 502.924 112.044  10
   4   9   1 535.537 86.5923  11
   4   9   2 203.696 71.3557   6
  -4  -9  -2 412.270 110.396   2
  -4  -9  -2 493.737 114.636  10
   4   9   2 473.766 88.0648  11
   4   9   3 90.6752 68.6849   6
  -4  -9  -3-30.9822 87.4533   2
  -4  -9  -3 71.7721 93.8901  10
   4   9   3 63.0002 67.6231  11
   4   9   4 2851.67 186.201  11
  -4 -10  12 6992.99 338.845   2
   4  10 -11 1329.69 138.414   6
  -4 -10  11 1078.26 146.411   2
   4  10 -10 476.371 82.4852  11
   4  10 -10 385.473 93.6212   6
  -4 -10  10 434.836 118.842   2
   4  10  -9 778.229 92.8411  11
   4  10  -9 691.543 105.256   6
  -4 -10   9 684.176 129.218   2
  -4 -10   9 723.392 93.9449  10
   4  10  -8 845.995 107.660   6
  -4 -10   8 662.721 135.423   2
  -4 -10   8 678.383 96.3997  10
   4  10  -7 2145.36 153.607   6
  -4 -10   7 2143.53 161.441  10
  -4 -10   7 1959.92 200.250   2
  -4 -10   6 956.307 124.119  10
   4  10  -6 1003.36 100.079  11
   4  10  -6 983.112 107.860   6
  -4 -10   5 43.8128 75.5059  10
   4  10  -5 58.0470 60.1638  11
  -4 -10   5 36.2005 104.520   2
   4  10  -4 3934.88 192.629  11
   4  10  -4 3707.91 195.814   6
  -4 -10   4 3703.75 244.841  10
  -4 -10   4 3250.09 274.558   2
   4  10  -3 7153.29 278.857  11
   4  10  -3 7025.24 284.625   6
  -4 -10   3 6849.81 383.052   2
  -4 -10   3 6652.80 354.375  10
   4  10  -2 192.298 73.0636   6
  -4 -10   2 135.168 99.0215  10
   4  10  -2 150.538 67.1032  11
  -4 -10   2 88.0741 94.5102   2
   4  10  -1 2605.19 162.638  11
   4  10  -1 2314.09 153.859   6
  -4 -10   1 2462.12 218.778   2
  -4 -10   1 2445.67 223.537  10
  -4 -10   0 2438.95 204.997   2
   4  10   0 2232.91 155.814  11
  -4 -10  -1 890.703 140.820  10
   4  10   1 759.382 109.997  11
  -4 -10  -1 836.925 131.986   2
  -4 -10  -2 46.4299 92.5875   2
  -4 -11   8 3459.08 210.287  10
  -4 -11   7 713.763 116.321  10
   4  11  -7 837.931 110.285   6
  -4 -11   6 42.8280 75.3574  10
   4  11  -6 75.9254 63.2405  11
   4  11  -6 247.808 79.5613   6
  -4 -11   5-11.8431 84.9923  10
   4  11  -5-6.99961 61.7243  11
  -4 -11   5 39.2681 106.251   2
   4  11  -5 94.0182 65.8740   6
  -4 -11   4 249.529 108.505  10
   4  11  -4 536.990 88.9988  11
  -4 -11   4 521.921 142.768   2
   4  11  -4 486.978 90.8262   6
  -4 -11   3 2758.23 234.752  10
  -5  15  -2 1716.43 167.412   8
  -5  15  -3 915.841 129.029   8
  -5  14   2 3590.89 271.390   8
   5 -14  -2 3656.31 198.980  13
   5 -14  -1 78.9639 69.2110  14
  -5  14   1 118.856 110.743   1
  -5  14   1 132.920 99.0830   8
   5 -14  -1 93.9569 72.2976  13
   5 -14   0 1316.91 125.099  14
  -5  14   0 1351.36 181.466   1
  -5  14   0 1801.04 176.058   8
  -5  14   0 1443.90 127.580   7
   5 -14   0 1433.85 131.397  13
   5 -14   1 1922.21 147.517  14
  -5  14  -1 2411.40 235.346   1
  -5  14  -1 2087.36 147.072   7
  -5  14  -1 1959.89 181.362   8
   5 -14   1 2326.70 160.984  13
   5 -14   2 1164.14 116.711  14
  -5  14  -2 1307.96 140.238   8
   5 -14   2 1350.27 133.783  13
   5 -14   3 450.503 85.1033  14
   5 -14   3 543.256 95.6215  13
  -5  14  -3 582.721 142.474   1
  -5  14  -3 401.414 95.0127   8
   5 -14   4-8.68145 78.0288  13
  -5  14  -4 28.3823 101.840   1
  -5  14  -4 7.59540 76.7060   8
  -5  13   6 1171.22 150.000   1
  -5  13   5 849.326 132.059   1
  -5  13   4 254.362 109.139   1
  -5  13   3 527.168 119.386   1
  -5  13   3 520.684 125.334   8
   5 -13  -2 3669.83 187.879  13
  -5  13   2 3626.89 251.452   1
  -5  13   2 3305.74 246.199   8
   5 -13  -1 3795.24 193.601  13
  -5  13   1 3749.16 265.500   1
  -5  13   1 3568.55 240.891   8
   5 -13   0 103.671 68.7893  13
  -5  13   0 123.641 99.4695   1
  -5  13   0 76.6839 78.6467   8
   5 -13   1 3517.98 194.427  13
  -5  13  -1 3663.58 276.610   1
  -5  13  -1 3570.56 217.549   8
  -5  13  -2 2682.50 181.205   8
   5 -13   2 2705.92 169.512  13
   5 -13   3 192.187 72.1253  13
  -5  13  -3 107.925 67.6091   8
  -5  13  -3 97.6855 95.1641   1
  -5  13  -3 155.520 65.6045   7
   5 -13   4 221.188 77.3040  13
  -5  13  -4 137.000 67.5344   8
  -5  13  -4 271.287 104.719   1
  -5  13  -4 90.7364 61.6454   7
  -5  13  -5 134.216 58.9151   8
  -5  13  -5 187.612 68.8869   7
  -5  13  -5 193.424 100.242   1
  -5  13  -6 813.597 103.835   7
  -5  13  -6 984.059 143.660   1
   5 -13   6 969.374 122.897  13
  -5  13  -7 2017.46 187.328   1
  -5  13  -7 2133.34 155.677  12
  -5  13  -8 666.319 127.722   1
  -5  13  -9 716.120 117.657   1
  -5  12   7 2531.89 187.433   1
  -5  12   7 2231.57 181.279   8
  -5  12   6 3914.19 229.347   1
  -5  12   6 3582.23 229.060   8
  -5  12   5 908.937 125.042   1
  -5  12   5 572.144 108.958   8
  -5  12   4 64.4220 84.2807   1
   5 -12  -3 464.304 74.9776  13
  -5  12   3 410.411 103.495   1
  -5  12   3 272.341 102.218   8
   5 -12  -2 1161.30 104.989  13
  -5  12   2 1141.85 143.937   1
   5 -12  -1 5046.38 219.840  13
  -5  12   1 5021.87 302.115   1
  -5  12   1 5556.70 283.999   8
   5 -12   0 4269.34 196.928  13
  -5  12   0 3542.95 182.989   7
  -5  12   0 4206.22 236.545   8
  -5  12   0 4139.25 277.306   1
  -5  12  -1 303.921 67.2883   7
  -5  12  -1 329.934 82.6175   8
  -5  12  -1 298.826 114.567   1
   5 -12   1 330.891 72.9486  13
  -5  12  -2 6099.91 273.497   8
  -5  12  -2 6395.90 254.147   7
   5 -12   2 6789.61 270.214  13
  -5  12  -3 4552.88 207.763   7
   5 -12   3 4861.67 224.590  13
  -5  12  -3 4339.65 213.335   8
  -5  12  -3 4686.82 281.397   1
  -5  12  -4 55.0867 56.3879   8
  -5  12  -4 140.216 91.7162   1
  -5  12  -4 38.8161 52.8315   7
  -5  12  -5 1055.97 105.480   7
  -5  12  -5 1251.26 101.402   8
  -5  12  -5 1121.91 143.877   1
  -5  12  -6 1288.25 114.693   7
   5 -12   6 1462.43 137.587  13
  -5  12  -6 1169.48 94.5325   8
  -5  12  -6 1272.74 145.400   1
  -5  12  -7 911.759 109.278  12
  -5  12  -7 796.198 97.3440   7
   5 -12   7 972.848 119.670  13
  -5  12  -7 707.108 124.836   1
  -5  12  -8 838.674 109.103  12
  -5  12  -8 926.846 109.784   7
  -5  12  -8 705.433 121.191   1
   5 -12   8 966.866 125.443  13
  -5  12  -9 81.9990 82.4202   1
  -5  11   9 2209.86 144.128   9
  -5  11   9 2257.03 176.867   8
   5 -11  -9 2272.94 167.198  14
  -5  11   8 1031.88 120.584   1
  -5  11   8 1195.09 99.6637   9
  -5  11   8 998.991 125.637   8
   5 -11  -8 1129.46 116.806  14
  -5  11   7 366.508 88.8646   1
  -5  11   7 338.803 64.1823   9
  -5  11   7 260.912 86.6198   8
   5 -11  -7 330.700 77.7367  14
  -5  11   6 5084.54 256.962   1
  -5  11   6 4505.28 184.584   9
  -5  11   6 5110.88 265.271   8
   5 -11  -6 5195.81 230.903  14
   5 -11  -5 4413.54 209.842  14
  -5  11   5 4389.36 240.559   1
  -5  11   5 4323.06 245.940   8
  -5  11   4 99.2237 79.1499   1
   5 -11  -4 58.4079 57.2378  14
   5 -11  -4 25.1979 54.0838  13
   5 -11  -3 1510.15 120.923  14
   5 -11  -3 1857.11 117.531  13
  -5  11   3 1916.10 166.651   1
  -5  11   3 1767.14 172.580   8
   5 -11  -2 1595.11 122.053  14
   5 -11  -2 2175.88 127.992  13
   5 -11  -2 1752.62 98.5314   6
  -5  11   2 1937.97 167.988   8
  -5  11   2 1949.79 172.051   1
   5 -11  -1 3424.69 165.123  13
  -5  11   1 3475.23 164.354   7
  -5  11   1 3418.41 207.926   8
  -5  11   1 3294.41 234.281   1
   5 -11  -1 2974.95 121.505  11
   5 -11   0 1614.63 115.114  13
   5 -11   0 1585.41 87.2440  11
  -5  11   0 1773.91 179.635   1
  -5  11   0 2002.57 149.681   8
  -5  11   0 1491.01 109.241   7
   5 -11   1 320.117 67.6211  13
  -5  11  -1 269.455 100.611   1
   5 -11   1 306.800 48.6578  11
  -5  11  -1 274.929 77.7733   8
  -5  11  -1 244.847 60.5700   7
  -5  11  -2 2032.75 129.418   7
  -5  11  -2 2150.24 144.995   8
   5 -11   2 2482.93 146.111  13
  -5  11  -3 12116.1 467.017   1
  -5  11  -3 11310.6 373.370   7
  -5  11  -3 11679.8 382.062   8
   5 -11   3 11741.9 394.263  13
  -5  11  -4 6314.01 305.705   1
  -5  11  -4 5934.54 239.756   7
  -5  11  -4 5842.98 232.314   8
  -5  11  -5 487.878 103.865   1
  -5  11  -5 670.702 82.9570   7
  -5  11  -5 584.911 70.7428   8
  -5  11  -6 4592.50 249.199   1
  -5  11  -6 4891.06 219.077   7
  -5  11  -6 4496.75 180.094   8
   5 -11   6 4684.02 235.289  13
  -5  11  -7 3941.75 224.460   1
  -5  11  -7 4195.09 206.285   7
   5 -11   7 3785.29 219.900  13
  -5  11  -8 374.775 96.3571   1
  -5  11  -8 366.023 81.9443   7
   5 -11   8 472.998 100.268  13
  -5  11  -9 8.23065 73.9771   1
  -5  11  -9 48.9295 70.0163   7
   5 -11   9-73.0265 77.0366  13
  -5  10  11 346.790 89.8857   9
  -5  10  10 685.807 94.2146   9
  -5  10  10 820.623 112.453   8
   5 -10 -10 654.480 103.027  14
   5 -10  -9 1328.78 124.633  14
  -5  10   9 1222.71 131.363   8
  -5  10   9 1268.95 111.417   9
   5 -10  -9 1369.38 114.225   4
  -5  10   8 1276.30 124.862   1
   5 -10  -8 1481.70 127.352  14
  -5  10   8 1269.47 103.458   9
  -5  10   8 1449.87 139.484   8
   5 -10  -8 1320.78 109.527   4
  -5  10   7-32.2388 63.2595   1
  -5  10   7 14.8797 47.5505   9
  -5  10   7 62.8957 65.7357   8
   5 -10  -7 83.1324 58.2485  14
  -5  10   6 651.160 98.2301   1
  -5  10   6 697.488 70.9787   9
  -5  10   6 760.510 107.691   8
   5 -10  -6 552.030 84.3723  14
  -5  10   5 6608.15 295.093   1
   5 -10  -5 7172.46 265.364  14
  -5  10   5 6266.69 221.597   9
  -5  10   5 6534.02 303.653   8
   5 -10  -4 6786.43 236.561  13
  -5  10   4 6159.21 293.013   1
   5 -10  -4 6752.06 255.070  14
   5 -10  -3 296.891 58.6694  13
   5 -10  -3 291.480 48.4839   6
   5 -10  -3 331.193 33.7900  11
  -5  10   3 473.848 95.4236   1
   5 -10  -3 306.497 62.0209  14
   5 -10  -2 8611.59 301.319  14
   5 -10  -2 9002.30 293.200  13
   5 -10  -2 8657.38 265.787   6
   5 -10  -2 9248.57 248.868  11
  -5  10   2 8908.51 381.547   1
  -5  10   2 9263.70 368.096   8
  -5  10   2 8550.04 294.543   7
   5 -10  -1 5313.83 212.799  14
   5 -10  -1 5049.09 204.766  13
   5 -10  -1 5321.16 175.264   6
  -5  10   1 5397.67 194.488   5
   5 -10  -1 5152.14 169.548  11
  -5  10   1 5695.14 301.577   1
  -5  10   1 5117.91 250.366   8
  -5  10   1 5415.85 211.240   7
   5 -10   0 698.569 77.5756  14
   5 -10   0 570.329 73.7813  13
  -5  10   0 722.328 73.6338   5
   5 -10   0 694.746 52.1624   6
   5 -10   0 790.294 59.3425  11
  -5  10   0 769.729 97.4917   8
  -5  10   0 714.293 77.1201   7
  -5  10   0 512.760 114.528   1
   5 -10   1-21.6413 45.8115  14
   5 -10   1-5.78500 23.8915   6
  -5  10  -1 40.7448 46.9077   7
   5 -10   1 50.1819 44.1189  13
   5 -10   1-3.37529 31.9990  11
  -5  10  -1 86.8304 49.7774   8
   5 -10   2 244.052 59.8873  14
   5 -10   2 220.673 57.9165  13
  -5  10  -2 155.815 52.0635   7
   5 -10   2 134.671 24.1221   6
   5 -10   2 191.306 45.4818  11
  -5  10  -2 191.092 55.7734   8
   5 -10   3 2980.28 161.234  13
  -5  10  -3 2882.41 196.939   1
  -5  10  -3 2954.17 149.266   8
  -5  10  -3 2835.83 147.873   7
  -5  10  -3 2788.22 149.332  12
  -5  10  -4 7808.57 337.100   1
  -5  10  -4 7838.35 268.540   8
  -5  10  -4 7637.27 276.334   7
  -5  10  -4 7833.39 282.631  12
  -5  10  -5 2514.23 173.544   1
  -5  10  -5 2513.40 146.469  12
  -5  10  -5 2296.15 123.598   8
  -5  10  -5 2500.13 143.357   7
   5 -10   6 2476.18 163.864  13
  -5  10  -6 2291.69 166.146   1
  -5  10  -6 2487.79 148.830  12
  -5  10  -6 2340.64 115.526   8
  -5  10  -6 2557.67 147.495   7
  -5  10  -7 10222.5 354.021  12
  -5  10  -7 9742.20 373.103   1
   5 -10   7 9425.47 370.581  13
  -5  10  -7 9802.54 345.985   7
  -5  10  -8 2225.27 150.960  12
  -5  10  -8 2031.00 153.008   1
   5 -10   8 2070.94 162.537  13
  -5  10  -8 2459.67 157.987   7
  -5  10  -9 143.624 69.0922  12
  -5  10  -9 139.917 72.9933   1
   5 -10   9 191.052 77.7188  13
  -5  10  -9 255.061 75.0098   7
  -5  10 -10 1504.08 138.571  12
  -5  10 -10 1148.61 117.428   1
  -5  10 -10 1504.39 139.636   7
   5 -10  10 1770.70 168.457  13
  -5   9  12 1544.90 144.108   8
  -5   9  12 1541.74 149.175   9
  -5   9  11 17.0188 73.5617   9
  -5   9  11 41.1920 72.1751   8
   5  -9 -11 34.7835 74.6639  14
   5  -9 -10 2274.10 162.721  14
  -5   9  10 2474.95 169.959   8
  -5   9  10 1936.71 143.587   9
   5  -9 -10 2182.83 142.767   4
  -5   9   9 3508.65 184.006   1
   5  -9  -9 3312.19 184.146  14
  -5   9   9 2983.23 186.829   8
  -5   9   9 3156.74 171.230   9
   5  -9  -9 3308.24 172.132   4
   5  -9  -8 785.866 88.4063   4
  -5   9   8 791.757 99.4227   1
  -5   9   8 736.024 82.2833   9
  -5   9   8 764.435 103.940   8
   5  -9  -8 774.411 95.4135  14
  -5   9   7 847.902 81.6435   9
  -5   9   7 839.856 104.292   8
  -5   9   7 684.112 95.1089   1
   5  -9  -7 888.731 95.3115  14
  -5   9   6-23.2342 65.1146   1
   5  -9  -6 17.7711 47.9931  14
  -5   9   6 21.9899 38.5297   9
  -5   9   6 43.7402 55.5989   8
   5  -9  -5 4998.67 205.294  14
   5  -9  -5 4905.91 181.099  13
  -5   9   5 4370.64 174.251   9
  -5   9   5 4738.00 246.151   8
  -5   9   5 4765.70 234.754   1
   5  -9  -4 8594.45 264.114  13
   5  -9  -4 7861.00 257.419   6
   5  -9  -4 7804.40 203.734  11
   5  -9  -4 8690.24 285.468  14
  -5   9   4 8399.63 270.090  13
  -5   9   4 8494.44 334.817   1
   5  -9  -3 4075.33 165.476  13
   5  -9  -3 4098.66 155.987   6
   5  -9  -3 4003.72 124.319  11
  -5   9   3 4161.71 171.306  13
   5  -9  -3 4325.64 179.447  14
  -5   9   3 4531.26 236.567   1
  -5   9   2 1311.19 136.219   1
  -5   9   2 1253.85 91.4452  13
   5  -9  -2 1228.52 92.3875  14
   5  -9  -2 1168.93 86.7663  13
   5  -9  -2 1206.16 72.9809   6
   5  -9  -2 1247.66 62.9212  11
  -5   9   2 1084.04 112.845   8
  -5   9   2 1289.12 92.6271   7
  -5   9   1 16212.4 581.174   1
   5  -9  -1 15736.3 465.600  14
  -5   9   1 16352.1 465.558  13
   5  -9  -1 16695.1 465.226  13
  -5   9   1 17332.0 454.958   5
   5  -9  -1 15869.6 422.007   6
   5  -9  -1 16700.7 423.116  11
  -5   9   1 16557.5 517.596   8
   5  -9  -1 16739.2 427.941   9
  -5   9   1 16828.9 468.536   7
  -5   9   0 7292.53 357.677   1
   5  -9   0 7684.59 260.745  14
   5  -9   0 7478.55 259.988  13
   5  -9   0 7285.74 210.337   6
  -5   9   0 7634.95 252.789   5
   5  -9   0 7633.29 226.050  11
  -5   9   0 7630.46 287.838   8
  -5   9   0 7531.16 256.162   7
  -5   9  -1 70.6496 44.6580   5
   5  -9   1 34.2125 43.9359  14
   5  -9   1 46.2445 40.9908  13
  -5   9  -1-4.63688 41.1596   7
   5  -9   1 25.7020 19.6494   6
   5  -9   1 51.4251 35.3893  11
  -5   9  -1 70.3098 47.1090   8
  -5   9  -2 1178.58 89.0010   7
   5  -9   2 1239.43 96.8223  13
   5  -9   2 1083.21 41.9638   6
   5  -9   2 1319.25 83.4744  11
  -5   9  -2 1420.39 97.5338  12
  -5   9  -2 1227.08 94.6008   8
  -5   9  -2 1029.69 122.073   1
   5  -9   3 3209.17 166.567  13
  -5   9  -3 3423.60 205.275   1
  -5   9  -3 3452.83 155.502   8
  -5   9  -3 3458.25 157.119   7
   5  -9   3 3400.36 150.337  11
  -5   9  -3 3131.21 155.933  12
  -5   9  -4 3563.87 206.119   1
  -5   9  -4 3733.83 170.439  12
  -5   9  -4 3584.74 154.165   8
  -5   9  -4 3472.18 164.671   7
   5  -9   5 2816.90 170.576  13
  -5   9  -5 3066.40 186.218   1
  -5   9  -5 3420.09 163.268  12
  -5   9  -5 2979.96 132.243   8
  -5   9  -5 3225.50 158.848   7
  -5   9  -6 194.057 60.1780  12
  -5   9  -6 187.981 74.7978   1
   5  -9   6 134.611 60.2790  13
  -5   9  -6 272.874 64.5898   7
  -5   9  -7 3767.07 188.263  12
  -5   9  -7 3610.63 197.321   1
   5  -9   7 3485.22 201.342  13
  -5   9  -7 3730.17 182.216   7
  -5   9  -8 9868.55 350.897  12
  -5   9  -8 9159.60 343.637   1
   5  -9   8 9638.40 375.477  13
  -5   9  -8 9790.05 344.514   7
  -5   9  -9 2306.11 157.791  12
  -5   9  -9 2288.06 149.422   1
   5  -9   9 2338.04 180.834  13
  -5   9  -9 2574.37 164.640   7
  -5   9 -10 558.682 99.0076  12
  -5   9 -10 597.327 85.4067   1
  -5   9 -10 567.694 100.282   7
   5  -9  10 686.514 114.330  13
  -5   9 -11 2968.18 194.134  12
  -5   9 -11 3214.32 200.624   7
   5  -9  11 3413.77 216.651  13
  -5   8  13 1321.81 137.311   3
  -5   8  13 1111.15 149.508   9
  -5   8  13 1570.41 139.497   8
   5  -8 -12 2483.37 178.035  14
  -5   8  12 2396.13 166.176   3
  -5   8  12 2429.32 164.842   8
  -5   8  12 2313.30 177.973   9
   5  -8 -11 1254.41 123.671  14
  -5   8  11 1287.01 123.347   8
  -5   8  11 1075.35 123.795   9
  -5   8  11 1128.92 113.759   3
   5  -8 -11 1170.93 113.419   4
   5  -8 -10 371.951 75.1395   4
  -5   8  10 464.175 80.3037   3
   5  -8 -10 444.221 86.3619  14
  -5   8  10 388.295 82.5684   9
  -5   8  10 577.917 97.8258   8
  -5   8   9 7785.67 292.603   1
   5  -8  -9 8107.81 301.734  14
  -5   8   9 7552.91 289.661   9
  -5   8   9 7910.48 315.002   8
  -5   8   9 7825.93 289.032   3
   5  -8  -9 8088.08 290.825   4
  -5   8   8 8664.44 317.348   1
   5  -8  -8 8704.52 310.378  14
  -5   8   8 8647.40 334.295   8
  -5   8   8 8450.31 301.253   9
   5  -8  -8 8916.86 305.787   4
  -5   8   7 531.712 80.7038   1
  -5   8   7 467.479 65.4005   9
  -5   8   7 503.124 84.1836   8
   5  -8  -7 560.509 76.3522  14
   5  -8  -6 589.235 73.5606  14
  -5   8   6 790.825 74.5301   9
  -5   8   6 711.102 96.0687   8
  -5   8   6 783.373 95.2272   1
  -5   8   5 1802.57 101.518  13
   5  -8  -5 1855.74 114.495  14
   5  -8  -5 1955.01 98.3755  13
   5  -8  -5 1928.74 109.590   6
  -5   8   5 1928.25 150.919   8
  -5   8   5 1943.51 105.197   9
  -5   8   5 1935.17 142.119   1
  -5   8   4 3804.41 202.802   1
  -5   8   4 3359.92 144.429  13
   5  -8  -4 3619.35 158.259  14
   5  -8  -4 3693.32 142.256  13
   5  -8  -4 3460.16 143.588   6
   5  -8  -4 3233.05 93.6370  11
  -5   8   4 3645.15 141.302   9
  -5   8   4 3591.12 213.668   8
   5  -8  -4 3671.85 152.605   3
   5  -8  -3 7822.78 260.627  14
  -5   8   3 7916.84 254.845  13
   5  -8  -3 7899.19 248.202  13
   5  -8  -3 7658.51 238.302   6
   5  -8  -3 7709.89 205.708  11
   5  -8  -3 8311.24 260.722   3
  -5   8   3 7995.93 330.888   1
   5  -8  -2 2295.42 115.752   3
  -5   8   2 2320.70 171.351   1
   5  -8  -2 2272.83 117.581  14
  -5   8   2 2257.36 114.913  13
   5  -8  -2 2242.01 112.114  13
   5  -8  -2 2136.08 93.5686   6
   5  -8  -2 2186.69 84.5842  11
   5  -8  -2 2344.97 100.306   9
  -5   8   2 2183.55 146.020   8
  -5   8   2 2226.36 115.794   7
   5  -8  -1 4854.78 185.905   3
  -5   8   1 5336.42 280.891   1
   5  -8  -1 4928.10 190.728  14
  -5   8   1 4884.83 188.624  13
   5  -8  -1 5393.30 193.501  13
   5  -8  -1 4897.37 156.683   6
  -5   8   1 5051.18 182.705   5
   5  -8  -1 5126.19 160.008  11
  -5   8   1 5347.01 226.332   8
   5  -8  -1 5124.42 167.837   9
   5  -8  -1 5244.61 187.309   7
  -5   8   1 5620.64 198.023   7
   5  -8   0 22145.0 575.185   3
  -5   8   0 22146.2 706.828   1
  -5   8   0 21990.9 582.820  13
   5  -8   0 21728.8 578.255  14
   5  -8   0 21696.1 580.699  13
  -5   8   0 22508.0 575.467   5
   5  -8   0 20855.3 522.054   6
   5  -8   0 21366.3 545.397  11
   5  -8   0 22212.7 545.895   9
  -5   8   0 21751.1 609.917   8
   5  -8   0 21195.5 565.789   7
  -5   8   0 22408.8 578.929   7
  -5   8  -1 7906.15 260.184  13
   5  -8   1 7457.71 258.595  13
  -5   8  -1 7750.39 257.923   5
   5  -8   1 7037.46 191.978   6
   5  -8   1 7689.56 234.643  11
  -5   8  -1 8050.44 271.121   8
   5  -8   1 8090.65 247.938   7
  -5   8  -1 7958.54 254.143   7
  -5   8  -2 3570.08 206.119   1
  -5   8  -2 3149.36 151.874  13
   5  -8   2 3210.39 156.034  13
   5  -8   2 3249.66 138.747  11
  -5   8  -2 3150.02 147.249  12
  -5   8  -2 3255.28 156.846   5
   5  -8   2 3543.99 127.490   9
  -5   8  -2 3301.91 152.257   8
   5  -8   2 3387.82 143.071   7
  -5   8  -2 3289.19 145.738   7
  -5   8  -3 14009.4 474.277   1
   5  -8   3 14312.6 375.637   9
  -5   8  -3 13919.4 400.873   8
  -5   8  -3 13915.7 405.551   7
   5  -8   3 13717.0 404.043  11
  -5   8  -3 14299.8 413.966  12
  -5   8  -4 5073.23 239.485   1
  -5   8  -4 4717.46 194.749  12
   5  -8   4 4853.00 199.327  11
  -5   8  -4 4730.39 179.635   8
  -5   8  -5 860.050 81.9439  12
  -5   8  -5 891.037 100.690   1
   5  -8   5 732.143 88.8584  13
  -5   8  -5 816.028 76.8598   7
  -5   8  -6 132.051 52.5805  12
  -5   8  -6 90.9887 55.3984   1
   5  -8   6 14.5294 49.5323  13
  -5   8  -6 32.2545 45.8593   7
  -5   8  -7 646.091 81.3401  12
  -5   8  -7 521.524 82.0080   1
   5  -8   7 673.652 94.5892  13
  -5   8  -7 571.568 77.5817   7
  -5   8  -8 6362.78 260.702  12
  -5   8  -8 6193.24 256.361   1
   5  -8   8 6670.85 292.341  13
  -5   8  -8 6513.30 258.951   7
  -5   8  -9 8274.56 315.662  12
  -5   8  -9 7514.10 286.941   1
   5  -8   9 8082.94 343.655  13
  -5   8  -9 8063.04 308.810   7
  -5   8 -10 492.253 86.8063  12
  -5   8 -10 503.699 76.8906   1
  -5   8 -10 560.216 95.4292   7
   5  -8  10 450.119 99.4715  13
  -5   8 -11 2682.56 178.744   7
   5  -8  11 2660.05 186.738  13
  -5   8 -11 2944.26 189.803  12
  -5   8 -12 3790.82 223.341   7
  -5   7  14 92.1715 83.6326   3
  -5   7  13 212.354 76.8274   3
  -5   7  13 450.348 108.935   9
  -5   7  13 365.972 89.1786   8
   5  -7 -13 300.866 93.8073  14
   5  -7 -12 1286.43 130.339  14
   5  -7 -12 1484.50 122.163   4
  -5   7  12 1373.31 131.375   3
  -5   7  12 1279.68 136.573   9
  -5   7  12 1231.70 117.126   8
   5  -7 -11 2628.22 168.502  14
  -5   7  11 2588.21 174.317   9
  -5   7  11 2386.59 157.113   8
  -5   7  11 2300.75 155.695   3
   5  -7 -11 2579.39 154.121   4
   5  -7 -10 361.396 76.0290   4
  -5   7  10 328.730 66.7427   1
  -5   7  10 532.346 79.0540   3
   5  -7 -10 268.552 71.9906  14
  -5   7  10 245.634 70.0590   9
  -5   7  10 377.903 84.2568   8
  -5   7   9 3034.01 160.664   1
  -5   7   9 3167.87 179.112   8
  -5   7   9 3051.12 168.003   9
  -5   7   9 2925.00 160.477   3
   5  -7  -9 3089.66 163.228   4
   5  -7  -9 3000.89 162.381  14
  -5   7   8 10714.3 356.914   1
   5  -7  -8 10524.4 356.347   2
  -5   7   8 9996.69 340.455   9
  -5   7   8 10142.4 372.038   8
  -5   7   8 10542.5 345.125   3
   5  -7  -8 10913.8 347.185   4
   5  -7  -8 10857.1 348.354  14
  -5   7   7 7026.11 273.099   1
   5  -7  -7 6987.63 255.088  14
  -5   7   7 7121.16 251.490   9
  -5   7   7 6816.51 291.452   8
   5  -7  -7 7063.02 255.604   4
  -5   7   6 998.431 97.1844   1
  -5   7   6 911.060 67.8968  13
   5  -7  -6 1067.51 84.1632  14
  -5   7   6 975.569 77.4308   9
  -5   7   6 785.065 97.7496   8
   5  -7  -6 978.671 82.7337   3
   5  -7  -6 928.931 61.9749  13
  -5   7   5 8954.94 327.959   1
   5  -7  -5 9028.34 285.602  14
  -5   7   5 8494.03 263.454  13
   5  -7  -5 8823.60 253.880  13
  -5   7   5 8334.34 270.512   9
  -5   7   5 8170.26 345.917   8
   5  -7  -5 8714.70 274.798   5
   5  -7  -5 8891.17 280.397   3
   5  -7  -4 5232.35 202.368   5
   5  -7  -4 5529.51 194.067   3
  -5   7   4 5509.94 245.696   1
   5  -7  -4 5499.18 194.314  14
  -5   7   4 5421.27 183.175  13
   5  -7  -4 5348.60 173.479  13
   5  -7  -4 5209.86 184.310   6
   5  -7  -4 4717.43 127.368  11
   5  -7  -4 5627.27 189.419  12
  -5   7   4 5049.89 180.114   9
  -5   7   4 5614.99 256.062   8
   5  -7  -4 4896.21 184.019   7
   5  -7  -3 3277.27 139.148   3
   5  -7  -3 3221.45 165.221   5
  -5   7   3 3321.14 194.712   1
  -5   7   3 3174.82 133.837  13
   5  -7  -3 2963.83 134.975  14
   5  -7  -3 3146.93 129.166  13
   5  -7  -3 3157.52 124.721   6
   5  -7  -3 3348.35 136.101  12
   5  -7  -3 3058.41 96.0800  11
   5  -7  -3 3348.88 127.244   9
   5  -7  -3 3249.41 135.768   7
   5  -7  -2 699.920 63.4144   3
   5  -7  -2 716.018 83.0790   5
  -5   7   2 644.935 98.3175   1
  -5   7   2 651.983 63.0107  13
   5  -7  -2 641.206 59.8432  14
   5  -7  -2 683.604 56.4179  13
   5  -7  -2 587.820 46.6486   6
   5  -7  -2 676.026 42.8287  11
   5  -7  -2 600.822 56.1602  12
  -5   7   2 763.762 84.5821   8
   5  -7  -2 652.911 52.6638   9
  -5   7   2 657.292 61.2092   7
   5  -7  -2 667.609 59.8041   7
   5  -7  -1 311.703 62.0413   5
   5  -7  -1 410.626 51.1583   3
  -5   7   1 530.312 97.0919   1
   5  -7  -1 371.989 48.8659  14
  -5   7   1 358.220 51.1972  13
   5  -7  -1 300.749 45.4930  13
  -5   7   1 334.566 48.9846   7
   5  -7  -1 369.988 33.4273   6
   5  -7  -1 300.956 35.7648  11
   5  -7  -1 359.198 47.1364  12
   5  -7  -1 369.499 41.9057   9
  -5   7   1 280.737 57.5119   8
   5  -7  -1 293.217 45.7108   7
   5  -7   0 7505.39 288.266   5
   5  -7   0 7321.55 244.671   3
  -5   7   0 7448.95 336.089   1
   5  -7   0 7527.93 243.832  14
  -5   7   0 7561.05 251.692  13
   5  -7   0 7800.83 240.761  12
   5  -7   0 7631.61 249.323  13
   5  -7   0 7137.89 196.992   6
  -5   7   0 7601.46 248.418   5
   5  -7   0 7965.07 229.510  11
  -5   7   0 7800.69 267.518   8
   5  -7   0 8162.97 229.424   9
   5  -7   0 7841.81 239.609   7
  -5   7   0 7498.84 243.505   7
   5  -7   1 20431.8 489.618   7
  -5   7  -1 19927.8 496.152   7
   5  -7   1 20437.1 511.269  13
   5  -7   1 19414.3 487.805  12
  -5   7  -1 19857.1 505.996   5
  -5   7  -1 19458.1 499.682  12
   5  -7   1 20157.9 474.370   9
  -5   7  -1 20028.6 515.377   8
   5  -7   1 20249.3 561.286   5
  -5   7  -2 3422.13 144.208   7
   5  -7   2 3621.35 142.634   7
   5  -7   2 3645.29 144.836  12
   5  -7   2 3544.59 161.036  13
  -5   7  -2 3397.42 157.957   5
  -5   7  -2 3375.96 147.630  12
   5  -7   2 3670.48 133.560   9
  -5   7  -2 3485.14 150.890   8
  -5   7  -2 3886.76 204.772   1
   5  -7   3 7117.89 231.101  12
  -5   7  -3 7316.58 263.547   5
  -5   7  -3 6858.73 239.722  12
   5  -7   3 7103.18 228.016   7
  -5   7  -3 6943.45 235.146   7
  -5   7  -3 7036.60 289.968   1
  -5   7  -4 15870.6 455.214  12
  -5   7  -4 15852.3 497.641   1
  -5   7  -4 15866.2 447.539   7
   5  -7   4 16288.9 438.181   7
  -5   7  -5 4883.13 196.790  12
  -5   7  -5 4958.66 222.084   1
   5  -7   5 4536.47 212.895  13
  -5   7  -5 4905.35 190.666   7
  -5   7  -6 142.865 50.0552  12
  -5   7  -6 51.1968 51.0968   1
   5  -7   6 91.8217 55.0282  13
  -5   7  -6 124.473 47.7851   7
  -5   7  -7 1718.61 118.981  12
   5  -7   7 1647.56 136.235  13
  -5   7  -7 1769.21 117.653   7
   5  -7   7 1751.76 127.612   2
  -5   7  -7 1643.69 121.306   1
  -5   7  -8 1766.95 126.373  12
   5  -7   8 2240.69 160.679  13
   5  -7   8 1717.54 105.996  10
  -5   7  -8 1894.80 128.233   7
   5  -7   8 1911.01 128.492   2
  -5   7  -8 2044.99 130.789   1
  -5   7  -9 1672.15 114.966   1
  -5   7  -9 1804.14 130.499   7
   5  -7   9 1763.52 145.224  13
  -5   7  -9 1807.69 135.219  12
  -5   7 -10 1544.04 127.390   7
  -5   7 -10 1422.02 126.112  12
   5  -7  10 1413.99 131.759  13
  -5   7 -11 35.8653 67.4258  12
  -5   7 -11 49.0765 69.2578   7
   5  -7  11-67.0773 73.9346  13
  -5   7 -12 2510.77 179.857   7
   5  -7  12 2656.19 178.464  13
   5  -6 -14 19.2091 84.2703  14
  -5   6  14-36.1830 98.5745   9
   5  -6 -13 1364.04 136.761  14
  -5   6  13 1604.51 148.358   3
   5  -6 -13 1490.42 129.069   4
  -5   6  13 1592.81 127.479   8
  -5   6  13 1577.19 158.011   9
   5  -6 -12 1342.08 128.568  14
  -5   6  12 1157.73 121.438   3
   5  -6 -12 1396.31 117.814   4
  -5   6  12 1447.88 121.632   8
  -5   6  12 1524.26 143.228   9
   5  -6 -11 1266.65 117.920  14
  -5   6  11 1179.61 111.725   8
  -5   6  11 1275.85 122.485   9
   5  -6 -11 1245.83 108.758   4
  -5   6  11 1155.65 113.566   3
  -5   6  10 782.606 82.4964   1
   5  -6 -10 837.688 93.6811  14
  -5   6  10 964.820 102.991   9
  -5   6  10 865.490 99.6699   8
   5  -6 -10 925.027 97.5482   4
  -5   6  10 961.973 94.5455   3
   5  -6  -9 264.372 58.8389   4
   5  -6  -9 218.610 27.6252   5
   5  -6  -9 223.875 58.1337   2
  -5   6   9 281.954 60.8025   3
  -5   6   9 188.923 55.2897   1
   5  -6  -9 212.339 64.1655  14
  -5   6   9 233.480 56.4854   9
  -5   6   9 269.901 65.6175   8
   5  -6  -8 3157.54 152.109  14
  -5   6   8 3230.81 180.605   8
  -5   6   8 3242.93 158.657   9
   5  -6  -8 2912.06 109.533   5
   5  -6  -8 3065.93 153.517   4
  -5   6   8 2979.66 154.050   3
   5  -6  -8 3243.33 162.993   2
  -5   6   8 3279.68 163.998   1
  -5   6   7 12403.1 360.840  14
  -5   6   7 12620.1 336.754  13
   5  -6  -7 12733.8 371.991  14
   5  -6  -7 12276.0 394.836   2
  -5   6   7 12037.8 392.738   1
  -5   6   7 12579.1 426.031   8
  -5   6   7 11854.6 370.220   9
   5  -6  -7 11712.9 332.487   5
   5  -6  -7 12352.4 377.446   4
  -5   6   7 12131.4 374.872   3
   5  -6  -6 4398.71 172.644   3
   5  -6  -6 3975.80 153.849   5
  -5   6   6 4284.76 173.883   3
  -5   6   6 4221.78 148.720  13
   5  -6  -6 4134.99 167.870  14
   5  -6  -6 3903.07 132.314  13
  -5   6   6 3836.58 189.424   1
   5  -6  -6 4066.88 162.731  12
  -5   6   6 4359.37 224.310   8
  -5   6   6 4067.81 166.590   9
   5  -6  -6 4126.11 163.876   7
   5  -6  -5 5124.89 195.780   5
   5  -6  -5 5504.62 197.289   3
  -5   6   5 5541.59 181.601  13
   5  -6  -5 5565.41 196.014  14
   5  -6  -5 5374.43 166.870  13
  -5   6   5 5038.46 228.382   1
   5  -6  -5 5365.11 188.309  12
  -5   6   5 5412.05 193.147   9
  -5   6   5 5080.27 250.307   8
   5  -6  -5 5189.86 187.159   7
   5  -6  -4 24005.0 641.417   5
   5  -6  -4 25927.6 630.911   3
  -5   6   4 25167.7 615.975  13
   5  -6  -4 24823.3 622.366  14
   5  -6  -4 24392.1 598.128  13
  -5   6   4 25751.6 704.090   1
   5  -6  -4 25058.0 616.697  12
   5  -6  -4 22864.2 554.130  11
  -5   6   4 22755.6 614.093   9
   5  -6  -4 25581.5 613.808   9
  -5   6   4 25433.2 703.272   8
   5  -6  -4 25646.0 619.274   7
   5  -6  -4 25089.9 696.534   8
   5  -6  -3 5208.95 188.955   3
   5  -6  -3 5162.14 202.133   5
  -5   6   3 5790.16 258.537   1
   5  -6  -3 5210.02 182.887  14
  -5   6   3 5292.18 184.388  13
   5  -6  -3 5144.20 172.250  13
   5  -6  -3 5229.91 145.069  11
   5  -6  -3 5412.58 181.693  12
   5  -6  -3 5632.02 180.820   9
   5  -6  -3 5201.77 235.067   8
   5  -6  -3 5576.37 184.078   7
   5  -6  -2 89.5175 44.4574   5
   5  -6  -2 77.4148 35.5800   3
  -5   6   2 18.5736 46.6977   1
   5  -6  -2 68.3099 28.9283  14
  -5   6   2 106.206 35.4452  13
   5  -6  -2 120.119 31.4152  13
  -5   6   2 90.9251 31.6188   7
   5  -6  -2 75.4630 21.8923  11
   5  -6  -2 62.3038 31.9779  12
   5  -6  -2 113.186 30.0833   9
   5  -6  -2 120.349 36.8685   7
   5  -6  -2 13.9618 44.4055   8
   5  -6  -1 1059.72 85.0223   5
   5  -6  -1 997.133 71.5638   3
  -5   6   1 1097.30 123.351   1
   5  -6  -1 1049.37 69.3664  14
   5  -6  -1 986.545 70.0824  13
   5  -6  -1 1018.01 50.4109   6
   5  -6  -1 1047.57 68.4783  12
   5  -6  -1 1106.68 66.6594   9
  -5   6   1 1044.92 84.3884   8
   5  -6  -1 1046.64 101.312   8
   5  -6  -1 1087.14 69.1300   7
  -5   6   1 1056.34 70.0267   7
  -5   6   0 1374.97 132.394   1
   5  -6   0 1697.71 85.4775   7
   5  -6   0 1690.86 126.540   8
  -5   6   0 1645.40 88.0700   7
   5  -6   0 1688.18 92.4176  13
   5  -6   0 1691.18 87.3880  12
   5  -6   0 1545.95 56.5489   6
  -5   6   0 1825.17 94.8021  12
   5  -6   0 1695.63 84.4816   9
  -5   6   0 1486.77 99.1936   8
   5  -6   0 1733.88 110.523   5
   5  -6   0 1503.53 88.9580   3
   5  -6   1 6906.78 214.382   7
  -5   6  -1 7294.64 222.076   7
   5  -6   1 7343.41 279.414   8
   5  -6   1 6939.71 233.699  13
   5  -6   1 6697.33 216.176  12
  -5   6  -1 6847.33 232.751   5
  -5   6  -1 6792.72 224.625  12
  -5   6  -1 6231.56 226.985   8
   5  -6   1 6934.53 212.221   9
   5  -6   1 6794.67 256.355   5
   5  -6   2 9450.11 272.413  12
   5  -6   2 8914.54 290.823  13
  -5   6  -2 8762.11 289.716   5
  -5   6  -2 8940.18 277.441  12
  -5   6  -2 8747.64 269.879   7
   5  -6   2 8935.68 265.443   7
   5  -6   2 9218.72 314.006   8
  -5   6  -2 9237.69 339.658   1
   5  -6   3 1164.29 76.8971  12
  -5   6  -3 1117.97 88.9580   5
  -5   6  -3 931.290 74.1643  12
   5  -6   3 1051.39 70.6484   7
   5  -6   3 1314.45 95.3860   8
  -5   6  -3 1166.80 78.1317   7
  -5   6  -3 1082.09 101.499   1
  -5   6  -4 11098.4 323.938   7
   5  -6   4 10729.6 312.656   7
   5  -6   4 10991.8 320.381  12
  -5   6  -4 10665.8 329.989  12
  -5   6  -4 11029.9 369.215   1
   5  -6   4 10673.5 372.353   5
  -5   6  -4 10670.6 359.446   5
   5  -6   5 18084.4 540.406   2
  -5   6  -5 17778.6 534.089   1
  -5   6  -5 18608.5 510.924  12
   5  -6   5 18022.1 539.926  13
  -5   6  -5 18380.1 498.425   7
   5  -6   5 18470.9 487.573   7
   5  -6   6 1815.71 136.686  13
   5  -6   6 1874.84 127.206   2
  -5   6  -6 1868.60 124.711   1
  -5   6  -6 2245.02 124.740  12
   5  -6   6 2005.88 113.930  10
  -5   6  -6 2025.02 116.781   7
   5  -6   7 1722.63 138.442  13
   5  -6   7 1574.37 114.720   2
  -5   6  -7 1732.03 119.105   1
  -5   6  -7 1728.99 118.602  12
   5  -6   7 1808.02 106.471  10
  -5   6  -7 1928.25 119.074   7
   5  -6   8 3106.21 186.451  13
  -5   6  -8 3289.11 159.620   1
   5  -6   8 3202.66 160.687   2
   5  -6   8 3271.47 149.875  10
  -5   6  -8 3518.16 176.601  12
  -5   6  -8 3289.14 164.272   7
  -5   6  -9 1502.72 122.608  12
  -5   6  -9 1818.89 126.840   7
   5  -6   9 1894.34 141.702  13
  -5   6 -10 1024.13 112.946  12
   5  -6  10 995.423 109.351  13
  -5   6 -10 1095.33 106.463   7
  -5   6 -11 386.241 88.6841  12
   5  -6  11 250.956 79.4739  13
  -5   6 -11 267.989 73.3209   7
  -5   6 -12 259.902 90.6787  12
   5  -6  12 378.797 87.8734  13
  -5   6 -12 298.416 90.6496   7
  -5   6 -13 1771.30 161.379   7
  -5   5  15 1785.84 166.273   3
   5  -5 -15 2079.38 166.890  14
  -5   5  14 732.999 132.883   9
  -5   5  14 828.422 124.798   3
   5  -5 -14 777.999 113.510  14
  -5   5  13 462.475 93.5127   3
   5  -5 -13 372.069 92.5910  14
   5  -5 -13 608.003 96.8330   4
  -5   5  13 399.530 95.6410   9
   5  -5 -12 5478.41 255.686  14
   5  -5 -12 5750.14 244.489   4
  -5   5  12 5307.93 253.305   3
  -5   5  12 5469.66 236.031   8
  -5   5  12 5011.57 258.586   9
   5  -5 -11 5043.30 228.068  14
  -5   5  11 4548.82 215.461   8
  -5   5  11 4676.62 229.651   9
   5  -5 -11 4690.07 213.788   4
  -5   5  11 4696.03 224.129   3
   5  -5 -10 243.539 60.1978   4
  -5   5  10 254.399 63.1124   3
   5  -5 -10 159.041 58.5728  14
   5  -5 -10 266.944 30.3075   5
  -5   5  10 245.137 64.7870   9
  -5   5  10 241.086 69.5029   8
   5  -5  -9 80.1532 47.8189   4
   5  -5  -9 93.5516 28.4501   5
   5  -5  -9 63.1317 45.8145   2
  -5   5   9 117.426 47.2294   3
  -5   5   9-15.2199 41.7631   1
   5  -5  -9 74.3785 47.7801  14
  -5   5   9 106.923 53.0819   9
  -5   5   9 76.0132 51.0555   8
  -5   5   8 1080.45 90.2368   1
   5  -5  -8 1057.57 92.2017   2
   5  -5  -8 988.352 82.0601  14
  -5   5   8 1026.96 77.7079  14
   5  -5  -8 998.330 62.8246   5
  -5   5   8 1062.45 89.3046   9
  -5   5   8 995.675 105.382   8
   5  -5  -8 1273.74 97.8193   4
  -5   5   8 986.314 87.2638   3
   5  -5  -7 7434.23 264.917   4
  -5   5   7 7234.74 260.314   3
   5  -5  -7 7757.80 258.013   3
  -5   5   7 7911.64 246.231  14
   5  -5  -7 7937.69 255.416  14
   5  -5  -7 7910.11 282.143   2
  -5   5   7 7701.73 278.240   1
   5  -5  -7 6985.30 234.779   5
  -5   5   7 7665.59 262.428   9
  -5   5   7 8396.06 319.507   8
   5  -5  -7 7959.16 297.324   8
   5  -5  -7 7886.69 254.802   7
   5  -5  -6 7793.69 253.844   3
   5  -5  -6 7862.20 262.452   4
   5  -5  -6 7709.93 283.755   2
  -5   5   6 7680.31 282.341   1
  -5   5   6 7665.86 237.520  14
   5  -5  -6 7799.89 246.855  14
   5  -5  -6 7392.91 204.525  13
   5  -5  -6 7398.01 240.057   5
  -5   5   6 7732.93 252.839   9
  -5   5   6 7694.69 317.255   8
   5  -5  -6 7696.05 244.903   7
   5  -5  -5 878.601 69.2718   3
  -5   5   5 855.634 88.3158   1
   5  -5  -5 956.536 94.3340   2
   5  -5  -5 938.563 67.3253  14
   5  -5  -5 858.044 49.6199  13
   5  -5  -5 1004.84 71.3023   5
   5  -5  -5 924.534 65.9235  12
   5  -5  -5 995.173 68.1118   9
  -5   5   5 1001.85 72.4333   9
  -5   5   5 967.392 99.8937   8
   5  -5  -5 882.321 65.2808   7
   5  -5  -5 1024.67 92.3612   8
   5  -5  -4 7728.07 243.338   3
   5  -5  -4 8267.81 306.165   2
  -5   5   4 7675.23 298.727   1
   5  -5  -4 7875.48 234.483  14
   5  -5  -4 7692.56 215.230  13
   5  -5  -4 7577.88 244.409   5
   5  -5  -4 7380.63 185.128  11
   5  -5  -4 7721.68 229.764  12
   5  -5  -4 7186.42 185.002  11
  -5   5   4 7254.14 238.539   9
  -5   5   4 7447.29 286.069   8
   5  -5  -4 8127.98 236.471   9
   5  -5  -4 7925.99 232.370   7
   5  -5  -4 7290.37 276.429   8
   5  -5  -3 35862.1 869.366   3
  -5   5   3 35249.7 962.876   1
   5  -5  -3 37493.1 973.602   2
   5  -5  -3 34274.8 850.562  14
   5  -5  -3 33780.5 840.870  13
   5  -5  -3 35047.2 875.312   5
   5  -5  -3 35244.4 853.135  12
   5  -5  -3 36035.8 857.484   9
   5  -5  -3 35219.0 852.233   7
   5  -5  -3 35982.7 919.265   8
   5  -5  -2 6164.27 202.780   3
  -5   5   2 5795.80 277.919   1
   5  -5  -2 5781.57 262.007   1
   5  -5  -2 6770.31 293.295   2
   5  -5  -2 5518.00 184.838  14
   5  -5  -2 5755.81 187.074  13
   5  -5  -2 5699.01 208.352   5
   5  -5  -2 6091.35 190.114  12
   5  -5  -2 6310.36 194.329   9
   5  -5  -2 5949.98 234.146   8
  -5   5   2 5884.56 190.917   7
   5  -5  -2 6065.99 189.189   7
   5  -5  -1 4328.09 161.578   3
  -5   5   1 5100.02 253.681   1
   5  -5  -1 4796.09 234.399   1
   5  -5  -1 4510.07 243.942   2
   5  -5  -1 4195.37 149.427  14
   5  -5  -1 4238.07 156.202  13
   5  -5  -1 4620.26 154.080  12
   5  -5  -1 4355.09 172.699   5
  -5   5   1 4215.14 176.568   8
   5  -5  -1 4467.02 154.313   9
   5  -5  -1 4306.11 192.726   8
   5  -5  -1 4447.67 150.501   7
  -5   5   1 4280.92 152.616   7
   5  -5   0 7071.64 238.713   5
   5  -5   0 7345.31 224.981   3
   5  -5   0 6791.75 285.540   1
   5  -5   0 6956.58 223.360  13
   5  -5   0 6847.06 208.533  12
   5  -5   0 6209.37 171.407   6
  -5   5   0 6944.23 214.466  12
   5  -5   0 6856.31 211.284   9
   5  -5   0 6984.04 205.230   7
   5  -5   0 7010.62 255.952   8
  -5   5   0 6642.35 208.152   7
   5  -5   1 3598.40 149.470  13
  -5   5  -1 3578.46 139.110  12
   5  -5   1 3620.26 134.501  12
   5  -5   1 3305.52 189.881   2
   5  -5   1 3770.48 190.481   1
   5  -5   1 3721.72 131.725   7
  -5   5  -1 3540.12 135.869   7
   5  -5   1 3760.72 176.221   8
   5  -5   2 1363.06 91.6623  13
   5  -5   2 1346.69 77.6580  12
  -5   5  -2 1383.47 82.0808  12
   5  -5   2 1426.36 116.188   2
  -5   5  -2 1294.05 107.558   1
  -5   5  -2 1238.31 73.2970   7
   5  -5   2 1242.92 70.6276   7
   5  -5   2 1356.93 96.2137   8
   5  -5   3 901.048 76.8239   8
  -5   5  -3 1035.61 67.9909   7
   5  -5   3 1000.01 64.6509   7
   5  -5   3 1020.15 69.9674  12
  -5   5  -3 992.684 70.7165  12
  -5   5  -3 1012.97 83.6242   5
   5  -5   3 1026.32 89.5399   5
   5  -5   3 1067.58 99.7243   2
  -5   5  -3 973.469 94.4725   1
   5  -5   4 163.879 53.7013   2
  -5   5  -4 310.489 59.9969   1
   5  -5   4 292.663 46.0360  12
  -5   5  -4 275.956 45.6180  12
  -5   5  -4 275.134 45.4827   7
   5  -5   4 282.619 41.6262   7
  -5   5  -4 299.627 57.2445   5
   5  -5   4 208.349 54.5720   5
   5  -5   5 8530.90 309.951   5
   5  -5   5 7735.66 306.319  13
   5  -5   5 8791.79 306.852   2
  -5   5  -5 9043.05 303.747   1
   5  -5   5 8780.72 272.145  12
  -5   5  -5 8722.70 280.978  12
   5  -5   5 8399.12 278.691  10
  -5   5  -5 8433.68 266.897   7
   5  -5   6 13723.6 449.704  13
  -5   5  -6 13955.2 412.209  12
  -5   5  -6 13982.1 418.836   1
   5  -5   6 13831.0 422.555   2
   5  -5   6 13084.0 397.483  10
  -5   5  -6 13889.2 397.131   7
   5  -5   7 483.202 75.7253  13
   5  -5   7 428.140 66.5988   2
  -5   5  -7 493.255 71.6689  12
   5  -5   7 401.864 61.0316  10
  -5   5  -7 501.416 64.6618   7
   5  -5   8 4024.40 208.026  13
   5  -5   8 4673.92 191.692   2
   5  -5   8 4255.86 178.237  10
  -5   5  -8 4703.92 195.505   7
  -5   5  -8 4548.66 205.017  12
   5  -5   9 8000.98 309.099  13
  -5   5  -9 7991.25 289.773   7
  -5   5  -9 7699.36 302.788  12
   5  -5  10 2224.34 151.752  13
  -5   5 -10 2167.17 145.100   7
  -5   5 -10 2253.84 159.448  12
  -5   5 -11 72.2560 71.4807  12
  -5   5 -11 92.1430 65.9429   7
   5  -5  11 37.2708 62.2388  13
  -5   5 -12 131.645 80.1602  12
  -5   5 -12 86.1508 76.4939   7
   5  -5  12 98.6786 71.1854  13
   5  -4 -15 1918.54 151.884  14
  -5   4  15 2079.71 176.659   3
   5  -4 -14 2444.56 167.625  14
   5  -4 -14 2336.07 166.488   4
  -5   4  14 2033.25 177.980   3
   5  -4 -13-23.1931 64.0633  14
  -5   4  13-9.30004 66.7402   3
   5  -4 -13 15.4030 62.8732   4
   5  -4 -12 2982.25 178.213  14
   5  -4 -12 2918.92 167.825   4
  -5   4  12 2953.39 180.489   3
   5  -4 -11 9023.53 253.916   5
   5  -4 -11 9682.32 342.383  14
   5  -4 -11 9670.71 334.994   4
  -5   4  11 9324.98 340.361   3
   5  -4 -10 4563.15 158.234   5
   5  -4 -10 5188.35 217.548   4
  -5   4  10 4713.18 213.757   3
   5  -4 -10 5414.85 218.920  14
   5  -4  -9 648.176 71.9053   2
   5  -4  -9 651.774 72.9967  14
  -5   4   9 732.106 68.5950  14
   5  -4  -9 519.376 50.1496   5
  -5   4   9 615.693 83.9711   8
   5  -4  -9 760.742 89.2663   8
   5  -4  -9 633.827 75.7007   4
   5  -4  -8 6209.30 222.569   3
   5  -4  -8 6211.08 234.262   4
   5  -4  -8 6368.45 235.610   2
   5  -4  -8 6155.25 217.654  14
  -5   4   8 6106.33 206.860  14
   5  -4  -8 5927.82 199.889   5
  -5   4   8 6604.14 268.305   8
  -5   4   8 5629.61 223.929   9
   5  -4  -8 6073.58 217.363   7
   5  -4  -8 5925.32 245.239   8
   5  -4  -7 2053.68 111.212   3
   5  -4  -7 2034.69 118.065   4
   5  -4  -7 1953.31 102.104  14
  -5   4   7 2124.21 100.070  14
   5  -4  -7 1928.71 120.575   1
  -5   4   7 1947.07 122.761   1
   5  -4  -7 2111.30 125.718   2
   5  -4  -7 1818.36 95.0912   5
  -5   4   7 2471.56 158.701   8
  -5   4   7 1979.28 113.483   9
   5  -4  -7 2125.46 107.851   7
   5  -4  -7 2081.62 128.989   8
   5  -4  -6 2764.32 129.532   3
   5  -4  -6 2882.19 138.580   4
  -5   4   6 2826.34 133.140   3
   5  -4  -6 2851.22 151.317   1
  -5   4   6 2891.44 152.188   1
   5  -4  -6 2766.89 151.066   2
  -5   4   6 3010.96 117.284  14
   5  -4  -6 3038.54 124.466  14
   5  -4  -6 2736.02 87.6766  13
   5  -4  -6 2687.89 119.385   5
  -5   4   6 2873.69 167.306   8
   5  -4  -6 3023.43 126.599   9
  -5   4   6 2916.32 133.593   9
   5  -4  -6 3204.80 128.783   7
   5  -4  -5 2231.34 111.796   3
   5  -4  -5 2299.70 117.963   4
  -5   4   5 2372.28 114.990   3
   5  -4  -5 2373.17 140.657   1
   5  -4  -5 2719.05 149.709   2
  -5   4   5 2518.74 145.198   1
   5  -4  -5 2538.36 104.760  14
   5  -4  -5 2445.07 82.6171  13
   5  -4  -5 2234.05 105.584   5
   5  -4  -5 2346.78 100.880  12
   5  -4  -5 2182.94 60.5729  11
   5  -4  -5 2427.23 109.701   9
  -5   4   5 2519.41 147.930   8
  -5   4   5 2332.29 113.590   9
   5  -4  -5 2159.78 129.189   8
   5  -4  -5 2530.94 106.435   7
   5  -4  -4 103.025 32.9057   5
   5  -4  -4 180.642 52.9644   2
   5  -4  -4 147.522 38.0658   3
   5  -4  -4 212.906 56.3796   1
  -5   4   4 197.089 57.1228   1
   5  -4  -4 113.708 28.5648  14
   5  -4  -4 159.990 24.1881  13
   5  -4  -4 230.259 34.5919   7
   5  -4  -4 117.098 30.2249  12
   5  -4  -4 141.208 17.4897  11
   5  -4  -4 168.595 35.4625   9
  -5   4   4 125.424 47.7034   8
   5  -4  -4 138.494 43.2525   8
   5  -4  -3 13212.6 368.690   3
   5  -4  -3 13935.5 454.475   2
  -5   4   3 13130.2 447.884   1
   5  -4  -3 12593.6 343.995  14
   5  -4  -3 12810.4 342.422  13
   5  -4  -3 13311.8 370.249   5
   5  -4  -3 13481.6 350.651  12
   5  -4  -3 13945.7 363.109   9
   5  -4  -3 12958.5 347.739   7
   5  -4  -3 13171.7 395.928   8
   5  -4  -2 20937.3 538.754   3
   5  -4  -2 21181.5 649.166   2
  -5   4   2 20496.9 644.404   1
   5  -4  -2 20691.9 616.315   1
   5  -4  -2 20549.0 521.610  13
   5  -4  -2 20805.8 515.739  14
   5  -4  -2 20191.4 542.824   5
   5  -4  -2 20584.4 518.821  12
   5  -4  -2 21320.7 532.366   9
   5  -4  -2 20427.4 569.208   8
   5  -4  -2 20760.6 517.623   7
   5  -4  -1 3725.76 208.940   2
  -5   4   1 3200.61 196.722   1
   5  -4  -1 3493.70 186.509   1
   5  -4  -1 3329.31 119.022  14
   5  -4  -1 3635.07 133.564  13
   5  -4  -1 3407.01 123.097  12
   5  -4  -1 3302.40 105.995   6
   5  -4  -1 3199.95 140.714   5
   5  -4  -1 3389.43 130.482   9
   5  -4  -1 3434.24 155.021   8
   5  -4  -1 3459.48 120.859   7
   5  -4   0 18485.1 563.773   1
   5  -4   0 19547.3 505.295  13
   5  -4   0 19985.3 484.651  12
   5  -4   0 18274.2 451.582   6
  -5   4   0 18636.3 487.671  12
   5  -4   0 19822.2 494.703   9
   5  -4   0 19821.6 532.186   8
   5  -4   0 19196.1 477.448   7
   5  -4   1 19317.9 506.350  13
   5  -4   1 19805.5 478.222  12
   5  -4   1 17860.8 430.960   6
  -5   4  -1 18841.5 482.846  12
   5  -4   1 19667.7 554.040   1
   5  -4   1 18839.9 565.894   2
  -5   4  -1 17597.9 553.883   1
   5  -4   1 19807.8 471.241   7
   5  -4   1 19350.3 522.537   8
   5  -4   2 3203.95 155.012  13
   5  -4   2 3893.53 139.349  12
  -5   4  -2 3854.60 142.907  12
   5  -4   2 3863.65 180.211   1
  -5   4  -2 3521.00 180.861   1
   5  -4   2 3825.78 132.146   7
   5  -4   2 4164.74 173.025   8
   5  -4   2 3723.56 161.963   5
  -5   4  -3 142.201 31.9387   7
   5  -4   3 180.935 33.7905   7
   5  -4   3 102.419 44.7495   1
   5  -4   3 43.4887 40.5493   2
  -5   4  -3 117.193 47.1835   1
   5  -4   3 179.517 38.2839  12
  -5   4  -3 65.1914 29.7825  12
   5  -4   3 86.1373 41.5920  10
   5  -4   3 175.645 47.3586   5
   5  -4   4 801.286 63.0270  12
  -5   4  -4 625.331 58.9937  12
  -5   4  -4 599.513 54.2165   7
   5  -4   4 721.037 77.1440   1
   5  -4   4 621.294 75.0519   2
   5  -4   4 640.775 67.3642  10
   5  -4   4 668.719 74.6184   5
   5  -4   5 2398.95 137.514   5
  -5   4  -5 2562.16 124.501  12
   5  -4   5 2286.91 113.808  12
   5  -4   5 2237.94 147.184  13
   5  -4   5 2238.30 133.616   2
   5  -4   5 2304.81 122.567  10
  -5   4  -5 2375.93 110.774   7
   5  -4   6 6043.79 242.389   5
   5  -4   6 5620.42 245.030  13
   5  -4   6 5750.95 219.158  14
   5  -4   6 5833.62 227.431   2
  -5   4  -6 5949.07 220.754  12
   5  -4   6 5718.94 217.627  10
   5  -4   6 5738.90 185.280   8
  -5   4  -6 6158.13 208.614   7
   5  -4   7 6279.37 257.668  13
  -5   4  -7 5981.05 234.770  12
   5  -4   7 6314.82 231.815   2
   5  -4   7 5623.86 219.465  10
  -5   4  -7 6169.22 220.705   7
   5  -4   8 143.159 62.8181  13
   5  -4   8 71.3269 45.3775   2
  -5   4  -8 100.946 56.7428  12
   5  -4   8 58.6592 44.5283  10
  -5   4  -8 115.920 50.1786   7
   5  -4   9 5661.41 245.836  13
  -5   4  -9 6026.22 238.610   7
  -5   4  -9 5797.71 252.706  12
   5  -4  10 4909.51 232.957  13
  -5   4 -10 5517.97 234.451   7
  -5   4 -10 5360.13 251.348  12
  -5   4 -11 592.685 104.908  12
  -5   4 -11 609.737 93.5863   7
   5  -4  11 571.607 90.9057  13
  -5   4 -12 319.926 93.1296  12
   5  -4  12 237.158 74.3461  13
   5  -3 -15 1594.11 136.393  14
  -5   3  15 1135.05 143.421   9
  -5   3  15 1458.70 147.703   3
  -5   3  14 384.828 97.5292   9
  -5   3  14 558.691 105.928   3
   5  -3 -14 482.551 82.4959  14
   5  -3 -13 1137.08 112.573  14
  -5   3  13 1045.28 119.698   9
  -5   3  13 1027.93 118.269   3
   5  -3 -13 1094.85 118.040   4
  -5   3  12 396.511 79.0985   3
   5  -3 -12 340.082 73.1666  14
   5  -3 -12 338.957 75.1497   4
  -5   3  12 258.184 72.8576   9
   5  -3 -11 7425.42 285.477  14
  -5   3  11 7494.27 296.028   9
   5  -3 -11 7749.25 295.432   4
   5  -3 -10 12526.3 371.341   2
   5  -3 -10 11645.0 382.425  14
  -5   3  10 12154.4 363.332  14
   5  -3 -10 12106.9 395.245   4
   5  -3 -10 12387.5 394.797   8
   5  -3  -9 2785.47 142.376   1
   5  -3  -9 2907.64 141.881   2
   5  -3  -9 2610.81 137.372  14
  -5   3   9 2615.75 122.299  14
   5  -3  -9 2648.66 145.855   4
   5  -3  -9 2847.56 150.420   8
   5  -3  -8 5698.35 221.121   1
   5  -3  -8 5729.82 221.954   2
   5  -3  -8 5493.90 202.557  14
  -5   3   8 5848.30 193.466  14
   5  -3  -8 5968.96 231.390   8
  -5   3   8 5598.84 216.349   3
   5  -3  -8 5785.31 210.715   3
   5  -3  -8 5905.24 227.560   4
  -5   3   7 19512.0 544.845   3
   5  -3  -7 19879.9 539.041   3
   5  -3  -7 19826.8 554.475   4
   5  -3  -7 19614.7 520.470  14
  -5   3   7 19823.6 509.989  14
   5  -3  -7 19710.5 561.238   1
   5  -3  -7 20560.0 568.167   2
   5  -3  -7 20443.0 531.523   9
   5  -3  -7 20554.4 563.372   8
   5  -3  -7 20664.2 528.309   7
   5  -3  -6 2131.34 107.924   3
   5  -3  -6 2244.80 118.472   4
  -5   3   6 2115.17 111.660   3
   5  -3  -6 2101.42 126.717   1
   5  -3  -6 2497.02 139.420   2
   5  -3  -6 2119.13 94.4310  14
  -5   3   6 2254.94 91.5970  14
   5  -3  -6 1980.51 62.8547  13
   5  -3  -6 2102.37 59.3255  11
   5  -3  -6 2178.60 103.880   9
   5  -3  -6 2258.98 101.357   7
   5  -3  -5 68.5255 43.3450   1
   5  -3  -5 51.1975 38.6098   2
   5  -3  -5 50.9928 30.2130   3
  -5   3   5 49.0897 28.9307   3
   5  -3  -5 51.4017 21.2026  14
   5  -3  -5 61.0907 15.3533  13
   5  -3  -5 62.5978 27.2464   7
   5  -3  -5 69.0720 26.6182  12
   5  -3  -5 67.9837 14.0428  11
   5  -3  -5 76.4546 31.0071   9
   5  -3  -5 39.2125 31.6012   4
   5  -3  -4 41.1946 26.8378   4
   5  -3  -4 36.3915 43.5324   1
   5  -3  -4-7.13008 39.2509   2
  -5   3   4 62.6233 28.6261   3
   5  -3  -4 27.6165 19.8104  14
   5  -3  -4 44.5143 17.5488  13
   5  -3  -4 36.1795 24.5894  12
   5  -3  -4 36.6109 32.8498   8
   5  -3  -4 18.2449 14.1239  11
   5  -3  -4 44.6927 25.0657   9
   5  -3  -4 35.9444 21.9504   7
   5  -3  -3 1765.58 134.906   2
   5  -3  -3 1892.01 79.0684  13
   5  -3  -3 1734.73 73.1794  14
   5  -3  -3 1794.30 92.7739   5
   5  -3  -3 1859.94 71.4010  11
   5  -3  -3 1989.62 81.2781  12
   5  -3  -3 1824.34 105.940   8
   5  -3  -3 1801.50 90.4195   9
   5  -3  -3 1755.57 77.8484   7
   5  -3  -2 11644.7 304.771  14
   5  -3  -2 11779.0 321.716  13
   5  -3  -2 12117.2 312.529  12
   5  -3  -2 11394.1 399.186   1
   5  -3  -2 12517.0 441.138   2
   5  -3  -2 11155.2 336.070   5
   5  -3  -2 11510.8 308.752   6
   5  -3  -2 11912.5 355.231   8
   5  -3  -2 12468.1 332.512   9
   5  -3  -2 12294.0 312.504   7
   5  -3  -1 14562.7 405.470   3
   5  -3  -1 15870.1 486.208   1
   5  -3  -1 14615.5 495.225   2
   5  -3  -1 14982.2 406.881  13
   5  -3  -1 15713.7 389.025  12
   5  -3  -1 15020.5 378.096   6
   5  -3  -1 15220.3 406.121   9
   5  -3  -1 15872.7 436.332   8
  -5   3   1 15454.4 387.575   7
   5  -3  -1 14977.4 384.549   7
   5  -3   0 301.806 47.6560   8
   5  -3   0 263.788 30.8243   7
   5  -3   0 224.153 39.8965  13
  -5   3   0 247.322 31.3890   7
   5  -3   0 291.395 25.1910   6
   5  -3   0 294.251 35.2365  12
   5  -3   0 228.251 54.4062   1
   5  -3   0 285.609 40.6047   3
   5  -3   0 298.820 48.1669   5
   5  -3   1 22958.8 616.629   1
   5  -3   1 21670.5 626.567   2
   5  -3   1 22171.3 581.885  13
   5  -3   1 24692.6 545.408  12
   5  -3   1 23158.2 577.106   5
   5  -3   1 23527.5 586.100   8
   5  -3   1 22790.1 531.968   7
  -5   3  -1 23354.6 535.480   7
   5  -3   2 26914.1 643.754   7
   5  -3   2 27626.9 657.042  12
   5  -3   2 27755.9 690.729   5
   5  -3   2 25465.7 614.452   6
  -5   3  -2 26428.0 659.145  12
   5  -3   2 28709.3 699.110   8
   5  -3   2 27615.1 700.351  10
   5  -3   2 27194.7 716.274   1
   5  -3   2 26675.4 728.855   2
   5  -3   3 978.277 78.2905   5
   5  -3   3 789.492 75.8605   1
   5  -3   3 958.667 86.8034   2
   5  -3   3 856.254 78.2989  10
   5  -3   3 1047.29 66.9998  12
  -5   3  -3 886.125 64.6689  12
   5  -3   4 2242.71 121.699   5
   5  -3   4 2091.14 107.794  14
   5  -3   4 1659.79 125.474  13
  -5   3  -4 2186.36 106.278  12
   5  -3   4 2145.69 104.572  12
   5  -3   4 2067.26 118.446   1
   5  -3   4 2009.40 127.255   2
   5  -3   4 2052.91 117.821  10
  -5   3  -4 2055.19 92.2164   7
   5  -3   5 4125.56 178.970   5
   5  -3   5 4240.53 171.444  14
   5  -3   5 3606.72 185.580  13
  -5   3  -5 4072.84 164.174  12
   5  -3   5 4280.63 162.829  12
   5  -3   5 4005.37 171.487   1
   5  -3   5 3937.29 179.966   2
  -5   3  -5 3992.17 112.852   6
   5  -3   5 3920.73 171.642  10
  -5   3  -5 3780.39 148.644   7
   5  -3   6 2786.81 153.278   5
   5  -3   6 2971.66 142.560  12
  -5   3  -6 3045.58 146.604  12
   5  -3   6 3204.53 157.663  14
   5  -3   6 3211.41 169.907  13
   5  -3   6 3192.75 153.359   2
   5  -3   6 3051.13 142.139   1
   5  -3   6 3050.58 151.407  10
  -5   3  -6 3296.25 133.374   7
   5  -3   7 1574.14 115.753   5
   5  -3   7 1593.83 120.985  13
  -5   3  -7 1572.11 109.336  12
   5  -3   7 1585.00 104.193   2
   5  -3   7 1473.47 104.659  10
  -5   3  -7 1507.16 93.8242   7
  -5   3  -8 488.640 74.8105  12
   5  -3   8 304.164 56.5476   2
   5  -3   8 284.664 68.6499  13
  -5   3  -8 410.406 61.9079   7
   5  -3   9 305.695 68.6145  13
  -5   3  -9 341.919 65.3266   7
  -5   3  -9 267.603 76.5397  12
   5  -3  10 6094.10 262.428  13
  -5   3 -10 6409.77 257.223   7
  -5   3 -10 6577.73 286.765  12
  -5   3 -11 2885.62 195.756  12
   5  -3  11 2900.53 171.315  13
  -5   3 -12 27.4372 77.4479  12
   5  -3  12 66.3578 67.9147  13
   5  -2 -16 492.430 93.8425  12
  -5   2  15 2611.46 190.438   3
  -5   2  15 2012.41 184.276   9
  -5   2  14 1500.36 148.286   3
  -5   2  14 1446.83 146.676   9
   5  -2 -13 140.081 63.7139  14
   5  -2 -13 94.8194 66.5829   4
  -5   2  13 100.545 71.1926   9
   5  -2 -12 77.8768 50.0246  14
  -5   2  12 23.6740 52.6204   9
   5  -2 -12 109.600 66.7677   4
   5  -2 -11 883.261 97.4007   4
  -5   2  11 864.118 94.2783   3
   5  -2 -11 707.488 79.5801  14
  -5   2  11 770.598 77.3270  14
  -5   2  11 728.426 89.9369   9
   5  -2 -11 757.288 86.3290   8
   5  -2 -11 869.183 78.0717   1
   5  -2 -10 5179.02 228.008   4
  -5   2  10 5093.26 221.682   3
   5  -2 -10 5161.86 210.971  14
  -5   2  10 5570.38 200.314  14
  -5   2  10 5860.32 231.343   9
   5  -2 -10 5644.21 222.287   8
   5  -2 -10 5573.11 208.972   2
   5  -2 -10 5134.15 202.376   1
   5  -2  -9 8482.49 301.763   4
  -5   2   9 8462.50 291.329   3
   5  -2  -9 8414.06 282.803  14
  -5   2   9 8147.73 256.222  14
  -5   2   9 8189.61 288.084   9
   5  -2  -9 8549.26 288.182   8
   5  -2  -9 8846.41 288.431   2
   5  -2  -9 8231.00 282.587   1
   5  -2  -8 384.662 61.1521   4
   5  -2  -8 321.073 56.1826   1
   5  -2  -8 331.859 58.9432   2
  -5   2   8 371.414 54.5721   3
   5  -2  -8 324.627 51.8829   3
   5  -2  -8 336.854 49.4823  14
  -5   2   8 355.643 43.0592  14
  -5   2   8 281.859 52.2191   9
   5  -2  -8 294.390 55.4104   8
  -5   2   7 12594.2 385.363   3
   5  -2  -7 13782.5 406.155   4
   5  -2  -7 13209.1 367.635  14
  -5   2   7 13502.3 351.170  14
   5  -2  -7 12777.6 401.337   1
   5  -2  -7 13574.5 411.172   2
   5  -2  -7 13441.0 321.037  11
   5  -2  -7 13684.9 376.258   9
  -5   2   7 13301.0 388.802   9
   5  -2  -7 12946.6 393.002   8
  -5   2   6 30573.3 754.237   3
   5  -2  -6 30220.5 771.504   4
   5  -2  -6 29406.7 721.870  14
  -5   2   6 30123.0 709.139  14
   5  -2  -6 28374.1 677.049  13
   5  -2  -6 29859.8 690.837  11
   5  -2  -6 30759.7 729.145   7
  -5   2   6 31162.6 755.926   9
   5  -2  -6 28998.7 764.178   8
   5  -2  -6 31112.8 743.625   9
   5  -2  -6 30293.6 784.657   1
   5  -2  -6 30941.8 796.231   2
   5  -2  -5 4218.53 172.522   4
  -5   2   5 4026.53 157.576   3
   5  -2  -5 4049.15 186.652   1
   5  -2  -5 4417.14 201.665   2
   5  -2  -5 4116.90 133.586  14
   5  -2  -5 4141.38 119.485  13
   5  -2  -5 4259.50 123.413  11
   5  -2  -5 4032.62 135.253  12
  -5   2   5 4038.65 160.172   9
   5  -2  -5 4651.43 160.149   9
   5  -2  -5 4493.30 143.992   7
  -5   2   4 6496.29 211.943   3
   5  -2  -4 6251.23 181.471  13
   5  -2  -4 6382.96 179.615  14
   5  -2  -4 6682.98 271.404   2
   5  -2  -4 6697.81 186.602  12
   5  -2  -4 6437.67 179.946  11
   5  -2  -4 6777.83 230.911   8
   5  -2  -4 6525.37 208.959   9
   5  -2  -4 6678.66 190.593   7
   5  -2  -3 5688.25 187.214   3
   5  -2  -3 6012.32 262.379   2
   5  -2  -3 5568.32 173.053  13
   5  -2  -3 5652.23 156.345  14
   5  -2  -3 5271.44 175.954   6
   5  -2  -3 5844.28 167.885  11
   5  -2  -3 5854.92 165.625  12
   5  -2  -3 5821.66 207.185   8
   5  -2  -3 5657.92 187.301   9
   5  -2  -3 5548.98 164.082   7
   5  -2  -2 5958.91 188.050   3
   5  -2  -2 5583.23 196.722   4
   5  -2  -2 5629.64 246.162   1
   5  -2  -2 5658.79 268.363   2
   5  -2  -2 5650.15 155.509  14
   5  -2  -2 5794.49 165.598  12
   5  -2  -2 5605.68 172.189   6
   5  -2  -2 5642.27 172.404  11
   5  -2  -2 5855.19 188.971   9
   5  -2  -2 5804.54 207.190   8
   5  -2  -2 5658.52 163.669   7
   5  -2  -1 6928.03 272.173   1
   5  -2  -1 7077.87 188.545   7
   5  -2  -1 6964.17 193.280  12
   5  -2  -1 6717.90 193.399   6
   5  -2  -1 6308.24 218.930   5
  -5   2   1 6629.29 194.996  12
   5  -2  -1 7046.07 216.532   9
   5  -2  -1 6904.77 234.292   8
   5  -2  -1 7195.39 244.755  10
   5  -2  -1 6943.14 213.612   3
   5  -2   0 4316.67 196.455   1
   5  -2   0 4419.77 130.438   7
  -5   2   0 4420.70 132.797   7
   5  -2   0 4633.40 140.893  12
   5  -2   0 4511.22 166.932   5
   5  -2   0 4226.87 132.717   6
  -5   2   0 4353.77 141.229  12
   5  -2   0 4549.65 173.734   8
   5  -2   0 4128.86 175.860  10
   5  -2   0 4477.94 155.838   3
  -5   2  -1 536.035 36.2782   7
   5  -2   1 436.980 33.9029   7
   5  -2   1 506.262 41.8962  12
   5  -2   1 481.207 69.6825   2
   5  -2   1 474.845 63.4388   1
   5  -2   1 438.655 32.4775   6
   5  -2   1 516.893 54.3973   5
   5  -2   1 527.731 56.6255   8
   5  -2   1 494.460 49.0145   3
   5  -2   2 18375.3 522.811   1
   5  -2   2 16990.5 527.762   2
   5  -2   2 19010.1 470.476  12
   5  -2   2 17994.3 474.534  14
   5  -2   2 19091.5 500.790   5
   5  -2   2 18370.4 443.235   6
   5  -2   2 18648.1 504.094   8
   5  -2   2 18121.2 513.937  10
  -5   2  -2 18339.0 452.640   7
   5  -2   3 27379.6 724.730   1
   5  -2   3 27877.5 739.798   2
   5  -2   3 27329.6 694.739  14
  -5   2  -3 25601.0 679.538  12
   5  -2   3 27768.8 683.250  12
  -5   2  -3 27728.4 651.887   6
   5  -2   3 27172.3 646.429   6
   5  -2   3 28017.4 711.951   5
   5  -2   3 29436.0 716.261   8
   5  -2   3 27891.7 725.410  10
  -5   2  -3 27279.2 662.187   7
   5  -2   4 320.158 51.4809   5
   5  -2   4 363.946 56.7759   1
   5  -2   4 221.014 52.4935   2
   5  -2   4 284.235 50.1418  14
  -5   2  -4 263.095 30.3312   6
   5  -2   4 263.806 44.3466  12
  -5   2  -4 336.408 48.0544  12
   5  -2   4 305.153 55.8996  10
   5  -2   4 335.630 51.3325   8
   5  -2   5 9651.66 305.349  14
  -5   2  -5 7835.06 269.929  12
   5  -2   5 8604.63 297.119   2
   5  -2   5 8858.16 285.327   1
  -5   2  -5 8916.63 236.934   6
   5  -2   5 8600.67 267.326   8
   5  -2   5 8346.90 291.468  10
   5  -2   5 8688.97 290.334   5
   5  -2   6 8352.11 286.094   5
  -5   2  -6 8286.23 279.456  12
   5  -2   6 8544.98 291.329  14
   5  -2   6 8031.60 278.588   2
   5  -2   6 8410.24 271.656   1
   5  -2   6 7982.47 285.600  10
  -5   2  -6 8043.62 249.637   7
  -5   2  -7 1218.60 100.505  12
   5  -2   7 1202.93 91.2385   2
  -5   2  -7 1321.15 85.0252   7
   5  -2   7 1305.51 104.879   5
  -5   2  -8 188.375 63.7705  12
   5  -2   8 144.781 62.4520   5
  -5   2  -8 234.029 52.7564   7
  -5   2  -9 349.618 65.0273   7
  -5   2  -9 230.653 67.6682  12
   5  -2   9 382.846 74.0166  13
   5  -2  10 1641.56 131.623  13
  -5   2 -10 1431.56 140.265  12
   5  -2  11 2424.53 160.100  13
  -5   2 -11 2456.34 173.183  12
   5  -2  12 1127.20 115.714  13
  -5   2 -12 973.626 123.644  12
   5  -1 -16 144.002 69.9892  12
  -5   1  16 95.3666 78.2969   3
  -5   1  16 131.760 91.7114   9
   5  -1 -15 1784.80 130.434  12
  -5   1  15 1677.86 166.963   9
  -5   1  14 6248.11 297.395   9
  -5   1  13 2230.79 163.911   9
  -5   1  13 2284.18 170.320   3
  -5   1  12 702.451 90.3568   9
   5  -1 -12 770.190 102.592   4
  -5   1  12 925.102 105.745   3
   5  -1 -12 835.721 75.7558   1
   5  -1 -11 930.978 106.431   4
  -5   1  11 1000.45 99.8970   3
  -5   1  11 1061.14 85.8529  14
   5  -1 -11 801.463 79.8051  14
  -5   1  11 802.283 88.4760   9
   5  -1 -11 1074.95 91.1700   8
   5  -1 -11 977.033 82.9326   1
   5  -1 -10 1779.48 129.608   4
  -5   1  10 1758.39 119.672   3
   5  -1 -10 1711.33 108.281   1
  -5   1  10 1476.31 92.6361  14
   5  -1 -10 1611.18 102.936  14
  -5   1  10 1689.09 115.176   9
   5  -1 -10 1810.24 99.5256  10
   5  -1 -10 1809.17 111.638   8
   5  -1  -9 8499.47 307.371   4
  -5   1   9 8457.15 292.606   3
   5  -1  -9 8595.42 290.172   2
   5  -1  -9 8334.82 284.699   1
   5  -1  -9 7994.17 269.150  14
  -5   1   9 8144.92 253.632  14
  -5   1   9 8740.36 228.568  11
  -5   1   9 8280.18 288.342   9
   5  -1  -9 9039.85 281.449  10
   5  -1  -9 8468.57 283.447   8
   5  -1  -8 5727.00 224.574   2
   5  -1  -8 5463.77 218.657   1
   5  -1  -8 5527.06 198.505  14
  -5   1   8 5818.23 181.267  14
   5  -1  -8 5889.04 161.275  11
  -5   1   8 5804.25 165.458  11
  -5   1   8 5448.88 212.879   9
   5  -1  -8 6408.30 228.008  10
   5  -1  -8 5900.36 214.810   8
   5  -1  -8 5739.39 231.891   4
  -5   1   8 5381.03 212.362   3
   5  -1  -7 233.285 49.5327   4
   5  -1  -7 228.975 53.0364   1
   5  -1  -7 172.241 51.5085   2
  -5   1   7 194.912 41.1173   3
   5  -1  -7 183.084 34.9397  14
  -5   1   7 244.591 29.6942  14
   5  -1  -7 219.557 25.2048  11
  -5   1   7 206.064 42.7635   9
   5  -1  -7 257.153 42.0956   9
   5  -1  -7 207.404 51.4538  10
   5  -1  -7 202.814 44.7896   8
   5  -1  -6 16536.8 489.582   1
   5  -1  -6 18033.7 510.566   2
   5  -1  -6 16596.5 396.203  13
   5  -1  -6 17200.2 441.336  14
  -5   1   6 16500.0 412.939  14
   5  -1  -6 16577.8 414.945  11
  -5   1   6 17449.3 465.273   9
   5  -1  -6 17267.1 474.310   8
   5  -1  -6 17577.1 499.142  10
   5  -1  -6 17627.2 455.421   9
  -5   1   6 17045.1 462.873   3
   5  -1  -6 16784.5 457.232   3
   5  -1  -6 17447.2 488.705   4
   5  -1  -5 30993.5 765.698   3
  -5   1   5 30879.4 769.120   3
   5  -1  -5 29334.9 733.346  14
   5  -1  -5 29915.5 722.561  13
   5  -1  -5 32600.2 839.610   2
  -5   1   5 31402.2 836.874   2
   5  -1  -5 30588.3 814.368   1
   5  -1  -5 30474.0 730.441  11
   5  -1  -5 31312.7 728.441  12
   5  -1  -5 33607.6 815.489  10
   5  -1  -5 31136.0 764.806   9
   5  -1  -5 31057.5 738.317   7
   5  -1  -4 2051.11 98.1955   3
  -5   1   4 2038.00 97.4030   3
   5  -1  -4 2206.10 144.484   2
   5  -1  -4 1999.11 70.8551  14
   5  -1  -4 2246.56 99.7335   6
   5  -1  -4 2199.51 77.4521  12
   5  -1  -4 1928.51 81.0591  11
   5  -1  -4 2079.61 110.996   8
   5  -1  -4 2133.15 98.9744   9
   5  -1  -4 2237.99 123.883  10
   5  -1  -4 2200.36 81.6733   7
   5  -1  -3 13274.3 389.698   4
   5  -1  -3 13740.2 369.789   3
   5  -1  -3 13731.9 463.308   2
  -5   1   3 14018.4 456.237   2
   5  -1  -3 13062.2 431.412   1
   5  -1  -3 13389.1 323.357  14
   5  -1  -3 14239.0 338.533  12
   5  -1  -3 13939.1 365.597   6
   5  -1  -3 13496.1 353.308  11
   5  -1  -3 14237.3 393.834   8
   5  -1  -3 12950.0 369.413   9
   5  -1  -3 13979.1 409.913  10
   5  -1  -3 13503.9 339.059   7
   5  -1  -2 14309.5 391.784   3
   5  -1  -2 14754.1 413.572   4
   5  -1  -2 16321.4 507.924   2
  -5   1   2 14757.5 489.853   2
   5  -1  -2 14672.4 473.299   1
   5  -1  -2 14328.6 347.602  14
   5  -1  -2 15038.3 364.036  12
   5  -1  -2 14724.3 385.443   6
   5  -1  -2 14955.1 387.319  11
   5  -1  -2 15513.1 401.355   9
   5  -1  -2 15323.3 437.710  10
   5  -1  -2 15174.3 362.594   7
   5  -1  -1 2814.20 112.824   3
   5  -1  -1 2926.17 126.597   4
  -5   1   1 3038.87 170.460   2
   5  -1  -1 2996.36 162.831   1
   5  -1  -1 2754.85 88.8358  14
   5  -1  -1 2817.95 93.8707  12
   5  -1  -1 2647.83 103.984   6
   5  -1  -1 2833.93 113.245  11
  -5   1   1 2741.67 94.2181  12
   5  -1  -1 2944.67 142.851  10
   5  -1  -1 2883.64 87.3795   7
   5  -1   0 444.586 49.4962   4
   5  -1   0 446.032 42.8616   3
   5  -1   0 526.606 68.0047   1
   5  -1   0 402.515 68.0550   2
  -5   1   0 501.176 73.6900   2
   5  -1   0 438.493 35.7052  14
   5  -1   0 450.474 35.7618  12
   5  -1   0 472.457 51.8321   5
   5  -1   0 459.972 38.7140   6
  -5   1   0 485.677 35.6415  12
   5  -1   0 409.422 45.8618  11
   5  -1   0 508.003 61.3897  10
   5  -1   0 398.442 26.9318   7
   5  -1   1 152.893 30.3369  14
   5  -1   1 142.326 25.6591   6
  -5   1  -1 110.909 18.0496   7
  -5   1  -1 125.345 24.9458   6
   5  -1   1 156.838 29.4058  12
  -5   1  -1 117.434 23.7600  12
   5  -1   1 131.856 45.9393   1
  -5   1  -1 140.970 47.8297   2
   5  -1   1 70.0890 28.0205   3
   5  -1   1 130.305 50.3619   2
   5  -1   1 82.7354 33.6980   5
   5  -1   2 5972.42 225.024   1
   5  -1   2 5571.81 231.003   2
   5  -1   2 5801.78 182.572  12
   5  -1   2 5701.71 195.329  14
   5  -1   2 5471.00 165.663   6
  -5   1  -2 5786.97 171.522   6
   5  -1   2 5642.10 201.627   5
   5  -1   2 5653.42 220.260  10
  -5   1  -2 5757.48 157.411   7
   5  -1   3 15285.9 443.215   1
   5  -1   3 15115.7 458.527   2
  -5   1  -3 15278.2 404.851  12
   5  -1   3 14664.1 420.961  14
   5  -1   3 15664.3 430.303   5
  -5   1  -3 15738.2 390.794   6
   5  -1   3 14776.3 382.653   6
   5  -1   3 15034.0 450.112  10
  -5   1  -3 15277.0 378.330   7
   5  -1   4 9400.21 323.633   2
   5  -1   4 10223.5 317.434   1
   5  -1   4 9777.41 307.321  14
  -5   1  -4 9791.04 292.509  12
   5  -1   4 9732.62 307.294   5
  -5   1  -4 10153.6 273.278   6
   5  -1   4 10129.8 331.154  10
  -5   1  -4 9626.90 263.353   7
   5  -1   5 493.103 65.6537   1
   5  -1   5 411.772 66.3783   2
   5  -1   5 456.531 61.7530  14
  -5   1  -5 443.529 45.7108   6
  -5   1  -5 438.093 57.3700  12
   5  -1   5 386.638 65.0883  10
   5  -1   5 497.893 62.1370   5
   5  -1   6 13070.6 399.490  14
  -5   1  -6 13621.7 399.729  12
   5  -1   6 13919.6 407.388   5
  -5   1  -6 13215.1 361.744   7
   5  -1   6 12924.4 387.380   1
  -5   1  -7 9650.34 323.134  12
  -5   1  -7 9065.33 282.923   7
   5  -1   7 9828.54 321.370   5
  -5   1  -8 1243.61 110.709  12
  -5   1  -8 1305.49 91.7996   7
   5  -1   8 1311.03 108.411   5
  -5   1  -9 568.184 90.4210  12
  -5   1 -10 1081.80 120.349  12
   5  -1  11 1132.77 119.825  13
  -5   1 -11 1085.04 119.717  12
  -5   1 -12 685.949 106.445  12
   5   0 -17 1348.97 120.833  12
   5   0 -16 604.402 87.4089  12
  -5   0  16 514.454 110.110   3
  -5   0  16 676.979 130.404   9
   5   0 -15 184.591 65.4992  12
  -5   0  15 150.591 87.8603   9
  -5   0  15 10.6822 85.9237   3
  -5   0  14 4941.38 265.424   3
   5   0 -14 4411.63 200.197  12
  -5   0  14 4690.34 249.242   9
  -5   0  13 6608.79 308.324   3
  -5   0  13 7267.13 295.988   9
   5   0 -13 6513.12 251.324  12
   5   0 -12 2033.71 121.290   8
  -5   0  12 1782.49 135.352   9
  -5   0  12 2029.23 150.655   3
   5   0 -12 2083.71 115.718   1
   5   0 -11 4525.21 188.180   8
  -5   0  11 4538.03 205.446   9
  -5   0  11 4325.99 213.228   3
   5   0 -11 4507.98 229.568   4
   5   0 -11 4559.84 186.009   1
   5   0 -10 12981.5 431.071   4
  -5   0  10 12443.1 401.545   3
   5   0 -10 12305.9 379.456   1
  -5   0  10 12581.9 359.088  14
  -5   0  10 12017.9 386.991   9
   5   0 -10 12452.5 373.668   8
   5   0  -9 2771.46 145.266   1
  -5   0   9 2910.03 154.598   2
   5   0  -9 2983.86 105.350  11
  -5   0   9 2973.62 120.491  14
  -5   0   9 2867.80 145.718   9
   5   0  -9 2950.45 142.039   8
   5   0  -9 3068.10 140.443  10
   5   0  -9 3286.35 174.350   4
  -5   0   9 2851.92 147.913   3
   5   0  -8 703.597 69.0942   3
  -5   0   8 761.059 80.1774   2
   5   0  -8 627.599 69.0788   1
  -5   0   8 742.669 49.5115  14
   5   0  -8 759.797 46.9350  11
  -5   0   8 763.000 50.6225  11
   5   0  -8 822.078 67.3147   9
  -5   0   8 815.681 74.1662   9
   5   0  -8 720.749 69.6436   8
   5   0  -8 841.881 77.4276  10
   5   0  -8 884.907 90.1420   4
  -5   0   8 754.354 71.3568   3
   5   0  -7 686.596 77.4980   2
   5   0  -7 627.506 61.8321   3
  -5   0   7 661.500 78.8921   2
   5   0  -7 709.492 75.5186   1
   5   0  -7 646.307 24.8888  13
  -5   0   7 728.479 41.2719  14
   5   0  -7 617.551 24.6093  13
   5   0  -7 677.345 45.0362  11
  -5   0   7 725.403 48.0688  11
  -5   0   7 698.346 64.0905   9
   5   0  -7 802.419 80.4844  10
   5   0  -7 799.423 71.1650   8
   5   0  -7 827.498 81.9620   4
  -5   0   7 535.286 58.2208   3
   5   0  -6 2035.22 131.685   2
  -5   0   6 1939.11 132.359   2
   5   0  -6 2079.24 127.178   1
  -5   0   6 2066.95 68.5495  14
   5   0  -6 1904.51 67.8470  13
   5   0  -6 2157.22 85.4701  11
   5   0  -6 2261.33 111.787   6
   5   0  -6 2198.15 113.959   8
   5   0  -6 2236.21 132.234  10
  -5   0   6 2149.38 106.476   3
   5   0  -6 1970.14 102.221   3
  -5   0   5 19100.3 502.222   3
   5   0  -5 19421.1 502.766   3
   5   0  -5 19246.9 508.566   6
   5   0  -5 18962.4 478.591  11
   5   0  -5 19168.2 458.356  12
   5   0  -5 20448.2 556.456  10
   5   0  -5 20177.3 578.854   2
   5   0  -5 18667.1 551.327   1
   5   0  -4 25725.9 716.722   2
   5   0  -4 24180.8 585.287   7
   5   0  -4 25039.2 575.750  12
   5   0  -4 24176.4 622.777   6
   5   0  -4 24607.4 603.414  11
   5   0  -4 25028.4 672.491  10
   5   0  -4 24138.6 618.014   3
  -5   0   4 24140.2 617.404   3
   5   0  -4 24653.3 656.243   4
   5   0  -3 270.537 38.9397   3
   5   0  -3 863.957 95.2831   2
  -5   0   3 716.541 85.8190   2
   5   0  -3 238.640 55.9678   1
   5   0  -3 260.202 23.6769   7
   5   0  -3 209.005 20.4646  12
   5   0  -3 273.917 36.6391   6
   5   0  -3 273.209 52.8833  10
   5   0  -3 248.093 34.4972  11
   5   0  -3 262.037 44.4530   4
   5   0  -2 31968.3 898.468   2
   5   0  -2 33082.6 876.097   1
  -5   0   2 33003.2 895.618   2
   5   0  -2 32289.8 742.567   7
   5   0  -2 32284.2 746.814  12
   5   0  -2 32019.7 783.689   6
   5   0  -2 32207.4 785.696  11
   5   0  -2 33183.8 844.125  10
   5   0  -2 31247.3 780.295   3
   5   0  -2 31502.4 815.133   4
   5   0  -1 24853.9 586.146   3
   5   0  -1 25309.5 622.439   4
  -5   0   1 26206.2 694.487   2
   5   0  -1 25054.7 669.655   1
   5   0  -1 22695.4 534.383  14
   5   0  -1 22487.5 536.113  14
   5   0  -1 26174.2 561.217  12
   5   0  -1 24971.9 588.429   6
  -5   0   1 25951.3 557.258  12
   5   0  -1 24874.6 599.201  11
   5   0  -1 26260.0 654.172  10
   5   0  -1 21891.7 540.786   7
   5   0   0 559.930 77.5592   2
  -5   0   0 637.622 79.3165   2
   5   0   0 505.379 69.3346   1
   5   0   0 472.304 32.5913  14
   5   0   0 500.741 38.0396  12
  -5   0   0 507.547 43.8491   6
   5   0   0 628.782 47.6542   6
   5   0   0 484.486 50.7328  11
  -5   0   0 493.767 33.9840  12
   5   0   0 539.143 64.8668  10
   5   0   0 549.298 46.7706   3
   5   0   0 436.740 49.9152   4
  -5   0  -1 3188.04 109.052  12
   5   0   1 3257.04 119.966   6
  -5   0  -1 3354.90 121.344   6
   5   0   1 3055.63 135.268   5
   5   0   1 3220.95 120.547  14
   5   0   1 3182.65 135.690   4
   5   0   1 3327.83 122.215   3
   5   0   1 3687.66 180.480   2
  -5   0  -1 3349.75 173.170   2
   5   0   1 3512.64 165.047   1
   5   0   2 4564.21 154.694   3
   5   0   2 4480.79 166.570   4
   5   0   2 4392.07 166.792  14
   5   0   2 4316.21 199.264   2
  -5   0  -2 4463.53 202.056   2
   5   0   2 4448.79 192.353   1
   5   0   2 5095.19 180.398   5
   5   0   2 4726.02 150.875   6
  -5   0  -2 4789.91 155.181   6
   5   0   2 4613.61 201.236  10
  -5   0  -2 4455.14 120.384   7
   5   0   3 3321.91 139.930   4
   5   0   3 3927.55 156.054  14
  -5   0  -3 3814.58 138.114  12
  -5   0  -3 3382.51 174.199   2
   5   0   3 3726.87 169.484   1
   5   0   3 3885.86 132.527   6
  -5   0  -3 4123.35 140.378   6
   5   0   3 4034.73 160.230   5
   5   0   3 3879.28 182.248  10
  -5   0  -3 3694.31 108.986   7
  -5   0  -4 6017.50 234.440   2
   5   0   4 5780.40 221.894   1
  -5   0  -4 5592.43 196.862  12
   5   0   4 5598.90 208.929  14
   5   0   4 6225.19 216.270   5
  -5   0  -4 6396.78 194.872   6
   5   0   4 6117.28 185.419   6
   5   0   4 5461.88 182.071   4
  -5   0  -4 5841.09 165.589   7
   5   0   5 1940.48 110.982   1
   5   0   5 1829.18 108.318  14
   5   0   5 1854.67 109.552   5
  -5   0  -5 1877.49 93.7567   6
   5   0   5 1609.66 73.1584   4
  -5   0  -5 1734.26 75.9731   7
  -5   0  -5 1785.13 100.611  12
   5   0   6 2528.97 130.721   5
   5   0   6 2327.41 128.791  14
  -5   0  -6 2358.06 128.266  12
  -5   0  -7 12801.2 392.674  12
   5   0   7 12294.2 376.129   5
   5   0   8 5591.67 227.103   5
  -5   0  -8 5314.96 239.599  12
   5   0   9 6.14319 62.6514   5
  -5   0  -9-15.4349 62.0413  12
  -5   0 -10 1375.62 129.871  12
  -5   0 -11 1453.78 133.022  12
   5   1 -17 958.890 105.102  12
   5   1 -16 80.8449 60.9182  12
  -5  -1  16 97.3792 73.7496   3
  -5  -1  16-58.0057 91.0561   9
   5   1 -15 489.097 75.2405  12
  -5  -1  15 268.436 90.7219   3
  -5  -1  15 406.747 99.4781   9
   5   1 -14 565.194 76.7882  12
  -5  -1  14 328.062 82.8155   9
  -5  -1  14 517.620 106.143   3
   5   1 -13 6188.67 233.172  12
  -5  -1  13 6245.45 268.450   9
  -5  -1  13 6045.75 293.071   3
   5   1 -12 6346.98 230.600   8
   5   1 -12 6238.40 229.900  12
   5   1 -12 6043.22 226.399   1
  -5  -1  12 6332.82 259.596   9
  -5  -1  12 6908.11 292.015   3
   5   1 -11 127.626 53.2305   1
  -5  -1  11 129.457 51.3256   2
  -5  -1  11 74.5296 56.1438   3
   5   1 -11 220.782 51.6599  12
  -5  -1  11 183.432 56.0756   9
   5   1 -11 147.002 47.1939   8
  -5  -1  10 8027.71 253.070  14
   5   1 -10 7466.64 255.653  12
  -5  -1  10 8298.25 243.105  11
  -5  -1  10 7897.40 290.816   2
   5   1 -10 8038.46 278.421   1
  -5  -1  10 8171.48 283.824   9
   5   1 -10 8277.40 271.667   8
   5   1 -10 7653.87 322.670   4
  -5  -1  10 8310.24 298.553   3
  -5  -1   9 15389.6 405.961  14
  -5  -1   9 15267.4 470.070   2
   5   1  -9 15144.2 452.585   1
  -5  -1   9 15518.3 406.763  11
   5   1  -9 15462.7 399.252  11
   5   1  -9 15166.3 437.569   8
  -5  -1   9 15189.4 445.058   9
   5   1  -9 15372.4 437.359  10
   5   1  -9 15537.0 500.653   4
  -5  -1   9 15568.3 457.522   3
  -5  -1   8 144.649 47.8597   4
   5   1  -8 182.370 57.8612   4
  -5  -1   8 247.226 31.1578  14
   5   1  -8 139.744 13.3560  13
  -5  -1   8 220.243 56.5175   2
  -5  -1   8 147.345 44.4772   3
   5   1  -8 201.071 53.3793   1
   5   1  -8 212.161 51.4254  10
  -5  -1   8 276.003 48.2875   9
  -5  -1   8 294.844 38.8777  11
   5   1  -8 217.687 35.1657  11
   5   1  -8 172.762 39.9666   9
   5   1  -8 268.527 50.1663   8
   5   1  -7 1204.17 86.6092   3
   5   1  -7 1367.45 102.370   1
  -5  -1   7 1181.68 103.172   2
  -5  -1   7 1200.38 51.9673  14
   5   1  -7 1192.71 49.3053  13
   5   1  -7 1289.98 67.9437  11
  -5  -1   7 1281.39 70.1069  11
  -5  -1   7 1340.45 85.9921   9
   5   1  -7 1205.83 86.8629   8
   5   1  -7 1535.43 107.256  10
   5   1  -7 1365.88 81.9110   9
  -5  -1   7 1366.28 86.8817   3
  -5  -1   7 1162.84 91.6131   4
   5   1  -6 1235.26 78.6353   3
  -5  -1   6 1283.10 107.656   2
  -5  -1   6 1061.19 38.8884  14
   5   1  -6 1225.63 54.2762  13
   5   1  -6 1088.94 82.4424   6
   5   1  -6 1152.16 75.5131   9
   5   1  -6 1342.11 107.755  10
  -5  -1   6 1189.21 77.6078   3
  -5  -1   6 1273.19 68.4067  11
   5   1  -6 1196.28 47.6762  12
   5   1  -6 1221.44 67.1876  11
   5   1  -5 4433.02 169.201   6
  -5  -1   5 4285.36 147.803  11
   5   1  -5 4405.44 114.031  12
   5   1  -5 4418.63 149.116  11
   5   1  -5 4072.57 157.120   9
   5   1  -5 4615.08 204.709  10
  -5  -1   5 4342.37 157.678   3
   5   1  -5 4470.99 195.862   4
   5   1  -5 4304.97 159.048   3
   5   1  -4 9306.73 235.775   7
   5   1  -4 9056.78 216.448  12
   5   1  -4 9638.77 282.604   6
   5   1  -4 9388.74 265.893  11
   5   1  -4 9324.07 276.423   9
   5   1  -4 9815.40 330.920  10
   5   1  -4 9857.23 318.652   4
   5   1  -4 9626.40 272.235   3
  -5  -1   4 9320.41 267.101   3
   5   1  -3 2380.17 72.0408   7
   5   1  -3 2327.23 109.263   6
   5   1  -3 2439.59 132.775   4
   5   1  -3 2633.78 105.846   3
   5   1  -3 2579.73 106.785  11
   5   1  -3 2510.57 111.719   9
   5   1  -3 2510.76 143.136  10
  -5  -1   3 2787.17 172.883   2
   5   1  -2 1009.73 66.7444   6
   5   1  -2 970.344 60.9004   3
   5   1  -2 1041.88 83.5141   4
   5   1  -2 990.266 65.6370  11
   5   1  -2 997.086 68.2647   9
   5   1  -2 1067.13 94.1431  10
  -5  -1   2 1006.89 106.969   2
  -5  -1   1 28349.6 680.052   6
   5   1  -1 27889.6 684.537   6
   5   1  -1 26599.5 719.066   4
   5   1  -1 27159.2 668.432   3
   5   1  -1 27960.5 693.905  11
  -5  -1   1 27152.7 635.314  12
   5   1  -1 26749.9 747.426  10
  -5  -1   1 28507.3 778.599   2
  -5  -1   0 20202.6 590.869   2
   5   1   0 21012.9 511.755   6
  -5  -1   0 21321.6 511.168   6
   5   1   0 19062.5 463.170  14
  -5  -1   0 19068.5 471.068  12
   5   1   0 21346.7 581.643  10
   5   1   0 19584.1 539.789   4
   5   1   0 20166.7 495.688   3
   5   1   1 168.083 26.4734  14
  -5  -1  -1 174.498 26.0103  12
   5   1   1 230.186 39.5194   6
  -5  -1  -1 218.453 38.2816   6
   5   1   1 315.106 43.7532   4
  -5  -1  -1 173.676 52.1734   2
   5   1   1 157.021 31.4519   3
   5   1   2 7573.54 222.641  14
   5   1   2 7350.17 225.635   6
  -5  -1  -2 7828.38 233.471   6
   5   1   2 7901.36 248.469   5
   5   1   2 7491.17 256.624  11
   5   1   2 6602.24 223.887   4
   5   1   2 7593.17 219.434   3
   5   1   2 7638.97 271.031   1
  -5  -1  -2 7783.52 284.790   2
   5   1   3 7066.01 251.261   1
  -5  -1  -3 7484.38 267.589   2
   5   1   3 6783.35 222.216  14
  -5  -1  -3 6630.76 206.880  12
   5   1   3 7187.68 233.369   5
   5   1   3 7289.78 212.902   6
  -5  -1  -3 7175.11 219.121   6
   5   1   3 7245.82 252.232  11
   5   1   3 6065.25 193.039   4
   5   1   3 6818.64 203.312   3
  -5  -1  -3 6376.25 161.540   7
  -5  -1  -4 3244.55 162.285   2
   5   1   4 3143.02 150.754   1
   5   1   4 3011.51 144.126  14
  -5  -1  -4 3332.51 133.941  12
  -5  -1  -4 3044.32 130.918   6
   5   1   4 3132.54 125.664   6
   5   1   4 3435.40 148.637   5
   5   1   4 3245.81 166.392  11
  -5  -1  -4 3037.87 91.7619   7
   5   1   4 2742.25 95.9424   4
   5   1   5-4.46146 40.1083   5
   5   1   5 66.5257 43.1602  14
  -5  -1  -5 19.5730 36.7009   6
  -5  -1  -5 70.5815 42.7576  12
  -5  -1  -5 48.2196 21.9930   7
   5   1   5-7.20318 54.6550  11
   5   1   5 48.7805 45.9915   1
  -5  -1  -5 33.5727 44.6375   2
   5   1   6 98.6122 50.2176  14
  -5  -1  -6 159.570 52.4410  12
   5   1   6 116.953 65.0816  11
   5   1   6 113.280 48.9089   5
   5   1   7 1425.09 140.591  11
  -5  -1  -7 1568.51 119.150  12
   5   1   7 1493.67 105.852   5
   5   1   8 5804.37 283.606  11
  -5  -1  -8 5893.25 257.639  12
   5   1   8 6156.54 237.978   5
  -5  -1  -9 1614.19 132.855  12
   5   1   9 1680.26 147.429  11
   5   1  10 376.895 90.9276  11
  -5  -1 -10 294.538 80.2994  12
  -5  -1 -11 1983.03 149.244  12
   5   2 -17 1902.26 134.887  12
   5   2 -16 1046.20 101.375  12
  -5  -2  16 993.703 130.155   3
  -5  -2  16 1164.42 140.341   9
   5   2 -15 160.356 64.1513  12
  -5  -2  15 141.163 77.2130   3
  -5  -2  15 86.6677 69.1679   9
   5   2 -14 194.697 59.6188  12
  -5  -2  14 421.383 88.2358   9
  -5  -2  14 339.209 95.4334   3
   5   2 -13 973.811 127.495   6
   5   2 -13 1269.33 96.0850  12
  -5  -2  13 1104.39 110.720   9
  -5  -2  12 4844.65 241.393   3
   5   2 -12 4890.59 242.253   6
   5   2 -12 4679.43 191.999  12
   5   2 -12 4758.12 190.000   8
  -5  -2  12 4757.51 215.179   9
  -5  -2  12 4961.19 210.135   2
   5   2 -12 4745.94 197.183   1
  -5  -2  11 4040.22 202.573   3
   5   2 -11 3419.05 156.091  12
   5   2 -11 3963.62 203.495   6
  -5  -2  11 3693.42 178.047   9
   5   2 -11 3586.12 160.632   8
  -5  -2  11 3855.31 187.376   2
   5   2 -11 3758.18 170.449   1
  -5  -2  10 811.070 87.2164   3
   5   2 -10 754.700 69.1063  12
   5   2 -10 929.130 93.6346   6
   5   2 -10 826.261 63.0048  11
  -5  -2  10 723.448 63.7620  11
  -5  -2  10 856.098 81.2294   9
   5   2 -10 775.119 76.2425   8
   5   2 -10 828.570 83.0143   1
  -5  -2  10 721.025 83.9928   2
  -5  -2   9 10666.8 366.789   2
   5   2  -9 10221.4 257.053  13
  -5  -2   9 10731.0 299.246  14
   5   2  -9 9998.01 302.477  12
   5   2  -9 11720.3 365.683   6
   5   2  -9 11362.9 305.598  11
  -5  -2   9 10742.5 309.790  11
  -5  -2   9 10895.0 337.193   9
   5   2  -9 11423.2 325.862   9
   5   2  -9 11145.9 333.803   8
  -5  -2   9 11520.6 353.563   3
  -5  -2   8 20158.2 584.972   2
   5   2  -8 19053.1 467.547  13
   5   2  -8 19085.2 487.733  12
  -5  -2   8 19780.6 481.319  14
  -5  -2   8 19923.2 509.852  11
   5   2  -8 19678.1 505.907  11
   5   2  -8 19764.7 533.668   8
   5   2  -8 20381.8 522.783   9
  -5  -2   8 19970.4 534.536   9
  -5  -2   8 19900.4 539.953   3
  -5  -2   8 18488.1 564.196   4
  -5  -2   7 227.306 44.3869   3
  -5  -2   7 183.688 56.9214   2
   5   2  -7 237.220 28.2212  13
  -5  -2   7 225.235 21.3763  14
   5   2  -7 206.064 24.2060  12
   5   2  -7 221.390 40.6414  11
  -5  -2   7 181.462 36.5824  11
   5   2  -7 232.907 43.1818   9
  -5  -2   7 203.357 50.6868   4
   5   2  -6 14252.1 445.465   4
  -5  -2   6 12411.3 359.436   3
  -5  -2   6 13197.2 390.395   4
   5   2  -6 11883.8 295.919  12
   5   2  -6 13598.7 333.509  13
   5   2  -6 13083.8 295.596  12
   5   2  -6 13029.6 352.820  11
  -5  -2   6 13770.5 356.524  11
   5   2  -6 13926.7 366.123   9
   5   2  -6 14755.1 437.249  10
   5   2  -6 13556.8 373.868   3
  -5  -2   6 12944.6 435.897   2
  -5  -2   5 6990.30 217.673   3
   5   2  -5 6812.25 278.902   4
  -5  -2   5 7078.98 239.270   4
   5   2  -5 6928.38 203.841  13
  -5  -2   5 6973.66 217.997  11
   5   2  -5 7015.36 218.725  11
   5   2  -5 6956.42 236.420   6
   5   2  -5 6586.88 220.847   9
   5   2  -5 7799.73 296.161  10
   5   2  -5 6918.18 224.095   3
   5   2  -4 1728.43 125.039   4
  -5  -2   4 1748.97 81.6774   3
   5   2  -4 1606.15 83.9978   3
   5   2  -4 1556.28 84.5521  11
  -5  -2   4 1595.73 84.7671  11
   5   2  -4 1627.19 94.6756   6
   5   2  -4 1484.41 85.4466   9
   5   2  -4 1861.45 132.394  10
  -5  -2   4 1433.65 130.437   2
   5   2  -3 2286.34 145.986   4
   5   2  -3 2451.88 101.974   3
   5   2  -3 2453.13 109.649  11
   5   2  -3 2430.45 115.198   6
   5   2  -3 2233.97 108.641   9
  -5  -2   3 2117.66 162.718   2
   5   2  -2 492.856 73.8114   4
   5   2  -2 680.477 49.2794   3
   5   2  -2 651.084 57.5419  11
   5   2  -2 592.502 55.3768   9
  -5  -2   2 574.375 86.2389   2
  -5  -2   2 506.671 50.6998   6
   5   2  -2 542.654 54.5299   6
   5   2  -1 2349.06 94.6854   3
   5   2  -1 2297.18 130.541   4
  -5  -2   1 2360.06 108.873   6
   5   2  -1 2412.43 112.116   6
  -5  -2   1 2314.24 142.317  10
  -5  -2   1 2322.57 155.093   2
  -5  -2   0 16224.2 493.533   2
   5   2   0 14691.3 356.997  14
  -5  -2   0 14756.6 359.765  12
   5   2   0 15862.6 414.359   6
  -5  -2   0 16131.6 413.143   6
  -5  -2   0 16156.4 486.908  10
   5   2   0 14228.1 423.783   4
   5   2   0 15040.1 383.236   3
  -5  -2  -1 13175.8 426.508   2
   5   2   1 12758.5 323.897  14
  -5  -2  -1 12553.9 323.321  12
   5   2   1 13480.3 362.977   6
  -5  -2  -1 13835.6 367.133   6
   5   2   1 12213.8 378.351  11
  -5  -2  -1 13132.2 444.085  10
   5   2   1 12906.4 363.217   4
   5   2   1 12828.2 333.848   3
  -5  -2  -2 1374.37 112.691   2
   5   2   2 1411.92 70.8903  14
  -5  -2  -2 1332.72 67.5053  12
   5   2   2 1375.62 97.9691  11
   5   2   2 1366.69 66.7593   3
  -5  -2  -2 1528.41 126.532  10
   5   2   2 1305.66 81.4263   6
  -5  -2  -2 1382.27 84.4309   6
  -5  -2  -3 14082.4 431.855   2
   5   2   3 13072.1 366.842  14
   5   2   3 13431.8 388.790   5
   5   2   3 13460.0 374.407   6
  -5  -2  -3 13898.6 384.237   6
   5   2   3 14394.8 420.864  11
  -5  -2  -3 13879.3 452.073  10
   5   2   3 12639.2 346.942   3
   5   2   4 3764.72 174.034   1
  -5  -2  -4 3949.25 187.198   2
   5   2   4 3644.50 156.781  14
  -5  -2  -4 3885.33 154.324  12
   5   2   4 4038.87 191.557  11
   5   2   4 3701.50 132.873   3
  -5  -2  -4 3875.01 199.454  10
   5   2   4 4368.58 168.777   5
  -5  -2  -4 3915.93 161.312   6
   5   2   4 3745.20 151.710   6
  -5  -2  -5 47.7673 49.8447   2
  -5  -2  -5 18.1657 44.4854   6
  -5  -2  -5 59.7274 43.5603  12
   5   2   5-26.6215 50.1946  14
   5   2   5-7.40435 55.6836  11
  -5  -2  -5 64.7612 55.5450  10
   5   2   5 66.9845 43.5123   5
  -5  -2  -6 33.8425 56.4322   2
   5   2   6 150.258 63.0008  14
   5   2   6 68.1220 64.6348  11
   5   2   6 111.155 54.5128   5
  -5  -2  -6 94.4551 55.3095  12
  -5  -2  -7 1170.84 110.201  12
   5   2   7 1408.87 102.984   5
   5   2   7 1569.21 145.470  11
  -5  -2  -8 1573.49 124.814  12
   5   2   8 1815.06 158.641  11
  -5  -2  -9 1502.07 125.389  12
   5   2   9 1402.75 147.543  11
   5   2  10 178.875 89.3511  11
  -5  -2 -10 197.512 77.2149  12
  -5  -3  16 3627.22 229.295   9
   5   3 -16 3798.45 265.418   6
   5   3 -15 186.832 98.7758   6
   5   3 -15 343.800 72.0315  12
  -5  -3  15 390.529 92.8600   9
  -5  -3  15 220.405 90.2098   3
  -5  -3  14 2675.72 201.691   3
   5   3 -14 2947.39 208.122   6
   5   3 -14 2586.59 148.942  12
  -5  -3  14 2839.37 176.944   9
  -5  -3  14 2771.83 150.419   2
  -5  -3  13 4181.22 238.051   3
   5   3 -13 4435.20 241.710   6
   5   3 -13 3786.68 179.839  12
  -5  -3  13 4138.80 202.115   9
  -5  -3  13 3835.54 185.964   2
   5   3 -12 614.541 97.7925   6
   5   3 -12 662.747 71.7434  12
  -5  -3  12 523.541 74.9166   9
  -5  -3  12 726.514 87.4802   2
  -5  -3  12 636.502 99.3052   3
   5   3 -12 551.408 74.1654   1
  -5  -3  11 1207.28 112.423   3
   5   3 -11 1008.05 76.4360  12
   5   3 -11 1251.80 114.705   6
  -5  -3  11 1244.34 99.6880   9
  -5  -3  10 465.572 76.2429   2
  -5  -3  10 437.307 71.5141   3
   5   3 -10 377.505 28.4634  13
   5   3 -10 411.645 44.3069  12
   5   3 -10 569.059 79.6891   6
   5   3 -10 372.016 50.1375  11
  -5  -3  10 510.629 57.8755  11
  -5  -3  10 387.863 61.9563   9
   5   3 -10 397.388 59.0116   8
  -5  -3   9 2887.93 153.300   3
   5   3  -9 2918.35 99.3271  13
   5   3  -9 3082.89 107.743  12
   5   3  -9 3520.96 173.162   6
   5   3  -9 3306.54 131.859  11
  -5  -3   9 3039.65 133.748  11
   5   3  -9 3164.67 137.482   9
  -5  -3   9 2858.02 172.489   2
  -5  -3   8 16574.2 526.839   2
  -5  -3   8 16778.0 417.637  14
   5   3  -8 16575.8 417.740  13
   5   3  -8 16498.2 401.792  12
   5   3  -8 16941.2 494.763   6
  -5  -3   8 17286.0 456.335  11
   5   3  -8 17668.2 452.246  11
   5   3  -8 16531.2 453.942   9
  -5  -3   8 16616.5 473.222   3
  -5  -3   7 8454.13 218.481  14
   5   3  -7 8991.54 245.796  13
  -5  -3   7 8876.91 277.395   3
  -5  -3   7 9416.63 318.466   4
  -5  -3   7 9243.20 273.251  11
   5   3  -7 9201.00 269.646  11
   5   3  -7 9074.30 272.911   9
  -5  -3   7 9096.24 345.754   2
  -5  -3   6 377.358 72.6339   2
   5   3  -6 385.637 39.4877   7
   5   3  -6 382.527 41.4215  13
  -5  -3   6 369.981 49.2568  11
   5   3  -6 394.264 48.6542  11
   5   3  -6 400.312 49.4197   9
  -5  -3   6 366.959 48.2339   3
  -5  -3   6 486.643 64.8198   4
   5   3  -5 26211.0 644.146   7
   5   3  -5 27084.6 672.461  13
  -5  -3   5 28383.1 689.091  11
   5   3  -5 28308.0 689.242  11
   5   3  -5 27677.2 687.833   9
  -5  -3   5 27038.1 675.027   3
  -5  -3   5 27269.0 709.535   4
   5   3  -4 12416.1 349.119   3
  -5  -3   4 12481.4 456.720   2
   5   3  -4 12230.6 297.937   7
   5   3  -4 12139.4 344.575  13
   5   3  -4 13208.6 359.638  11
  -5  -3   4 13040.7 355.089  11
   5   3  -4 12582.1 354.005   9
  -5  -3   4 12540.0 392.732  10
  -5  -3   4 12810.0 364.100   4
  -5  -3   4 12384.1 334.929   3
   5   3  -4 12799.6 371.173   6
   5   3  -3 49.4096 34.4868   9
   5   3  -3 168.218 39.6655  11
  -5  -3   3 168.617 52.9456  10
   5   3  -3 83.0181 28.4825   3
   5   3  -3 121.338 39.3067   6
  -5  -3   3 132.822 39.6051   6
   5   3  -2 571.502 45.2439   3
  -5  -3   2 530.276 86.1551   2
  -5  -3   2 583.062 57.7422   6
   5   3  -2 618.708 62.9826   6
   5   3  -1 1431.91 67.5338   3
   5   3  -1 1413.70 88.6808   6
  -5  -3   1 1532.57 89.7202   6
  -5  -3   1 1713.40 135.672   2
   5   3   0 7206.52 201.032   3
  -5  -3   0 6986.61 179.975  12
   5   3   0 7002.43 236.962   6
  -5  -3   0 7862.97 242.898   6
  -5  -3   0 8377.04 315.460  10
  -5  -3   0 8012.03 309.378   2
  -5  -3  -1 4957.27 232.734   2
   5   3   1 5118.26 149.784  14
  -5  -3  -1 5161.94 146.866  12
   5   3   1 5081.09 187.313   6
  -5  -3  -1 5517.42 193.503   6
   5   3   1 5561.44 206.428  11
  -5  -3  -1 5272.75 257.694  10
   5   3   1 4820.09 148.545   3
  -5  -3  -2 2758.40 165.942   2
   5   3   2 2632.72 103.942  14
  -5  -3  -2 2889.16 105.688  12
   5   3   2 2792.43 129.810   6
  -5  -3  -2 2865.21 133.332   6
   5   3   2 3062.24 150.938  11
  -5  -3  -2 3053.11 183.972  10
   5   3   2 2658.75 94.0851   3
  -5  -3  -3 1711.51 128.448   2
   5   3   3 1549.07 84.1749  14
  -5  -3  -3 1649.54 87.1305  12
   5   3   3 1810.22 102.273   6
  -5  -3  -3 1737.61 105.497   6
   5   3   3 1793.28 105.470   5
   5   3   3 2021.59 126.134  11
  -5  -3  -3 1540.24 132.141  10
   5   3   3 1567.12 68.0429   3
  -5  -3  -4 11162.5 377.958   2
   5   3   4 10770.1 326.107  14
  -5  -3  -4 11334.7 330.497  12
   5   3   4 11631.9 340.780   5
   5   3   4 11398.8 336.403   6
   5   3   4 12106.5 388.566  11
  -5  -3  -4 10866.1 394.964  10
   5   3   4 10750.4 289.939   3
   5   3   5 4828.01 195.575  14
  -5  -3  -5 4918.00 197.154  12
   5   3   5 4922.35 232.620  11
   5   3   5 5021.89 194.183   5
  -5  -3  -5 4839.86 234.631  10
  -5  -3  -5 4913.77 219.243   2
   5   3   6 68.7183 48.0689   5
  -5  -3  -6-11.6645 52.7521  12
   5   3   6 61.2913 66.4328  11
  -5  -3  -6 83.7478 68.4335  10
  -5  -3  -6-6.04717 55.0321   2
  -5  -3  -7 1545.51 131.817  10
  -5  -3  -7 1686.88 124.880  12
   5   3   7 1727.77 156.083  11
   5   3   8 1510.24 157.413  11
   5   3   9 405.390 100.198  11
  -5  -4  16 3714.84 228.232   9
   5   4 -16 4045.52 223.836   7
   5   4 -15 2973.26 217.407   6
   5   4 -15 2575.56 173.663   7
  -5  -4  15 2528.98 177.270   9
  -5  -4  15 2771.19 205.530   3
   5   4 -14 277.197 79.2066   7
   5   4 -14 503.973 104.064   6
   5   4 -14 155.675 57.6307  12
  -5  -4  14 256.419 72.9075   9
  -5  -4  14 222.773 68.9131   2
  -5  -4  14 309.021 101.078   3
  -5  -4  13 5584.83 243.800   2
   5   4 -13 6052.03 224.510  12
   5   4 -13 5737.04 264.650   7
   5   4 -13 6118.43 288.836   6
  -5  -4  13 6091.98 252.640   9
  -5  -4  13 6291.07 297.521   3
  -5  -4  12 7324.26 291.000   2
   5   4 -12 7649.21 302.865   7
   5   4 -12 7161.11 238.826  12
   5   4 -12 8012.19 320.959   6
  -5  -4  12 7862.15 283.435   9
  -5  -4  12 7001.21 306.786   3
   5   4 -11 163.138 61.1463   7
   5   4 -11 329.395 42.1035  12
   5   4 -11 306.991 78.1566   6
   5   4 -11 262.314 53.4559  11
  -5  -4  11 358.116 60.7383   9
  -5  -4  11 288.820 70.8932   3
  -5  -4  11 267.085 71.4105   2
   5   4 -10 125.817 28.5911  13
   5   4 -10 119.403 61.5981   6
   5   4 -10 109.987 28.4231  12
   5   4 -10 225.246 47.4074  11
   5   4 -10 83.6859 48.5428   7
  -5  -4  10 202.637 66.9771   2
  -5  -4  10 100.147 49.6095   3
   5   4  -9 192.008 49.6620   7
   5   4  -9 168.006 31.7435  13
   5   4  -9 291.594 64.2961   6
   5   4  -9 198.620 23.6422  12
   5   4  -9 253.142 47.7405   9
   5   4  -9 196.960 44.4870  11
  -5  -4   9 260.600 75.1446   2
  -5  -4   9 230.227 55.3233   3
  -5  -4   8 2189.64 155.987   2
   5   4  -8 2226.34 107.614   7
   5   4  -8 2321.38 95.2802  13
   5   4  -8 2277.40 136.092   6
  -5  -4   8 2251.63 116.290  11
   5   4  -8 2289.48 113.591  11
   5   4  -8 2094.74 108.593   9
  -5  -4   8 2393.05 121.910   3
  -5  -4   7 7362.54 238.961   3
  -5  -4   7 7760.15 320.309   2
  -5  -4   7 6933.73 180.557  14
   5   4  -7 7272.07 218.494  13
   5   4  -7 8034.68 273.444   6
  -5  -4   7 7602.12 244.425  11
   5   4  -7 7507.05 240.079  11
   5   4  -7 7260.20 234.165   9
   5   4  -7 7579.73 220.574   7
  -5  -4   6 2198.40 165.094   2
   5   4  -6 2060.04 96.1656  13
   5   4  -6 2087.74 84.2195   7
   5   4  -6 2004.10 107.116  11
  -5  -4   6 2240.55 113.068  11
  -5  -4   6 2277.90 128.627  10
   5   4  -6 2091.03 105.292   9
  -5  -4   6 2215.29 102.817   3
  -5  -4   6 2205.19 130.738   4
   5   4  -5 2323.98 106.903  13
   5   4  -5 2353.40 78.4585   7
  -5  -4   5 2224.63 112.501  11
   5   4  -5 2347.60 115.361  11
   5   4  -5 2233.30 110.308   9
  -5  -4   5 2341.97 136.563  10
  -5  -4   5 2225.30 98.8649   3
  -5  -4   5 2257.94 125.913   4
  -5  -4   4 18810.7 605.501   2
   5   4  -4 16491.7 392.423   7
   5   4  -4 17121.1 457.117  13
  -5  -4   4 17835.8 465.993  11
   5   4  -4 17583.3 469.552  11
   5   4  -4 17235.0 458.983   9
  -5  -4   4 17429.7 514.705  10
  -5  -4   4 17321.2 433.475   3
  -5  -4   4 17722.6 473.755   4
  -5  -4   3 8147.18 256.165   4
   5   4  -3 8607.16 262.457  13
  -5  -4   3 8337.43 262.820   6
   5   4  -3 8204.86 273.567   6
   5   4  -3 8044.74 254.748   9
  -5  -4   3 8409.76 312.770  10
  -5  -4   3 8376.78 362.515   2
   5   4  -3 7561.16 260.662  11
  -5  -4   3 7868.89 256.128  11
   5   4  -2 1986.58 111.937   6
  -5  -4   2 1932.29 105.865   6
  -5  -4   2 1839.67 154.539   2
   5   4  -2 1809.96 100.752   9
   5   4  -1 10728.9 329.464   6
  -5  -4   1 10352.5 320.970   6
  -5  -4   1 10742.1 402.809   2
  -5  -4   0 3851.04 102.813  12
   5   4   0 4224.30 170.934   6
   5   4   0 4202.73 175.946  11
  -5  -4   0 4294.68 221.719   2
   5   4   1 1474.56 67.3345  14
  -5  -4  -1 1454.21 60.2198  12
   5   4   1 1455.50 97.4768   6
   5   4   1 1407.15 103.160  11
  -5  -4  -1 1652.67 142.718  10
  -5  -4  -1 1584.76 130.502   2
   5   4   2 1126.86 65.4460  14
  -5  -4  -2 1217.26 65.0309  12
   5   4   2 1257.97 101.866  11
  -5  -4  -2 1289.54 118.457   2
  -5  -4  -2 1414.18 130.916  10
   5   4   2 1266.91 92.3746   6
   5   4   3 94.8752 34.7166  14
   5   4   3 95.0404 46.1992   6
   5   4   3 139.179 49.2950   5
  -5  -4  -3 34.3930 32.5621  12
   5   4   3 56.9518 48.4695  11
  -5  -4  -3 177.972 68.7149  10
  -5  -4  -3 171.374 64.0042   2
   5   4   4 2911.21 170.026  11
  -5  -4  -4 2958.89 172.674   2
  -5  -4  -4 3026.37 187.196  10
   5   4   4 3074.09 145.020   5
   5   4   4 2893.47 143.468   6
   5   4   5 8543.51 331.873  11
  -5  -4  -5 7938.67 308.967   2
   5   4   5 8652.54 280.273   5
  -5  -4  -5 8102.19 331.660  10
  -5  -4  -6 1830.86 147.817  10
   5   4   6 1574.54 144.711  11
   5   4   7 613.623 109.081  11
  -5  -4  -7 570.642 101.530  10
  -5  -4  -8 1530.51 142.659  10
   5   4   8 1801.20 172.223  11
   5   5 -15 3442.09 229.714   6
   5   5 -15 2707.86 189.367   7
  -5  -5  15 3037.04 217.253   3
   5   5 -14 1617.61 158.209   6
   5   5 -14 1269.89 135.248   7
  -5  -5  14 1136.58 112.558   9
  -5  -5  14 1261.60 153.947   3
  -5  -5  14 1365.52 117.414   2
   5   5 -13 886.932 121.163   6
   5   5 -13 658.725 98.8615   7
  -5  -5  13 700.897 86.9574   9
  -5  -5  13 706.973 117.101   3
  -5  -5  13 947.883 103.752   2
   5   5 -12 8304.74 310.729   7
   5   5 -12 8973.77 346.596   6
  -5  -5  12 8122.40 322.506   2
  -5  -5  12 7871.19 330.153   3
   5   5 -11 6809.16 262.080   7
   5   5 -11 6865.51 203.311  12
   5   5 -11 7555.36 250.445  11
  -5  -5  11 6764.67 281.820   3
   5   5 -11 7624.70 303.040   6
  -5  -5  11 7021.22 300.108   2
   5   5 -10 33.0263 45.2448   7
   5   5 -10 7.24142 51.9821   6
   5   5 -10 66.3200 23.0300  12
   5   5 -10 57.5515 44.9471  11
  -5  -5  10 68.7026 62.2431   2
  -5  -5  10 85.5324 53.8870   3
  -5  -5   9 4641.82 242.694   2
   5   5  -9 4704.05 180.060   7
   5   5  -9 4517.80 158.278  13
   5   5  -9 4850.37 219.198   6
   5   5  -9 5198.48 191.577  11
   5   5  -9 4690.31 175.061   9
  -5  -5   9 4956.45 201.328   3
  -5  -5   8 1621.56 146.170   2
   5   5  -8 1689.25 89.2241   7
   5   5  -8 1596.64 85.6661  13
   5   5  -8 1654.91 118.874   6
   5   5  -8 1693.53 102.999  11
   5   5  -8 1618.79 90.8032   9
  -5  -5   8 1551.01 99.6193   3
  -5  -5   7 1333.12 134.037   2
   5   5  -7 1280.28 69.3954   7
   5   5  -7 1197.88 75.9068  13
   5   5  -7 1338.17 104.767   6
   5   5  -7 1389.04 90.8730  11
  -5  -5   7 1217.72 97.2674  10
   5   5  -7 1132.59 77.2754   9
  -5  -5   7 1418.20 84.6742   3
   5   5  -6 2612.01 96.0028   7
   5   5  -6 2883.84 121.572  13
   5   5  -6 2604.91 147.251   6
   5   5  -6 2697.56 131.453  11
  -5  -5   6 2618.98 147.897  10
   5   5  -6 2891.66 125.965   9
  -5  -5   6 2734.85 115.125   3
   5   5  -5 777.483 66.9577  13
   5   5  -5 696.519 37.6529   7
   5   5  -5 801.461 72.3877  11
   5   5  -5 783.514 65.4996   9
  -5  -5   5 598.341 79.3410  10
  -5  -5   5 734.658 77.0513   4
  -5  -5   5 782.493 54.2803   3
  -5  -5   4 2766.84 102.232   3
  -5  -5   4 3025.20 139.101   4
   5   5  -4 2840.59 130.508  13
   5   5  -4 2855.01 138.673  11
   5   5  -4 2732.09 124.808   9
  -5  -5   4 3068.12 173.078  10
  -5  -5   4 3171.39 224.354   2
  -5  -5   3 13847.5 393.074   4
   5   5  -3 14058.8 418.348   6
   5   5  -3 13239.7 400.089  13
   5   5  -3 14317.5 394.446   9
  -5  -5   3 13792.5 467.354  10
  -5  -5   3 14924.3 537.099   2
   5   5  -2 7070.47 253.296   6
  -5  -5   2 6844.57 220.311   4
   5   5  -2 6893.47 232.713   9
  -5  -5   2 7628.03 339.752   2
   5   5  -1 3535.79 164.132  11
  -5  -5   1 3774.16 221.784   2
   5   5  -1 3551.11 164.576   6
   5   5   0 8047.29 281.130  11
  -5  -5   0 8109.30 338.872   2
  -5  -5   0 8202.47 360.642  10
   5   5   0 7780.48 273.740   6
   5   5   1 3377.43 164.199  11
  -5  -5  -1 2938.06 188.177   2
   5   5   1 3127.52 153.747   6
  -5  -5  -1 3075.81 206.921  10
  -5  -5  -2 234.987 74.3243   2
   5   5   2 323.005 61.6683   6
  -5  -5  -2 341.827 85.4078  10
   5   5   2 328.688 66.6056  11
  -5  -5  -3-40.3731 70.2709   2
   5   5   3 60.9331 46.7671   6
  -5  -5  -3 19.3739 68.8328  10
   5   5   3 6.75628 54.3155  11
  -5  -5  -4 719.454 97.4368   2
   5   5   4 732.406 99.7631  11
  -5  -5  -4 809.318 108.825  10
   5   5   4 838.472 78.9693   5
   5   5   4 787.491 87.4971   6
  -5  -5  -5 1498.21 141.395  10
  -5  -5  -5 1547.30 129.415   2
   5   5   5 1903.07 147.702  11
  -5  -5  -6 2737.09 185.802  10
   5   5   6 2963.18 194.795  11
   5   5   7 406.007 109.980  11
  -5  -5  -7 290.844 91.4974  10
  -5  -5  -8 669.549 113.240  10
  -5  -6  15 579.078 119.835   3
   5   6 -15 480.348 108.997   7
  -5  -6  14 1267.80 149.920   3
  -5  -6  14 1323.63 122.466   2
   5   6 -14 1185.93 125.398   7
   5   6 -14 1551.56 152.699   6
  -5  -6  13 366.769 87.3633   2
  -5  -6  13 289.111 89.0505   3
   5   6 -13 291.139 77.3970   7
   5   6 -13 350.931 87.1320   6
   5   6 -12 1727.72 124.912   7
   5   6 -12 1837.68 148.364   6
  -5  -6  12 1666.49 145.893   2
  -5  -6  12 1648.47 141.688   3
   5   6 -11 7235.11 269.677   7
   5   6 -11 8222.89 271.976  11
   5   6 -11 7596.55 313.346   6
  -5  -6  11 7154.08 318.898   2
  -5  -6  11 7505.33 294.779   3
   5   6 -10 5530.99 209.663   7
   5   6 -10 5847.90 217.214  11
   5   6 -10 5789.81 255.056   6
  -5  -6  10 5390.47 269.789   2
  -5  -6  10 5130.31 222.758   3
   5   6  -9 1031.00 79.1732   7
   5   6  -9 1215.24 109.827   6
   5   6  -9 1174.69 90.4330  11
  -5  -6   9 949.010 87.7009   3
  -5  -6   9 1137.50 130.619   2
  -5  -6   8 11922.9 458.808   2
   5   6  -8 11955.9 335.720   7
   5   6  -8 12243.3 346.064  13
   5   6  -8 13331.7 412.446   6
   5   6  -8 12918.7 373.333  11
   5   6  -8 11415.2 343.382   9
  -5  -6   8 11986.1 383.512  10
  -5  -6   8 12064.9 357.473   3
  -5  -6   7 4769.66 266.730   2
   5   6  -7 4569.08 151.266   7
   5   6  -7 4480.91 173.051  13
   5   6  -7 4573.13 209.092   6
   5   6  -7 5149.40 195.807  11
  -5  -6   7 4650.31 207.769  10
   5   6  -7 4385.51 167.636   9
  -5  -6   7 4796.86 171.281   3
   5   6  -6 318.327 53.2494  13
   5   6  -6 382.467 35.7194   7
   5   6  -6 427.850 60.1658  11
   5   6  -6 437.808 52.5302   9
  -5  -6   6 338.380 71.6182  10
   5   6  -6 365.603 68.7160   6
  -5  -6   6 376.449 45.4661   3
   5   6  -5 65.9254 19.0363   7
  -5  -6   5 143.242 51.8540   4
  -5  -6   5 106.673 86.8579   2
   5   6  -5 103.316 48.7286  11
   5   6  -5 97.3798 38.9126   9
  -5  -6   5 129.796 61.8860  10
  -5  -6   4 707.117 70.3434   4
  -5  -6   4 501.123 81.8294  10
   5   6  -4 418.030 54.3433   9
  -5  -6   4 602.289 117.665   2
   5   6  -3 4475.71 174.069   9
  -5  -6   3 4955.69 250.843  10
  -5  -6   3 5108.86 293.512   2
   5   6  -2 7733.82 269.109  11
  -5  -6   2 7018.95 343.607   2
   5   6  -2 7387.97 245.231   9
  -5  -6   2 7212.98 329.701  10
   5   6  -2 7072.17 265.815   6
   5   6  -1 2866.21 150.801  11
  -5  -6   1 2923.74 205.865   2
   5   6  -1 2589.73 145.881   6
   5   6   0 2693.24 147.315  11
  -5  -6   0 2372.43 179.644   2
  -5  -6   0 2713.54 203.994  10
   5   6   0 2415.81 139.961   6
   5   6   1 11928.2 391.579  11
  -5  -6  -1 12090.8 446.543   2
  -5  -6  -1 11909.3 470.186  10
   5   6   1 12357.6 385.490   6
   5   6   2 2736.27 160.647  11
  -5  -6  -2 2939.23 191.007   2
   5   6   2 2846.88 152.645   6
  -5  -6  -2 2798.27 201.592  10
  -5  -6  -3 34.8676 69.5578   2
  -5  -6  -3 94.3084 76.6875  10
   5   6   3 115.542 62.0363  11
   5   6   3 118.910 58.3433   6
   5   6   4 1135.81 119.164  11
  -5  -6  -4 1163.31 123.551   2
   5   6   4 1198.67 105.292   6
  -5  -6  -4 1206.38 138.820  10
  -5  -6  -5 1917.58 168.790  10
   5   6   5 1997.02 160.030  11
  -5  -6  -6 1420.22 144.938  10
   5   6   6 1436.20 145.168  11
   5   7 -15 1191.12 136.303   7
   5   7 -14-7.90555 77.4304   7
  -5  -7  14 67.7126 75.1181   2
  -5  -7  14-32.0308 87.8217   3
   5   7 -13 6.79753 59.9412   7
   5   7 -13 19.4039 75.5193   6
  -5  -7  13 90.2363 79.5701   2
  -5  -7  13-18.4115 76.8437   3
   5   7 -12 76.2200 57.7301   7
  -5  -7  12 28.4913 70.1329   2
  -5  -7  12-7.87359 60.2596   3
   5   7 -12 9.03277 66.7041   6
   5   7 -11 3109.27 190.131   6
   5   7 -11 2884.26 148.230   7
   5   7 -11 3120.77 158.053  11
  -5  -7  11 2741.31 197.648   2
  -5  -7  11 3167.16 172.599   3
   5   7 -10 6224.74 237.932  11
   5   7 -10 6246.71 274.867   6
   5   7 -10 6007.80 218.201   7
  -5  -7  10 5731.56 299.129   2
   5   7  -9 888.403 73.1099   7
   5   7  -9 1112.69 96.4682  11
   5   7  -9 1097.27 113.550   6
  -5  -7   9 865.668 88.6779  10
  -5  -7   9 927.025 128.293   2
   5   7  -8 1693.02 88.6193   7
   5   7  -8 1768.47 115.331  11
   5   7  -8 1600.97 131.188   6
  -5  -7   8 1666.15 122.875  10
  -5  -7   8 1736.05 171.119   2
   5   7  -7 13026.9 350.092   7
   5   7  -7 13839.1 410.195  11
   5   7  -7 13641.4 437.078   6
  -5  -7   7 13102.7 436.950  10
  -5  -7   7 13599.1 524.534   2
   5   7  -6 5294.98 210.153  11
  -5  -7   6 5322.62 245.759  10
   5   7  -6 4848.09 179.523   9
   5   7  -6 5128.50 151.952   7
   5   7  -6 4923.19 224.520   6
   5   7  -5 480.166 79.2661   6
  -5  -7   5 787.661 138.554   2
  -5  -7   5 884.419 110.426  10
   5   7  -5 610.890 61.0945   9
  -5  -7   4 1625.82 180.900   2
   5   7  -4 1104.66 78.7142   9
  -5  -7   4 1455.05 137.686  10
   5   7  -3 1410.23 105.325  11
   5   7  -3 1242.01 86.8659   9
  -5  -7   3 1311.79 139.745  10
   5   7  -2 2905.56 153.310  11
   5   7  -2 2706.42 155.333   6
  -5  -7   2 2908.23 210.728  10
  -5  -7   2 2684.37 210.110   2
   5   7  -1 1223.41 104.278  11
  -5  -7   1 1317.58 150.485   2
   5   7  -1 1144.45 104.824   6
   5   7   0 24.3073 52.1840   6
  -5  -7   0 25.9101 77.0243  10
   5   7   0 91.4465 54.9261  11
  -5  -7   0 22.1255 78.6144   2
   5   7   1 2815.16 162.438  11
   5   7   1 2907.81 162.265   6
  -5  -7  -1 2761.95 213.659  10
  -5  -7  -1 2790.01 199.096   2
   5   7   2 7602.99 294.987  11
   5   7   2 6991.28 272.768   6
  -5  -7  -2 6867.44 321.010   2
  -5  -7  -2 7042.75 341.379  10
   5   7   3 518.901 86.0691   6
  -5  -7  -3 563.458 111.211  10
   5   7   3 789.354 104.190  11
  -5  -7  -3 593.349 105.842   2
  -5  -7  -4 1204.69 140.212  10
   5   7   4 1258.34 127.153  11
  -5  -7  -5 2284.58 188.873  10
   5   7   5 2273.26 172.960  11
  -5  -8  13 39.5530 81.9392   2
   5   8 -13-12.9723 63.5279   7
   5   8 -12 846.828 116.192   6
   5   8 -12 838.123 89.4141   7
  -5  -8  12 857.025 127.013   2
   5   8 -11 472.703 80.9874  11
   5   8 -11 217.016 55.2930   7
  -5  -8  11 265.544 97.8259   2
   5   8 -11 471.681 97.4106   6
   5   8 -10 524.813 68.1707   7
   5   8 -10 734.306 101.430   6
   5   8 -10 501.004 80.5897  11
  -5  -8  10 407.531 109.173   2
   5   8  -9 2331.40 162.371   6
  -5  -8   9 2114.79 140.186  10
  -5  -8   9 2539.73 204.721   2
   5   8  -9 2521.05 143.213  11
   5   8  -8 236.949 73.8557   6
   5   8  -8 236.371 69.4728  11
  -5  -8   8 234.318 73.6457  10
  -5  -8   8 211.242 96.7259   2
   5   8  -7 2517.75 159.709   6
  -5  -8   7 2200.48 156.980  10
  -5  -8   7 1956.65 195.601   2
   5   8  -7 2336.68 139.325  11
  -5  -8   6 8981.38 349.454  10
   5   8  -6 8627.99 324.361   6
   5   8  -6 8075.40 297.699  11
   5   8  -5 2879.57 170.513   6
  -5  -8   5 2969.94 197.087  10
  -5  -8   5 2761.84 245.439   2
   5   8  -4 2248.24 149.281   6
  -5  -8   4 2231.47 183.307  10
  -5  -8   4 2073.91 215.087   2
   5   8  -4 2434.20 143.428  11
  -5  -8   3 7172.81 342.954  10
  -5  -8   3 7166.44 378.123   2
   5   8  -3 6708.83 266.143  11
  -5  -8   2 1282.86 158.765  10
  -5  -8   2 1428.33 165.637   2
   5   8  -2 1230.82 108.663  11
   5   8  -1 716.351 94.2898   6
  -5  -8   1 754.052 130.582   2
   5   8  -1 606.160 83.7064  11
   5   8   0 173.295 67.1570   6
  -5  -8   0 345.532 107.203   2
  -5  -8   0 151.474 88.7399  10
   5   8   0 260.292 73.6299  11
   5   8   1 452.742 82.4800   6
  -5  -8  -1 300.111 105.318  10
   5   8   1 438.171 83.6343  11
  -5  -8  -1 461.991 113.622   2
   5   8   2 1707.90 129.726   6
  -5  -8  -2 1821.92 174.870  10
  -5  -8  -2 1831.21 167.008   2
   5   8   2 1605.37 136.781  11
   5   8   3 2895.32 174.943   6
  -5  -8  -3 2573.94 209.533  10
  -5  -8  -3 3057.16 207.876   2
   5   8   3 3398.33 201.708  11
  -5  -9  12 447.126 119.036   2
  -5  -9  11 2631.53 214.313   2
   5   9 -11 2758.01 162.180  11
   5   9 -10 656.720 105.312   6
  -5  -9  10 636.225 128.627   2
   5   9 -10 594.738 86.8677  11
   5   9  -9 236.580 79.7387   6
  -5  -9   9 121.850 95.3108   2
   5   9  -9 132.462 67.4861  11
  -5  -9   9 184.620 71.4553  10
   5   9  -8 691.072 100.697   6
  -5  -9   8 713.858 140.348   2
   5   9  -8 633.370 84.7554  11
  -5  -9   8 514.707 91.0995  10
   5   9  -7 94.8066 71.0765   6
  -5  -9   7 63.2611 99.2966   2
   5   9  -7 201.976 68.6746  11
  -5  -9   7 149.412 75.5221  10
  -5  -9   6 2934.93 197.491  10
   5   9  -6 3003.85 179.846   6
   5   9  -5 3525.51 191.179   6
  -5  -9   5 3616.51 229.422  10
  -5  -9   5 3723.64 299.068   2
   5   9  -5 2868.42 170.002  11
   5   9  -4 446.889 82.1475   6
  -5  -9   4 644.612 125.780  10
   5   9  -4 496.695 82.0682  11
  -5  -9   4 669.328 147.489   2
  -5  -9   3 2875.69 226.641  10
  -5  -9   3 3153.26 261.205   2
   5   9  -3 2800.47 165.591  11
  -5  -9   2 6610.33 359.088  10
  -5  -9   2 6792.63 366.109   2
   5   9  -2 6403.66 267.832  11
   5   9  -1 1807.18 140.674   6
  -5  -9   1 1718.77 185.928   2
   5   9  -1 1417.02 126.523  11
   5   9   0-28.9990 68.7292   6
  -5  -9   0 51.0258 94.1992   2
   5   9   0 53.3747 65.4672  11
  -5  -9  -1 349.971 111.422   2
  -5  -9  -2 1364.00 160.861   2
  -5 -10   9 1639.70 136.791  10
  -5 -10   8 147.296 76.9673  10
  -5 -10   7 512.108 98.7320  10
  -5 -10   6 266.519 93.1074  10
   5  10  -6 416.189 82.7863   6
   5  10  -5 1664.56 136.453   6
  -5 -10   5 1275.77 149.442  10
  -5 -10   5 1746.08 216.223   2
   5  10  -5 1563.94 131.227  11
   5  10  -4 1160.69 121.886   6
  -5 -10   4 1062.84 153.001  10
  -5 -10   3 86.4634 99.2955  10
   6 -14  -3 1369.46 122.115  13
   6 -14  -2 41.8814 71.1941  13
  -6  14   1 2884.25 222.178   8
   6 -14  -1 3029.08 178.047  13
  -6  14   0 3713.61 238.501   8
   6 -14   0 3768.50 204.819  13
  -6  14  -1 486.124 102.564   8
   6 -14   1 471.935 95.1249  13
  -6  14  -2 324.754 90.9373   8
   6 -14   2 604.104 101.307  13
  -6  14  -3 1562.95 138.847   8
  -6  13   5 1294.84 161.497   1
   6 -13  -4 1330.02 128.123  14
  -6  13   4 1346.56 171.839   8
  -6  13   4 1202.29 153.715   1
   6 -13  -3 1308.85 123.403  14
  -6  13   3 1122.77 161.262   1
  -6  13   3 1241.20 162.787   8
   6 -13  -3 1251.22 111.531  13
   6 -13  -2 280.831 80.9174  14
  -6  13   2 332.647 121.585   1
  -6  13   2 217.951 100.534   8
   6 -13  -2 296.941 73.6601  13
   6 -13  -1 231.816 75.6319  14
  -6  13   1 240.906 94.9212   8
  -6  13   1 360.288 122.757   1
   6 -13  -1 451.552 82.9703  13
  -6  13   0 4754.80 320.573   1
   6 -13   0 4921.15 230.972  13
  -6  13   0 5171.71 266.677   8
  -6  13   0 5232.28 231.131   7
   6 -13   0 5067.18 234.995  14
   6 -13   1 5869.04 259.217  13
   6 -13   1 5963.38 260.691  14
  -6  13  -1 6182.96 286.420   8
  -6  13  -1 6227.57 259.054   7
   6 -13   2 160.609 81.0144  13
   6 -13   2 29.3848 66.9005  14
  -6  13  -2 139.040 67.4224   7
  -6  13  -2 168.851 74.9763   8
  -6  13  -2 118.201 117.877   1
  -6  13  -3 4189.37 274.488   1
   6 -13   3 3778.44 204.964  14
  -6  13  -3 4028.85 209.290   8
  -6  13  -3 3957.18 199.387   7
   6 -13   3 3992.08 216.777  13
  -6  13  -4 3495.98 250.652   1
   6 -13   4 3833.27 212.039  13
   6 -13   4 3868.91 208.462  14
  -6  13  -4 3887.85 197.515   8
  -6  13  -4 3823.25 198.651   7
  -6  13  -5 561.686 94.4465   7
  -6  13  -5 643.612 136.050   1
   6 -13   5 627.262 98.6301  14
   6 -13   5 671.834 104.549  13
  -6  13  -6 115.476 97.1210   1
  -6  13  -7 10.9970 91.7948   1
   6 -12  -7 2953.19 185.795  14
  -6  12   7 3181.08 213.113   1
   6 -12  -6 261.745 82.4327  14
  -6  12   6 269.086 83.7511   8
  -6  12   6 227.319 94.1969   1
   6 -12  -5 1725.92 138.159  14
  -6  12   5 2012.00 174.024   1
   6 -12  -4 4015.67 202.556  14
  -6  12   4 3726.53 252.868   8
  -6  12   4 3549.77 239.276   1
   6 -12  -4 3802.70 179.226  13
   6 -12  -3 855.480 91.2079  13
  -6  12   3 816.153 129.818   1
  -6  12   3 967.747 137.801   8
   6 -12  -3 833.077 95.8010  14
   6 -12  -2 362.491 68.6768  13
   6 -12  -2 268.084 71.5913  14
  -6  12   2 197.098 93.6084   1
  -6  12   2 350.746 104.707   8
   6 -12  -1 18.3717 56.4009  13
   6 -12  -1 6.63859 62.5799  14
  -6  12   1-49.9285 58.1601   7
  -6  12   1 29.6432 74.9650   8
  -6  12   1 28.6868 87.6738   1
  -6  12   0 2415.30 227.438   1
   6 -12   0 2121.57 144.628  14
  -6  12   0 1953.80 159.118   8
  -6  12   0 2088.07 136.083   7
   6 -12   0 2433.83 146.632  13
   6 -12   1 6184.62 251.968  14
  -6  12  -1 5699.02 261.829   8
  -6  12  -1 5547.43 238.213   7
   6 -12   1 5711.33 247.427  13
  -6  12  -2 2720.16 223.232   1
   6 -12   2 2614.20 165.057  13
   6 -12   2 2891.53 167.195  14
  -6  12  -2 2578.09 163.922   8
  -6  12  -2 2615.16 154.680   7
   6 -12   3 474.533 89.1222  13
   6 -12   3 279.417 74.7930  14
  -6  12  -3 381.801 77.0636   7
  -6  12  -3 379.537 75.4752   8
  -6  12  -3 540.497 120.143   1
  -6  12  -4 5798.44 305.368   1
   6 -12   4 5922.69 261.649  13
   6 -12   4 5281.95 239.865  14
  -6  12  -4 4879.15 218.547   8
  -6  12  -4 4814.69 226.483   7
  -6  12  -5 4743.38 221.331   7
   6 -12   5 4751.88 240.907  13
  -6  12  -5 4320.80 192.076   8
  -6  12  -5 4232.67 260.848   1
  -6  12  -5 4558.35 223.791  12
  -6  12  -6 473.145 85.1416  12
  -6  12  -6 547.257 87.4756   7
  -6  12  -6 605.612 116.095   1
  -6  12  -7 601.567 99.5761  12
  -6  12  -7 736.364 100.767   7
   6 -12   7 693.905 109.761  13
  -6  12  -7 755.397 126.953   1
  -6  12  -8 1531.49 153.804   1
  -6  12  -9 987.597 131.283   1
  -6  11   9 57.5549 56.0374   9
   6 -11  -8 1111.63 111.832   4
  -6  11   8 958.712 127.246   1
  -6  11   8 1019.84 94.8011   9
  -6  11   8 998.466 126.771   8
   6 -11  -8 1242.04 124.925  14
   6 -11  -7 4589.89 220.951  14
  -6  11   7 4551.18 244.958   1
  -6  11   7 4198.75 245.214   8
  -6  11   7 4095.05 183.738   9
   6 -11  -6 2038.88 143.014  14
  -6  11   6 1742.33 161.224   8
  -6  11   6 1993.48 165.952   1
   6 -11  -5 203.730 67.7109  14
  -6  11   5 151.798 88.7719   1
   6 -11  -5 228.390 59.8944  13
   6 -11  -4 5330.05 228.192  14
  -6  11   4 5202.37 293.544   8
  -6  11   4 5229.40 280.389   1
   6 -11  -4 4947.66 205.234  13
   6 -11  -3 6456.87 256.873  14
  -6  11   3 6553.01 319.123   8
  -6  11   3 6517.17 325.793   1
   6 -11  -3 6391.48 242.386  13
   6 -11  -2 994.463 96.1721  14
  -6  11   2 892.768 136.431   1
  -6  11   2 781.374 113.834   8
   6 -11  -2 910.256 89.1035  13
   6 -11  -1 898.768 94.5455  14
  -6  11   1 829.838 89.7817   7
  -6  11   1 852.481 115.043   8
  -6  11   1 911.434 146.962   1
   6 -11  -1 1044.33 95.0876  13
  -6  11   0 1207.79 163.918   1
   6 -11   0 1364.97 109.798  14
  -6  11   0 1688.07 135.901   8
  -6  11   0 1534.07 113.056   7
   6 -11   0 1306.44 108.623  13
   6 -11   1 1668.84 123.152  14
  -6  11  -1 1939.05 140.674   8
  -6  11  -1 1925.37 128.103   7
   6 -11   1 2127.64 135.625  13
  -6  11  -2 2627.92 207.718   1
   6 -11   2 2561.77 150.290  14
  -6  11  -2 2411.89 155.127   8
  -6  11  -2 2517.26 145.998   7
   6 -11   2 2690.98 161.392  13
  -6  11  -3 1231.33 142.946   1
   6 -11   3 1377.71 120.308  13
   6 -11   3 1134.54 106.930  14
  -6  11  -3 1259.86 106.217   8
  -6  11  -3 1234.78 106.138   7
  -6  11  -4 915.507 95.9400   7
  -6  11  -4 983.586 102.521  12
   6 -11   4 896.441 105.942  13
  -6  11  -4 928.418 86.2211   8
  -6  11  -4 874.149 129.523   1
  -6  11  -5 7197.35 290.768  12
  -6  11  -5 7859.52 346.512   1
  -6  11  -5 7606.64 290.678   7
  -6  11  -6 4424.17 219.946  12
  -6  11  -6 4960.05 224.996   7
  -6  11  -6 4697.20 253.517   1
  -6  11  -7 317.763 82.6741  12
  -6  11  -7 298.836 76.4641   7
   6 -11   7 399.166 97.1400  13
  -6  11  -7 155.998 85.2594   1
  -6  11  -8 2246.42 161.067  12
  -6  11  -8 2328.80 174.038   1
  -6  11  -8 2440.94 166.146   7
   6 -11   8 2320.69 181.881  13
  -6  11  -9 1547.41 145.333   1
  -6  10  11 1261.51 129.318   9
  -6  10  10 412.892 82.5390   9
  -6  10  10 340.088 97.7404   8
   6 -10 -10 465.507 95.6790  14
   6 -10  -9 62.2420 62.6323   4
   6 -10  -9 224.135 78.1220  14
  -6  10   9 148.780 65.0860   9
  -6  10   9 214.166 87.8386   8
   6 -10  -8 884.116 99.8932   4
  -6  10   8 749.891 101.754   1
  -6  10   8 700.691 85.1432   9
  -6  10   8 752.742 112.474   8
   6 -10  -8 633.813 94.6360  14
  -6  10   7 743.068 103.401   1
  -6  10   7 850.486 82.9191   9
  -6  10   7 757.469 111.456   8
   6 -10  -7 733.822 92.5707  14
  -6  10   6 1609.92 150.339   8
  -6  10   6 1529.46 139.682   1
   6 -10  -6 1360.26 116.035  14
   6 -10  -5 470.042 78.8494  14
   6 -10  -5 486.596 63.1128  13
  -6  10   5 464.894 95.9375   1
   6 -10  -4 996.687 78.4702   6
   6 -10  -4 1152.11 99.6550  14
  -6  10   4 871.953 119.329   1
   6 -10  -4 1076.64 88.2731  13
   6 -10  -3 8864.58 284.713  13
   6 -10  -3 8925.52 300.178  14
   6 -10  -3 8006.87 256.277   6
  -6  10   3 8127.16 351.127   8
  -6  10   3 8455.97 370.678   1
   6 -10  -2 6966.46 247.372  13
   6 -10  -2 6849.15 252.495  14
  -6  10   2 6609.34 298.441   8
  -6  10   2 6619.26 333.975   1
  -6  10   1 161.543 96.6745   1
   6 -10  -1 153.053 55.5926  14
   6 -10  -1 201.484 59.9797  13
  -6  10   1 180.820 53.5638   7
   6 -10  -1 138.735 35.9505  11
  -6  10   1 167.917 70.6002   8
  -6  10   0 6247.47 349.002   1
   6 -10   0 6783.27 253.244  13
   6 -10   0 6460.06 245.760  14
   6 -10   0 6878.97 214.346  11
  -6  10   0 6450.91 271.684   8
  -6  10   0 6594.56 247.793   7
   6 -10   1 4638.07 204.326  13
   6 -10   1 4311.99 193.170  14
   6 -10   1 4237.07 165.994  11
  -6  10  -1 4559.30 207.073   8
  -6  10  -1 4469.06 190.168   7
  -6  10  -2 1495.54 154.978   1
   6 -10   2 1597.96 123.131  13
   6 -10   2 1445.98 112.621  14
  -6  10  -2 1818.22 121.244   8
  -6  10  -2 1426.98 105.382   7
  -6  10  -3 929.123 88.6129   7
   6 -10   3 979.482 101.399  13
  -6  10  -3 1028.56 94.7250  12
  -6  10  -3 823.579 83.7218   8
  -6  10  -3 829.465 122.502   1
  -6  10  -4 99.7152 53.1886  12
  -6  10  -4 122.370 57.7153   7
   6 -10   4 130.713 64.0739  13
  -6  10  -4 39.2827 68.4096   1
  -6  10  -5 2124.42 139.909  12
  -6  10  -5 2102.48 136.293   7
  -6  10  -5 2002.13 166.670   1
  -6  10  -6 6083.61 255.160  12
  -6  10  -6 5426.42 267.550   1
  -6  10  -6 6216.06 253.296   7
  -6  10  -7 2259.22 153.151  12
  -6  10  -7 2514.01 171.691   1
   6 -10   7 2286.47 169.519  13
  -6  10  -7 2491.27 160.043   7
  -6  10  -8 321.169 85.1832  12
  -6  10  -8 298.182 87.7686   1
   6 -10   8 109.815 75.9378  13
  -6  10  -8 286.389 84.1717   7
  -6  10  -9 3223.74 194.395  12
  -6  10  -9 3129.93 185.565   1
  -6  10  -9 3126.94 190.273   7
   6 -10   9 3392.20 222.348  13
  -6   9  12 300.996 90.4191   9
   6  -9 -11 2611.70 179.805  14
   6  -9 -11 2516.37 166.274   4
  -6   9  11 2456.19 169.417   9
  -6   9  11 2672.03 181.458   8
   6  -9 -10 3151.28 184.784  14
  -6   9  10 2807.14 171.424   9
  -6   9  10 2834.91 187.707   8
   6  -9 -10 2988.63 174.992   4
   6  -9  -9 224.702 78.3917   4
  -6   9   9 163.694 77.4198   1
   6  -9  -9 293.675 74.1868  14
  -6   9   9 45.3357 57.5828   9
  -6   9   9 123.827 76.0181   8
   6  -9  -8 2174.37 144.464  14
  -6   9   8 2029.67 130.429   9
  -6   9   8 1971.14 157.225   8
   6  -9  -8 2083.90 139.578   4
  -6   9   8 2295.92 159.661   1
   6  -9  -7 2809.80 155.227  14
  -6   9   7 2430.26 139.160   9
  -6   9   7 2445.52 177.574   8
  -6   9   7 2383.60 162.584   1
  -6   9   6 671.495 100.981   1
   6  -9  -6 612.109 61.5034  13
   6  -9  -6 785.686 83.8940  14
  -6   9   6 728.037 74.5864   9
  -6   9   6 691.150 110.133   8
   6  -9  -5 614.606 63.7396  13
   6  -9  -5 645.715 77.6833  14
   6  -9  -5 575.995 65.8027   6
  -6   9   5 545.849 105.256   8
  -6   9   5 541.393 94.9004   1
   6  -9  -4 205.179 59.4154  14
   6  -9  -4 90.7047 43.6907  13
   6  -9  -4 100.557 39.1828   6
   6  -9  -4 133.805 18.1317  11
  -6   9   4 182.323 73.4960   1
  -6   9   3 3265.98 153.933  13
   6  -9  -3 3352.53 156.577  14
   6  -9  -3 3186.16 143.456  13
   6  -9  -3 3071.94 127.153   6
   6  -9  -3 3056.15 102.052  11
  -6   9   3 2944.84 189.237   8
  -6   9   3 3291.43 212.519   1
  -6   9   2 9023.89 395.888   1
  -6   9   2 9280.29 304.334  13
   6  -9  -2 9389.45 304.585  14
   6  -9  -2 9373.72 296.740  13
   6  -9  -2 8902.53 257.977   6
   6  -9  -2 9028.70 249.704  11
  -6   9   2 9213.34 348.184   8
  -6   9   2 9203.15 300.327   7
  -6   9   1 3414.43 246.350   1
   6  -9  -1 3266.83 158.108  14
   6  -9  -1 3688.34 161.558  13
   6  -9  -1 3203.64 115.792   6
   6  -9  -1 3481.79 126.727  11
  -6   9   1 3801.63 192.201   8
  -6   9   1 3487.43 159.631   7
  -6   9   0 699.423 126.772   1
   6  -9   0 878.233 81.9271  14
   6  -9   0 954.028 85.7606  13
   6  -9   0 674.423 42.0902   6
   6  -9   0 960.538 65.6518  11
  -6   9   0 846.232 92.6178   8
  -6   9   0 847.925 78.8554   7
   6  -9   1 11186.4 304.928  14
   6  -9   1 11498.1 314.708  13
   6  -9   1 11009.2 271.242  11
  -6   9  -1 11326.2 319.480   8
  -6   9  -1 11933.2 304.427   7
  -6   9  -2 7852.53 268.887   7
   6  -9   2 7625.73 280.733  13
   6  -9   2 7313.91 249.460  11
  -6   9  -2 7747.62 274.098  12
  -6   9  -2 7715.25 272.282   8
  -6   9  -2 7255.84 333.701   1
  -6   9  -3 239.135 58.7710  12
  -6   9  -3 180.389 53.9963   7
  -6   9  -3 190.235 77.1818   1
   6  -9   3 160.239 60.5747  13
  -6   9  -4 75.0397 47.8954  12
  -6   9  -4 166.240 55.0101   7
   6  -9   4 97.1581 65.4661  13
  -6   9  -4 107.194 76.2081   1
  -6   9  -5 893.293 93.3368  12
  -6   9  -5 860.140 109.726   1
  -6   9  -5 898.688 90.2077   7
  -6   9  -6 2492.04 152.883  12
  -6   9  -6 2407.22 167.469   1
   6  -9   6 2523.33 171.753  13
  -6   9  -6 2706.07 155.450   7
  -6   9  -7 2965.80 184.180   1
   6  -9   7 3166.30 199.567  13
  -6   9  -7 3449.37 178.824   7
  -6   9  -8 969.721 108.548  12
  -6   9  -8 924.943 107.128   1
   6  -9   8 786.859 114.534  13
  -6   9  -8 956.297 109.182   7
  -6   9  -9 876.037 112.283  12
  -6   9  -9 834.128 105.176   1
  -6   9  -9 857.702 107.010   7
   6  -9   9 916.544 132.358  13
  -6   9 -10 4486.44 234.281   7
  -6   8  13 76.7252 81.2117   3
  -6   8  13 8.05307 79.2939   8
   6  -8 -12 38.0654 68.8538   4
  -6   8  12 43.6152 69.0222   3
  -6   8  12 9.34720 74.5548   9
  -6   8  12-24.3563 79.9373   8
   6  -8 -12 35.5799 74.2495  14
   6  -8 -11 1589.55 139.409  14
  -6   8  11 1605.72 138.830   9
  -6   8  11 1452.53 134.399   8
  -6   8  11 1656.33 137.386   3
   6  -8 -11 1636.09 132.496   4
   6  -8 -10 5191.01 234.853  14
  -6   8  10 4864.51 228.015   9
  -6   8  10 4662.07 239.434   8
   6  -8 -10 5091.25 233.182   4
  -6   8  10 4741.10 221.439   1
   6  -8  -9 2003.47 134.655  14
  -6   8   9 1814.58 129.961   9
  -6   8   9 1820.03 147.239   8
   6  -8  -9 1778.17 131.441   4
  -6   8   9 1987.52 141.325   1
   6  -8  -8 825.565 90.4840  14
  -6   8   8 821.363 91.5169   9
  -6   8   8 858.801 108.108   8
   6  -8  -8 967.775 100.164   4
  -6   8   8 819.369 103.918   1
   6  -8  -7 8220.61 284.136  14
  -6   8   7 7555.61 308.520   1
  -6   8   7 7515.37 328.004   8
  -6   8   7 7510.29 272.360   9
   6  -8  -7 8060.43 293.485   4
   6  -8  -6 7501.96 229.786  13
  -6   8   6 7630.16 310.873   1
  -6   8   6 7402.94 334.805   8
  -6   8   6 7181.18 255.815   9
   6  -8  -6 7483.91 269.662  14
  -6   8   5 212.946 71.4323   1
   6  -8  -5 352.072 57.1488  14
   6  -8  -5 352.587 47.2458  13
   6  -8  -5 296.342 51.8869   6
   6  -8  -5 286.026 59.0626   5
  -6   8   5 271.046 77.1340   8
   6  -8  -4 301.806 55.8120  14
  -6   8   4 249.135 49.8340  13
   6  -8  -4 211.885 44.3119  13
   6  -8  -4 232.773 44.4170   6
   6  -8  -4 289.923 21.5531  11
   6  -8  -4 325.896 64.2170   5
  -6   8   4 394.999 82.2806   1
  -6   8   3 1391.03 139.916   1
   6  -8  -3 1423.24 94.4871  14
  -6   8   3 1261.57 93.3576  13
   6  -8  -3 1301.22 83.8819  13
   6  -8  -3 1236.75 74.0430   6
   6  -8  -3 1248.44 56.0706  11
   6  -8  -3 1383.54 83.9990   9
  -6   8   3 1097.45 113.536   8
   6  -8  -3 1455.53 118.808   5
   6  -8  -2 3626.93 199.636   5
  -6   8   2 3753.28 238.345   1
   6  -8  -2 3655.18 159.504  14
   6  -8  -2 3725.94 154.936  13
   6  -8  -2 3665.29 129.113   6
   6  -8  -2 3757.96 125.216  11
  -6   8   2 3837.26 194.376   8
   6  -8  -2 3929.08 148.008   9
  -6   8   2 3743.85 160.752   7
   6  -8  -1 7261.18 303.371   5
  -6   8   1 7480.59 367.929   1
   6  -8  -1 7361.14 251.381  14
   6  -8  -1 7557.65 254.337  13
   6  -8  -1 7117.57 204.284   6
   6  -8  -1 7853.69 224.448  11
  -6   8   1 7556.22 283.437   8
   6  -8  -1 7924.97 239.029   9
  -6   8   1 7487.19 253.150   7
   6  -8   0 2004.27 148.640   5
   6  -8   0 2199.29 118.534  14
   6  -8   0 2168.23 121.649  13
   6  -8   0 1977.78 70.3606   6
   6  -8   0 2265.69 103.140  11
  -6   8   0 2149.08 130.912   8
   6  -8   0 2230.65 105.042   9
  -6   8   0 2216.72 116.716   7
  -6   8  -1 3923.84 168.860  12
   6  -8   1 3638.75 172.014  13
  -6   8  -1 3745.52 170.872   8
   6  -8   1 3844.54 147.053   9
  -6   8  -1 3693.50 162.142   7
  -6   8  -2 16683.5 461.174   7
  -6   8  -2 15816.7 465.012  12
   6  -8   2 16177.8 481.176  13
   6  -8   2 16272.6 436.872   9
  -6   8  -2 15936.8 543.483   1
  -6   8  -3 6894.39 243.498   7
   6  -8   3 7098.85 267.453  13
  -6   8  -3 6774.73 248.765  12
   6  -8   3 6876.67 225.628   9
  -6   8  -3 7164.82 306.964   1
  -6   8  -4 293.454 61.4029  12
  -6   8  -4 312.216 58.2302   7
   6  -8   4 235.116 69.4790  13
  -6   8  -4 323.357 80.1815   1
  -6   8  -5 5670.15 230.732  12
  -6   8  -5 5919.72 261.773   1
  -6   8  -5 5584.56 224.620   7
  -6   8  -6 2639.38 152.619  12
  -6   8  -6 2528.70 164.934   1
   6  -8   6 2282.24 161.592  13
  -6   8  -6 2829.94 150.606   7
  -6   8  -7 1309.86 113.617  12
  -6   8  -7 1376.86 122.926   1
   6  -8   7 1059.39 119.533  13
  -6   8  -7 1381.39 110.847   7
  -6   8  -8 1452.72 125.788  12
  -6   8  -8 1637.05 123.026   7
   6  -8   8 1313.58 135.333  13
  -6   8  -9 57.1006 59.6921  12
  -6   8  -9 87.1876 66.5312   7
   6  -8   9 38.8653 75.6430  13
  -6   8 -10 2356.61 169.911  12
  -6   8 -10 2489.44 168.485   7
   6  -8  10 2272.27 175.774  13
  -6   8 -11 2750.52 187.652   7
  -6   7  13 599.806 108.302   3
   6  -7 -13 348.649 99.8373  14
  -6   7  13 388.418 100.599   9
  -6   7  13 506.365 96.8359   8
   6  -7 -12 236.838 72.9823   4
  -6   7  12 180.958 70.5017   3
   6  -7 -12 152.034 79.3044  14
  -6   7  12 230.544 89.9660   9
  -6   7  12 247.788 79.8699   8
   6  -7 -11 622.710 85.2765   4
  -6   7  11 610.049 91.2883   3
   6  -7 -11 346.953 83.3923  14
  -6   7  11 413.916 84.2748   9
  -6   7  11 454.510 87.3010   8
   6  -7 -10 2136.11 141.890  14
  -6   7  10 1916.70 138.232   9
  -6   7  10 1825.16 146.596   8
  -6   7  10 1969.15 139.782   3
   6  -7 -10 1853.65 139.845   4
  -6   7  10 1915.04 133.086   1
   6  -7  -9 3239.32 166.697  14
  -6   7   9 3297.24 172.017   9
  -6   7   9 3123.10 190.441   8
  -6   7   9 3058.31 168.017   3
   6  -7  -9 3412.56 177.953   4
  -6   7   9 3014.63 171.418   1
   6  -7  -8 1053.70 92.5648  14
  -6   7   8 830.179 89.4204   9
  -6   7   8 956.843 110.720   8
   6  -7  -8 818.289 63.3291   5
   6  -7  -8 1010.49 96.3665   4
  -6   7   8 937.778 98.1081   1
   6  -7  -7 2278.34 127.747  14
  -6   7   7 2063.19 140.919   1
  -6   7   7 1942.22 121.313   9
  -6   7   7 2030.45 159.141   8
   6  -7  -7 1848.19 103.472   5
   6  -7  -7 1894.61 127.120   4
   6  -7  -6 11188.1 343.161  14
  -6   7   6 11338.6 392.678   1
   6  -7  -6 11150.9 301.151  13
  -6   7   6 11115.4 342.104   9
  -6   7   6 11483.2 435.044   8
   6  -7  -5 9677.57 300.292  14
  -6   7   5 8801.81 349.474   1
   6  -7  -5 9168.94 267.128  13
   6  -7  -5 9846.94 291.366   9
  -6   7   5 9399.04 370.481   8
   6  -7  -5 8632.18 306.128   5
   6  -7  -4 62.6883 40.1471  14
   6  -7  -4 89.2690 34.5443  13
  -6   7   4 135.335 68.4996   1
   6  -7  -4 118.388 17.8513  11
   6  -7  -4 142.579 38.7933   9
   6  -7  -4 192.478 50.9975   5
   6  -7  -3 7234.67 273.828   5
  -6   7   3 7390.02 328.671   1
   6  -7  -3 7223.09 237.038  14
   6  -7  -3 7136.57 228.773  13
   6  -7  -3 6944.73 194.115  11
   6  -7  -3 7199.29 235.155  12
   6  -7  -3 7386.47 232.263   9
   6  -7  -3 7423.21 237.349   7
   6  -7  -2 3198.27 165.829   5
  -6   7   2 2871.07 208.065   1
   6  -7  -2 3167.03 136.897  14
   6  -7  -2 2968.74 132.008  13
   6  -7  -2 2783.32 108.023   6
   6  -7  -2 3092.80 110.827  11
   6  -7  -2 2982.93 132.172  12
  -6   7   2 3030.51 163.884   8
   6  -7  -2 3324.17 133.450   9
  -6   7   2 3317.93 139.732   7
   6  -7  -2 3282.71 192.548   8
   6  -7  -2 3055.92 132.632   7
   6  -7  -1 1274.39 105.480   5
   6  -7  -1 1349.59 86.6752  14
   6  -7  -1 1218.38 81.5782  12
   6  -7  -1 1436.36 91.0335  13
  -6   7   1 1187.49 139.676   1
   6  -7  -1 1209.55 56.1443   6
  -6   7   1 1453.40 105.677   8
   6  -7  -1 1461.66 83.8587   9
  -6   7   1 1409.12 88.3579   7
   6  -7  -1 1209.93 81.5914   7
   6  -7  -1 1358.36 127.400   8
   6  -7   0 1703.96 122.432   5
   6  -7   0 1438.81 91.5094  14
   6  -7   0 1843.79 98.0488  12
   6  -7   0 1836.72 106.427  13
   6  -7   0 1598.93 56.0501   6
   6  -7   0 1545.35 56.7576   6
   6  -7   0 1809.54 93.6467   9
   6  -7   0 2100.41 101.947   7
   6  -7   0 1727.30 144.115   8
  -6   7   0 1904.95 101.003   7
  -6   7  -1-9.55135 57.5885   1
   6  -7   1 31.8783 36.9904   7
   6  -7   1 38.4521 55.7279   8
   6  -7   1 44.4930 39.4315  13
  -6   7  -1 44.2344 37.6922   7
  -6   7  -1 39.6106 40.0497  12
   6  -7   1-41.5395 34.9596   9
   6  -7   1-27.1160 43.6195   5
   6  -7   2 6514.29 216.479   7
  -6   7  -2 6469.62 223.125   7
   6  -7   2 6749.50 266.938   8
   6  -7   2 6299.88 241.000  13
  -6   7  -2 6388.42 290.542   1
  -6   7  -2 6579.08 230.973  12
   6  -7   2 6377.08 214.244   9
   6  -7   2 6141.29 262.596   5
  -6   7  -3 14583.4 426.649  12
  -6   7  -3 14131.1 482.819   1
  -6   7  -3 14648.5 419.898   7
   6  -7   3 15469.7 454.993   8
   6  -7   3 15034.5 409.950   7
   6  -7   3 13888.8 443.534  13
  -6   7  -4 3196.39 147.731   7
  -6   7  -4 3207.46 185.809   1
  -6   7  -4 2940.02 150.011  12
  -6   7  -5 3803.56 171.508   7
  -6   7  -5 4148.69 205.560   1
  -6   7  -5 3881.40 180.343  12
  -6   7  -6 7814.62 307.207   1
   6  -7   6 7842.06 320.528  13
  -6   7  -6 8476.98 286.691   7
  -6   7  -6 8427.16 298.653  12
  -6   7  -7 4191.14 207.823   1
  -6   7  -7 4705.05 213.527  12
   6  -7   7 4512.28 239.244  13
  -6   7  -7 4685.63 202.192   7
  -6   7  -8 527.150 85.9116  12
  -6   7  -8 512.721 77.1819   7
   6  -7   8 372.543 89.6350  13
  -6   7  -9 315.835 84.1881  12
  -6   7  -9 268.545 71.1607   7
   6  -7   9 231.019 79.5911  13
  -6   7 -10 756.958 107.053  12
  -6   7 -10 709.180 101.313   7
   6  -7  10 544.236 100.909  13
  -6   7 -11 1457.99 137.835   7
  -6   6  14 2297.97 183.547   3
   6  -6 -14 2322.87 176.607  14
  -6   6  13 2223.57 177.313   9
   6  -6 -13 2116.17 156.928   4
  -6   6  13 2171.16 169.786   3
   6  -6 -13 2123.42 167.413  14
  -6   6  12 84.8342 71.3422   3
   6  -6 -12 48.3296 63.7546  14
   6  -6 -12 76.8784 66.9231   4
  -6   6  12 81.2394 73.1479   9
   6  -6 -11 1804.52 133.057  14
  -6   6  11 1698.32 137.732   3
   6  -6 -11 1867.56 138.743   4
  -6   6  11 1737.31 140.061   8
  -6   6  11 2066.10 150.093   9
   6  -6 -10 1621.56 120.228  14
  -6   6  10 1497.44 134.891   8
  -6   6  10 1570.75 126.215   9
   6  -6 -10 1594.32 77.2042   5
  -6   6  10 1451.60 120.337   3
   6  -6 -10 1701.90 128.841   4
   6  -6  -9 726.451 92.2457   4
  -6   6   9 628.730 82.6926   3
  -6   6   9 708.447 87.5421   1
   6  -6  -9 679.176 81.3895  14
   6  -6  -9 640.911 54.7550   5
  -6   6   9 759.601 85.0500   9
  -6   6   9 646.162 97.7353   8
   6  -6  -8 3731.80 167.193  14
  -6   6   8 3562.38 184.446   1
   6  -6  -8 3516.86 142.244   5
  -6   6   8 3556.13 170.976   9
  -6   6   8 3351.27 199.704   8
  -6   6   8 3344.56 170.464   3
   6  -6  -8 3603.24 179.894   4
   6  -6  -7 175.919 54.4605   4
   6  -6  -7 144.465 44.4488   5
  -6   6   7 281.775 60.1746   3
  -6   6   7 147.066 59.0016   1
   6  -6  -7 180.250 49.5168  14
   6  -6  -7 150.249 27.2639  13
  -6   6   7 194.634 52.6267   9
  -6   6   7 169.027 70.0846   8
   6  -6  -6 6563.76 276.329   2
  -6   6   6 6571.09 275.898   1
   6  -6  -6 6969.90 233.616  14
   6  -6  -6 6365.78 191.126  13
   6  -6  -6 6488.19 237.726   5
   6  -6  -6 6315.99 222.353  12
  -6   6   6 6387.06 234.501   9
  -6   6   6 7169.68 308.566   8
   6  -6  -6 7055.20 231.430   9
   6  -6  -6 6920.43 254.735   4
   6  -6  -5 21253.0 632.070   2
  -6   6   5 20987.0 629.141   1
   6  -6  -5 21535.6 550.390  14
   6  -6  -5 19324.4 513.541  13
   6  -6  -5 19730.3 563.131   5
   6  -6  -5 20307.3 540.860  12
   6  -6  -5 22108.0 551.037   9
  -6   6   5 21599.7 633.086   8
   6  -6  -5 20608.5 543.962   7
   6  -6  -4 6270.08 219.986   3
   6  -6  -4 6761.89 291.405   2
  -6   6   4 6255.60 282.524   1
   6  -6  -4 6522.98 209.994  14
   6  -6  -4 6307.86 192.844  13
   6  -6  -4 5841.25 224.705   5
   6  -6  -4 5884.56 159.364  11
   6  -6  -4 5390.78 157.940  11
   6  -6  -4 6481.21 207.650  12
   6  -6  -4 6547.06 211.962   9
   6  -6  -4 5900.96 255.791   8
   6  -6  -4 6586.65 209.923   7
   6  -6  -3 2441.30 120.518   3
   6  -6  -3 2213.50 170.616   2
  -6   6   3 2216.85 170.386   1
   6  -6  -3 2198.47 106.464  14
   6  -6  -3 1992.69 99.5939  13
   6  -6  -3 2030.46 121.560   5
   6  -6  -3 2125.12 104.335  12
   6  -6  -3 2356.26 111.595   9
   6  -6  -3 2137.39 144.318   8
   6  -6  -3 2194.00 106.532   7
   6  -6  -2 14752.4 419.565   3
   6  -6  -2 14426.6 438.584   5
   6  -6  -2 14865.7 402.880  12
   6  -6  -2 14752.4 405.283  13
   6  -6  -2 14677.1 403.474  14
   6  -6  -2 15044.2 543.393   2
  -6   6   2 14405.7 537.220   1
   6  -6  -2 15443.0 409.873   9
   6  -6  -2 14758.3 469.194   8
   6  -6  -2 14489.1 400.310   7
   6  -6  -1 6839.56 252.517   5
   6  -6  -1 6842.24 233.725   3
   6  -6  -1 7112.21 337.017   2
  -6   6   1 7518.66 338.120   1
   6  -6  -1 6622.39 218.727  14
   6  -6  -1 6786.95 227.888  13
   6  -6  -1 6702.63 218.057  12
   6  -6  -1 6667.52 220.728   9
  -6   6   1 7106.45 224.842   7
   6  -6  -1 6724.47 217.052   7
   6  -6  -1 7000.79 278.792   8
   6  -6   0 2415.04 106.286   7
   6  -6   0 2664.44 155.891   8
  -6   6   0 2254.54 107.917   7
   6  -6   0 2317.46 118.491  13
   6  -6   0 2221.04 106.966  12
   6  -6   0 2047.40 67.5035   6
   6  -6   0 2036.71 66.0706   6
  -6   6   0 2381.88 113.450  12
   6  -6   0 2266.33 107.974   9
   6  -6   0 2351.12 133.710   5
   6  -6   0 2211.13 115.514   3
  -6   6  -1-8.86072 53.4326   1
   6  -6   1 84.5769 63.3551   2
   6  -6   1 9.54981 30.0227   7
   6  -6   1-6.90946 43.9231   8
   6  -6   1 75.8346 42.0749  13
  -6   6  -1 57.3785 36.9390   7
   6  -6   1 45.2951 35.7187  12
  -6   6  -1 63.5581 39.5281  12
   6  -6   1 68.0646 31.8073   9
   6  -6   1 71.4755 49.0018   5
   6  -6   2 821.140 68.2710  12
  -6   6  -2 823.137 69.2384  12
   6  -6   2 764.224 101.957   2
  -6   6  -2 1009.09 105.405   1
   6  -6   2 834.219 82.2308  13
   6  -6   2 828.237 63.2845   7
  -6   6  -2 790.543 66.6287   7
   6  -6   2 821.143 85.5308   8
   6  -6   3 5599.71 233.826  13
  -6   6  -3 5820.02 214.433  12
   6  -6   3 5989.57 266.527   2
  -6   6  -3 6088.74 262.691   1
   6  -6   3 6043.69 247.150   5
  -6   6  -3 5873.10 205.255   7
   6  -6   3 5929.44 227.260   8
   6  -6   3 5911.33 199.294   7
  -6   6  -4 7021.03 246.857  12
   6  -6   4 7240.56 292.839   2
  -6   6  -4 6887.89 283.570   1
   6  -6   4 6302.75 276.330   5
   6  -6   4 6863.05 244.093   8
   6  -6   4 7117.66 229.439   7
  -6   6  -4 7534.32 242.497   7
  -6   6  -5 1193.47 96.5288  12
  -6   6  -5 1025.49 102.479   1
   6  -6   5 1149.49 114.045   5
  -6   6  -5 1265.37 90.4569   7
  -6   6  -6 3714.86 175.137  12
  -6   6  -6 3544.43 162.350   7
   6  -6   6 3741.05 206.127  13
   6  -6   7 10426.1 393.246  13
  -6   6  -7 10467.5 344.518   7
  -6   6  -7 11333.4 368.180  12
   6  -6   8 1733.10 143.491  13
  -6   6  -8 1893.49 137.966  12
  -6   6  -8 1920.38 127.628   7
   6  -6   9 546.356 93.7130  13
  -6   6  -9 476.594 81.4342   7
  -6   6  -9 527.682 90.6629  12
   6  -6  10 986.348 117.986  13
  -6   6 -10 1123.62 116.498   7
  -6   6 -11 1454.40 144.065  12
   6  -5 -15 359.479 97.6404  14
  -6   5  14 1377.27 155.857   9
  -6   5  14 1328.42 149.052   3
   6  -5 -14 1343.78 135.525   4
   6  -5 -14 1600.39 143.178  14
  -6   5  13 4250.00 245.578   9
  -6   5  13 4237.10 238.381   3
   6  -5 -13 4864.56 238.064   4
   6  -5 -13 4358.35 228.048  14
  -6   5  12 2105.85 158.724   9
  -6   5  12 1671.31 143.631   3
   6  -5 -12 1881.11 144.278   4
   6  -5 -12 1863.19 146.329  14
  -6   5  11 210.664 66.5430   3
   6  -5 -11 314.481 74.1711  14
  -6   5  11 200.635 67.7981   9
   6  -5 -11 205.903 37.8948   5
   6  -5 -11 293.375 71.2626   4
   6  -5 -10 3480.84 136.400   5
   6  -5 -10 3393.50 175.631  14
  -6   5  10 3430.57 183.773   9
  -6   5  10 3688.34 186.184   3
   6  -5 -10 3609.22 186.391   4
   6  -5  -9 5915.23 241.296   2
   6  -5  -9 5367.78 194.570   5
  -6   5   9 5932.82 237.866   9
   6  -5  -9 6095.98 248.494   4
   6  -5  -9 5684.10 221.882  14
   6  -5  -8 271.127 66.0503   2
   6  -5  -8 263.568 52.0027  14
  -6   5   8 318.537 48.6471  14
  -6   5   8 261.086 61.4363   9
   6  -5  -8 160.599 57.5324   4
   6  -5  -8 287.558 53.7428   5
   6  -5  -7 174.092 61.1283   2
  -6   5   7 122.662 54.0602   1
   6  -5  -7 184.420 43.5622  14
   6  -5  -7 157.392 21.2716  13
   6  -5  -7 140.359 42.0122  12
  -6   5   7 232.549 50.9496   9
   6  -5  -7 260.559 55.9443   4
   6  -5  -7 211.357 48.2225   5
   6  -5  -6 1522.05 106.093   4
   6  -5  -6 1358.06 114.780   1
  -6   5   6 1537.31 125.640   1
   6  -5  -6 1494.19 123.154   2
   6  -5  -6 1462.50 87.1543  14
   6  -5  -6 1239.39 59.3991  13
   6  -5  -6 1283.13 90.5703   5
   6  -5  -6 1379.35 83.5634  12
  -6   5   6 1381.12 94.1488   9
   6  -5  -6 1385.16 88.8616   9
   6  -5  -6 1391.80 88.0977   7
   6  -5  -5 10237.7 307.179   3
   6  -5  -5 9503.16 347.764   1
  -6   5   5 9853.64 362.644   1
   6  -5  -5 10256.5 367.200   2
   6  -5  -5 10014.8 285.175  14
   6  -5  -5 9849.90 261.300  13
   6  -5  -5 9426.72 302.129   5
   6  -5  -5 8970.63 229.464  11
   6  -5  -5 9940.62 283.769  12
   6  -5  -5 10027.5 293.957   9
   6  -5  -5 9608.58 284.240   7
   6  -5  -5 9485.40 336.683   8
   6  -5  -4 14330.0 397.208   3
   6  -5  -4 13246.1 451.991   1
   6  -5  -4 14083.1 477.215   2
  -6   5   4 14248.7 479.722   1
   6  -5  -4 13285.3 373.050  14
   6  -5  -4 13247.7 357.023  13
   6  -5  -4 13128.3 395.902   5
   6  -5  -4 13622.8 371.373  12
   6  -5  -4 13713.0 336.172  11
   6  -5  -4 13972.4 385.247   9
   6  -5  -4 13358.1 372.053   7
   6  -5  -4 13657.6 432.047   8
   6  -5  -3 1906.88 106.140   3
   6  -5  -3 2179.27 167.975   2
  -6   5   3 1716.38 154.610   1
   6  -5  -3 1872.88 90.9501  14
   6  -5  -3 2026.00 92.5613  13
   6  -5  -3 1901.51 112.416   5
   6  -5  -3 1834.89 93.2747  12
   6  -5  -3 2038.71 102.472   9
   6  -5  -3 1775.92 124.519   8
   6  -5  -3 2125.61 98.0623   7
   6  -5  -2 6934.42 299.063   1
   6  -5  -2 7378.71 337.402   2
  -6   5   2 6855.23 328.652   1
   6  -5  -2 6211.29 212.675  13
   6  -5  -2 7137.07 215.105  12
   6  -5  -2 6531.64 207.644  14
   6  -5  -2 6583.72 238.648   5
   6  -5  -2 6808.72 221.458   9
   6  -5  -2 6983.41 264.334   8
   6  -5  -2 6663.20 209.347   7
   6  -5  -1 45135.4 1177.05   1
   6  -5  -1 42731.1 1206.98   2
  -6   5   1 43173.4 1200.96   1
   6  -5  -1 43235.1 1066.16  13
   6  -5  -1 42948.9 1046.83  14
   6  -5  -1 45445.5 1054.00  12
   6  -5  -1 43177.9 1019.57   6
   6  -5  -1 43865.0 1093.42   5
   6  -5  -1 44153.7 1063.36   9
  -6   5   1 42902.6 1051.64   7
   6  -5  -1 45252.6 1122.90   8
   6  -5  -1 45033.4 1049.35   7
   6  -5   0 17513.3 533.307   1
   6  -5   0 17030.5 459.927  13
   6  -5   0 17693.4 439.621  12
   6  -5   0 15814.2 471.694   5
  -6   5   0 16929.4 444.250  12
   6  -5   0 16630.4 447.994   9
   6  -5   0 17909.4 433.231   7
   6  -5   0 17350.2 498.987   8
  -6   5   0 17565.2 438.034   7
   6  -5   1 1098.74 85.4231  13
   6  -5   1 1063.53 71.9253  12
   6  -5   1 1096.78 109.833   1
  -6   5  -1 1225.09 118.537   1
   6  -5   1 1219.11 118.927   2
  -6   5  -1 1136.19 76.9460  12
   6  -5   1 1081.84 81.1351   3
   6  -5   1 1091.04 68.5485   7
   6  -5   1 1161.77 97.1690   8
  -6   5  -1 1144.18 72.8221   7
   6  -5   2 3007.10 151.488  13
   6  -5   2 2956.05 125.962  12
   6  -5   2 3273.59 174.304   1
  -6   5  -2 2860.71 171.297   1
   6  -5   2 3186.30 185.022   2
  -6   5  -2 2724.68 127.808  12
   6  -5   2 2873.88 118.775   7
  -6   5  -2 2922.85 124.174   7
   6  -5   2 3170.63 157.359   8
   6  -5   2 3217.35 159.691   5
   6  -5   3 2829.61 154.702   5
   6  -5   3 2773.11 153.053  13
   6  -5   3 3046.23 130.806  12
  -6   5  -3 2820.48 130.960  12
   6  -5   3 2665.94 158.488   1
  -6   5  -3 2837.44 165.035   1
   6  -5   3 2458.96 158.560   2
   6  -5   3 2651.93 146.405  10
  -6   5  -3 2838.30 121.484   7
   6  -5   3 2922.08 143.357   8
   6  -5   3 2864.40 118.395   7
   6  -5   4 4590.69 179.543   8
   6  -5   4 4435.43 161.990   7
  -6   5  -4 4705.24 171.664   7
  -6   5  -4 4597.62 182.392  12
   6  -5   4 4415.58 214.438   2
   6  -5   4 4497.10 196.059  10
   6  -5   4 4333.70 205.294   5
  -6   5  -5 4321.87 167.054   7
  -6   5  -5 3721.97 169.956  12
   6  -5   5 3910.13 199.852   5
   6  -5   5 4040.38 197.750   2
   6  -5   6 31.5501 55.4970  13
  -6   5  -6 48.6277 42.3959   7
  -6   5  -6 77.1977 49.2665  12
   6  -5   6 80.1257 62.1231   5
   6  -5   6 52.3758 47.9125   2
  -6   5  -7 5630.84 229.941  12
   6  -5   7 5230.67 225.391   2
  -6   5  -7 5447.95 210.194   7
   6  -5   7 4887.66 240.896  13
   6  -5   8 7067.06 297.256  13
  -6   5  -8 7173.25 266.969   7
   6  -5   9 336.976 77.3761  13
  -6   5  -9 154.499 62.6803   7
  -6   5  -9 363.185 87.7002  12
   6  -5  10 1264.18 124.005  13
  -6   5 -10 1298.35 134.433  12
   6  -5  11 2954.66 189.240  13
  -6   5 -11 3124.94 205.407  12
   6  -4 -15 7.81941 70.7188  14
   6  -4 -14 98.4979 66.0119  14
   6  -4 -14 248.116 90.5326   4
  -6   4  14 114.847 82.6710   3
   6  -4 -13 1846.61 139.356  14
  -6   4  13 1702.88 151.955   3
   6  -4 -13 1758.07 148.069   4
   6  -4 -12 4948.32 230.477  14
  -6   4  12 5156.80 246.661   3
   6  -4 -12 4950.83 239.357   4
   6  -4 -11 943.072 102.723  14
   6  -4 -11 929.580 101.454   4
   6  -4 -11 758.613 66.1363   5
   6  -4 -10 2612.86 144.162  14
   6  -4 -10 2458.04 151.490   4
   6  -4 -10 2379.12 119.074   5
   6  -4  -9 12278.4 375.664  14
  -6   4   9 12134.7 353.454  14
   6  -4  -9 12594.4 398.873   1
   6  -4  -9 12587.3 399.659   2
   6  -4  -9 12714.0 405.938   4
   6  -4  -9 11518.0 358.632   5
   6  -4  -8 6563.50 227.543  14
  -6   4   8 6604.82 215.485  14
   6  -4  -8 6146.22 225.296   5
   6  -4  -8 7107.85 269.983   1
   6  -4  -8 6586.40 263.757   2
   6  -4  -8 6952.53 263.558   4
  -6   4   8 6657.78 249.776   3
   6  -4  -7 441.685 66.7070   4
   6  -4  -7 367.810 53.4043   5
  -6   4   7 564.822 66.7686   3
   6  -4  -7 632.256 79.7872   2
   6  -4  -7 438.836 74.7365   1
   6  -4  -7 410.121 51.2605  14
   6  -4  -7 501.339 26.4034  13
   6  -4  -7 494.612 53.5039  12
  -6   4   7 464.559 65.9656   9
   6  -4  -7 566.094 59.5626   7
   6  -4  -6 4674.19 182.237   3
  -6   4   6 4987.59 188.818   3
   6  -4  -6 5106.26 201.736   4
   6  -4  -6 4758.55 216.144   1
   6  -4  -6 4961.47 224.418   2
   6  -4  -6 4591.15 162.329  14
   6  -4  -6 4534.17 132.188  13
   6  -4  -6 4318.59 176.051   5
   6  -4  -6 4364.44 115.218  11
   6  -4  -6 4564.11 160.977  12
   6  -4  -6 4624.04 174.318   9
  -6   4   6 4518.46 183.811   9
   6  -4  -6 4478.66 165.817   7
   6  -4  -5 1355.51 98.9759   4
   6  -4  -5 1237.55 87.3263   3
   6  -4  -5 1400.27 124.337   2
   6  -4  -5 1356.61 116.050   1
   6  -4  -5 1354.51 73.9137  14
   6  -4  -5 1314.29 61.7275  13
   6  -4  -5 1361.13 90.0120   5
   6  -4  -5 1257.46 51.4186  11
   6  -4  -5 1351.23 75.4001  12
   6  -4  -5 1513.74 89.8907   9
   6  -4  -5 1384.40 78.9162   7
   6  -4  -5 1150.43 95.9671   8
   6  -4  -4 3400.72 165.651   4
   6  -4  -4 4238.03 225.074   2
   6  -4  -4 3870.99 202.534   1
   6  -4  -4 4123.96 141.038  14
   6  -4  -4 4041.67 136.221  13
   6  -4  -4 3973.28 124.433  11
   6  -4  -4 4343.27 145.873  12
   6  -4  -4 4000.44 144.515   7
   6  -4  -4 4329.80 190.541   8
   6  -4  -4 4164.32 158.956   9
   6  -4  -4 3822.22 162.039   5
   6  -4  -3 7085.49 314.504   2
   6  -4  -3 6632.99 204.924  13
   6  -4  -3 6649.72 198.210  14
   6  -4  -3 6267.41 228.807   5
   6  -4  -3 6774.50 205.403  12
   6  -4  -3 6354.99 190.797  11
   6  -4  -3 7142.00 224.414   9
   6  -4  -3 6694.18 251.343   8
   6  -4  -3 6843.16 205.478   7
   6  -4  -2 58.2781 36.6255   5
   6  -4  -2 11.6708 55.0270   2
   6  -4  -2 77.9127 55.0376   1
   6  -4  -2 51.6806 25.3551  14
   6  -4  -2 96.1826 33.5120  13
   6  -4  -2 104.534 25.4676   6
   6  -4  -2 34.9624 29.6397  12
   6  -4  -2 51.2908 35.5323   9
   6  -4  -2 48.4110 27.9674   7
   6  -4  -2 87.5998 41.5619   8
   6  -4  -1 20548.9 537.276   3
   6  -4  -1 19950.9 617.335   1
   6  -4  -1 20810.6 506.990  14
   6  -4  -1 20665.4 535.156  13
   6  -4  -1 20947.9 514.312  12
   6  -4  -1 18324.9 542.783   5
   6  -4  -1 19175.1 491.126   6
   6  -4  -1 20139.3 531.673   9
   6  -4  -1 20980.9 570.463   8
  -6   4   1 19858.0 511.178   7
   6  -4  -1 21052.8 510.057   7
   6  -4   0 17829.3 476.052   3
   6  -4   0 17254.3 564.131   2
   6  -4   0 17577.0 541.301   1
   6  -4   0 17296.8 481.105  13
   6  -4   0 18093.3 452.510  12
   6  -4   0 16685.9 419.083   6
  -6   4   0 16764.0 457.060  12
   6  -4   0 17672.9 470.169   9
   6  -4   0 17544.3 505.065   8
   6  -4   0 17804.6 444.495   7
  -6   4   0 17613.7 449.400   7
   6  -4   1 3360.39 144.299   3
   6  -4   1 3466.61 195.163   2
   6  -4   1 3243.54 178.308   1
   6  -4   1 3178.84 152.445  13
   6  -4   1 3334.04 130.156  12
   6  -4   1 3304.27 93.9194   6
   6  -4   1 3578.05 159.939   5
  -6   4  -1 3235.52 132.171  12
   6  -4   1 3547.12 168.586   8
   6  -4   1 3276.81 121.616   7
  -6   4  -1 3368.85 125.572   7
   6  -4   2 5033.42 232.092   2
   6  -4   2 4613.51 213.554   1
   6  -4   2 4555.56 201.164  13
   6  -4   2 4740.01 167.392  12
   6  -4   2 5076.29 202.653   5
  -6   4  -2 4509.75 171.184  12
   6  -4   2 5004.45 205.936   8
   6  -4   2 4895.45 204.052  10
  -6   4  -2 4843.69 163.243   7
   6  -4   2 4846.88 159.113   7
   6  -4   3 12972.0 396.643   5
   6  -4   3 12053.3 404.631  13
   6  -4   3 13124.2 359.264  12
   6  -4   3 12163.4 400.825   1
   6  -4   3 12285.5 418.467   2
  -6   4  -3 12422.0 363.104  12
   6  -4   3 12713.3 382.140   8
   6  -4   3 12580.5 395.763  10
  -6   4  -3 12961.4 348.618   7
   6  -4   3 12611.0 341.845   7
   6  -4   4 4900.40 211.154   5
   6  -4   4 4840.48 186.067  14
   6  -4   4 4751.16 179.483  12
   6  -4   4 4776.97 210.206   1
   6  -4   4 4896.31 222.197   2
  -6   4  -4 4629.14 184.748  12
   6  -4   4 4666.52 184.441   8
   6  -4   4 4770.70 205.484  10
  -6   4  -4 5108.17 175.039   7
   6  -4   5 630.936 70.2081  14
  -6   4  -5 584.376 66.3964  12
   6  -4   5 560.105 82.3999   2
   6  -4   5 483.573 71.0899   1
   6  -4   5 571.359 79.8684   5
  -6   4  -5 622.662 60.4029   7
   6  -4   6-7.34515 48.4037  13
   6  -4   6 31.4341 50.5432   2
  -6   4  -6 118.019 54.4462  12
   6  -4   6-20.2262 51.5998   5
  -6   4  -6 20.0337 39.0403   7
   6  -4   7 1906.70 139.272  13
   6  -4   7 1906.93 125.907   2
   6  -4   7 1764.66 136.401   5
  -6   4  -7 1731.25 123.293  12
  -6   4  -7 1755.43 108.516   7
  -6   4  -8 2798.97 163.232  12
  -6   4  -8 2704.80 143.579   7
   6  -4   8 2531.95 164.290  13
   6  -4   9 2403.49 162.179  13
  -6   4  -9 2481.06 167.311  12
  -6   4 -10 52.0129 71.3281  12
   6  -4  10 116.482 75.2764  13
  -6   4 -11 2156.08 175.812  12
  -6   3  15-11.8719 91.6356   9
  -6   3  15 11.7076 90.3672   3
  -6   3  14 784.542 119.229   3
   6  -3 -14 956.537 105.656  14
   6  -3 -14 931.329 124.060   4
  -6   3  14 899.075 123.258   9
   6  -3 -13 1250.93 110.059  14
   6  -3 -13 1100.85 125.541   4
  -6   3  13 1021.72 119.367   9
   6  -3 -12 1187.34 105.754  14
  -6   3  12 1160.92 116.473   9
   6  -3 -12 1064.33 117.981   4
   6  -3 -11 3274.92 166.267   1
   6  -3 -11 3330.75 169.408  14
  -6   3  11 3532.05 185.367   9
   6  -3 -11 3626.96 193.189   4
  -6   3  11 3068.55 177.400   3
  -6   3  10 190.733 58.8348   3
   6  -3 -10 124.936 52.2215   2
   6  -3 -10 138.397 55.3752   1
   6  -3 -10 108.617 52.4385  14
  -6   3  10 168.502 60.4836   9
   6  -3 -10 164.212 58.8174   4
  -6   3   9 9274.38 314.948   3
   6  -3  -9 9491.79 329.519   4
   6  -3  -9 8779.65 292.688  14
  -6   3   9 8618.90 267.963  14
   6  -3  -9 8812.43 315.744   2
   6  -3  -9 8856.45 313.273   1
   6  -3  -8 15685.0 445.934  14
  -6   3   8 15960.7 424.671  14
   6  -3  -8 15886.2 486.762   1
   6  -3  -8 17158.0 500.093   2
   6  -3  -8 16274.9 449.040   7
   6  -3  -8 16399.7 490.235   4
  -6   3   8 16068.5 473.020   3
  -6   3   7 3731.18 160.485   3
   6  -3  -7 3980.26 179.203   4
   6  -3  -7 3688.80 138.478  14
   6  -3  -7 3434.61 174.742   1
   6  -3  -7 3979.45 191.965   2
   6  -3  -7 3511.13 92.9873  11
   6  -3  -7 3658.31 135.575  12
   6  -3  -7 4030.10 154.434   9
   6  -3  -7 3902.99 175.870   8
   6  -3  -7 3659.19 142.882   7
  -6   3   6 1643.00 99.6733   3
   6  -3  -6 1583.48 108.565   4
   6  -3  -6 1488.00 77.6134  14
   6  -3  -6 1488.01 57.4222  13
   6  -3  -6 1699.92 122.623   1
   6  -3  -6 1726.51 128.184   2
   6  -3  -6 1529.94 79.3043  12
   6  -3  -6 1478.70 57.7796  11
   6  -3  -6 1555.16 93.5024   9
   6  -3  -6 1473.22 82.1681   7
  -6   3   5 12565.7 377.266   3
   6  -3  -5 11561.7 388.813   4
   6  -3  -5 13383.5 431.427   1
   6  -3  -5 14100.6 455.665   2
   6  -3  -5 13102.9 342.637  14
   6  -3  -5 12799.5 330.600  13
   6  -3  -5 12674.7 327.331  11
   6  -3  -5 13390.3 348.636  12
   6  -3  -5 14357.3 379.811   9
   6  -3  -5 13248.1 403.994   8
   6  -3  -5 13442.1 353.621   7
   6  -3  -4 3866.77 155.939   3
   6  -3  -4 3915.99 218.038   2
   6  -3  -4 3541.53 126.934  13
   6  -3  -4 3728.36 124.954  14
   6  -3  -4 3680.71 156.793   5
   6  -3  -4 3951.83 132.993  12
   6  -3  -4 3798.53 123.995  11
   6  -3  -4 3703.84 171.616   8
   6  -3  -4 3931.07 152.618   9
   6  -3  -4 3928.46 134.323   7
   6  -3  -3 263.143 50.9529   4
   6  -3  -3 303.125 49.8313   5
   6  -3  -3 413.531 80.1327   2
   6  -3  -3 373.611 48.8931   3
   6  -3  -3 408.648 76.3129   1
   6  -3  -3 262.706 30.4943  14
   6  -3  -3 342.362 41.5664  13
   6  -3  -3 399.939 39.5860  12
   6  -3  -3 283.530 38.4650   6
   6  -3  -3 306.413 35.5179  11
   6  -3  -3 365.372 47.2142   9
   6  -3  -3 383.554 57.7589   8
   6  -3  -3 343.650 37.7118   7
   6  -3  -2 331.400 80.1588   2
   6  -3  -2 213.902 43.0373   3
   6  -3  -2 173.373 62.3515   1
   6  -3  -2 166.385 25.3435  14
   6  -3  -2 147.146 32.3337  13
   6  -3  -2 155.224 29.6913   6
   6  -3  -2 278.958 35.0352  12
   6  -3  -2 181.176 37.5779   9
   6  -3  -2 179.012 31.5933  11
   6  -3  -2 144.930 46.1303   8
   6  -3  -2 227.343 31.9601   7
   6  -3  -1 585.518 58.7274   3
   6  -3  -1 673.684 87.0543   1
   6  -3  -1 687.723 62.5430  13
   6  -3  -1 662.142 43.2974  14
   6  -3  -1 757.308 51.3086  12
   6  -3  -1 570.137 42.6318   6
   6  -3  -1 618.859 57.9857   9
   6  -3  -1 705.071 72.6628   8
   6  -3  -1 572.691 70.0531  10
   6  -3  -1 608.116 44.8705   7
   6  -3   0 8618.46 266.943   3
   6  -3   0 9217.84 329.177   1
   6  -3   0 8364.49 338.136   2
   6  -3   0 8184.85 278.528  13
   6  -3   0 8918.75 246.223  12
   6  -3   0 8495.37 281.864   5
   6  -3   0 7978.56 225.627   6
  -6   3   0 8643.52 248.491  12
   6  -3   0 8625.97 290.894   8
   6  -3   0 8554.48 235.510   7
   6  -3   1 14459.4 400.940   3
   6  -3   1 13606.4 447.188   1
   6  -3   1 13625.6 467.407   2
   6  -3   1 13485.8 424.809  13
   6  -3   1 14922.9 381.315  12
   6  -3   1 14212.8 351.421   6
   6  -3   1 13923.3 419.712   5
  -6   3  -1 13651.4 379.971  12
   6  -3   1 14911.2 433.410   8
   6  -3   1 14094.3 432.926  10
   6  -3   1 14823.7 367.556   7
   6  -3   2 1202.16 106.252   1
   6  -3   2 1111.16 107.574   2
   6  -3   2 1104.70 98.2320  13
   6  -3   2 1236.20 75.0456  12
   6  -3   2 1161.73 48.7350   6
   6  -3   2 1306.57 94.2650   5
  -6   3  -2 1166.31 73.4637  12
   6  -3   2 1372.35 103.225   8
   6  -3   2 1315.22 103.333  10
   6  -3   2 1135.37 62.7758   7
   6  -3   3 10374.9 311.571  14
   6  -3   3 9549.61 358.523  13
   6  -3   3 10440.3 303.524  12
   6  -3   3 10555.0 337.057   5
  -6   3  -3 10138.8 304.017  12
   6  -3   3 10531.6 333.821   8
   6  -3   3 10414.1 346.081  10
   6  -3   3 9821.90 344.615   1
   6  -3   3 10901.1 367.926   2
   6  -3   4 14355.4 445.294   5
   6  -3   4 14999.7 418.671  12
  -6   3  -4 15275.8 420.419  12
   6  -3   4 14853.4 430.710  14
   6  -3   4 14362.5 463.187   2
   6  -3   4 14747.8 449.298   1
   6  -3   4 15084.7 429.234   8
   6  -3   4 15242.5 456.034  10
  -6   3  -4 14745.2 395.027   7
   6  -3   5 1707.14 115.647  14
  -6   3  -5 1729.22 106.560  12
   6  -3   5 1791.77 125.932   2
   6  -3   5 1802.61 119.385   1
   6  -3   5 1895.05 127.646   5
  -6   3  -5 1707.68 91.6034   7
   6  -3   6 284.419 69.5506  13
   6  -3   6 277.240 65.8101   2
  -6   3  -6 373.999 62.9357  12
   6  -3   6 304.692 69.8581   5
  -6   3  -6 207.760 45.6661   7
   6  -3   7 759.412 98.9116  13
  -6   3  -7 677.283 84.1365  12
   6  -3   7 626.432 79.3976   2
   6  -3   7 709.105 90.3133   5
  -6   3  -7 619.333 68.8584   7
   6  -3   8 595.242 94.3603   5
  -6   3  -8 492.068 81.1699  12
   6  -3   8 443.733 82.1862  13
  -6   3  -9 1862.12 144.273  12
   6  -3   9 1721.39 136.666  13
  -6   3 -10 814.499 112.272  12
   6  -3  10 716.986 98.6642  13
  -6   3 -11 49.4991 86.1611  12
   6  -2 -16 2610.30 166.001  12
  -6   2  15 602.269 113.846   9
  -6   2  14 470.650 100.677   9
  -6   2  13 4057.21 223.234   9
   6  -2 -13 4289.94 235.353   4
  -6   2  13 3806.24 221.561   3
  -6   2  12 2557.27 164.556   9
   6  -2 -12 2857.27 180.531   4
  -6   2  12 2488.10 165.741   3
   6  -2 -12 2740.89 148.391  14
   6  -2 -11 645.500 80.5541   1
  -6   2  11 717.813 86.4705   9
  -6   2  11 704.408 88.2074   3
   6  -2 -11 742.568 97.6988   4
   6  -2 -11 562.317 70.5826  14
   6  -2 -10 34.5147 48.0561   1
  -6   2  10 64.5317 44.0241   3
   6  -2 -10 108.606 54.6030   2
  -6   2  10 125.892 51.8118   9
   6  -2 -10 118.111 57.9691   4
   6  -2 -10 91.3404 44.8417  14
   6  -2  -9 867.788 90.1290   2
   6  -2  -9 663.214 83.9343   1
  -6   2   9 823.317 60.3857  14
   6  -2  -9 763.665 72.8022  14
  -6   2   9 609.091 76.4100   9
   6  -2  -9 946.493 93.6966  10
   6  -2  -9 777.890 90.2572   4
  -6   2   9 809.148 81.8696   3
  -6   2   8 8538.16 293.989   3
   6  -2  -8 8799.71 315.713   4
  -6   2   8 8595.81 247.356  14
   6  -2  -8 9006.19 279.862  14
   6  -2  -8 9166.81 323.954   2
   6  -2  -8 8462.72 311.316   1
   6  -2  -8 8451.66 223.370  11
  -6   2   8 9344.29 302.185   9
   6  -2  -8 8585.85 271.829   7
   6  -2  -7 15194.5 398.068   3
   6  -2  -7 15336.6 429.609   4
  -6   2   7 14700.8 398.070   3
   6  -2  -7 14703.8 368.978  14
   6  -2  -7 11674.4 299.458  13
   6  -2  -7 12255.8 299.962  13
   6  -2  -7 14231.9 327.849  11
   6  -2  -7 15201.9 357.474  12
   6  -2  -7 15724.7 374.796   7
   6  -2  -7 15337.7 389.224   9
  -6   2   7 15585.9 406.262   9
   6  -2  -7 17604.1 474.759  10
   6  -2  -7 15327.5 419.121   8
   6  -2  -7 15600.1 450.731   2
   6  -2  -7 15080.3 438.089   1
   6  -2  -6 1731.34 100.432   3
  -6   2   6 1509.94 96.1103   3
   6  -2  -6 1584.10 113.206   4
   6  -2  -6 1698.65 80.0748  14
   6  -2  -6 1545.21 60.3013  13
   6  -2  -6 1850.11 136.261   2
   6  -2  -6 1686.43 123.558   1
   6  -2  -6 1755.72 79.0043  12
   6  -2  -6 1586.63 68.0980  11
   6  -2  -6 1802.85 129.085  10
   6  -2  -6 1710.80 97.5792   9
   6  -2  -6 1676.56 84.5797   7
   6  -2  -5 11452.1 339.234   3
  -6   2   5 11205.3 338.305   3
   6  -2  -5 11394.7 297.179  14
   6  -2  -5 11171.7 296.259  13
   6  -2  -5 11728.8 336.362   6
   6  -2  -5 11402.0 408.501   2
   6  -2  -5 11501.8 390.245   1
   6  -2  -5 11069.8 298.337  11
   6  -2  -5 11497.2 303.923  12
   6  -2  -5 12098.0 389.336  10
   6  -2  -5 11671.6 361.646   8
   6  -2  -5 12144.2 340.224   9
   6  -2  -5 11326.8 308.606   7
   6  -2  -4 21948.5 627.527   4
   6  -2  -4 24294.6 609.461   3
   6  -2  -4 25041.9 721.107   2
   6  -2  -4 23652.3 579.976  13
   6  -2  -4 23165.1 555.529  14
   6  -2  -4 22869.8 596.085   6
   6  -2  -4 23172.3 568.520  12
   6  -2  -4 23534.9 575.581  11
   6  -2  -4 23425.9 633.547   8
   6  -2  -4 23395.7 604.984   9
   6  -2  -4 24269.2 660.108  10
   6  -2  -4 22814.9 569.641   7
   6  -2  -3 5074.83 180.258   3
   6  -2  -3 4605.96 190.772   4
   6  -2  -3 5082.96 239.236   1
   6  -2  -3 5331.60 272.282   2
   6  -2  -3 4538.97 135.234  14
   6  -2  -3 4722.18 168.434  13
   6  -2  -3 4935.97 151.688  12
   6  -2  -3 5146.92 169.502   6
   6  -2  -3 4880.20 162.422  11
   6  -2  -3 5042.15 180.638   9
   6  -2  -3 4969.16 213.112  10
   6  -2  -3 5095.40 200.996   8
   6  -2  -3 5122.70 152.912   7
   6  -2  -2 1573.38 89.4009   3
   6  -2  -2 1452.24 96.5865   4
   6  -2  -2 1554.42 129.051   1
   6  -2  -2 1665.66 145.247   2
   6  -2  -2 1469.92 57.4053  14
   6  -2  -2 1397.37 69.0249  12
   6  -2  -2 1544.01 77.1427   6
   6  -2  -2 1465.05 78.7806  11
   6  -2  -2 1463.79 89.1471   9
   6  -2  -2 1745.17 114.088  10
   6  -2  -2 1590.63 103.483   8
   6  -2  -2 1588.22 68.1439   7
   6  -2  -1 2491.58 115.524   3
   6  -2  -1 2539.87 127.780   4
   6  -2  -1 2556.15 157.499   1
   6  -2  -1 2380.31 82.6806  14
   6  -2  -1 2545.44 95.4315  12
   6  -2  -1 2416.62 123.861   5
   6  -2  -1 2237.41 95.0962   6
   6  -2  -1 2431.68 111.049  11
   6  -2  -1 2502.95 117.945   9
   6  -2  -1 2568.50 133.252   8
   6  -2  -1 2537.10 142.079  10
   6  -2  -1 2457.59 87.6682   7
   6  -2   0 2117.63 104.954   3
   6  -2   0 2224.34 153.494   2
   6  -2   0 2097.19 139.651   1
   6  -2   0 2193.89 88.6552  14
   6  -2   0 2186.55 90.1593  12
   6  -2   0 1862.10 111.764   5
   6  -2   0 2084.08 85.4740   6
   6  -2   0 1987.64 104.694  11
   6  -2   0 2165.11 123.768   8
   6  -2   0 2039.32 78.0372   7
   6  -2   1 6677.24 223.274   3
   6  -2   1 6947.01 288.109   2
   6  -2   1 7369.81 278.551   1
   6  -2   1 6887.71 213.856  14
   6  -2   1 7146.27 212.368  12
   6  -2   1 6923.24 196.688   6
   6  -2   1 7077.70 246.236   5
  -6   2  -1 6778.93 208.661  12
   6  -2   1 7328.04 256.605   8
   6  -2   1 6879.65 264.559  10
   6  -2   1 6927.36 192.043   7
  -6   2  -1 6931.54 193.876   7
   6  -2   2 5635.35 194.620   3
   6  -2   2 5868.07 249.797   2
   6  -2   2 5284.45 226.323   1
   6  -2   2 5369.61 191.664  14
   6  -2   2 5646.33 185.263  12
   6  -2   2 5603.09 213.289   5
   6  -2   2 5309.11 159.484   6
  -6   2  -2 5479.77 182.249  12
   6  -2   2 5811.32 222.260   8
   6  -2   2 5614.73 230.227  10
  -6   2  -2 5356.30 161.863   7
   6  -2   3 358.615 59.9396   5
   6  -2   3 291.464 68.7888   2
   6  -2   3 378.230 69.4596   1
   6  -2   3 428.588 58.9503  14
  -6   2  -3 417.671 51.3922  12
   6  -2   3 310.421 31.3300   6
   6  -2   3 354.738 51.6564  12
   6  -2   3 277.580 68.0859  10
  -6   2  -3 388.609 37.3936   7
   6  -2   3 366.747 59.7690   8
  -6   2  -4 8744.72 276.144  12
   6  -2   4 9157.05 326.973   2
   6  -2   4 8578.40 304.551   1
   6  -2   4 8955.13 302.695   5
   6  -2   4 9053.85 294.785   8
   6  -2   4 8716.42 292.304  14
   6  -2   5 12106.0 377.948  14
   6  -2   5 12373.6 400.719   2
   6  -2   5 12193.0 383.211   1
  -6   2  -5 12119.0 365.775  12
   6  -2   5 12634.6 390.839   5
  -6   2  -5 12084.2 331.872   7
   6  -2   6 796.951 85.1972  14
   6  -2   6 820.686 88.9445   2
   6  -2   6 813.606 94.2200   5
  -6   2  -6 810.566 82.5537  12
  -6   2  -6 700.805 61.0745   7
   6  -2   7 1191.56 108.877   5
  -6   2  -7 1206.78 102.946  12
   6  -2   8 2181.31 152.764  13
   6  -2   8 2208.37 155.741   5
  -6   2  -8 2318.68 148.645  12
   6  -2   9 1568.86 132.227  13
  -6   2  -9 1496.05 131.952  12
  -6   2 -10 418.134 96.3277  12
   6  -2  10 418.618 88.1676  13
  -6   2 -11-9.38845 82.2468  12
   6  -1 -16 1782.49 133.636  12
  -6   1  15 2856.73 205.400   9
   6  -1 -15 2625.43 154.576  12
  -6   1  15 2578.15 204.232   3
  -6   1  14 190.428 85.8059   3
  -6   1  14 172.585 78.9693   9
   6  -1 -13 2732.64 193.362   4
  -6   1  13 2684.42 182.727   3
  -6   1  13 2470.79 171.243   9
   6  -1 -12 6719.45 298.899   4
  -6   1  12 6464.48 279.830   3
  -6   1  12 6244.22 269.711   9
   6  -1 -11 3114.41 188.785   4
  -6   1  11 3039.06 171.713   3
   6  -1 -11 2882.08 155.154   1
  -6   1  11 3174.46 171.387   9
   6  -1 -10 1692.68 133.173   4
  -6   1  10 1478.48 113.012   3
  -6   1  10 1905.49 124.165   9
   6  -1 -10 1775.07 123.166   1
   6  -1  -9 3208.89 172.614   2
   6  -1  -9 3173.78 167.683   1
   6  -1  -9 3294.77 107.898  11
   6  -1  -9 3002.68 136.891  14
  -6   1   9 2920.17 155.973   9
   6  -1  -9 3369.33 166.993  10
   6  -1  -9 3269.81 179.448   4
  -6   1   9 3545.27 166.579   3
   6  -1  -8 1873.53 128.847   1
   6  -1  -8 1918.17 134.094   2
  -6   1   8 1883.94 79.2508  14
   6  -1  -8 1815.89 96.7324  14
   6  -1  -8 1859.74 76.2913  11
  -6   1   8 1797.03 114.211   9
   6  -1  -8 1935.68 120.964   8
   6  -1  -8 2288.04 141.613  10
   6  -1  -8 1825.82 128.989   4
  -6   1   8 1951.92 117.179   3
  -6   1   7 8375.27 271.735   3
   6  -1  -7 8298.75 268.336   3
   6  -1  -7 8486.79 301.830   1
   6  -1  -7 8513.45 316.819   2
   6  -1  -7 7969.68 238.093  14
   6  -1  -7 7579.58 194.632  13
   6  -1  -7 7611.27 194.694  13
   6  -1  -7 8155.95 274.108   6
   6  -1  -7 8097.97 221.904  11
   6  -1  -7 8521.29 227.969  12
   6  -1  -7 8432.19 283.655   8
   6  -1  -7 9497.77 331.931  10
   6  -1  -7 8080.17 242.033   7
   6  -1  -6 6722.82 231.584   3
  -6   1   6 6937.15 234.452   3
   6  -1  -6 6612.81 184.904  13
   6  -1  -6 6438.43 198.001  14
   6  -1  -6 6778.75 233.693   6
   6  -1  -6 6915.56 273.638   1
   6  -1  -6 7443.51 294.047   2
   6  -1  -6 6671.30 191.693  12
   6  -1  -6 6843.99 197.835  11
   6  -1  -6 7763.67 288.369  10
   6  -1  -6 6410.73 225.286   9
   6  -1  -6 6992.98 206.832   7
   6  -1  -5 757.796 65.3106   3
  -6   1   5 846.212 68.3887   3
   6  -1  -5 711.829 78.2014   4
   6  -1  -5 664.490 86.7952   1
   6  -1  -5 609.110 91.4836   2
   6  -1  -5 688.298 41.5036  14
   6  -1  -5 740.975 66.0462   6
   6  -1  -5 685.748 51.2391  11
   6  -1  -5 695.707 43.3661  12
   6  -1  -5 890.781 69.4768   9
   6  -1  -5 768.316 87.3510  10
   6  -1  -5 719.683 75.5752   8
   6  -1  -5 740.585 50.8623   7
   6  -1  -4 17873.0 570.316   2
   6  -1  -4 16730.6 418.826   7
   6  -1  -4 17144.8 414.674  12
   6  -1  -4 17155.9 454.889   6
   6  -1  -4 16714.1 434.775  11
   6  -1  -4 16045.8 478.569   8
   6  -1  -4 16730.9 458.409   9
   6  -1  -4 17679.3 517.169  10
   6  -1  -4 16416.6 455.871   3
   6  -1  -4 16791.5 491.196   4
   6  -1  -3 32257.8 900.820   2
  -6   1   3 29291.9 867.471   2
   6  -1  -3 31063.2 849.163   1
   6  -1  -3 30081.6 704.496   7
   6  -1  -3 30314.6 703.895  12
   6  -1  -3 27918.8 740.125   6
   6  -1  -3 29904.8 734.329  11
   6  -1  -3 30509.8 777.883   8
   6  -1  -3 27750.7 747.923   9
   6  -1  -3 30770.1 809.111  10
   6  -1  -3 30194.7 746.328   3
   6  -1  -3 29087.0 779.249   4
   6  -1  -2 2331.08 172.812   2
  -6   1   2 2192.22 162.244   2
   6  -1  -2 2253.11 154.903   1
   6  -1  -2 2181.76 75.4605   7
   6  -1  -2 2248.62 81.4637  12
   6  -1  -2 2055.50 96.2694   6
   6  -1  -2 1985.98 101.910  11
   6  -1  -2 2012.81 118.825   8
   6  -1  -2 2283.48 111.040   9
   6  -1  -2 2021.62 131.087  10
   6  -1  -2 2181.41 105.777   3
   6  -1  -2 1933.12 117.308   4
   6  -1  -1 6654.63 211.320   3
   6  -1  -1 6338.94 234.363   4
  -6   1   1 6693.40 289.612   2
   6  -1  -1 6370.74 270.183   1
   6  -1  -1 5847.61 181.075  14
   6  -1  -1 6195.80 162.933  14
   6  -1  -1 6917.23 187.114  12
   6  -1  -1 6632.66 200.262   6
  -6   1   1 6626.94 185.176  12
   6  -1  -1 6582.59 216.018  11
   6  -1  -1 7015.32 262.582  10
   6  -1  -1 6534.78 170.867   7
   6  -1   0 5555.49 239.685   1
   6  -1   0 5513.21 254.057   2
  -6   1   0 5638.98 253.949   2
   6  -1   0 5154.11 170.538  14
   6  -1   0 5779.61 170.674  12
   6  -1   0 5327.12 204.676   5
   6  -1   0 5358.37 171.243   6
  -6   1   0 5250.18 162.389  12
   6  -1   0 5578.90 197.680  11
   6  -1   0 5497.69 186.219   3
   6  -1   0 5000.03 203.713   4
   6  -1   0 5347.96 145.328   7
   6  -1   1 1978.62 95.9916  14
   6  -1   1 2077.92 93.4360  12
   6  -1   1 1961.56 87.2380   6
   6  -1   1 2135.58 117.602   5
   6  -1   1 2069.44 114.396  11
   6  -1   1 1986.29 114.589   4
   6  -1   1 2074.12 100.713   3
   6  -1   1 1977.37 135.169   1
   6  -1   1 1942.40 144.123   2
   6  -1   2 766.894 73.5577   4
   6  -1   2 833.931 66.7422   3
   6  -1   2 846.354 88.4010   1
   6  -1   2 897.784 98.6464   2
   6  -1   2 725.471 63.1488  14
  -6   1  -2 781.784 57.2949  12
   6  -1   2 927.294 57.4992   6
  -6   1  -2 968.958 60.2772   6
   6  -1   2 1010.22 83.0062   5
   6  -1   2 892.432 82.1308  11
   6  -1   2 765.560 87.8631  10
  -6   1  -2 874.484 42.1168   7
   6  -1   3 73.0677 35.8106  14
  -6   1  -3 79.8761 21.2837   7
   6  -1   3 34.1316 26.8825   6
  -6   1  -3 31.8033 27.5697   6
  -6   1  -3 54.5049 33.6542  12
   6  -1   3-4.76135 34.1859   4
   6  -1   3 44.6656 42.3306   5
   6  -1   3 58.6953 49.7108   1
   6  -1   3 20.8675 53.7007   2
   6  -1   4 1000.34 101.585   2
   6  -1   4 1119.14 95.5074   1
  -6   1  -4 1049.11 76.5788  12
   6  -1   4 973.617 78.7967  14
   6  -1   4 1046.95 91.7745   5
   6  -1   4 956.729 77.0287   4
  -6   1  -4 1042.65 54.0296   7
   6  -1   5 5282.74 205.828  14
   6  -1   5 5850.77 226.137   5
   6  -1   5 5523.09 221.083   1
  -6   1  -5 5980.98 210.527  12
   6  -1   6 3667.14 167.498  14
  -6   1  -6 3729.32 168.558  12
   6  -1   6 3832.80 179.348   5
   6  -1   6 3304.09 127.577   4
  -6   1  -7-18.0058 57.5364  12
   6  -1   7 81.4898 62.0404   5
  -6   1  -8 4339.97 211.350  12
   6  -1   8 4327.29 211.989   5
  -6   1  -9 3626.05 200.273  12
   6  -1   9 3560.16 197.959   5
  -6   1 -10 305.751 89.2363  12
   6  -1  10 275.051 83.1558  13
   6   0 -16 257.159 72.2465  12
  -6   0  15 1543.83 149.298   9
  -6   0  15 1191.48 144.816   3
   6   0 -15 1364.49 110.279  12
   6   0 -14 2534.79 142.777  12
  -6   0  14 2371.66 172.526   9
  -6   0  14 2578.72 192.237   3
  -6   0  13 56.6174 60.8254   9
  -6   0  13 28.1631 63.2854   3
   6   0 -13 10.0899 47.0178  12
   6   0 -12 5964.47 292.565   4
  -6   0  12 6635.43 281.517   3
   6   0 -12 6142.19 242.855   1
  -6   0  12 6312.58 264.296   9
   6   0 -11 8105.05 337.305   4
  -6   0  11 7649.99 302.422   3
  -6   0  11 8171.24 300.560   9
   6   0 -11 7959.99 287.991   1
   6   0 -10 891.596 108.970   4
  -6   0  10 867.612 89.5814   3
   6   0 -10 811.151 56.0189  11
  -6   0  10 882.215 89.0818   9
   6   0 -10 944.797 94.2925   1
   6   0  -9 4605.09 226.740   4
  -6   0   9 4849.25 201.627   3
   6   0  -9 4607.33 151.087  11
   6   0  -9 4825.07 213.069   6
  -6   0   9 4490.03 196.162   9
   6   0  -9 5256.83 210.386  10
   6   0  -9 4554.34 208.374   1
  -6   0   9 4317.84 214.651   2
  -6   0   8 8379.82 290.872   3
   6   0  -8 8932.45 305.767   6
   6   0  -8 8777.15 247.878  11
   6   0  -8 9354.14 325.351  10
  -6   0   8 8956.18 335.802   2
   6   0  -8 8597.40 316.327   1
  -6   0   7 2019.90 111.623   3
   6   0  -7 1880.76 109.498   3
   6   0  -7 1792.29 66.0225  13
   6   0  -7 1840.46 74.6468  12
   6   0  -7 2058.71 88.1138  11
   6   0  -7 2072.15 142.894   2
  -6   0   7 1719.55 136.878   2
   6   0  -7 1735.67 128.670   1
   6   0  -7 2029.75 120.616   8
   6   0  -7 2285.47 147.337  10
   6   0  -7 1998.78 107.031   9
   6   0  -7 2108.11 119.362   6
   6   0  -6 793.114 98.4180   2
  -6   0   6 719.208 93.3634   2
   6   0  -6 695.369 87.0985   1
   6   0  -6 778.600 51.8678   7
   6   0  -6 799.336 74.2453   6
   6   0  -6 771.966 41.7425  12
   6   0  -6 790.343 55.9046  11
   6   0  -6 778.541 68.9141   9
   6   0  -6 962.484 101.836  10
   6   0  -6 777.301 85.0633   4
   6   0  -6 792.170 70.9914   3
  -6   0   6 881.443 69.9599   3
   6   0  -5 1134.75 119.639   2
   6   0  -5 1376.73 117.860   1
   6   0  -5 1183.94 59.0290   7
   6   0  -5 1242.04 50.1907  12
   6   0  -5 1240.55 84.1669   6
   6   0  -5 1174.59 71.5703  11
   6   0  -5 1266.01 112.099  10
   6   0  -5 1328.82 104.049   4
  -6   0   5 1131.28 77.6855   3
   6   0  -5 1259.42 81.8282   3
   6   0  -4 2583.31 176.622   2
  -6   0   4 1976.16 159.304   2
   6   0  -4 2344.40 80.8783   7
   6   0  -4 2219.54 73.2963  12
   6   0  -4 2431.60 115.252   6
   6   0  -4 2296.33 103.650  11
   6   0  -4 2197.90 144.275  10
   6   0  -4 2308.33 135.713   4
   6   0  -4 2305.79 110.790   3
   6   0  -3 19633.5 638.729   2
  -6   0   3 18832.3 617.128   2
   6   0  -3 19826.5 601.336   1
   6   0  -3 19088.4 446.803   7
   6   0  -3 18767.1 446.072  12
   6   0  -3 18571.7 495.902   6
   6   0  -3 18545.7 490.710  11
   6   0  -3 18634.5 560.605  10
   6   0  -3 18063.8 491.303   3
   6   0  -3 17681.7 533.915   4
  -6   0   2 13188.3 473.213   2
   6   0  -2 13313.4 455.708   1
   6   0  -2 13100.1 319.604   7
   6   0  -2 13902.5 335.540  12
   6   0  -2 13977.8 375.529   6
   6   0  -2 13979.4 380.595  11
   6   0  -2 13994.2 440.170  10
   6   0  -2 13648.0 372.712   3
   6   0  -2 13229.5 412.101   4
   6   0  -1 1164.31 72.9625   3
   6   0  -1 1116.54 92.3615   4
   6   0  -1 1105.62 56.6713  12
   6   0  -1 1177.94 80.2993  11
  -6   0   1 1122.69 51.4151  12
   6   0  -1 1184.17 119.085   2
  -6   0   1 1301.34 122.377   2
   6   0  -1 1245.08 112.156   1
   6   0  -1 1085.16 100.402  10
   6   0  -1 1092.42 71.7955   6
   6   0   0 10186.6 379.158   2
  -6   0   0 10338.0 377.617   2
   6   0   0 10589.3 363.029   1
   6   0   0 9801.77 290.907   6
   6   0   0 9914.02 253.214  14
  -6   0   0 10344.8 267.610  12
   6   0   0 10430.1 318.131  11
   6   0   0 10208.2 356.093  10
   6   0   0 10502.6 294.999   3
   6   0   0 10584.9 335.631   4
   6   0   1 15276.3 434.169   5
   6   0   1 14068.4 392.635   6
  -6   0  -1 15809.2 400.469   6
   6   0   1 14188.7 379.091  14
   6   0   1 15454.9 435.479  11
   6   0   1 15495.1 488.949   2
  -6   0  -1 15036.7 483.779   2
   6   0   1 15639.3 470.804   1
   6   0   1 14911.6 400.244   3
   6   0   1 13750.0 432.038   4
   6   0   2 755.602 74.4074   5
   6   0   2 650.549 56.6756   6
  -6   0  -2 756.241 60.3972   6
   6   0   2 657.511 56.5699  14
  -6   0  -2 570.805 84.0214   2
   6   0   2 846.577 89.8255   1
   6   0   2 686.064 59.7192   3
   6   0   2 734.103 70.5005   4
   6   0   3 200.829 37.9379   6
  -6   0  -3 167.021 40.3861   6
   6   0   3 208.731 48.0389  14
  -6   0  -3 184.476 37.6905  12
   6   0   3 166.857 40.1738   4
   6   0   3 148.268 50.3308   5
   6   0   3 132.847 53.4091   1
  -6   0  -3 330.477 70.4270   2
   6   0   3 199.760 41.5998   3
   6   0   4 192.544 57.2863   1
   6   0   4 225.983 51.2212  14
   6   0   4 175.220 39.3554   6
  -6   0  -4 180.475 43.6616  12
   6   0   4 150.221 63.6112  11
   6   0   4 134.907 33.2537   4
   6   0   4 257.151 57.2236   5
  -6   0  -5 1302.58 93.7131  12
   6   0   5 1433.45 107.355   5
   6   0   5 1118.58 117.361  11
   6   0   5 1158.90 92.8970  14
   6   0   5 1191.77 61.2173   4
  -6   0  -6 2519.95 140.436  12
   6   0   6 2938.71 156.056   5
   6   0   6 2953.09 194.173  11
  -6   0  -7 1445.62 116.071  12
   6   0   7 1582.92 120.928   5
   6   0   7 1330.96 146.999  11
   6   0   8 391.105 100.692  11
   6   0   8 335.671 78.3787   5
  -6   0  -8 521.802 90.7516  12
  -6   0  -9 3200.65 194.202  12
   6   0   9 3245.16 208.570  11
   6   1 -15 1960.12 127.664  12
  -6  -1  15 1926.71 165.545   9
  -6  -1  15 2176.65 190.469   3
   6   1 -14 335.411 97.8005   6
  -6  -1  14 676.801 101.656   9
  -6  -1  14 667.270 110.425   3
   6   1 -14 528.053 71.4807  12
   6   1 -13 786.051 115.796   6
  -6  -1  13 669.240 93.4348   9
  -6  -1  13 732.988 106.244   3
   6   1 -13 616.204 71.3569  12
   6   1 -12 439.069 90.6383   6
   6   1 -12 376.231 61.3790  12
  -6  -1  12 492.130 78.7183   9
  -6  -1  12 645.439 92.7384   3
  -6  -1  11 9588.26 342.947   3
   6   1 -11 9033.18 291.158  12
  -6  -1  11 9600.20 334.674   9
  -6  -1  11 9931.27 348.435   2
   6   1 -10 9833.46 379.693   4
  -6  -1  10 9277.02 324.690   3
   6   1 -10 9722.34 269.246  11
  -6  -1  10 9623.89 348.084   2
  -6  -1  10 9247.42 319.180   9
   6   1  -9 418.387 47.2216  11
   6   1  -9 339.154 44.9583  12
   6   1  -9 481.240 70.1216  10
  -6  -1   9 358.085 46.8215  11
  -6  -1   9 332.642 73.8085   2
  -6  -1   9 326.055 58.3108   3
  -6  -1   8 4170.07 178.024   3
   6   1  -8 3837.52 143.890  12
   6   1  -8 4087.05 118.981  13
   6   1  -8 4700.31 201.255   6
   6   1  -8 4397.82 153.248  11
   6   1  -8 4373.55 129.682  12
  -6  -1   8 4457.42 157.575  11
   6   1  -8 5016.09 216.257  10
   6   1  -8 4514.66 186.785   3
  -6  -1   8 4368.57 220.544   2
   6   1  -8 4148.37 202.989   1
  -6  -1   7 18102.8 495.148   3
   6   1  -7 18077.5 556.971   4
   6   1  -7 17519.6 438.432  13
   6   1  -7 18858.7 516.351   6
  -6  -1   7 17902.4 470.251  11
   6   1  -7 17571.7 427.175  12
   6   1  -7 18582.8 469.640  11
   6   1  -7 19371.1 563.851  10
   6   1  -7 18028.7 499.157   3
   6   1  -7 17409.2 542.312   1
  -6  -1   7 17648.1 567.701   2
   6   1  -6 1729.00 130.932   1
  -6  -1   6 1749.27 140.775   2
   6   1  -6 1666.25 73.1363   7
   6   1  -6 1632.76 74.6642  13
   6   1  -6 1493.77 50.0668  12
   6   1  -6 1580.72 85.6696  11
   6   1  -6 1752.11 108.030   6
   6   1  -6 1643.12 97.8422   9
   6   1  -6 1925.53 142.511  10
   6   1  -6 1682.94 128.710   4
   6   1  -6 1743.87 99.4144   3
  -6  -1   6 1635.37 96.1702   3
   6   1  -5 554.028 38.2594   7
   6   1  -5 640.662 65.3214   6
   6   1  -5 720.237 57.3627  11
   6   1  -5 678.265 90.0360  10
   6   1  -5 706.545 65.5206   9
   6   1  -5 684.599 82.4330   4
  -6  -1   5 699.154 59.9099   3
   6   1  -5 631.799 61.2036   3
   6   1  -4 347.599 25.6043   7
   6   1  -4 392.790 53.3757   6
  -6  -1   4 389.181 84.9068   2
   6   1  -4 342.110 75.3890   1
   6   1  -4 439.178 76.8616  10
   6   1  -4 359.165 46.8660  11
   6   1  -4 389.459 51.5554   9
   6   1  -4 451.857 51.5943   3
   6   1  -4 355.404 63.1256   4
   6   1  -3 1557.44 46.7071   7
   6   1  -3 1883.97 100.763   6
   6   1  -3 2094.05 133.350   4
   6   1  -3 1811.47 91.8714   3
   6   1  -3 1792.92 95.8358  11
   6   1  -3 1723.87 98.0764   9
   6   1  -3 1961.39 138.323  10
   6   1  -3 2011.95 152.342   1
  -6  -1   3 1755.33 150.329   2
   6   1  -2 11783.7 339.268   6
   6   1  -2 11112.8 381.184   4
   6   1  -2 11647.0 326.803   3
   6   1  -2 11693.6 340.723  11
   6   1  -2 11346.4 344.924   9
   6   1  -2 11800.3 404.616  10
   6   1  -2 12138.6 421.221   1
  -6  -1   2 11656.3 432.099   2
   6   1  -1 6729.35 218.206   6
   6   1  -1 6578.30 206.332   3
   6   1  -1 6351.04 225.365  11
   6   1  -1 6992.47 282.079  10
   6   1  -1 6427.50 275.435   1
  -6  -1   1 7126.50 299.208   2
  -6  -1   0 433.849 79.0952   2
   6   1   0 416.636 80.8183   1
   6   1   0 312.044 48.0081   6
  -6  -1   0 378.410 51.6140   6
   6   1   0 352.154 19.4940  14
  -6  -1   0 439.872 32.8454  12
   6   1   0 336.810 57.6080  11
   6   1   0 429.461 46.1052   3
   6   1   0 379.157 60.4099   4
   6   1   1 14849.7 383.181  14
  -6  -1  -1 15727.0 391.539  12
   6   1   1 15945.2 489.344   1
  -6  -1  -1 15766.4 506.110   2
   6   1   1 14499.0 437.968   4
   6   1   1 16022.3 413.843   3
   6   1   1 16000.6 423.091   6
  -6  -1  -1 16637.8 431.110   6
   6   1   1 16082.5 451.748   5
   6   1   2 12305.3 331.764  14
   6   1   2 13146.8 382.024   5
   6   1   2 13070.3 353.086   6
  -6  -1  -2 13789.6 363.602   6
   6   1   2 12172.8 340.874   3
   6   1   2 10909.2 345.079   4
  -6  -1  -2 12308.7 425.688   2
  -6  -1  -3 473.242 81.8391   2
   6   1   3 390.570 52.8136  14
  -6  -1  -3 519.088 52.4309  12
   6   1   3 602.827 69.9773   5
   6   1   3 518.180 56.8769   6
   6   1   3 554.682 81.6514  11
   6   1   3 392.472 44.3927   4
   6   1   3 497.970 50.6551   3
   6   1   4 1383.03 98.7292  14
  -6  -1  -4 1867.68 99.2662  12
   6   1   4 1709.53 113.684   5
   6   1   4 1646.34 93.7369   6
   6   1   4 1672.93 131.167  11
   6   1   4 1660.92 89.7188   3
  -6  -1  -4 1712.63 130.657   2
   6   1   5 2541.56 171.033  11
   6   1   5 2479.69 137.263   5
  -6  -1  -5 2341.22 125.435  12
  -6  -1  -6 2158.17 130.745  12
   6   1   6 2365.01 140.093   5
  -6  -1  -7 894.466 95.8169  12
   6   1   7 1067.32 139.953  11
   6   1   7 941.710 98.9997   5
   6   1   8 33.0101 75.8075  11
   6   1   9 525.459 109.363  11
  -6  -2  15 3501.41 211.864   9
  -6  -2  15 3363.63 235.496   3
   6   2 -15 3720.14 256.002   6
   6   2 -14 1393.70 106.233  12
   6   2 -14 1408.64 155.174   6
  -6  -2  14 1501.06 137.372   9
  -6  -2  14 1466.01 150.802   3
   6   2 -13 99.9899 78.4868   6
  -6  -2  13 150.261 70.0256   9
  -6  -2  13 9.39314 66.0859   3
   6   2 -13 29.1481 46.3304  12
   6   2 -12 229.027 78.2436   6
   6   2 -12 95.5236 45.8241  12
  -6  -2  12 170.766 62.2406   9
  -6  -2  12 129.613 67.1813   2
  -6  -2  12 171.668 67.3174   3
  -6  -2  11 767.940 90.0940   3
   6   2 -11 762.613 69.6721  12
   6   2 -11 793.448 103.248   6
   6   2 -11 774.249 67.2988  11
  -6  -2  11 800.885 87.6946   9
  -6  -2  11 720.532 94.9269   2
   6   2 -10 5618.80 190.208  12
  -6  -2  10 5868.87 241.608   3
  -6  -2  10 6205.14 269.420   2
   6   2 -10 6394.44 203.403  11
   6   2  -9 9480.28 262.367  12
   6   2  -9 9574.44 246.650  13
   6   2  -9 10689.5 296.388  11
  -6  -2   9 10374.2 301.537  11
  -6  -2   9 10326.3 330.299   3
  -6  -2   9 10276.7 374.099   2
   6   2  -8 596.202 31.9056  12
   6   2  -8 575.238 41.4956  13
   6   2  -8 547.070 81.0906   6
  -6  -2   8 714.072 62.0327  11
   6   2  -8 660.652 31.1615  12
   6   2  -8 620.021 60.0009  11
  -6  -2   8 577.492 67.3519   3
   6   2  -8 497.784 95.2494   4
  -6  -2   8 522.104 85.3854   2
   6   2  -7 14826.9 394.623  13
   6   2  -7 15685.7 464.083   6
   6   2  -7 16088.3 424.925  11
  -6  -2   7 16051.3 428.613  11
  -6  -2   7 15869.6 439.387   3
   6   2  -7 16326.7 529.201   4
   6   2  -7 15269.9 447.477   3
  -6  -2   7 15700.9 521.722   2
   6   2  -6 13732.3 470.060   4
  -6  -2   6 13295.2 378.769   3
   6   2  -6 13231.6 354.103  13
   6   2  -6 13457.0 404.296   6
  -6  -2   6 13446.5 375.834  11
   6   2  -6 13736.4 376.586  11
   6   2  -6 13600.0 387.563   9
   6   2  -6 13269.0 389.771   3
  -6  -2   6 12918.5 470.560   2
   6   2  -5 776.869 40.3186   7
   6   2  -5 867.603 62.0333  13
   6   2  -5 868.775 69.7431  11
   6   2  -5 843.581 70.4001   3
   6   2  -5 633.983 92.0644   4
  -6  -2   5 738.858 61.7176   3
   6   2  -5 905.324 75.2774   9
   6   2  -5 833.659 77.9633   6
  -6  -2   4 4959.74 262.218   2
   6   2  -4 4933.45 184.892   6
   6   2  -4 4229.08 109.639   7
   6   2  -4 4287.80 109.050   7
   6   2  -4 4901.43 175.225  11
   6   2  -4 4678.13 176.327   9
   6   2  -4 5163.06 240.818   4
   6   2  -4 4994.98 169.967   3
   6   2  -3 4628.90 235.277   4
   6   2  -3 4636.30 168.110   3
   6   2  -3 5203.14 186.164  11
   6   2  -3 4757.82 185.577   6
   6   2  -3 4737.17 184.278   9
   6   2  -2 2687.54 161.850   4
   6   2  -2 2533.65 109.120   3
   6   2  -2 2534.71 126.197  11
   6   2  -2 2625.08 127.115   6
   6   2  -2 2536.59 127.030   9
  -6  -2   2 2646.42 181.643   2
   6   2  -1 5238.19 191.480   6
  -6  -2   1 5218.93 186.218   6
   6   2  -1 4757.22 213.169   4
   6   2  -1 4724.37 166.032   3
   6   2  -1 5099.75 198.278  11
   6   2   0 741.733 68.9672   6
  -6  -2   0 786.558 68.0899   6
  -6  -2   0 697.001 35.1697  12
  -6  -2   0 803.641 99.9358   2
   6   2   0 761.489 75.8028   4
   6   2   0 683.177 54.4504   3
   6   2   1 2925.31 96.9497  14
  -6  -2  -1 3208.61 103.552  12
   6   2   1 3375.45 142.118   6
  -6  -2  -1 3409.69 145.041   6
  -6  -2  -1 3348.30 190.031   2
   6   2   1 2897.65 137.433   4
   6   2   1 3189.40 119.968   3
   6   2   2 8303.69 236.308  14
   6   2   2 9311.68 276.395   6
  -6  -2  -2 8924.68 279.034   6
   6   2   2 8691.24 289.552   5
   6   2   2 7637.52 296.010  11
   6   2   2 8513.95 246.552   3
  -6  -2  -2 8469.22 331.013   2
  -6  -2  -3 7784.28 239.520  12
   6   2   3 8393.80 307.156  11
   6   2   3 7832.71 234.279   3
  -6  -2  -3 8185.10 317.756   2
   6   2   3 8608.44 284.568   5
   6   2   3 7847.44 257.579   6
   6   2   4 46.3815 51.5309   5
   6   2   4 8.03444 41.9566   6
   6   2   4-7.71570 54.8283  11
  -6  -2  -4 102.609 63.7858   2
   6   2   5 5574.01 265.271  11
   6   2   5 5762.16 224.635   5
  -6  -2  -5 5075.01 237.895   2
   6   2   6 3321.42 214.725  11
   6   2   6 3387.08 166.940   5
   6   2   7 196.557 91.5914  11
   6   2   8-23.1916 93.9467  11
  -6  -3  15 3693.15 215.987   9
  -6  -3  15 3520.91 245.274   3
   6   3 -15 4077.95 263.461   6
  -6  -3  14 3791.86 234.574   3
  -6  -3  14 3912.71 207.917   9
  -6  -3  14 3383.15 185.729   2
   6   3 -14 4307.97 250.930   6
  -6  -3  13 472.308 85.8493   9
  -6  -3  13 560.004 90.4356   2
  -6  -3  13 438.996 88.2245   3
   6   3 -13 479.321 99.4308   6
  -6  -3  12 1161.11 114.703   3
   6   3 -12 1128.08 123.600   6
  -6  -3  12 980.725 100.969   9
  -6  -3  12 1214.74 119.717   2
   6   3 -11 2998.06 115.840  12
   6   3 -11 3495.97 197.852   6
   6   3 -11 3130.49 137.046  11
  -6  -3  11 3246.76 193.148   2
  -6  -3  11 3058.37 170.409   3
   6   3 -10 1294.90 58.3799  12
   6   3 -10 1190.45 119.590   6
  -6  -3  10 1415.50 130.630   2
  -6  -3  10 1429.40 109.880   3
   6   3 -10 1390.06 88.0360  11
   6   3  -9 2341.24 67.7055  12
   6   3  -9 2976.23 97.9579  13
  -6  -3   9 3183.32 192.324   2
  -6  -3   9 3410.29 155.114   3
   6   3  -9 3313.43 134.193  11
   6   3  -9 2620.56 69.0119  12
   6   3  -8 1326.64 68.5889  13
  -6  -3   8 1212.15 85.7287  11
   6   3  -8 1461.39 90.6325  11
  -6  -3   8 1179.73 89.2598   3
   6   3  -7 1188.97 68.5769   7
   6   3  -7 1263.55 70.4380  13
   6   3  -7 1207.53 103.283   6
   6   3  -7 1396.01 86.2524  11
  -6  -3   7 1223.46 84.5329  11
  -6  -3   7 1174.30 125.616   2
  -6  -3   7 1314.55 88.6891   3
   6   3  -6 12935.6 355.290  13
   6   3  -6 12844.3 400.635   6
  -6  -3   6 13049.4 375.974  11
   6   3  -6 13703.0 380.705  11
   6   3  -6 12867.9 331.215   7
  -6  -3   6 13165.1 368.675   3
   6   3  -5 12173.5 350.661   3
   6   3  -5 11294.3 281.284   7
   6   3  -5 11155.9 280.005   7
   6   3  -5 12426.0 335.889  13
   6   3  -5 13170.4 376.312   6
   6   3  -5 13200.4 357.144  11
   6   3  -5 13027.1 356.666   9
  -6  -3   5 11767.6 331.116   3
   6   3  -4 253.613 45.4049  13
  -6  -3   4 250.530 85.8093   2
   6   3  -4 255.069 46.6776   3
   6   3  -4 315.162 53.9748  11
   6   3  -4 220.396 51.4366   9
   6   3  -4 258.861 53.7247   6
   6   3  -3 12141.1 357.312   6
   6   3  -3 10961.1 320.307   3
  -6  -3   3 11977.3 457.655   2
   6   3  -3 10970.2 342.533  11
   6   3  -2 9502.34 300.407  11
  -6  -3   2 9061.23 381.775   2
   6   3  -2 9579.23 299.827   6
   6   3  -2 8698.37 262.747   3
   6   3  -1 893.356 79.4554   6
  -6  -3   1 895.551 111.858   2
   6   3  -1 867.210 83.1073  11
  -6  -3   1 803.405 102.592  10
   6   3  -1 815.423 57.6553   3
  -6  -3   0 85.2439 57.9168  10
   6   3   0 40.4032 39.1008   6
  -6  -3   0 27.3645 55.7779   2
   6   3   0 96.9336 29.0444   3
   6   3   1-4.42656 44.4934   6
  -6  -3  -1 25.8922 61.3350   2
   6   3   1 26.3494 24.2927   3
  -6  -3  -1 91.6888 70.1915  10
   6   3   1 68.4872 21.0922  14
   6   3   2 2385.46 145.484  11
  -6  -3  -2 2108.93 157.755   2
  -6  -3  -2 2528.67 176.461  10
   6   3   2 2468.16 126.441   6
   6   3   2 2394.67 132.870   5
   6   3   3 5727.27 242.911  11
  -6  -3  -3 4988.45 246.660   2
  -6  -3  -3 4820.06 254.235  10
   6   3   3 5374.17 211.681   5
   6   3   3 5360.01 203.033   6
   6   3   4 1853.26 142.301  11
   6   3   4 1887.55 121.937   5
   6   3   4 1804.06 110.810   6
  -6  -3  -4 1562.86 134.827   2
   6   3   5 640.463 83.6899   5
   6   3   5 702.802 105.882  11
  -6  -3  -5 776.469 101.189   2
   6   3   6 4600.16 257.474  11
   6   3   7 2590.71 205.850  11
   6   4 -15 348.055 88.2438   7
  -6  -4  15 425.823 94.0948   9
  -6  -4  15 289.854 107.487   3
  -6  -4  14 3567.40 197.802   2
   6   4 -14 3795.96 215.564   7
  -6  -4  14 4016.82 209.653   9
  -6  -4  14 3737.72 231.701   3
   6   4 -14 4184.24 250.378   6
   6   4 -13 3641.87 208.465   7
   6   4 -13 3950.98 231.871   6
  -6  -4  13 3637.47 205.594   2
  -6  -4  13 3747.29 219.594   3
   6   4 -12 127.745 48.3217  11
   6   4 -12 63.1144 68.4286   6
  -6  -4  12 83.8367 68.4661   2
  -6  -4  12 39.5025 60.4897   3
   6   4 -12 61.7475 59.3353   7
   6   4 -11 5062.01 221.400   7
   6   4 -11 5818.38 207.701  11
   6   4 -11 5594.53 259.903   6
  -6  -4  11 5486.54 263.072   2
  -6  -4  11 5563.77 239.918   3
   6   4 -10 6794.69 251.132   7
   6   4 -10 7636.95 252.649  11
   6   4 -10 8065.89 308.119   6
  -6  -4  10 7089.38 316.682   2
  -6  -4  10 7535.03 277.489   3
   6   4  -9 821.960 72.8051   7
   6   4  -9 994.506 80.3853  11
  -6  -4   9 909.633 83.4872   3
  -6  -4   9 906.033 115.972   2
   6   4  -8 28.9758 31.6298   7
   6   4  -8-17.2736 43.1778  11
  -6  -4   8-20.3188 72.9074   2
  -6  -4   8 4.43571 39.3668   3
   6   4  -8 2.76512 30.6913  13
   6   4  -7 149.871 30.0054   7
   6   4  -7 124.409 37.4710  13
   6   4  -7 109.253 46.3690  11
  -6  -4   7 174.204 44.4603   3
  -6  -4   7 86.1722 67.6666   2
   6   4  -6 2481.12 113.382  13
   6   4  -6 2431.34 142.447   6
   6   4  -6 2599.65 128.829  11
   6   4  -6 2274.32 79.5985   7
  -6  -4   6 2473.82 112.236   3
   6   4  -5 14966.7 424.952  11
   6   4  -5 14705.0 443.007   6
  -6  -4   5 14645.0 391.446   3
   6   4  -5 14257.8 406.584  13
   6   4  -4 5309.06 203.738  11
   6   4  -4 5063.55 211.496   6
   6   4  -4 5200.83 197.041  13
  -6  -4   4 5562.10 306.239   2
   6   4  -3 609.714 70.1868  11
  -6  -4   3 629.606 111.797   2
  -6  -4   3 826.993 99.7469  10
   6   4  -3 602.481 76.5020   6
   6   4  -2 9516.16 321.242  11
   6   4  -2 10545.1 332.175   6
  -6  -4   2 10003.8 415.609   2
   6   4  -1 7603.48 269.203   6
  -6  -4   1 7726.91 342.236   2
  -6  -4   0 87.2903 67.5295   2
  -6  -4   0 10.6957 65.3825  10
   6   4   0 25.0243 48.7681   6
   6   4   1 846.655 92.0414  11
  -6  -4  -1 982.955 114.855   2
  -6  -4  -1 711.140 112.256  10
   6   4   1 1017.16 86.4255   6
   6   4   2 1386.21 115.530  11
  -6  -4  -2 1522.22 137.071   2
  -6  -4  -2 1279.55 135.728  10
   6   4   2 1368.09 101.505   6
   6   4   3 1929.46 138.296  11
  -6  -4  -3 1606.66 139.706   2
  -6  -4  -3 1666.66 152.576  10
   6   4   3 1641.51 115.165   5
   6   4   3 1885.17 118.305   6
   6   4   4 1358.02 127.504  11
  -6  -4  -4 1322.80 128.126   2
   6   4   4 1271.10 104.938   5
   6   4   4 1129.20 98.2169   6
  -6  -4  -4 1263.41 131.109  10
   6   4   5-28.4335 71.2723  11
  -6  -4  -5 27.7342 76.6066  10
   6   4   6 1248.81 144.225  11
   6   5 -15-9.74962 78.3784   7
  -6  -5  14 539.569 95.2840   2
  -6  -5  14 452.678 101.802   3
   6   5 -14 537.913 112.955   6
   6   5 -14 323.441 89.0543   7
   6   5 -13 5084.09 265.431   6
   6   5 -13 4901.79 230.207   7
  -6  -5  13 4599.30 240.345   2
  -6  -5  13 4912.79 249.652   3
   6   5 -12 2608.12 180.986   6
   6   5 -12 2481.16 147.538   7
   6   5 -12 2447.05 135.014  11
  -6  -5  12 2544.70 181.476   2
  -6  -5  12 2426.42 162.461   3
   6   5 -11 548.713 71.7045  11
   6   5 -11 477.885 69.3629   7
  -6  -5  11 450.565 98.9262   2
  -6  -5  11 654.858 85.5778   3
   6   5 -11 438.834 93.6219   6
   6   5 -10 7770.87 304.868   6
   6   5 -10 6595.35 237.883   7
   6   5 -10 7457.66 255.335  11
  -6  -5  10 6792.15 319.316   2
  -6  -5  10 7126.26 265.402   3
   6   5  -9 7793.61 300.211   6
   6   5  -9 7284.77 254.200  11
  -6  -5   9 6890.66 327.364   2
  -6  -5   9 7225.68 255.522   3
   6   5  -9 7173.69 231.211   7
   6   5  -8 89.7300 34.0417   7
   6   5  -8 62.5216 45.1222  11
  -6  -5   8 109.767 43.7243   3
  -6  -5   8 100.611 77.8543   2
   6   5  -7 2256.12 86.1782   7
   6   5  -7 2495.89 130.677  11
   6   5  -7 2298.89 112.283  13
  -6  -5   7 2378.37 188.876   2
  -6  -5   7 2298.47 112.667   3
   6   5  -6 1261.66 86.0888  13
   6   5  -6 1213.43 47.2168   7
   6   5  -5 1779.54 113.407  11
  -6  -5   5 1800.69 183.028   2
  -6  -5   5 1686.86 133.212  10
   6   5  -5 1948.92 128.622   6
   6   5  -4 3269.19 157.534  11
  -6  -5   4 3550.51 247.979   2
  -6  -5   4 3077.21 188.227  10
   6   5  -4 3297.21 166.600   6
   6   5  -3 771.017 81.5655  11
  -6  -5   3 1046.18 137.988   2
   6   5  -3 813.448 88.7492   6
  -6  -5   3 807.593 108.356  10
  -6  -5   2 2466.88 196.990   2
   6   5  -2 2404.41 138.926   6
  -6  -5   1 9766.84 409.103   2
   6   5  -1 10065.6 332.696   6
   6   5   0 5835.18 238.644  11
  -6  -5   0 5342.00 281.219   2
   6   5   0 6036.95 233.023   6
  -6  -5   0 5621.16 305.135  10
  -6  -5  -1 422.624 101.567   2
   6   5   1 356.893 69.8668  11
  -6  -5  -1 298.187 96.8039  10
   6   5   1 441.703 75.3400   6
   6   5   2 4368.60 213.499  11
  -6  -5  -2 4194.05 233.070   2
  -6  -5  -2 3962.94 245.403  10
   6   5   2 4348.57 191.622   6
   6   5   3 2089.48 152.611  11
  -6  -5  -3 2041.39 173.075  10
   6   5   3 2212.76 133.038   5
   6   5   3 2186.61 133.626   6
  -6  -5  -3 2062.08 162.612   2
   6   5   4 141.361 79.1108  11
  -6  -5  -4 354.504 95.1015  10
   6   5   4 274.392 69.6371   6
  -6  -5  -4 258.497 88.0552   2
   6   5   5-59.2994 84.2718  11
  -6  -5  -5 88.9626 84.2846  10
   6   6 -14 739.201 104.275   7
  -6  -6  14 896.698 116.399   2
  -6  -6  14 839.142 121.668   3
   6   6 -13 726.210 95.4860   7
  -6  -6  13 887.142 123.762   2
  -6  -6  13 876.622 111.931   3
   6   6 -13 1167.64 133.342   6
   6   6 -12 2183.92 171.183   6
   6   6 -12 2130.98 129.597   7
   6   6 -12 2100.86 130.519  11
  -6  -6  12 2028.67 173.643   2
  -6  -6  12 1993.45 143.448   3
   6   6 -11 1619.10 115.981  11
   6   6 -11 1368.11 135.221   6
   6   6 -11 1459.90 101.143   7
  -6  -6  11 1572.02 152.697   2
   6   6 -10 2366.44 135.510  11
   6   6 -10 2365.24 165.536   6
   6   6 -10 2349.56 118.792   7
  -6  -6  10 2541.13 192.844   2
   6   6  -9 9108.74 304.145  11
   6   6  -9 9570.81 349.624   6
   6   6  -9 8537.05 261.220   7
  -6  -6   9 9035.98 391.685   2
   6   6  -8 4729.32 227.317   6
  -6  -6   8 4338.43 269.337   2
   6   6  -8 4623.43 196.777  11
   6   6  -7 85.6041 57.4480  11
  -6  -6   7 131.599 84.7062   2
  -6  -6   6 6694.71 288.155  10
   6   6  -6 7316.59 261.527  11
   6   6  -5 3655.87 187.636   6
  -6  -6   5 3932.93 215.074  10
  -6  -6   5 3641.97 267.063   2
   6   6  -5 3614.57 174.878  11
   6   6  -4 328.641 71.4190   6
  -6  -6   4 362.634 110.660   2
   6   6  -4 160.703 56.7476  11
  -6  -6   4 189.625 75.2000  10
   6   6  -3 259.911 66.5914   6
  -6  -6   3 456.870 111.530   2
  -6  -6   3 342.974 87.0515  10
   6   6  -2 55.9807 54.1592   6
  -6  -6   2 137.029 76.1362  10
  -6  -6   2 63.6260 77.8025   2
   6   6  -1 2875.64 160.718   6
  -6  -6   1 2677.77 203.599   2
   6   6  -1 2665.76 157.440  11
   6   6   0 3964.79 191.332   6
  -6  -6   0 3991.76 256.106  10
  -6  -6   0 3977.33 244.992   2
   6   6   0 3801.21 193.710  11
   6   6   1 1191.04 110.763   6
  -6  -6  -1 1236.23 149.941  10
  -6  -6  -1 1274.34 137.268   2
   6   6   1 1078.19 108.834  11
   6   6   2 1066.93 102.087   6
  -6  -6  -2 1011.65 142.300  10
  -6  -6  -2 964.587 129.211   2
   6   6   2 1251.70 119.873  11
   6   6   3 4307.78 201.874   6
  -6  -6  -3 4061.87 247.574  10
  -6  -6  -3 3717.07 227.990   2
   6   6   3 4354.55 226.170  11
  -6  -6  -4 1007.46 137.396  10
  -6  -7  13 2092.35 174.213   2
  -6  -7  12 75.9437 90.5921   2
   6   7 -12 124.306 64.6597  11
   6   7 -11-27.6258 72.2732   6
  -6  -7  11 91.2237 91.6697   2
   6   7 -11 5.83752 62.9066  11
   6   7 -10 52.5032 68.1129   6
   6   7 -10-5.78207 56.9298  11
  -6  -7  10-11.9798 77.0835   2
   6   7  -9 2483.94 169.421   6
  -6  -7   9 2434.52 206.255   2
   6   7  -9 2497.92 145.729  11
   6   7  -8 7570.72 302.105   6
   6   7  -8 7334.01 272.155  11
  -6  -7   7 1641.43 137.576  10
  -6  -7   7 1464.65 175.124   2
   6   7  -7 1819.95 123.097  11
  -6  -7   6 1252.45 127.878  10
   6   7  -6 1559.18 116.021  11
  -6  -7   5 8516.40 357.789  10
  -6  -7   5 9294.58 459.245   2
   6   7  -5 8516.19 308.018  11
   6   7  -4 4415.31 213.550   6
  -6  -7   4 3873.55 287.722   2
  -6  -7   4 4521.82 252.540  10
   6   7  -3 61.4598 62.5371   6
  -6  -7   3 88.7918 100.872   2
  -6  -7   3 69.5072 80.6671  10
   6   7  -2 552.703 85.6305   6
  -6  -7   2 448.501 111.537   2
   6   7  -2 519.216 80.6974  11
  -6  -7   2 471.282 114.335  10
   6   7  -1 240.550 73.8371   6
   6   7  -1 289.601 72.3247  11
  -6  -7   1 390.153 110.443   2
   6   7   0 1731.65 133.682   6
  -6  -7   0 1458.49 167.614  10
  -6  -7   0 1737.51 171.211   2
   6   7   0 1940.83 139.223  11
   6   7   1 1568.51 126.959   6
  -6  -7  -1 1234.42 157.409  10
  -6  -7  -1 1214.40 146.941   2
   6   7   1 1289.06 124.232  11
   6   7   2 13.2769 65.3630   6
  -6  -7  -2 21.4677 79.9950   2
   6   7   2 42.1949 71.9588  11
  -6  -7  -2 12.3715 85.2308  10
   6   7   3 843.107 104.293   6
  -6  -8  11 24.7028 92.0624   2
   6   8 -11 101.350 67.9823  11
  -6  -8  10 390.862 112.294   2
   6   8 -10 466.445 84.3689  11
   6   8  -9 130.843 73.9899   6
   6   8  -9 244.445 71.6713  11
  -6  -8   9 222.023 102.563   2
   6   8  -8 1149.72 120.401   6
  -6  -8   8 1077.97 113.622  10
  -6  -8   8 1075.74 158.487   2
   6   8  -8 933.935 100.790  11
   6   8  -7 4535.58 225.212   6
  -6  -8   7 3561.16 213.172  10
  -6  -8   7 4286.79 303.126   2
   6   8  -7 4118.94 198.014  11
   6   8  -6 297.660 75.8383  11
  -6  -8   6 288.516 86.6894  10
  -6  -8   5 1748.68 160.689  10
  -6  -8   5 1725.04 210.284   2
   6   8  -5 1851.60 134.819  11
   6   8  -4 5043.52 236.267   6
  -6  -8   4 4606.97 269.003  10
  -6  -8   4 4915.70 327.584   2
   6   8  -3 2244.69 155.372   6
  -6  -8   3 2292.89 201.953  10
  -6  -8   3 2530.38 233.044   2
   6   8  -3 2289.48 150.553  11
   6   8  -2 326.680 85.2529   6
   6   8  -2 182.717 68.7258  11
  -6  -8   2 226.226 105.516  10
  -6  -8   2 303.650 116.373   2
   6   8  -1 2686.70 171.184   6
  -6  -8   1 3057.52 238.563   2
   6   8  -1 2591.46 164.834  11
  -6  -8   0 579.045 126.627   2
   6   8   0 646.612 100.537   6
  -6  -8  -1 167.383 103.420   2
  -6  -9   8 1410.84 135.875  10
  -6  -9   7 419.965 93.4663  10
  -6  -9   6 439.985 109.338  10
  -6  -9   5 46.1207 83.5579  10
   7 -14  -3 213.703 80.1123  13
   7 -14  -2 1403.11 128.793  13
   7 -14  -1 2521.31 166.797  13
  -7  14  -1 1536.61 147.034   8
  -7  14  -2 2202.86 163.754   8
   7 -13  -4 100.591 57.0770  13
   7 -13  -3 653.052 98.6412  14
  -7  13   3 575.240 125.754   8
   7 -13  -3 571.487 84.8193  13
   7 -13  -2 862.577 110.751  14
  -7  13   2 728.030 130.760   8
  -7  13   2 975.769 159.104   1
   7 -13  -2 894.061 101.946  13
   7 -13  -1 2760.95 171.126  14
  -7  13   1 2609.99 196.629   8
  -7  13   1 2619.27 238.926   1
   7 -13  -1 2426.94 157.222  13
  -7  13   0 1108.86 177.485   1
   7 -13   0 1238.30 121.821  13
   7 -13   0 980.846 112.974  14
  -7  13   0 1090.00 126.417   8
  -7  13   0 1239.96 115.243   7
  -7  13  -1 106.724 68.6315   7
   7 -13   1 96.1723 75.1291  14
  -7  13  -1 118.304 78.7948   8
   7 -13   1 181.040 86.4703  13
  -7  13  -2 3711.63 272.403   1
   7 -13   2 3616.84 201.057  14
  -7  13  -2 3953.87 208.428   8
  -7  13  -2 3739.40 200.085   7
   7 -13   2 3703.31 206.191  13
  -7  13  -3 4548.68 223.134   8
   7 -13   3 4679.76 232.428  14
   7 -13   3 4655.72 241.955  13
  -7  12   7 83.1152 92.8130   1
   7 -12  -6 2183.16 157.326  14
  -7  12   6 2139.46 179.722   1
   7 -12  -5 3076.49 184.073  14
  -7  12   5 3737.94 257.693   8
  -7  12   5 3401.36 232.776   1
   7 -12  -5 3107.80 157.862  13
   7 -12  -4 487.388 87.1923  14
  -7  12   4 373.932 112.112   1
  -7  12   4 554.060 123.011   8
   7 -12  -4 299.541 72.1265  13
   7 -12  -3 1067.19 112.072  14
  -7  12   3 1192.04 148.736   8
   7 -12  -3 1127.81 104.060  13
  -7  12   3 1131.99 154.534   1
   7 -12  -2 3114.99 166.140  13
  -7  12   2 3210.38 217.010   8
  -7  12   2 3389.25 252.617   1
   7 -12  -2 3191.79 177.077  14
   7 -12  -1 1263.85 110.767  13
   7 -12  -1 1545.77 124.230  14
  -7  12   1 1324.16 140.236   8
  -7  12   1 1479.79 184.500   1
   7 -12   0 322.290 78.6126  13
   7 -12   0 350.353 76.8196  14
  -7  12   0 445.198 80.5333   7
  -7  12   0 615.885 129.230   1
  -7  12   0 399.823 90.5044   8
  -7  12  -1-6.63994 55.4314   7
   7 -12   1 33.9455 59.8711  14
  -7  12  -1 99.9184 69.9451   8
   7 -12   1 49.7405 64.2701  13
   7 -12   2 812.170 103.872  13
   7 -12   2 744.852 97.3169  14
  -7  12  -2 690.024 91.0570   7
  -7  12  -2 781.336 94.5832   8
  -7  12  -2 914.141 148.982   1
  -7  12  -3 4509.74 275.804   1
   7 -12   3 4528.26 219.091  14
  -7  12  -3 4008.27 199.639   8
  -7  12  -3 4563.44 215.145   7
   7 -12   3 4753.08 233.444  13
   7 -12   4 2857.95 174.798  14
   7 -12   4 2965.16 187.316  13
  -7  12  -4 2433.00 162.043   7
  -7  12  -4 2987.13 217.117   1
  -7  12  -5 7.94332 67.7307  12
  -7  12  -5-59.5451 69.7643   7
   7 -12   5 64.3970 71.6079  13
  -7  12  -5 33.5298 91.2428   1
  -7  12  -6 3027.87 218.455   1
  -7  12  -7 3165.11 214.432   1
   7 -11  -9 1193.42 122.097   4
   7 -11  -8 294.233 85.5115   4
   7 -11  -8 233.404 83.0247  14
  -7  11   8 434.710 101.627   1
   7 -11  -7 296.412 76.5802  14
  -7  11   7 284.476 94.5161   8
  -7  11   7 285.585 93.5836   1
   7 -11  -6 296.317 74.6397  14
  -7  11   6 277.592 100.377   1
   7 -11  -5 4963.05 224.517  14
  -7  11   5 4832.51 269.469   1
   7 -11  -5 4556.59 190.616  13
   7 -11  -4 3695.52 190.855  14
  -7  11   4 3903.68 248.750   8
  -7  11   4 3762.17 244.927   1
   7 -11  -4 3905.64 175.170  13
   7 -11  -3 6.27759 59.5172  14
  -7  11   3 10.4798 75.2106   8
  -7  11   3 87.2557 88.5758   1
   7 -11  -3 57.3093 56.6349  13
   7 -11  -2 3428.58 174.257  14
  -7  11   2 3414.87 210.463   8
  -7  11   2 3413.99 246.753   1
   7 -11  -2 3281.95 164.852  13
  -7  11   1 4979.72 317.126   1
   7 -11  -1 5080.01 221.766  14
  -7  11   1 5303.15 256.499   8
  -7  11   1 5270.98 221.705   7
   7 -11  -1 5217.43 221.160  13
   7 -11   0 911.709 94.3122  14
   7 -11   0 865.292 94.4970  13
  -7  11   0 1047.90 160.634   1
  -7  11   0 773.090 91.2119   7
  -7  11   0 701.982 100.718   8
  -7  11  -1 74.0278 56.4942   7
   7 -11   1 135.677 71.1852  13
   7 -11   1 6.21598 59.2748  14
  -7  11  -1 63.2166 60.7348   8
   7 -11   2 255.756 69.7935  14
  -7  11  -2 337.240 69.6130   7
  -7  11  -2 333.629 109.147   1
  -7  11  -2 249.800 68.1140   8
   7 -11   2 282.146 79.5633  13
   7 -11   3 1661.66 127.212  14
   7 -11   3 1946.93 148.363  13
  -7  11  -3 1803.67 130.755   7
  -7  11  -3 1686.57 175.555   1
   7 -11   4 3423.55 201.356  13
  -7  11  -4 3352.31 183.208   7
  -7  11  -4 3418.72 228.697   1
  -7  11  -4 3412.13 186.336  12
   7 -11   5 1204.19 129.507  13
  -7  11  -5 1162.63 112.138  12
  -7  11  -5 1252.13 142.376   1
  -7  11  -5 1136.39 115.984   7
  -7  11  -6 647.342 97.8601   7
  -7  11  -6 675.582 99.7441  12
  -7  11  -6 706.503 115.439   1
  -7  11  -7 3626.51 224.325   1
  -7  11  -7 4097.78 213.411   7
  -7  11  -8 2469.76 184.821   1
  -7  10  11-8.15706 70.5128   9
   7 -10 -10 1374.95 139.710  14
  -7  10  10 1524.36 127.797   9
   7 -10 -10 1429.66 140.868   4
  -7  10   9 2869.08 194.927   1
   7 -10  -9 3621.64 196.250  14
  -7  10   9 3131.90 172.964   9
  -7  10   9 3040.00 205.156   8
   7 -10  -9 3257.68 193.263   4
  -7  10   8 2199.47 167.764   1
   7 -10  -8 1787.68 138.485  14
  -7  10   8 1901.22 169.587   8
   7 -10  -8 2205.74 154.684   4
   7 -10  -7 245.879 77.7793  14
  -7  10   7 93.5133 79.3077   1
   7 -10  -7 266.238 72.9530   4
  -7  10   7 177.618 86.5257   8
   7 -10  -6 207.368 67.8839  14
  -7  10   6 294.091 93.6061   1
  -7  10   6 96.5338 83.3005   8
   7 -10  -6 299.789 54.8933  13
   7 -10  -5 1615.53 121.806  14
  -7  10   5 1606.29 160.192   1
   7 -10  -5 1425.61 95.6012  13
   7 -10  -4 3981.52 185.358  14
  -7  10   4 3995.90 236.568   8
  -7  10   4 3425.07 227.988   1
   7 -10  -4 3601.43 162.274  13
   7 -10  -3 3713.37 177.871  14
  -7  10   3 3451.98 212.439   8
  -7  10   3 3865.40 247.951   1
   7 -10  -3 3461.62 162.962  13
   7 -10  -2 227.403 61.0588  14
  -7  10   2 246.615 79.4467   8
  -7  10   2 240.826 94.2797   1
   7 -10  -2 285.653 66.4786  13
  -7  10   1 7152.01 383.898   1
   7 -10  -1 7506.81 270.445  13
  -7  10   1 7287.78 299.409   8
  -7  10   1 7016.75 263.403   7
   7 -10  -1 7240.79 265.982  14
   7 -10   0 6343.71 246.307  13
   7 -10   0 6025.63 237.181  14
  -7  10   0 6422.99 264.753   8
  -7  10   0 5798.42 234.303   7
   7 -10   1 170.331 58.1251  14
  -7  10  -1 261.507 65.0814   7
  -7  10  -1 223.260 94.2370   1
  -7  10  -1 205.999 63.9126   8
   7 -10   1 293.494 70.9982  13
   7 -10   2 2914.86 158.234  14
   7 -10   2 2890.42 165.570  13
  -7  10  -2 2752.82 152.648   7
  -7  10  -2 2774.20 207.505   1
   7 -10   3 4031.80 208.716  13
  -7  10  -3 3822.39 187.031   7
  -7  10  -3 4286.97 248.355   1
  -7  10  -3 3828.87 190.290  12
   7 -10   4 1594.75 132.374  13
  -7  10  -4 1508.16 122.298  12
  -7  10  -4 1444.89 116.979   7
  -7  10  -4 1465.76 150.964   1
  -7  10  -5 908.940 101.987  12
  -7  10  -5 722.308 93.6295   7
  -7  10  -5 959.870 127.934   1
   7 -10   5 696.008 102.871  13
  -7  10  -6 74.6976 62.9254   7
  -7  10  -6 59.6996 62.3031  12
  -7  10  -6 18.5153 80.0360   1
  -7  10  -7 1875.93 148.224  12
  -7  10  -7 1678.14 150.461   1
  -7  10  -7 1686.57 135.613   7
  -7  10  -8 5381.34 260.431   1
  -7  10  -8 5231.06 249.102   7
  -7   9  11 1017.22 116.990   9
   7  -9 -11 1389.27 133.000   4
   7  -9 -11 1204.97 130.214  14
   7  -9 -10 201.042 82.5412   4
   7  -9 -10 237.704 77.9588  14
  -7   9  10 184.929 76.3103   9
  -7   9  10 206.213 85.9380   8
  -7   9   9 5203.41 247.996   1
   7  -9  -9 4961.09 227.797  14
  -7   9   9 4389.37 213.246   9
  -7   9   9 4980.95 260.850   8
   7  -9  -9 4948.82 238.471   4
  -7   9   8 4794.82 243.756   1
   7  -9  -8 4979.68 223.893  14
  -7   9   8 4643.73 210.715   9
  -7   9   8 4714.35 259.605   8
   7  -9  -8 5052.55 234.257   4
   7  -9  -7 594.056 82.1834  14
  -7   9   7 545.554 104.801   1
  -7   9   7 579.452 110.591   8
   7  -9  -7 533.832 87.9052   4
   7  -9  -6 1197.97 99.3042  14
  -7   9   6 1101.51 139.417   8
  -7   9   6 1354.91 139.292   1
   7  -9  -6 1173.59 80.2937  13
   7  -9  -5 2622.34 147.343  14
  -7   9   5 2404.61 185.074   1
   7  -9  -5 2694.07 124.876  13
   7  -9  -4 1869.63 119.580  14
  -7   9   4 1796.11 154.803   8
   7  -9  -4 1984.78 108.369  13
   7  -9  -3 2807.19 144.450  14
  -7   9   3 2349.77 167.628   8
  -7   9   3 2644.46 202.348   1
   7  -9  -3 2983.94 139.094  13
   7  -9  -2 540.014 70.4714  13
   7  -9  -2 410.054 66.6433  14
  -7   9   2 496.129 84.9892   8
  -7   9   2 653.378 123.309   1
  -7   9   1 2153.70 200.636   1
   7  -9  -1 2191.09 130.225  13
   7  -9  -1 2209.57 127.396  14
   7  -9  -1 2173.12 102.009  11
  -7   9   1 2195.45 146.566   8
  -7   9   1 2284.03 128.107   7
   7  -9   0 9057.13 280.890  11
   7  -9   0 9318.41 309.322  14
  -7   9   0 9539.90 313.406   7
   7  -9   0 9608.95 319.849  13
   7  -9   1 5163.88 210.865  14
   7  -9   1 5433.25 226.281  13
  -7   9  -1 5276.59 214.877   7
  -7   9  -1 5279.49 288.709   1
  -7   9  -2 499.111 72.7913  12
  -7   9  -2 503.251 72.7057   7
  -7   9  -2 545.928 100.972   1
   7  -9   2 493.816 80.2391  13
   7  -9   3 6685.67 272.338  13
  -7   9  -3 6351.24 246.204   7
  -7   9  -3 6566.09 311.602   1
  -7   9  -3 6970.77 262.498  12
   7  -9   4 4259.04 213.963  13
  -7   9  -4 3994.56 190.173   7
  -7   9  -4 4203.43 235.258   1
  -7   9  -4 4166.59 197.707  12
   7  -9   5 614.961 98.4321  13
  -7   9  -5 721.443 86.5554   7
  -7   9  -5 606.632 103.527   1
  -7   9  -5 593.064 87.9634  12
  -7   9  -6 189.907 84.5569   1
  -7   9  -6-6.37192 56.9265   7
  -7   9  -6 64.4027 65.9179  12
  -7   9  -7 470.595 90.8748  12
  -7   9  -7 590.090 101.210   1
  -7   9  -8 2122.72 158.635  12
  -7   9  -8 2238.90 155.775   7
   7  -9   8 1958.87 173.476  13
  -7   9  -9 2060.11 158.280   7
  -7   8  12 685.185 111.885   9
   7  -8 -12 909.841 118.265   4
   7  -8 -12 730.011 110.777  14
   7  -8 -11 739.187 109.235   4
  -7   8  11 1006.30 115.234   9
  -7   8  11 784.701 115.310   8
   7  -8 -11 917.574 119.764  14
   7  -8 -10 192.219 80.7632   4
   7  -8 -10 341.676 83.3824  14
  -7   8  10 383.619 81.8235   9
  -7   8  10 284.433 89.1692   8
   7  -8  -9 1053.76 106.074  14
  -7   8   9 920.026 99.0990   9
  -7   8   9 986.808 126.348   8
   7  -8  -9 1031.75 112.389   4
  -7   8   9 932.354 110.456   1
   7  -8  -8 5358.14 222.331  14
  -7   8   8 5260.00 246.877   1
  -7   8   8 4793.45 214.455   9
  -7   8   8 5066.35 266.651   8
   7  -8  -8 4779.74 187.020   5
   7  -8  -8 5049.70 233.314   4
   7  -8  -7 4047.27 144.836  13
   7  -8  -7 4558.58 195.954  14
  -7   8   7 4004.99 221.851   1
  -7   8   7 4124.54 250.616   8
   7  -8  -7 4014.83 176.055   5
   7  -8  -7 4390.84 208.159   4
  -7   8   6 218.900 80.9790   1
   7  -8  -6 105.928 39.6032  13
   7  -8  -6 127.838 55.4153  14
   7  -8  -6 43.6518 49.4013   5
  -7   8   6 75.4001 75.0263   8
   7  -8  -5 5507.23 211.840  14
   7  -8  -5 5213.91 181.433  13
   7  -8  -5 5006.45 192.508   6
   7  -8  -5 4973.52 223.757   5
  -7   8   5 5241.92 266.186   1
   7  -8  -4 6792.88 238.226  14
   7  -8  -4 6633.93 218.528  13
   7  -8  -4 6316.41 212.571   6
   7  -8  -4 6174.07 170.915  11
   7  -8  -4 7006.26 282.142   5
  -7   8   4 6624.16 316.337   1
  -7   8   3 723.063 118.473   1
   7  -8  -3 816.463 77.8956  14
   7  -8  -3 962.991 78.3704  13
   7  -8  -3 660.773 55.9747   6
   7  -8  -3 695.362 46.7980  11
  -7   8   3 683.944 92.9303   8
   7  -8  -3 778.821 94.5177   5
  -7   8   2-26.5969 68.1414   1
   7  -8  -2-31.1692 44.0703  14
   7  -8  -2 39.7121 39.4122  13
   7  -8  -2 43.7421 26.1460   6
   7  -8  -2 12.4074 27.2047  11
   7  -8  -2 8.08680 36.3440   9
   7  -8  -2 45.9215 63.8873   5
  -7   8   1 237.295 93.7680   1
   7  -8  -1 160.765 48.3063  14
   7  -8  -1 230.921 54.2129  13
  -7   8   1 130.462 49.2861   7
   7  -8  -1 225.929 26.6134   6
   7  -8  -1 156.784 25.3389   6
   7  -8  -1 152.564 40.2877  11
   7  -8  -1 237.576 49.5710   9
   7  -8  -1 234.440 70.8004   5
   7  -8   0 2608.50 168.945   5
   7  -8   0 2433.47 137.363  13
   7  -8   0 2479.08 127.517  14
   7  -8   0 2592.16 124.837   9
  -7   8   0 2388.93 130.352   7
   7  -8   1 7170.67 310.381   5
   7  -8   1 7721.81 264.973  14
   7  -8   1 7949.58 282.627  13
  -7   8  -1 8012.21 268.773   7
   7  -8   1 7863.93 255.030   9
  -7   8  -1 7653.09 349.041   1
  -7   8  -2 2542.82 133.834   7
  -7   8  -2 2317.47 135.189  12
   7  -8   2 2268.60 140.074  13
   7  -8   2 2202.98 163.242   5
  -7   8  -2 2569.38 188.504   1
   7  -8   3 1177.53 111.464  13
  -7   8  -3 1284.39 98.5213   7
  -7   8  -3 1425.29 136.656   1
  -7   8  -3 1297.52 104.910  12
   7  -8   4 8321.02 325.835  13
  -7   8  -4 8823.25 295.496   7
  -7   8  -4 8583.72 346.097   1
  -7   8  -4 8493.99 304.736  12
   7  -8   5 4102.02 222.352  13
  -7   8  -5 4401.76 194.683   7
  -7   8  -5 4598.23 208.080  12
  -7   8  -5 4690.26 239.652   1
  -7   8  -6 40.9998 60.6632  12
  -7   8  -6 64.6788 71.3065   1
  -7   8  -6 88.9303 55.5893   7
  -7   8  -7 1683.93 135.649  12
  -7   8  -7 1440.47 118.367   7
   7  -8   7 1445.33 151.726  13
  -7   8  -8 954.114 114.854  12
  -7   8  -8 1013.49 106.163   7
   7  -8   8 906.935 129.716  13
  -7   8  -9 968.335 120.984  12
  -7   8  -9 723.216 103.796   7
   7  -7 -13 973.581 122.916   4
   7  -7 -13 908.634 127.546  14
  -7   7  12 2063.38 162.869   9
   7  -7 -12 1953.30 158.275   4
  -7   7  12 1759.30 155.261   3
   7  -7 -12 1816.56 149.841  14
  -7   7  11 1370.06 127.988   9
  -7   7  11 1262.26 125.062   3
   7  -7 -11 1294.03 127.851   4
   7  -7 -11 1283.81 124.615  14
  -7   7  10 22.8206 55.1326   3
  -7   7  10 80.7336 58.0832   9
   7  -7 -10 63.5807 73.2048   4
   7  -7 -10 32.9568 62.8461  14
  -7   7   9 53.3798 54.0626   9
   7  -7  -9 40.9316 38.5042   5
   7  -7  -9 7.55070 66.5846   4
   7  -7  -9 5.98608 56.4332  14
  -7   7   8 1492.97 129.705   1
   7  -7  -8 1420.71 108.112  14
  -7   7   8 1507.49 115.242   9
   7  -7  -8 1493.60 98.3828   5
   7  -7  -8 1465.88 124.703   4
  -7   7   7 7708.10 312.158   1
   7  -7  -7 7637.22 264.990  14
  -7   7   7 7261.23 347.506   8
   7  -7  -7 7139.01 210.020  13
   7  -7  -7 7191.25 259.786   5
   7  -7  -7 7520.51 288.733   4
   7  -7  -6 2346.73 101.622  13
   7  -7  -6 2594.39 134.641  14
  -7   7   6 2626.03 174.627   1
   7  -7  -6 2500.63 145.440   5
   7  -7  -6 2952.44 160.964   4
   7  -7  -5 1505.95 80.0643  13
   7  -7  -5 1649.77 102.951  14
   7  -7  -5 1022.18 32.4278  11
   7  -7  -5 1080.97 32.9759  11
  -7   7   5 1772.21 148.814   1
   7  -7  -5 1369.65 109.728   5
   7  -7  -4 9589.10 283.373  13
   7  -7  -4 9735.09 298.610  14
   7  -7  -4 9128.42 243.585  11
   7  -7  -4 9416.71 242.544  11
   7  -7  -4 9849.25 337.418   5
  -7   7   4 10000.9 401.541   1
  -7   7   3 7919.91 371.411   1
   7  -7  -3 7870.77 252.849  13
   7  -7  -3 7942.85 257.234  14
   7  -7  -3 7908.77 297.282   5
   7  -7  -2 31.4761 38.5439  14
   7  -7  -2 37.1145 39.5385  13
  -7   7   2 93.7149 81.8366   1
   7  -7  -2-4.14688 41.4696   9
   7  -7  -2 80.1853 52.8776   5
   7  -7  -1 2068.16 137.965   5
   7  -7  -1 1953.86 106.528  14
   7  -7  -1 2235.55 119.246  13
  -7   7   1 2127.99 191.770   1
   7  -7  -1 1811.99 70.5560   6
   7  -7  -1 1799.47 69.3329   6
   7  -7  -1 2098.25 110.616   9
  -7   7   1 2020.30 110.864   7
   7  -7   0 1516.63 119.847   5
   7  -7   0 1411.02 93.5900  14
  -7   7   0 1605.28 98.3028   7
   7  -7   0 1516.62 96.7559   9
   7  -7   0 1343.28 101.132  13
  -7   7  -1 1816.87 106.276   7
  -7   7  -1 1857.03 113.081  12
   7  -7   1 1756.30 118.378  13
   7  -7   1 1768.64 132.712   5
  -7   7  -1 1709.17 154.183   1
  -7   7  -2 2551.43 128.763   7
   7  -7   2 2235.17 148.128   8
   7  -7   2 2328.70 142.146  13
  -7   7  -2 2329.48 130.107  12
   7  -7   2 2225.40 156.157   5
  -7   7  -2 2489.67 178.511   1
  -7   7  -3 264.301 60.0950  12
  -7   7  -3 253.269 53.6836   7
  -7   7  -3 343.689 87.3982   1
   7  -7   3 187.618 61.2317  13
   7  -7   4 3651.64 192.248  13
  -7   7  -4 3188.74 161.458  12
  -7   7  -4 3243.13 194.251   1
   7  -7   4 3040.50 189.040   5
  -7   7  -4 3221.57 155.393   7
  -7   7  -5 7509.27 279.563  12
  -7   7  -5 7712.74 266.907   7
   7  -7   5 6791.29 299.245  13
  -7   7  -6 2491.41 141.244   7
  -7   7  -6 2374.42 150.401  12
  -7   7  -7 494.490 78.3100   7
  -7   7  -7 484.315 87.7046  12
   7  -7   7 415.497 96.2102  13
   7  -7   8 2761.25 191.836  13
  -7   7  -8 3007.81 167.020   7
  -7   7  -8 2729.29 176.656  12
  -7   7  -9 2400.89 172.315  12
   7  -7   9 2146.02 170.551  13
   7  -6 -14 947.688 130.965   4
   7  -6 -14 974.246 124.098  14
  -7   6  13 636.816 106.978   3
  -7   6  13 609.283 110.690   9
   7  -6 -13 441.771 99.2396   4
   7  -6 -13 612.246 104.003  14
  -7   6  12 4259.99 230.799   9
   7  -6 -12 4451.39 236.048   4
  -7   6  12 4095.42 223.836   3
   7  -6 -12 4174.40 217.671  14
  -7   6  11 2906.17 183.026   9
  -7   6  11 3024.32 187.272   3
   7  -6 -11 3570.40 199.825   4
   7  -6 -11 3166.45 176.674  14
  -7   6  10 339.798 74.8157   3
   7  -6 -10 185.015 62.5400  14
   7  -6 -10 236.032 80.4393   4
   7  -6 -10 253.618 52.0558   5
  -7   6  10 274.540 69.8666   9
   7  -6  -9 422.216 69.5771  14
  -7   6   9 415.774 74.9391   9
   7  -6  -9 397.874 81.3551   4
   7  -6  -9 336.638 55.9627   5
   7  -6  -8 2226.21 127.144  14
   7  -6  -8 2035.98 121.253   5
  -7   6   8 2367.68 139.438   9
   7  -6  -8 2268.58 148.548   4
   7  -6  -7 1678.44 113.574   5
   7  -6  -7 1423.10 66.2303  13
   7  -6  -7 1549.59 120.646   4
   7  -6  -7 1702.28 105.385  14
   7  -6  -6 2950.00 136.712  14
   7  -6  -6 2865.45 108.295  13
   7  -6  -6 2753.07 150.535   5
   7  -6  -6 2825.94 161.141   4
  -7   6   6 3236.67 193.802   1
   7  -6  -5 1011.40 63.3431  13
   7  -6  -5 833.695 83.7119   5
   7  -6  -5 843.595 38.8381  11
   7  -6  -5 837.644 38.1893  11
  -7   6   5 937.417 112.562   1
   7  -6  -5 973.279 76.2395  14
   7  -6  -4 3851.38 152.627  14
   7  -6  -4 3772.98 143.176  13
   7  -6  -4 3997.61 181.291   5
   7  -6  -4 3868.96 154.390  12
   7  -6  -4 3861.24 121.135  11
  -7   6   4 3839.06 231.310   1
   7  -6  -4 3386.27 146.524   7
   7  -6  -3 14194.9 387.838  14
   7  -6  -3 14578.8 392.912  12
   7  -6  -3 14109.4 389.162  13
   7  -6  -3 14159.9 432.940   5
   7  -6  -3 13545.7 361.745  11
   7  -6  -3 13838.4 387.996   7
  -7   6   3 13557.6 524.034   1
  -7   6   2 3731.80 250.640   1
   7  -6  -2 3534.89 143.888  14
   7  -6  -2 3769.25 153.756  13
   7  -6  -2 3484.23 146.125  12
   7  -6  -2 3655.44 124.885   6
   7  -6  -2 3859.06 179.404   5
   7  -6  -2 4037.62 161.831   9
   7  -6  -2 3641.44 146.505   7
   7  -6  -1 644.297 78.3781   5
   7  -6  -1 575.823 57.6138  14
   7  -6  -1 665.739 71.1301  13
   7  -6  -1 627.083 40.4674   6
   7  -6  -1 559.863 62.7665  12
   7  -6  -1 782.655 72.4819   9
   7  -6  -1 666.481 60.6400   7
  -7   6   1 771.084 68.4258   7
   7  -6   0 9387.01 294.050  13
   7  -6   0 9016.54 264.576  14
   7  -6   0 9386.94 269.736  12
  -7   6   0 10077.8 276.186   7
   7  -6   0 9186.77 262.466   7
   7  -6   0 9170.34 311.833   5
   7  -6   0 7888.83 202.662   6
   7  -6   0 7988.81 203.941   6
   7  -6   1 4108.53 185.982  13
   7  -6   1 4117.56 157.907   7
   7  -6   1 4674.04 218.677   8
  -7   6  -1 4295.90 164.319   7
  -7   6  -1 3943.03 228.600   1
  -7   6  -1 4131.19 171.372  12
   7  -6   2 511.340 75.5774  13
  -7   6  -2 494.780 62.8356  12
   7  -6   2 366.100 49.4764   7
  -7   6  -2 625.115 65.5106   7
   7  -6   2 377.447 70.2454   8
  -7   6  -2 303.753 81.9022   1
   7  -6   3 33.8421 51.3501  13
  -7   6  -3 32.4373 38.2221   7
  -7   6  -3 9.73369 45.3539  12
   7  -6   3-79.3417 57.0719   5
   7  -6   3 10.7524 36.3750   7
  -7   6  -4 241.785 58.3919  12
  -7   6  -4 285.578 54.8265   7
   7  -6   4 280.763 76.0937   5
   7  -6   4 225.602 70.7257  13
  -7   6  -5 4296.47 190.128  12
  -7   6  -5 3905.39 170.099   7
   7  -6   5 3714.73 208.675   5
  -7   6  -6 5173.26 226.525  12
   7  -6   6 5046.09 254.316   5
  -7   6  -6 5495.77 213.589   7
  -7   6  -7 803.907 85.3249   7
   7  -6   7 703.929 106.997  13
  -7   6  -7 803.083 94.1847  12
  -7   6  -8 1604.36 134.066  12
   7  -6   8 1582.05 144.357  13
  -7   6  -9 4451.31 229.258  12
   7  -6   9 4019.15 224.694  13
   7  -5 -15 1116.24 123.605  14
   7  -5 -14 660.382 118.102   4
   7  -5 -14 698.831 102.805  14
  -7   5  13 285.158 82.9132   3
   7  -5 -13 223.795 79.6636  14
   7  -5 -13 191.530 89.0380   4
  -7   5  13 320.239 96.2086   9
   7  -5 -12 1581.99 134.106  14
  -7   5  12 1934.11 150.700   9
   7  -5 -12 2209.60 163.973   4
  -7   5  12 1869.93 149.553   3
   7  -5 -11 7899.98 257.806   5
   7  -5 -11 8331.78 307.721  14
  -7   5  11 8456.05 324.649   9
   7  -5 -11 7916.05 324.740   4
   7  -5 -10 3798.52 166.446   5
  -7   5  10 4228.46 206.612   9
   7  -5 -10 4573.85 223.377   4
   7  -5 -10 4135.71 190.252  14
  -7   5   9 207.070 65.5184   3
   7  -5  -9 146.785 54.1824  14
  -7   5   9 84.6131 53.2518   9
   7  -5  -9 134.870 62.6428   4
   7  -5  -9 233.110 57.3702   5
   7  -5  -8 4347.27 176.746  14
   7  -5  -8 4193.71 187.379   5
  -7   5   8 4255.85 195.185   9
  -7   5   8 4407.79 200.658   3
   7  -5  -8 4410.15 213.714   4
   7  -5  -7 4232.89 126.212  13
   7  -5  -7 4077.27 184.257   5
   7  -5  -7 4433.30 170.399  14
   7  -5  -7 4607.95 210.834   4
   7  -5  -6 536.815 41.4954  13
   7  -5  -6 427.802 24.8793  11
   7  -5  -6 511.955 57.7438  12
   7  -5  -6 517.198 55.3561  14
   7  -5  -6 414.674 71.8366   4
   7  -5  -6 387.255 64.0898   5
   7  -5  -5 129.499 35.0961  14
   7  -5  -5 176.724 32.4403  13
   7  -5  -5 219.563 48.3288   7
   7  -5  -5 283.033 45.1423  12
   7  -5  -5 224.980 26.3570  11
   7  -5  -5 160.339 54.8963   4
   7  -5  -5 107.254 47.1723   5
   7  -5  -4 32.2189 40.7479   5
   7  -5  -4 68.8106 34.7260  14
   7  -5  -4 26.1258 32.0984  13
   7  -5  -4 26.4690 33.4242  12
   7  -5  -4 46.8990 24.0854  11
   7  -5  -4 13.3439 35.9590   7
   7  -5  -3 4141.87 152.657  12
   7  -5  -3 4107.75 152.934  13
   7  -5  -3 4154.27 183.372   5
   7  -5  -3 3678.85 139.415   6
   7  -5  -3 4090.23 139.942  11
   7  -5  -3 4052.74 146.525  14
   7  -5  -3 3905.99 147.883   7
   7  -5  -2 11578.3 323.811  12
   7  -5  -2 10859.7 330.874  13
   7  -5  -2 11377.6 316.183  14
   7  -5  -2 11367.8 318.802   7
   7  -5  -2 11154.4 301.822   6
   7  -5  -2 11304.0 363.970   5
   7  -5  -1 2080.33 101.946  12
   7  -5  -1 2177.06 129.997   5
   7  -5  -1 1990.04 78.7652   6
   7  -5  -1 1953.65 98.6871  14
   7  -5  -1 2152.42 115.339  13
   7  -5  -1 2022.91 97.5591   7
   7  -5   0 4297.54 162.084  12
   7  -5   0 4210.44 123.049   6
  -7   5   0 4631.23 171.581  12
   7  -5   0 4450.51 186.334  13
  -7   5   0 4514.72 162.533   7
   7  -5   0 4440.03 157.533   7
   7  -5   0 4548.86 210.427   8
  -7   5  -1 14080.5 397.400  12
   7  -5   1 14560.8 392.620  12
   7  -5   1 13717.1 425.671  13
   7  -5   1 13559.8 376.339   7
   7  -5   1 14812.8 458.012   8
  -7   5  -1 13535.6 381.786   7
   7  -5   2 4708.24 216.853  13
  -7   5  -2 4958.28 189.489  12
   7  -5   2 5202.74 223.422   5
   7  -5   2 4835.84 213.252   8
  -7   5  -2 4918.19 177.207   7
   7  -5   2 5218.96 174.420   7
   7  -5   3 83.6557 52.9932  13
  -7   5  -3 109.391 46.6024  12
  -7   5  -3 146.310 43.0101   7
   7  -5   3 202.630 63.7571   5
   7  -5   3 186.547 40.2454   7
   7  -5   3 159.135 52.7067   8
   7  -5   4 848.997 102.904  13
   7  -5   4 1096.38 86.9595  14
   7  -5   4 1205.15 114.354   5
  -7   5  -4 1013.18 77.4445   7
  -7   5  -4 1055.29 90.6982  12
   7  -5   5 1343.17 120.858   5
  -7   5  -5 1383.27 92.8881   7
  -7   5  -5 1413.04 107.148  12
   7  -5   6 2415.99 166.734   5
  -7   5  -6 2536.53 130.880   7
  -7   5  -6 2445.66 145.529  12
  -7   5  -7 1745.71 127.335  12
   7  -5   7 1831.23 153.845   5
   7  -5   7 1385.18 132.849  13
  -7   5  -8 51.8156 62.6814  12
   7  -5   8 16.8238 57.3356  13
   7  -5   9 1731.77 143.834  13
  -7   5  -9 1697.48 142.592  12
   7  -4 -15 950.702 107.103  14
   7  -4 -14 564.326 91.7218  14
  -7   4  14 695.743 117.261   3
   7  -4 -14 520.787 109.185   4
   7  -4 -13 122.288 68.3389  14
   7  -4 -13 158.607 81.7906   4
   7  -4 -12 131.309 62.6590  14
   7  -4 -12 131.691 71.7333   4
   7  -4 -11 2131.64 121.156   5
   7  -4 -11 2525.21 151.004  14
   7  -4 -11 1973.81 151.870   4
  -7   4  11 2228.01 152.369   3
   7  -4 -10 5812.07 232.131   5
   7  -4 -10 6215.95 244.066  14
  -7   4  10 6441.06 264.317   3
   7  -4  -9 1885.01 123.451   5
  -7   4   9 2241.71 140.925   3
   7  -4  -9 2371.89 155.483   4
   7  -4  -9 2240.41 123.921  14
   7  -4  -8 2721.93 146.460   5
   7  -4  -8 2946.76 130.956  12
  -7   4   8 3031.35 157.430   3
   7  -4  -8 3165.03 175.874   4
   7  -4  -8 2669.76 130.714  14
   7  -4  -7 9516.62 248.758  13
   7  -4  -7 10822.1 333.792   5
   7  -4  -7 9719.85 241.036  11
   7  -4  -7 10644.5 299.247  12
  -7   4   7 11015.7 340.719   3
   7  -4  -7 11113.5 363.129   4
   7  -4  -7 10482.6 300.499  14
   7  -4  -6 5534.61 182.970  14
   7  -4  -6 5428.29 160.841  13
   7  -4  -6 5613.60 217.675   5
   7  -4  -6 5781.05 188.016  12
   7  -4  -6 5294.38 151.280  11
   7  -4  -6 5257.97 187.170   7
   7  -4  -6 5718.14 235.329   4
   7  -4  -5 130.961 33.6184  14
   7  -4  -5 74.8039 28.7201  13
   7  -4  -5 97.8845 35.9354   7
   7  -4  -5 69.7326 32.7126  12
   7  -4  -5 37.2522 24.3869  11
   7  -4  -5 51.7544 44.4650   5
   7  -4  -4 1966.70 95.0841  12
   7  -4  -4 2009.29 121.816   5
   7  -4  -4 1848.30 96.5350   6
   7  -4  -4 2052.01 87.1873  11
   7  -4  -4 1888.41 86.4439  14
   7  -4  -4 1969.25 92.2399  13
   7  -4  -4 1924.98 95.6779   7
   7  -4  -3 1452.71 72.8288  14
   7  -4  -3 1495.93 85.2434  13
   7  -4  -3 1433.73 80.3034  12
   7  -4  -3 1495.60 80.4745   6
   7  -4  -3 1362.88 100.840   5
   7  -4  -3 1395.64 77.0967  11
   7  -4  -3 1693.54 115.882   4
   7  -4  -3 1506.71 79.1777   7
   7  -4  -2 4829.00 162.985  12
   7  -4  -2 4847.09 156.337   6
   7  -4  -2 4805.24 201.201   5
   7  -4  -2 4259.31 162.329  11
   7  -4  -2 4842.43 179.770  13
   7  -4  -2 4530.43 150.865  14
   7  -4  -2 4856.87 159.805   7
   7  -4  -1 7032.66 207.580  14
   7  -4  -1 6832.01 242.005  13
   7  -4  -1 7254.33 219.262  12
   7  -4  -1 6683.85 198.784   6
   7  -4  -1 7001.41 272.257   8
   7  -4  -1 7245.01 212.071   7
  -7   4   0 454.684 52.1952  12
   7  -4   0 447.763 34.8017   6
   7  -4   0 425.574 61.3516  13
   7  -4   0 467.356 53.7557  12
   7  -4   0 515.634 49.0171   7
  -7   4   0 389.229 45.8103   7
   7  -4   0 420.119 69.3235   8
   7  -4   1 6549.84 255.579  13
   7  -4   1 7001.14 217.771  12
   7  -4   1 6342.67 172.497   6
   7  -4   1 6946.59 259.739   5
  -7   4  -1 6633.31 218.397  12
   7  -4   1 7061.04 269.933   8
  -7   4  -1 6847.66 210.440   7
   7  -4   1 6574.68 202.273   7
   7  -4   2 10998.7 389.252  13
   7  -4   2 11597.7 342.606  12
   7  -4   2 11681.2 393.406   5
  -7   4  -2 11748.1 349.015  12
   7  -4   2 12383.7 393.636   8
  -7   4  -2 12225.6 332.114   7
   7  -4   2 12547.0 329.254   7
   7  -4   3 4086.03 194.436   5
   7  -4   3 3867.29 160.570  12
   7  -4   3 3703.37 200.831  13
   7  -4   3 3914.93 163.804  14
  -7   4  -3 4030.31 165.180  12
   7  -4   3 4159.17 184.704   8
  -7   4  -3 3950.49 147.409   7
   7  -4   4 752.956 100.958  13
   7  -4   4 757.233 79.1432  14
  -7   4  -4 863.256 79.6284  12
   7  -4   4 787.678 93.4798   5
  -7   4  -4 794.470 65.9039   7
  -7   4  -5 4417.37 189.408  12
   7  -4   5 4549.82 215.387   5
  -7   4  -5 4144.87 163.500   7
   7  -4   6 2208.04 152.062   5
  -7   4  -6 2139.24 134.261  12
   7  -4   7 420.607 86.9048  13
   7  -4   7 402.128 90.4777   5
  -7   4  -7 422.481 76.4596  12
   7  -4   8 155.734 74.2060  13
  -7   4  -8 146.073 71.2379  12
   7  -4   9 517.349 93.7480  13
  -7   4  -9 541.374 97.2042  12
  -7   4 -10 2193.94 172.184  12
  -7   3  14 1839.95 163.751   9
   7  -3 -14 2162.36 179.978   4
   7  -3 -13 235.811 67.0946  14
  -7   3  13 318.110 84.9027   9
   7  -3 -13 261.399 90.9346   4
  -7   3  13 252.343 81.0047   3
   7  -3 -12 354.785 68.3230  14
  -7   3  12 312.039 78.3064   9
   7  -3 -12 432.980 89.6765   4
  -7   3  12 453.116 90.8200   3
   7  -3 -11 366.317 65.4065  14
  -7   3  11 343.279 69.5575   9
   7  -3 -11 238.388 72.4921   4
  -7   3  11 423.674 80.8190   3
   7  -3 -10 1980.38 120.553  14
  -7   3  10 1884.87 132.964   9
  -7   3  10 2155.42 138.686   3
   7  -3  -9 6595.78 241.092  14
  -7   3   9 6595.08 262.983   9
   7  -3  -9 6850.62 226.775  12
  -7   3   9 6999.52 266.877   3
   7  -3  -9 6959.91 285.934   4
   7  -3  -8 1022.08 45.4886  11
   7  -3  -8 1139.73 74.8536  12
  -7   3   8 996.264 91.7439   3
   7  -3  -8 1089.35 108.105   4
   7  -3  -8 1169.28 80.1357  14
   7  -3  -7 5203.24 176.887  14
   7  -3  -7 4727.46 135.802  13
   7  -3  -7 5218.54 174.736  12
   7  -3  -7 5019.75 145.464  11
  -7   3   7 5931.68 218.890   3
   7  -3  -7 5582.76 236.861   4
   7  -3  -7 5270.74 182.891   7
   7  -3  -6 14766.1 383.093  13
   7  -3  -6 15915.4 440.984   6
   7  -3  -6 15509.4 401.217  14
   7  -3  -6 15453.2 412.035   7
   7  -3  -6 15325.6 387.006  11
   7  -3  -6 15806.7 406.879  12
   7  -3  -5 4769.44 177.513   6
   7  -3  -5 4770.07 196.889   5
   7  -3  -5 4561.88 154.741  12
   7  -3  -5 4509.32 147.975  11
   7  -3  -5 4349.20 144.079  14
   7  -3  -5 4663.65 151.405  13
   7  -3  -5 4728.61 159.370   7
   7  -3  -4 977.671 65.6471  13
   7  -3  -4 1037.89 54.0539  14
   7  -3  -4 946.852 61.3957  12
   7  -3  -4 898.727 70.0652   6
   7  -3  -4 938.302 84.6736   5
   7  -3  -4 1109.03 66.0579  11
   7  -3  -4 976.683 92.5676   4
   7  -3  -4 987.005 62.4991   7
   7  -3  -3 6598.36 218.517  13
   7  -3  -3 6408.91 183.920  14
   7  -3  -3 6554.89 199.514  12
   7  -3  -3 6902.29 248.700   5
   7  -3  -3 6139.48 208.355   6
   7  -3  -3 6610.99 210.715  11
   7  -3  -3 6569.04 232.263   3
   7  -3  -3 6872.85 255.867   4
   7  -3  -3 6916.45 200.223   7
   7  -3  -2 3563.71 153.386  13
   7  -3  -2 3407.06 113.020  14
   7  -3  -2 3640.16 129.313  12
   7  -3  -2 3212.71 126.962   6
   7  -3  -2 3661.58 141.223  11
   7  -3  -2 3547.86 123.394   7
   7  -3  -2 3724.48 156.725   3
   7  -3  -2 3303.16 166.064   4
   7  -3  -1 1326.56 91.7801   3
   7  -3  -1 1196.52 97.8258   4
   7  -3  -1 1175.38 91.8660  13
   7  -3  -1 1127.62 58.8613  14
   7  -3  -1 1193.15 70.1584  12
   7  -3  -1 1253.26 68.5585   6
   7  -3  -1 1105.09 79.8607  11
   7  -3  -1 1194.75 105.579   8
   7  -3  -1 1346.18 66.4425   7
   7  -3   0 965.864 79.6013   3
   7  -3   0 916.773 90.8291  13
   7  -3   0 1060.83 68.6775  12
   7  -3   0 956.541 55.4221   6
   7  -3   0 1043.18 91.1109   5
   7  -3   0 945.557 78.8292  11
  -7   3   0 1034.40 68.4581  12
   7  -3   0 995.401 94.8488   8
   7  -3   0 961.272 57.1624   7
   7  -3   1 324.746 47.1688  14
   7  -3   1 159.672 60.1089  13
   7  -3   1 226.211 30.1149   6
   7  -3   1 340.042 47.4620  12
  -7   3  -1 189.712 38.8520  12
   7  -3   1 211.127 62.2361   8
   7  -3   1 243.113 34.7071   7
   7  -3   1 244.603 61.0057   5
   7  -3   2 9354.69 284.048  12
   7  -3   2 9891.62 329.717   5
   7  -3   2 9071.04 242.380   6
  -7   3  -2 9449.34 286.316  12
   7  -3   2 10327.5 343.649   8
   7  -3   2 9858.23 294.439  14
   7  -3   2 9256.47 345.761  13
   7  -3   3 11434.3 350.285  14
   7  -3   3 10760.0 396.181  13
   7  -3   3 11254.6 336.638  12
  -7   3  -3 11642.0 336.859  12
  -7   3  -3 11130.7 307.434   7
   7  -3   3 11501.4 368.826   8
   7  -3   3 11482.6 375.839   5
  -7   3  -4 746.430 74.3223  12
   7  -3   4 778.458 91.3070   5
   7  -3   4 648.664 81.7729  14
   7  -3   4 856.431 103.957  13
  -7   3  -5 3525.73 165.397  12
   7  -3   5 3609.40 189.157   5
  -7   3  -6 6756.04 256.841  12
   7  -3   6 6896.17 284.614   5
  -7   3  -7 2110.36 137.409  12
   7  -3   7 1788.99 147.610  13
   7  -3   7 2123.01 151.366   5
   7  -3   8 49.2061 60.5663  13
   7  -3   8 8.24666 82.0418   5
  -7   3  -8 58.2608 60.7963  12
  -7   3  -9 461.953 95.7998  12
  -7   3 -10 880.306 123.354  12
   7  -2 -16 86.7099 75.2614  12
  -7   2  14 5046.48 262.370   9
  -7   2  14 5111.12 266.653   3
   7  -2 -14 5036.90 279.844   4
  -7   2  13 1770.16 148.212   9
  -7   2  13 1547.53 143.837   3
   7  -2 -13 1978.54 167.939   4
  -7   2  12 47.8686 60.5384   9
  -7   2  12 66.0761 65.8880   3
   7  -2 -12 37.7902 69.7735   4
   7  -2 -11 2239.36 126.260  14
  -7   2  11 2426.19 157.221   3
   7  -2 -11 2471.59 171.887   4
  -7   2  11 2393.52 154.158   9
   7  -2 -10 4390.06 178.024  14
  -7   2  10 4727.03 211.149   9
   7  -2 -10 4261.50 225.663   4
  -7   2  10 4325.76 206.022   3
   7  -2  -9 2078.20 150.835   4
  -7   2   9 1998.43 129.813   3
   7  -2  -9 1997.60 107.150  14
   7  -2  -9 2098.83 76.6006  11
   7  -2  -9 2141.34 103.487  12
   7  -2  -8 1275.14 80.3684  14
   7  -2  -8 1350.73 62.2342  11
   7  -2  -8 1375.93 75.9261  12
   7  -2  -8 1314.81 87.3499   7
   7  -2  -8 1512.29 125.164   4
  -7   2   8 1390.79 104.517   3
   7  -2  -7 128.178 32.5634  14
   7  -2  -7 134.726 20.8676  13
   7  -2  -7 164.655 34.8375  12
  -7   2   7 109.210 46.5625   3
   7  -2  -7 173.703 31.5450  11
   7  -2  -7 141.725 38.1620   7
   7  -2  -7 184.725 53.4364   6
   7  -2  -6 7416.38 209.783  13
   7  -2  -6 7501.54 221.608  14
   7  -2  -6 7758.84 260.287   6
   7  -2  -6 7728.44 220.686  11
   7  -2  -6 7562.41 218.683  12
  -7   2   6 7381.73 259.981   3
   7  -2  -6 7488.74 226.405   7
   7  -2  -5 15704.9 402.002  14
   7  -2  -5 15613.9 419.722  13
   7  -2  -5 16990.6 415.851  12
   7  -2  -5 17641.0 460.778   6
   7  -2  -5 16266.1 424.069  11
   7  -2  -5 16822.7 500.478   4
   7  -2  -5 16111.8 418.937   7
   7  -2  -4 3020.62 125.980  13
   7  -2  -4 2727.04 88.3641  14
   7  -2  -4 3175.61 111.023  12
   7  -2  -4 3257.65 134.853   6
   7  -2  -4 2800.09 121.366  11
   7  -2  -4 3437.22 171.073   4
   7  -2  -4 3094.61 141.542   3
   7  -2  -4 3160.70 112.279   7
   7  -2  -3 3649.78 152.730  13
   7  -2  -3 3453.69 101.285  14
   7  -2  -3 3854.91 127.335  12
   7  -2  -3 3792.78 145.613   6
   7  -2  -3 3874.59 145.789  11
   7  -2  -3 4128.67 164.450   3
   7  -2  -3 3676.93 180.275   4
   7  -2  -3 3847.84 125.013   7
   7  -2  -2 13835.7 331.021  14
   7  -2  -2 14728.9 361.103  12
   7  -2  -2 13817.3 376.124   6
   7  -2  -2 14918.4 391.956  11
   7  -2  -2 14747.5 402.080   3
   7  -2  -2 13551.3 426.120   4
   7  -2  -2 13899.7 349.317   7
   7  -2  -1 4215.15 121.143  14
   7  -2  -1 3883.94 136.368  14
   7  -2  -1 4296.98 142.847  12
   7  -2  -1 4222.65 187.100   5
   7  -2  -1 4107.72 146.874   6
   7  -2  -1 4204.53 167.907  11
   7  -2  -1 4122.60 128.795   7
   7  -2  -1 4099.37 166.216   3
   7  -2  -1 4386.35 193.982   4
   7  -2   0 107.003 51.0732   4
   7  -2   0 103.327 49.5214   5
   7  -2   0 103.577 42.7024   3
   7  -2   0 65.7655 31.9930  14
   7  -2   0 70.9568 30.4031   6
   7  -2   0 102.483 33.9121  12
  -7   2   0 107.180 33.3579  12
   7  -2   0 50.3031 41.4003  11
   7  -2   0 73.5080 24.2527   7
   7  -2   1 929.435 67.3335  12
   7  -2   1 952.206 57.7301   6
   7  -2   1 979.396 92.4634   5
   7  -2   1 816.044 82.1683  11
  -7   2  -1 997.528 66.9662  12
   7  -2   1 719.638 65.6046  14
   7  -2   1 1016.61 92.4977   4
   7  -2   1 971.232 78.4759   3
   7  -2   2 2323.38 112.642  12
   7  -2   2 2264.10 138.438  11
  -7   2  -2 2356.30 107.562  12
   7  -2   2 2116.72 132.431   5
   7  -2   2 2204.52 88.9646   6
   7  -2   2 2176.33 112.683  14
   7  -2   2 2171.77 135.184   4
   7  -2   2 2151.01 116.526   3
   7  -2   3 4568.80 182.905  14
   7  -2   3 5083.90 213.768   5
   7  -2   3 4694.12 147.028   6
   7  -2   3 4905.44 212.393   8
  -7   2  -3 4853.39 177.404  12
   7  -2   3 4482.16 206.490   4
  -7   2  -4 4511.55 176.403  12
   7  -2   4 4428.27 202.736   5
   7  -2   4 4083.17 188.529   4
   7  -2   5 23.6844 43.3758   4
   7  -2   5 45.6717 55.6408   5
  -7   2  -5 62.6895 50.8320  12
  -7   2  -6 5235.35 218.169  12
   7  -2   6 5694.71 245.797   5
  -7   2  -7 6801.24 265.582  12
   7  -2   7 6163.09 282.553  13
   7  -2   7 6952.68 286.105   5
   7  -2   8 789.485 109.204  13
   7  -2   8 841.422 111.917   5
  -7   2  -8 863.985 101.502  12
   7  -1 -15 40.9729 57.3368  12
   7  -1 -14 1537.56 115.457  12
  -7   1  14 1745.55 152.580   9
  -7   1  14 1712.38 156.907   3
  -7   1  13 6423.91 283.100   9
  -7   1  13 5802.61 278.427   3
   7  -1 -13 6225.44 306.614   4
  -7   1  12 1500.64 128.188   9
  -7   1  12 1071.01 113.189   3
   7  -1 -12 1483.48 148.837   4
  -7   1  11 2243.09 149.155   9
  -7   1  11 2250.40 152.760   3
   7  -1 -11 2552.27 177.550   4
   7  -1 -10 6324.61 185.657  11
  -7   1  10 6562.79 260.437   3
   7  -1 -10 6459.31 287.337   4
   7  -1 -10 6450.48 269.740   6
   7  -1  -9 2673.48 159.423   6
   7  -1  -9 2850.56 133.381   7
   7  -1  -9 2928.00 107.949  11
   7  -1  -9 3000.41 119.022  12
   7  -1  -9 3311.56 182.062  10
   7  -1  -9 3109.71 185.710   4
  -7   1   9 2894.11 155.042   3
   7  -1  -8 65.6916 37.1310   7
   7  -1  -8 75.9454 52.2031   6
   7  -1  -8 63.9235 28.7922  12
   7  -1  -8 17.1323 62.6879  10
   7  -1  -8 100.073 29.8099  11
  -7   1   8 71.2630 44.0981   3
   7  -1  -7 105.732 58.8954   4
   7  -1  -7 159.179 24.5507  13
   7  -1  -7 128.621 34.1936   7
   7  -1  -7 153.973 51.3013   6
   7  -1  -7 208.400 32.9809  12
   7  -1  -7 152.078 33.3653  11
  -7   1   7 191.392 52.2329   3
   7  -1  -6 650.664 49.4982  13
   7  -1  -6 706.387 45.4039  12
   7  -1  -6 691.676 73.9203   6
   7  -1  -6 657.115 56.8876  11
   7  -1  -6 689.912 51.9905   7
   7  -1  -6 845.273 91.7325   4
  -7   1   6 802.864 75.2385   3
   7  -1  -5 6736.93 186.575  12
   7  -1  -5 6969.79 236.397   6
   7  -1  -5 6583.71 211.483  11
   7  -1  -5 6353.23 192.578   7
   7  -1  -5 6878.12 237.243   3
   7  -1  -5 7121.32 275.623   4
   7  -1  -4 10265.3 266.174  12
   7  -1  -4 10592.9 302.235  11
   7  -1  -4 9895.61 268.595   7
   7  -1  -4 10084.5 316.173   3
   7  -1  -4 10343.7 357.567   4
   7  -1  -4 10460.7 312.258   6
   7  -1  -3-4.13753 38.1069   3
   7  -1  -3 3.08055 20.3002   7
   7  -1  -3 25.9248 32.8693   6
   7  -1  -3 1.74196 24.0659  12
   7  -1  -3 43.9228 34.5044  11
   7  -1  -3-6.61770 48.8680   4
   7  -1  -2 10794.5 280.022  12
   7  -1  -2 10327.4 306.430   6
   7  -1  -2 10888.2 322.054  11
   7  -1  -2 10689.0 318.294   3
   7  -1  -2 10626.8 360.395   4
   7  -1  -2 10217.4 263.289   7
   7  -1  -1 15207.3 386.681  12
   7  -1  -1 15696.7 450.128   5
   7  -1  -1 15019.1 402.945   6
   7  -1  -1 15680.6 430.665  11
   7  -1  -1 15403.3 418.840   3
   7  -1  -1 15349.9 468.229   4
   7  -1  -1 14064.7 354.978   7
   7  -1   0 2357.01 100.828  12
   7  -1   0 2189.42 101.526   6
   7  -1   0 2124.51 131.570   5
   7  -1   0 2038.59 79.3864  14
   7  -1   0 2190.38 112.938   3
   7  -1   0 2185.90 137.202   4
   7  -1   0 2225.11 125.076  11
   7  -1   1 1901.42 91.1416   6
   7  -1   1 1984.25 124.890   5
   7  -1   1 1702.22 88.5655  14
   7  -1   1 1773.81 102.156   3
   7  -1   1 1794.44 126.817   4
   7  -1   1 2117.99 125.594  11
  -7   1  -1 1923.86 88.3784  12
   7  -1   2 3495.61 131.362   6
   7  -1   2 3446.33 170.444   5
   7  -1   2 3273.67 145.161  14
   7  -1   2 3482.72 178.886   4
   7  -1   2 3427.66 149.269   3
  -7   1  -2 3670.45 137.001  12
   7  -1   2 3628.99 180.909  11
  -7   1  -3 2222.90 109.079  12
   7  -1   3 2425.64 153.926  11
   7  -1   3 2219.70 117.206   3
   7  -1   3 1984.02 121.130   4
   7  -1   3 2324.23 141.760   5
   7  -1   3 2129.23 95.7596   6
   7  -1   4 2204.27 138.739   5
  -7   1  -4 2119.97 112.939  12
   7  -1   4 1950.75 110.110   4
  -7   1  -5 256.737 58.4051  12
   7  -1   5 159.271 63.8764   5
  -7   1  -6 842.511 87.1774  12
   7  -1   6 597.625 118.402  11
   7  -1   6 765.798 98.2782   5
   7  -1   7 3856.64 201.969   5
   7  -1   7 3667.36 243.622  11
   7  -1   8 2854.70 178.706   5
   7  -1   8 2375.58 191.585  11
  -7   0  14 455.457 93.3240   9
  -7   0  14 340.942 90.9444   3
   7   0 -13 2212.21 123.349  12
  -7   0  13 2103.21 155.764   9
  -7   0  13 2197.57 163.865   3
   7   0 -12 4576.40 243.161   6
   7   0 -12 4400.80 178.696  12
  -7   0  12 4574.35 221.466   9
  -7   0  12 4214.88 219.388   3
   7   0 -12 4288.60 252.905   4
   7   0 -11 566.184 91.8018   6
   7   0 -11 745.164 115.099   4
  -7   0  11 627.388 84.4536   3
   7   0 -10 5690.58 183.392  11
   7   0 -10 6178.41 260.293   6
  -7   0  10 5897.84 243.085   3
   7   0 -10 5639.45 278.840   4
   7   0  -9 7629.51 229.496  11
  -7   0   9 7784.81 282.483   3
   7   0  -9 8058.63 301.393   6
  -7   0   8 2155.22 166.181   2
   7   0  -8 2005.79 70.4870  13
   7   0  -8 2005.04 69.7989  13
   7   0  -8 2093.48 135.721   6
   7   0  -8 2273.79 83.5858  12
   7   0  -8 2350.03 102.375  11
   7   0  -8 2467.07 107.718   7
   7   0  -8 2122.44 155.031   4
  -7   0   8 2390.89 130.717   3
   7   0  -7 655.687 52.2699   7
   7   0  -7 552.328 42.1730  13
   7   0  -7 612.231 38.0981  12
   7   0  -7 546.742 76.2397   6
   7   0  -7 638.944 57.8742  11
  -7   0   7 590.406 97.6803   2
   7   0  -7 428.508 81.9221   4
  -7   0   7 611.028 72.6777   3
   7   0  -6 4676.71 153.146   7
   7   0  -6 4900.82 135.884  12
   7   0  -6 5069.68 201.896   6
   7   0  -6 5043.09 174.936  11
  -7   0   6 5074.00 264.135   2
   7   0  -6 5334.74 240.645   4
  -7   0   6 5140.36 194.039   3
   7   0  -6 5117.54 196.884   3
   7   0  -5 2018.96 66.5045  12
   7   0  -5 2038.50 116.685   6
   7   0  -5 2102.84 104.909  11
   7   0  -5 1912.88 77.3662   7
   7   0  -5 2198.57 146.011   4
   7   0  -5 2107.72 114.870   3
   7   0  -4 1311.53 56.0540   7
   7   0  -4 1418.03 52.6767  12
   7   0  -4 1406.50 94.4977   6
   7   0  -4 1430.32 86.9853  11
  -7   0   4 1293.71 142.248   2
   7   0  -4 1472.61 119.890   4
   7   0  -4 1450.54 92.4491   3
   7   0  -3 2339.96 72.0342   7
   7   0  -3 2434.96 82.0709  12
   7   0  -3 2607.59 124.899  11
   7   0  -3 2483.67 123.062   6
  -7   0   3 2672.40 196.202   2
   7   0  -3 2527.37 156.760   4
   7   0  -3 2669.88 124.398   3
   7   0  -2 135.778 43.8990   6
   7   0  -2 240.091 63.4126   4
   7   0  -2 190.996 48.8951  11
  -7   0   2 117.611 68.8853   2
   7   0  -2 127.235 42.5871   3
   7   0  -1 9769.09 311.633  11
   7   0  -1 9280.76 290.831   3
   7   0  -1 9403.04 345.496   4
   7   0  -1 9800.24 291.542   6
  -7   0   1 10063.6 395.299   2
   7   0   0 10105.1 319.711  11
  -7   0   0 8989.17 250.617  12
   7   0   0 9415.42 286.627   3
   7   0   0 9179.21 340.531   4
  -7   0   0 9632.78 377.607   2
   7   0   0 9684.32 285.417   6
   7   0   0 9417.81 319.288   5
  -7   0  -1 657.931 98.6950   2
   7   0   1 668.451 42.8125  14
   7   0   1 755.976 83.5533   5
   7   0   1 757.518 63.8450   6
   7   0   1 616.145 79.3865  11
   7   0   1 786.402 66.9162   3
   7   0   1 605.709 76.8346   4
   7   0   2 4363.52 157.420   6
   7   0   2 4461.44 194.628   5
   7   0   2 4169.02 162.381   3
  -7   0  -2 4073.48 146.656  12
   7   0   2 4196.46 198.331  11
   7   0   3 5938.48 213.904   4
   7   0   3 6418.85 219.695   3
   7   0   3 6453.71 207.482   6
   7   0   4 711.658 86.9687   5
   7   0   5 58.8089 79.4417  11
   7   0   5 131.535 59.0894   5
   7   0   6 22.6064 88.7278  11
   7   0   6 98.7884 61.0383   5
   7   0   7 1050.46 147.028  11
   7   0   7 1075.72 115.039   5
  -7  -1  14 1243.71 131.250   9
  -7  -1  14 1292.64 138.043   3
  -7  -1  13 1794.45 141.252   9
  -7  -1  13 1598.12 142.935   3
  -7  -1  12 1143.98 116.048   3
   7   1 -11 1204.70 83.7842  12
   7   1 -11 1281.22 78.3820  11
   7   1 -11 1352.66 127.960   6
  -7  -1  11 1274.61 115.998   3
  -7  -1  11 1220.38 129.740   2
   7   1 -10 45.2471 62.4985   6
   7   1 -10 16.4579 35.3311  12
   7   1 -10 49.7412 38.2750  11
  -7  -1  10 152.178 77.3878   2
  -7  -1  10 69.8850 52.6556   3
   7   1  -9 6714.78 180.766  13
   7   1  -9 7378.53 213.618  12
   7   1  -9 9120.53 308.186   6
   7   1  -9 8204.96 237.370  11
  -7  -1   9 8047.14 331.862   2
  -7  -1   9 8647.28 283.747   3
   7   1  -9 8305.60 343.000   4
   7   1  -8 13583.9 351.820   7
   7   1  -8 14444.3 423.133   6
   7   1  -8 13928.1 363.805  11
   7   1  -8 13882.6 470.509   4
  -7  -1   8 14103.1 397.967   3
  -7  -1   8 13544.3 473.526   2
   7   1  -7 281.494 75.9291   4
   7   1  -7 245.638 36.9489  13
   7   1  -7 317.078 65.6963   6
   7   1  -7 185.589 36.0927   7
   7   1  -7 178.777 45.8105  11
  -7  -1   7 132.812 72.0035   2
  -7  -1   7 121.628 44.3258   3
   7   1  -6 4656.01 144.772   7
   7   1  -6 4641.46 160.560  13
   7   1  -6 5051.58 181.865  11
   7   1  -6 5015.64 247.042   4
   7   1  -6 4828.33 191.562   3
  -7  -1   6 5318.81 193.061   3
  -7  -1   6 4467.18 259.774   2
   7   1  -6 5175.23 207.411   6
   7   1  -5 11139.6 323.922  11
   7   1  -5 10215.5 265.299   7
   7   1  -5 10566.0 393.552   4
   7   1  -5 11097.1 329.069   3
   7   1  -5 11128.9 341.360   6
   7   1  -4 2679.61 130.655   6
   7   1  -4 1906.33 54.8032   7
   7   1  -4 1954.07 55.9709   7
   7   1  -4 2397.77 117.441  11
   7   1  -4 2599.39 119.734   3
   7   1  -4 2188.72 154.682   4
  -7  -1   4 2859.77 204.928   2
   7   1  -3-8.46751 53.8326   4
   7   1  -3 52.7116 41.6653  11
  -7  -1   3 58.4884 71.5152   2
   7   1  -3 119.466 41.3707   3
   7   1  -3 58.5997 42.7553   6
   7   1  -2-16.9151 54.4193   4
   7   1  -2 64.5029 42.1181   6
   7   1  -2-32.9412 43.0823  11
  -7  -1   2 10.8863 62.8430   2
   7   1  -2 11.0856 33.8296   3
   7   1  -1 946.148 85.1621  11
   7   1  -1 1049.95 79.4982   6
   7   1  -1 875.005 100.340   4
   7   1  -1 1028.52 73.8117   3
  -7  -1   1 1222.22 134.183   2
   7   1   0 9910.57 322.370  11
   7   1   0 9289.66 290.154   6
   7   1   0 9343.67 318.680   5
   7   1   0 8642.28 314.207   4
   7   1   0 9217.54 280.292   3
  -7  -1   0 9364.03 374.978   2
   7   1   1 4484.39 199.519  11
   7   1   1 3718.37 172.594   4
   7   1   1 3982.86 155.685   3
  -7  -1  -1 4096.50 226.284   2
   7   1   1 4284.18 189.428   5
   7   1   1 4291.02 165.349   6
   7   1   2 102.586 59.8404   5
   7   1   2 124.189 46.4882   4
   7   1   2 64.4271 44.3140   6
  -7  -1  -2 192.382 73.0326   2
   7   1   2 102.561 67.3626  11
   7   1   3 4415.42 170.206   6
   7   1   3 4488.64 202.461   5
  -7  -1  -3 4572.38 234.269   2
   7   1   4 3908.59 223.181  11
   7   1   4 4961.94 211.208   5
   7   1   5 674.409 113.157  11
   7   1   5 653.661 91.4332   5
   7   1   6 161.521 86.2341  11
   7   1   6 420.014 83.4177   5
   7   2 -14 2383.53 198.954   6
  -7  -2  14 2692.16 193.599   3
  -7  -2  13 3595.44 208.874   3
  -7  -2  12 1699.83 147.892   2
  -7  -2  12 1770.39 137.585   3
   7   2 -11 107.476 44.0197  11
  -7  -2  11 108.898 82.6183   2
  -7  -2  11 131.628 58.7165   3
   7   2 -10 38.5279 62.9067   6
   7   2 -10 3.61993 39.3475  11
  -7  -2  10 85.4016 73.8615   2
  -7  -2  10-24.7642 50.9241   3
  -7  -2   9 572.056 73.4231   3
   7   2  -9 575.531 89.3820   6
   7   2  -9 582.225 62.7405  11
   7   2  -8 5959.46 245.740   6
   7   2  -8 6001.04 207.767  11
  -7  -2   8 6007.60 222.344   3
  -7  -2   8 5460.16 282.168   2
   7   2  -7 6102.12 197.294  13
   7   2  -7 6698.19 254.875   6
   7   2  -7 6758.83 225.896  11
   7   2  -7 5989.84 305.806   4
  -7  -2   7 6540.23 229.501   3
  -7  -2   7 6657.69 314.365   2
  -7  -2   6 357.194 54.1873   3
   7   2  -6 286.740 58.1850   3
   7   2  -6 270.185 28.5026   7
   7   2  -6 262.237 30.5904   7
   7   2  -6 258.284 43.7663  13
   7   2  -6 330.705 90.5576   4
   7   2  -6 348.910 55.7735  11
   7   2  -6 357.647 67.0809   6
   7   2  -5 10694.6 276.602  11
   7   2  -5 10014.1 290.112   6
   7   2  -5 9675.92 369.185   4
   7   2  -5 9848.95 265.981   3
   7   2  -4 8341.09 276.213  11
   7   2  -4 8475.52 287.014   6
  -7  -2   4 8076.36 388.047   2
   7   2  -4 8495.73 364.931   4
   7   2  -4 8120.67 264.700   3
   7   2  -3 405.698 65.4636   6
   7   2  -3 475.273 56.6704   3
   7   2  -3 603.867 101.005   4
   7   2  -3 462.706 67.3932  11
  -7  -2   3 431.858 99.9480   2
   7   2  -2 2625.36 139.248  11
   7   2  -2 2325.96 159.669   4
   7   2  -2 2496.68 115.528   3
   7   2  -2 2355.52 128.127   6
  -7  -2   2 2422.58 188.082   2
   7   2  -1 4709.76 197.451  11
   7   2  -1 4546.20 212.723   4
   7   2  -1 4313.59 161.273   3
  -7  -2   1 4221.38 243.939   2
   7   2  -1 4540.85 184.342   6
   7   2   0 1906.13 126.943  11
  -7  -2   0 1882.68 157.233   2
   7   2   0 2079.02 116.345   6
   7   2   1 1954.59 132.753  11
  -7  -2  -1 1999.51 161.111   2
   7   2   1 1977.26 113.877   6
   7   2   1 2001.57 128.081   5
  -7  -2  -2 1044.89 119.946   2
   7   2   2 1130.94 100.061   5
   7   2   2 1158.16 92.5053   6
  -7  -2  -3 1345.85 131.957   2
   7   2   3 1314.24 111.025   5
   7   2   3 1117.65 89.2001   6
   7   2   4 5465.25 263.775  11
  -7  -2  -4 4963.44 247.675   2
   7   2   4 4992.37 217.909   5
   7   2   4 5167.25 198.477   6
   7   2   5 3928.48 194.171   5
   7   2   5 4096.92 240.150  11
   7   2   6 47.8321 90.7286  11
  -7  -3  14 8.28325 71.1179   2
  -7  -3  14-10.0211 69.7675   3
  -7  -3  13 4545.16 232.962   3
   7   3 -13 4393.41 249.124   6
  -7  -3  13 3718.91 218.605   2
   7   3 -12 5557.27 203.379  11
  -7  -3  12 5556.80 270.686   2
  -7  -3  12 5340.10 247.182   3
   7   3 -11 902.175 77.2193  11
  -7  -3  11 843.824 94.5272   3
  -7  -3  11 811.418 116.884   2
   7   3 -10 332.495 89.2283   6
   7   3 -10 209.694 57.2209   7
   7   3 -10 368.842 59.0336  11
  -7  -3  10 321.769 87.7975   2
  -7  -3  10 408.340 73.2618   3
   7   3  -9 1452.95 90.8941   7
   7   3  -9 1532.37 99.2213  11
   7   3  -9 1565.55 128.155   6
  -7  -3   9 1236.61 137.990   2
  -7  -3   9 1457.20 107.010   3
   7   3  -8 752.962 58.3940   7
   7   3  -8 758.005 76.1747  11
   7   3  -8 899.728 98.8210   6
  -7  -3   8 901.310 122.872   2
  -7  -3   8 929.133 81.9285   3
   7   3  -7 1982.85 80.0603   7
   7   3  -7 1958.34 135.945   6
   7   3  -7 2177.73 120.867  11
  -7  -3   7 2097.81 113.692   3
  -7  -3   7 1846.97 171.587   2
   7   3  -6 2350.31 128.694  11
   7   3  -6 2312.34 113.293  13
   7   3  -6 2469.52 143.792   6
   7   3  -5 311.858 54.8171  13
  -7  -3   5 263.929 93.9882   2
   7   3  -5 198.141 50.2823   3
   7   3  -5 378.019 63.6352  11
   7   3  -5 314.830 66.8502   6
   7   3  -4 8693.44 296.027  11
   7   3  -4 8547.01 279.919   3
  -7  -3   4 9108.29 413.689   2
   7   3  -4 9322.74 311.394   6
   7   3  -3 6387.17 239.488  11
   7   3  -3 6414.81 243.637   6
  -7  -3   3 6406.22 329.610   2
  -7  -3   2 81.3146 81.7125   2
   7   3  -2-5.55744 44.3273  11
   7   3  -2 10.5748 49.8435   6
   7   3  -1 5784.23 222.793   6
  -7  -3   1 5457.66 286.420   2
   7   3  -1 5730.98 232.616  11
   7   3   0 3232.74 157.567   6
  -7  -3   0 3335.54 213.983   2
   7   3   0 3307.16 173.035  11
   7   3   1 727.540 81.4993   6
   7   3   1 820.400 91.2035   5
  -7  -3  -1 646.108 103.561   2
   7   3   2 102.312 51.8852   6
  -7  -3  -2 150.740 70.2653   2
   7   3   2 129.227 57.5979   5
   7   3   3 29.1781 53.3091   6
   7   3   3-17.8581 60.4138   5
   7   3   3 41.9217 57.7616  11
  -7  -3  -3-9.11583 70.9565   2
   7   3   4 1230.36 128.251  11
   7   3   4 1427.05 117.208   5
   7   3   4 1305.12 100.086   6
  -7  -3  -4 1365.87 134.160   2
   7   3   5 2970.18 209.509  11
  -7  -4  14 1242.87 132.373   2
  -7  -4  14 1438.94 146.329   3
   7   4 -13 28.9718 60.9316   7
  -7  -4  13 37.6541 81.4013   2
  -7  -4  13 186.610 74.8252   3
   7   4 -13 165.570 85.7760   6
   7   4 -12 5462.27 274.072   6
   7   4 -12 5475.98 207.464  11
   7   4 -12 5168.76 222.398   7
  -7  -4  12 5232.03 275.169   2
  -7  -4  12 5166.97 240.408   3
   7   4 -11 5350.60 202.576  11
  -7  -4  11 5466.23 280.007   2
  -7  -4  11 5146.41 223.664   3
   7   4 -11 4593.08 198.257   7
   7   4 -10 54.4771 44.7865   7
   7   4 -10 98.1131 49.7147  11
  -7  -4  10 85.9765 87.7524   2
  -7  -4  10 74.9126 57.9313   3
   7   4  -9 2942.87 145.743  11
   7   4  -9 2984.81 179.078   6
  -7  -4   9 2634.49 143.615   3
  -7  -4   9 2865.05 210.371   2
   7   4  -8 4698.46 194.770  11
   7   4  -8 4958.08 229.380   6
  -7  -4   8 4850.64 190.627   3
  -7  -4   8 4630.18 273.203   2
   7   4  -7 1384.03 101.794  11
  -7  -4   7 1100.34 146.595   2
   7   4  -7 1234.62 112.866   6
   7   4  -6 458.047 75.8319   6
   7   4  -6 382.557 65.5475  11
   7   4  -5 314.372 70.8791   6
   7   4  -5 441.771 69.8558  11
  -7  -4   5 406.579 113.353   2
   7   4  -4 1338.60 104.470  11
   7   4  -4 1326.92 108.345   6
  -7  -4   4 1430.48 167.280   2
   7   4  -3 9303.22 316.125  11
   7   4  -3 9088.15 315.636   6
  -7  -4   3 8366.84 401.156   2
   7   4  -2 4142.38 191.834  11
  -7  -4   2 3891.65 250.792   2
   7   4  -2 4077.55 188.745   6
   7   4  -1 70.1990 55.6082  11
  -7  -4   1 125.431 76.9175   2
   7   4  -1 197.638 64.0085   6
  -7  -4   0 4215.65 250.440   2
   7   4   0 4115.93 188.591   6
  -7  -4  -1 4722.53 258.951   2
   7   4   1 4724.26 203.070   6
   7   4   2 330.347 70.0491   5
   7   4   2 319.653 79.8844  11
  -7  -4  -2 443.675 101.344   2
   7   4   2 350.922 69.4974   6
   7   4   3 284.865 76.5985   5
   7   4   3 358.880 70.2848   6
   7   4   3 326.244 86.1580  11
  -7  -4  -3 170.992 87.7378   2
  -7  -5  13 20.0887 81.3771   2
   7   5 -12 174.979 83.6298   6
  -7  -5  12 347.566 106.497   2
   7   5 -12 231.503 62.4749  11
  -7  -5  11 5683.81 297.756   2
   7   5 -11 5923.84 227.988  11
  -7  -5  10 4142.17 261.092   2
   7   5 -10 4699.72 195.252  11
   7   5  -9 621.713 82.6693  11
  -7  -5   9 465.051 114.095   2
   7   5  -8 5639.92 256.176   6
  -7  -5   8 5725.77 317.542   2
   7   5  -8 5697.66 225.332  11
   7   5  -7 5727.37 252.088   6
  -7  -5   7 5860.18 326.614   2
   7   5  -7 5703.90 226.987  11
   7   5  -6 931.794 103.319   6
   7   5  -6 793.950 89.6084  11
   7   5  -5 707.663 90.0485   6
   7   5  -5 587.023 81.3677  11
   7   5  -4 416.488 78.5134   6
   7   5  -4 384.284 73.1642  11
  -7  -5   4 317.844 111.060   2
   7   5  -3 1194.23 110.045   6
  -7  -5   3 1185.99 157.756   2
   7   5  -3 1178.03 106.612  11
   7   5  -2 3732.42 186.832   6
  -7  -5   2 3603.51 246.414   2
   7   5  -2 3792.95 191.497  11
   7   5  -1 1092.37 106.180   6
  -7  -5   1 1047.50 140.043   2
   7   5   0 1379.97 115.609   6
  -7  -5   0 1125.11 145.508   2
   7   5   1 5086.57 216.995   6
  -7  -5  -1 4441.92 261.954   2
   7   5   1 4432.43 224.639  11
   7   5   2 3207.67 170.403   5
   7   5   2 2916.90 160.887   6
  -7  -5  -2 2940.51 206.951   2
   7   5   2 2615.40 174.373  11
   7   5   3 54.0867 61.2896   6
  -7  -5  -3-69.6841 87.2089   2
  -7  -6  13 75.2934 93.6080   2
   7   6 -13 5.73869 59.9319  11
  -7  -6  12 203.840 93.2065   2
   7   6 -12 124.944 59.6749  11
   7   6 -11 531.126 81.2799  11
  -7  -6  11 799.217 130.366   2
  -7  -6  10 1545.33 169.466   2
   7   6 -10 1786.21 122.472  11
  -7  -6   9 1728.06 179.609   2
   7   6  -9 1785.17 123.675  11
   7   6  -8 739.511 113.269   6
  -7  -6   8 823.697 143.733   2
   7   6  -8 755.758 87.0621  11
   7   6  -7 6579.24 282.908   6
  -7  -6   7 6281.16 359.425   2
   7   6  -7 6765.24 259.372  11
   7   6  -6 3574.05 201.392   6
   7   6  -6 3877.66 187.327  11
   7   6  -5 29.2045 68.0388   6
   7   6  -5-50.6864 60.0639  11
  -7  -6   5 69.9589 92.9992   2
   7   6  -4 2403.74 156.962   6
  -7  -6   4 2327.11 221.541   2
   7   6  -4 2078.78 142.094  11
   7   6  -3 3185.20 178.200   6
  -7  -6   3 2788.75 208.444  10
  -7  -6   3 3201.09 246.775   2
   7   6  -3 3214.91 174.484  11
   7   6  -2 591.723 91.2418   6
  -7  -6   2 259.650 102.351   2
  -7  -6   2 480.215 112.616  10
  -7  -6   1 572.815 121.242   2
   7   6  -1 496.014 89.3656   6
   7   6   0 119.821 73.9652   6
  -7  -6   0 144.094 95.0741   2
   7   6   0 173.757 71.9514  11
  -7  -6   0 181.318 94.0827  10
  -7  -6  -1 1509.31 166.876   2
   7   6   1 1545.39 128.651   6
  -7  -6  -2 2422.61 200.360   2
   7   6   2 2523.29 156.140   6
   7   7 -10 244.287 76.5114  11
   7   7  -9 385.172 79.2131  11
   7   7  -8 527.641 86.1787  11
  -7  -7   8 604.808 135.520   2
   7   7  -7 899.748 116.920   6
   7   7  -7 1129.79 106.897  11
   7   7  -6 5861.71 268.783   6
  -7  -7   6 6457.83 387.100   2
   7   7  -6 5813.20 248.398  11
   7   7  -5 1573.79 136.513   6
  -7  -7   5 1473.78 204.275   2
   7   7  -5 1680.02 132.394  11
   7   7  -4 698.006 99.0733   6
  -7  -7   4 991.606 135.946  10
  -7  -7   4 794.487 156.775   2
   7   7  -4 876.766 102.658  11
   7   7  -3 4070.62 211.085   6
  -7  -7   3 3830.36 257.754  10
   7   7  -3 3858.31 201.391  11
  -7  -7   3 3552.10 270.537   2
   7   7  -2 2779.01 172.902   6
  -7  -7   2 2480.38 229.179   2
   7   7  -1 434.130 90.4605   6
   8 -13  -3 1146.70 109.546  13
   8 -13  -2 118.081 74.0438  13
   8 -13  -1 184.840 72.5971  13
   8 -13   0 914.232 111.168  13
  -8  13   0 979.171 123.165   8
   8 -12  -5 7.38940 73.5090  14
   8 -12  -4 2642.87 147.504  13
   8 -12  -4 2671.76 166.701  14
  -8  12   3 3752.19 270.077   1
   8 -12  -3 3985.39 188.840  13
  -8  12   3 4221.49 250.725   8
   8 -12  -3 4113.45 207.267  14
   8 -12  -2 573.012 84.0043  13
   8 -12  -2 562.367 84.5190  14
  -8  12   2 819.184 123.847   8
  -8  12   2 617.283 141.950   1
   8 -12  -1 506.244 84.4217  13
   8 -12  -1 727.408 96.2126  14
  -8  12   1 675.449 112.410   8
  -8  12   1 547.630 138.254   1
   8 -12   0 1964.45 143.432  13
   8 -12   0 1876.62 139.213  14
  -8  12   0 2110.17 147.509   7
   8 -12   1 1166.43 121.907  13
   8 -12   1 1218.12 115.302  14
  -8  12  -1 1285.03 118.607   7
   8 -12   2 1034.73 116.859  13
   8 -12   2 940.857 106.586  14
  -8  12  -2 904.855 105.624   7
  -8  12  -3 439.647 89.0255   7
   8 -12   3 523.653 91.2995  14
   8 -12   3 438.226 95.5576  13
   8 -11  -8 663.276 101.252  14
   8 -11  -7 735.456 108.880   4
  -8  11   7 755.395 128.772   1
   8 -11  -7 617.384 91.7553  14
  -8  11   6 490.634 116.413   1
   8 -11  -6 479.257 86.2590  14
  -8  11   5 307.603 108.561   1
   8 -11  -5 346.936 77.6892  14
  -8  11   5 314.095 105.390   8
  -8  11   4 89.1040 96.7248   1
   8 -11  -4 276.269 64.0779  13
   8 -11  -4 263.335 77.6228  14
  -8  11   4 286.619 100.459   8
  -8  11   3 4206.41 276.519   1
   8 -11  -3 3631.22 176.308  13
  -8  11   3 4014.46 236.220   8
   8 -11  -3 4223.53 201.254  14
  -8  11   2 4106.02 289.269   1
   8 -11  -2 3980.03 187.061  13
  -8  11   2 3769.47 221.161   8
   8 -11  -2 3937.47 192.377  14
   8 -11  -1-12.3343 61.6623  14
   8 -11  -1 6.22927 55.2843  13
  -8  11   1 32.1201 104.590   1
   8 -11   0 2795.27 166.368  13
   8 -11   0 2379.14 152.219  14
  -8  11   0 2541.85 153.800   7
   8 -11   1 3718.22 198.224  13
   8 -11   1 3352.28 179.060  14
  -8  11  -1 3592.45 184.389   7
  -8  11  -1 3367.72 250.048   1
   8 -11   2 1419.66 131.920  13
  -8  11  -2 1319.35 163.306   1
   8 -11   2 1338.95 118.156  14
  -8  11  -2 1514.75 124.280   7
  -8  11  -3 107.383 65.0565   7
  -8  11  -3 71.5715 86.4515   1
   8 -11   3 40.8073 68.7016  14
   8 -11   3 41.0808 74.7791  13
  -8  11  -4 6.94706 67.6866   7
  -8  11  -4 11.3272 90.3485   1
   8 -11   4 70.2071 73.7862  13
  -8  11  -5 775.946 104.081   7
  -8  11  -5 830.128 136.051   1
   8 -10  -9 90.1782 72.4589  14
  -8  10   9 84.4285 88.9539   1
   8 -10  -8 1890.92 140.205  14
   8 -10  -8 1719.82 149.535   4
  -8  10   8 1635.95 161.781   1
   8 -10  -7 3013.13 171.111  14
  -8  10   7 3125.93 211.216   1
   8 -10  -7 3006.76 185.764   4
  -8  10   6 1101.48 142.084   1
   8 -10  -6 1467.87 117.817  14
   8 -10  -5 230.225 66.8523  14
  -8  10   5 103.736 92.7266   1
  -8  10   5 112.147 79.7638   8
   8 -10  -5 145.128 55.0414  13
   8 -10  -4 17.9051 58.1497  14
  -8  10   4-49.8938 91.2526   1
  -8  10   4 81.4474 73.7755   8
   8 -10  -4 22.9490 51.5678  13
   8 -10  -3 1214.75 98.8587  13
   8 -10  -3 1275.26 107.908  14
  -8  10   3 1449.90 168.519   1
   8 -10  -2 3871.94 179.497  13
   8 -10  -2 3725.83 179.612  14
  -8  10   2 3577.01 265.846   1
   8 -10  -1 2927.25 157.882  13
  -8  10   1 2626.50 231.161   1
   8 -10  -1 2686.24 151.372  14
  -8  10   0 140.710 60.0937   7
   8 -10   0-22.7283 58.2407  14
   8 -10   0 57.3784 62.4540  13
   8 -10   1 4929.53 216.049  14
  -8  10  -1 5222.13 301.473   1
  -8  10  -1 5482.51 224.993   7
   8 -10   1 5001.67 231.777  13
   8 -10   2 4650.85 212.090  14
   8 -10   2 4787.61 232.756  13
  -8  10  -2 5210.44 290.282   1
  -8  10  -2 5443.14 225.816   7
  -8  10  -3 422.788 79.0926   7
  -8  10  -3 459.907 110.266   1
   8 -10   3 387.830 86.9058  13
  -8  10  -4 512.988 86.8542  12
  -8  10  -4 497.258 86.4908   7
  -8  10  -4 468.347 107.480   1
   8 -10   4 392.863 91.0306  13
  -8  10  -5 1620.00 136.118  12
  -8  10  -5 1437.97 151.753   1
  -8  10  -5 1514.71 127.587   7
   8 -10   5 1541.20 149.741  13
  -8  10  -6 1074.96 136.340   1
  -8  10  -6 949.425 108.415   7
  -8  10  -7 1018.66 114.446   7
   8  -9 -11 562.297 101.084  14
   8  -9 -10 1855.57 145.025  14
   8  -9 -10 1974.74 165.163   4
   8  -9  -9 1404.05 123.938  14
  -8   9   9 1265.99 138.914   1
   8  -9  -9 1258.66 130.400   4
   8  -9  -8 118.057 62.2120  14
  -8   9   8 94.8362 84.1921   1
   8  -9  -8 58.3538 71.1116   4
   8  -9  -7 3985.58 191.684  14
   8  -9  -7 4205.82 220.430   4
  -8   9   7 3882.71 232.256   1
   8  -9  -6 4569.36 201.886  14
   8  -9  -6 4344.34 209.882   5
  -8   9   6 4512.88 256.088   1
   8  -9  -6 4387.78 166.707  13
   8  -9  -5 625.670 81.4962  14
   8  -9  -5 612.707 93.0453   5
   8  -9  -5 775.990 70.6652  13
   8  -9  -4 544.925 77.8871  14
   8  -9  -4 434.356 89.5807   5
  -8   9   4 493.835 116.146   1
   8  -9  -4 375.577 60.8644  13
   8  -9  -3 1712.65 115.248  14
   8  -9  -3 1624.29 146.884   5
  -8   9   3 1854.80 183.751   1
   8  -9  -3 2016.74 119.419  13
   8  -9  -2 1349.53 102.876  14
   8  -9  -2 1337.18 134.703   5
  -8   9   2 1297.48 173.376   1
   8  -9  -2 1306.58 102.353  13
   8  -9  -1 1729.19 113.463  14
   8  -9  -1 1677.90 151.226   5
  -8   9   1 1725.20 187.319   1
   8  -9  -1 1732.69 122.198  13
   8  -9   0 574.891 73.9690  14
   8  -9   0 830.912 116.954   5
  -8   9   0 786.432 83.3042   7
   8  -9   0 615.841 86.9220  13
   8  -9   1 1067.52 95.8579  14
  -8   9  -1 1314.09 154.944   1
  -8   9  -1 1188.73 98.9579   7
   8  -9   1 1157.20 107.228  13
   8  -9   2 6750.80 256.691  14
   8  -9   2 6884.92 281.875  13
  -8   9  -2 6959.61 338.396   1
  -8   9  -2 7230.29 263.414   7
   8  -9   3 4432.21 223.810  13
  -8   9  -3 4885.04 218.892  12
  -8   9  -3 4831.06 266.794   1
  -8   9  -3 4746.04 206.296   7
  -8   9  -4 54.1038 62.6704  12
  -8   9  -4 65.5711 56.5266   7
  -8   9  -4 10.0409 78.1682   1
   8  -9   4 100.677 72.5366  13
  -8   9  -5 3198.57 181.770  12
  -8   9  -5 3155.27 206.103   1
   8  -9   5 2977.79 198.637  13
  -8   9  -5 3152.71 171.787   7
   8  -9   6 2463.57 181.613  13
  -8   9  -6 2443.23 164.145  12
  -8   9  -6 2262.90 149.849   7
   8  -8 -12 33.8893 77.5675  14
  -8   8  11 628.376 98.1139   9
   8  -8 -11 583.181 97.9447  14
   8  -8 -11 696.326 117.748   4
   8  -8 -10 966.417 105.578  14
   8  -8 -10 707.469 112.555   4
   8  -8  -9 897.577 97.0178  14
   8  -8  -9 911.925 117.104   4
   8  -8  -8 1114.44 103.932  14
   8  -8  -8 977.906 93.4950   5
   8  -8  -8 1049.55 119.411   4
   8  -8  -7 526.987 75.1633  14
   8  -8  -7 269.147 79.9469   4
   8  -8  -7 320.855 64.2478   5
  -8   8   7 292.988 87.5926   1
   8  -8  -6 7497.51 262.899  14
   8  -8  -6 7308.75 294.892   4
   8  -8  -6 6625.21 277.118   5
  -8   8   6 7294.09 330.395   1
   8  -8  -6 6733.78 220.082  13
   8  -8  -5 7145.86 254.696  14
   8  -8  -5 6609.17 289.431   5
  -8   8   5 7431.22 342.626   1
   8  -8  -5 6933.25 228.436  13
   8  -8  -4 14.4472 51.4472  14
   8  -8  -4 32.0510 42.6131  13
   8  -8  -4 15.8237 61.5888   5
  -8   8   4 122.999 86.5230   1
   8  -8  -3 3000.02 146.216  14
   8  -8  -3 3156.65 146.459  13
   8  -8  -3 2903.24 112.964  11
   8  -8  -3 3003.22 184.644   5
  -8   8   3 3130.03 233.487   1
   8  -8  -2 3517.26 160.011  13
   8  -8  -2 3317.10 151.346  14
   8  -8  -2 3129.18 111.056   6
   8  -8  -2 3473.85 195.731   5
  -8   8   2 3394.89 259.313   1
   8  -8  -1 1154.06 122.427   5
   8  -8  -1 1148.03 91.3484  14
   8  -8  -1 1278.23 101.687  13
  -8   8   0 829.219 127.972   1
   8  -8   0 893.912 93.6496  13
   8  -8   0 697.829 75.4763  14
   8  -8   0 697.623 100.319   5
  -8   8   0 749.361 78.2845   7
   8  -8   1-14.4155 44.7793  14
   8  -8   1 51.2552 58.6550  13
  -8   8  -1-19.9412 48.0511   7
   8  -8   1 8.65396 65.0769   5
  -8   8  -1 56.9385 73.2733   1
  -8   8  -2 1951.18 120.424   7
  -8   8  -2 2072.16 130.992  12
   8  -8   2 1710.01 132.278  13
   8  -8   2 1964.16 158.219   5
  -8   8  -2 2023.60 171.055   1
   8  -8   3 5580.45 253.162  13
  -8   8  -3 5662.80 285.664   1
  -8   8  -3 5570.07 233.962  12
  -8   8  -3 6030.40 228.061   7
  -8   8  -4 1743.15 129.533  12
  -8   8  -4 1560.30 114.328   7
   8  -8   4 1504.42 136.914  13
  -8   8  -5 463.590 84.9025  12
  -8   8  -5 336.766 69.3687   7
   8  -8   5 379.216 88.3893  13
  -8   8  -6 3834.43 203.537  12
   8  -8   6 3649.27 226.454  13
  -8   8  -7 3238.84 193.813  12
   8  -7 -13 2143.80 169.518  14
   8  -7 -12 57.6178 86.8844   4
   8  -7 -12 153.146 77.7292  14
   8  -7 -11 951.232 110.723  14
   8  -7 -11 842.506 118.089   4
  -8   7  11 742.605 104.744   9
   8  -7 -10 1122.10 129.488   4
   8  -7 -10 1057.20 107.628  14
   8  -7  -9 1311.42 99.5165   5
   8  -7  -9 1445.10 135.147   4
   8  -7  -9 1495.72 114.999  14
   8  -7  -8 340.588 81.9565   4
   8  -7  -8 368.999 67.7508   5
   8  -7  -8 452.849 72.3575  14
   8  -7  -7 7.78732 65.0344   4
   8  -7  -7 108.753 62.3598   5
   8  -7  -7 154.368 56.2060  14
   8  -7  -6 2711.47 111.695  13
   8  -7  -6 2608.36 166.359   4
   8  -7  -6 2848.43 139.387  14
   8  -7  -5 8694.30 264.017  13
   8  -7  -5 8142.76 319.907   5
   8  -7  -5 9181.62 334.001   4
   8  -7  -5 8660.39 283.470  14
   8  -7  -4 4480.66 175.083  14
   8  -7  -4 4197.51 164.511  13
   8  -7  -4 3988.88 134.025  11
   8  -7  -4 4207.59 207.680   5
  -8   7   4 4515.80 266.999   1
   8  -7  -3 355.734 56.4433  14
   8  -7  -3 431.423 61.0891  13
   8  -7  -3 443.757 47.9401   6
   8  -7  -3 485.285 49.2021  11
   8  -7  -3 553.259 85.1015   5
  -8   7   3 485.082 116.120   1
   8  -7  -2 6860.96 249.673  13
   8  -7  -2 7652.55 246.380  14
   8  -7  -2 7087.37 205.973   6
   8  -7  -2 8030.98 303.092   5
  -8   7   2 7754.96 390.671   1
   8  -7  -1 11647.7 381.935   5
   8  -7  -1 11000.9 314.302  14
   8  -7  -1 11384.7 341.068  13
   8  -7   0 2088.34 114.830  14
   8  -7   0 2254.08 136.060  13
   8  -7   0 2147.21 152.788   5
  -8   7   0 2186.34 120.678   7
   8  -7   1 368.290 70.2376  13
   8  -7   1 327.721 54.9635  14
   8  -7   1 302.089 78.2108   5
  -8   7  -1 317.168 59.3319   7
  -8   7  -2 843.926 87.5306  12
   8  -7   2 817.202 98.1032  13
  -8   7  -2 802.841 80.4591   7
  -8   7  -3 1961.94 125.718  12
   8  -7   3 2072.86 147.094  13
  -8   7  -3 1961.02 118.045   7
  -8   7  -4 3250.74 168.836  12
   8  -7   4 3387.81 197.817  13
   8  -7   4 2894.46 193.643   5
  -8   7  -4 3351.99 158.644   7
   8  -7   5 996.955 122.058  13
   8  -7   5 800.128 118.375   5
  -8   7  -5 1029.23 104.030  12
   8  -7   6 1297.48 141.328  13
  -8   7  -6 1060.30 113.030  12
  -8   7  -7 4189.08 218.599  12
   8  -6 -12 1831.40 146.553  14
   8  -6 -12 2392.23 180.557   4
  -8   6  12 1903.97 155.349   3
  -8   6  12 1924.17 161.092   9
   8  -6 -11 75.1785 69.3993  14
  -8   6  11 173.354 72.8268   9
   8  -6 -11 55.3961 77.6575   4
   8  -6 -10 4010.49 221.207   4
   8  -6 -10 3718.85 183.117  14
   8  -6 -10 3309.59 160.885   5
   8  -6  -9 4575.45 235.083   4
   8  -6  -9 4123.91 185.390  14
   8  -6  -9 3975.91 186.536   5
   8  -6  -8 349.109 62.2176  14
   8  -6  -8 485.965 87.0000   4
   8  -6  -8 435.982 75.4148   5
   8  -6  -7 324.256 36.6397  13
   8  -6  -7 385.156 80.0794   4
   8  -6  -7 319.783 71.6676   5
   8  -6  -7 424.203 62.3308  14
   8  -6  -6 1325.00 73.8241  13
   8  -6  -6 1275.44 116.108   5
   8  -6  -6 1424.14 124.981   4
   8  -6  -6 1511.21 94.9677  14
   8  -6  -5 1781.59 72.6477  11
   8  -6  -5 1849.09 130.408   5
   8  -6  -5 1956.95 104.553  14
   8  -6  -5 1814.95 93.1425  13
   8  -6  -4 3977.27 139.254  11
   8  -6  -4 4390.89 204.126   5
   8  -6  -4 3991.18 153.968   6
   8  -6  -4 4606.26 167.815  14
   8  -6  -4 4256.32 161.960  13
   8  -6  -3 1808.93 93.5273  11
   8  -6  -3 1827.26 90.2266   6
   8  -6  -3 1991.33 134.630   5
   8  -6  -3 1834.01 98.4278  14
   8  -6  -3 1915.02 105.886  13
   8  -6  -2 3223.40 134.368  11
   8  -6  -2 3390.90 136.671  14
   8  -6  -2 3541.68 181.812   5
   8  -6  -2 3016.46 113.822   6
   8  -6  -2 3284.01 150.727  13
   8  -6  -1 17231.0 456.002  14
   8  -6  -1 17512.5 488.978  13
   8  -6  -1 17746.0 458.907   7
   8  -6  -1 18364.1 528.540   5
   8  -6   0 4589.46 172.340  14
   8  -6   0 4592.85 201.244  13
   8  -6   0 4251.13 212.009   5
   8  -6   0 4373.31 166.472   7
  -8   6   0 4619.78 175.613   7
  -8   6  -1 123.773 50.0447  12
  -8   6  -1 189.358 50.0878   7
   8  -6   1 100.407 58.9053  13
   8  -6   2 2712.76 166.106  13
  -8   6  -2 2911.46 135.943   7
  -8   6  -2 3041.97 148.801  12
   8  -6   3 3061.44 185.180  13
   8  -6   3 3401.62 194.538   5
  -8   6  -3 3224.91 147.000   7
  -8   6  -3 3366.42 161.575  12
  -8   6  -4 1854.18 122.698  12
   8  -6   4 1876.71 147.378   5
  -8   6  -5 609.019 82.4300  12
   8  -6   5 630.394 104.794  13
   8  -6   5 476.352 95.9246   5
  -8   6  -6 13.5065 61.4529  12
   8  -6   6-9.60621 75.3941  13
   8  -6   6 46.9044 76.5836   5
  -8   6  -7 2692.40 170.942  12
  -8   6  -8 2175.73 163.921  12
   8  -5 -13 879.987 126.856   4
   8  -5 -12 1545.83 124.833  14
   8  -5 -12 1825.69 157.445   4
  -8   5  12 1830.48 151.345   9
   8  -5 -11 824.494 94.9848  14
  -8   5  11 953.200 108.373   9
   8  -5 -11 862.727 114.097   4
  -8   5  11 1040.89 113.274   3
  -8   5  10 846.638 101.888   3
   8  -5 -10 1081.89 121.848   4
   8  -5 -10 848.982 89.2767  14
   8  -5 -10 852.079 86.7773   5
   8  -5  -9 8248.88 334.018   4
   8  -5  -9 8420.41 284.323  14
   8  -5  -9 8088.14 304.029   5
   8  -5  -8 4980.11 240.552   4
   8  -5  -8 4755.94 185.188  14
   8  -5  -8 4472.37 210.274   5
   8  -5  -7 35.4608 25.0021  13
   8  -5  -7-7.78638 60.1029   4
   8  -5  -7 31.8078 58.5920   5
   8  -5  -7 7.55794 38.1675  14
   8  -5  -6 1613.69 66.5496  11
   8  -5  -6 1756.06 130.077   5
   8  -5  -6 1781.52 81.8896  13
   8  -5  -6 1991.07 100.384  14
   8  -5  -5 2506.97 98.0717  11
   8  -5  -5 2638.80 125.954   6
   8  -5  -5 2824.37 156.406   5
   8  -5  -5 2532.28 109.709  13
   8  -5  -5 2586.81 118.573  12
   8  -5  -5 2661.21 115.402  14
   8  -5  -4 1307.36 78.9974  14
   8  -5  -4 1412.16 86.1117  13
   8  -5  -4 1531.02 90.8373  12
   8  -5  -4 1489.61 115.166   5
   8  -5  -4 1451.69 87.4755   6
   8  -5  -4 1335.24 74.8172  11
   8  -5  -4 1404.38 118.060   4
   8  -5  -4 1418.75 84.5081   7
   8  -5  -3 794.135 71.6332  13
   8  -5  -3 766.456 59.3915  14
   8  -5  -3 852.307 66.6636  12
   8  -5  -3 796.343 92.0374   5
   8  -5  -3 760.221 59.9708   6
   8  -5  -3 698.386 61.4359  11
   8  -5  -3 768.795 65.1435   7
   8  -5  -3 954.915 96.2684   4
   8  -5  -2 6.49012 55.7233   5
   8  -5  -2 19.8612 33.8570  14
   8  -5  -2 40.8682 46.0860  13
   8  -5  -2 33.8309 29.5430   6
   8  -5  -2 3.49808 36.3624  12
   8  -5  -2-21.5592 38.2137  11
   8  -5  -2 6.32556 34.3790   7
   8  -5  -1 3173.55 134.216  12
   8  -5  -1 2997.30 140.556  11
   8  -5  -1 3209.49 171.603   5
   8  -5  -1 2983.42 106.318   6
   8  -5  -1 3147.37 127.515   7
   8  -5  -1 3182.06 125.830  14
   8  -5  -1 3286.95 158.159  13
   8  -5   0 6817.05 184.866   6
   8  -5   0 7461.31 271.589  13
   8  -5   0 7249.18 223.930  14
   8  -5   0 7478.21 225.495   7
   8  -5   1 3027.72 166.349  13
  -8   5  -1 2915.18 126.818   7
  -8   5  -1 3003.19 142.152  12
   8  -5   2 1141.96 113.100  13
   8  -5   2 1215.65 115.952   5
  -8   5  -2 994.272 76.1655   7
  -8   5  -2 1144.62 91.4958  12
   8  -5   3 6379.48 282.217  13
  -8   5  -3 6465.18 242.355  12
   8  -5   4 3210.38 189.910   5
   8  -5   4 3315.78 205.133  13
  -8   5  -4 3750.40 172.654  12
  -8   5  -5 235.894 65.0382  12
   8  -5   5 82.7988 74.0641  13
   8  -5   5 192.222 72.8389   5
  -8   5  -6 201.305 64.3858  12
   8  -5   6 199.714 78.0376  13
   8  -5   6 105.571 78.6729   5
   8  -5   7 432.965 105.671   5
  -8   5  -7 351.363 82.9173  12
  -8   5  -8 725.264 105.377  12
   8  -4 -13 1177.85 137.921   4
   8  -4 -12 1370.81 142.369   4
  -8   4  12 1065.60 119.784   3
   8  -4 -11 949.676 116.689   4
  -8   4  11 1107.12 115.767   3
   8  -4 -11 901.653 87.7026  14
   8  -4 -11 748.127 86.0899   5
   8  -4 -10 130.182 53.4110  14
   8  -4 -10-8.96183 59.0580   4
   8  -4 -10-6.58268 60.9899   5
  -8   4  10 7.44554 50.7497   3
   8  -4  -9 2598.09 156.380   5
   8  -4  -9 2701.72 139.128  14
  -8   4   9 2642.88 158.932   3
   8  -4  -9 2695.64 177.174   4
   8  -4  -8 7527.07 293.632   5
   8  -4  -8 8569.48 331.032   4
   8  -4  -8 8138.48 261.291  14
   8  -4  -7 4084.18 153.392  12
   8  -4  -7 3809.47 118.605  11
   8  -4  -7 4162.23 196.235   5
   8  -4  -7 4314.49 184.073   6
   8  -4  -7 3938.08 150.690  14
   8  -4  -7 3684.14 120.146  13
   8  -4  -6 769.980 54.4173  13
   8  -4  -6 850.207 89.6456   5
   8  -4  -6 910.876 82.1449   6
   8  -4  -6 811.382 52.8262  11
   8  -4  -6 842.630 67.1159  12
   8  -4  -6 808.963 61.2656  14
   8  -4  -6 812.786 68.4591   7
   8  -4  -5 8494.03 238.023  14
   8  -4  -5 8098.94 243.254  13
   8  -4  -5 8364.75 249.785  12
   8  -4  -5 8529.84 302.435   5
   8  -4  -5 8073.90 266.486   6
   8  -4  -5 7850.50 235.153  11
   8  -4  -5 7780.09 309.549   4
   8  -4  -5 8316.88 252.561   7
   8  -4  -4 4318.01 163.910  13
   8  -4  -4 4368.65 144.326  14
   8  -4  -4 4586.47 160.315  12
   8  -4  -4 4571.74 204.971   5
   8  -4  -4 4383.33 166.920   6
   8  -4  -4 4254.38 155.780  11
   8  -4  -4 4373.98 156.368   7
   8  -4  -4 4326.71 210.046   4
   8  -4  -3 332.766 72.7832   4
   8  -4  -3 384.916 71.5687   5
   8  -4  -3 336.807 38.9051  14
   8  -4  -3 319.961 51.8620  13
   8  -4  -3 298.307 44.3579   6
   8  -4  -3 305.737 46.7369  12
   8  -4  -3 408.142 53.5794  11
   8  -4  -3 330.420 46.1987   7
   8  -4  -2 351.334 74.2211   4
   8  -4  -2 260.382 68.4735   5
   8  -4  -2 287.276 36.0355  14
   8  -4  -2 331.029 59.4629  13
   8  -4  -2 336.343 43.9700   6
   8  -4  -2 297.991 45.8883  12
   8  -4  -2 332.022 52.7730  11
   8  -4  -2 262.146 40.1777   7
   8  -4  -1 648.138 49.7957  14
   8  -4  -1 727.600 80.1765  13
   8  -4  -1 708.779 62.2459  12
   8  -4  -1 692.664 50.9819   6
   8  -4  -1 710.782 72.6879  11
   8  -4  -1 551.186 87.1840   4
   8  -4  -1 593.801 51.5167   7
   8  -4   0 2926.54 127.746  12
   8  -4   0 2907.77 102.191   6
   8  -4   0 2933.10 147.146  11
   8  -4   0 2832.88 114.335  14
   8  -4   0 3083.73 162.568  13
   8  -4   0 3054.08 117.547   7
  -8   4  -1 5981.85 209.412  12
   8  -4   1 5716.13 158.875   6
   8  -4   1 5941.89 253.550   5
   8  -4   1 5610.09 248.349  13
   8  -4   1 6347.12 210.295  12
  -8   4  -2 819.615 73.6719  12
   8  -4   2 735.654 92.2985   5
   8  -4   2 686.835 95.1497  13
  -8   4  -3 3597.49 162.959  12
   8  -4   3 3499.29 205.657  13
   8  -4   3 3725.11 194.326   5
  -8   4  -4 6356.92 238.042  12
   8  -4   4 6182.59 288.177  13
   8  -4   4 6534.61 278.219   5
  -8   4  -5 2301.01 139.612  12
   8  -4   5 2188.13 166.797  13
   8  -4   5 2486.28 164.249   5
  -8   4  -6 18.7574 55.1338  12
   8  -4   6-8.42608 73.8161   5
  -8   4  -7 650.674 93.4517  12
   8  -4   7 534.211 108.945   5
  -8   3  13 3044.05 192.512   9
   8  -3 -13 2959.06 208.450   4
  -8   3  13 2760.60 187.849   3
  -8   3  12 1819.70 144.007   9
   8  -3 -12 1940.64 164.852   4
  -8   3  12 1863.47 149.853   3
  -8   3  11 306.121 77.9612   3
   8  -3 -11 277.599 84.6629   4
   8  -3 -10 336.492 57.0488  14
   8  -3 -10 275.075 83.2853   4
  -8   3  10 420.336 77.1154   3
   8  -3  -9 1111.77 122.587   4
  -8   3   9 1148.65 108.130   3
   8  -3  -9 1114.80 81.2916  14
   8  -3  -8 3206.94 164.368   6
   8  -3  -8 2878.41 99.5817  11
  -8   3   8 3069.97 162.219   3
   8  -3  -8 2825.25 126.513  14
   8  -3  -7 6870.00 194.577  13
   8  -3  -7 7188.84 204.947  11
   8  -3  -7 7104.25 224.194  14
   8  -3  -7 7152.02 229.858   7
   8  -3  -6 1210.10 66.0480  14
   8  -3  -6 1160.45 65.5231  13
   8  -3  -6 1045.15 69.5441  12
   8  -3  -6 1263.19 96.2578   6
   8  -3  -6 1120.81 105.217   5
   8  -3  -6 1164.25 67.9974  11
   8  -3  -6 1352.78 123.069   4
   8  -3  -6 1259.74 75.7687   7
   8  -3  -5 4635.09 148.355  14
   8  -3  -5 4891.07 171.711  13
   8  -3  -5 5195.78 168.347  12
   8  -3  -5 5199.67 196.755   6
   8  -3  -5 5691.99 226.477   5
   8  -3  -5 5099.20 172.332  11
   8  -3  -5 5183.22 237.105   4
   8  -3  -5 5049.20 170.290   7
   8  -3  -4 13252.5 368.595  13
   8  -3  -4 13870.7 349.259  12
   8  -3  -4 13806.7 416.606   5
   8  -3  -4 12901.4 369.254   6
   8  -3  -4 13135.0 360.706  11
   8  -3  -4 13656.1 437.986   4
   8  -3  -4 12749.6 345.449   7
   8  -3  -3 5195.95 198.101  13
   8  -3  -3 5125.06 145.914  14
   8  -3  -3 5551.10 173.963  12
   8  -3  -3 5563.56 228.940   5
   8  -3  -3 4932.32 181.267   6
   8  -3  -3 5258.89 189.472  11
   8  -3  -3 5160.73 165.880   7
   8  -3  -3 5084.29 233.799   4
   8  -3  -2 142.360 64.5848   4
   8  -3  -2 236.931 27.3081  14
   8  -3  -2 285.623 33.5892  14
   8  -3  -2 305.080 55.2993  13
   8  -3  -2 232.424 43.7962   6
   8  -3  -2 207.572 39.0017  12
   8  -3  -2 166.393 48.6674  11
   8  -3  -2 213.543 36.7794   7
   8  -3  -1 2599.70 113.387  12
   8  -3  -1 2552.01 108.180   6
   8  -3  -1 2795.35 138.152  11
   8  -3  -1 2626.67 147.433  13
   8  -3  -1 2556.74 91.8983  14
   8  -3  -1 2751.84 164.056   4
   8  -3   0 1600.72 89.5365  12
   8  -3   0 1718.64 126.751   5
   8  -3   0 1415.39 73.0020   6
   8  -3   0 1439.72 106.115  11
   8  -3   0 1363.17 116.460  13
   8  -3   0 1488.18 69.8316  14
   8  -3   0 1516.88 124.531   4
   8  -3   1 1477.32 90.1575  12
   8  -3   1 1562.54 70.6061   6
   8  -3   1 1450.78 123.930   5
  -8   3  -1 1516.81 91.1814  12
   8  -3   1 1437.41 112.413  11
   8  -3   1 1395.76 121.546  13
   8  -3   1 1575.07 129.590   4
  -8   3  -2 980.377 79.7107  12
   8  -3   2 787.530 93.2874  11
   8  -3   2 945.448 101.472   5
   8  -3   2 939.617 51.5752   6
   8  -3   2 928.358 114.071  13
   8  -3   2 1016.38 106.394   4
  -8   3  -3 103.740 47.8204  12
   8  -3   3 60.7746 64.7328  13
   8  -3   3 91.4140 62.6904  11
   8  -3   3 104.068 62.3422   4
   8  -3   3 70.3127 57.4353   5
   8  -3   4 2904.13 186.449  13
   8  -3   4 3455.97 186.486   5
   8  -3   4 2836.63 166.184   4
  -8   3  -4 3152.33 150.452  12
   8  -3   5 4751.96 232.365   5
   8  -3   5 4328.15 233.936  13
   8  -3   6 647.927 104.601   5
   8  -3   7 870.626 122.860   5
   8  -2 -13 716.953 124.172   4
  -8   2  13 978.202 121.653   3
  -8   2  13 778.436 104.934   9
   8  -2 -12 6175.37 298.936   6
   8  -2 -12 6053.48 296.958   4
  -8   2  12 5663.57 267.580   3
   8  -2 -11 1689.97 147.872   6
   8  -2 -11 1665.61 153.699   4
  -8   2  11 1795.02 139.530   3
  -8   2  10 622.493 88.9828   3
   8  -2 -10 584.256 99.3561   4
   8  -2 -10 620.152 96.5019   6
  -8   2   9 2583.80 152.781   3
   8  -2  -9 2421.14 93.5075  11
   8  -2  -9 2716.37 159.971   6
  -8   2   8 2800.15 153.599   3
   8  -2  -8 2457.41 100.334  11
   8  -2  -8 2826.57 155.858   6
   8  -2  -7 1917.21 77.5373  13
   8  -2  -7 1793.84 89.5848  11
   8  -2  -7 2227.23 132.549   6
   8  -2  -7 1986.11 148.886   4
   8  -2  -7 1990.46 96.4708   7
   8  -2  -6 1196.95 67.6247  13
   8  -2  -6 1253.46 96.2484   6
   8  -2  -6 1073.64 72.7511  11
   8  -2  -6 1155.32 71.3756   7
   8  -2  -6 1155.33 116.522   4
   8  -2  -5 27.1465 31.9727   7
   8  -2  -5 65.3856 34.9421  13
   8  -2  -5 63.0886 44.6142   6
   8  -2  -5 44.3946 28.4144  12
   8  -2  -5 67.0843 39.8984  11
   8  -2  -5 79.2713 62.2262   4
   8  -2  -4 6752.79 231.206  13
   8  -2  -4 6984.42 201.329  12
   8  -2  -4 6461.10 230.597   6
   8  -2  -4 7021.41 267.472   5
   8  -2  -4 6603.04 224.599  11
   8  -2  -4 7107.43 290.640   4
   8  -2  -4 6787.73 199.049   7
   8  -2  -3 13736.7 412.485  13
   8  -2  -3 14481.2 366.317  12
   8  -2  -3 13769.7 393.148   6
   8  -2  -3 14067.3 400.638  11
   8  -2  -3 13996.9 464.103   4
   8  -2  -3 13699.1 356.013   7
   8  -2  -2 1801.82 87.1495  12
   8  -2  -2 1926.46 112.257  11
   8  -2  -2 1902.53 121.350  13
   8  -2  -2 1730.92 96.8242   6
   8  -2  -2 1710.73 135.116   4
   8  -2  -1 1232.19 94.1432  11
   8  -2  -1 816.194 33.1270  14
   8  -2  -1 1061.66 70.5969   6
   8  -2  -1 1004.87 98.1371   5
   8  -2  -1 1138.37 113.681   4
   8  -2   0 5400.19 213.925  11
   8  -2   0 4810.15 139.144  14
   8  -2   0 4786.49 235.467   4
   8  -2   0 5132.67 169.858   6
   8  -2   0 4981.10 224.178   5
   8  -2   1 3171.07 164.752  11
   8  -2   1 2954.51 164.715   5
   8  -2   1 2739.10 111.774   6
   8  -2   1 2705.14 172.495   4
   8  -2   2 8.03621 66.1083   4
   8  -2   2 6.72064 62.6373   5
   8  -2   2 53.1753 31.9555   6
   8  -2   2 82.3869 56.9005  11
   8  -2   3 7.89148 65.3981  11
   8  -2   3 19.6414 51.8106   4
   8  -2   3 96.5931 65.7795   5
   8  -2   4 230.224 89.4215  11
   8  -2   4 271.915 82.1814   5
   8  -2   5 1863.30 169.795  11
   8  -2   5 1923.13 145.681   5
   8  -2   5 1787.53 146.365  13
   8  -2   6 1738.35 183.732  11
   8  -2   6 1454.66 140.395   5
   8  -2   7-16.5743 79.0037   5
   8  -1 -13-71.4362 94.2083   4
   8  -1 -13-54.6179 91.1835   6
  -8   1  13 46.0205 73.9952   3
   8  -1 -12 2339.90 190.054   4
  -8   1  12 2261.23 163.328   3
   8  -1 -12 2377.01 179.569   6
   8  -1 -11 7100.10 334.926   4
  -8   1  11 7392.77 298.476   3
   8  -1 -11 7958.56 324.224   6
  -8   1  10 1657.90 131.181   3
   8  -1 -10 2007.80 148.672   6
  -8   1   9 1338.13 113.063   3
   8  -1  -9 1244.35 71.7967  11
   8  -1  -9 1406.88 119.638   6
   8  -1  -8 3666.22 213.532   4
  -8   1   8 3776.59 178.295   3
   8  -1  -8 3446.41 133.001  11
   8  -1  -8 3661.19 184.757   6
   8  -1  -7 3292.78 132.100  11
   8  -1  -7 3505.99 204.360   4
   8  -1  -7 3715.51 173.768   6
   8  -1  -6 430.239 49.2755  13
   8  -1  -6 344.783 53.5362  11
   8  -1  -6 258.663 71.3859   4
   8  -1  -6 359.536 68.1542   6
   8  -1  -5-26.5458 40.8661  13
   8  -1  -5 59.1212 57.5626   4
   8  -1  -5-15.0891 37.5260  11
   8  -1  -5 42.9566 44.9931   6
   8  -1  -4 594.434 65.9488  11
   8  -1  -4 702.580 93.4287   4
   8  -1  -4 555.161 67.1768   6
   8  -1  -3 4238.96 173.445  11
   8  -1  -3 3893.68 166.555   6
   8  -1  -2 8961.60 293.190  11
   8  -1  -2 8229.01 338.645   4
   8  -1  -2 8662.27 274.545   6
   8  -1  -2 9049.06 319.711   5
   8  -1  -1 763.766 81.7547  11
   8  -1  -1 746.002 104.092   4
   8  -1  -1 771.035 70.0028   6
   8  -1  -1 759.396 89.5722   5
   8  -1   0 4948.82 210.572  11
   8  -1   0 4380.62 234.671   4
   8  -1   0 4816.15 173.889   6
   8  -1   0 5181.56 224.395   5
   8  -1   1 8876.50 315.458  11
   8  -1   1 8587.12 256.697   6
   8  -1   1 9011.21 319.362   5
   8  -1   2 1911.84 139.685  11
   8  -1   2 1974.11 137.657   5
   8  -1   2 1731.36 90.2770   6
   8  -1   2 1581.79 118.659   4
   8  -1   3-57.3140 79.3456  11
   8  -1   3 47.7047 62.0140   5
   8  -1   4 615.145 107.269  11
   8  -1   4 646.562 91.8193   5
   8  -1   5 979.315 137.469  11
   8  -1   5 1104.02 113.189   5
   8  -1   6 1290.58 124.948   5
   8  -1   7 620.121 111.831   5
   8   0 -13 32.1186 79.0597   6
  -8   0  13 9.07067 72.3492   3
   8   0 -12 120.288 87.3589   4
   8   0 -12 286.768 90.8063   6
  -8   0  12 375.253 87.7193   3
  -8   0  11 2523.92 163.829   3
   8   0 -11 2709.79 181.982   6
   8   0 -10 5685.47 187.519  11
  -8   0  10 5718.63 243.231   3
   8   0 -10 5640.23 259.707   6
   8   0  -9 2359.16 109.616  11
   8   0  -9 2206.78 176.427   4
  -8   0   9 2555.72 149.148   3
   8   0  -9 2327.04 157.861   6
   8   0  -8 4354.45 165.900  11
   8   0  -8 4162.51 239.724   4
  -8   0   8 4777.45 203.952   3
   8   0  -8 5061.74 220.521   6
   8   0  -7 11435.1 364.954   6
   8   0  -7 10303.1 298.772  13
   8   0  -7 10860.0 319.528  11
   8   0  -7 11525.2 422.709   4
  -8   0   7 10518.3 437.096   2
   8   0  -6 1773.45 102.781  11
   8   0  -6 1786.38 120.457   6
   8   0  -6 1874.86 152.723   4
   8   0  -5 55.6557 63.9336   4
   8   0  -5 164.580 49.8547  11
   8   0  -5 36.1268 47.0039   6
   8   0  -4 1431.36 97.2320  11
   8   0  -4 1514.85 142.571   4
   8   0  -4 1612.93 106.889   6
  -8   0   4 1451.71 167.816   2
   8   0  -3 1774.22 114.027  11
   8   0  -3 1862.49 154.313   4
   8   0  -3 1923.02 115.037   6
  -8   0   3 2151.65 188.620   2
   8   0  -2 3135.79 155.542  11
   8   0  -2 3083.38 199.354   4
   8   0  -2 3377.12 150.306   6
   8   0  -2 3175.81 173.101   5
  -8   0   2 3178.15 222.653   2
   8   0  -1 3764.68 176.418  11
   8   0  -1 3776.45 159.643   6
   8   0  -1 3755.77 188.534   5
  -8   0   1 3713.26 235.694   2
   8   0  -1 3603.24 210.014   4
   8   0  -1 3727.98 161.184   3
   8   0   0 103.467 58.0257   4
   8   0   0 58.0716 59.4475   5
   8   0   0 30.8861 54.4930  11
   8   0   0 85.2385 43.9053   6
   8   0   1 6638.27 219.218   6
   8   0   1 6404.22 262.576   5
   8   0   1 6990.65 271.686  11
   8   0   2 5789.05 203.530   6
   8   0   2 6301.84 256.234   5
   8   0   2 6452.23 271.398  11
   8   0   3 1049.03 111.994   5
   8   0   3 1127.65 80.3395   6
   8   0   3 1040.69 116.934  11
   8   0   4 911.827 105.200   5
   8   0   4 998.928 126.663  11
   8   0   5 2274.07 155.993   5
   8   0   6 1321.52 128.385   5
  -8  -1  13 26.6643 75.2648   3
   8   1 -13 63.7612 78.4789   6
  -8  -1  12 398.210 90.4846   3
   8   1 -12 258.027 86.7360   6
   8   1 -11 1010.90 124.170   6
  -8  -1  11 1057.29 109.693   3
   8   1 -10 2150.11 108.934  11
   8   1 -10 1892.18 181.650   4
  -8  -1  10 2425.14 149.612   3
   8   1 -10 2594.58 168.546   6
  -8  -1  10 2232.90 181.849   2
   8   1  -9 3254.00 138.694  11
   8   1  -9 3555.56 189.907   6
  -8  -1   9 2825.39 211.405   2
   8   1  -9 2958.43 214.269   4
  -8  -1   9 3207.94 164.764   3
   8   1  -8 6.71677 58.8478   6
   8   1  -8 33.2894 81.1828   4
   8   1  -8 55.0937 45.6135  11
  -8  -1   8-34.5566 75.9083   2
  -8  -1   8 86.8365 52.0329   3
   8   1  -7 5506.60 199.473  11
   8   1  -7 5570.36 285.089   4
   8   1  -7 5027.76 223.397   6
  -8  -1   7 5037.39 288.612   2
   8   1  -6 9036.38 323.847   6
   8   1  -6 9561.58 396.382   4
   8   1  -6 9930.76 306.488  11
   8   1  -5 1374.61 99.9849  11
   8   1  -5 1366.14 143.229   4
   8   1  -5 1339.67 107.498   6
  -8  -1   5 1143.09 150.253   2
   8   1  -4 1108.82 90.6607  11
   8   1  -4 1376.91 144.774   4
   8   1  -4 1478.89 110.026   6
  -8  -1   4 1065.27 150.348   2
   8   1  -3 5112.93 205.362  11
   8   1  -3 4495.26 260.696   4
   8   1  -3 4810.08 190.304   3
   8   1  -3 5097.67 202.698   6
  -8  -1   3 4762.23 285.489   2
   8   1  -2 2483.75 141.830  11
   8   1  -2 2845.48 141.669   6
  -8  -1   2 2439.24 198.163   2
   8   1  -2 2301.81 170.478   4
   8   1  -1 683.299 75.7127   6
   8   1  -1 586.333 79.4319  11
  -8  -1   1 807.870 122.368   2
   8   1  -1 681.039 91.3316   5
   8   1  -1 496.345 84.0458   4
   8   1   0-4.39742 46.5561   6
   8   1   0 12.9891 54.9916  11
  -8  -1   0-21.5292 73.3658   2
   8   1   0 6.52133 55.2182   5
   8   1   0-6.51024 54.7348   4
   8   1   1 363.950 63.3224   6
   8   1   1 164.207 69.4488   5
   8   1   1 214.396 68.7325  11
  -8  -1  -1 216.281 87.3834   2
   8   1   2 3695.28 158.646   6
   8   1   2 4072.62 199.073   5
   8   1   2 3968.31 211.681  11
   8   1   3 3532.15 186.943   5
   8   1   3 3293.34 148.519   6
   8   1   3 3689.51 211.982  11
   8   1   4 13.9029 68.0862   5
   8   1   5 2248.18 154.049   5
  -8  -2  13 580.531 103.108   3
  -8  -2  12 1645.22 135.998   3
   8   2 -12 1519.42 146.896   6
  -8  -2  12 1540.00 155.036   2
   8   2 -11 2763.81 129.867  11
  -8  -2  11 2906.09 170.849   3
   8   2 -11 2925.29 193.317   6
  -8  -2  11 3053.48 214.114   2
   8   2 -10 2132.94 114.807  11
  -8  -2  10 2204.47 141.054   3
  -8  -2  10 2166.26 182.648   2
   8   2 -10 2121.99 157.680   6
   8   2  -9 711.986 74.3782  11
   8   2  -9 693.938 98.3260   6
  -8  -2   9 892.886 136.296   2
  -8  -2   9 623.771 80.3936   3
  -8  -2   8 207.387 93.4994   2
  -8  -2   8 212.681 58.7332   3
   8   2  -8 219.001 72.9216   6
   8   2  -8 249.378 53.0037  11
  -8  -2   7 64.1865 80.5875   2
   8   2  -7 75.1936 51.1248  11
   8   2  -7 139.318 64.3243   6
   8   2  -6 5866.31 240.239   6
   8   2  -6 5611.47 216.560  11
   8   2  -5 10540.1 338.366  11
   8   2  -5 10847.9 356.544   6
  -8  -2   5 10018.2 461.197   2
   8   2  -5 10135.3 451.602   4
   8   2  -4 234.728 65.8209   6
   8   2  -4 101.529 89.4380   4
   8   2  -4 311.493 66.1017  11
  -8  -2   4 287.571 105.330   2
   8   2  -3 4277.18 190.245  11
   8   2  -3 3849.77 233.897   4
  -8  -2   3 4071.21 267.930   2
   8   2  -3 4092.97 186.841   6
   8   2  -2 5050.23 217.739  11
  -8  -2   2 4969.84 289.119   2
   8   2  -2 5068.65 208.788   6
   8   2  -1 908.878 98.9240  11
   8   2  -1 935.406 88.7516   6
  -8  -2   1 969.350 134.412   2
   8   2   0 118.216 56.4654   6
   8   2   0 75.9199 62.8308  11
  -8  -2   0 11.0661 80.9769   2
   8   2   0 86.0932 61.3828   5
   8   2   1 220.778 61.6111   6
   8   2   1 232.218 71.6909   5
   8   2   1 255.662 71.0780  11
  -8  -2  -1 233.204 92.3983   2
   8   2   2 859.559 101.738   5
   8   2   2 941.707 85.6544   6
  -8  -2  -2 968.269 130.376   2
   8   2   2 912.187 110.268  11
  -8  -2  -3 1563.42 156.241   2
   8   2   3 1792.65 112.656   6
   8   2   3 1691.02 135.880   5
   8   2   4 646.475 94.3154   5
  -8  -3  13 3239.91 218.236   2
  -8  -3  13 4011.79 219.646   3
   8   3 -12 87.9493 82.7689   6
  -8  -3  12 42.9066 84.8987   2
  -8  -3  12 127.202 72.1488   3
   8   3 -11 3280.25 154.526  11
  -8  -3  11 3612.05 186.412   3
   8   3 -11 3653.90 214.481   6
  -8  -3  11 3321.10 228.348   2
   8   3 -10 4525.56 186.393  11
  -8  -3  10 4506.37 203.472   3
   8   3 -10 4686.70 236.958   6
  -8  -3  10 4362.81 269.928   2
   8   3  -9 1139.32 93.5247  11
   8   3  -9 1000.51 116.754   6
  -8  -3   9 1155.47 148.637   2
  -8  -3   9 1024.23 92.4754   3
  -8  -3   8 12.9213 87.1103   2
   8   3  -8 44.8442 65.4860   6
   8   3  -8 74.5681 54.0472  11
  -8  -3   7 437.217 111.952   2
   8   3  -7 452.804 84.3673   6
   8   3  -7 406.229 70.4783  11
   8   3  -6 1495.27 109.551  11
   8   3  -6 1337.27 118.378   6
   8   3  -5 3435.70 166.839  11
  -8  -3   5 3334.41 258.890   2
   8   3  -5 3329.48 179.050   6
   8   3  -4 2661.12 154.613  11
   8   3  -4 2674.42 157.535   6
  -8  -3   4 3111.12 243.251   2
  -8  -3   3 41.2511 86.2971   2
   8   3  -3 91.7962 60.5764  11
   8   3  -3 12.0201 56.3419   6
   8   3  -2 5686.44 241.118  11
  -8  -3   2 5808.38 318.278   2
   8   3  -2 5654.69 233.495   6
   8   3  -1 5310.22 232.404  11
   8   3  -1 4771.22 208.014   6
  -8  -3   1 4724.03 280.020   2
   8   3   0 633.753 82.8310   6
   8   3   0 337.903 79.8469  11
  -8  -3   0 366.850 107.960   2
   8   3   0 500.242 87.8829   5
   8   3   1 813.373 105.020  11
   8   3   1 889.295 103.001   5
   8   3   1 1040.37 96.8445   6
  -8  -3  -1 975.428 134.247   2
   8   3   2 1710.04 132.923   5
   8   3   2 1917.19 126.282   6
  -8  -3  -2 1843.46 171.970   2
   8   3   3 886.837 92.3863   6
  -8  -3  -3 758.609 124.216   2
   8   3   3 805.984 105.716   5
  -8  -4  12 1710.74 179.459   2
   8   4 -11 35.2441 55.6578  11
  -8  -4  11 11.9171 88.0029   2
   8   4 -10 5429.73 216.887  11
  -8  -4  10 5241.96 301.144   2
   8   4 -10 5336.48 262.176   6
   8   4  -9 5518.04 224.157  11
   8   4  -9 5901.82 270.059   6
  -8  -4   9 5841.43 320.807   2
  -8  -4   8 110.686 98.3443   2
   8   4  -8 110.141 59.6563  11
   8   4  -8 118.629 70.2342   6
   8   4  -7 1329.99 106.789  11
  -8  -4   7 1057.71 155.819   2
   8   4  -7 1161.23 122.581   6
   8   4  -6 2679.42 153.425  11
   8   4  -6 2787.32 169.639   6
   8   4  -5 1435.03 113.656  11
   8   4  -5 1351.68 122.535   6
  -8  -4   5 1071.41 169.201   2
  -8  -4   4 601.049 130.061   2
   8   4  -4 422.430 80.5180   6
   8   4  -4 550.553 84.3972  11
  -8  -4   3 328.416 115.945   2
   8   4  -3 378.404 77.6870   6
   8   4  -3 326.145 76.6582  11
  -8  -4   2 758.105 136.597   2
   8   4  -2 771.642 98.6287  11
   8   4  -2 656.609 93.1287   6
   8   4  -1 5025.70 220.143   6
   8   4  -1 5221.26 239.384  11
   8   4   0 2353.91 146.484   6
   8   4   0 2335.23 155.556   5
  -8  -4   0 2112.36 189.219   2
   8   4   0 2347.53 162.434  11
   8   4   1 29.6151 64.1048   6
  -8  -4  -1 22.7554 87.0735   2
   8   4   1-54.9057 72.0043   5
  -8  -4  -2 1950.52 181.860   2
   8   4   2 1786.97 139.515   5
   8   4   2 2098.84 133.787   6
   8   4   3 1786.70 128.006   6
   8   5 -11 72.6908 61.5738  11
   8   5 -10 474.538 80.3161  11
   8   5  -9 4485.23 202.953  11
   8   5  -9 4636.09 239.966   6
  -8  -5   9 4195.70 282.195   2
   8   5  -8 4975.26 212.187  11
   8   5  -8 4585.17 239.950   6
   8   5  -7 43.1965 59.4898  11
   8   5  -7 63.4952 72.2321   6
   8   5  -6 4268.92 200.383  11
   8   5  -6 3952.93 211.001   6
   8   5  -5 3465.31 183.761  11
  -8  -5   5 3305.95 276.008   2
   8   5  -5 3318.64 189.131   6
   8   5  -4 648.042 90.6050  11
  -8  -5   4 838.391 157.099   2
   8   5  -4 792.729 103.209   6
   8   5  -3 7.12803 61.2036  11
  -8  -5   3 14.9189 92.4182   2
   8   5  -3 69.9031 67.7451   6
   8   5  -2 225.623 76.4690  11
   8   5  -2 211.106 76.6503   6
  -8  -5   2 166.386 107.124   2
   8   5  -1 533.286 91.0084   6
  -8  -5   1 390.272 118.145   2
   8   5   0 1796.77 137.681   6
   8   5   0 2159.40 149.040   5
   8   5   1 673.017 95.2060   6
   9 -12  -3 229.714 75.5147  14
   9 -12  -2 1240.84 113.959  13
   9 -12  -2 1355.59 119.521  14
   9 -12  -1 2828.80 171.608  13
   9 -12  -1 3198.37 178.777  14
   9 -12   0 898.777 109.125  13
   9 -12   0 716.891 97.9432  14
   9 -11  -7 29.1624 69.8907  14
   9 -11  -6 285.961 81.0826  14
   9 -11  -5 952.605 111.119  14
   9 -11  -4 1585.09 126.598  14
   9 -11  -3 1369.26 112.229  13
   9 -11  -3 1344.61 113.575  14
   9 -11  -2 42.4359 58.4394  13
   9 -11  -2 43.8302 62.9280  14
   9 -11  -1 3084.73 172.097  13
   9 -11  -1 3104.62 168.719  14
   9 -11   0 3610.82 196.465  13
   9 -11   0 3343.22 179.561  14
   9 -11   1 314.439 84.2761  13
  -9  11  -1 425.836 82.3718   7
  -9  11  -2 1415.61 124.427   7
   9 -11   2 1255.60 116.763  14
   9 -11   3 2183.95 152.424  14
   9 -10  -9 1964.19 149.442  14
   9 -10  -8 2626.81 166.122  14
   9 -10  -7 401.420 82.0074  14
  -9  10   6 884.183 137.796   1
   9 -10  -6 880.639 97.7794  14
  -9  10   5 1984.20 190.414   1
   9 -10  -5 2002.86 135.851  14
  -9  10   4 1323.21 174.606   1
   9 -10  -4 1553.07 120.866  14
  -9  10   3 443.147 128.668   1
   9 -10  -3 409.131 72.9656  13
   9 -10  -3 207.995 65.0359  14
  -9  10   2-33.6968 97.2597   1
   9 -10  -2 40.7840 58.8398  13
   9 -10  -2-5.66715 54.6233  14
   9 -10  -1 606.389 86.6176  13
   9 -10  -1 560.539 79.7058  14
  -9  10   0 2956.46 240.309   1
   9 -10   0 3153.50 175.995  13
   9 -10   0 3173.45 163.515  14
   9 -10   1 2298.95 162.480  13
   9 -10   1 2610.02 150.961  14
  -9  10  -1 2873.73 228.254   1
  -9  10  -1 2641.60 155.144   7
  -9  10  -2 37.8281 63.0373   7
  -9  10  -2 12.3850 96.4026   1
   9 -10   2 6.10338 60.0929  14
   9 -10   2-47.6372 79.3833  13
   9 -10   3 2086.35 144.162  14
  -9  10  -3 2397.07 153.733   7
   9 -10   3 2227.78 166.668  13
   9  -9  -9 357.593 79.4730  14
   9  -9  -8 2228.96 145.871  14
   9  -9  -7 3134.80 167.350  14
   9  -9  -7 2943.03 194.781   4
   9  -9  -6 34.6515 56.8628  14
   9  -9  -6 8.85129 68.3209   4
   9  -9  -6-7.77268 64.8809   5
   9  -9  -5 3059.14 158.246  14
   9  -9  -5 2866.29 191.301   5
   9  -9  -5 2727.38 181.665   4
  -9   9   5 3068.12 234.309   1
   9  -9  -4 3841.53 178.330  14
   9  -9  -4 3350.54 214.487   5
  -9   9   4 3593.62 259.761   1
   9  -9  -4 3736.48 165.539  13
   9  -9  -3 697.629 81.6080  14
   9  -9  -3 696.282 111.273   5
  -9   9   3 635.189 132.149   1
   9  -9  -3 763.663 80.0142  13
   9  -9  -2-15.2223 53.7215  14
   9  -9  -2 67.5304 85.0683   5
  -9   9   2 16.1898 96.2490   1
   9  -9  -2 33.2198 55.3592  13
   9  -9  -1 304.006 96.9486   5
   9  -9  -1 399.086 70.0988  14
   9  -9  -1 429.286 74.6772  13
   9  -9   0 866.289 86.8367  14
   9  -9   0 850.733 127.055   5
  -9   9   0 843.987 140.796   1
   9  -9   0 831.709 97.0906  13
   9  -9   1 1882.49 121.966  14
   9  -9   1 2069.39 177.746   5
   9  -9   1 1985.23 142.408  13
  -9   9  -1 1820.39 123.471   7
   9  -9   2 904.249 107.459  13
  -9   9  -2 800.837 90.7130   7
   9  -9   2 720.630 87.6347  14
   9  -9   3 405.947 91.0610  13
   9  -9   3 298.662 73.6666  14
  -9   9  -4 3778.65 200.898  12
   9  -8  -8 1029.91 125.929   4
   9  -8  -8 1354.57 108.907  14
   9  -8  -7 2327.05 169.072   4
   9  -8  -7 2200.23 130.404  14
   9  -8  -6 1095.13 119.944   5
   9  -8  -6 1100.55 122.010   4
   9  -8  -6 998.987 90.9182  14
   9  -8  -5 135.948 74.9560   4
   9  -8  -5 119.605 70.3058   5
   9  -8  -5 68.8949 52.8459  14
   9  -8  -4 4719.14 242.310   5
   9  -8  -4 4986.04 198.352  14
   9  -8  -4 4702.98 188.635  13
   9  -8  -3 4701.87 246.299   5
   9  -8  -3 4648.25 188.769  14
   9  -8  -3 4825.34 194.205  13
   9  -8  -2 70.5974 80.3090   5
   9  -8  -2-9.02218 45.7958  14
   9  -8  -2 148.868 60.6916  13
   9  -8  -1 1039.76 127.368   5
   9  -8  -1 1060.07 86.1172  14
   9  -8  -1 1071.53 99.5491  13
   9  -8   0 2423.15 174.341   5
   9  -8   0 2004.12 120.959  14
   9  -8   0 2186.41 142.777  13
   9  -8   1 863.926 87.6362  14
   9  -8   1 1065.10 130.741   5
  -9   8  -1 1066.39 93.8232   7
   9  -8   1 1054.74 111.526  13
   9  -8   2 470.086 91.4740  13
   9  -8   2 406.745 70.0718  14
   9  -8   2 418.471 99.7115   5
   9  -8   3-8.36280 70.3103  13
  -9   8  -3-6.51932 61.4557  12
   9  -8   4 921.000 122.447  13
  -9   8  -4 996.144 106.457  12
  -9   8  -5 3005.49 178.733  12
   9  -7  -9 784.356 116.280   4
   9  -7  -8 1468.14 106.772  14
   9  -7  -8 1379.29 136.324   4
   9  -7  -8 1353.34 118.813   5
   9  -7  -7 1135.63 91.7431  14
   9  -7  -7 862.756 111.125   4
   9  -7  -7 1032.41 115.403   5
   9  -7  -6 657.177 72.1947  14
   9  -7  -6 616.286 101.197   4
   9  -7  -6 659.629 99.1505   5
   9  -7  -6 504.471 68.7318   6
   9  -7  -5 97.7197 44.9092  13
   9  -7  -5 110.955 50.9830  14
   9  -7  -5 197.454 71.0329   5
   9  -7  -5 92.6318 44.9671   6
   9  -7  -4 994.387 82.7297  13
   9  -7  -4 922.884 81.6027  14
   9  -7  -4 993.706 116.751   5
   9  -7  -4 1078.81 120.798   4
   9  -7  -3 4179.99 158.801  11
   9  -7  -3 4392.22 182.406  13
   9  -7  -3 4375.89 172.728  14
   9  -7  -3 4582.96 227.737   5
   9  -7  -2 3080.19 139.110  11
   9  -7  -2 3138.47 142.011  14
   9  -7  -2 3577.62 203.803   5
   9  -7  -2 3267.52 161.376  13
   9  -7  -1 140.347 50.7819  14
   9  -7  -1 146.998 54.5601  11
   9  -7  -1 202.590 64.6123  13
   9  -7  -1 193.062 79.6597   5
   9  -7   0 4907.50 219.355  13
   9  -7   0 5206.50 253.664   5
   9  -7   0 4645.61 184.680  14
   9  -7   1 3479.21 191.803  13
   9  -7   1 3322.59 153.811  14
   9  -7   2 438.410 65.1219  14
   9  -7   2 522.803 94.3800  13
  -9   7  -2 624.902 79.2859  12
   9  -7   3 25.3622 75.5213  13
  -9   7  -3 91.4425 58.1324  12
  -9   7  -4 419.328 82.7040  12
   9  -7   4 388.991 97.1014  13
   9  -7   4 325.093 99.3664   5
  -9   7  -5 1290.91 116.780  12
  -9   7  -6 1909.58 147.913  12
   9  -6 -10 2765.29 193.828   4
   9  -6  -9-66.8295 83.6386   4
   9  -6  -9-6.91949 61.0183   5
   9  -6  -8 3203.17 187.606   5
   9  -6  -8 3332.03 204.705   4
   9  -6  -7 3017.16 156.902   6
   9  -6  -7 3174.10 185.527   5
   9  -6  -7 3590.10 207.036   4
   9  -6  -6 662.736 74.5852   6
   9  -6  -6 639.336 65.7656  14
   9  -6  -6 677.983 96.8729   5
   9  -6  -5 39.9172 42.2618   6
   9  -6  -5-13.7528 38.9369  13
   9  -6  -5 7.15790 38.0621  14
   9  -6  -5 16.6511 63.7160   4
   9  -6  -5 37.7101 62.9555   5
   9  -6  -4 277.941 50.9409  14
   9  -6  -4 424.298 57.6093  13
   9  -6  -4 279.377 48.7143   6
   9  -6  -4 306.001 45.2644  11
   9  -6  -4 401.077 82.5594   4
   9  -6  -4 279.453 70.7422   5
   9  -6  -3 1623.43 106.422  13
   9  -6  -3 1669.79 133.628   5
   9  -6  -3 1515.90 91.9298  11
   9  -6  -3 1618.39 92.3621  14
   9  -6  -3 1739.74 141.702   4
   9  -6  -2 4399.31 191.671  13
   9  -6  -2 4947.68 233.057   5
   9  -6  -2 4277.89 161.855  14
   9  -6  -2 4585.25 228.696   4
   9  -6  -2 4404.49 173.450  11
   9  -6  -1 1592.49 118.035  13
   9  -6  -1 1516.22 91.0441  14
   9  -6  -1 1715.58 137.374   5
   9  -6  -1 1763.11 110.056  11
   9  -6   0 732.891 91.9201  13
   9  -6   0 778.174 68.5575  14
   9  -6   0 869.503 107.301   5
   9  -6   0 794.921 85.4772  11
   9  -6   1 6063.08 259.359  13
   9  -6   1 6031.08 210.112  14
   9  -6   2 3229.14 191.257  13
   9  -6   2 2755.31 188.145   5
  -9   6  -2 3172.64 159.592  12
  -9   6  -3 28.3750 51.0153  12
   9  -6   3 35.8887 73.8050   5
   9  -6   3 77.9832 77.8846  13
  -9   6  -4 928.057 98.7520  12
   9  -6   4 838.665 120.009  13
   9  -5 -11 631.773 112.984   4
   9  -5 -10 2578.32 187.925   4
   9  -5 -10 2482.22 157.911   5
   9  -5  -9 1993.62 159.191   4
   9  -5  -9 1778.15 136.415   6
   9  -5  -9 1845.68 141.288   5
   9  -5  -8 305.906 88.3438   4
   9  -5  -8 541.170 90.1419   5
   9  -5  -8 377.104 77.8395   6
   9  -5  -7 5503.34 222.014   6
   9  -5  -7 5615.89 251.289   5
   9  -5  -6 4906.52 243.129   4
   9  -5  -6 4528.39 188.822   6
   9  -5  -6 4611.14 223.040   5
   9  -5  -5 13.5429 41.1345  13
   9  -5  -5 45.3949 43.7143   6
   9  -5  -5 84.0375 37.5766  11
   9  -5  -5 109.416 68.2034   4
   9  -5  -5 153.878 69.0886   5
   9  -5  -4 1230.20 78.6859  11
   9  -5  -4 1134.77 115.566   5
   9  -5  -4 1109.36 79.2474   6
   9  -5  -4 1040.20 115.915   4
   9  -5  -4 1058.19 83.1649  13
   9  -5  -3 1621.67 133.080   5
   9  -5  -3 1744.99 90.9500   6
   9  -5  -3 1578.93 105.065  13
   9  -5  -3 1672.53 138.384   4
   9  -5  -3 1535.79 94.9551  11
   9  -5  -2 1632.96 133.072   5
   9  -5  -2 1785.45 117.521  13
   9  -5  -2 1653.55 140.325   4
   9  -5  -2 1539.57 100.411  11
   9  -5  -1 1677.94 136.404   5
   9  -5  -1 1368.35 101.475  11
   9  -5  -1 1568.86 115.617  13
   9  -5  -1 1645.92 137.842   4
   9  -5   0 144.898 67.5811  13
   9  -5   0 124.730 55.1428  11
   9  -5   0 203.697 70.4131   4
   9  -5   1 1674.71 135.608  13
   9  -5   1 1701.35 139.149   5
   9  -5   1 1580.27 138.944   4
   9  -5   1 1487.01 115.093  11
   9  -5   2 6809.66 295.700  13
   9  -5   2 6620.06 292.051   5
   9  -5   2 7071.52 281.664  11
   9  -5   3 2899.43 190.094   5
   9  -5   3 2865.98 190.597  13
   9  -5   4 214.811 87.3786   5
   9  -5   4 289.595 97.9650  13
   9  -4 -11 555.211 109.623   6
  -9   4  11 723.731 103.032   3
   9  -4 -11 580.921 86.2909   5
   9  -4 -11 492.149 106.051   4
   9  -4 -10 1815.76 141.696   5
   9  -4 -10 2223.67 158.306   6
   9  -4 -10 2041.09 167.351   4
   9  -4  -9 2017.95 149.963   5
   9  -4  -9 2480.17 154.589   6
   9  -4  -9 2198.47 172.979   4
   9  -4  -8 521.283 81.0538   6
   9  -4  -8 581.933 88.9262   5
   9  -4  -7 1110.16 111.462   5
   9  -4  -7 1051.67 95.5033   6
   9  -4  -7 1067.12 125.299   4
   9  -4  -6 6815.98 212.075  11
   9  -4  -6 7009.00 285.772   5
   9  -4  -6 7524.23 257.018   6
   9  -4  -6 6765.48 213.221  13
   9  -4  -6 7465.10 312.509   4
   9  -4  -5 4034.97 153.494  11
   9  -4  -5 4115.41 159.633  13
   9  -4  -5 4593.14 235.599   4
   9  -4  -5 4707.85 218.231   5
   9  -4  -5 3936.97 169.872   6
   9  -4  -4 32.6689 44.6034  13
   9  -4  -4 102.679 47.4492   6
   9  -4  -4 43.6699 39.9229  11
   9  -4  -4 85.5399 74.4580   4
   9  -4  -4 146.688 67.1641   5
   9  -4  -3 3839.29 145.881   6
   9  -4  -3 3831.87 199.367   5
   9  -4  -3 3501.07 162.098  13
   9  -4  -3 3517.03 206.251   4
   9  -4  -3 3168.25 148.980  11
   9  -4  -2 3493.02 188.909   5
   9  -4  -2 2944.86 121.865   6
   9  -4  -2 2988.11 146.326  11
   9  -4  -2 2925.54 154.779  13
   9  -4  -2 3091.67 187.539   4
   9  -4  -1 645.395 85.4424  13
   9  -4  -1 670.747 100.305   4
   9  -4  -1 612.259 77.2087  11
   9  -4   0 20.7736 53.8994  13
   9  -4   0-35.4712 65.4833   4
   9  -4   0 38.2268 64.2783   5
   9  -4   0 5.68479 53.2834  11
   9  -4   1 512.091 87.5636  13
   9  -4   1 479.297 80.5003  11
   9  -4   1 441.682 91.7762   4
   9  -4   1 608.832 93.8301   5
   9  -4   2 2841.43 176.147  11
   9  -4   2 3021.79 183.397   5
   9  -4   2 2727.05 186.107   4
   9  -4   2 3161.28 196.054  13
   9  -4   3 3624.76 209.145  11
   9  -4   3 3429.55 220.425  13
   9  -4   3 3864.97 212.899   5
   9  -4   3 3949.81 225.783   4
   9  -4   4 759.868 117.851  13
   9  -4   4 781.715 113.556   5
   9  -4   4 585.862 108.638  11
   9  -3 -12-14.9883 63.4584   5
   9  -3 -12-49.1782 88.9555   6
   9  -3 -11 2259.15 181.492   4
  -9   3  11 2401.53 165.321   3
   9  -3 -11 2599.41 179.391   6
   9  -3 -11 2273.12 161.338   5
   9  -3 -10 2261.65 178.948   4
   9  -3 -10 2224.66 160.011   6
   9  -3 -10 2102.57 154.171   5
   9  -3  -9 560.656 88.5331   5
   9  -3  -9 656.788 93.8699   6
   9  -3  -8 9.66035 74.5915   4
   9  -3  -8 98.8214 69.2006   5
   9  -3  -8 150.960 63.2383   6
   9  -3  -7 65.7048 71.8418   4
   9  -3  -7 29.7486 62.0886   5
   9  -3  -7 50.7593 54.9585   6
   9  -3  -6 2027.58 148.591   5
   9  -3  -6 2314.21 130.246   6
   9  -3  -6 2125.98 101.588  13
   9  -3  -6 2440.64 171.117   4
   9  -3  -6 2139.13 105.106  11
   9  -3  -5 5893.42 257.370   5
   9  -3  -5 6198.71 223.594   6
   9  -3  -5 5888.93 205.510  13
   9  -3  -5 5928.27 279.165   4
   9  -3  -5 5939.03 205.106  11
   9  -3  -4 2203.69 151.624   5
   9  -3  -4 2215.77 118.452   6
   9  -3  -4 2181.47 119.530  13
   9  -3  -4 2349.97 171.691   4
   9  -3  -4 2128.30 116.533  11
   9  -3  -3 2107.52 149.440   5
   9  -3  -3 2187.43 111.744   6
   9  -3  -3 1980.77 123.999  13
   9  -3  -3 2099.33 163.093   4
   9  -3  -3 2104.04 118.259  11
   9  -3  -2 7800.92 247.567   6
   9  -3  -2 7868.70 291.793  13
   9  -3  -2 7459.10 325.712   4
   9  -3  -1 3340.26 187.259   5
   9  -3  -1 3064.70 125.153   6
   9  -3  -1 3242.99 161.946  11
   9  -3  -1 3097.97 172.614  13
   9  -3  -1 3167.82 203.224   4
   9  -3   0-45.0599 63.5975  13
   9  -3   0-59.9497 59.6457  11
   9  -3   0-28.5705 62.7630   4
   9  -3   0-37.8784 65.9356   5
   9  -3   1 867.481 110.461  13
   9  -3   1 691.031 107.586   4
   9  -3   1 837.122 100.148  11
   9  -3   1 1128.23 113.203   5
   9  -3   2 1374.04 128.869  11
   9  -3   2 1111.24 134.519  13
   9  -3   2 1339.17 125.830   5
   9  -3   2 986.364 120.932   4
   9  -3   3 1445.57 152.168  13
   9  -3   3 1866.07 145.782   5
   9  -3   3 1549.05 144.614  11
   9  -3   4 1253.16 138.219  13
   9  -3   4 1198.65 143.446  11
   9  -3   4 1583.12 143.287   5
   9  -2 -12 1175.73 138.186   6
   9  -2 -11 443.927 96.0302   6
  -9   2  11 520.091 94.0469   3
  -9   2  10 4595.11 226.358   3
   9  -2 -10 4715.30 234.413   6
   9  -2  -9 1748.17 160.080   4
   9  -2  -9 1742.92 137.537   6
   9  -2  -8 90.6445 77.0828   4
   9  -2  -8 6.43314 60.9929   6
   9  -2  -7 233.102 68.3761   6
   9  -2  -7 309.793 49.1819  11
   9  -2  -7 402.859 94.4329   4
   9  -2  -6 1241.06 100.806   6
   9  -2  -6 1334.22 121.760   5
   9  -2  -6 1136.58 77.3972  13
   9  -2  -6 1388.85 136.391   4
   9  -2  -6 1217.83 85.0447  11
   9  -2  -5 1944.94 119.869   6
   9  -2  -5 1787.86 141.274   5
   9  -2  -5 2031.29 110.356  13
   9  -2  -5 2231.41 170.419   4
   9  -2  -5 2122.42 113.782  11
   9  -2  -4 1901.00 141.017   5
   9  -2  -4 1686.54 110.156   6
   9  -2  -4 1910.90 111.922  11
   9  -2  -4 1707.15 112.985  13
   9  -2  -4 2046.21 158.757   4
   9  -2  -3 94.4061 57.8187  13
   9  -2  -3 124.754 49.3777   6
   9  -2  -3 148.978 54.9485  11
   9  -2  -2 2413.15 118.889   6
   9  -2  -2 2233.02 153.031   5
   9  -2  -2 2550.81 154.019  13
   9  -2  -2 2296.06 178.849   4
   9  -2  -2 2586.36 140.427  11
   9  -2  -1 7027.56 226.737   6
   9  -2  -1 7161.03 289.097   5
   9  -2  -1 6861.82 288.008  13
   9  -2  -1 6463.96 311.505   4
   9  -2  -1 7195.63 266.019  11
   9  -2   0 1819.44 140.756   5
   9  -2   0 1680.45 127.718  11
   9  -2   0 1805.58 148.239  13
   9  -2   0 1529.56 151.194   4
   9  -2   1 456.211 104.024  13
   9  -2   1 267.295 78.1018  11
   9  -2   1 244.767 82.8211   4
   9  -2   1 403.397 83.4100   5
   9  -2   2 2559.90 168.665  11
   9  -2   2 2468.35 163.921   5
   9  -2   2 2465.73 182.316  13
   9  -2   3 1787.67 155.163  11
   9  -2   3 1743.33 158.125  13
   9  -2   3 1792.70 144.635   5
   9  -2   4 403.701 96.9316  13
   9  -2   4 243.934 87.9087   5
  -9   1  12 1622.83 143.097   3
   9  -1 -12 1696.91 157.821   6
   9  -1 -11 280.320 91.0992   6
  -9   1  11 46.8751 63.8396   3
   9  -1 -10 1724.55 167.819   4
  -9   1  10 1536.43 129.741   3
   9  -1 -10 1771.82 144.707   6
   9  -1  -9 6050.04 307.804   4
   9  -1  -9 6586.26 273.625   6
   9  -1  -8 3436.38 222.356   4
   9  -1  -8 3818.13 193.536   6
   9  -1  -8 3550.55 144.265  11
   9  -1  -7 852.341 124.354   4
   9  -1  -7 701.775 88.5336   6
   9  -1  -7 789.574 71.7228  11
   9  -1  -6 3305.83 167.096   6
   9  -1  -6 3244.72 140.599  13
   9  -1  -6 3389.77 217.074   4
   9  -1  -6 3567.48 152.035  11
   9  -1  -5 2248.39 130.637   6
   9  -1  -5 2255.99 122.286  11
   9  -1  -5 2083.35 120.639  13
   9  -1  -5 2084.41 168.650   4
   9  -1  -4 710.562 77.0079  11
   9  -1  -4 696.827 81.6256  13
   9  -1  -4 694.115 117.325   4
   9  -1  -4 716.480 77.3948   6
   9  -1  -3 310.634 61.0212   6
   9  -1  -3 374.605 92.2028   4
   9  -1  -3 386.029 81.0435   5
   9  -1  -3 316.163 65.2810  11
   9  -1  -2 98.1625 50.4491   6
   9  -1  -2 123.254 58.8350  11
   9  -1  -2 76.5667 77.7656   4
   9  -1  -2 177.546 72.8835   5
   9  -1  -1 2542.95 150.330  11
   9  -1  -1 2580.74 126.467   6
   9  -1  -1 2743.55 166.958   5
   9  -1  -1 2401.65 188.859   4
   9  -1   0 5531.74 240.531  11
   9  -1   0 5469.78 263.947   4
   9  -1   0 5458.12 194.816   6
   9  -1   0 5678.15 252.684   5
   9  -1   1 528.625 93.0081  11
   9  -1   1 534.177 88.9697   5
   9  -1   2 1913.92 152.124  11
   9  -1   2 1608.35 140.425   5
   9  -1   3 2912.36 194.233  11
   9  -1   3 2964.58 185.792   5
  -9   0  12 711.688 103.090   3
   9   0 -11 365.505 91.6558   6
  -9   0  11 295.979 78.4949   3
   9   0 -11 346.514 116.304   4
   9   0 -10 8.13747 71.2945   6
  -9   0  10 69.8206 61.1738   3
   9   0 -10 49.3524 96.0427   4
   9   0  -9 3108.93 182.723   6
   9   0  -9 3033.48 218.575   4
   9   0  -8 4994.78 189.638  11
   9   0  -8 5259.98 235.176   6
   9   0  -8 5179.97 286.616   4
   9   0  -7 726.400 75.2515  11
   9   0  -7 953.478 102.121   6
   9   0  -7 904.910 133.025   4
   9   0  -6 3084.76 147.820  11
   9   0  -6 3003.08 164.663   6
   9   0  -6 3021.46 214.606   4
   9   0  -5 6664.19 242.790  11
   9   0  -5 6654.06 252.790   6
   9   0  -5 6542.29 327.101   4
   9   0  -4 1409.68 105.522  11
   9   0  -4 1468.29 159.533   4
   9   0  -4 1508.96 112.035   6
   9   0  -3 5.03182 48.2425   6
   9   0  -3 22.6390 64.7966   5
   9   0  -3 36.0997 79.2972   4
   9   0  -3 105.747 58.6645  11
   9   0  -2 599.849 71.0229   6
   9   0  -2 593.519 85.7649  11
   9   0  -2 537.836 89.7663   5
   9   0  -2 577.555 112.962   4
   9   0  -1 1812.99 133.386  11
   9   0  -1 1848.72 110.989   6
   9   0  -1 2040.92 148.559   5
   9   0  -1 1900.80 151.578   4
   9   0   0 2327.98 151.534  11
   9   0   0 2225.98 120.622   6
   9   0   0 2327.01 159.707   5
   9   0   1 1463.84 129.698  11
   9   0   1 1230.36 123.875   5
   9   0   2 87.0803 73.7630  11
   9   0   2 99.0518 77.3559   5
  -9  -1  12 1485.21 137.862   3
  -9  -1  11 117.497 72.3285   3
   9   1 -11 45.1907 79.7196   6
  -9  -1  10 120.969 64.4384   3
   9   1 -10-8.31567 79.7269   6
   9   1  -9 516.564 92.6982   6
   9   1  -9 562.258 67.5940  11
   9   1  -9 333.728 114.391   4
   9   1  -8 1449.04 100.896  11
   9   1  -8 1756.39 135.290   6
   9   1  -8 1443.19 169.628   4
  -9  -1   8 1424.16 167.737   2
   9   1  -7 2150.08 125.134  11
   9   1  -7 2053.28 198.232   4
  -9  -1   7 1933.73 197.875   2
   9   1  -7 2013.21 142.078   6
   9   1  -6 64.1399 65.7494   6
   9   1  -6 107.393 55.8462  11
   9   1  -6-13.4907 93.9369   4
   9   1  -5 2959.32 151.334  11
   9   1  -5 2448.40 149.085   6
   9   1  -5 2445.74 213.118   4
  -9  -1   5 2500.98 226.707   2
   9   1  -4 5653.84 229.400  11
   9   1  -4 5820.41 333.724   4
  -9  -1   4 4972.29 321.386   2
   9   1  -4 5683.53 231.408   6
   9   1  -3 467.083 110.648   4
   9   1  -3 545.881 78.1856   6
   9   1  -3 505.784 81.7281  11
  -9  -1   3 426.783 118.419   2
   9   1  -2 1031.48 104.566  11
   9   1  -2 1256.29 102.286   6
   9   1  -2 1022.82 111.006   5
   9   1  -2 1113.28 126.497   4
  -9  -1   2 1066.86 148.270   2
   9   1  -1 2785.64 165.734  11
   9   1  -1 2657.44 170.177   5
   9   1  -1 2730.74 142.980   6
  -9  -1   1 2768.47 214.399   2
   9   1   0 978.685 112.677  11
   9   1   0 1146.75 118.419   5
   9   1   0 975.750 88.0171   6
   9   1   1 587.237 98.6874  11
   9   1   1 680.364 102.617   5
   9   2 -10 742.375 115.096   6
  -9  -2  10 371.235 113.561   2
   9   2  -9 1265.48 97.4559  11
   9   2  -9 1545.98 137.516   6
  -9  -2   9 1634.85 181.873   2
   9   2  -8 988.643 91.3804  11
   9   2  -8 1195.18 120.865   6
  -9  -2   8 1044.16 153.897   2
   9   2  -7 831.600 87.7308  11
   9   2  -7 1137.94 113.228   6
  -9  -2   7 1014.23 155.791   2
   9   2  -6 779.331 87.9028  11
   9   2  -6 573.090 95.2471   6
   9   2  -5 19.4686 61.8756   6
   9   2  -5 52.9251 62.5476  11
  -9  -2   5 118.180 104.587   2
   9   2  -4 3530.99 177.519  11
   9   2  -4 3256.01 174.787   6
  -9  -2   4 3401.15 259.290   2
   9   2  -3 5332.10 231.221  11
  -9  -2   3 5395.59 318.956   2
   9   2  -3 4893.72 217.938   6
   9   2  -2 331.954 80.0205   5
   9   2  -2 148.964 67.3218   6
   9   2  -2 267.950 81.5466  11
  -9  -2   2 122.353 102.350   2
   9   2  -1 1498.28 130.379  11
   9   2  -1 1396.64 126.659   5
   9   2  -1 1429.89 111.889   6
  -9  -2   1 1396.32 172.338   2
   9   2   0 2253.95 162.052   5
   9   2   0 2287.54 137.709   6
  -9  -2   0 2000.84 190.864   2
   9   3  -9 2230.11 134.865  11
   9   3  -9 2172.20 164.604   6
   9   3  -8 3506.16 173.159  11
   9   3  -8 3663.78 206.654   6
   9   3  -7 1251.64 108.317  11
  -9  -3   7 857.148 161.514   2
   9   3  -7 1133.71 115.710   6
   9   3  -6 152.095 75.6836   6
   9   3  -6 97.5342 64.3033  11
   9   3  -5 6.96813 70.7192   6
  -9  -3   5-17.3590 98.6778   2
   9   3  -5 31.7159 59.1124  11
   9   3  -4 577.710 92.1520   6
   9   3  -4 715.168 99.7129  11
  -9  -3   4 579.046 136.921   2
   9   3  -3 2422.92 152.829   6
   9   3  -3 2299.46 153.773  11
   9   3  -2 2356.64 151.410   6
   9   3  -2 2176.33 153.446  11
   9   3  -1-6.00026 60.5967   6
   9   3   0 2228.16 140.547   6
   9   4 -10 1271.98 110.495  11
   9   4  -9 65.0340 62.8913  11
   9   4  -8 2671.10 161.194  11
   9   4  -7 4185.47 202.637  11
   9   4  -6 336.759 82.3222  11
   9   4  -6 517.159 98.8481   6
   9   4  -5 230.719 82.7691   6
   9   4  -4 865.588 110.207   6
   9   4  -3 1263.49 123.318   6
   9   4  -2 625.053 97.9430   6
  10 -10  -4 280.051 108.738   5
  10 -10  -3 1002.55 148.430   5
  10 -10  -1 578.257 92.5652  13
  10 -10   0 138.885 77.1025  13
  10  -9  -6 3048.08 199.022   5
  10  -9  -5 3756.15 232.690   5
  10  -9  -4 212.718 92.8568   5
  10  -9  -3 858.208 131.281   5
  10  -9  -2 2594.88 156.854  13
  10  -9  -2 2793.71 202.580   5
  10  -9  -1 1939.84 139.653  13
  10  -9  -1 2107.13 177.777   5
  10  -9   0 336.930 82.1668  13
  10  -9   1 124.866 77.2879  13
  10  -8  -7 122.357 79.0903   5
  10  -8  -6 1197.88 136.004   5
  10  -8  -5 2008.35 168.849   5
  10  -8  -4 1728.55 158.681   5
  10  -8  -4 1951.26 162.751   4
  10  -8  -3 66.2669 80.1588   4
  10  -8  -3-19.3148 78.8417   5
  10  -8  -2 3966.14 192.560  13
  10  -8  -2 4272.38 245.806   5
  10  -8  -1 6155.77 253.787  13
  10  -8  -1 6263.15 301.186   5
  10  -8   0 519.342 88.9047  13
  10  -8   1 302.944 87.1860  13
  10  -7  -8 478.873 99.7540   5
  10  -7  -7 326.155 89.3222   5
  10  -7  -6 613.885 108.267   4
  10  -7  -6 698.257 108.323   5
  10  -7  -5 937.013 125.148   4
  10  -7  -5 914.417 120.817   5
  10  -7  -4 1349.42 139.182   5
  10  -7  -4 1216.35 134.057   4
  10  -7  -3 375.487 69.7610  13
  10  -7  -3 499.671 103.321   4
  10  -7  -3 397.630 96.9706   5
  10  -7  -2 1130.04 101.409  13
  10  -7  -2 871.053 118.724   4
  10  -7  -2 994.683 128.588   5
  10  -7  -1 3887.91 195.348  13
  10  -7  -1 4073.66 232.888   5
  10  -7  -1 3755.61 222.258   4
  10  -7   0 2309.16 139.403  11
  10  -7   0 2469.09 181.421   5
  10  -7   0 2239.89 155.208  13
  10  -7   1-6.35299 57.8108  11
  10  -7   1 46.5079 72.2346  13
  10  -7   2 1284.09 133.218  13
  10  -7   2 1356.25 126.353  11
  10  -6 -10 375.833 93.4771   6
  10  -6  -9 3202.06 180.575   6
  10  -6  -9 3023.76 188.714   5
  10  -6  -8 2716.91 155.319   6
  10  -6  -8 2659.23 180.309   5
  10  -6  -7 60.8339 82.7901   4
  10  -6  -7 94.4070 83.6346   5
  10  -6  -6 1408.00 133.586   5
  10  -6  -6 1336.94 142.343   4
  10  -6  -5 2426.11 168.892   5
  10  -6  -5 2665.70 189.361   4
  10  -6  -4 695.879 111.529   4
  10  -6  -4 671.279 108.408   5
  10  -6  -3-9.50012 85.9310   4
  10  -6  -3 130.107 75.4982   5
  10  -6  -3 76.9976 52.8762  13
  10  -6  -2 115.110 80.6752   4
  10  -6  -2 88.2305 75.7805   5
  10  -6  -2 80.9603 60.9825  13
  10  -6  -1 942.927 90.6468  11
  10  -6  -1 1122.40 124.689   5
  10  -6  -1 776.414 118.504   4
  10  -6  -1 1105.14 106.617  13
  10  -6   0 2771.49 155.567  11
  10  -6   0 2812.01 193.733   5
  10  -6   0 2904.19 200.505   4
  10  -6   0 2731.30 171.862  13
  10  -6   1 1971.42 136.434  11
  10  -6   1 1621.16 138.404  13
  10  -6   1 1782.44 165.488   4
  10  -6   2 113.621 80.1077  13
  10  -6   2 173.026 76.8184  11
  10  -6   2 247.040 92.4434   4
  10  -5 -10 33.5015 71.4163   5
  10  -5 -10 7.79264 70.9118   6
  10  -5  -9 1244.66 118.167   6
  10  -5  -9 1160.84 131.061   5
  10  -5  -8 3469.93 224.205   4
  10  -5  -8 3232.21 172.877   6
  10  -5  -8 3466.58 206.460   5
  10  -5  -7 2218.47 182.703   4
  10  -5  -7 2151.96 169.010   5
  10  -5  -7 2483.33 139.818   6
  10  -5  -6 91.0031 85.0598   4
  10  -5  -6 160.231 80.8913   5
  10  -5  -5 4805.23 261.022   4
  10  -5  -5 4640.51 238.197   5
  10  -5  -4 3851.34 231.523   4
  10  -5  -4 4090.74 221.399   5
  10  -5  -3 385.377 70.2888  13
  10  -5  -3 433.872 100.402   4
  10  -5  -3 314.741 86.7107   5
  10  -5  -3 339.873 61.3540  11
  10  -5  -2 178.047 63.8915  13
  10  -5  -2 109.192 79.9720   4
  10  -5  -2 369.994 90.4241   5
  10  -5  -2 300.545 64.2799  11
  10  -5  -1 744.968 96.9680  13
  10  -5  -1 654.705 82.9638  11
  10  -5  -1 429.509 103.220   4
  10  -5  -1 664.378 106.357   5
  10  -5   0 955.164 126.523   4
  10  -5   0 876.613 95.7165  11
  10  -5   0 956.483 113.896  13
  10  -5   1 1500.11 126.393  11
  10  -5   1 1423.60 134.319  13
  10  -5   1 1307.11 149.837   4
  10  -5   2 72.7818 81.8100  13
  10  -5   2 103.600 81.0119   4
  10  -5   2 164.311 80.9905  11
  10  -4 -11 59.3067 69.1791   5
  10  -4 -10 433.782 96.1946   5
  10  -4 -10 684.787 102.653   6
  10  -4  -9 845.063 113.059   5
  10  -4  -9 861.653 107.544   6
  10  -4  -8 1589.05 155.807   4
  10  -4  -8 1816.00 152.019   5
  10  -4  -8 1543.75 125.929   6
  10  -4  -7 2236.22 181.090   4
  10  -4  -7 2322.19 165.226   5
  10  -4  -7 2132.62 132.532   6
  10  -4  -6 447.752 104.903   4
  10  -4  -6 346.305 95.1887   5
  10  -4  -6 287.534 62.0706   6
  10  -4  -5 1306.66 141.654   4
  10  -4  -5 1112.98 122.784   5
  10  -4  -4 6229.95 280.506   5
  10  -4  -4 5777.31 222.110  13
  10  -4  -4 6276.43 303.542   4
  10  -4  -4 6097.96 218.765  11
  10  -4  -3 4063.68 218.042   5
  10  -4  -3 3714.52 166.142  11
  10  -4  -3 3511.12 174.195  13
  10  -4  -3 3732.96 233.644   4
  10  -4  -2-37.0883 59.2548  13
  10  -4  -2-31.9586 51.6173  11
  10  -4  -2 21.3402 75.8177   4
  10  -4  -2 111.041 74.8278   5
  10  -4  -1 1036.84 111.506  13
  10  -4  -1 967.596 131.813   4
  10  -4  -1 1346.58 109.183  11
  10  -4   0 1406.30 134.207   5
  10  -4   0 1371.74 119.977  11
  10  -4   0 1310.92 129.265  13
  10  -4   0 1269.08 148.898   4
  10  -4   1 772.313 112.417  13
  10  -4   1 680.739 125.234   4
  10  -4   1 650.275 94.5582  11
  10  -4   2-24.4480 72.7906  11
  10  -4   2 105.645 76.6060  13
  10  -3 -11 1869.74 160.034   5
  10  -3 -10-9.11340 78.2487   5
  10  -3 -10-47.4779 75.4394   6
  10  -3  -9 1611.60 146.499   5
  10  -3  -9 1500.94 132.904   6
  10  -3  -8 1143.81 143.593   4
  10  -3  -8 1246.65 131.420   5
  10  -3  -8 1142.70 113.708   6
  10  -3  -7 927.813 131.751   4
  10  -3  -7 872.820 118.005   5
  10  -3  -7 872.614 93.7603   6
  10  -3  -6 388.838 104.986   4
  10  -3  -6 371.460 93.2879   5
  10  -3  -6 348.199 67.5517   6
  10  -3  -5 75.5612 82.6099   4
  10  -3  -5-8.40895 73.1795   5
  10  -3  -5-19.2375 49.9916   6
  10  -3  -4 2053.11 157.844   5
  10  -3  -4 1543.79 110.166  13
  10  -3  -4 1779.28 166.123   4
  10  -3  -4 1721.99 110.702  11
  10  -3  -3 4412.70 229.436   5
  10  -3  -3 3824.73 178.998  11
  10  -3  -3 4790.77 263.744   4
  10  -3  -3 3396.44 181.275  13
  10  -3  -2 1686.03 118.472  11
  10  -3  -2 1678.68 128.463  13
  10  -3  -2 1762.32 172.093   4
  10  -3  -1 194.166 70.5963  13
  10  -3  -1 230.382 73.1597  11
  10  -3  -1 234.575 95.8965   4
  10  -3  -1 308.845 86.8010   5
  10  -3   0 3408.81 183.375  11
  10  -3   0 3591.53 206.707  13
  10  -3   1 1766.34 157.604  13
  10  -3   1 2031.27 153.114  11
  10  -2 -10 1763.41 149.388   6
  10  -2  -9 9.22060 76.9675   5
  10  -2  -9-43.6716 72.0375   6
  10  -2  -8 3697.89 237.336   4
  10  -2  -8 3352.64 184.091   6
  10  -2  -8 3287.68 203.256   5
  10  -2  -7 3484.46 229.361   4
  10  -2  -7 2942.94 165.260   6
  10  -2  -7 3036.16 192.565   5
  10  -2  -6 103.359 86.3740   4
  10  -2  -6 60.0526 77.6024   5
  10  -2  -6 56.2076 55.3616   6
  10  -2  -5 70.6014 50.3008  11
  10  -2  -5 57.9981 86.4586   4
  10  -2  -5 51.0125 73.0124   5
  10  -2  -5 77.9715 57.9511   6
  10  -2  -4 436.803 70.0760  13
  10  -2  -4 462.367 68.7704   6
  10  -2  -4 407.537 69.5548  11
  10  -2  -4 484.849 113.155   4
  10  -2  -4 389.281 95.5742   5
  10  -2  -3 1530.58 123.480  13
  10  -2  -3 1718.74 169.689   4
  10  -2  -3 1816.05 121.141  11
  10  -2  -2 3214.47 195.645   5
  10  -2  -2 2763.01 159.192  11
  10  -2  -2 2826.18 173.153  13
  10  -2  -1 483.518 97.9988  13
  10  -2  -1 418.988 80.4428  11
  10  -2  -1 333.670 105.160   4
  10  -2  -1 645.116 101.465   5
  10  -2   0 1086.61 126.460  13
  10  -2   0 1206.55 119.210  11
  10  -2   1 4254.60 250.900  13
  10  -1 -10 2828.71 183.521   6
  10  -1  -9 761.478 101.256   6
  10  -1  -8 1588.45 132.184   6
  10  -1  -8 1549.39 171.655   4
  10  -1  -7 4684.04 215.014   6
  10  -1  -7 4516.58 280.637   4
  10  -1  -6 2259.39 127.087  11
  10  -1  -6 2321.17 207.554   4
  10  -1  -6 2001.03 135.207   6
  10  -1  -6 2221.30 167.077   5
  10  -1  -5 5.58279 60.9428   6
  10  -1  -5 20.7687 56.6790  11
  10  -1  -5 25.9250 76.6956   5
  10  -1  -5 51.2638 96.3756   4
  10  -1  -4 1078.65 98.2736   6
  10  -1  -4 1202.75 106.313  13
  10  -1  -4 1225.16 159.772   4
  10  -1  -4 1085.34 99.4990  11
  10  -1  -3 1314.98 130.274   5
  10  -1  -3 1319.13 111.325  11
  10  -1  -3 1496.19 172.819   4
  10  -1  -3 1331.30 121.399  13
  10  -1  -2 1088.10 107.024  11
  10  -1  -2 1322.57 129.154  13
  10  -1  -2 1015.31 147.507   4
  10  -1  -1 710.857 116.953  13
  10  -1  -1 915.080 103.341  11
  10  -1   0 60.3560 66.5345  11
  10  -1   0 20.4496 92.4787  13
  10   0  -9 639.295 104.918   6
  10   0  -8 7.26358 68.0819   6
  10   0  -8-55.9617 105.207   4
  10   0  -7 1341.88 120.079   6
  10   0  -7 1172.21 170.381   4
  10   0  -6 4847.62 216.310   6
  10   0  -6 4530.70 294.815   4
  10   0  -6 4332.59 192.991  11
  10   0  -5 1875.00 132.697   6
  10   0  -5 1634.32 191.360   4
  10   0  -5 2086.10 132.680  11
  10   0  -4 362.551 74.0843   6
  10   0  -4 371.402 78.7447  11
  10   0  -4 540.582 132.898   4
  10   0  -3 2484.36 210.865   4
  10   0  -3 2544.43 154.059  11
  10   0  -2 1477.36 125.857  11
  10   1  -8 45.9144 78.8037   6
  10   1  -7 266.125 77.9888   6
  10   1  -7 186.250 64.1342  11
  10   1  -7 166.814 124.407   4
  10   1  -6 2376.72 156.890   6
  10   1  -6 2485.00 146.658  11
  10   1  -5 3421.83 180.443   6
  10   1  -5 3013.13 265.882   4
  10   1  -5 3280.75 174.988  11
  10   1  -4 257.180 79.9539   6
  10   1  -4 245.953 74.6552  11
  10   1  -3 1174.12 116.355  11
  10   2  -7 529.564 89.8677  11
  10   2  -6 914.531 111.480   6
  10   2  -6 947.150 102.219  11
  10   2  -5 1164.40 119.836   6
  10   2  -4 614.300 95.1070   6
  11  -5  -1 441.364 93.4413  13
  11  -4  -2 2771.32 223.065   4
  11  -3  -3 68.5866 100.363   4
   0   0   0    0.00    0.00   0

TITL NV2009_Mo in P-1
REM P-1 (#2 in standard setting)
CELL 0.71073   7.307396  10.154091  11.668820  97.8087 104.2790 107.5011
ZERR    2.00   0.000099   0.000201   0.000217   0.0016   0.0015   0.0015
LATT  1
SFAC C H N Cl I Au
UNIT 36.00 24.00 2.00 2.00 2.00 2.00
TREF
HKLF 4
END
;
_shelx_hkl_checksum              62666
loop_
_space_group_symop_operation_xyz
'x, y, z'
'-x, -y, -z'
loop_
_atom_site_label
_atom_site_type_symbol
_atom_site_fract_x
_atom_site_fract_y
_atom_site_fract_z
_atom_site_U_iso_or_equiv
_atom_site_adp_type
_atom_site_occupancy
_atom_site_site_symmetry_order
_atom_site_calc_flag
_atom_site_refinement_flags_posn
_atom_site_refinement_flags_adp
_atom_site_refinement_flags_occupancy
_atom_site_disorder_assembly
_atom_site_disorder_group
Au1 Au 0.22686(2) 0.45287(2) 0.62080(2) 0.01915(3) Uani 1 1 d . . . . .
I1 I 0.07687(3) 0.23892(2) 0.71788(2) 0.03180(5) Uani 1 1 d . . . . .
Cl1 Cl 0.71058(14) 1.02388(8) 0.84184(8) 0.0475(2) Uani 1 1 d . . . . .
N1 N 0.1177(3) 0.3444(2) 0.43495(19) 0.0231(4) Uani 1 1 d . . . . .
C1 C 0.0011(4) 0.2079(3) 0.3932(3) 0.0292(5) Uani 1 1 d . . . . .
H1 H -0.036307 0.153399 0.449192 0.035 Uiso 1 1 calc R U . . .
C2 C -0.0661(5) 0.1441(3) 0.2718(3) 0.0358(6) Uani 1 1 d . . . . .
H2 H -0.148362 0.046804 0.243687 0.043 Uiso 1 1 calc R U . . .
C3 C -0.0114(4) 0.2247(3) 0.1917(3) 0.0343(6) Uani 1 1 d . . . . .
H3 H -0.056736 0.181974 0.107379 0.041 Uiso 1 1 calc R U . . .
C4 C 0.1099(4) 0.3684(3) 0.2319(2) 0.0267(5) Uani 1 1 d . . . . .
C5 C 0.1768(4) 0.4273(3) 0.3571(2) 0.0221(4) Uani 1 1 d . . . . .
C6 C 0.1551(5) 0.4491(3) 0.1376(3) 0.0349(6) Uani 1 1 d . . . . .
H61 H 0.116265 0.533288 0.147691 0.052 Uiso 1 1 calc R U . . .
H62 H 0.078858 0.388370 0.056521 0.052 Uiso 1 1 calc R U . . .
H63 H 0.299535 0.478199 0.147016 0.052 Uiso 1 1 calc R U . . .
C7 C 0.3085(3) 0.5748(3) 0.4212(2) 0.0211(4) Uani 1 1 d . . . . .
C8 C 0.3448(3) 0.6080(2) 0.5467(2) 0.0195(4) Uani 1 1 d . . . . .
C9 C 0.4640(4) 0.7401(2) 0.6238(2) 0.0214(4) Uani 1 1 d . . . . .
C10 C 0.5546(4) 0.8468(3) 0.5695(2) 0.0256(5) Uani 1 1 d . . . . .
H10 H 0.636541 0.938917 0.617472 0.031 Uiso 1 1 calc R U . . .
C11 C 0.5233(4) 0.8161(3) 0.4449(2) 0.0270(5) Uani 1 1 d . . . . .
H11 H 0.586069 0.888750 0.409190 0.032 Uiso 1 1 calc R U . . .
C12 C 0.4042(4) 0.6839(3) 0.3707(2) 0.0254(5) Uani 1 1 d . . . . .
H12 H 0.387287 0.667051 0.285975 0.030 Uiso 1 1 calc R U . . .
C13 C 0.4743(4) 0.7423(3) 0.7518(2) 0.0226(4) Uani 1 1 d . . . . .
C14 C 0.3673(4) 0.6100(3) 0.7731(2) 0.0223(4) Uani 1 1 d . . . . .
C15 C 0.3648(4) 0.5961(3) 0.8899(2) 0.0287(5) Uani 1 1 d . . . . .
H15 H 0.292840 0.507236 0.902647 0.034 Uiso 1 1 calc R U . . .
C16 C 0.4667(5) 0.7113(3) 0.9874(3) 0.0362(6) Uani 1 1 d . . . . .
H16 H 0.464899 0.701363 1.066986 0.043 Uiso 1 1 calc R U . . .
C17 C 0.5704(5) 0.8399(3) 0.9692(3) 0.0372(6) Uani 1 1 d . . . . .
H17 H 0.640478 0.918762 1.036329 0.045 Uiso 1 1 calc R U . . .
C18 C 0.5736(4) 0.8553(3) 0.8533(3) 0.0302(5) Uani 1 1 d . . . . .
loop_
_atom_site_aniso_label
_atom_site_aniso_U_11
_atom_site_aniso_U_22
_atom_site_aniso_U_33
_atom_site_aniso_U_23
_atom_site_aniso_U_13
_atom_site_aniso_U_12
Au1 0.01887(5) 0.01857(5) 0.02234(5) 0.00794(3) 0.00741(3) 0.00742(3)
I1 0.03237(9) 0.02743(8) 0.04058(10) 0.01732(7) 0.01600(7) 0.00928(7)
Cl1 0.0621(5) 0.0267(3) 0.0395(4) -0.0032(3) 0.0239(4) -0.0066(3)
N1 0.0219(9) 0.0227(10) 0.0240(10) 0.0055(8) 0.0033(8) 0.0098(8)
C1 0.0298(13) 0.0218(11) 0.0311(13) 0.0064(10) 0.0023(10) 0.0076(10)
C2 0.0365(15) 0.0249(13) 0.0357(15) -0.0001(11) -0.0013(12) 0.0090(11)
C3 0.0359(14) 0.0334(14) 0.0272(13) -0.0020(11) -0.0016(11) 0.0160(12)
C4 0.0247(11) 0.0320(13) 0.0247(12) 0.0045(10) 0.0038(9) 0.0157(10)
C5 0.0207(10) 0.0249(11) 0.0235(11) 0.0072(9) 0.0051(9) 0.0122(9)
C6 0.0396(15) 0.0444(16) 0.0226(13) 0.0088(11) 0.0073(11) 0.0182(13)
C7 0.0202(10) 0.0245(11) 0.0234(11) 0.0085(9) 0.0073(8) 0.0128(9)
C8 0.0196(10) 0.0218(10) 0.0215(11) 0.0089(8) 0.0086(8) 0.0099(8)
C9 0.0225(10) 0.0211(10) 0.0249(11) 0.0073(9) 0.0106(9) 0.0099(9)
C10 0.0260(11) 0.0203(11) 0.0329(13) 0.0089(10) 0.0118(10) 0.0079(9)
C11 0.0286(12) 0.0275(12) 0.0314(13) 0.0154(10) 0.0148(10) 0.0103(10)
C12 0.0278(12) 0.0311(12) 0.0237(12) 0.0124(10) 0.0115(10) 0.0138(10)
C13 0.0224(11) 0.0226(11) 0.0253(12) 0.0064(9) 0.0100(9) 0.0086(9)
C14 0.0219(10) 0.0242(11) 0.0237(11) 0.0071(9) 0.0091(9) 0.0096(9)
C15 0.0301(13) 0.0323(13) 0.0261(12) 0.0103(10) 0.0115(10) 0.0103(11)
C16 0.0410(16) 0.0439(16) 0.0230(13) 0.0089(12) 0.0128(12) 0.0108(13)
C17 0.0399(16) 0.0362(15) 0.0269(14) 0.0001(11) 0.0095(12) 0.0048(12)
C18 0.0297(13) 0.0264(12) 0.0298(13) 0.0022(10) 0.0121(11) 0.0025(10)
loop_
_atom_type_symbol
_atom_type_description
_atom_type_scat_dispersion_real
_atom_type_scat_dispersion_imag
_atom_type_scat_source
C C 0.0033 0.0016 'International Tables Vol C Tables 4.2.6.8 and 6.1.1.4'
H H 0.0000 0.0000 'International Tables Vol C Tables 4.2.6.8 and 6.1.1.4'
Au Au -2.0133 8.8022 'International Tables Vol C Tables 4.2.6.8 and 6.1.1.4'
Cl Cl 0.1484 0.1585 'International Tables Vol C Tables 4.2.6.8 and 6.1.1.4'
I I -0.4742 1.8119 'International Tables Vol C Tables 4.2.6.8 and 6.1.1.4'
N N 0.0061 0.0033 'International Tables Vol C Tables 4.2.6.8 and 6.1.1.4'
loop_
_exptl_crystal_face_index_h
_exptl_crystal_face_index_k
_exptl_crystal_face_index_l
_exptl_crystal_face_perp_dist
-4 5 2 0.0617
-5 0 2 0.0791
0 -1 0 0.0570
0 1 0 0.0742
5 -4 -2 0.0667
0 0 1 0.0124
0 0 -1 0.0124
loop_
_geom_angle_atom_site_label_1
_geom_angle_atom_site_label_2
_geom_angle_atom_site_label_3
_geom_angle
_geom_angle_site_symmetry_1
_geom_angle_site_symmetry_3
_geom_angle_publ_flag
C8 Au1 C14 81.23(10) . . ?
C8 Au1 N1 79.81(9) . . ?
C14 Au1 N1 161.02(9) . . ?
C8 Au1 I1 177.80(6) . . ?
C14 Au1 I1 99.74(7) . . ?
N1 Au1 I1 99.24(6) . . ?
C1 N1 C5 121.1(2) . . ?
C1 N1 Au1 124.64(18) . . ?
C5 N1 Au1 114.29(16) . . ?
N1 C1 C2 121.9(3) . . ?
N1 C1 H1 119.1 . . ?
C2 C1 H1 119.1 . . ?
C1 C2 C3 118.4(3) . . ?
C1 C2 H2 120.8 . . ?
C3 C2 H2 120.8 . . ?
C2 C3 C4 121.4(3) . . ?
C2 C3 H3 119.3 . . ?
C4 C3 H3 119.3 . . ?
C5 C4 C3 117.7(3) . . ?
C5 C4 C6 124.7(3) . . ?
C3 C4 C6 117.6(2) . . ?
N1 C5 C4 119.5(2) . . ?
N1 C5 C7 112.9(2) . . ?
C4 C5 C7 127.6(2) . . ?
C4 C6 H61 109.5 . . ?
C4 C6 H62 109.5 . . ?
H61 C6 H62 109.5 . . ?
C4 C6 H63 109.5 . . ?
H61 C6 H63 109.5 . . ?
H62 C6 H63 109.5 . . ?
C8 C7 C12 116.3(2) . . ?
C8 C7 C5 116.0(2) . . ?
C12 C7 C5 127.7(2) . . ?
C7 C8 C9 125.2(2) . . ?
C7 C8 Au1 116.97(18) . . ?
C9 C8 Au1 117.80(17) . . ?
C8 C9 C10 116.7(2) . . ?
C8 C9 C13 112.6(2) . . ?
C10 C9 C13 130.7(2) . . ?
C11 C10 C9 119.3(2) . . ?
C11 C10 H10 120.3 . . ?
C9 C10 H10 120.3 . . ?
C12 C11 C10 122.7(2) . . ?
C12 C11 H11 118.7 . . ?
C10 C11 H11 118.7 . . ?
C11 C12 C7 119.8(2) . . ?
C11 C12 H12 120.1 . . ?
C7 C12 H12 120.1 . . ?
C18 C13 C14 116.6(2) . . ?
C18 C13 C9 128.9(2) . . ?
C14 C13 C9 114.5(2) . . ?
C15 C14 C13 120.9(2) . . ?
C15 C14 Au1 125.33(19) . . ?
C13 C14 Au1 113.81(17) . . ?
C16 C15 C14 120.2(3) . . ?
C16 C15 H15 119.9 . . ?
C14 C15 H15 119.9 . . ?
C17 C16 C15 120.0(3) . . ?
C17 C16 H16 120.0 . . ?
C15 C16 H16 120.0 . . ?
C16 C17 C18 120.4(3) . . ?
C16 C17 H17 119.8 . . ?
C18 C17 H17 119.8 . . ?
C17 C18 C13 122.0(3) . . ?
C17 C18 Cl1 116.1(2) . . ?
C13 C18 Cl1 121.9(2) . . ?
loop_
_geom_bond_atom_site_label_1
_geom_bond_atom_site_label_2
_geom_bond_distance
_geom_bond_site_symmetry_2
_geom_bond_publ_flag
Au1 C8 1.973(2) . ?
Au1 C14 2.025(3) . ?
Au1 N1 2.126(2) . ?
Au1 I1 2.65578(19) . ?
Cl1 C18 1.746(3) . ?
N1 C1 1.336(3) . ?
N1 C5 1.379(3) . ?
C1 C2 1.373(4) . ?
C1 H1 0.9500 . ?
C2 C3 1.378(5) . ?
C2 H2 0.9500 . ?
C3 C4 1.402(4) . ?
C3 H3 0.9500 . ?
C4 C5 1.402(4) . ?
C4 C6 1.501(4) . ?
C5 C7 1.484(3) . ?
C6 H61 0.9800 . ?
C6 H62 0.9800 . ?
C6 H63 0.9800 . ?
C7 C8 1.396(3) . ?
C7 C12 1.407(3) . ?
C8 C9 1.397(3) . ?
C9 C10 1.405(3) . ?
C9 C13 1.474(3) . ?
C10 C11 1.391(4) . ?
C10 H10 0.9500 . ?
C11 C12 1.385(4) . ?
C11 H11 0.9500 . ?
C12 H12 0.9500 . ?
C13 C18 1.396(4) . ?
C13 C14 1.426(3) . ?
C14 C15 1.394(4) . ?
C15 C16 1.383(4) . ?
C15 H15 0.9500 . ?
C16 C17 1.373(4) . ?
C16 H16 0.9500 . ?
C17 C18 1.387(4) . ?
C17 H17 0.9500 . ?
loop_
_geom_torsion_atom_site_label_1
_geom_torsion_atom_site_label_2
_geom_torsion_atom_site_label_3
_geom_torsion_atom_site_label_4
_geom_torsion
_geom_torsion_site_symmetry_1
_geom_torsion_site_symmetry_2
_geom_torsion_site_symmetry_3
_geom_torsion_site_symmetry_4
_geom_torsion_publ_flag
C5 N1 C1 C2 -0.4(4) . . . . ?
Au1 N1 C1 C2 179.4(2) . . . . ?
N1 C1 C2 C3 -0.3(4) . . . . ?
C1 C2 C3 C4 0.0(4) . . . . ?
C2 C3 C4 C5 1.0(4) . . . . ?
C2 C3 C4 C6 -177.7(3) . . . . ?
C1 N1 C5 C4 1.5(3) . . . . ?
Au1 N1 C5 C4 -178.39(17) . . . . ?
C1 N1 C5 C7 -179.0(2) . . . . ?
Au1 N1 C5 C7 1.2(2) . . . . ?
C3 C4 C5 N1 -1.7(3) . . . . ?
C6 C4 C5 N1 176.9(2) . . . . ?
C3 C4 C5 C7 178.7(2) . . . . ?
C6 C4 C5 C7 -2.7(4) . . . . ?
N1 C5 C7 C8 -2.5(3) . . . . ?
C4 C5 C7 C8 177.1(2) . . . . ?
N1 C5 C7 C12 176.0(2) . . . . ?
C4 C5 C7 C12 -4.4(4) . . . . ?
C12 C7 C8 C9 1.3(3) . . . . ?
C5 C7 C8 C9 180.0(2) . . . . ?
C12 C7 C8 Au1 -176.00(16) . . . . ?
C5 C7 C8 Au1 2.7(3) . . . . ?
C7 C8 C9 C10 -0.5(3) . . . . ?
Au1 C8 C9 C10 176.82(17) . . . . ?
C7 C8 C9 C13 -179.8(2) . . . . ?
Au1 C8 C9 C13 -2.5(3) . . . . ?
C8 C9 C10 C11 -0.4(3) . . . . ?
C13 C9 C10 C11 178.7(2) . . . . ?
C9 C10 C11 C12 0.5(4) . . . . ?
C10 C11 C12 C7 0.4(4) . . . . ?
C8 C7 C12 C11 -1.2(3) . . . . ?
C5 C7 C12 C11 -179.8(2) . . . . ?
C8 C9 C13 C18 -178.2(2) . . . . ?
C10 C9 C13 C18 2.6(4) . . . . ?
C8 C9 C13 C14 1.8(3) . . . . ?
C10 C9 C13 C14 -177.4(2) . . . . ?
C18 C13 C14 C15 -0.4(4) . . . . ?
C9 C13 C14 C15 179.6(2) . . . . ?
C18 C13 C14 Au1 179.66(19) . . . . ?
C9 C13 C14 Au1 -0.3(3) . . . . ?
C13 C14 C15 C16 0.0(4) . . . . ?
Au1 C14 C15 C16 180.0(2) . . . . ?
C14 C15 C16 C17 0.1(4) . . . . ?
C15 C16 C17 C18 0.1(5) . . . . ?
C16 C17 C18 C13 -0.5(5) . . . . ?
C16 C17 C18 Cl1 180.0(2) . . . . ?
C14 C13 C18 C17 0.6(4) . . . . ?
C9 C13 C18 C17 -179.4(3) . . . . ?
C14 C13 C18 Cl1 -179.90(19) . . . . ?
C9 C13 C18 Cl1 0.1(4) . . . . ?
loop_
_exptl_oxdiff_crystal_face_indexfrac_h
_exptl_oxdiff_crystal_face_indexfrac_k
_exptl_oxdiff_crystal_face_indexfrac_l
_exptl_oxdiff_crystal_face_x
_exptl_oxdiff_crystal_face_y
_exptl_oxdiff_crystal_face_z
-4.0014 5.0061 1.9896 0.2169 -0.1028 0.3998
-5.0002 0.0005 2.0025 -0.1529 0.0924 0.4777
0.0002 -1.0010 0.0025 -0.0688 0.0303 -0.0032
-0.0002 1.0010 -0.0025 0.0688 -0.0303 0.0032
5.0011 -4.0044 -1.9924 -0.1223 0.0287 -0.4906
-0.0004 0.0020 1.0007 -0.0120 -0.0632 0.0039
0.0004 -0.0020 -1.0007 0.0120 0.0632 -0.0039
