#------------------------------------------------------------------------------
#$Date: 2022-01-01 07:13:54 +0200 (Sat, 01 Jan 2022) $
#$Revision: 271676 $
#$URL: file:///home/coder/svn-repositories/cod/cif/1/56/58/1565865.cif $
#------------------------------------------------------------------------------
#
# This file is available in the Crystallography Open Database (COD),
# http://www.crystallography.net/. The original data for this entry
# were provided by IUCr Journals, http://journals.iucr.org/.
#
# The file may be used within the scientific community so long as
# proper attribution is given to the journal article from which the
# data were obtained.
#
data_1565865
loop_
_publ_author_name
'Olejniczak, Anna'
'Katrusiak, Anna'
'Podsiad\/lo, Marcin'
'Katrusiak, Andrzej'
_publ_section_title
;
 Stochastic hydration of a high-nitrogen-content molecular compound
 recrystallized under pressure
;
_journal_issue                   1
_journal_name_full               IUCrJ
_journal_page_first              49
_journal_page_last               54
_journal_paper_doi               10.1107/S2052252521010381
_journal_volume                  9
_journal_year                    2022
_chemical_formula_moiety         'C4 H2 Cl N5'
_chemical_formula_sum            'C4 H2 Cl N5'
_chemical_formula_weight         155.56
_chemical_name_systematic        6-chloro-1,2,3,4-tetrazolo[1,5-b]pyridazine
_space_group_crystal_system      orthorhombic
_space_group_IT_number           19
_space_group_name_Hall           'P 2ac 2ab'
_space_group_name_H-M_alt        'P 21 21 21'
_atom_sites_solution_hydrogens   geom
_atom_sites_solution_primary     direct
_audit_creation_date             2020-07-14
_audit_creation_method
;
Olex2 1.3
(compiled 2020.06.28 svn.raecde09e for OlexSys, GUI svn.r6132)
;
_cell_angle_alpha                90
_cell_angle_beta                 90
_cell_angle_gamma                90
_cell_formula_units_Z            4
_cell_length_a                   7.0604(2)
_cell_length_b                   8.7800(2)
_cell_length_c                   10.0712(2)
_cell_measurement_reflns_used    2552
_cell_measurement_temperature    275.0(1)
_cell_measurement_theta_max      64.6690
_cell_measurement_theta_min      6.6870
_cell_volume                     624.32(3)
_computing_cell_refinement       'CrysAlisPro 1.171.40.67a (Rigaku OD, 2019)'
_computing_data_collection       'CrysAlisPro 1.171.40.67a (Rigaku OD, 2019)'
_computing_data_reduction        'CrysAlisPro 1.171.40.67a (Rigaku OD, 2019)'
_computing_molecular_graphics    'Olex2 1.3 (Dolomanov et al., 2009)'
_computing_publication_material  'Olex2 1.3 (Dolomanov et al., 2009)'
_computing_structure_refinement  'SHELXL 2018/3 (Sheldrick, 2015)'
_computing_structure_solution    'SHELXT 2018/2 (Sheldrick, 2018)'
_diffrn_ambient_environment      air
_diffrn_ambient_temperature      275.0(1)
_diffrn_detector                 'CCD plate'
_diffrn_detector_area_resol_mean 10.5357
_diffrn_detector_type            Atlas
_diffrn_measured_fraction_theta_full 0.991
_diffrn_measured_fraction_theta_max 0.991
_diffrn_measurement_details
;
List of Runs (angles in degrees, time in seconds):

  # Type    Start    End  Width  t~exp~   \w     \q     \k     \f   Frames
--------------------------------------------------------------------------
  1  \w     13.00 116.00   1.00    1.25    --   41.73  77.00 150.00  103
  2  \w     13.00  88.00   1.00    1.25    --   41.73-125.00  60.00   75
  3  \w     40.00  99.00   1.00    1.25    --   41.73  37.00 -90.00   59
  4  \w     16.00  51.00   1.00    2.50    --   88.44 -45.00 150.00   35
  5  \w     36.00 158.00   1.00    2.50    --   88.44  15.00  60.00  122
  6  \w      8.00 106.00   1.00    2.50    --   88.44 -94.00 120.00   98
  7  \w     37.00  77.00   1.00    2.50    --   88.44 -45.00  90.00   40
  8  \w     44.00  70.00   1.00    2.50    --   88.44 -45.00-120.00   26
  9  \w     16.00 109.00   1.00    2.50    --   88.44 -94.00-120.00   93
 10  \w     26.00  75.00   1.00    2.50    --   88.44 -45.00   0.00   49
 11  \w     42.00  81.00   1.00    2.50    --   88.44 -94.00   0.00   39
 12  \w     85.00 111.00   1.00    2.50    --   88.44 125.00  90.00   26
 13  \w    116.00 146.00   1.00    2.50    --   88.44 125.00  90.00   30
 14  \w     68.00 107.00   1.00    2.50    --   88.44-125.00  90.00   39
 15  \w     75.00 156.00   1.00    2.50    --   88.44  61.00 -90.00   81
;
_diffrn_measurement_device       'four-circle diffractometer'
_diffrn_measurement_device_type
'SuperNova, Single source at offset/far, Atlas'
_diffrn_measurement_method       '\w scans'
_diffrn_orient_matrix_type
'CrysAlisPro convention (1999,Acta A55,543-557)'
_diffrn_orient_matrix_UB_11      0.0560389000
_diffrn_orient_matrix_UB_12      -0.0094224000
_diffrn_orient_matrix_UB_13      0.1475664000
_diffrn_orient_matrix_UB_21      -0.0480786000
_diffrn_orient_matrix_UB_22      -0.1711986000
_diffrn_orient_matrix_UB_23      0.0006395000
_diffrn_orient_matrix_UB_31      0.2053207000
_diffrn_orient_matrix_UB_32      -0.0374985000
_diffrn_orient_matrix_UB_33      -0.0401354000
_diffrn_radiation_monochromator  mirror
_diffrn_radiation_probe          x-ray
_diffrn_radiation_type           'Cu K\a'
_diffrn_radiation_wavelength     1.54184
_diffrn_reflns_av_R_equivalents  0.0180
_diffrn_reflns_av_unetI/netI     0.0141
_diffrn_reflns_Laue_measured_fraction_full 0.991
_diffrn_reflns_Laue_measured_fraction_max 0.991
_diffrn_reflns_limit_h_max       8
_diffrn_reflns_limit_h_min       -6
_diffrn_reflns_limit_k_max       9
_diffrn_reflns_limit_k_min       -10
_diffrn_reflns_limit_l_max       10
_diffrn_reflns_limit_l_min       -11
_diffrn_reflns_number            3674
_diffrn_reflns_point_group_measured_fraction_full 0.986
_diffrn_reflns_point_group_measured_fraction_max 0.986
_diffrn_reflns_theta_full        64.795
_diffrn_reflns_theta_max         64.795
_diffrn_reflns_theta_min         6.689
_diffrn_source                   'micro-focus sealed X-ray tube'
_diffrn_source_type              'SuperNova (Cu) X-ray Source'
_exptl_absorpt_coefficient_mu    4.783
_exptl_absorpt_correction_T_max  1.00000
_exptl_absorpt_correction_T_min  0.67430
_exptl_absorpt_correction_type   multi-scan
_exptl_absorpt_process_details
;
CrysAlisPro 1.171.40.67a (Rigaku Oxford Diffraction, 2019)
Empirical absorption correction using spherical harmonics,
 implemented in SCALE3 ABSPACK scaling algorithm.
;
_exptl_crystal_colour            colourless
_exptl_crystal_density_diffrn    1.655
_exptl_crystal_description       plate
_exptl_crystal_F_000             312
_exptl_crystal_size_max          0.50
_exptl_crystal_size_mid          0.20
_exptl_crystal_size_min          0.15
_refine_diff_density_max         0.126
_refine_diff_density_min         -0.188
_refine_diff_density_rms         0.029
_refine_ls_abs_structure_details
;
 Flack x determined using 380 quotients [(I+)-(I-)]/[(I+)+(I-)]
 (Parsons, Flack and Wagner, Acta Cryst. B69 (2013) 249-259).
;
_refine_ls_abs_structure_Flack   0.486(7)
_refine_ls_extinction_method     none
_refine_ls_goodness_of_fit_ref   1.056
_refine_ls_hydrogen_treatment    constr
_refine_ls_matrix_type           full
_refine_ls_number_parameters     91
_refine_ls_number_reflns         1044
_refine_ls_number_restraints     0
_refine_ls_restrained_S_all      1.056
_refine_ls_R_factor_all          0.0346
_refine_ls_R_factor_gt           0.0330
_refine_ls_shift/su_max          0.000
_refine_ls_shift/su_mean         0.000
_refine_ls_structure_factor_coef Fsqd
_refine_ls_weighting_details
'w=1/[\s^2^(Fo^2^)+(0.0395P)^2^+0.2676P] where P=(Fo^2^+2Fc^2^)/3'
_refine_ls_weighting_scheme      calc
_refine_ls_wR_factor_gt          0.0834
_refine_ls_wR_factor_ref         0.0848
_reflns_Friedel_coverage         0.639
_reflns_Friedel_fraction_full    0.978
_reflns_Friedel_fraction_max     0.978
_reflns_number_gt                999
_reflns_number_total             1044
_reflns_threshold_expression     'I > 2\s(I)'
_cod_data_source_file            lt5042.cif
_cod_data_source_block           C4H2N5Cl1@275K_phase_alpha
_cod_database_code               1565865
_shelx_shelxl_version_number     2018/3
_chemical_oxdiff_formula         C4H2N5Cl1
_shelx_space_group_comment
;
The symmetry employed for this shelxl refinement is uniquely defined
by the following loop, which should always be used as a source of
symmetry information in preference to the above space-group names.
They are only intended as comments.
;
_reflns_odcompleteness_completeness 99.09
_reflns_odcompleteness_iscentric 1
_reflns_odcompleteness_theta     64.70
_olex2_refinement_description
;
1. Fixed Uiso
 At 1.2 times of:
  All C(H) groups
2.a Aromatic/amide H refined with riding coordinates:
 C7(H7), C8(H8)
;
_shelx_res_file
;
TITL 1a_a.res in P2(1)2(1)2(1)
    1a.res
    created by SHELXL-2018/3 at 12:31:23 on 14-Jul-2020
REM Old TITL 1a in P2(1)2(1)2(1)
REM SHELXT solution in P2(1)2(1)2(1): R1 0.154, Rweak 0.035, Alpha 0.002
REM <I/s> 0.737 for 15 systematic absences, Orientation as input
REM Flack x = 0.486 ( 0.006 ) from 384 Parsons' quotients
REM Formula found by SHELXT: C8 N Cl
CELL 1.54184 7.0604 8.78 10.0712 90 90 90
ZERR 4 0.0002 0.0002 0.0002 0 0 0
LATT -1
SYMM 0.5-X,-Y,0.5+Z
SYMM -X,0.5+Y,0.5-Z
SYMM 0.5+X,0.5-Y,-Z
SFAC C H Cl N
UNIT 16 8 4 20

L.S. 44
PLAN  5
CONF
BOND
list 4
MORE -1
BOND $H
fmap 2 53
ACTA
REM <olex2.extras>
REM <HklSrc "%.\\1a.hkl">
REM </olex2.extras>

WGHT    0.039500    0.267600
FVAR       1.06230
CL1   3    0.290378    0.334169    0.320665    11.00000    0.07845    0.03835 =
         0.09129   -0.00318    0.02128   -0.00179
N4    4    0.356315    0.748222    0.411999    11.00000    0.05504    0.04113 =
         0.03725   -0.00184   -0.00050   -0.00377
N5    4    0.366798    0.595096    0.418412    11.00000    0.05731    0.04241 =
         0.04522    0.00591    0.00127    0.00056
N3    4    0.428738    0.838881    0.506259    11.00000    0.07941    0.06071 =
         0.04930   -0.01006   -0.00907   -0.01123
N2    4    0.390616    0.977438    0.465797    11.00000    0.09034    0.05346 =
         0.07033   -0.01907    0.00469   -0.01218
N1    4    0.297526    0.980559    0.349295    11.00000    0.07754    0.04235 =
         0.06607   -0.00386    0.00714   -0.00159
C9    1    0.276633    0.834448    0.315323    11.00000    0.05421    0.03869 =
         0.04061    0.00436    0.00509    0.00196
C7    1    0.201117    0.604813    0.208599    11.00000    0.06139    0.05768 =
         0.03853   -0.00872   -0.00036   -0.00581
AFIX  43
H7    2    0.148917    0.548741    0.139328    11.00000   -1.20000
AFIX   0
C6    1    0.286943    0.530262    0.317456    11.00000    0.05156    0.03892 =
         0.04805   -0.00293    0.01151   -0.00098
C8    1    0.195938    0.757875    0.206517    11.00000    0.06074    0.05855 =
         0.03993    0.00703   -0.00272    0.00325
AFIX  43
H8    2    0.141406    0.810760    0.136232    11.00000   -1.20000
AFIX   0
HKLF 4




REM  1a_a.res in P2(1)2(1)2(1)
REM wR2 = 0.0848, GooF = S = 1.056, Restrained GooF = 1.056 for all data
REM R1 = 0.0330 for 999 Fo > 4sig(Fo) and 0.0346 for all 1044 data
REM 91 parameters refined using 0 restraints

END

WGHT      0.0395      0.2676

REM Highest difference peak  0.126,  deepest hole -0.188,  1-sigma level  0.029
Q1    1   0.3986  0.3563  0.3643  11.00000  0.05    0.13
Q2    1   0.2774  0.5633  0.2563  11.00000  0.05    0.13
Q3    1   0.2784  0.7837  0.3627  11.00000  0.05    0.11
Q4    1   0.1817  0.3442  0.3592  11.00000  0.05    0.10
Q5    1   0.2886  1.0470  0.3173  11.00000  0.05    0.10
;
_shelx_res_checksum              8964
_shelx_hkl_file
;
   0   0   1    0.05    0.15
   0   0   2 1590.05    9.44
   0   0   3   -0.03    0.53
   0   0   4   28.57    1.95
   0   0   5   -0.20    0.79
   0   0  -6 1061.05   10.20
   0   0  -6 1082.46   10.30
   0   0   6 1085.55   15.30
   0   0  -7   -0.02    0.46
   0   0   7    0.63    0.46
   0   0  -7    0.34    0.46
   0   0  -8  591.91    8.92
   0   0  -8  584.01    9.07
   0   0   8  573.18   13.76
   0   0  -9    0.19    0.67
   0   0 -10  193.96    5.53
   0   0 -11   -0.30    0.62
   0  -1   0    0.72    0.26
   0  -1   0    0.01    0.11
   0  -1   1 1446.90    7.00
   0   1   1 1426.93    7.72
   0  -1   2   44.02    1.62
   0   1   2   43.01    1.72
   0   1   3 3836.15   19.11
   0  -1   3 3884.90   18.22
   0   1   4   16.16    1.62
   0  -1   4   16.64    1.54
   0  -1   5 1176.32   13.89
   0   1   5 1155.51   14.29
   0  -1  -6    1.79    0.65
   0   1   6   -0.21    0.91
   0   1  -6    1.32    0.50
   0   1  -6    0.74    0.48
   0  -1  -6    0.13    0.49
   0  -1   6   -0.21    0.64
   0   1   7   22.28    2.69
   0  -1  -7   18.32    1.59
   0  -1  -7   19.35    1.63
   0   1  -7   20.58    1.66
   0  -1   7   19.99    2.41
   0   1  -7   19.87    1.57
   0   1   8   33.00    3.42
   0  -1  -8   30.58    2.08
   0  -1   8   30.37    3.24
   0   1  -8   30.62    2.18
   0  -1  -8   28.71    2.15
   0   1  -8   30.82    2.12
   0   1  -9   10.79    1.44
   0  -1  -9   11.41    1.29
   0   1  -9    8.25    1.14
   0  -1  -9    9.66    1.40
   0   1 -10   78.73    3.47
   0  -1 -10   83.56    3.64
   0   1 -10   76.19    3.24
   0   1 -11   34.90    2.06
   0  -1 -11   33.17    2.11
   0  -2   0  181.00    2.05
   0  -2   0  169.22    3.43
   0  -2   1 1114.71    9.06
   0   2   1 1165.43    8.54
   0  -2   2  347.72    5.00
   0   2   2  340.49    5.47
   0  -2   2  343.92    5.61
   0  -2   3  343.13    5.80
   0   2   3  331.08    6.12
   0   2   4    7.77    1.26
   0  -2   4   10.34    1.26
   0   2  -5  766.04    7.90
   0  -2   5  745.51   11.26
   0   2  -5  756.24    8.21
   0  -2  -5  776.01    8.21
   0   2   5  729.54   11.89
   0   2   6   14.86    2.07
   0   2  -6   15.84    1.32
   0  -2   6   18.52    2.21
   0  -2  -6   17.02    1.42
   0   2  -6   17.04    1.44
   0  -2  -6   16.47    1.42
   0  -2  -7  334.26    6.71
   0   2  -7  342.85    6.67
   0   2  -7  329.11    6.39
   0   2   7  340.97   10.07
   0  -2  -7  333.54    6.49
   0  -2   7  330.85    9.50
   0  -2  -8   22.88    1.81
   0  -2   8   22.32    2.90
   0   2   8   19.96    2.77
   0  -2  -8   24.09    2.02
   0   2  -8   21.94    1.92
   0   2  -8   20.55    1.82
   0  -2  -9    0.61    0.73
   0   2  -9    2.37    0.91
   0   2  -9    1.33    0.86
   0   2 -10   76.96    3.31
   0   2 -10   79.73    3.23
   0  -2 -10   76.91    3.34
   0  -2 -11    2.43    0.74
   0   2 -11    2.55    0.66
   0  -3   0    0.55    0.24
   0  -3   0    0.06    0.53
   0   3   1  257.64    4.80
   0  -3   1  257.92    5.34
   0   3   2 2067.36   15.23
   0  -3   2 2009.58   15.73
   0   3   3    4.05    0.91
   0  -3   3    4.70    1.03
   0   3  -4   17.31    1.29
   0   3   4   18.59    1.88
   0  -3   4   18.41    1.93
   0  -3  -4   21.18    1.40
   0   3  -5   83.25    2.97
   0  -3   5   83.93    4.01
   0   3  -5   90.63    2.84
   0  -3  -5   81.10    2.90
   0  -3   5   82.12    4.31
   0   3   6   10.23    1.81
   0   3  -6   11.46    1.21
   0  -3   6   12.95    1.92
   0  -3   6    7.83    1.72
   0   3  -6   10.68    1.24
   0  -3  -6   11.41    1.31
   0  -3  -7    6.44    1.02
   0  -3  -7    5.77    1.06
   0  -3   7    6.84    1.66
   0   3   7    9.57    1.83
   0   3  -7    7.34    1.06
   0  -3  -7    6.23    1.13
   0   3  -8  116.69    4.05
   0   3  -8  120.32    4.29
   0  -3   8  113.61    6.55
   0  -3  -8  118.13    4.43
   0   3  -9   10.87    1.31
   0  -3  -9   10.02    1.46
   0   3  -9    8.33    1.22
   0   3 -10    0.71    0.63
   0  -3 -10    0.82    0.75
   0   3 -10    1.67    0.54
   0  -3 -11    0.59    0.46
   0  -4   0    8.80    1.30
   0   4   1 3003.51   19.09
   0  -4   1 3008.96   21.51
   0  -4   2   88.78    2.89
   0  -4   2   87.59    3.86
   0   4   2   94.42    3.73
   0  -4  -3  178.40    4.00
   0   4   3  169.75    5.34
   0  -4   3  181.97    5.86
   0   4  -3  180.38    4.05
   0  -4  -4   84.00    2.75
   0   4   4   77.76    4.02
   0  -4  -4   86.65    3.00
   0  -4   4   90.48    4.51
   0   4  -4   83.26    2.98
   0   4  -5  202.60    4.95
   0   4   5  196.33    6.96
   0  -4   5  207.31    7.29
   0  -4  -5  212.28    4.55
   0  -4  -5  205.88    4.95
   0   4  -5  202.16    4.44
   0   4  -6   53.79    2.52
   0   4  -6   51.39    2.74
   0  -4  -6   51.30    2.70
   0   4   6   51.50    3.97
   0  -4   6   52.98    4.14
   0  -4  -7  141.81    4.72
   0   4   7  145.60    7.03
   0  -4   7  139.33    6.85
   0  -4  -7  142.30    4.83
   0   4  -7  138.12    4.22
   0   4  -7  148.40    4.78
   0   4  -8    2.99    0.85
   0   4  -8    4.04    1.11
   0  -4  -8    2.73    0.95
   0  -4  -9  179.69    5.28
   0   4  -9  195.44    5.33
   0  -4 -10    7.07    1.17
   0   4 -10    8.18    1.09
   0  -5   0    0.41    0.80
   0  -5   0    1.03    0.42
   0  -5   0    0.86    0.50
   0   5   0    0.00    0.46
   0  -5   1  517.68    6.83
   0  -5  -1  518.94    7.08
   0  -5  -1  516.09    7.03
   0  -5   1  494.45   10.06
   0   5   1  514.34    7.01
   0  -5   1  513.22    6.74
   0   5   1  541.47    9.16
   0   5  -1  530.86    7.14
   0   5   2    3.98    0.98
   0   5  -2    3.50    0.73
   0   5   2    4.70    0.88
   0  -5   2    3.96    0.77
   0  -5   2    4.27    0.83
   0  -5  -2    3.82    0.72
   0  -5   2    6.94    1.46
   0  -5  -3  763.53    9.15
   0  -5   3  760.03    8.68
   0   5   3  763.23   12.33
   0   5  -3  796.48    9.50
   0  -5   4  564.69   12.12
   0   5  -4  552.49    8.35
   0  -5  -4  566.06    7.88
   0   5   4  556.73   11.32
   0  -5   4  562.35    7.71
   0  -5  -4  555.62    8.26
   0  -5  -5    3.60    0.98
   0  -5  -5    4.80    0.86
   0   5  -5    5.55    0.95
   0   5   5    2.90    1.35
   0  -5   5    3.60    1.27
   0  -5  -6   50.86    2.89
   0   5  -6   53.42    2.92
   0   5   6   51.53    4.12
   0  -5   6   52.10    4.28
   0  -5  -7    3.71    1.15
   0   5  -7    2.85    0.99
   0  -5  -8    1.30    0.92
   0   5  -8    0.87    0.81
   0  -5  -9   45.73    2.55
   0   5  -9   46.27    2.54
   0   5 -10    0.70    0.44
   0  -5 -10   -0.02    0.35
   0   6   0  903.05   10.38
   0  -6   0  894.23    9.98
   0  -6   1   27.76    1.81
   0  -6   1   32.05    3.01
   0   6  -1   31.51    2.03
   0  -6   1   26.45    1.78
   0  -6  -1   28.74    1.86
   0  -6  -1   26.74    1.86
   0   6   1   28.12    1.88
   0  -6  -2  173.81    4.65
   0  -6   2  172.43    4.41
   0  -6   2  166.43    6.80
   0   6  -2  175.41    4.81
   0  -6   2  172.63    4.37
   0   6  -3   22.54    1.85
   0  -6   3   22.25    1.66
   0  -6   3   22.80    2.69
   0  -6  -3   23.09    1.83
   0  -6  -4    2.04    0.79
   0  -6   4    2.28    1.53
   0  -6  -4    2.37    0.88
   0   6  -4    2.27    0.98
   0  -6   4    3.09    0.94
   0  -6  -5   11.50    1.39
   0   6  -5    8.96    1.39
   0  -6   5   12.30    1.36
   0  -6  -5    9.48    1.41
   0  -6   5   11.43    2.35
   0  -6  -6  992.50   12.64
   0   6  -6  971.69   12.60
   0  -6  -7    0.74    0.74
   0   6  -7   -0.42    0.68
   0   6  -8   18.08    1.70
   0  -6  -8   17.16    1.68
   0  -6  -9    1.00    0.59
   0   6  -9    1.10    0.60
   0  -7   0    1.02    0.53
   0   7   0    0.62    0.58
   0  -7   0    1.00    0.61
   0   7   1    4.73    1.01
   0  -7   1    3.48    0.96
   0   7  -1    4.13    1.11
   0  -7   1    3.81    0.86
   0  -7  -1    4.76    0.93
   0   7  -2    1.43    0.83
   0  -7   2    2.96    0.67
   0  -7  -2    0.64    0.64
   0  -7   3   29.02    1.97
   0  -7   3   26.45    3.10
   0  -7  -3   29.85    2.19
   0   7  -3   28.87    2.29
   0  -7  -3   27.40    2.06
   0  -7  -4   79.84    3.44
   0   7  -4   82.49    3.77
   0  -7  -4   78.53    3.51
   0  -7  -5  198.63    5.61
   0   7  -5  207.18    5.80
   0  -7  -5  199.27    5.31
   0  -7  -6    5.60    1.22
   0   7  -6    1.87    0.91
   0   7  -7    8.52    1.20
   0  -7  -7    8.15    1.26
   0   7  -8    0.51    0.55
   0  -7  -8    0.11    0.50
   0   7  -8   -0.13    0.40
   0  -8   0    2.66    0.91
   0   8   0    2.61    0.94
   0  -8   1  452.38    7.92
   0   8  -1  451.22    8.49
   0  -8  -1  445.84    7.73
   0  -8  -2   20.45    1.79
   0  -8   2   19.73    1.80
   0  -8  -2   19.95    1.86
   0   8  -2   21.84    2.03
   0   8  -3    7.06    1.21
   0  -8  -3    5.52    1.11
   0  -8  -3    6.01    1.18
   0  -8  -4    0.71    0.79
   0  -8  -4    1.60    0.72
   0   8  -4    0.65    0.76
   0  -8  -5   18.31    1.56
   0  -8  -5   16.74    1.65
   0   8  -5   18.06    1.74
   0  -8  -6   51.80    2.61
   0   8  -6   53.60    2.67
   0   8  -7   46.11    2.24
   0  -8  -7   41.23    2.12
   0  -9   0   -1.06    0.71
   0  -9  -1   38.75    2.17
   0  -9  -1   40.78    2.44
   0   9  -1   38.97    2.39
   0  -9  -2   98.95    3.69
   0   9  -2  104.23    3.81
   0  -9  -2  100.81    3.46
   0  -9  -3    2.42    0.73
   0   9  -3    3.27    0.89
   0  -9  -3    3.22    0.76
   0  -9  -4  110.69    3.53
   0  -9  -4  112.92    3.56
   0   9  -4  113.64    3.78
   0  -9  -5   -0.64    0.61
   0   9  -5    1.69    0.68
   0 -10   0   79.86    2.91
   0 -10  -1   84.20    2.97
   0 -10   1   86.74    2.93
   0 -10   2   15.37    1.20
   0 -10  -2   17.74    1.41
   1   0   0    0.62    0.38
  -1   0   0    0.04    0.14
   1   0  -1  996.69    6.81
   1   0   1 1016.86    6.86
  -1   0   3 1401.45   10.97
   1   0   3 1398.65   12.01
  -1   0   4  390.71    6.92
   1   0   4  402.06    7.57
   1   0   5    2.66    1.10
  -1   0   5    3.01    0.93
   1   0  -5    3.96    0.72
  -1   0  -5    2.96    0.74
  -1   0   6    9.33    1.65
   1   0  -6   10.25    1.20
  -1   0  -6   10.85    1.08
  -1   0  -6   11.45    1.24
   1   0   6   10.55    1.83
   1   0  -7   11.35    1.38
  -1   0   7   11.80    2.08
  -1   0  -7   14.36    1.35
  -1   0  -7   11.34    1.36
   1   0   7   11.94    2.14
   1   0   8  132.89    6.89
  -1   0   8  124.42    6.31
  -1   0  -8  133.79    4.15
   1   0  -8  130.20    4.50
  -1   0  -8  126.35    4.38
  -1   0  -9   17.50    1.77
   1   0  -9   15.18    1.75
   1   0  -9   16.63    1.84
  -1   0 -10  301.13    6.53
  -1   0 -10  293.41    6.53
   1   0 -10  299.44    6.91
   1   0 -11   17.61    1.58
  -1   0 -11   17.28    1.48
   1   1 -11   13.63    1.38
  -1  -1 -11   15.60    1.43
  -1  -1 -10   35.51    2.32
   1   1 -10   36.43    2.48
   1   1 -10   39.92    2.46
  -1  -1  -9   84.16    3.43
  -1  -1  -9   83.71    3.66
   1   1  -9   85.16    3.81
  -1  -1  -8  229.03    5.94
   1  -1   8  229.26    9.18
  -1   1   8  239.49    8.94
  -1  -1  -8  232.37    5.57
   1   1  -8  230.70    6.00
   1   1  -7  175.98    4.39
  -1   1   7  169.04    6.98
   1   1  -7  184.06    4.96
  -1  -1  -7  189.75    5.13
  -1  -1  -7  185.29    4.66
   1  -1   7  192.61    7.64
   1   1  -7  192.11    5.05
  -1  -1  -6   18.70    1.52
  -1  -1  -6   18.78    1.40
   1   1  -6   17.45    1.33
  -1   1   6   17.49    2.10
  -1  -1  -6   19.81    1.33
   1   1  -6   15.59    1.39
   1   1  -6   18.17    1.49
   1  -1   6   14.95    2.02
   1   1  -5  363.56    5.61
  -1   1   5  365.01    8.06
  -1   1   4  133.38    4.30
   1  -1   4  120.21    4.23
  -1   1   3  812.00    9.42
   1  -1   3  760.89    9.27
   1  -1   2 1729.25   12.16
  -1   1   2 1758.16   12.15
   1  -1   1  740.14    4.45
  -1  -1   0  696.62    5.76
   1  -1   0  693.67    6.25
   1  -1  -1  737.55    6.47
  -1  -1   1  755.16    3.56
   1   1   1  742.08    5.44
   1   1   2 1702.10   11.11
  -1  -1   2 1714.90    8.80
  -1  -1   3  764.14    7.66
   1   1   3  776.84    9.16
  -1  -1   4  130.27    3.82
   1   1   4  133.70    4.45
  -1  -1   5  358.45    7.36
   1  -1  -5  367.54    5.74
  -1   1  -5  366.82    5.79
   1   1   5  361.64    8.35
   1   1   6   17.75    2.18
   1  -1  -6   17.50    1.50
  -1   1  -6   19.80    1.36
  -1   1  -6   19.58    1.54
  -1  -1   6   16.85    1.99
  -1  -1   7  192.86    6.96
  -1   1  -7  185.73    4.99
   1   1   7  184.69    7.48
   1  -1  -7  187.20    5.11
  -1  -1   8  216.52    8.07
   1  -1  -8  228.79    6.07
   1   1   8  233.12    9.10
  -1   1  -8  226.89    5.92
  -1   1  -9   94.92    3.95
   1  -1  -9   85.24    3.88
  -1   1  -9   85.06    3.51
  -1   1 -10   35.55    2.38
  -1   1 -10   38.91    2.31
   1  -1 -10   39.95    2.58
  -1   1 -11   12.55    1.28
  -1   1 -11   14.72    1.32
   1  -1 -11   14.06    1.46
   1   2 -11   11.11    1.23
  -1  -2 -11   10.88    1.21
  -1  -2 -10   18.83    1.67
   1   2 -10   20.45    1.85
  -1  -2  -9   23.84    1.98
   1   2  -9   22.04    2.02
  -1  -2  -9   24.06    2.07
   1   2  -8   36.94    2.25
   1   2  -8   40.41    2.56
  -1  -2  -8   38.54    2.52
  -1  -2  -8   39.58    2.37
   1  -2   8   37.30    3.78
  -1   2   8   42.67    4.01
   1  -2   7   51.06    4.16
   1   2  -7   53.67    2.55
  -1  -2  -7   54.68    2.67
   1   2  -7   51.35    2.72
  -1   2   7   54.36    4.18
  -1  -2  -7   58.75    2.66
  -1  -2  -7   53.93    2.85
   1   2  -6  346.79    5.97
  -1  -2  -6  354.92    6.11
  -1  -2  -6  371.78    6.12
   1   2  -6  339.40    6.29
  -1   2   6  362.28    9.50
   1  -2   6  362.45    9.69
   1   2  -5 1724.27   12.66
   1   2  -5 1698.69   11.99
  -1   2   5 1725.15   18.58
  -1  -2  -5 1735.59   12.02
   1  -2   4  239.65    6.35
  -1   2   4  233.56    6.18
   1  -2   3 1954.18   15.92
  -1   2   3 1857.19   16.18
  -1   2   2   43.89    2.26
   1  -2   2   41.75    1.83
  -1  -2  -1  802.99    8.29
   1  -2   1  784.59    6.68
   1   2   0  733.63    3.74
  -1  -2   0  730.90    7.79
   1   2   1  812.05    6.44
   1   2   1  799.09    4.17
   1  -2  -1  788.59    7.33
  -1  -2   1  803.60    8.60
  -1  -2   2   43.68    2.30
   1   2   2   44.09    1.97
  -1  -2   2   44.97    1.43
  -1  -2   3 1951.33   11.89
   1   2   3 1899.47   15.15
   1   2   4  230.33    6.11
  -1  -2   4  234.42    5.04
   1  -2  -5 1694.05   12.80
  -1  -2   5 1774.40   16.00
   1   2   5 1757.95   18.96
   1  -2  -5 1679.93   11.74
  -1   2  -5 1742.52   12.99
   1  -2  -6  357.49    6.66
  -1   2  -6  355.48    5.70
   1  -2  -6  348.32    5.73
   1   2   6  348.70    9.49
  -1   2  -6  347.60    6.43
  -1  -2   6  361.57    8.30
  -1   2  -7   56.21    2.56
  -1  -2   7   53.89    3.78
  -1   2  -7   53.36    2.78
   1  -2  -7   53.82    2.87
   1   2   7   48.01    3.97
   1  -2  -8   41.94    2.75
  -1   2  -8   40.18    2.35
   1   2   8   41.05    3.98
  -1   2  -8   39.12    2.55
  -1   2  -9   23.49    1.86
   1  -2  -9   24.13    2.17
  -1   2  -9   23.29    1.98
  -1   2 -10   22.47    1.87
   1  -2 -10   21.59    1.98
   1  -2 -10   22.66    1.97
  -1   2 -10   22.22    1.68
   1  -2 -11   12.77    1.38
  -1   2 -11   10.44    1.18
  -1  -3 -11    5.87    0.95
   1   3 -11    5.23    0.94
   1   3 -10   13.43    1.45
  -1  -3  -9   27.30    2.04
  -1  -3  -9   27.75    2.11
   1   3  -9   25.43    2.07
   1   3  -9   28.35    1.97
  -1  -3  -8   32.40    2.33
   1   3  -8   35.72    2.44
  -1  -3  -8   32.08    2.26
   1   3  -8   33.20    2.16
  -1  -3  -7   44.23    2.53
   1   3  -7   45.03    2.60
  -1  -3  -7   47.96    2.56
  -1   3   7   42.17    3.90
   1   3  -7   42.65    2.39
   1  -3   7   43.87    3.89
   1   3  -6   69.32    2.84
  -1  -3  -6   74.64    2.96
  -1   3   6   72.16    4.59
   1  -3   6   64.72    4.02
   1   3  -6   71.14    2.99
   1   3  -5   30.12    1.82
  -1  -3  -5   26.90    1.71
   1  -3   5   27.08    2.44
   1   3  -5   27.43    1.70
  -1   3   5   27.40    2.49
   1  -3   4  135.11    4.68
   1   3  -4  131.40    3.37
  -1  -3  -4  138.90    3.44
  -1   3   4  135.14    5.14
   1   3  -4  129.48    3.35
   1  -3   3  172.51    4.69
  -1   3   3  174.47    5.42
  -1   3   2  223.47    5.62
   1  -3   2  223.09    4.83
  -1  -3  -1  118.89    3.93
   1  -3   1  112.40    3.34
   1  -3   1  119.23    3.35
  -1  -3   0 1931.80   15.37
   1  -3   0 1951.15   12.65
   1   3   0 1933.21    9.44
   1   3   1  112.25    2.86
   1  -3  -1  117.48    3.01
  -1  -3   1  121.86    4.02
   1   3   2  214.47    2.41
  -1  -3   2  225.20    5.77
   1   3   2  215.18    4.75
   1   3   3  170.26    4.91
  -1  -3   3  163.78    5.39
   1  -3  -4  133.63    3.36
  -1   3  -4  134.16    3.53
   1  -3  -4  133.03    3.48
   1   3   4  127.48    4.86
  -1  -3   4  136.97    5.41
  -1   3  -5   28.07    1.84
   1   3   5   26.67    2.55
   1  -3  -5   28.69    1.70
   1  -3  -5   24.87    1.70
  -1  -3   5   25.59    2.69
  -1   3  -6   71.28    3.12
   1   3   6   70.12    4.45
   1  -3  -6   71.87    3.10
   1  -3  -6   66.93    2.74
  -1  -3   6   72.25    4.68
   1   3   7   45.50    3.91
   1  -3  -7   44.94    2.73
  -1  -3   7   43.60    4.15
  -1   3  -7   47.63    2.75
   1  -3  -8   31.62    2.43
  -1   3  -8   32.04    2.39
   1  -3  -9   26.48    2.20
  -1   3  -9   26.09    2.16
   1  -3 -10   12.63    1.45
   1   3  10   13.90    1.55
   1  -3 -10   11.52    1.52
  -1   3 -10   12.01    1.38
  -1   3 -11    5.18    0.91
   1  -3 -11    5.60    0.87
   1   4 -10    8.52    1.29
   1   4  -9   52.51    2.61
  -1  -4  -9   55.54    2.80
  -1  -4  -9   52.09    2.72
   1   4  -8    3.56    0.90
  -1  -4  -8    4.29    1.05
  -1  -4  -8    4.39    1.13
  -1  -4  -8    3.10    0.87
   1   4  -7    5.71    1.00
  -1  -4  -7    7.71    1.17
   1   4  -7    5.44    1.06
  -1   4   7   10.36    2.12
  -1  -4  -7    9.97    1.25
  -1  -4  -6   46.68    2.53
  -1   4   6   47.32    3.89
   1  -4   6   42.19    3.52
   1   4  -6   42.98    2.43
   1   4  -6   43.22    2.43
   1   4  -5  299.79    5.93
  -1   4   5  295.70    8.78
   1  -4   5  307.70    8.40
  -1  -4  -5  307.09    6.03
  -1  -4  -4  175.33    4.32
   1   4  -4  171.18    4.23
   1  -4   4  168.39    5.69
  -1   4   4  159.36    6.11
   1  -4   3  855.88   11.79
  -1   4   3  824.06   12.97
  -1  -4  -3  861.40    9.04
   1   4  -3  847.85    8.89
   1  -4   2   18.09    1.72
  -1  -4  -2   19.68    1.37
   1  -4   2   15.85    1.61
   1   4  -2   16.35    1.22
  -1   4   2   18.27    1.89
   1  -4   1  395.98    7.28
   1  -4   1  396.13    6.57
   1   4   0  267.34    4.39
  -1  -4   0  265.98    6.69
  -1  -4   1  389.95    8.25
   1  -4  -1  393.84    5.59
   1   4   1  384.31    6.10
  -1  -4   2   20.27    2.10
   1   4   2   18.44    1.34
   1  -4  -2   18.12    1.33
   1   4   2   15.71    1.46
  -1   4  -3  851.32    8.88
   1  -4  -3  840.90    8.73
   1  -4  -3  858.18    8.78
   1   4   3  849.58   11.85
  -1  -4   3  846.91   13.44
  -1   4  -4  174.40    4.35
   1   4   4  167.92    5.92
   1  -4  -4  169.03    4.27
   1  -4  -4  171.63    4.24
  -1  -4   4  170.34    6.52
  -1   4  -5  304.72    6.20
   1   4   5  293.60    8.62
   1  -4  -5  291.43    5.79
  -1  -4   5  283.91    9.09
   1  -4  -5  293.63    6.08
   1   4   6   43.92    3.77
   1  -4  -6   44.83    2.45
   1  -4  -6   43.59    2.62
  -1  -4   6   41.98    3.90
  -1   4  -6   44.44    2.59
  -1  -4   7    7.76    1.95
   1   4   7    5.43    1.69
  -1   4  -7    5.63    1.20
   1  -4  -7    5.03    1.15
   1  -4  -7    5.96    1.28
   1  -4  -8    3.00    1.10
  -1   4  -8    4.01    1.19
   1  -4  -9   54.85    3.03
  -1   4  -9   53.05    2.87
  -1   4 -10    7.90    1.06
   1   4  10    8.86    1.41
   1  -4 -10    9.52    1.26
   1   5 -10    0.54    0.45
  -1  -5  -9   21.43    1.69
   1   5  -9   23.50    1.73
  -1  -5  -8    1.92    0.78
   1   5  -8    0.87    0.70
  -1  -5  -8    1.29    0.77
  -1  -5  -8    1.71    0.81
  -1  -5  -7   84.47    3.72
   1   5  -7   81.38    3.52
  -1  -5  -6   70.59    3.28
   1   5  -6   62.32    3.07
  -1   5   6   62.22    4.65
   1   5  -5   45.09    2.57
  -1   5   5   42.25    3.59
  -1  -5  -5   50.37    2.66
   1   5  -4    5.12    1.01
  -1  -5  -4    4.21    0.93
  -1   5   4    4.24    1.11
  -1  -5  -4    4.71    0.73
   1  -5   4    5.40    1.24
   1   5  -3   43.40    2.31
  -1  -5  -3   46.76    2.37
  -1   5   3   40.71    3.25
   1  -5   3   41.82    2.94
   1  -5   3   42.30    2.19
   1  -5   2  331.13    7.94
  -1  -5  -2  345.23    6.19
   1   5  -2  335.65    6.09
  -1   5   2  348.86    8.70
   1  -5   2  323.66    5.89
  -1  -5  -1 1878.79   14.12
  -1   5   1 1845.50   12.58
   1  -5   1 1847.41   13.55
   1   5  -1 1828.77   13.99
   1  -5   1 1856.82   18.33
   1   5   0  275.17    5.40
   1  -5   0  260.21    5.12
  -1  -5   0  264.25    5.29
  -1  -5   0  259.89    4.73
  -1   5   0  271.42    4.88
  -1  -5   0  270.41    7.76
   1  -5  -1 1840.34   12.86
   1   5   1 1871.94   14.16
  -1  -5   1 1866.43   20.41
   1  -5  -1 1829.55   13.78
  -1   5  -1 1839.97   13.02
   1  -5  -2  335.06    5.77
  -1  -5   2  345.64    9.13
  -1   5  -2  339.43    5.86
   1  -5  -2  333.92    6.11
   1  -5  -3   46.54    2.37
  -1  -5   3   37.46    3.29
  -1   5  -3   43.20    2.26
   1  -5  -3   41.81    2.21
  -1   5  -4    5.56    1.00
  -1  -5   4    6.86    1.64
   1  -5  -4    4.43    0.86
   1  -5  -4    5.00    0.98
   1   5   4    5.17    1.28
   1  -5  -5   49.22    2.73
   1   5   5   46.66    3.55
   1  -5  -5   48.45    2.59
  -1  -5   5   42.37    3.84
  -1   5  -5   46.98    2.66
   1  -5  -6   64.75    3.06
   1  -5  -6   65.58    3.33
  -1   5  -6   66.47    3.27
  -1  -5   6   66.42    4.95
  -1   5  -7   86.27    3.80
   1  -5  -7   76.88    3.76
   1  -5  -8    1.44    0.87
  -1   5  -8    2.16    0.98
   1  -5  -9   23.60    1.98
  -1   5  -9   23.75    1.86
  -1   5 -10    1.58    0.51
   1  -5 -10    0.18    0.51
   1   5  10    1.47    0.73
   1   6  -9    5.85    1.04
   1   6  -8   42.36    2.38
   1   6  -8   45.18    2.63
  -1  -6  -8   40.36    2.35
  -1  -6  -8   46.36    2.60
   1   6  -7   72.66    3.34
   1  -6   7   69.20    3.07
   1   6  -6  208.47    5.76
   1  -6   6  211.84    5.54
  -1  -6  -6  216.25    5.88
  -1  -6  -5  102.38    4.04
  -1   6   5   94.77    5.72
   1  -6   5  102.57    3.87
   1   6  -5  101.28    4.03
  -1   6   4 1460.98   20.63
  -1  -6  -4 1527.57   13.59
   1   6  -4 1533.21   15.10
  -1  -6  -4 1548.04   14.82
   1  -6   4 1482.55   14.36
   1   6  -3  125.58    4.30
   1  -6   3  119.53    4.00
   1  -6   3  120.26    5.62
  -1  -6  -3  118.39    4.09
  -1   6   3  123.94    5.82
   1  -6   2  605.60    8.73
  -1   6   2  604.90   12.55
   1   6  -2  615.52    9.26
  -1  -6  -2  617.20    9.07
  -1   6   1   56.72    2.53
  -1  -6  -1   58.73    2.83
   1  -6   1   57.50    2.70
   1   6  -1   56.59    2.82
  -1   6   1   56.86    3.79
   1   6   0   13.45    1.47
   1  -6   0   11.68    1.32
  -1  -6   0   12.33    1.40
  -1   6   0   13.73    1.31
  -1  -6   0   12.77    1.22
  -1  -6   1   55.54    2.71
  -1  -6   1   54.95    4.05
   1  -6  -1   54.04    2.45
   1   6   1   59.10    2.87
   1  -6  -1   56.32    2.77
  -1   6  -1   57.50    2.59
  -1  -6   2  599.95   13.38
   1  -6  -2  591.53    8.39
   1  -6  -2  617.02    9.10
  -1   6  -2  627.21    8.74
   1  -6  -2  609.66    8.94
  -1  -6   2  594.61    8.75
  -1   6  -3  126.24    4.17
   1  -6  -3  123.09    4.02
  -1  -6   3  117.54    6.21
   1  -6  -3  126.29    4.20
   1  -6  -4 1487.95   14.55
  -1   6  -4 1511.12   14.83
   1  -6  -4 1519.13   14.86
   1  -6  -5   91.07    3.83
  -1   6  -5  105.06    4.11
  -1  -6   5  102.42    6.24
   1  -6  -5   98.03    3.84
  -1   6  -6  220.69    5.99
   1  -6  -6  218.80    5.69
   1  -6  -6  219.32    6.00
  -1   6  -7   73.68    3.46
   1  -6  -7   76.72    3.55
   1  -6  -8   42.44    2.53
  -1   6  -8   48.51    2.64
   1  -6  -9    6.58    1.00
   1   6   9    6.30    1.16
  -1   6  -9    7.33    1.05
   1   7  -8   21.83    1.59
   1   7  -8   25.56    1.74
  -1  -7  -8   21.14    1.55
   1   7  -7    1.38    0.63
  -1  -7  -7    0.16    0.60
  -1  -7  -7   -0.68    0.76
   1   7  -7    1.79    0.77
  -1  -7  -6    9.49    1.39
   1   7  -6    9.99    1.32
   1   7  -6   12.50    1.45
   1  -7   6   10.92    1.34
   1   7  -5    4.98    1.15
   1  -7   5    5.53    1.09
  -1  -7  -5    4.01    1.10
   1   7  -4    1.84    0.94
  -1  -7  -4    2.51    0.95
  -1  -7  -4    2.07    0.83
   1  -7   4   -0.09    0.66
   1  -7   3   25.48    2.02
  -1  -7  -3   23.36    2.03
   1   7  -3   24.02    2.13
   1  -7   2  143.31    4.59
  -1  -7  -2  141.93    4.66
   1   7  -2  144.94    4.88
  -1  -7  -1  230.63    5.83
   1   7  -1  254.10    6.38
  -1   7   1  250.12    5.63
   1  -7   1  234.97    5.87
   1   7   0    2.09    0.89
  -1   7   0    2.22    0.78
  -1  -7   0    2.67    0.92
   1  -7   0    2.74    0.90
  -1   7  -1  243.71    5.77
   1  -7  -1  247.45    5.50
   1   7   1  251.56    6.30
   1  -7  -1  237.59    6.05
  -1  -7   1  234.98    5.81
  -1   7  -2  138.09    4.47
   1  -7  -2  142.36    4.65
  -1  -7   2  138.32    4.44
  -1  -7   2  142.13    7.02
   1  -7  -2  138.58    4.28
   1  -7  -3   22.15    1.83
   1  -7  -3   21.54    1.94
  -1   7  -3   21.79    1.92
  -1  -7   3   20.75    2.84
  -1  -7   3   23.70    1.86
  -1   7  -4    1.28    0.76
   1  -7  -4    0.17    0.83
   1  -7  -4    0.80    0.71
  -1  -7   4    0.57    0.68
  -1   7  -5    6.26    1.20
   1  -7  -5    4.90    1.20
   1  -7  -5    4.72    1.05
   1  -7  -6   10.14    1.29
  -1   7  -6   11.55    1.50
   1  -7  -6   11.04    1.50
  -1   7  -7    0.40    0.57
   1  -7  -7    0.23    0.62
   1   7   8   23.55    1.90
  -1   7  -8   21.00    1.59
   1  -7  -8   22.46    1.70
   1   8  -7    2.10    0.63
  -1  -8  -7    2.07    0.83
   1   8  -6   30.23    2.02
  -1  -8  -6   30.94    2.02
  -1  -8  -5   48.17    2.64
   1   8  -5   43.78    2.60
   1  -8   5   45.51    2.40
   1  -8   4  163.39    4.66
  -1  -8  -4  169.41    4.98
  -1  -8  -4  172.24    4.72
   1   8  -4  171.20    5.21
   1   8  -3  164.21    5.25
  -1  -8  -3  156.69    4.66
   1  -8   3  152.87    4.71
  -1  -8  -3  156.96    4.87
   1   8  -2   32.50    2.45
  -1  -8  -2   31.46    2.32
   1  -8   2   25.56    2.14
   1   8  -1  202.97    5.86
   1  -8   1  202.63    5.61
  -1  -8  -1  199.73    5.47
  -1  -8   0  165.16    4.92
   1   8   0  166.91    5.28
  -1   8   0  163.57    4.74
   1  -8   0  163.16    5.00
   1  -8   0  163.17    5.11
   1  -8  -1  202.25    5.65
  -1   8  -1  193.49    5.28
  -1  -8   1  196.76    5.31
   1  -8  -2   28.25    2.22
   1  -8  -2   30.11    2.04
  -1  -8   2   29.34    2.12
  -1   8  -2   31.48    2.18
  -1  -8   3  145.79    4.37
   1  -8  -3  159.65    4.63
   1  -8  -3  160.43    5.05
  -1   8  -3  155.24    4.81
   1  -8  -4  171.10    5.06
   1  -8  -4  170.85    4.83
  -1   8  -4  176.51    5.08
  -1   8  -5   46.21    2.63
   1  -8  -5   44.16    2.45
   1  -8  -5   47.18    2.54
   1  -8  -6   27.39    1.78
   1  -8  -6   30.35    2.00
  -1   8  -6   29.32    1.94
  -1   8  -7    1.48    0.62
   1  -8  -7    1.45    0.62
  -1  -9  -5    9.02    1.12
   1   9  -5    7.62    1.05
   1   9  -4    9.24    1.21
  -1  -9  -4    8.93    1.15
  -1  -9  -4    8.29    1.04
   1  -9   3   23.26    1.66
  -1  -9  -3   22.00    1.68
   1   9  -3   27.04    2.00
  -1  -9  -3   23.63    1.78
  -1  -9  -2   64.35    2.91
   1  -9   2   68.78    2.92
   1   9  -2   73.73    3.29
   1  -9   2   66.58    2.90
  -1  -9  -2   65.16    2.90
  -1  -9  -1   30.84    2.03
   1  -9   1   33.57    2.13
   1  -9   0  104.98    3.84
  -1  -9   0  101.82    3.55
  -1  -9   1   33.75    2.04
   1  -9  -1   34.24    2.27
  -1   9  -1   31.03    2.01
   1  -9  -2   70.26    3.21
  -1   9  -2   62.83    2.84
  -1   9  -3   24.54    1.81
   1  -9  -3   24.47    1.87
   1  -9  -4    8.46    1.13
  -1   9  -4    9.93    1.25
  -1   9  -5    7.08    0.90
   1  -9  -5    6.60    0.90
   1 -10   1   11.01    1.11
  -1 -10  -1   11.07    1.07
   1 -10   0    1.77    0.59
  -1 -10   0    2.17    0.69
   1 -10  -1    9.59    1.09
  -1 -10   1   10.59    1.11
  -1 -10   2   29.76    1.64
   1 -10  -2   29.01    1.72
   2   0   1 9999.00   31.47
   2   0   2 6797.33   27.92
   2   0   2 6694.82   26.46
  -2   0   3  806.69    9.12
   2   0   3  784.16   10.38
  -2   0   4  344.50    6.68
   2   0   4  343.70    7.85
  -2   0  -5  236.45    5.04
   2   0  -5  225.89    4.37
  -2   0   5  237.49    6.41
   2   0  -5  245.83    4.92
   2   0   5  235.28    5.10
   2   0   5  243.07    7.45
   2   0  -6  443.86    7.32
   2   0  -6  417.76    6.34
   2   0  -6  422.07    7.01
   2   0   6  435.70    7.44
  -2   0   6  457.06    9.91
  -2   0  -6  425.18    7.39
   2   0   6  442.91   11.14
   2   0  -7   49.32    2.74
   2   0  -7   49.46    2.72
  -2   0   7   49.68    3.70
   2   0  -7   51.40    2.73
   2   0  -7   50.35    2.36
   2   0   7   55.72    4.41
  -2   0  -7   51.47    2.84
   2   0  -8  546.03    9.29
  -2   0   8  534.59   12.79
  -2   0  -8  535.60    9.50
   2   0   8  546.39   14.60
   2   0  -8  537.60    9.10
   2   0  -8  525.23    9.27
   2   0  -9    0.24    0.66
  -2   0  -9    1.69    0.93
   2   0 -10   32.70    2.35
  -2   0 -10   31.76    2.01
  -2   0 -10   36.12    2.41
  -2   0 -11   50.30    2.40
   2   0 -11   49.66    2.46
  -2  -1 -11    6.79    0.97
  -2  -1 -11    8.42    1.06
   2   1 -11    8.35    1.14
  -2  -1 -10   17.18    1.71
   2   1 -10   19.17    1.87
   2   1 -10   16.35    1.57
   2   1  -9   42.89    2.75
   2   1  -9   46.71    2.91
  -2  -1  -9   45.61    2.83
   2   1  -8   14.10    1.68
   2  -1   8   17.26    2.98
  -2  -1  -8   15.56    1.79
   2   1  -8   14.22    1.76
  -2   1   8   14.36    2.30
  -2  -1  -7   12.89    1.61
  -2   1   7   10.27    2.14
   2  -1   7   12.24    2.27
   2   1  -7   11.87    1.47
   2   1  -7   10.82    1.19
  -2  -1  -6  223.48    5.51
   2  -1   6  232.09    8.27
   2   1  -6  214.83    5.11
   2   1  -6  211.83    4.48
  -2   1   6  221.90    7.29
   2   1  -6  223.87    5.24
   2   1  -5  706.06    7.63
   2   1  -5  719.39    8.39
   2  -1   5  711.57   12.99
  -2   1   5  698.39   11.60
  -2   1   4   16.63    1.65
   2  -1   4   18.46    2.02
  -2   1   3  330.34    6.72
   2  -1   3  310.12    6.89
   2  -1   2 2089.90   16.42
   2  -1   1  406.00    6.75
   2   1  -1  401.27    5.52
   2  -1   0  201.28    4.60
   2   1   0  200.12    3.93
  -2  -1   0  207.82    3.71
   2  -1  -1  390.43    6.38
  -2  -1   1  398.25    5.71
  -2  -1   1  409.13    3.82
   2   1   1  396.00    5.75
   2   1   2 2115.73   14.59
  -2  -1   2 2148.26   10.42
   2   1   2 2110.68   14.03
   2  -1  -2 2135.40   15.21
   2   1   3  318.08    6.48
  -2  -1   3  325.97    5.03
   2   1   4   15.11    1.83
  -2  -1   4   27.94    1.82
   2   1   5  716.32   12.82
   2  -1  -5  742.84    8.68
   2  -1  -5  734.26    8.17
  -2  -1   5  750.75   10.56
   2  -1  -6  219.01    5.29
  -2  -1   6  234.73    6.78
  -2   1  -6  217.13    5.27
   2  -1  -6  226.33    4.86
   2   1   6  222.45    7.97
  -2  -1   7   14.40    1.90
   2  -1  -7   10.78    1.35
   2  -1  -7   11.02    1.18
   2   1   7   13.50    1.60
  -2   1  -7   11.70    1.44
   2   1   7   12.11    2.16
   2  -1  -8   16.42    1.86
   2   1   8   17.03    1.81
   2  -1  -8   14.88    1.66
  -2   1  -8   16.31    1.77
   2   1   8   19.42    2.93
  -2   1  -9   47.67    2.92
   2  -1  -9   44.82    2.82
   2  -1  -9   45.80    2.85
   2  -1 -10   21.83    1.95
  -2   1 -10   19.88    1.83
   2  -1 -11    8.70    1.15
  -2   1 -11    8.13    1.06
   2   2 -10   10.10    1.33
   2   2 -10    9.41    1.44
  -2  -2 -10    8.55    1.17
  -2  -2  -9   18.93    1.90
   2   2  -9   20.83    2.04
   2   2  -9   18.51    2.00
  -2  -2  -8  124.61    4.73
   2   2  -8  125.96    4.62
  -2  -2  -7  181.12    5.53
   2   2  -7  177.27    5.17
  -2   2   7  170.29    7.37
   2   2  -6    8.95    1.17
   2   2  -6    8.23    1.03
  -2   2   6    8.87    1.55
   2   2  -5  214.78    4.32
  -2  -2  -5  216.16    4.27
  -2   2   5  226.64    7.12
   2   2  -5  215.59    4.82
   2   2  -4  388.93    5.90
  -2   2   4  401.76    8.84
   2  -2   3   97.83    2.75
   2  -2   3   92.44    4.16
  -2   2   3  104.22    4.25
   2  -2   2   98.23    3.89
   2  -2   2   99.42    2.13
   2  -2   1  898.30   10.74
  -2  -2  -1  920.06    9.67
   2  -2   0   81.06    3.16
  -2  -2   0   78.38    2.88
   2   2   0   74.55    2.05
   2  -2  -1  906.69   10.22
   2   2   1  883.02    7.55
   2   2   1  885.40    6.65
  -2  -2   1  907.79   10.22
   2   2   2  102.26    3.10
   2   2   2  107.26    3.02
  -2  -2   2  104.66    3.82
   2  -2  -2  103.11    3.56
   2   2   3  100.69    3.84
   2   2   3  102.60    3.47
  -2  -2   3  105.21    4.19
   2   2   4  375.08    8.56
   2  -2  -4  383.62    5.85
   2   2   4  378.52    5.52
  -2   2  -4  390.47    5.86
   2   2   5  216.48    7.34
   2  -2  -5  230.83    5.06
   2  -2  -5  229.09    4.91
  -2   2  -5  224.85    4.96
   2   2   5  221.03    4.49
   2  -2  -6    7.69    1.22
   2  -2  -6    8.37    1.09
   2   2   6    9.06    1.86
  -2   2  -6    8.49    1.18
   2   2   7  171.80    7.74
   2  -2  -7  183.08    5.39
  -2   2  -7  174.51    5.15
   2  -2  -7  172.83    4.63
   2   2   8  127.52    5.05
  -2   2  -8  126.97    4.63
   2  -2  -8  129.68    4.79
   2  -2  -9   19.50    1.97
   2  -2  -9   18.50    1.78
   2   2   9   21.04    2.04
  -2   2  -9   18.72    1.91
   2  -2 -10    8.19    1.34
   2  -2 -10    9.12    1.30
  -2   2 -10   11.54    1.41
   2  -2 -11   15.93    1.35
  -2   2 -11   16.97    1.39
  -2  -3 -10    0.95    0.59
   2   3 -10   -0.05    0.73
   2   3  -9   19.68    1.87
   2   3  -9   23.59    2.23
  -2  -3  -9   20.82    1.97
  -2  -3  -8   12.67    1.70
   2   3  -8   10.76    1.47
   2   3  -7   54.26    2.99
  -2   3   7   55.34    4.43
   2  -3   7   64.84    5.23
  -2  -3  -7   58.04    2.72
  -2   3   6   27.28    2.96
   2   3  -6   33.41    2.19
   2   3  -6   33.10    2.03
  -2  -3  -6   30.40    1.92
   2   3  -5    9.09    1.14
  -2   3   5   13.04    1.95
   2   3  -5   10.58    1.11
   2  -3   5   13.30    2.03
  -2  -3  -5   12.00    1.14
   2  -3   4  197.32    6.83
   2   3  -4  186.30    4.42
  -2   3   4  192.67    6.78
  -2  -3  -4  183.87    4.09
  -2  -3  -3  276.63    4.81
   2  -3   3  283.31    7.44
  -2   3   3  279.77    7.59
   2  -3   2  337.57    7.50
   2  -3   2  329.83    4.99
   2  -3   1  431.99    7.97
  -2  -3  -1  425.38    7.80
   2  -3   0  171.12    4.82
  -2  -3   0  175.90    5.07
   2  -3  -1  430.13    7.40
  -2  -3   1  418.12    8.02
  -2  -3   2  335.19    7.65
   2  -3  -2  336.92    6.64
  -2  -3   3  285.31    7.59
  -2   3  -3  273.72    4.75
   2  -3  -3  271.49    4.93
   2   3   4  171.28    6.09
   2  -3  -4  181.62    4.35
  -2  -3   4  185.20    6.67
  -2   3  -4  184.68    4.28
   2  -3  -4  175.72    4.30
   2   3   4  178.22    4.04
   2  -3  -5   11.08    1.33
  -2  -3   5   12.78    2.07
   2  -3  -5    9.90    1.12
  -2   3  -5   11.46    1.28
   2   3   5    8.86    1.83
   2   3   5   10.25    1.05
   2   3   6   26.56    2.95
   2  -3  -6   32.44    2.27
  -2  -3   6   30.41    3.25
   2  -3  -6   30.61    2.08
  -2   3  -6   32.58    2.21
   2   3   7   54.94    4.58
   2  -3  -7   50.47    2.94
   2  -3  -7   56.77    2.82
  -2  -3   7   58.32    4.80
  -2   3  -7   58.91    3.13
   2  -3  -8   11.81    1.68
   2   3   8   13.64    1.95
  -2   3  -8   13.82    1.67
   2  -3  -9   19.24    1.95
  -2   3  -9   22.00    1.95
   2   3   9   17.49    2.07
   2  -3  -9   19.34    1.80
   2  -3 -10    1.34    0.72
  -2   3 -10    2.43    0.80
   2   3  10    1.79    0.99
   2  -3 -10    2.25    0.60
   2   4 -10   28.87    2.03
   2   4  -9   53.63    3.14
  -2  -4  -9   47.80    2.73
  -2  -4  -8   26.08    2.25
  -2  -4  -8   26.42    1.99
   2   4  -8   23.29    2.33
  -2  -4  -7  212.11    5.40
   2   4  -7  197.01    5.21
   2   4  -6    2.70    0.82
  -2  -4  -6    4.32    0.89
   2  -4   6    3.48    1.77
  -2   4   6    4.69    1.51
  -2   4   5   73.51    4.78
  -2  -4  -5   74.89    3.04
   2  -4   5   68.92    4.64
   2   4  -5   72.84    3.04
   2   4  -4  183.63    4.56
  -2   4   4  178.24    7.11
  -2  -4  -4  179.44    4.45
  -2   4   3  132.37    5.70
   2  -4   3  136.12    5.54
  -2  -4  -3  129.76    3.71
   2   4  -3  123.49    3.59
  -2  -4  -2  420.23    6.50
   2  -4   2  426.46    8.92
   2   4  -2  413.87    6.35
   2   4  -2  419.84    6.51
   2   4  -1 1423.90   11.55
   2  -4   1 1407.73   11.36
  -2  -4  -1 1411.90   11.76
   2   4   0    1.96    0.59
   2  -4   0    1.85    0.55
   2  -4   0    3.06    0.62
   2  -4   0    1.30    0.65
   2  -4   0    1.62    0.60
  -2  -4   0    1.82    1.01
   2  -4  -1 1431.40   11.29
  -2  -4   1 1443.47   17.00
   2   4   1 1404.86   11.68
   2  -4  -1 1406.80   11.56
   2  -4  -2  421.92    6.54
  -2  -4   2  430.94    9.73
  -2   4  -2  418.10    5.86
   2  -4  -2  424.31    6.39
  -2  -4   3  121.71    5.51
   2  -4  -3  124.20    3.65
   2  -4  -3  126.12    3.64
   2  -4  -3  128.56    3.81
  -2   4  -3  129.26    3.56
   2  -4  -4  174.34    4.63
   2  -4  -4  172.55    4.57
  -2  -4   4  183.43    7.20
  -2   4  -4  181.46    4.52
   2   4   4  167.72    4.18
   2  -4  -5   77.37    3.27
  -2  -4   5   73.95    4.94
  -2   4  -5   79.49    3.27
   2   4   5   69.42    2.74
   2  -4  -5   76.23    3.29
  -2   4  -6    4.70    1.01
   2  -4  -6    4.94    1.07
  -2  -4   6    4.05    1.57
   2  -4  -7  213.76    6.13
   2  -4  -7  219.95    5.64
  -2   4  -7  204.93    5.78
   2  -4  -8   27.89    2.32
   2   4   8   30.77    2.82
  -2   4  -8   25.74    2.18
   2  -4  -9   53.91    2.96
   2  -4  -9   51.67    2.62
  -2   4  -9   52.61    2.81
   2   4   9   55.48    3.34
   2  -4 -10   29.35    1.94
   2   4  10   30.32    2.17
  -2   4 -10   28.89    1.87
   2  -5   9    4.13    0.85
  -2  -5  -9    4.80    0.93
   2   5  -9    6.15    1.18
  -2  -5  -8   20.67    1.98
  -2  -5  -8   20.50    1.69
   2   5  -8   22.57    2.17
   2   5  -7   19.89    1.75
  -2  -5  -7   19.01    1.79
   2   5  -7   22.96    2.21
  -2  -5  -6   58.05    2.94
   2   5  -6   57.19    2.89
   2   5  -6   56.75    3.32
  -2   5   5   99.81    5.82
   2  -5   5   94.42    5.59
   2   5  -5  100.36    3.81
  -2  -5  -5  105.88    3.89
  -2   5   4  247.57    8.79
   2   5  -4  259.69    5.93
   2  -5   4  279.54    8.68
   2   5  -4  282.55    6.57
  -2  -5  -4  266.04    5.91
   2  -5   3  419.19    7.29
  -2   5   3  423.87   11.07
   2   5  -3  409.89    7.22
  -2  -5  -3  413.45    7.19
   2   5  -3  410.14    7.34
   2  -5   3  421.24    9.90
  -2   5   2   33.46    3.09
   2   5  -2   33.94    2.10
   2  -5   2   34.63    2.11
   2  -5   2   33.37    2.57
  -2  -5  -2   30.90    2.01
   2   5  -1  223.82    5.15
   2  -5   1  229.97    5.12
  -2  -5  -1  226.91    5.25
   2  -5   0  477.81    7.58
  -2  -5   0  471.66    7.58
   2   5   0  470.60    7.48
  -2  -5   0  473.17   10.81
   2  -5   0  469.35    7.24
   2  -5  -1  223.31    5.24
  -2  -5   1  242.34    7.83
   2  -5  -1  227.89    5.11
  -2   5  -1  222.79    4.50
   2   5   1  227.12    5.28
   2  -5  -2   29.98    1.87
   2  -5  -2   34.05    2.14
  -2  -5   2   34.39    3.19
  -2   5  -2   33.29    1.86
   2  -5  -2   31.81    2.04
  -2  -5   3  434.55   11.39
  -2   5  -3  419.56    6.86
   2  -5  -3  410.34    7.42
   2  -5  -3  394.10    7.01
   2  -5  -4  255.95    5.98
   2  -5  -4  257.02    6.07
  -2  -5   4  274.56    9.51
  -2   5  -4  263.27    5.84
   2   5   4  260.89    5.42
   2  -5  -5  103.26    4.08
   2  -5  -5   95.21    3.86
  -2  -5   5   99.70    6.01
  -2   5  -5  102.45    3.86
   2  -5  -6   58.06    3.08
  -2   5  -6   56.05    3.02
   2  -5  -7   18.40    1.92
   2  -5  -7   20.09    1.86
  -2   5  -7   18.61    1.88
   2  -5  -8   20.54    2.00
   2   5   8   22.10    2.33
  -2   5  -8   19.45    1.85
   2  -5  -9    7.46    1.13
  -2   5  -9    6.28    1.03
   2   5   9    6.51    1.36
   2   6  -9   26.46    1.81
  -2  -6  -8   62.36    2.91
   2  -6   8   59.11    2.68
  -2  -6  -8   58.97    2.71
   2   6  -8   65.08    3.13
  -2  -6  -7  126.98    4.23
   2   6  -7  135.28    4.75
   2   6  -7  124.93    4.12
   2  -6   7  133.17    4.34
   2   6  -6  192.68    5.73
  -2  -6  -6  192.84    5.37
   2   6  -6  181.31    5.22
   2  -6   6  188.06    5.39
  -2  -6  -5  199.13    5.49
   2   6  -5  206.84    5.68
   2  -6   5  208.21    5.70
   2   6  -5  207.03    5.84
  -2  -6  -4   95.27    3.82
  -2   6   4   90.29    5.55
   2   6  -4   92.31    3.85
   2  -6   4  100.53    3.98
   2   6  -4  101.09    3.91
  -2   6   3   29.93    3.27
   2   6  -3   25.61    2.06
   2  -6   3   27.21    2.11
  -2  -6  -3   25.10    2.03
   2  -6   2  343.22    6.96
  -2  -6  -2  333.63    6.99
   2   6  -2  335.92    7.08
  -2   6   2  338.79   10.19
  -2  -6  -1   14.08    1.54
   2  -6   1   13.94    1.43
   2   6  -1   15.43    1.60
   2  -6   1   16.34    1.62
   2  -6   0  384.56    7.44
   2   6   0  371.99    7.39
   2  -6   0  365.59    7.06
  -2  -6   0  372.12    7.29
   2   6   1   13.11    1.56
   2  -6  -1   15.65    1.61
  -2  -6   1   14.07    1.58
  -2   6  -1   16.16    1.46
   2  -6  -1   15.16    1.64
  -2  -6   1   14.92    2.43
  -2   6  -2  341.06    6.36
  -2  -6   2  344.08   10.63
   2  -6  -2  341.60    6.99
   2  -6  -2  344.99    7.22
   2  -6  -3   26.39    2.01
  -2  -6   3   25.57    3.06
   2  -6  -3   26.12    2.11
  -2   6  -3   24.72    1.84
   2  -6  -4   95.29    3.81
   2  -6  -4   91.61    3.89
  -2  -6   4   96.37    6.11
  -2   6  -4   90.07    3.60
   2  -6  -5  192.30    5.57
   2  -6  -5  203.52    5.78
  -2   6  -5  204.04    5.53
   2  -6  -6  191.36    5.52
  -2   6  -6  185.20    5.32
   2  -6  -7  126.40    4.53
   2  -6  -7  136.64    4.37
   2   6   7  140.04    5.44
  -2   6  -7  130.98    4.39
   2  -6  -8   57.53    2.87
   2   6   8   66.84    3.48
  -2   6  -8   62.32    2.83
   2   6   9   24.97    1.94
   2  -6  -9   24.76    1.63
  -2   6  -9   26.52    1.65
   2   7  -7   10.83    1.17
   2  -7   7   11.03    1.29
  -2  -7  -7   10.93    1.34
   2   7  -7    9.40    1.21
   2   7  -6   54.46    2.83
   2   7  -6   50.41    2.71
   2  -7   6   51.77    2.70
  -2  -7  -6   52.96    2.75
   2   7  -5   14.77    1.67
  -2  -7  -5   13.80    1.61
   2  -7   5   15.07    1.65
   2   7  -4  106.36    4.19
   2  -7   4  107.68    4.12
  -2  -7  -4  111.49    4.21
  -2  -7  -3   29.71    2.31
   2   7  -3   31.39    2.37
   2  -7   3   31.28    2.35
   2   7  -2    6.91    1.24
  -2  -7  -2    8.19    1.37
   2  -7   2    7.79    1.11
   2  -7   2    6.43    1.19
  -2   7   2    8.28    2.28
   2  -7   1   16.04    1.63
  -2  -7  -1   16.97    1.81
   2   7  -1   15.60    1.78
   2  -7   1   16.36    1.72
  -2   7   1   12.59    2.29
   2   7   0    7.58    1.30
   2  -7   0    8.58    1.34
   2  -7   0    9.45    1.48
  -2  -7   0    7.92    1.35
  -2   7   0    7.13    1.86
   2  -7  -1   16.55    1.75
  -2  -7   1   15.78    1.73
  -2   7  -1   16.74    1.55
   2  -7  -1   16.12    1.79
   2  -7  -2    6.30    1.24
  -2  -7   2    6.27    1.29
  -2   7  -2    8.57    1.24
   2  -7  -3   34.63    2.21
  -2  -7   3   31.15    2.29
   2  -7  -3   27.47    2.27
  -2   7  -3   30.37    2.12
   2   7   4  111.56    4.52
   2  -7  -4  112.93    4.12
  -2  -7   4  101.44    4.00
   2  -7  -4  110.79    4.30
  -2   7  -4  111.83    3.99
   2  -7  -5   15.81    1.67
  -2  -7   5   15.53    1.59
   2   7   5   14.78    1.94
  -2   7  -5   11.61    1.40
   2  -7  -5   14.10    1.54
  -2   7  -6   51.62    2.69
   2  -7  -6   51.29    2.75
   2   7   6   56.72    3.28
   2  -7  -7   10.33    1.30
   2   7   7    9.75    1.38
  -2   7  -7   12.44    1.38
   2  -7  -7    9.66    1.07
  -2   7  -8    5.84    0.83
   2  -7  -8    4.91    0.78
   2   7   8    4.99    1.07
  -2  -8  -6   10.27    1.20
   2   8  -6    9.25    1.15
   2  -8   6    9.48    1.10
   2   8  -5   37.68    2.27
   2  -8   5   36.42    2.21
  -2  -8  -5   39.71    2.31
   2   8  -4    2.56    0.96
  -2  -8  -4    3.20    0.90
   2  -8   4    1.82    0.84
  -2  -8  -3   10.10    1.39
  -2  -8  -3   11.37    1.30
   2   8  -3   10.49    1.50
   2  -8   3   11.21    1.45
  -2  -8  -2  122.95    4.40
   2  -8   2  130.77    4.23
   2   8  -2  122.92    4.55
   2  -8   2  123.92    4.42
  -2  -8  -1  206.45    5.69
   2  -8   1  215.07    5.68
   2   8  -1  214.35    6.10
   2  -8   1  210.51    5.83
  -2  -8   0    2.30    0.99
   2  -8   0    3.26    1.21
   2  -8   0    2.66    0.91
  -2  -8   1  204.86    5.62
   2  -8  -1  209.03    5.81
  -2  -8   2  128.33    4.41
  -2   8  -2  122.30    3.96
   2  -8  -2  132.29    4.64
  -2  -8   3   11.14    1.40
  -2   8  -3   14.33    1.49
   2  -8  -3   10.86    1.50
  -2   8  -4    1.89    0.89
  -2  -8   4    2.89    0.85
   2  -8  -4    2.61    0.83
   2  -8  -5   37.69    2.29
  -2   8  -5   39.49    2.23
   2  -8  -6    9.11    1.10
  -2   8  -6    8.10    1.07
   2  -8  -6    9.61    1.10
  -2  -9  -5    9.01    1.01
  -2  -9  -4   58.55    2.51
   2   9  -4   58.73    2.60
   2  -9   4   52.19    2.32
  -2  -9  -3   14.99    1.28
   2   9  -3   15.70    1.51
   2  -9   3   15.56    1.45
  -2  -9  -3   17.35    1.51
  -2  -9  -2   57.83    2.56
  -2  -9  -2   58.92    2.70
   2  -9   2   61.00    2.80
   2  -9   1   28.59    2.04
   2  -9   1   29.17    1.96
  -2  -9  -1   31.03    2.04
  -2  -9   0   25.56    1.91
   2  -9   0   30.57    2.09
  -2  -9   1   26.23    1.88
   2  -9  -1   28.86    2.06
   2  -9  -2   62.88    2.92
  -2  -9   2   55.59    2.52
   2  -9  -3   16.62    1.56
   2  -9  -4   58.34    2.60
   3   0   0   -0.04    0.65
   3   0  -1 1406.54   14.04
   3   0   1 1395.55   14.66
  -3   0   1 1421.75    9.84
  -3   0   2  318.53    5.98
   3   0   2  316.46    7.34
   3   0  -2  326.17    6.89
  -3   0   3  944.56   11.16
   3   0  -3  948.71    8.57
   3   0   3  940.04    8.56
   3   0  -3  945.85    8.86
   3   0   3  953.66    8.57
   3   0  -4 1638.43   12.03
  -3   0  -4 1631.26   13.10
   3   0  -4 1641.81   12.60
   3   0  -4 1638.48   12.35
   3   0   4 1678.19   20.86
   3   0  -4 1642.14   13.74
   3   0   4 1625.89   14.31
  -3   0   4 1690.93   15.74
   3   0  -5  150.99    4.09
  -3   0  -5  160.39    4.47
   3   0  -5  157.67    4.16
   3   0   5  161.17    4.80
   3   0  -5  161.33    4.30
   3   0   5  145.83    7.08
  -3   0   5  159.49    5.45
   3   0   5  161.31    6.87
   3   0  -5  158.09    4.67
   3   0  -6    4.67    0.89
   3   0   6    8.50    1.28
  -3   0  -6    5.75    1.09
   3   0  -6    5.69    0.91
   3   0   6    7.52    1.87
  -3   0   6    6.20    1.32
   3   0   6    5.93    2.12
   3   0  -6    3.72    0.86
   3   0  -6    4.11    1.02
   3   0  -7   65.57    3.25
   3   0   7   70.35    3.45
   3   0   7   66.61    5.78
   3   0  -7   62.57    2.90
   3   0   7   65.68    5.23
   3   0  -7   64.28    3.31
  -3   0  -7   65.44    3.37
   3   0  -7   68.57    3.29
   3   0  -8   97.90    3.57
   3   0  -8   87.80    3.87
   3   0  -8   91.15    3.88
  -3   0  -8   92.11    4.09
   3   0  -9   23.24    2.03
  -3   0  -9   23.98    2.10
   3   0 -10   26.93    2.00
  -3   0 -10   29.20    2.09
   3   1 -10    8.62    1.24
  -3  -1 -10   10.61    1.30
  -3  -1  -9    6.39    1.22
   3   1  -9    5.69    1.16
   3   1  -9    6.92    1.29
   3   1  -8  172.14    4.66
   3   1  -8  161.59    5.26
   3   1  -8  165.97    5.65
  -3  -1  -8  172.41    5.62
  -3  -1  -7   50.32    3.03
   3   1  -7   47.82    2.54
  -3   1   7   48.52    3.93
   3   1  -7   48.48    2.83
   3  -1   7   48.62    5.11
   3   1  -7   50.21    3.25
  -3  -1  -6  120.51    4.38
   3   1  -6  115.85    3.77
   3   1  -6  130.39    4.25
  -3   1   6  112.55    5.35
   3  -1   6  125.49    7.39
   3   1  -6  119.71    4.76
   3   1  -5   26.70    1.75
   3  -1   5   32.37    3.37
   3   1  -5   28.12    1.87
   3   1  -5   25.55    2.18
  -3   1   5   24.97    2.50
   3   1  -4  431.31    7.68
   3   1  -4  415.52    6.31
  -3   1   4  428.13    9.11
   3   1  -4  410.00    6.37
   3  -1   4  425.54   11.00
   3   1  -3  260.62    4.63
   3  -1   3  257.27    7.67
   3  -1   3  260.77    4.67
  -3   1   3  268.23    6.75
   3   1  -3  250.65    5.34
   3  -1   2  198.51    6.17
   3  -1   1  104.50    4.34
   3   1  -1   97.69    3.49
   3   1   0  577.97    8.58
  -3  -1   0  592.28    6.83
   3  -1  -1   93.07    3.91
   3   1   1  103.82    3.81
  -3  -1   1  104.35    3.28
  -3  -1   2  190.86    3.64
   3   1   2  194.92    5.45
  -3  -1   2  203.57    5.16
   3  -1  -2  196.64    5.58
   3  -1  -3  259.80    4.85
   3   1   3  257.25    6.86
   3   1   3  251.69    5.60
   3  -1  -3  259.49    4.64
   3   1   3  245.86    6.56
   3   1   3  256.62    4.67
   3  -1  -4  413.29    6.15
   3  -1  -4  411.68    6.13
   3  -1  -4  414.81    6.22
   3   1   4  414.31    7.73
   3   1   4  418.10    9.83
   3   1   4  419.48    6.09
   3   1   4  411.40    9.80
   3  -1  -4  413.35    6.46
   3   1   4  411.82    6.24
   3  -1  -4  422.71    6.58
  -3   1  -4  415.87    6.43
   3  -1  -5   29.49    1.88
   3  -1  -5   28.01    1.90
   3  -1  -5   28.63    1.88
   3   1   5   29.74    2.27
   3   1   5   28.09    3.10
   3  -1  -5   28.89    1.86
   3   1   5   27.72    3.01
  -3   1  -5   28.34    1.94
   3  -1  -6  119.79    4.09
   3  -1  -6  126.03    4.04
   3  -1  -6  125.01    4.15
   3   1   6  114.02    6.56
   3   1   6  124.95    4.80
   3  -1  -6  109.51    3.77
   3   1   6  118.19    6.63
  -3   1  -6  121.75    4.16
   3  -1  -7   47.31    2.81
   3  -1  -7   48.28    2.81
   3  -1  -7   49.08    2.65
   3   1   7   44.09    2.98
   3   1   7   48.30    4.81
   3   1   7   48.11    4.57
  -3   1  -7   46.18    2.81
   3  -1  -8  165.58    5.29
   3  -1  -8  167.15    4.73
   3  -1  -8  159.81    5.14
   3   1   8  167.39    5.68
  -3   1  -8  162.91    5.26
  -3   1  -9    5.38    1.12
   3  -1  -9    4.51    1.05
  -3   1 -10   10.57    1.35
   3  -1 -10    8.78    1.21
  -3  -2 -10    1.32    0.74
   3   2 -10    1.87    0.77
   3   2  -9   26.69    2.17
   3   2  -9   30.20    2.42
  -3  -2  -9   31.37    2.37
   3   2  -8   32.48    2.44
   3   2  -8   33.81    2.85
  -3  -2  -8   35.12    2.72
  -3  -2  -7  129.94    4.93
  -3   2   7  128.66    6.57
   3   2  -7  123.71    4.52
   3  -2   7  135.22    8.13
   3   2  -7  124.90    5.34
   3   2  -6  247.99    5.49
  -3   2   6  259.37    8.70
   3   2  -6  253.89    6.10
   3   2  -6  233.09    7.14
  -3   2   5   32.56    2.97
   3   2  -5   35.24    2.02
   3   2  -5   35.69    2.17
   3  -2   5   36.03    3.59
   3   2  -5   29.14    2.52
   3   2  -4   15.89    1.32
  -3   2   4   18.67    2.08
   3  -2   4   18.67    2.52
   3   2  -4   13.51    1.64
   3   2  -4   13.82    1.32
   3   2  -3 1254.02   10.31
   3  -2   3 1232.33   17.27
   3   2  -3 1216.14   12.57
   3   2  -2  556.51    6.48
   3  -2   2  545.38   10.68
   3  -2   2  566.01    6.64
   3   2  -2  548.61    7.60
   3  -2   1   52.49    3.20
  -3  -2   0  424.66    7.21
   3  -2   0  429.91    8.79
   3  -2  -1   54.32    3.12
   3   2   1   51.31    2.46
  -3  -2   1   55.42    2.83
   3   2   2  560.77    8.27
   3   2   2  568.73    8.52
   3  -2  -2  552.13    6.88
   3  -2  -2  552.44    6.93
   3  -2  -2  559.45    6.67
  -3  -2   2  558.86    9.51
   3  -2  -2  556.61    9.77
   3  -2  -3 1270.65   11.15
   3   2   3 1270.64   13.54
   3   2   3 1191.32   13.59
   3  -2  -3 1245.59   10.64
   3   2   3 1242.28   14.46
  -3  -2   3 1250.66   15.54
  -3   2  -3 1215.28    9.88
   3   2   3 1234.21   10.88
   3  -2  -4   14.81    1.25
   3   2   4   15.22    1.70
   3   2   4   15.39    1.86
   3  -2  -4   12.84    1.29
   3   2   4   17.80    1.27
  -3  -2   4   13.26    2.05
   3   2   4   16.83    2.25
   3  -2  -4   18.31    1.38
  -3   2  -4   15.54    1.29
   3   2   4   16.57    1.39
   3  -2  -5   31.44    2.03
   3  -2  -5   34.85    2.16
   3  -2  -5   35.68    1.99
   3   2   5   36.80    2.88
   3  -2  -5   35.00    2.10
   3   2   5   35.43    3.12
  -3  -2   5   38.64    3.49
   3   2   5   28.21    3.24
  -3   2  -5   35.80    2.11
   3   2   5   33.39    2.05
   3  -2  -6  255.92    6.09
   3  -2  -6  256.50    6.05
   3   2   6  255.01    7.48
  -3  -2   6  261.14    9.26
   3   2   6  229.78    9.32
  -3   2  -6  256.30    5.99
   3  -2  -6  249.62    5.92
   3  -2  -7  123.91    4.54
   3  -2  -7  125.38    4.30
   3  -2  -7  126.31    4.49
   3   2   7  128.35    5.41
  -3  -2   7  131.88    7.01
   3   2   7  128.76    7.61
  -3   2  -7  127.18    4.53
   3  -2  -8   32.79    2.44
   3  -2  -8   32.03    2.14
   3  -2  -8   32.76    2.38
   3   2   8   36.54    2.88
  -3   2  -8   33.11    2.48
   3  -2  -9   32.58    2.33
   3  -2  -9   32.61    2.25
   3   2   9   28.44    2.38
  -3   2  -9   36.26    2.46
  -3   2 -10    1.78    0.77
   3  -2 -10    1.99    0.66
  -3  -3 -10    2.44    0.77
   3   3 -10    1.68    0.46
  -3  -3  -9    7.04    1.24
   3   3  -9    8.98    1.55
  -3  -3  -8   11.34    1.69
   3   3  -8   14.69    1.99
   3   3  -7    8.16    1.63
   3  -3   6   99.04    6.35
   3   3  -6   97.68    4.84
  -3   3   6   94.72    5.66
  -3   3   5   66.71    4.50
   3  -3   5   66.43    5.03
   3   3  -5   60.15    3.67
  -3  -3  -4    8.78    1.08
   3  -3   4    4.74    0.88
  -3   3   4    7.13    1.48
   3  -3   4    8.98    1.80
   3   3  -4    6.63    1.36
  -3   3   3  121.65    5.53
   3  -3   3  129.66    5.80
   3  -3   3  125.43    3.55
   3   3  -3  125.64    4.26
  -3  -3  -3  125.67    3.48
   3  -3   2   48.91    2.18
   3  -3   2   50.56    3.52
   3   3  -2   49.55    2.43
  -3  -3  -2   47.28    2.09
   3  -3   1  335.45    8.38
   3  -3   1  329.65    5.44
   3   3  -1  328.71    5.80
   3  -3   0  267.86    7.31
   3  -3   0  269.30    4.89
  -3  -3   0  270.25    6.77
   3  -3  -1  321.28    7.77
   3  -3  -1  331.37    5.56
   3  -3  -1  339.16    5.49
   3   3   1  327.65    6.20
   3  -3  -2   47.10    2.22
   3  -3  -2   50.38    2.32
   3   3   2   48.47    2.64
   3  -3  -2   51.55    2.12
  -3  -3   2   47.38    3.20
   3  -3  -2   54.31    3.28
   3  -3  -3  122.39    3.56
   3  -3  -3  123.19    3.78
   3   3   3  118.25    4.58
  -3  -3   3  125.86    5.48
  -3   3  -3  124.20    3.34
   3  -3  -4    7.56    0.96
   3   3   4    7.54    1.40
   3  -3  -4    7.09    1.08
  -3   3  -4    7.37    1.02
  -3  -3   4   10.04    1.95
   3   3   4    7.35    1.10
   3  -3  -5   62.77    2.93
   3  -3  -5   62.03    2.57
   3   3   5   55.90    3.73
   3  -3  -5   67.91    3.15
  -3  -3   5   62.77    4.50
  -3   3  -5   63.78    2.86
   3   3   5   63.75    2.82
   3  -3  -6  102.06    3.98
   3  -3  -6   99.60    3.90
   3   3   6  102.65    5.16
  -3  -3   6   91.54    5.81
  -3   3  -6   98.50    3.79
   3  -3  -7   10.08    1.52
   3   3   7   10.68    1.82
   3  -3  -7    8.76    1.23
   3  -3  -7    8.96    1.28
  -3   3  -7   10.14    1.40
   3  -3  -8   12.57    1.59
   3  -3  -8   13.37    1.45
   3  -3  -8   12.56    1.40
   3   3   8   11.93    1.95
  -3   3  -8   17.12    1.78
   3  -3  -9    7.44    1.29
  -3   3  -9    8.51    1.36
   3   3   9    5.46    1.43
   3  -3 -10    2.70    0.84
  -3   3 -10    1.17    0.67
   3   4 -10   -0.23    0.61
   3   4  -9   30.65    2.35
  -3  -4  -9   30.42    2.14
  -3  -4  -8   56.61    3.23
   3   4  -8   54.90    3.42
   3   4  -7   13.20    2.01
  -3  -4  -6   67.91    2.93
   3  -4   6   66.62    5.38
   3   4  -6   69.85    4.08
  -3   4   5  143.61    7.02
  -3  -4  -5  143.20    4.18
   3  -4   5  138.51    7.02
   3   4  -5  151.70    5.70
   3  -4   4   59.81    4.47
  -3  -4  -4   59.38    2.70
  -3   4   4   62.48    4.51
   3  -4   4   58.78    2.51
   3   4  -4   58.31    2.83
   3   4  -4   61.08    3.42
  -3   4   3  435.15   11.36
  -3  -4  -3  427.85    7.02
   3  -4   3  441.67   11.11
   3  -4   3  418.93    6.57
   3   4  -3  412.20    7.14
   3   4  -3  418.33    8.00
  -3  -4  -2   99.40    3.40
   3  -4   2   93.29    4.96
   3  -4   2   98.99    3.19
   3   4  -2   95.81    3.37
   3   4  -2  102.93    3.65
   3  -4   1   15.96    2.00
   3  -4   1   12.75    1.28
   3  -4   1   13.38    1.20
  -3  -4  -1   13.49    1.36
   3   4  -1   11.79    1.19
   3  -4   1   12.15    1.27
   3   4  -1   12.63    1.40
   3  -4   0  229.31    7.08
   3  -4   0  230.75    5.21
   3   4   0  227.75    5.01
  -3  -4   0  230.02    7.15
   3  -4   0  234.56    4.91
   3  -4   0  235.77    4.87
   3  -4  -1   11.63    1.71
   3  -4  -1   10.37    1.27
   3   4   1   10.22    1.26
   3  -4  -1   12.97    1.31
   3  -4  -1   13.19    1.21
  -3  -4   1   11.59    1.98
   3  -4  -2  102.91    3.65
   3   4   2   98.43    3.97
   3  -4  -2  101.67    3.31
  -3  -4   2  103.08    5.13
   3  -4  -2   94.22    4.37
   3  -4  -3  426.61    7.70
   3   4   3  419.01    8.98
   3  -4  -3  422.74    6.75
  -3  -4   3  419.76   10.76
  -3   4  -3  431.59    6.56
   3  -4  -4   63.27    3.11
   3  -4  -4   56.41    2.49
   3   4   4   53.76    3.64
  -3  -4   4   60.95    4.29
  -3   4  -4   58.59    2.65
   3   4   4   57.17    2.77
   3   4   5  130.81    5.93
   3  -4  -5  149.78    4.88
  -3  -4   5  137.92    6.98
  -3   4  -5  148.01    4.48
   3   4   5  136.28    4.22
   3  -4  -6   63.70    3.27
   3  -4  -6   64.41    3.30
   3   4   6   63.77    4.27
  -3  -4   6   67.77    5.26
  -3   4  -6   64.92    3.16
   3   4   6   63.78    2.89
   3  -4  -7   13.89    1.69
   3  -4  -7   12.28    1.52
   3   4   7   12.86    2.17
  -3   4  -7   15.15    1.69
   3  -4  -8   55.32    3.04
   3  -4  -8   52.83    2.72
   3   4   8   54.42    3.59
  -3   4  -8   57.29    2.96
   3  -4  -9   28.64    2.01
   3   4   9   28.34    2.34
  -3   4  -9   30.02    2.03
  -3   4 -10   -0.19    0.48
   3  -5   9   13.77    1.29
   3   5  -9    9.87    1.32
  -3  -5  -9   11.61    1.25
  -3  -5  -8    7.89    1.24
   3   5  -8    8.92    1.57
  -3  -5  -7   43.56    2.39
   3   5  -7   46.38    3.14
  -3  -5  -6    8.89    1.25
   3   5  -6   10.74    1.75
  -3  -5  -5   65.39    3.05
   3  -5   5   67.59    5.20
   3   5  -5   70.98    3.32
   3   5  -5   69.93    3.75
   3  -5   4   52.56    4.32
  -3   5   4   60.41    4.69
   3   5  -4   58.39    3.04
   3   5  -4   65.76    3.47
  -3  -5  -4   61.14    2.95
   3  -5   3  103.80    5.59
   3   5  -3  107.78    4.00
   3  -5   3  112.65    4.07
  -3   5   3  109.49    6.20
   3   5  -3  113.52    4.27
  -3  -5  -3  113.60    3.96
   3  -5   2  537.10   12.01
  -3   5   2  547.59   13.07
   3  -5   2  546.76    7.68
   3   5  -2  520.36    8.68
   3  -5   2  555.14    8.71
   3   5  -2  544.20    8.50
  -3  -5  -2  534.54    8.55
   3  -5   1  220.65    7.30
  -3  -5  -1  226.18    5.53
   3  -5   1  231.48    5.11
   3   5  -1  218.43    5.47
   3  -5   1  228.52    5.42
   3  -5   0   99.68    4.77
  -3  -5   0   91.32    3.60
   3  -5   0   91.02    3.74
  -3  -5   0   90.88    5.12
   3   5   0   94.32    3.64
   3  -5   0   96.71    3.51
   3  -5  -1  220.70    5.80
  -3  -5   1  225.01    8.05
   3  -5  -1  227.53    5.35
   3  -5  -1  225.07    6.85
   3  -5  -2  534.52    8.03
   3   5   2  526.02    9.31
   3  -5  -2  548.75    8.42
  -3  -5   2  521.81   12.55
   3  -5  -2  556.98    9.24
   3  -5  -3  104.24    3.45
   3  -5  -3  109.73    4.21
   3   5   3  103.34    4.57
  -3  -5   3  114.55    6.08
  -3   5  -3  105.76    3.45
   3  -5  -4   62.95    3.30
   3   5   4   61.17    3.86
  -3  -5   4   61.24    4.86
  -3   5  -4   61.27    2.82
   3   5   4   59.17    2.91
   3   5   5   68.55    4.32
   3  -5  -5   68.58    3.51
  -3   5  -5   73.44    3.25
   3   5   5   61.73    2.93
   3  -5  -6    8.02    1.29
   3  -5  -6    7.37    1.38
   3   5   6    7.33    1.75
  -3   5  -6    9.19    1.29
   3   5   6    8.65    1.17
   3  -5  -7   41.48    2.64
   3  -5  -7   42.39    2.60
   3   5   7   47.71    3.52
  -3   5  -7   44.55    2.63
   3  -5  -8    6.19    1.08
  -3   5  -8    7.14    1.10
   3   5   8    7.19    1.51
   3  -5  -8    6.32    0.86
   3  -5  -9   10.50    1.18
   3   5   9   12.36    1.48
  -3   5  -9   11.52    1.23
  -3  -6  -8    4.48    1.02
   3  -6   8    7.04    1.06
   3   6  -8    6.70    1.01
  -3  -6  -7  152.79    4.20
   3  -6   7  166.49    4.78
   3   6  -7  163.25    5.00
  -3  -6  -6   62.81    2.95
   3  -6   6   64.28    3.20
   3   6  -6   57.19    3.15
  -3  -6  -5  126.45    4.28
   3   6  -5  114.13    4.17
   3  -6   5  118.65    4.47
   3   6  -5  124.22    4.66
  -3  -6  -4  271.42    6.36
   3   6  -4  273.98    6.61
   3  -6   4  279.64    6.78
   3   6  -4  282.83    6.78
   3   6  -3  146.83    4.92
  -3   6   3  151.12    7.48
   3  -6   3  155.02    5.02
  -3  -6  -3  146.52    4.76
  -3   6   2  473.55   13.03
  -3  -6  -2  456.71    8.37
   3   6  -2  470.10    8.66
   3  -6   2  477.58    8.55
  -3  -6  -1  326.05    7.17
   3   6  -1  324.41    7.24
   3  -6   1  336.18    7.11
  -3  -6   0    0.52    0.69
   3  -6   0    1.24    0.79
   3  -6   0    0.26    0.74
  -3  -6   1  329.74    7.33
   3  -6  -1  332.39    7.67
  -3  -6   1  324.71   10.49
   3  -6  -1  322.31    6.96
  -3  -6   2  464.50   12.86
   3  -6  -2  472.18    8.38
   3  -6  -2  495.68    9.27
   3  -6  -3  155.81    5.23
   3   6   3  141.83    5.19
  -3  -6   3  158.33    7.81
   3  -6  -4  273.13    6.96
   3   6   4  273.55    7.58
  -3   6  -4  267.57    5.88
   3   6   4  276.23    6.14
   3  -6  -5  122.53    4.63
   3   6   5  117.40    5.21
  -3   6  -5  127.19    4.17
   3   6   5  115.36    3.78
   3  -6  -6   54.03    2.93
   3  -6  -6   60.45    3.17
   3   6   6   62.02    3.81
  -3   6  -6   60.47    2.91
   3  -6  -7  154.77    4.67
   3  -6  -7  157.24    4.59
  -3   6  -7  157.11    4.41
   3  -6  -8    7.32    1.03
   3   6   8    7.10    1.26
   3  -6  -8    6.33    0.84
  -3   6  -8    8.62    1.00
  -3  -7  -7    7.39    0.96
   3  -7   7   12.04    1.24
  -3  -7  -6   14.25    1.39
   3  -7   6   15.03    1.46
   3   7  -6   13.61    1.42
   3   7  -5   15.37    1.60
   3  -7   5   17.22    1.74
  -3  -7  -5   18.37    1.68
  -3  -7  -4    7.98    1.26
   3   7  -4    8.08    1.26
   3  -7   4   10.20    1.48
  -3  -7  -3   43.15    2.72
   3   7  -3   47.59    2.85
   3  -7   3   46.35    2.82
  -3  -7  -2  102.23    4.08
   3   7  -2   96.34    4.03
   3  -7   2  100.72    4.10
  -3  -7  -1   12.69    1.73
   3  -7   1   13.05    1.75
   3  -7   1   13.73    1.68
   3  -7   0   82.58    3.84
   3  -7   0   80.41    3.72
  -3  -7   0   81.91    3.81
   3  -7  -1   12.53    1.64
   3  -7  -1   11.96    1.70
  -3  -7   1   13.32    1.73
   3  -7  -2   97.62    4.20
  -3  -7   2   93.60    4.12
  -3  -7   3   45.53    2.89
   3  -7  -3   47.02    2.96
  -3   7  -4    8.96    1.17
  -3  -7   4    8.30    1.34
   3  -7  -4   10.18    1.56
   3   7   4   11.23    1.60
   3   7   4    9.47    1.14
  -3  -7   5   16.23    1.68
   3   7   5   17.73    1.91
  -3   7  -5   17.94    1.52
   3  -7  -5   16.22    1.66
   3  -7  -6   13.62    1.40
  -3  -7   6   15.32    1.55
   3  -7  -6   13.55    1.47
   3   7   6   14.25    1.75
  -3   7  -6   11.58    1.20
   3  -7  -7    8.50    1.04
   3  -7  -7    9.49    1.07
   3   7   7   11.89    1.46
  -3   7  -7   10.65    1.09
   3  -8   5   20.03    1.61
  -3  -8  -5   18.77    1.50
   3   8  -4   25.73    1.87
  -3  -8  -4   25.92    1.88
   3  -8   4   25.03    1.93
   3   8  -3  152.06    4.67
  -3  -8  -3  159.74    4.65
   3  -8   3  166.78    4.88
  -3  -8  -2   39.44    2.46
   3  -8   2   40.61    2.54
  -3  -8  -1   20.20    1.88
   3  -8   1   19.57    1.78
   3  -8   1   17.93    1.84
   3  -8   0  146.08    4.78
   3  -8   0  145.76    4.79
  -3  -8   0  144.13    4.74
   3  -8  -1   19.87    1.86
  -3  -8   1   19.13    1.86
   3  -8  -2   40.33    2.57
  -3  -8   2   40.67    2.54
  -3  -8   3  151.41    4.59
   3  -8  -3  164.00    5.00
   3  -8  -4   28.02    2.07
  -3  -8   4   25.78    1.89
   3  -8  -5   16.93    1.39
  -3  -8   5   17.80    1.44
   3  -8  -5   16.39    1.51
  -3  -9  -3   23.09    1.54
   3  -9   3   24.24    1.63
  -3  -9  -2   18.21    1.32
   3  -9   2   19.64    1.59
  -3  -9  -2   19.34    1.59
   3  -9   1   14.57    1.49
  -3  -9  -1   13.32    1.35
  -3  -9   0   66.02    2.80
   3  -9   0   67.94    2.79
   3  -9  -1   11.62    1.25
  -3  -9   1   13.36    1.34
   3  -9  -2   21.17    1.65
  -3  -9   2   17.90    1.50
  -3  -9   3   24.91    1.58
   3  -9  -3   22.04    1.65
   4   0   0    6.40    0.96
   4   0   0    6.37    1.26
   4   0  -1  331.96    8.13
   4   0   1  333.66    8.56
   4   0  -1  318.02    5.14
   4   0  -1  320.95    5.42
   4   0  -1  339.27    6.10
   4   0   1  323.48    6.18
   4   0   1  305.61    5.17
   4   0  -1  322.52    5.32
   4   0   1  328.35    5.81
   4   0  -1  324.79    6.04
   4   0   1  329.11    5.17
   4   0  -2 1466.50   11.72
   4   0  -2 1449.77   11.84
   4   0   2 1444.05   13.56
   4   0   2 1443.22   18.42
   4   0  -2 1414.91   10.88
   4   0   2 1457.41   12.17
   4   0  -2 1448.52   13.29
   4   0  -2 1500.16   17.34
   4   0   2 1464.98   11.44
  -4   0  -3 2784.54   16.70
   4   0  -3 2827.21   17.39
   4   0  -3 2840.80   17.16
   4   0   3 2783.46   27.58
   4   0   3 2774.14   19.63
   4   0   3 2807.36   17.35
   4   0  -3 2767.55   19.29
   4   0   3 2823.10   16.89
  -4   0  -4   20.61    1.65
   4   0  -4   20.93    1.67
   4   0  -4   19.26    1.62
   4   0   4   19.82    2.94
   4   0   4   20.25    1.65
   4   0  -4   19.74    1.56
   4   0  -4   19.38    1.83
   4   0  -5  205.51    5.32
   4   0  -5  208.07    5.38
   4   0   5  190.05    8.83
   4   0  -5  204.41    5.83
  -4   0  -5  209.68    5.44
   4   0  -6  331.29    7.01
   4   0  -6  338.76    7.39
   4   0  -6  332.83    7.66
  -4   0  -6  343.43    7.38
   4   0  -7   79.40    3.46
   4   0   7   81.14    3.75
   4   0  -7   85.10    3.83
   4   0  -7   79.87    3.81
  -4   0  -7   81.43    3.76
   4   0  -8   48.25    2.62
   4   0  -8   49.69    2.93
   4   0  -8   42.40    2.68
  -4   0  -8   48.41    2.91
   4   0  -9   37.41    2.35
  -4   0  -9   34.50    2.26
  -4   0 -10    4.14    0.87
  -4  -1 -10   10.69    1.19
  -4  -1  -9    5.22    1.11
   4   1  -9    5.29    1.07
   4   1  -8   13.44    1.67
   4   1  -8   12.22    1.72
  -4  -1  -8   13.42    1.66
   4   1  -7   79.09    3.45
   4   1  -7   78.95    4.09
   4   1  -7   76.95    3.65
  -4  -1  -7   78.74    3.81
  -4  -1  -6  200.80    5.85
   4  -1   6  178.05    9.69
   4   1  -6  196.36    5.31
   4  -1   6  191.60    5.40
   4   1  -6  186.96    5.50
   4   1  -6  186.90    6.30
  -4  -1  -5    5.17    1.05
   4  -1   5    3.00    0.99
   4   1  -5    2.28    0.84
  -4   1   5    4.64    1.28
   4   1  -5    3.26    0.89
   4  -1   5    3.48    1.71
   4   1  -5    3.30    1.24
   4   1  -4  106.54    3.62
  -4   1   4   97.45    4.71
   4  -1   4  105.21    6.24
   4  -1   4  106.68    3.86
   4   1  -4  104.58    4.25
   4   1  -3   13.52    1.31
   4  -1   3   15.64    2.29
   4  -1   3   13.68    1.45
  -4   1   3   12.44    1.87
   4  -1   3   14.53    1.39
   4   1  -3   11.97    1.54
   4   1  -2  137.76    3.64
   4  -1   2  129.41    5.90
   4  -1   2  135.51    4.08
   4   1  -2  140.10    3.57
   4  -1   2  133.46    3.74
   4   1  -2  134.50    4.23
   4   1  -1  265.54    4.73
   4  -1   1  267.92    8.01
   4   1  -1  273.97    4.76
   4   1  -1  275.92    5.51
   4  -1   1  281.19    5.68
   4  -1   1  272.34    5.20
   4   1  -1  269.62    5.69
   4   1  -1  279.93    7.03
   4   1   0  705.16   11.37
   4  -1   0  730.17   12.82
   4  -1   0  713.49    8.89
   4   1   0  710.12    9.11
   4  -1   0  693.63    8.30
   4   1   0  678.04    7.30
   4  -1   0  707.17    8.49
   4   1   0  693.19    8.84
   4  -1  -1  277.47    7.77
   4   1   1  280.57    7.45
   4  -1  -1  271.33    5.28
   4  -1  -1  265.00    4.82
   4   1   1  269.77    5.83
   4  -1  -1  272.49    5.09
   4   1   1  282.84    5.52
   4  -1  -1  272.56    5.45
   4   1   2  135.60    5.38
   4  -1  -2  129.86    3.63
   4  -1  -2  135.63    3.82
   4  -1  -2  130.88    3.52
   4  -1  -2  139.79    4.01
   4  -1  -2  142.27    5.57
   4   1   2  136.03    3.73
   4  -1  -3   15.30    1.41
   4   1   3   14.75    1.86
   4   1   3   13.77    1.32
   4  -1  -3   14.05    1.43
  -4  -1   3   14.50    1.85
   4  -1  -3   12.03    1.34
   4   1   3   13.44    1.34
   4  -1  -4   98.38    3.58
   4  -1  -4  105.48    3.55
   4   1   4  101.34    5.46
   4   1   4  109.20    4.58
   4   1   4  104.15    3.46
   4  -1  -4  101.09    3.69
  -4  -1   4  110.74    5.12
   4   1   4  103.80    3.59
  -4   1  -4  105.77    3.47
   4  -1  -5    2.77    0.62
  -4   1  -5    1.85    0.81
   4   1   5    1.59    1.04
   4  -1  -5    2.36    0.75
   4   1   5    1.54    1.29
   4  -1  -5    1.79    0.71
  -4  -1   5    5.22    1.56
   4  -1  -6  182.94    5.02
   4  -1  -6  192.44    5.54
   4   1   6  178.51    8.61
   4   1   6  190.52    6.46
   4  -1  -6  185.04    5.34
   4  -1  -6  177.57    5.17
  -4  -1   6  188.01    8.04
  -4   1  -6  193.81    5.42
   4  -1  -7   73.94    3.43
   4  -1  -7   65.93    3.37
  -4   1  -7   73.61    3.50
   4  -1  -7   72.69    3.35
   4  -1  -8   12.26    1.44
   4  -1  -8   13.57    1.61
  -4   1  -8   13.29    1.71
  -4   1  -9    4.29    0.92
   4  -1  -9    4.91    0.90
   4  -1  -9    5.32    1.02
  -4   1 -10    9.37    1.04
  -4  -2 -10    9.34    1.10
   4   2  -9   28.41    2.20
  -4  -2  -9   28.98    2.12
   4   2  -8   40.49    3.05
  -4  -2  -8   43.43    2.79
  -4  -2  -7   53.09    3.26
   4   2  -7   59.15    3.84
  -4  -2  -6   19.75    2.02
   4   2  -6   20.57    1.85
  -4   2   6   12.47    2.46
   4  -2   6   14.10    2.92
   4   2  -6   13.67    2.15
   4   2  -5    8.64    1.22
  -4   2   5    7.23    1.41
   4  -2   5   10.38    2.48
   4   2  -5    6.97    1.55
   4   2  -4  179.63    4.77
  -4   2   4  168.24    6.82
   4  -2   4  193.76    8.61
   4  -2   4  176.80    4.71
   4   2  -4  176.68    5.91
   4   2  -3   26.22    1.81
   4  -2   3   26.61    3.02
   4  -2   3   27.65    1.86
   4  -2   3   26.19    1.86
   4   2  -3   24.23    2.04
  -4   2   3   30.74    2.89
   4   2  -2  147.52    3.84
   4  -2   2  138.20    6.30
   4  -2   2  147.46    4.18
   4  -2   2  139.64    4.08
   4  -2   2  150.17    3.95
   4   2  -2  145.67    4.57
   4   2  -1  268.63    4.91
   4   2  -1  264.65    5.45
   4  -2   1  259.09    5.40
   4  -2   1  267.77    8.38
   4  -2   1  257.42    5.01
   4   2  -1  265.01    5.82
   4  -2   0   17.25    1.25
   4   2   0   15.24    1.50
   4  -2   0   12.81    1.28
   4  -2   0   14.82    1.27
   4   2   0   13.28    1.36
   4   2   0   13.90    1.65
   4  -2  -1  266.31    7.95
   4   2   1  270.49    6.67
   4  -2  -1  262.35    5.14
   4  -2  -1  266.00    5.57
   4   2   1  253.61    5.87
   4  -2  -1  267.87    5.33
   4  -2  -1  254.44    5.04
   4   2   1  268.27    5.52
   4   2   2  132.80    4.93
   4  -2  -2  144.32    4.03
   4  -2  -2  139.15    3.83
  -4  -2   2  150.43    5.33
   4   2   2  141.44    3.89
   4  -2  -2  135.53    3.77
   4  -2  -2  144.92    4.12
   4  -2  -2  145.73    5.91
   4  -2  -3   25.12    1.85
   4  -2  -3   24.70    1.82
   4   2   3   25.75    2.41
   4   2   3   24.44    1.65
  -4  -2   3   25.35    2.55
   4  -2  -3   22.83    1.63
   4   2   3   26.21    1.89
   4  -2  -4  178.67    4.99
   4   2   4  186.23    6.46
   4  -2  -4  182.32    4.71
   4   2   4  177.79    4.41
  -4  -2   4  190.91    7.16
  -4   2  -4  182.54    4.45
   4   2   4  183.73    4.88
   4  -2  -5    8.46    1.16
   4  -2  -5    8.06    1.27
   4  -2  -5    8.23    1.19
   4   2   5    9.96    1.75
  -4   2  -5    7.99    1.20
  -4  -2   5    8.91    1.74
   4   2   5    8.52    1.29
   4  -2  -6   16.23    1.59
   4  -2  -6   18.23    1.83
   4   2   6   17.60    2.29
  -4   2  -6   15.73    1.64
  -4  -2   6   21.82    3.02
   4  -2  -7   55.78    2.95
   4  -2  -7   56.63    3.05
   4   2   7   54.77    3.82
  -4   2  -7   53.94    2.96
   4  -2  -8   39.44    2.45
  -4   2  -8   41.25    2.58
   4  -2  -8   40.56    2.51
   4  -2  -9   26.01    1.70
   4   2   9   28.36    2.13
  -4   2  -9   27.48    1.99
  -4   2 -10   10.69    1.07
  -4  -3  -9    0.24    0.57
   4   3  -9    2.29    0.76
  -4  -3  -8    3.50    0.99
   4   3  -8    5.23    1.34
  -4  -3  -7    2.98    1.05
   4   3  -7    4.19    1.41
   4  -3   6   14.45    1.57
   4   3  -6    7.17    1.75
  -4   3   5  101.96    5.83
   4  -3   5  101.13    6.76
   4  -3   5   96.22    3.71
   4   3  -5   92.39    4.85
   4  -3   4   68.91    5.18
  -4   3   4   64.98    4.60
   4  -3   4   65.44    3.03
   4   3  -4   65.54    3.86
  -4   3   3   24.62    3.04
   4  -3   3   20.64    2.75
   4  -3   3   25.66    1.88
   4   3  -3   27.74    2.33
   4  -3   2   28.29    3.15
  -4  -3  -2   27.13    1.73
   4  -3   2   28.14    2.00
   4   3  -2   28.50    2.22
   4  -3   1  148.78    6.49
  -4  -3  -1  150.68    4.04
   4   3  -1  146.29    4.12
   4  -3   1  154.91    4.31
   4  -3   1  147.03    3.93
   4  -3   1  152.36    3.87
   4   3  -1  145.25    4.48
   4   3   0    3.29    0.81
   4  -3   0    3.83    0.74
   4  -3   0    3.80    0.81
   4  -3   0    3.13    1.23
   4  -3   0    3.40    0.77
   4  -3   0    1.92    0.61
  -4  -3   0    5.42    1.20
   4   3   0    2.60    0.89
   4  -3  -1  159.27    6.47
   4  -3  -1  152.43    4.29
   4  -3  -1  151.44    4.19
  -4  -3   1  155.13    5.62
   4  -3  -1  138.19    3.53
   4   3   1  148.88    4.17
   4  -3  -2   30.79    2.07
   4  -3  -2   29.05    2.00
   4   3   2   29.76    2.46
   4  -3  -2   31.65    2.01
  -4  -3   2   28.54    2.67
   4   3   2   30.03    1.80
   4  -3  -2   29.44    2.73
   4  -3  -3   25.67    1.99
   4  -3  -3   24.68    1.84
   4   3   3   24.78    2.51
  -4  -3   3   27.15    2.79
   4   3   3   25.08    1.97
   4  -3  -4   63.57    3.20
   4  -3  -4   72.04    3.05
   4   3   4   61.53    4.06
  -4  -3   4   61.50    4.28
  -4   3  -4   64.67    2.73
   4   3   4   68.82    3.18
   4  -3  -5   97.59    3.70
   4  -3  -5  102.28    4.10
   4  -3  -5  103.31    3.67
   4   3   5   94.94    5.28
  -4  -3   5   93.33    5.60
  -4   3  -5  104.65    3.72
   4   3   5  103.23    3.92
   4  -3  -6   12.01    1.57
   4  -3  -6   12.30    1.52
   4   3   6   12.98    2.16
  -4   3  -6   14.19    1.61
   4  -3  -7    1.59    0.82
  -4   3  -7    4.01    1.00
   4   3   7    4.18    1.67
   4  -3  -7    4.12    0.97
   4  -3  -8    3.88    0.94
  -4   3  -8    3.16    0.85
   4   3   8    1.93    1.28
   4  -3  -8    2.23    0.87
  -4   3  -9    1.34    0.66
   4  -3  -9    1.60    0.57
   4   4  -9   11.11    1.43
  -4  -4  -9   10.04    1.18
  -4  -4  -8    6.87    1.22
   4   4  -8    9.50    1.57
  -4  -4  -7   70.96    3.59
   4   4  -7   74.31    4.17
   4   4  -6   71.04    4.25
   4  -4   5   10.33    1.26
   4   4  -5    7.33    1.59
   4  -4   4  185.65    8.38
  -4   4   4  186.12    8.33
   4  -4   4  184.13    4.97
   4   4  -4  202.22    6.58
  -4  -4  -3   88.04    3.32
   4  -4   3   79.95    5.37
   4  -4   3   79.26    3.29
   4   4  -3   89.93    4.10
  -4   4   3   90.86    5.63
   4  -4   2  264.34    9.26
  -4  -4  -2  254.64    5.70
   4  -4   2  263.59    5.86
   4  -4   2  266.24    5.94
   4   4  -2  267.60    6.61
   4  -4   1  170.88    7.20
  -4  -4  -1  167.23    4.70
   4  -4   1  164.11    4.61
   4  -4   1  164.90    4.52
   4   4  -1  161.95    4.84
   4  -4   0   61.87    4.17
   4  -4   0   70.12    3.13
   4   4   0   60.49    2.88
   4  -4   0   68.60    2.99
   4  -4   0   61.01    2.73
   4  -4  -1  171.33    5.08
   4  -4  -1  167.19    4.72
  -4  -4   1  158.43    6.42
   4  -4  -1  164.44    4.35
   4  -4  -1  150.82    6.38
   4  -4  -2  252.85    5.93
   4   4   2  256.80    7.06
   4  -4  -2  253.62    5.42
  -4  -4   2  244.30    8.29
   4  -4  -2  267.38    6.55
   4  -4  -3   83.95    3.43
   4  -4  -3   93.74    4.00
   4   4   3   89.18    4.60
  -4  -4   3   85.13    5.15
   4  -4  -4  188.09    5.69
   4  -4  -4  182.42    4.88
   4   4   4  178.58    6.98
  -4  -4   4  186.61    7.94
   4   4   4  189.96    5.37
   4  -4  -5   10.66    1.34
  -4   4  -5    8.57    1.23
   4  -4  -5    9.02    1.46
   4  -4  -5    7.95    1.20
   4   4   5    8.11    1.87
   4   4   5    8.33    1.33
   4  -4  -6   63.79    3.16
   4  -4  -6   67.73    3.45
   4   4   6   56.65    4.26
  -4   4  -6   65.12    3.06
   4  -4  -7   71.79    3.29
   4  -4  -7   75.48    3.41
   4   4   7   77.87    4.58
  -4   4  -7   72.36    3.19
   4  -4  -8    6.75    1.08
   4   4   8    6.90    1.55
   4  -4  -8    7.12    1.12
  -4   4  -8    9.14    1.21
  -4   4  -9   10.04    1.06
  -4  -5  -8    3.49    0.96
   4  -5   8    2.82    0.96
   4   5  -8    3.64    0.96
   4  -5   7   14.81    1.57
   4   5  -7   16.16    1.81
   4  -5   6   78.36    3.57
   4   5  -6   82.19    4.14
  -4  -5  -5   59.44    2.76
   4  -5   5   61.78    3.28
   4   5  -5   59.15    3.60
  -4  -5  -4   23.42    1.93
   4  -5   4   25.08    1.78
   4  -5   4   25.39    2.22
   4   5  -4   26.25    2.37
   4  -5   3   73.03    5.01
  -4  -5  -3   68.27    3.18
   4  -5   3   74.13    3.10
   4  -5   3   70.59    3.39
  -4   5   3   63.95    5.14
   4   5  -3   68.19    3.57
   4  -5   2   53.97    4.40
  -4   5   2   48.92    4.36
  -4  -5  -2   55.14    2.88
   4  -5   2   52.43    2.68
   4  -5   2   56.06    2.95
   4   5  -2   55.15    3.03
   4  -5   1   69.57    4.76
  -4  -5  -1   78.12    3.47
   4  -5   1   80.29    3.31
   4  -5   1   72.40    3.28
   4   5  -1   74.74    3.22
   4  -5   0  294.67    9.12
  -4  -5   0  309.00    6.91
   4  -5   0  314.17    6.57
   4  -5  -1   72.85    3.72
   4   5   1   73.58    3.37
  -4  -5   1   66.31    4.62
   4  -5  -1   81.35    3.35
   4  -5  -1   68.30    4.40
   4  -5  -2   52.86    2.83
   4  -5  -2   55.82    3.28
  -4  -5   2   52.60    4.33
   4  -5  -2   52.65    2.75
   4  -5  -3   74.38    3.80
   4  -5  -3   63.91    2.98
   4   5   3   69.17    4.11
  -4  -5   3   73.34    5.20
   4  -5  -4   26.48    2.35
   4  -5  -4   24.49    1.77
   4   5   4   27.49    2.81
   4   5   4   24.28    2.00
   4  -5  -5   55.39    2.89
   4  -5  -5   65.07    3.51
   4   5   5   55.41    4.03
   4   5   5   55.55    2.89
   4  -5  -6   72.02    3.27
   4  -5  -6   81.56    3.65
   4   5   6   76.83    4.58
  -4   5  -6   74.33    3.05
   4  -5  -7   13.53    1.40
   4  -5  -7   16.66    1.62
   4   5   7   12.17    1.97
  -4   5  -7   14.74    1.36
  -4   5  -8    3.25    0.64
   4  -5  -8    3.74    0.81
   4  -6   7   20.43    1.61
   4   6  -7   19.01    1.67
   4  -6   6   -0.94    0.87
   4   6  -6    0.37    0.75
  -4  -6  -5   20.63    1.69
   4  -6   5   20.49    1.91
   4   6  -5   22.41    1.99
  -4  -6  -4   26.63    1.97
   4  -6   4   30.97    2.32
   4   6  -4   27.71    2.24
  -4  -6  -3  251.44    6.08
   4  -6   3  253.81    6.37
   4   6  -3  235.70    6.03
  -4  -6  -2   31.34    2.33
   4  -6   2   39.70    2.61
  -4  -6  -1    5.50    1.25
   4  -6   1    4.59    1.18
  -4  -6   0  263.90    6.71
   4  -6   0  266.60    6.42
  -4  -6   1    4.24    1.20
   4  -6  -1    5.90    1.16
   4  -6  -1    4.80    1.09
   4  -6  -1    5.55    1.16
  -4  -6   2   33.55    2.62
   4  -6  -2   33.43    2.26
   4  -6  -2   35.02    2.38
   4  -6  -2   39.19    2.89
   4  -6  -3  251.22    6.95
   4   6   3  245.85    6.16
   4  -6  -4   31.21    2.50
   4   6   4   28.82    2.59
   4   6   4   26.99    2.07
   4  -6  -5   22.35    2.01
   4   6   5   16.50    2.14
   4   6   5   19.95    1.68
   4   6   6    0.01    0.81
   4  -6  -6    0.36    0.82
   4  -6  -7   16.07    1.47
   4  -7   6    4.53    0.87
  -4  -7  -5   18.61    1.49
   4  -7   5   21.27    1.77
  -4  -7  -4    1.74    0.83
   4  -7   4    1.78    0.83
  -4  -7  -3    5.65    1.15
   4  -7   3    4.31    1.09
  -4  -7  -2   41.38    2.58
   4  -7   2   41.36    2.63
  -4  -7  -1   20.24    1.90
   4  -7   1   20.93    1.97
  -4  -7   0   11.46    1.63
   4  -7   0   13.72    1.75
   4  -7   0   13.73    1.72
  -4  -7   1   18.04    1.86
   4  -7  -1   17.08    1.61
   4  -7  -1   19.70    1.98
   4  -7  -1   16.79    1.74
  -4  -7   2   37.86    2.66
   4  -7  -2   42.67    2.89
  -4  -7   3    7.14    1.37
   4  -7  -3    7.87    1.33
   4   7   3    5.39    1.16
  -4  -7   4    0.48    0.86
   4  -7  -4    0.64    0.76
   4   7   4    1.93    0.65
  -4  -7   5   19.07    1.70
   4  -7  -5   20.56    1.75
  -4  -7   6    4.20    0.93
   4  -7  -6    4.61    0.86
  -4  -8  -4   35.24    1.88
   4  -8   4   37.03    2.06
  -4  -8  -3   36.76    2.04
   4  -8   3   32.58    2.05
  -4  -8  -2   51.93    2.57
   4  -8   2   54.03    2.69
  -4  -8  -1   15.62    1.53
   4  -8   1   15.54    1.35
   4  -8   1   18.36    1.70
  -4  -8   0   35.25    2.27
   4  -8   0   37.47    2.30
  -4  -8   1   16.07    1.66
   4  -8  -1   15.88    1.62
  -4  -8   2   51.74    2.65
   4  -8  -2   51.16    2.70
   4   8   2   47.40    2.37
  -4  -8   3   30.74    2.02
   4  -8  -3   31.83    2.11
   4   8   3   26.10    1.66
  -4  -8   4   33.64    1.98
   4  -8  -4   36.44    2.13
  -4  -9   0    5.27    0.85
   5   0   0   -0.68    0.52
   5   0   0    1.79    0.87
   5   0   0    0.79    0.60
   5   0   0   -1.40    1.02
   5   0   0   -0.67    0.71
   5   0   1  213.31    7.81
   5   0  -1  223.09    4.84
   5   0  -1  213.16    5.06
   5   0   1  210.53    4.84
   5   0   1  216.56    5.87
   5   0  -1  214.02    4.98
   5   0   1  206.81    5.24
   5   0   1  205.96    5.30
   5   0  -1  222.20    5.76
   5   0   1  212.80    4.69
   5   0  -1  227.19    7.74
   5   0  -2   10.70    1.24
   5   0  -2   10.26    1.28
   5   0   2    9.74    1.13
   5   0   2   11.19    1.56
   5   0  -2    9.86    1.17
   5   0   2    6.19    1.73
   5   0   2   10.04    1.32
   5   0  -2    8.18    1.32
   5   0   2    7.74    1.12
   5   0  -3   10.73    1.36
   5   0  -3   11.81    1.35
   5   0   3   10.89    1.67
   5   0   3    8.97    2.08
   5   0   3   12.42    1.46
   5   0  -3   13.29    1.71
   5   0  -4  379.65    7.36
   5   0   4  373.70    8.31
   5   0  -4  364.61    8.14
   5   0  -5  363.68    7.45
   5   0   5  351.41    8.19
   5   0  -5  340.01    8.07
  -5   0  -5  349.86    6.97
   5   0  -6   48.11    2.80
   5   0   6   42.07    2.95
   5   0  -6   39.83    2.83
  -5   0  -6   47.29    2.67
   5   0  -7  127.45    4.35
   5   0   7  114.52    4.37
   5   0  -7  111.01    4.33
  -5   0  -7  120.35    4.24
  -5   0  -8    3.09    0.93
   5   0  -8    6.33    1.03
  -5   0  -9    0.17    0.41
  -5  -1  -9   12.86    1.27
   5   1  -8   10.29    1.40
  -5  -1  -8    9.01    1.23
   5   1  -7   12.26    1.48
  -5  -1  -7    9.29    1.31
   5   1  -7   10.92    1.70
   5   1  -6   17.40    1.80
   5  -1   6   15.25    1.75
   5   1  -6   17.45    2.26
  -5  -1  -6   17.75    1.83
   5   1  -5  174.78    5.13
   5  -1   5  165.08    5.25
   5   1  -5  172.10    6.25
  -5  -1  -5  175.73    5.19
  -5  -1  -4    6.98    1.07
   5  -1   4    7.10    1.43
   5   1  -4    3.66    1.02
   5   1  -4    6.22    1.45
   5   1  -3   52.46    2.68
   5  -1   3   51.30    4.43
   5  -1   3   44.00    2.72
   5  -1   3   54.53    2.82
   5   1  -3   54.48    3.29
   5   1  -2   61.44    2.73
   5  -1   2   57.47    4.67
   5   1  -2   68.38    2.89
   5  -1   2   66.80    3.34
   5  -1   2   59.52    3.03
   5  -1   2   63.39    2.99
   5   1  -2   59.95    3.24
   5  -1   1   87.55    5.35
   5   1  -1   92.29    3.14
   5   1  -1   92.21    3.17
   5  -1   1   86.11    3.37
   5  -1   1   89.76    3.78
   5   1  -1   85.75    3.06
   5  -1   1   89.43    3.54
   5  -1   1   91.85    3.52
   5   1  -1   92.38    3.85
   5   1  -1   94.47    4.80
   5   1   0    7.68    0.88
   5  -1   0    6.57    1.05
   5   1   0    8.09    1.36
   5  -1   0    7.23    1.25
   5   1   0    7.94    1.20
   5   1   0    7.67    1.53
   5  -1   0    5.78    1.78
   5  -1   0    9.61    1.29
   5   1   0    7.68    1.17
   5   1   0    5.94    0.97
   5   1   1   89.87    4.82
   5  -1  -1   85.54    3.05
   5  -1  -1   88.43    3.50
   5   1   1   93.98    3.99
   5  -1  -1   91.56    3.42
   5   1   1   91.93    3.63
   5  -1  -1   84.44    3.49
   5   1   1   85.90    3.20
   5  -1  -1   98.35    5.29
   5   1   2   57.72    4.12
   5  -1  -2   63.39    2.79
   5  -1  -2   66.62    3.07
   5   1   2   62.72    3.44
   5  -1  -2   63.24    2.77
   5   1   2   65.56    3.01
   5  -1  -2   58.79    2.98
   5   1   2   63.34    2.87
   5   1   3   50.25    4.02
   5  -1  -3   46.06    2.54
   5  -1  -3   49.47    2.70
   5   1   3   49.83    3.25
   5   1   3   52.24    2.72
   5  -1  -3   47.23    2.72
   5   1   3   49.61    2.66
   5  -1  -4    5.67    1.09
   5   1   4    6.63    1.42
   5  -1  -4    3.89    0.95
   5   1   4    6.96    1.14
   5  -1  -4    5.63    1.04
   5  -1  -5  174.55    5.24
   5   1   5  167.73    6.13
   5  -1  -5  154.22    5.01
  -5   1  -5  168.75    4.69
   5  -1  -6   15.35    1.81
   5   1   6   17.01    2.26
   5  -1  -6   11.46    1.45
  -5   1  -6   18.00    1.69
  -5   1  -7    9.33    1.27
   5  -1  -7    9.57    1.46
   5   1   7    8.42    1.62
   5  -1  -8   11.44    1.31
   5   1   8    9.53    1.33
  -5   1  -8   11.43    1.39
  -5   1  -9   12.79    1.16
  -5  -2  -9    2.13    0.57
   5  -2   8   47.91    2.36
  -5  -2  -8   51.80    2.65
   5  -2   7   15.74    1.50
   5   2  -7   14.84    2.14
  -5  -2  -7   17.42    1.79
  -5  -2  -6   27.18    2.23
   5  -2   6   22.11    1.99
   5   2  -6   25.42    2.92
  -5  -2  -5   28.20    2.27
   5  -2   5   30.39    2.33
   5   2  -5   24.38    2.66
   5   2  -4   50.30    2.79
   5  -2   4   46.97    4.83
   5  -2   4   52.73    2.85
   5  -2   4   48.15    2.88
   5   2  -4   47.12    3.44
   5   2  -3   10.67    1.37
  -5   2   3    9.89    2.11
   5  -2   3    9.62    1.36
   5  -2   3   10.01    1.40
   5  -2   3    9.84    2.14
   5   2  -3    8.80    1.61
   5  -2   2  220.65    8.98
   5  -2   2  216.37    5.68
   5  -2   2  229.41    5.53
   5   2  -2  222.03    6.39
   5  -2   1   88.50    5.57
   5   2  -1   93.29    3.76
   5  -2   1   95.28    3.76
   5  -2   1   95.60    3.57
   5   2  -1   94.18    4.00
   5  -2   0  390.56   11.15
   5  -2   0  370.95    7.49
   5   2   0  385.63    7.77
   5  -2   0  387.26    7.32
   5  -2   0  376.11    6.86
   5   2   0  377.54    7.54
   5  -2  -1   94.77    3.42
   5  -2  -1   98.06    3.81
   5   2   1   99.47    4.20
   5  -2  -1   98.58    3.65
   5  -2  -1   87.75    3.39
   5   2   1   93.46    3.67
   5   2   1   97.40    3.68
   5  -2  -1   96.64    5.49
   5  -2  -2  217.09    5.44
   5  -2  -2  231.61    5.78
   5   2   2  220.07    6.59
   5  -2  -2  218.23    5.34
   5   2   2  219.44    5.48
   5  -2  -2  206.05    5.21
   5  -2  -2  219.83    8.19
   5   2   2  217.54    5.50
   5  -2  -3    9.43    1.34
   5  -2  -3    9.64    1.34
   5   2   3    8.29    1.62
   5   2   3    8.56    1.17
   5  -2  -3    8.20    1.23
   5   2   3    8.72    1.28
   5  -2  -4   52.56    2.92
   5  -2  -4   53.12    2.85
   5   2   4   51.38    3.73
   5   2   4   53.51    2.74
   5  -2  -4   42.92    2.45
   5   2   4   47.08    2.73
   5  -2  -5   29.32    2.31
   5   2   5   28.63    3.01
   5  -2  -6   26.79    2.17
   5   2   6   27.30    2.81
  -5   2  -6   26.45    1.92
   5  -2  -7   15.98    1.73
   5   2   7   16.76    2.18
  -5   2  -7   16.61    1.53
   5  -2  -8   53.56    2.58
   5   2   8   52.56    2.96
  -5   2  -8   50.87    2.48
  -5  -3  -8    1.80    0.70
   5   3  -8    1.78    0.87
   5  -3   7   10.90    1.26
   5   3  -7   10.79    1.79
  -5  -3  -7   10.97    1.56
  -5  -3  -6    5.32    1.14
   5  -3   6    4.62    1.01
   5   3  -6    3.64    1.40
   5  -3   5   24.34    2.12
   5   3  -5   25.11    2.73
   5  -3   4   17.26    1.78
   5   3  -4   17.09    2.38
   5  -3   3  108.72    6.81
   5  -3   3  107.08    4.12
   5  -3   3  109.11    3.87
  -5   3   3   97.15    5.79
   5   3  -3  113.45    5.00
   5  -3   2   36.47    3.89
  -5   3   2   31.29    3.16
   5  -3   2   33.27    2.31
   5  -3   2   34.08    2.13
   5   3  -2   35.13    2.70
   5  -3   1   27.72    3.36
   5   3  -1   23.75    1.93
   5  -3   1   24.64    1.99
   5  -3   1   28.42    1.99
   5   3  -1   25.09    2.18
   5  -3   0   27.47    3.23
   5  -3   0   24.41    2.11
   5   3   0   26.46    2.18
   5  -3   0   24.98    2.01
   5  -3   0   25.78    1.85
   5   3   0   25.04    2.04
   5  -3  -1   24.85    1.88
   5  -3  -1   24.91    2.12
   5   3   1   22.97    2.15
   5  -3  -1   24.07    1.94
   5  -3  -1   24.04    1.76
   5   3   1   22.87    1.86
   5  -3  -1   21.23    2.81
   5  -3  -2   31.64    2.29
   5  -3  -2   36.00    2.39
   5   3   2   29.40    2.57
   5   3   2   34.43    2.21
   5   3   2   33.13    2.32
   5  -3  -3  105.74    4.20
   5  -3  -3  108.71    4.12
   5   3   3  104.01    5.04
   5   3   3  103.03    3.60
   5   3   3  107.30    4.09
   5  -3  -4   16.73    1.84
   5  -3  -4   20.39    1.85
   5   3   4   19.15    1.84
   5  -3  -5   23.27    2.16
   5   3   5   22.36    2.02
   5  -3  -6    4.87    1.09
   5  -3  -7   12.23    1.55
   5   3   7   10.55    1.70
  -5   3  -7   10.90    1.17
  -5   3  -8    1.50    0.48
   5   3   8    2.27    0.90
   5  -3  -8    0.57    0.43
   5  -4   8   27.47    1.78
   5   4  -8   31.08    2.16
  -5  -4  -8   26.47    1.73
  -5  -4  -7    8.06    1.20
   5  -4   7   10.68    1.34
   5   4  -7    9.72    1.67
  -5  -4  -6   67.96    3.36
   5  -4   6   73.34    2.96
   5  -4   6   73.74    3.32
   5   4  -6   79.67    4.31
   5  -4   5   65.26    3.02
   5  -4   5   69.21    3.32
   5   4  -5   72.45    4.27
   5  -4   4    7.40    1.21
   5  -4   4    5.53    1.19
   5   4  -4    6.56    1.57
   5  -4   3   13.11    1.52
   5  -4   3   11.10    1.49
   5   4  -3   10.57    1.78
   5  -4   2   67.66    3.26
   5  -4   2   64.81    3.02
   5   4  -2   67.23    3.62
  -5  -4  -1   13.66    1.44
   5  -4   1   14.09    1.56
   5  -4   1   12.37    1.41
   5  -4   1   15.38    2.92
   5   4  -1   15.32    1.76
   5  -4   0  123.72    6.52
  -5  -4   0  126.70    4.35
   5   4   0  128.41    4.49
   5  -4   0  134.93    4.55
   5   4   0  131.06    4.43
   5  -4  -1   15.04    1.59
   5  -4  -1   14.10    1.72
   5   4   1   12.38    1.65
   5  -4  -1   17.14    2.59
   5   4   1   14.18    1.45
   5  -4  -2   66.79    3.49
   5  -4  -2   66.59    3.32
   5   4   2   56.34    3.45
   5   4   2   67.73    3.35
   5  -4  -3   13.69    1.77
   5  -4  -3   12.61    1.53
   5   4   3   12.37    1.85
   5   4   3   11.07    1.53
   5  -4  -4    5.18    1.05
   5  -4  -4    3.56    1.12
   5   4   4    4.33    1.12
   5  -4  -5   74.52    3.65
   5   4   5   70.17    3.27
   5  -4  -6   79.20    3.53
   5  -4  -7    9.71    1.24
   5   4   7   10.42    1.68
   5  -4  -8   27.05    1.68
   5   4   8   30.65    2.27
  -5  -5  -7    6.70    0.99
   5  -5   7    7.04    1.08
   5   5  -7    4.91    1.08
   5  -5   6   10.47    1.41
   5   5  -6    9.29    1.51
   5  -5   5   -0.74    0.77
   5   5  -5   -1.80    0.95
   5  -5   4  141.65    4.20
   5  -5   4  137.87    4.52
   5   5  -4  150.22    5.45
   5  -5   3   39.29    2.43
   5  -5   3   37.69    2.46
   5   5  -3   38.98    2.80
  -5  -5  -2   79.85    3.38
   5  -5   2   83.63    3.53
   5  -5   2   73.49    3.33
   5   5  -2   76.32    3.60
  -5  -5  -1   18.00    1.80
   5  -5   1   14.74    1.68
   5  -5   1   14.57    1.56
   5   5  -1   19.08    1.73
  -5  -5   0   15.29    1.69
   5  -5   0   11.62    1.62
   5  -5   0   12.97    1.46
  -5  -5   1   17.74    1.83
   5  -5  -1   12.84    1.69
   5  -5  -1   16.81    1.80
   5   5   1   13.65    1.65
   5  -5  -2   75.04    3.92
   5  -5  -2   76.27    3.51
   5   5   2   74.46    3.76
   5   5   2   76.40    3.65
   5  -5  -3   38.28    2.80
   5  -5  -3   34.95    2.27
   5   5   3   36.07    2.88
   5   5   3   37.96    2.53
   5  -5  -4  134.34    4.11
   5   5   4  143.53    5.68
   5   5   4  148.84    4.72
   5   5   5    0.64    1.30
   5  -5  -5    0.50    0.76
   5   5   5   -0.28    0.69
   5  -5  -6    9.46    1.24
   5   5   6    9.89    1.66
   5  -5  -7    7.86    1.03
   5   5   7    6.51    1.36
  -5  -6  -6    5.82    0.93
   5  -6   6    6.19    0.92
   5   6  -6    6.26    1.03
   5  -6   5   37.80    2.21
   5   6  -5   34.27    2.18
   5  -6   4    6.85    1.15
   5   6  -4    7.47    1.24
  -5  -6  -3   10.71    1.23
   5  -6   3   11.02    1.42
  -5  -6  -2   59.17    2.83
   5  -6   2   64.60    3.11
  -5  -6  -1  323.97    6.83
   5  -6   1  334.53    6.86
  -5  -6   0   23.81    2.03
   5  -6   0   18.95    1.88
   5  -6   0   21.88    1.92
  -5  -6   1  326.67    7.18
   5  -6  -1  337.09    7.07
   5  -6  -1  329.91    6.52
  -5  -6   2   66.71    3.35
   5  -6  -2   63.52    3.54
   5  -6  -2   68.91    3.11
   5   6   2   66.94    3.26
  -5  -6   3   11.98    1.52
   5  -6  -3   11.97    1.67
   5  -6  -3    8.98    1.15
   5   6   3    8.26    1.35
   5   6   3   10.81    1.46
   5  -6  -4    9.97    1.48
   5   6   4    6.80    1.29
   5   6   4    6.92    1.10
   5  -6  -5   34.30    2.25
   5   6   5   34.32    2.32
   5   6   5   33.29    1.94
   5   6   6    3.36    1.00
   5  -6  -6    7.03    0.94
   5  -7   4   24.54    1.74
  -5  -7  -3   16.05    1.35
   5  -7   3   19.06    1.61
  -5  -7  -2    6.13    1.01
   5  -7   2    4.52    0.96
  -5  -7  -1   15.92    1.62
   5  -7   1   17.54    1.63
   5  -7   1   17.37    1.64
  -5  -7   0    3.10    0.89
   5  -7   0    3.31    0.85
   5  -7   0    2.67    0.95
  -5  -7   1   14.09    1.56
   5  -7  -1   17.32    1.48
  -5  -7   2    5.33    1.08
   5  -7  -2    5.22    1.00
   5   7   2    4.49    1.00
  -5  -7   3   19.82    1.71
   5  -7  -3   18.63    1.68
   5   7   3   17.29    1.46
  -5  -7   4   25.30    1.77
   5  -7  -4   26.31    1.87
   5   7   4   21.93    1.47
  -5  -8  -1   25.24    1.63
  -5  -8   0    7.82    0.92
  -5  -8   1   26.26    1.67
   5   8   1   25.91    1.65
  -5  -8   2   34.49    1.86
   6   0   0   -0.77    0.55
   6   0   0    0.61    0.65
   6   0   0    0.97    0.91
   6   0  -1   14.83    1.46
   6   0  -1   14.12    1.53
   6   0   1   14.34    1.46
   6   0  -1   14.23    1.49
   6   0   1   13.88    1.64
   6   0   1   14.47    2.66
   6   0   1   13.51    1.67
   6   0  -1   11.41    1.57
   6   0  -2    0.52    0.77
   6   0   2    1.34    0.98
   6   0  -2    1.28    0.67
   6   0   2    0.48    0.92
   6   0  -2    2.02    1.09
   6   0  -3  491.72    8.34
   6   0   3  496.60    9.96
   6   0   3  496.77    9.45
   6   0   3  519.88    9.01
   6   0  -3  490.29    9.55
   6   0  -4   52.36    2.85
   6   0   4   52.13    3.41
   6   0  -4   48.76    3.20
   6   0  -5  451.71    8.09
   6   0   5  434.26    9.02
   6   0  -5  420.35    8.72
   6   0  -6   22.84    1.90
   6   0   6   22.26    2.10
   6   0  -6   19.11    1.85
   6   0   7    0.05    0.60
   6   0  -7    1.69    0.73
   6   0   7   -0.18    0.73
   6   0   8   -1.57    0.63
   6  -1   7   29.36    1.98
   6   1  -7   25.37    2.02
   6  -1   6    2.75    1.00
   6   1  -6    2.27    1.07
   6   1  -5   32.93    2.33
   6  -1   5   30.56    2.38
   6  -1   5   34.26    2.63
   6   1  -5   27.68    2.60
   6   1  -4   11.48    1.43
   6  -1   4    9.05    1.65
   6  -1   4    9.69    1.63
   6   1  -4   11.58    1.91
   6   1  -3    8.93    1.33
   6  -1   3    7.75    1.25
   6  -1   3    7.82    1.58
   6  -1   3    9.80    1.54
   6   1  -3    9.38    1.72
   6   1  -2   36.05    2.21
   6  -1   2   31.57    2.15
   6  -1   2   36.24    2.60
   6  -1   2   37.47    2.58
   6   1  -2   40.70    2.96
   6   1  -1    3.00    0.76
   6  -1   1    1.86    0.76
   6  -1   1    3.88    1.02
   6  -1   1    4.06    1.72
   6  -1   1    1.42    1.00
   6   1  -1    1.80    1.11
   6   1   0  237.83    5.22
   6  -1   0  236.87    5.93
   6  -1   0  253.34    6.24
   6   1   0  244.04    5.74
   6  -1   0  250.89    6.25
   6   1   0  250.17    6.49
   6  -1   0  241.98    9.20
   6  -1  -1    2.04    0.98
   6   1   1    2.90    1.36
   6  -1  -1    3.74    1.02
   6   1   1    0.10    0.74
   6  -1  -1    2.65    1.87
   6   1   1    2.88    1.05
   6  -1  -1    1.84    1.02
   6   1   1    1.39    0.76
   6  -1  -2   36.18    2.30
   6  -1  -2   35.07    2.41
   6   1   2   38.15    2.98
   6  -1  -2   34.93    2.29
   6   1   2   36.66    2.58
   6   1   2   37.56    2.56
   6  -1  -2   38.05    2.62
   6   1   2   36.84    2.29
   6  -1  -3    8.73    1.31
   6  -1  -3    8.15    1.38
   6   1   3   12.24    1.91
   6   1   3    7.88    1.34
   6  -1  -3    8.52    1.47
   6  -1  -4   11.54    1.48
   6   1   4    8.82    1.87
   6  -1  -4    9.45    1.49
   6  -1  -5   30.02    2.26
   6   1   5   32.08    2.80
   6  -1  -5   29.95    2.17
   6   1   6    0.32    0.82
   6  -1  -6    0.95    0.73
   6  -1  -7   27.60    1.89
   6   1   7   24.14    1.90
   6   1   8   24.37    1.71
  -6  -2  -7    0.74    0.74
   6  -2   7    1.46    0.66
   6   2  -7    0.81    0.70
   6  -2   6    5.38    1.09
   6   2  -6    4.90    1.36
   6  -2   5   32.27    2.42
   6   2  -5   32.56    2.91
   6  -2   4   17.83    1.82
   6  -2   4   16.81    1.92
   6   2  -4   19.24    2.33
   6  -2   3    2.06    1.00
   6  -2   3    4.99    1.25
   6   2  -3    3.70    1.19
   6  -2   2   93.77    3.99
   6  -2   2  106.84    4.29
   6  -2   2  107.87    4.17
   6   2  -2  103.65    4.69
   6  -2   1   11.19    1.56
   6  -2   1   11.46    1.66
   6  -2   1   11.66    1.53
   6   2  -1   14.15    1.84
   6  -2   0    5.37    1.15
   6   2   0    6.09    1.37
   6  -2   0    6.54    1.21
   6  -2   0    6.30    1.17
   6   2   0    4.32    1.31
   6   2   0    7.85    1.15
   6  -2  -1   15.19    1.77
   6   2   1   16.48    2.05
   6  -2  -1   15.93    1.74
   6   2   1   11.49    1.48
   6  -2  -1   11.95    1.48
   6   2   1   14.50    1.72
   6   2   1   11.01    1.47
   6  -2  -2   96.65    3.81
   6  -2  -2  103.98    4.08
   6   2   2  100.61    4.81
   6   2   2  103.19    4.05
   6  -2  -2   92.95    3.68
   6   2   2   97.61    3.82
   6  -2  -3    4.59    1.07
   6   2   3    3.42    1.36
   6  -2  -3    4.16    1.05
   6   2   3    3.54    1.05
   6  -2  -3    3.34    0.89
   6   2   3    2.79    0.84
   6  -2  -4   18.12    1.79
   6  -2  -4   19.62    1.91
   6   2   4   13.70    2.13
   6  -2  -5   36.17    2.52
   6   2   5   37.25    3.20
   6   2   6    4.65    1.22
   6  -2  -6    4.08    1.04
   6   2   7    2.22    0.95
   6  -2  -7    0.80    0.59
   6   3  -7    1.99    0.82
  -6  -3  -6    6.34    1.05
   6  -3   6    6.76    1.07
   6   3  -6    8.01    1.46
   6  -3   5   19.50    1.93
   6  -3   5   23.80    1.93
   6   3  -5   24.56    2.62
   6  -3   4    5.53    1.19
   6   3  -4    7.93    1.69
   6  -3   3    5.15    1.35
   6  -3   3    6.25    1.32
   6   3  -3    4.15    1.50
   6  -3   2    8.89    1.65
   6  -3   2    9.86    1.49
   6   3  -2    7.35    1.52
   6  -3   1   26.71    2.40
   6  -3   1   26.34    2.27
   6   3  -1   28.58    2.35
   6   3  -1   25.77    2.10
   6  -3   0    2.30    1.01
   6   3   0    1.95    0.84
   6  -3   0    0.41    0.89
   6  -3   0    2.87    0.94
   6   3   0    1.39    0.89
   6   3   0    1.33    0.84
   6  -3  -1   26.66    2.27
   6   3   1   24.41    2.33
   6  -3  -1   29.56    2.29
   6  -3  -1   23.44    1.82
   6   3   1   24.74    2.05
   6   3   1   24.10    2.09
   6  -3  -2    9.11    1.41
   6   3   2   10.05    1.83
   6  -3  -2    8.65    1.41
   6   3   2    9.43    1.34
   6   3   2    8.27    1.30
   6  -3  -3    4.10    1.09
   6   3   3    3.73    1.53
   6  -3  -3    5.39    1.11
   6   3   3    6.35    1.06
   6   3   3    5.03    1.14
   6  -3  -4    7.34    1.26
   6   3   4    6.11    1.67
   6  -3  -4    6.54    1.25
   6   3   4    5.54    1.20
   6  -3  -5   22.87    1.95
   6   3   5   18.16    2.45
   6  -3  -6    8.20    1.14
   6   3   6    6.10    1.51
   6   3   7    3.05    0.82
   6  -3  -7    1.00    0.64
   6   4  -6   29.42    2.33
  -6  -4  -6   24.57    1.72
  -6  -4  -5    5.33    1.00
   6  -4   5    4.20    0.97
   6   4  -5    5.14    1.38
   6  -4   4  126.31    4.17
   6   4  -4  126.19    5.13
   6  -4   3   10.36    1.39
   6   4  -3   10.74    1.61
   6  -4   2   51.70    3.32
   6  -4   2   54.23    2.95
   6   4  -2   51.89    3.20
   6  -4   1    5.23    1.38
   6  -4   1    6.44    1.25
   6   4  -1    4.46    1.11
   6  -4   0   14.91    1.82
   6  -4   0   17.45    1.92
   6   4   0   13.75    1.59
   6   4   0   15.48    1.71
  -6  -4   1    5.01    0.98
   6  -4  -1    7.15    1.28
   6   4   1    8.74    1.54
   6   4   1   10.49    1.25
   6   4   1    5.83    1.16
   6  -4  -2   45.42    2.86
   6  -4  -2   48.38    2.81
   6   4   2   52.63    3.30
   6   4   2   45.00    2.78
   6  -4  -3    9.53    1.40
   6  -4  -3    8.24    1.29
   6   4   3    8.87    1.74
   6   4   3   11.81    1.48
   6  -4  -4  126.69    4.55
   6  -4  -4  123.85    4.04
   6   4   4  119.54    4.06
   6   4   5    3.99    1.47
   6  -4  -5    4.42    1.02
   6  -4  -6   31.17    2.00
   6   4   6   27.20    2.31
   6  -5   5    5.15    1.08
   6   5  -5    6.09    1.07
   6  -5   4    4.35    0.83
   6   5  -4    4.75    1.05
   6  -5   3   -1.04    0.90
   6  -5   3   -0.04    0.67
   6   5  -3   -0.53    0.75
   6  -5   2   37.67    2.69
   6   5  -2   32.52    2.24
   6  -5   1   58.66    3.26
   6   5  -1   49.64    2.58
  -6  -5   0    8.37    1.25
   6  -5   0    9.55    1.45
   6   5   0    9.46    1.53
  -6  -5   1   50.17    2.64
   6  -5  -1   53.31    2.94
   6   5   1   51.67    2.97
  -6  -5   2   30.12    2.17
   6  -5  -2   34.79    2.29
   6   5   2   30.13    2.22
   6   5   2   33.43    2.32
  -6  -5   3   -1.00    0.71
   6  -5  -3   -1.76    0.75
   6   5   3    1.65    0.95
   6  -5  -3    0.51    0.71
   6   5   3    0.30    0.61
   6  -5  -4    3.55    0.83
   6   5   4    4.09    1.29
   6  -5  -4    5.47    0.94
   6   5   4    5.49    1.11
   6   5   5    3.88    1.08
   6  -5  -5    4.72    1.00
   6  -6   4    6.90    1.12
   6  -6   3   66.85    3.08
   6  -6   2   -0.41    0.65
   6  -6   1   50.46    2.74
  -6  -6   0   31.68    1.95
   6  -6   0   39.47    2.38
   6   6   0   35.97    2.41
  -6  -6   1   48.04    2.40
   6  -6  -1   55.51    2.67
   6   6   1   57.05    2.85
  -6  -6   2   -0.50    0.62
   6  -6  -2    0.51    0.54
   6   6   2    0.06    0.62
  -6  -6   3   53.90    2.48
   6  -6  -3   55.71    2.28
   6   6   3   55.93    2.51
  -6  -6   4    5.24    0.86
   6   7  -1   10.22    1.16
   6   7   0   16.33    1.35
   6   7   1   11.92    1.22
   7   0   0    0.04    0.55
   7   0   0    0.80    0.83
   7   0   0   -1.09    0.95
   7   0   1   44.16    2.62
   7   0   1   42.84    2.68
   7   0  -1   43.33    2.77
   7   0   2    2.68    0.92
   7   0   2    0.69    0.90
   7   0  -2    1.86    1.02
   7   0   3   40.11    2.76
   7   0  -3   35.77    2.56
   7   0   4   -0.27    0.94
   7   0  -4   -0.22    0.87
   7   0   5   64.83    3.23
   7   0  -5   59.61    2.80
   7   0   6   25.22    1.90
   7  -1   6    4.08    0.93
   7  -1   5   27.88    2.10
   7   1  -5   24.05    2.07
   7  -1   4    5.30    1.26
   7   1  -4    6.59    1.41
   7  -1   3   30.40    2.34
   7   1  -3   28.57    2.43
   7  -1   2   25.32    2.15
   7  -1   2   26.47    2.16
   7   1  -2   23.52    2.19
   7  -1   1    1.21    0.70
   7  -1   1    1.47    0.97
   7  -1   1    0.94    0.83
   7   1  -1    1.27    0.98
   7  -1   0    2.25    0.79
   7  -1   0    1.04    0.80
   7  -1   0    1.73    0.94
   7   1   0    2.25    0.98
   7  -1  -1    2.00    0.82
   7  -1  -1    1.94    0.88
   7   1   1    3.18    0.97
   7   1   1    0.48    0.82
   7  -1  -1    3.93    1.12
   7  -1  -2   25.64    2.04
   7   1   2   26.19    2.17
   7   1   2   23.74    2.03
   7  -1  -2   23.93    2.01
   7  -1  -3   26.88    1.97
   7   1   3   26.87    2.22
   7  -1  -3   27.49    2.06
   7   1   4    6.68    1.45
   7  -1  -4    6.71    1.08
   7   1   4    6.93    1.44
   7  -1  -4    6.26    1.10
   7  -1  -5   24.63    1.74
   7   1   5   21.12    1.98
   7   1   6    4.65    1.10
   7  -2   5    1.25    0.78
   7   2  -5   -0.05    0.81
   7  -2   4    5.79    1.13
   7   2  -4    6.91    1.47
   7  -2   3    8.02    1.32
   7   2  -3    6.94    1.47
   7  -2   2    7.91    1.25
   7  -2   2    8.09    1.40
   7   2  -2    6.97    1.40
   7  -2   1    3.00    1.10
   7  -2   1    3.20    1.02
   7  -2   1    3.00    1.14
   7   2  -1    2.90    1.10
   7  -2   0  164.70    4.95
   7  -2   0  174.00    5.03
   7  -2   0  166.55    4.81
   7   2   0  170.18    5.20
   7  -2  -1    4.11    1.07
   7  -2  -1    2.60    0.88
   7   2   1    2.50    1.04
   7  -2  -2    9.29    1.31
   7   2   2   10.14    1.36
   7  -2  -2    7.85    1.23
   7   2   3    7.81    1.68
   7  -2  -3    8.92    1.28
   7   2   3    4.28    1.20
   7   2   4    6.28    1.54
   7  -2  -4    5.63    1.07
   7   2   4    2.60    1.05
   7   2   5    0.58    0.99
   7  -2  -5    1.58    0.60
   7   2   5   -0.67    0.78
   7  -3   5    1.03    0.69
   7   3  -5    0.37    0.75
   7  -3   4    6.87    1.10
   7   3  -4    7.52    1.47
   7  -3   3   20.62    1.90
   7  -3   3   25.99    1.98
   7   3  -3   25.61    2.20
   7  -3   2    8.37    1.44
   7  -3   2    9.45    1.31
   7   3  -2    8.05    1.34
   7  -3   1    0.52    0.69
   7  -3   1    0.62    0.67
   7   3  -1    1.07    0.78
   7  -3   0    1.92    0.92
   7   3   0    1.90    0.78
   7  -3  -1   -0.08    0.60
   7   3   1    1.22    0.69
   7   3   1    0.66    0.75
   7  -3  -2   10.04    1.31
   7   3   2    7.92    1.09
   7   3   2    8.18    1.17
   7  -3  -3   23.67    1.82
   7   3   3   19.18    2.10
   7  -3  -4    8.75    1.12
   7   3   4    5.92    1.42
   7   3   5   -0.16    0.78
   7  -3  -5    2.20    0.64
   7  -4   4    1.15    0.59
   7   4  -4    0.22    0.76
   7  -4   3   -0.40    0.61
   7  -4   3    0.53    0.64
   7   4  -3   -0.63    0.75
   7  -4   2   13.37    1.70
   7   4  -2   14.08    1.45
   7  -4   1    5.29    1.16
   7   4  -1    2.72    0.84
   7   4   0   33.75    2.07
   7   4   0   35.52    2.22
   7  -4  -1    2.28    0.89
   7   4   1    2.88    0.87
   7  -4  -2   15.18    1.40
   7   4   2   13.67    1.47
   7  -4  -3    0.67    0.64
   7   4   3   -1.44    0.97
   7   4   4    0.94    0.61
   7  -5   2    6.32    1.07
   7  -5   1    7.32    1.11
   7  -5   0    1.28    0.73
   7   5   0   -0.10    0.56
   7  -5  -1    4.18    0.90
   7   5   1    4.88    0.83
   7  -5  -2    5.61    0.89
   7   5   2    5.41    0.88
   8   0   0    8.58    1.27
   8   0  -1    8.20    1.14
   8   0  -2   12.85    1.40
   8  -1   2    2.47    0.76
   8   1  -2    2.94    1.01
   8  -1   1    9.00    1.14
   8   1  -1    8.94    1.22
   8  -1   0   17.22    1.53
   8   1   0   18.93    1.65
   8   1   1    6.92    1.05
   8  -1  -1    6.67    1.10
   8  -1  -2    2.66    0.86
   8   2  -2    8.70    1.14
   8   2  -1    0.95    0.63
   8   2   0    1.13    0.69
   8   2   1    1.90    0.65
   0   0   0    0.00    0.00


TITL 1a in P2(1)2(1)2(1)
REM P2(1)2(1)2(1) (#19 in standard setting)
CELL 1.54184   7.060442   8.779955  10.071175  90.0000  90.0000  90.0000
ZERR    4.00   0.000182   0.000192   0.000217   0.0000   0.0000   0.0000
LATT -1
SYMM -x+1/2,-y, z+1/2
SYMM -x, y+1/2,-z+1/2
SYMM  x+1/2,-y+1/2,-z
SFAC C H N Cl
UNIT 16.00 8.00 20.00 4.00
TREF
HKLF 4
END
_computing_structure_solution     'SHELXT 2018/2 (Sheldrick, 2018)'
;
_shelx_hkl_checksum              75545
_olex2_submission_special_instructions 'No special instructions were received'
_oxdiff_exptl_absorpt_empirical_details
;
Empirical correction (ABSPACK) includes:
- Absorption correction using spherical harmonics
- Frame scaling
;
_oxdiff_exptl_absorpt_empirical_full_max 1.634
_oxdiff_exptl_absorpt_empirical_full_min 0.805
loop_
_space_group_symop_operation_xyz
'x, y, z'
'-x+1/2, -y, z+1/2'
'-x, y+1/2, -z+1/2'
'x+1/2, -y+1/2, -z'
loop_
_atom_site_label
_atom_site_type_symbol
_atom_site_fract_x
_atom_site_fract_y
_atom_site_fract_z
_atom_site_U_iso_or_equiv
_atom_site_adp_type
_atom_site_occupancy
_atom_site_site_symmetry_order
_atom_site_calc_flag
_atom_site_refinement_flags_posn
_atom_site_refinement_flags_adp
_atom_site_refinement_flags_occupancy
_atom_site_disorder_assembly
_atom_site_disorder_group
Cl1 Cl 0.29038(15) 0.33417(10) 0.32067(11) 0.0694(4) Uani 1 1 d . . . . .
N4 N 0.3563(4) 0.7482(3) 0.4120(3) 0.0445(7) Uani 1 1 d . . . . .
N5 N 0.3668(4) 0.5951(3) 0.4184(3) 0.0483(7) Uani 1 1 d . . . . .
N3 N 0.4287(5) 0.8389(4) 0.5063(3) 0.0631(8) Uani 1 1 d . . . . .
N2 N 0.3906(6) 0.9774(4) 0.4658(4) 0.0714(10) Uani 1 1 d . . . . .
N1 N 0.2975(6) 0.9806(3) 0.3493(3) 0.0620(9) Uani 1 1 d . . . . .
C9 C 0.2766(5) 0.8344(4) 0.3153(3) 0.0445(7) Uani 1 1 d . . . . .
C7 C 0.2011(6) 0.6048(4) 0.2086(3) 0.0525(8) Uani 1 1 d . . . . .
H7 H 0.148917 0.548741 0.139328 0.063 Uiso 1 1 calc R U . . .
C6 C 0.2869(5) 0.5303(4) 0.3175(3) 0.0462(8) Uani 1 1 d . . . . .
C8 C 0.1959(6) 0.7579(4) 0.2065(3) 0.0531(8) Uani 1 1 d . . . . .
H8 H 0.141406 0.810760 0.136232 0.064 Uiso 1 1 calc R U . . .
loop_
_atom_site_aniso_label
_atom_site_aniso_U_11
_atom_site_aniso_U_22
_atom_site_aniso_U_33
_atom_site_aniso_U_23
_atom_site_aniso_U_13
_atom_site_aniso_U_12
Cl1 0.0785(6) 0.0383(5) 0.0913(7) -0.0032(5) 0.0213(5) -0.0018(5)
N4 0.0550(16) 0.0411(14) 0.0373(14) -0.0018(12) -0.0005(13) -0.0038(13)
N5 0.0573(16) 0.0424(15) 0.0452(15) 0.0059(12) 0.0013(15) 0.0006(14)
N3 0.079(2) 0.0607(19) 0.0493(16) -0.0101(18) -0.0091(16) -0.011(2)
N2 0.090(3) 0.053(2) 0.070(2) -0.0191(17) 0.005(2) -0.0122(19)
N1 0.078(2) 0.0424(15) 0.0661(19) -0.0039(14) 0.0071(19) -0.0016(16)
C9 0.0542(18) 0.0387(16) 0.0406(15) 0.0044(14) 0.0051(15) 0.0020(17)
C7 0.061(2) 0.058(2) 0.0385(17) -0.0087(14) -0.0004(18) -0.0058(18)
C6 0.0516(19) 0.0389(16) 0.0480(17) -0.0029(14) 0.0115(18) -0.0010(16)
C8 0.061(2) 0.059(2) 0.0399(17) 0.0070(15) -0.0027(18) 0.0032(18)
loop_
_atom_type_symbol
_atom_type_description
_atom_type_scat_dispersion_real
_atom_type_scat_dispersion_imag
_atom_type_scat_source
C C 0.0181 0.0091 'International Tables Vol C Tables 4.2.6.8 and 6.1.1.4'
H H 0.0000 0.0000 'International Tables Vol C Tables 4.2.6.8 and 6.1.1.4'
Cl Cl 0.3639 0.7018 'International Tables Vol C Tables 4.2.6.8 and 6.1.1.4'
N N 0.0311 0.0180 'International Tables Vol C Tables 4.2.6.8 and 6.1.1.4'
loop_
_geom_angle_atom_site_label_1
_geom_angle_atom_site_label_2
_geom_angle_atom_site_label_3
_geom_angle
_geom_angle_site_symmetry_1
_geom_angle_site_symmetry_3
_geom_angle_publ_flag
N5 N4 C9 127.9(3) . . ?
N3 N4 N5 122.5(3) . . ?
N3 N4 C9 109.6(3) . . ?
C6 N5 N4 112.1(3) . . ?
N2 N3 N4 104.6(3) . . ?
N3 N2 N1 113.0(3) . . ?
C9 N1 N2 104.9(3) . . ?
N4 C9 C8 117.4(3) . . ?
N1 C9 N4 107.8(3) . . ?
N1 C9 C8 134.7(3) . . ?
C6 C7 H7 120.4 . . ?
C8 C7 H7 120.4 . . ?
C8 C7 C6 119.1(3) . . ?
N5 C6 Cl1 114.8(3) . . ?
N5 C6 C7 126.3(3) . . ?
C7 C6 Cl1 118.9(3) . . ?
C9 C8 H8 121.5 . . ?
C7 C8 C9 117.0(3) . . ?
C7 C8 H8 121.5 . . ?
loop_
_geom_bond_atom_site_label_1
_geom_bond_atom_site_label_2
_geom_bond_distance
_geom_bond_site_symmetry_2
_geom_bond_publ_flag
Cl1 C6 1.722(3) . ?
N4 N5 1.348(4) . ?
N4 N3 1.340(4) . ?
N4 C9 1.356(4) . ?
N5 C6 1.294(5) . ?
N3 N2 1.311(5) . ?
N2 N1 1.345(5) . ?
N1 C9 1.336(4) . ?
C9 C8 1.406(5) . ?
C7 H7 0.9300 . ?
C7 C6 1.413(5) . ?
C7 C8 1.345(5) . ?
C8 H8 0.9300 . ?
loop_
_geom_torsion_atom_site_label_1
_geom_torsion_atom_site_label_2
_geom_torsion_atom_site_label_3
_geom_torsion_atom_site_label_4
_geom_torsion
_geom_torsion_site_symmetry_1
_geom_torsion_site_symmetry_2
_geom_torsion_site_symmetry_3
_geom_torsion_site_symmetry_4
_geom_torsion_publ_flag
N4 N5 C6 Cl1 -178.7(2) . . . . ?
N4 N5 C6 C7 1.6(5) . . . . ?
N4 N3 N2 N1 -0.3(5) . . . . ?
N4 C9 C8 C7 1.3(6) . . . . ?
N5 N4 N3 N2 -179.8(3) . . . . ?
N5 N4 C9 N1 179.8(3) . . . . ?
N5 N4 C9 C8 -0.8(6) . . . . ?
N3 N4 N5 C6 179.7(3) . . . . ?
N3 N4 C9 N1 -0.5(4) . . . . ?
N3 N4 C9 C8 178.9(3) . . . . ?
N3 N2 N1 C9 0.0(5) . . . . ?
N2 N1 C9 N4 0.3(4) . . . . ?
N2 N1 C9 C8 -179.0(4) . . . . ?
N1 C9 C8 C7 -179.5(4) . . . . ?
C9 N4 N5 C6 -0.6(5) . . . . ?
C9 N4 N3 N2 0.5(4) . . . . ?
C6 C7 C8 C9 -0.4(6) . . . . ?
C8 C7 C6 Cl1 179.1(3) . . . . ?
C8 C7 C6 N5 -1.2(6) . . . . ?
