#------------------------------------------------------------------------------
#$Date: 2022-03-06 06:37:54 +0200 (Sun, 06 Mar 2022) $
#$Revision: 273468 $
#$URL: file:///home/coder/svn-repositories/cod/cif/1/56/59/1565965.cif $
#------------------------------------------------------------------------------
#
# This file is available in the Crystallography Open Database (COD),
# http://www.crystallography.net/
#
# All data on this site have been placed in the public domain by the
# contributors.
#
data_1565965
loop_
_publ_author_name
'Wildner, Manfred'
'Zakharov, Boris A.'
'Bogdanov, Nikita E.'
'Talla, Dominik'
'Boldyreva, Elena V.'
'Miletich, Ronald'
_publ_section_title
;
 Crystallography relevant to Mars and Galilean icy moons: crystal behavior
 of kieserite-type monohydrate sulfates at extraterrestrial conditions
 down to 15 K
;
_journal_issue                   2
_journal_name_full               IUCrJ
_journal_page_first              194
_journal_page_last               203
_journal_paper_doi               10.1107/S2052252521012720
_journal_volume                  9
_journal_year                    2022
_chemical_formula_sum            'H2 Ni O5 S'
_chemical_formula_weight         172.79
_space_group_crystal_system      monoclinic
_space_group_IT_number           15
_space_group_name_Hall           '-C 2yc'
_space_group_name_H-M_alt        'C 1 2/c 1'
_atom_sites_solution_hydrogens   difmap
_audit_creation_method           SHELXL-2017/1
_cell_angle_alpha                90
_cell_angle_beta                 117.676(10)
_cell_angle_gamma                90
_cell_formula_units_Z            4
_cell_length_a                   6.8176(10)
_cell_length_b                   7.6098(10)
_cell_length_c                   7.4513(10)
_cell_measurement_temperature    233(2)
_cell_volume                     342.35(9)
_computing_structure_refinement  'SHELXL-2017/1 (Sheldrick, 2017)'
_diffrn_ambient_temperature      233(2)
_diffrn_measured_fraction_theta_full 1.000
_diffrn_measured_fraction_theta_max 1.000
_diffrn_radiation_type           MoK\a
_diffrn_radiation_wavelength     0.71073
_diffrn_reflns_av_R_equivalents  0.0235
_diffrn_reflns_av_unetI/netI     0.0109
_diffrn_reflns_Laue_measured_fraction_full 1.000
_diffrn_reflns_Laue_measured_fraction_max 1.000
_diffrn_reflns_limit_h_max       12
_diffrn_reflns_limit_h_min       -12
_diffrn_reflns_limit_k_max       13
_diffrn_reflns_limit_k_min       -13
_diffrn_reflns_limit_l_max       13
_diffrn_reflns_limit_l_min       -13
_diffrn_reflns_number            10733
_diffrn_reflns_point_group_measured_fraction_full 1.000
_diffrn_reflns_point_group_measured_fraction_max 1.000
_diffrn_reflns_theta_full        25.242
_diffrn_reflns_theta_max         39.970
_diffrn_reflns_theta_min         4.292
_exptl_absorpt_coefficient_mu    6.152
_exptl_absorpt_correction_T_max  0.7482
_exptl_absorpt_correction_T_min  0.6699
_exptl_absorpt_correction_type   multi-scan
_exptl_absorpt_process_details
;
 SADABS 2016/2: Krause, L., Herbst-Irmer, R., Sheldrick G.M. & Stalke D.,
 J. Appl. Cryst. 48 (2015) 3-10
;
_exptl_crystal_density_diffrn    3.352
_exptl_crystal_F_000             344
_refine_diff_density_max         0.853
_refine_diff_density_min         -0.683
_refine_diff_density_rms         0.124
_refine_ls_extinction_coef       0.0222(14)
_refine_ls_extinction_expression Fc^*^=kFc[1+0.001xFc^2^\l^3^/sin(2\q)]^-1/4^
_refine_ls_extinction_method     'SHELXL-2017/1 (Sheldrick 2017)'
_refine_ls_goodness_of_fit_ref   1.128
_refine_ls_hydrogen_treatment    refall
_refine_ls_matrix_type           full
_refine_ls_number_parameters     40
_refine_ls_number_reflns         1064
_refine_ls_number_restraints     0
_refine_ls_restrained_S_all      1.128
_refine_ls_R_factor_all          0.0172
_refine_ls_R_factor_gt           0.0163
_refine_ls_shift/su_max          0.000
_refine_ls_shift/su_mean         0.000
_refine_ls_structure_factor_coef Fsqd
_refine_ls_weighting_details
'w=1/[\s^2^(Fo^2^)+(0.0230P)^2^+0.4000P] where P=(Fo^2^+2Fc^2^)/3'
_refine_ls_weighting_scheme      calc
_refine_ls_wR_factor_gt          0.0433
_refine_ls_wR_factor_ref         0.0437
_reflns_Friedel_coverage         0.000
_reflns_number_gt                1033
_reflns_number_total             1064
_reflns_threshold_expression     'I > 2\s(I)'
_cod_data_source_file            lt5044.cif
_cod_data_source_block           NiSO4H2O_N2_233K
_cod_depositor_comments
'Adding full bibliography for 1565934--1565967.cif.'
_cod_original_sg_symbol_H-M      'C 2/c'
_cod_database_code               1565965
_shelx_shelxl_version_number     2017/1
_shelx_space_group_comment
;
The symmetry employed for this shelxl refinement is uniquely defined
by the following loop, which should always be used as a source of
symmetry information in preference to the above space-group names.
They are only intended as comments.
;
_shelx_res_file
;
TITL 1991nikies 233K Apex in C2/c kieserite cell
    latt_corr_for_Nonius20C_nikies233K_0m.res
    created by SHELXL-2017/1 at 09:38:06 on 01-Dec-2018
REM meas. mon  6.8058(1) 7.5981(1) 7.4372(1) 90.0 117.6853(4) 90.0
REM meas.trcl 6.8059(1) 7.5981(1) 7.4372(1) 89.9998(5) 117.6850(4) 90.0204(5)
REM CELL 0.71073   6.8058 7.5981 7.4372 90.0 117.6853 90.0
REM latt corr for Nonius20C +.0118 +.0117 +.0141   -.0088
CELL 0.71073   6.8176 7.6098 7.4513   90.0  117.676    90.0
ZERR    4.00   0.001   0.001   0.001   0.00   0.01   0.00
LATT  7
SYMM -X, Y, .5-Z
SFAC O H S NI
UNIT 20 8 4 4
SHEL 20 0.55285
REM DAMP 10000
L.S. 10
CONN 12 1.8 $O
EQIV $9 -x+1/2, y+1/2, -z+1/2
BOND $H
FMAP 2
PLAN 20
ACTA
HTAB O3 O2_$9
HTAB
WGHT    0.023000    0.400000
EXTI    0.022228
FVAR       0.72100
NI    4    0.000000    0.500000    0.000000    10.50000    0.00440    0.00540 =
         0.00470    0.00020    0.00190   -0.00017
S     3    0.000000    0.157048    0.250000    10.50000    0.00342    0.00469 =
         0.00518    0.00000    0.00173    0.00000
O1    1    0.172771    0.047019    0.403899    11.00000    0.00575    0.01139 =
         0.01090    0.00550    0.00316    0.00282
O2    1    0.103917    0.270359    0.154994    11.00000    0.00769    0.00771 =
         0.01069    0.00324    0.00581    0.00093
O3    1    0.000000    0.630987    0.250000    10.50000    0.00645    0.00785 =
         0.00687    0.00000    0.00314    0.00000
H     2    0.108900    0.695436    0.295505    11.00000    0.01774
HKLF 4




REM  1991nikies 233K Apex in C2/c kieserite cell
REM R1 =  0.0163 for    1033 Fo > 4sig(Fo)  and  0.0172 for all    1064 data
REM     40 parameters refined using      0 restraints

END

WGHT      0.0235      0.4036

REM Instructions for potential hydrogen bonds
EQIV $5 x+1/2, y+1/2, z
HTAB O3 S_$5
HTAB O3 O2_$9

REM Highest difference peak  0.853,  deepest hole -0.683,  1-sigma level  0.124
Q1    1   0.0604  0.5720  0.0060  11.00000  0.05    0.85
Q2    1  -0.0663  0.5609 -0.0015  11.00000  0.05    0.84
Q3    1   0.3186  0.1768  0.4971  11.00000  0.05    0.70
Q4    1   0.2500  0.2500  0.5000  10.50000  0.05    0.65
Q5    1   0.2184  0.7177  0.5000  11.00000  0.05    0.65
Q6    1  -0.1181  0.6236 -0.0020  11.00000  0.05    0.60
Q7    1   0.1054  0.1065  0.3536  11.00000  0.05    0.51
Q8    1   0.0740  0.2415  0.2342  11.00000  0.05    0.48
Q9    1   0.1651  0.3205  0.2460  11.00000  0.05    0.44
Q10   1   0.0762  0.4937  0.0956  11.00000  0.05    0.42
Q11   1   0.1967 -0.0276  0.2646  11.00000  0.05    0.39
Q12   1   0.2437  0.3970  0.2469  11.00000  0.05    0.38
Q13   1   0.1652  0.0128  0.3522  11.00000  0.05    0.28
Q14   1   0.0217  0.5758  0.2152  11.00000  0.05    0.28
Q15   1   0.0000  0.4759  0.2500  10.50000  0.05    0.28
Q16   1   0.0376  0.3882  0.0916  11.00000  0.05    0.24
Q17   1   0.1686  0.5131  0.0808  11.00000  0.05    0.23
Q18   1   0.2423  0.1177  0.3928  11.00000  0.05    0.21
Q19   1   0.1335 -0.0018  0.4294  11.00000  0.05    0.19
Q20   1   0.1800  0.4293  0.1200  11.00000  0.05    0.18
;
_shelx_res_checksum              1513
_shelx_hkl_file
;
  -2   0   0 8557.40 226.597  16
   2   0   0 8988.91 222.326   4
   2   0   0 8827.55 221.074   9
   2   0   0 8944.43 219.013  14
  -2   0   0 8359.95 219.289   5
  -2   0   0 8709.43 221.787   8
  -2   0   0 8967.84 227.764  10
  -2   0   0 8579.23 220.230  12
  -2   0   0 8668.95 219.666  13
   4   0   0 3241.49 81.0939  14
  -4   0   0 3170.06 80.4837   5
  -4   0   0 3219.06 80.6242   8
  -4   0   0 3151.14 80.2714  12
  -4   0   0 3062.09 79.8412  13
  -4   0   0 3219.33 82.1775  16
   4   0   0 3144.79 80.6910   4
   4   0   0 3270.09 80.9828   9
   4   0   0 3176.05 80.3647  15
  -6   0   0 3919.35 99.7519   8
   6   0   0 3930.19 100.366   9
  -6   0   0 3731.45 99.2450  12
  -6   0   0 3922.13 102.396  16
   6   0   0 3952.67 100.133   4
  -6   0   0 3940.87 99.7080   5
   6   0   0 3874.54 99.2886  15
   8   0   0 1643.36 46.0419   7
   8   0   0 1707.85 47.8694   4
   8   0   0 1658.43 46.6178  15
  -8   0   0 1689.85 46.9983  12
  -8   0   0 1677.39 51.0249  16
  -8   0   0 1734.57 47.4695   8
  -8   0   0 1678.26 47.2854   5
   8   0   0 1725.08 48.3497   9
 -10   0   0 1434.89 43.2665   5
  10   0   0 1418.18 43.4888   4
  10   0   0 1476.34 44.2578   9
  -1  -1   0 2552.90 68.3877  13
   1  -1   0 2786.64 68.3773  14
  -1  -1   0 2535.88 68.4977  10
  -1   1   0 2599.10 70.2881  16
   1   1   0 2662.25 72.8099  10
   3  -1   0 4894.62 132.026  14
  -3  -1   0 5003.53 133.040  10
  -3  -1   0 5182.03 131.173  13
  -3  -1   0 5099.93 134.816  16
   3  -1   0 5220.78 131.392   9
  -3  -1   0 5079.81 132.246  12
   3  -1   0 4913.05 127.214   4
  -3  -1   0 5090.85 128.838   5
  -3  -1   0 5237.70 133.154   8
   3  -1   0 5152.21 131.633  15
   3   1   0 5199.45 126.725   6
   3   1   0 5308.36 133.097   4
   3   1   0 5019.66 127.972  14
  -3   1   0 5027.12 135.022  16
  -3   1   0 5077.07 129.129   5
  -3   1   0 5132.31 128.366   8
  -3   1   0 5063.40 133.254  10
   3   1   0 5156.13 132.369   9
   5  -1   0 560.538 17.1685   4
  -5  -1   0 544.685 16.6065   5
  -5  -1   0 559.531 15.4121   1
  -5  -1   0 571.775 17.0278   8
  -5  -1   0 546.480 16.4180  12
  -5  -1   0 547.707 16.3018  13
  -5  -1   0 570.407 18.5648  16
   5  -1   0 546.107 16.1128  15
   5  -1   0 572.370 15.9321  14
   5  -1   0 560.977 17.0552   9
   5   1   0 545.012 16.6637   4
  -5   1   0 551.070 16.7492   5
   5   1   0 565.419 14.8793  14
  -5   1   0 550.298 16.5408   8
  -5   1   0 567.761 18.6882  16
   5   1   0 558.342 17.3431   9
   5   1   0 556.735 16.8139  15
  -7  -1   0 417.011 14.5974  12
  -7  -1   0 447.194 15.2870   8
   7  -1   0 434.458 15.4738   4
   7  -1   0 423.002 14.0695  15
   7  -1   0 420.198 15.1726   9
   7  -1   0 414.696 14.4347   7
  -7  -1   0 419.057 14.7412   5
  -7  -1   0 429.782 17.2879  16
   7   1   0 434.798 15.0942   4
  -7   1   0 421.801 14.7951   5
  -7   1   0 424.347 17.2876  16
   7   1   0 421.531 14.7185  15
   7   1   0 430.509 15.5503   9
  -7   1   0 429.456 14.6574   8
  -7   1   0 434.050 14.7358  12
   7   1   0 413.118 14.6033   7
   9  -1   0 583.696 21.2639   4
  -9  -1   0 588.095 23.8940  16
  -9  -1   0 568.310 20.3395   5
  -9  -1   0 579.607 20.7351   8
   9  -1   0 607.508 21.4240   9
  -9  -1   0 535.201 19.7477  12
  -9   1   0 562.425 23.8214  16
  -9   1   0 578.673 20.8642   5
   9   1   0 597.482 20.7969   4
   9   1   0 611.808 20.5371  15
  -9   1   0 558.618 20.0644   8
  -9   1   0 569.533 20.0743  12
   9   1   0 579.659 21.5956   9
 -11  -1   0 75.8184 7.93105   8
 -11  -1   0 86.5759 7.71520   5
 -11   1   0 83.1236 7.22751   5
  11   1   0 74.7038 8.41549   9
   0  -2   0 2068.03 53.1609   3
   0  -2   0 2072.64 53.5391  13
   0  -2   0 2071.85 53.5026  14
   0   2   0 2088.37 56.8773  10
   0   2   0 2077.57 51.9981   2
  -2  -2   0 711.621 18.9326  12
  -2  -2   0 690.028 18.5460   3
  -2  -2   0 684.540 20.2815  10
  -2  -2   0 733.778 19.5059  13
   2  -2   0 731.336 19.0791  14
   2  -2   0 735.997 19.2077   4
   2  -2   0 727.363 18.6502   3
   2  -2   0 718.688 18.9144   9
  -2  -2   0 714.100 19.1368   8
   2   2   0 693.646 18.6510   6
  -2   2   0 734.440 18.6383   8
  -2   2   0 742.899 20.0909  16
   2   2   0 699.090 19.2250   2
  -2   2   0 750.768 19.0780   5
  -2   2   0 720.878 18.9842  12
   2   2   0 684.704 18.4957   4
   2   2   0 690.189 20.3469  10
  -4  -2   0 2210.37 57.1182  16
  -4  -2   0 2225.65 55.8869   8
   4  -2   0 2099.98 55.8359   4
   4  -2   0 2162.00 55.5550   9
   4  -2   0 2111.98 55.1172  14
  -4  -2   0 2218.72 55.3521  12
   4  -2   0 2172.74 54.5358  15
  -4  -2   0 2113.79 53.6908   3
  -4  -2   0 2210.28 55.8121  13
   4   2   0 2137.91 53.5953  14
   4   2   0 2106.69 56.0197   9
  -4   2   0 2090.53 55.2707  12
  -4   2   0 2177.86 57.4256  16
   4   2   0 2126.85 55.0757   4
  -4   2   0 2108.57 55.0155   8
  -4   2   0 2141.35 55.4829   5
   4   2   0 2178.47 54.9767   6
  -6  -2   0 1841.93 51.5408  16
  -6  -2   0 1837.03 48.7827  12
  -6  -2   0 1869.29 49.5638   8
  -6  -2   0 1806.40 48.8164  13
   6  -2   0 1772.61 49.5714   4
   6  -2   0 1808.37 49.3322   9
   6  -2   0 1850.19 48.2510  14
  -6  -2   0 1879.23 49.0351   5
  -6   2   0 1783.82 48.5987   8
  -6   2   0 1860.49 52.1236  16
  -6   2   0 1806.20 48.8698  12
   6   2   0 1851.36 50.1860   9
   6   2   0 1818.80 48.8082   4
   6   2   0 1869.59 49.6434  15
  -6   2   0 1833.17 49.2640   5
   8  -2   0 106.431 6.74747   7
  -8  -2   0 102.935 6.52095  12
   8  -2   0 107.016 7.50205   4
  -8  -2   0 101.090 7.32916   8
  -8  -2   0 107.332 8.59243  16
   8  -2   0 103.622 7.08583   9
  -8  -2   0 97.0751 6.70540   5
  -8   2   0 103.198 6.72793   5
   8   2   0 106.814 6.60708   4
   8   2   0 91.9369 7.30246   9
  -8   2   0 92.5746 6.32675   8
  -8   2   0 98.8703 6.44075  12
   8   2   0 103.751 6.98252  15
  -8   2   0 100.255 8.20772  16
 -10  -2   0 71.5105 7.01596   5
  10  -2   0 74.3319 6.81727   4
  10  -2   0 59.9307 6.06342   9
 -10  -2   0 55.7611 6.85715   8
 -10   2   0 58.2562 6.23548   5
  10   2   0 65.6452 7.86124   9
   1  -3   0 3455.40 86.5617  13
  -1  -3   0 3305.77 89.5660  10
  -1  -3   0 3363.67 88.0787  13
  -1  -3   0 3362.76 82.5826  12
  -1  -3   0 3225.47 84.3044   3
   1  -3   0 3388.15 83.8541   4
   1  -3   0 3377.80 84.6401   3
   1  -3   0 3361.90 82.6989  12
  -1  -3   0 3218.97 83.3331  14
   1  -3   0 3291.09 86.3170  14
   1   3   0 3270.23 82.8747   2
   1   3   0 3341.57 90.7215  10
   1   3   0 3152.48 82.2341   6
  -1   3   0 3270.40 82.6651  12
  -1   3   0 3286.77 83.9401   5
  -1   3   0 3268.57 84.2893   2
  -1   3   0 3230.10 88.4640  16
   3  -3   0 6154.87 165.083  15
  -3  -3   0 6320.97 165.797   8
   3  -3   0 6724.19 171.278   9
   3  -3   0 6846.75 170.703  14
  -3  -3   0 6220.90 166.515   3
  -3  -3   0 6526.48 163.827  13
  -3  -3   0 6235.22 168.839  12
   3  -3   0 6929.88 168.762   3
   3  -3   0 6971.84 169.598   4
  -3   3   0 6321.15 163.025  12
  -3   3   0 6948.23 169.302  11
  -3   3   0 6673.82 166.284   8
  -3   3   0 6600.18 176.913  16
  -3   3   0 6729.06 169.774   5
   3   3   0 6397.51 166.930   4
   3   3   0 6690.71 183.006  10
   3   3   0 6334.80 169.288   2
   3   3   0 6395.64 167.254   6
   5  -3   0 2663.26 69.7315   4
  -5  -3   0 2714.70 69.6316   8
   5  -3   0 2707.54 68.9137  14
  -5  -3   0 2667.17 68.9137   5
  -5  -3   0 2702.21 68.9830  12
  -5  -3   0 2732.34 69.7415  13
  -5  -3   0 2675.88 70.9587  16
   5  -3   0 2539.74 67.6056  15
   5  -3   0 2725.18 69.1985   9
  -5   3   0 2595.62 68.5963  11
   5   3   0 2649.65 68.3577   4
  -5   3   0 2651.25 71.6915  16
  -5   3   0 2661.37 69.0304  12
   5   3   0 2675.64 68.3803   6
  -5   3   0 2658.78 68.3935   8
   5   3   0 2770.51 70.3522   9
  -5   3   0 2640.72 69.1803   5
   7  -3   0 1478.60 41.8202   7
   7  -3   0 1462.30 40.5418  14
  -7  -3   0 1509.53 44.3234  16
  -7  -3   0 1500.22 42.1243   8
   7  -3   0 1465.87 41.5342   9
   7  -3   0 1482.73 42.5497   4
  -7  -3   0 1432.00 41.1930  13
  -7  -3   0 1464.07 41.1872  12
  -7  -3   0 1509.61 41.3403   5
  -7   3   0 1505.45 41.8264   5
   7   3   0 1436.65 40.6653   4
   7   3   0 1553.91 42.5732  15
  -7   3   0 1469.42 45.0561  16
  -7   3   0 1421.27 40.4776   8
   7   3   0 1534.97 43.0738   9
   9  -3   0 1031.46 32.4216   9
  -9  -3   0 1041.31 32.1589  12
  -9  -3   0 1020.51 35.4533  16
  -9  -3   0 1033.03 32.0139   5
   9  -3   0 1027.30 33.3945   4
   9  -3   0 1035.24 32.4038   7
  -9  -3   0 1028.36 32.9347   8
   9   3   0 1083.87 34.3156   9
  -9   3   0 1050.06 32.7993   5
  -9   3   0 1001.75 36.5240  16
   9   3   0 1081.06 33.2935  15
 -11  -3   0 341.192 16.4639   5
   0  -4   0 3295.56 80.8118   7
   0  -4   0 3160.90 80.2668   3
   0  -4   0 3184.23 80.0586  12
   0  -4   0 3061.70 81.5403  14
   0  -4   0 3213.81 83.4620  13
   0   4   0 3229.50 80.3639   2
   0   4   0 3163.09 85.6183  10
   0   4   0 3159.21 79.8045   6
   0   4   0 3174.25 80.1054  12
   2  -4   0 599.210 16.4130   9
  -2  -4   0 601.549 16.7054  12
   2  -4   0 580.946 16.6355   3
   2  -4   0 586.579 16.6006   4
  -2  -4   0 577.374 16.6189   8
  -2  -4   0 610.466 17.5662  13
  -2  -4   0 590.896 17.9132  10
   2  -4   0 579.316 16.6678  12
   2  -4   0 579.309 16.0332  13
   2  -4   0 602.792 16.8885  14
  -2  -4   0 598.359 16.5685   3
   2   4   0 586.236 17.0717   2
  -2   4   0 604.526 16.7432   2
   2   4   0 582.855 16.1754   6
   2   4   0 614.230 18.1696  10
  -2   4   0 589.741 16.5500   5
  -2   4   0 594.561 17.9481  16
  -2   4   0 577.406 16.7255  12
  -2   4   0 577.827 15.9709  11
   4  -4   0 44.1133 2.67105   3
  -4  -4   0 38.1437 2.41503   3
  -4  -4   0 44.1400 3.13362  12
  -4  -4   0 40.6096 3.42167  13
   4  -4   0 43.6274 3.40966   4
   4  -4   0 45.2767 3.35241  14
   4  -4   0 47.0676 2.91077   9
  -4  -4   0 38.0993 3.06537   8
  -4   4   0 40.6925 3.06791  12
   4   4   0 46.6021 3.65711   9
  -4   4   0 42.0183 3.42288   5
  -4   4   0 39.1345 2.50751   8
   4   4   0 38.8397 3.42363   2
   4   4   0 41.9961 4.41200  10
  -4   4   0 47.3640 4.58603  16
   4   4   0 41.4070 2.66999   6
   4   4   0 41.9249 2.37616   4
   6  -4   0 139.010 7.57868   4
   6  -4   0 131.212 6.56011   9
  -6  -4   0 136.371 6.68949   5
   6  -4   0 128.988 6.64798  14
  -6  -4   0 138.007 7.19312   8
  -6  -4   0 145.746 8.47500  16
   6  -4   0 130.701 7.13561   7
  -6  -4   0 135.105 6.68965  12
  -6  -4   0 135.316 7.12539  13
  -6   4   0 131.141 6.09078   8
  -6   4   0 132.622 6.85376   5
  -6   4   0 132.823 6.78219  12
   6   4   0 143.168 6.43144   6
  -6   4   0 137.768 8.60206  16
   6   4   0 147.117 7.95575   9
  -8  -4   0 119.861 7.59022  13
   8  -4   0 128.037 7.57349   9
   8  -4   0 121.315 8.00389   7
  -8  -4   0 120.095 9.04927  16
   8  -4   0 124.509 8.46414   4
  -8  -4   0 133.109 8.08576   8
  -8  -4   0 110.658 7.12909  12
  -8  -4   0 117.252 7.32603   5
  -8   4   0 128.526 7.61724  12
   8   4   0 129.237 8.45884   9
   8   4   0 127.143 8.20309  15
  -8   4   0 116.204 9.40355  16
  -8   4   0 126.753 7.80974   5
  10  -4   0 133.553 8.99170   7
 -10  -4   0 126.912 9.93696   8
 -10  -4   0 141.539 9.03726   5
 -10   4   0 136.327 9.13413   5
  10   4   0 149.090 10.2285  15
  10   4   0 136.408 10.6529   9
   1  -5   0 2131.92 54.3049   7
   1  -5   0 2146.91 54.6697  13
  -1  -5   0 2122.60 55.4698  13
  -1  -5   0 2122.03 53.7708  14
  -1  -5   0 2115.41 55.0144  10
   1  -5   0 2147.50 54.5924  14
  -1  -5   0 2144.43 54.9201   3
   1  -5   0 2129.01 54.9760   3
  -1  -5   0 2090.20 53.2721   7
  -1  -5   0 2079.33 54.6271  12
   1  -5   0 2096.61 54.7185  12
  -1   5   0 2144.41 54.2310   5
   1   5   0 2091.50 54.1709   6
  -1   5   0 2184.04 55.2888  10
  -1   5   0 2096.26 55.7896  16
  -1   5   0 2140.33 54.8910   2
   1   5   0 2123.87 55.1436   2
   1   5   0 2137.01 55.5446  10
  -1   5   0 2096.42 54.8105  12
  -3  -5   0 872.384 24.3886   3
   3  -5   0 881.841 24.6513   3
   3  -5   0 885.622 24.3781   9
   3  -5   0 878.744 24.9666  14
   3  -5   0 844.188 23.3622  13
  -3  -5   0 896.651 24.8947   8
  -3  -5   0 933.458 26.1647  13
  -3  -5   0 893.191 24.8097  12
   3  -5   0 891.970 25.0181   7
   3  -5   0 881.550 24.8525   4
  -3   5   0 877.439 24.8935  12
  -3   5   0 874.104 26.5444  16
   3   5   0 906.470 25.6204   2
   3   5   0 901.095 26.9266  10
   3   5   0 899.840 24.1939   6
  -3   5   0 906.027 24.8198   2
  -3   5   0 871.982 24.6570   5
  -5  -5   0 352.288 13.7312  13
   5  -5   0 379.595 13.4300   7
  -5  -5   0 333.913 12.3618  12
  -5  -5   0 366.009 13.2712   8
   5  -5   0 361.362 12.3308   9
   5  -5   0 415.350 13.1795   3
   5  -5   0 381.043 13.0829  14
  -5  -5   0 368.544 14.2482  16
   5  -5   0 372.577 13.3745   4
  -5   5   0 364.728 11.5321   8
   5   5   0 359.035 12.0156   6
  -5   5   0 366.174 12.9257  12
   5   5   0 353.910 13.5829   9
  -5   5   0 383.620 15.1087  16
   5   5   0 360.205 13.6522   2
  -5   5   0 390.499 13.0932   5
  -7  -5   0 315.593 12.5128  12
  -7  -5   0 308.520 14.4033  16
   7  -5   0 313.111 12.4514  14
   7  -5   0 312.361 13.3390   4
  -7  -5   0 330.544 13.5742   8
  -7  -5   0 318.228 13.3929  13
  -7  -5   0 313.505 12.2170   5
   7  -5   0 319.101 12.2978   9
   7  -5   0 325.643 13.4324   7
  -7   5   0 302.599 12.5259  12
   7   5   0 327.767 14.0087   9
   7   5   0 329.118 14.0273  15
   7   5   0 309.848 11.7908   6
  -7   5   0 298.770 15.3541  16
  -7   5   0 330.345 12.9440   5
   9  -5   0 359.167 15.9652   7
  -9  -5   0 373.578 16.1056   8
  -9  -5   0 363.465 14.9240   5
   9   5   0 387.673 16.6781  15
  -9   5   0 351.890 15.6401   5
   9   5   0 394.487 17.6624   9
   0  -6   0 2525.24 63.6868  14
   0  -6   0 2522.53 64.7823  13
   0  -6   0 2547.99 63.2465   7
   0  -6   0 2445.72 64.5405   3
   0  -6   0 2402.62 64.1599  12
   0   6   0 2565.10 64.8431  10
   0   6   0 2368.78 64.1303  12
   0   6   0 2533.48 64.7031   2
   0   6   0 2498.97 63.8198   6
   2  -6   0 3532.27 87.9989   7
   2  -6   0 3545.17 88.2325  14
  -2  -6   0 3461.14 88.1053   3
   2  -6   0 3432.72 87.4134  13
  -2  -6   0 3394.29 87.6885   8
   2  -6   0 3502.27 88.3693   3
  -2  -6   0 3500.44 88.1504  12
   2  -6   0 3385.97 89.5369  12
  -2  -6   0 3491.88 89.3421  13
  -2   6   0 3461.14 89.0686  10
   2   6   0 3515.31 88.9262   2
   2   6   0 3454.92 87.3698   6
  -2   6   0 3384.36 88.0788   2
  -2   6   0 3332.16 87.4495   5
  -2   6   0 3472.82 89.7980  16
  -2   6   0 3347.12 88.1841  12
   2   6   0 3476.86 89.4906  10
   4  -6   0 3412.17 86.6087   7
   4  -6   0 3388.16 85.5419   9
  -4  -6   0 3410.37 87.7543  13
  -4  -6   0 3420.36 86.2792  12
   4  -6   0 3400.71 86.4763  14
   4  -6   0 3283.17 85.5815   3
  -4  -6   0 3339.60 86.2656   8
  -4  -6   0 3298.27 85.2149   3
  -4   6   0 3226.01 86.1154  12
   4   6   0 3357.45 85.1118   6
  -4   6   0 3239.46 85.7552   5
  -4   6   0 3280.76 88.5305  16
   4   6   0 3411.81 87.2863   2
  -4   6   0 3306.36 85.8840   2
   4   6   0 3316.58 89.0508  10
   6  -6   0 2157.52 58.0786   7
   6  -6   0 2163.23 58.1104   4
   6  -6   0 2198.92 57.5800  14
  -6  -6   0 2018.71 58.3360  13
   6  -6   0 2083.40 56.3251   9
  -6  -6   0 2032.36 59.1648  16
  -6  -6   0 2059.42 57.8111   8
  -6   6   0 2181.66 61.1235  16
  -6   6   0 2100.18 56.5220   2
  -6   6   0 2199.99 57.4968   5
  -6   6   0 2028.17 57.1313  12
   6   6   0 2104.94 58.8366   9
   6   6   0 2107.15 55.9626   6
  -8  -6   0 1031.49 32.8613   8
  -8  -6   0 1023.47 34.6016  16
   8  -6   0 1008.88 31.5922  14
   8  -6   0 1049.28 33.2061   7
  -8  -6   0 1041.41 31.9607  12
   8   6   0 1074.03 34.0762  15
   8   6   0 1055.49 34.4347   9
  -8   6   0 1041.82 36.5303  16
  -8   6   0 1003.44 32.1002   5
 -10  -6   0 461.858 19.4320   8
  10  -6   0 476.889 19.4502   7
 -10  -6   0 454.847 17.6698   5
  10   6   0 491.013 20.6658  15
  10   6   0 469.792 21.0004   9
   1  -7   0 444.232 13.5539   7
   1  -7   0 419.867 14.0886  12
  -1  -7   0 445.944 14.5070   3
   1  -7   0 425.154 14.1348  13
  -1  -7   0 427.391 14.1880  12
   1  -7   0 428.023 13.8678  14
   1  -7   0 436.155 14.5895   3
  -1  -7   0 435.161 14.9245  13
   1   7   0 453.305 13.7578   6
   1   7   0 442.209 14.7772  10
  -1   7   0 450.110 14.6317   2
  -1   7   0 446.408 13.5527   5
   1   7   0 457.825 14.8728   2
  -1   7   0 442.559 13.9238   6
  -1   7   0 428.071 14.5067  10
  -3  -7   0 488.557 16.9253  13
   3  -7   0 474.911 15.5534   3
  -3  -7   0 449.850 15.2775  12
  -3  -7   0 480.884 15.3072   8
   3  -7   0 473.219 15.5772   7
   3  -7   0 474.583 15.7224  14
  -3  -7   0 472.376 15.3277   3
   3   7   0 485.192 16.3066   2
   3   7   0 469.490 14.6475   6
   3   7   0 463.019 16.7106  10
  -3   7   0 454.504 15.2383   2
  -3   7   0 452.813 14.9377   5
  -3   7   0 470.632 17.3113  16
  -3   7   0 461.183 15.5353  12
   5  -7   0 794.751 24.7306  14
  -5  -7   0 765.906 23.0205   3
   5  -7   0 793.527 25.0369   7
  -5  -7   0 771.997 24.2643  12
  -5  -7   0 790.736 25.9136  16
  -5  -7   0 809.959 26.1172  13
  -5  -7   0 823.897 24.8236   8
   5   7   0 800.628 23.3352   6
   5   7   0 818.372 25.8101   9
  -5   7   0 786.148 27.3317  16
   5   7   0 798.407 25.7574   2
  -5   7   0 756.546 23.8178   2
  -5   7   0 787.504 24.3151   5
  -7  -7   0 240.453 12.3909  13
  -7  -7   0 232.084 10.3896   5
   7  -7   0 231.406 11.0896  14
  -7  -7   0 228.149 10.8716  12
  -7  -7   0 233.616 12.5522  16
  -7  -7   0 247.202 12.0406   8
   7  -7   0 243.742 11.9820   7
  -7   7   0 246.676 13.5910  16
  -7   7   0 249.243 11.1448   5
   7   7   0 242.204 12.7225   9
   7   7   0 236.402 10.1464   6
  -9  -7   0 31.5056 5.76276   8
   9  -7   0 51.4931 6.81375   7
  -9  -7   0 33.8257 4.85578   5
   9   7   0 33.5901 6.33426  15
   9   7   0 37.5741 6.36125   9
  -9   7   0 29.1747 5.27751   5
   0  -8   0 1193.72 34.2566  12
   0  -8   0 1231.03 34.7733   3
   0  -8   0 1208.01 33.4878  14
   0  -8   0 1231.01 34.9147  13
   0   8   0 1211.70 34.6777   2
   0   8   0 1260.19 33.8523   6
  -2  -8   0 1592.71 45.2834  13
   2  -8   0 1646.24 44.4318   3
  -2  -8   0 1585.45 43.1615   8
   2  -8   0 1585.91 43.8198  14
   2  -8   0 1581.79 43.3022   7
  -2  -8   0 1596.94 43.9181  12
  -2  -8   0 1644.65 44.3342   3
   2   8   0 1599.24 42.9778   6
   2   8   0 1651.79 44.9766   2
  -2   8   0 1558.94 44.0895   2
  -2   8   0 1593.42 43.1076   5
   4  -8   0 774.443 24.5988  14
   4  -8   0 799.879 24.7698   7
   4  -8   0 789.720 24.2817   3
  -4  -8   0 782.124 26.1298  13
  -4  -8   0 802.621 23.9950   3
  -4  -8   0 812.066 24.6172  12
  -4  -8   0 799.834 24.3743   8
  -4   8   0 792.094 24.1705   2
   4   8   0 776.519 25.5553   2
  -4   8   0 761.778 26.6754  16
  -4   8   0 767.866 23.8084   5
   4   8   0 809.032 23.3797   6
  -6  -8   0 347.641 15.0806  13
   6  -8   0 319.913 13.8367  14
  -6  -8   0 327.096 14.7742  16
  -6  -8   0 335.515 14.0019   8
   6  -8   0 321.354 13.9525   7
  -6  -8   0 311.561 13.3252  12
  -6   8   0 315.414 13.4093   5
   6   8   0 343.415 15.0757   9
   6   8   0 343.584 12.5902   6
  -8  -8   0 669.105 24.5143   8
   8  -8   0 691.387 24.7979   7
   8   8   0 680.329 25.7841  15
  -8   8   0 697.465 24.2970   5
   8   8   0 725.248 26.5065   9
  -1  -9   0 2751.14 74.8976  13
   1  -9   0 2776.35 73.9268  13
   1  -9   0 2789.15 74.3888   3
  -1  -9   0 2898.90 74.7603   3
   1  -9   0 2753.62 72.5022   7
   1  -9   0 2754.47 73.2459  14
  -1   9   0 2848.39 73.4323   6
   1   9   0 2850.98 74.7810   2
   1   9   0 2793.21 72.9562   6
  -1   9   0 2754.99 74.1652   2
   3  -9   0 984.962 28.9824   7
   3  -9   0 971.686 29.5102   3
  -3  -9   0 987.627 29.3321   3
  -3  -9   0 982.368 30.9774  13
   3  -9   0 941.876 29.1832  14
  -3  -9   0 959.101 28.5929   8
   3   9   0 980.332 28.0731   6
  -3   9   0 929.431 28.1178   5
  -3   9   0 960.253 29.2138   2
   3   9   0 965.441 30.2649   2
  -5  -9   0 1096.45 34.9440  13
   5  -9   0 1084.48 33.1774  14
  -5  -9   0 1090.89 32.7796   8
   5  -9   0 1060.20 32.5295   3
   5  -9   0 1060.16 32.9335   7
  -5   9   0 1064.50 32.1531   2
  -5   9   0 1024.10 35.1465  16
   5   9   0 1077.34 34.1731   2
   5   9   0 1098.90 33.8886   9
  -5   9   0 1053.56 31.9219   5
   5   9   0 1098.82 31.2623   6
   7  -9   0 845.605 29.3408   7
  -7  -9   0 904.295 29.2327   8
   7   9   0 898.759 30.7295  15
  -7   9   0 853.333 28.2311   5
   7   9   0 871.052 30.5121   9
   0 -10   0 9.49964 2.78161   3
   0 -10   0 6.80769 2.21958  13
   0  10   0 3.21119 2.60081   2
   0  10   0 11.7290 2.80098   6
   2 -10   0 179.051 9.55763   3
  -2 -10   0 166.822 9.27890   3
   2 -10   0 158.425 8.53590  14
  -2 -10   0 164.853 9.81302  13
   2 -10   0 164.731 8.21296   7
  -2  10   0 170.091 9.11801   2
  -2  10   0 165.576 8.77248   6
   2  10   0 183.737 8.32861   6
   2  10   0 183.082 9.58021   2
  -4 -10   0 159.590 8.96685   3
  -4 -10   0 168.206 8.78664   8
  -4 -10   0 154.899 10.3419  13
   4 -10   0 163.448 8.92523   7
   4 -10   0 175.119 9.46100  14
   4 -10   0 168.817 9.07021   3
   4  10   0 169.425 10.2604   2
   4  10   0 148.105 9.20562   9
  -4  10   0 161.167 8.97618   2
   4  10   0 159.768 7.85097   6
  -4  10   0 155.635 8.41768   5
  -6 -10   0 25.2183 4.63130   8
   6 -10   0 22.0527 4.79862   7
   6  10   0 27.9168 5.19538   9
  -6  10   0 13.9924 4.55477  16
  -6  10   0 21.5663 4.16462   5
   1 -11   0 300.697 13.7859   3
  -1 -11   0 311.699 13.9699   3
  -1 -11   0 304.800 13.9479  13
   1  11   0 331.083 14.2671   2
  -1  11   0 313.128 13.5838   2
  -1  11   0 317.728 13.0758   6
   1  11   0 304.092 12.4198   6
  -3 -11   0 247.175 13.0030  13
   3 -11   0 246.876 11.5030   7
  -3 -11   0 260.656 12.5251   3
   3 -11   0 247.994 12.0841   3
  -3  11   0 245.714 11.7455   6
  -3  11   0 268.794 12.1647   2
   3  11   0 263.379 12.7646   2
   3  11   0 253.367 10.6053   6
   5 -11   0 680.955 23.8824   7
   5  11   0 686.572 24.6304   9
   5  11   0 687.269 25.1073   2
  -5  11   0 636.528 22.7363   5
  -7 -11   0 291.235 14.3163   8
   7  11   0 337.550 16.4980  15
   0 -12   0 428.689 17.9436   3
   0  12   0 423.092 17.3843   2
   0  12   0 424.645 16.0399   6
   2 -12   0 766.605 26.0583   3
  -2 -12   0 741.185 26.7228  13
  -2 -12   0 760.587 25.8965   3
   2  12   0 724.595 26.0521   2
   2  12   0 740.262 23.8428   6
  -2  12   0 725.407 25.0225   2
  -2  12   0 730.912 24.3687   6
   4 -12   0 595.666 21.6935   3
   4 -12   0 591.226 21.2805   7
  -4 -12   0 583.631 21.3339   3
  -4  12   0 556.012 21.0477   6
   4  12   0 579.292 21.6838   9
   4  12   0 590.697 22.9897   2
   6  12   0 253.861 13.1422   9
   1 -13   0 177.189 11.0484   3
  -1 -13   0 171.975 11.2959   3
   1  13   0 192.021 11.2900   2
  -1  13   0 173.138 10.4574   2
  -1  13   0 190.242 9.84854   6
   3 -13   0 1.95500 3.05488   3
  -3 -13   0 15.4080 4.81898   3
   3  13   0 1.53010 3.33348   2
  -3  13   0 6.18187 2.89436   6
   0 -14   0 347.082 16.3185   3
   0  14   0 312.045 14.9864   2
 -10   0   1 1.11755 3.10420   8
  10   0  -1 2.26362 2.65608   4
  10   0  -1 0.17487 2.01999   9
 -10   0   1 3.53765 3.11358   5
 -10   0   1 -0.0417 3.45981  16
  -8   0   1 0.56746 1.58755  12
  -8   0   1 0.65894 1.94530  16
   8   0  -1 1.62255 1.47288  15
   8   0  -1 0.79379 2.03038   9
   8   0  -1 2.17790 2.12882   4
  -8   0   1 -0.3277 2.27153   8
  -8   0   1 0.95148 2.11121   5
   6   0  -1 0.12186 1.16111   9
   6   0  -1 1.14699 1.35407   4
  -6   0   1 2.70698 1.63162  16
   6   0  -1 0.65479 0.94364  15
   6   0  -1 0.17934 0.73811  14
  -6   0   1 1.58435 0.94357  13
  -6   0   1 3.00278 1.72673   8
  -6   0   1 4.14267 1.67106   5
  -4   0   1 2.03095 0.91060   5
   4   0  -1 4.55116 1.21920   4
   4   0  -1 0.49105 0.71028   9
  -4   0   1 2.27212 0.99051  16
   4   0  -1 0.38843 0.56687  14
  -4   0   1 0.37928 0.59192  13
  -4   0   1 0.27302 0.45384   1
  -4   0   1 0.78997 0.63499  12
  -4   0   1 2.08849 1.07190   8
   2   0  -1 11.3363 1.62227  10
   2   0  -1 12.8864 1.28076   4
   2   0  -1 15.4911 1.08798  14
  -2   0   1 15.7506 1.00785   5
  -2   0   1 17.7297 1.34210  16
   2   0   1 1.00031 0.33714  14
   2   0   1 1.03755 0.47143   7
   2   0   1 0.39037 0.56545   9
   2   0   1 1.31138 0.58405   4
   2   0   1 5.21858 0.87314  15
  -2   0  -1 1.22663 0.44070  13
   2   0   1 1.18210 0.58484   6
  -2   0  -1 1.15446 0.63082   8
  -4   0  -1 0.08837 0.97984   5
   4   0   1 0.32685 0.70803   7
  -4   0  -1 1.71894 1.22276   8
  -4   0  -1 -0.4622 0.48140  13
   4   0   1 2.77120 1.11783   4
   4   0   1 1.18989 0.89534  15
  -4   0  -1 -0.1615 0.43294  12
  -4   0  -1 0.27856 1.26753  16
   4   0   1 0.79610 0.77147   9
   6   0   1 2.06391 1.54061   4
  -6   0  -1 -0.9409 0.99904   5
  -6   0  -1 1.35746 1.35324  12
  -6   0  -1 1.24610 2.01718  16
  -6   0  -1 11.7765 2.47853   8
   6   0   1 -0.7871 0.95709   7
   6   0   1 -0.0062 1.10884   9
   6   0   1 0.69651 1.26066  15
  -8   0  -1 4.82429 3.45770  16
   8   0   1 1.18860 1.94900  15
   8   0   1 -1.1719 2.38085   9
  -8   0  -1 2.15152 1.98661  12
   8   0   1 -0.9153 1.97939   4
  -8   0  -1 3.27329 2.63493   8
  -8   0  -1 1.52628 2.52902   5
 -10   0  -1 2.93293 3.22048   8
 -10   0  -1 1.49212 3.34832   5
  10   0   1 -0.7280 3.21858   9
 -11  -1   1 42.6969 5.47503   8
  11  -1  -1 47.6042 6.66870   4
 -11  -1   1 47.7233 5.46413   5
  11  -1  -1 40.3353 5.76483   9
 -11   1   1 45.0893 5.57963   5
  11   1  -1 40.4754 5.37487   4
 -11   1   1 52.3849 6.25988   8
  11   1  -1 59.2685 7.49268   9
  -9  -1   1 183.582 11.8769  16
  -9  -1   1 195.699 10.3695   8
  -9  -1   1 207.833 10.1151   5
   9  -1  -1 196.627 9.46499   7
   9  -1  -1 207.139 10.3400   9
  -9  -1   1 195.980 10.9914  12
   9  -1  -1 194.854 10.5311   4
   9   1  -1 194.130 10.5649   9
  -9   1   1 185.452 12.1566  16
   9   1  -1 193.945 10.1079   4
   9   1  -1 183.097 9.34629  15
  -9   1   1 184.735 9.98584   5
  -9   1   1 195.337 9.97520   8
  -7  -1   1 335.128 12.0519   5
   7  -1  -1 324.726 10.9475  14
   7  -1  -1 333.342 12.3057   9
  -7  -1   1 329.971 11.9667  12
  -7  -1   1 329.785 12.4903   8
  -7  -1   1 322.158 11.5122  13
  -7  -1   1 327.189 13.7806  16
   7  -1  -1 313.918 11.0027  15
   7  -1  -1 339.857 12.8350   4
  -7   1   1 332.009 12.2614   5
   7   1  -1 342.689 12.3741   4
   7   1  -1 336.934 12.6205   9
  -7   1   1 323.297 11.9895   8
   7   1  -1 325.919 11.9032  15
  -7   1   1 327.047 14.1665  16
  -7   1   1 322.616 11.8704  12
  -5  -1   1 1.88990 1.28663   8
  -5  -1   1 3.40720 1.13574  12
  -5  -1   1 0.93907 0.76690   5
  -5  -1   1 6.72048 1.46488  13
   5  -1  -1 1.16732 0.70709   9
  -5  -1   1 1.76107 0.70376   1
   5  -1  -1 0.45876 0.59679  15
   5  -1  -1 0.91388 1.15976   4
   5  -1  -1 0.69172 0.84391  14
  -5  -1   1 0.01308 0.94840  16
   5   1  -1 1.41647 0.74103  14
   5   1  -1 1.47978 0.88038   9
  -5   1   1 1.52776 1.21377   8
   5   1  -1 1.06517 0.82039   4
  -5   1   1 0.97226 1.18328   5
  -5   1   1 2.46101 1.67483  16
  -5   1   1 0.63161 0.86326  12
   3  -1  -1 232.215 7.79234  12
  -3  -1   1 241.269 9.28831  10
  -3  -1   1 246.314 7.45669   5
   3  -1  -1 282.431 7.85557  14
  -3  -1   1 255.179 8.31726  16
   3  -1  -1 246.895 7.50522   9
  -3  -1   1 261.580 8.01871  13
  -3  -1   1 258.575 7.88891   8
  -3  -1   1 255.636 7.42577   1
  -3  -1   1 254.587 7.66086  12
   3  -1  -1 238.854 7.89066   4
   3   1  -1 245.479 7.18170  14
  -3   1   1 251.886 7.67657  12
   3   1  -1 249.110 7.68596   2
  -3   1   1 256.472 7.26755   1
   3   1  -1 262.795 7.26886   6
  -3   1   1 245.089 7.68985   5
  -3   1   1 251.335 9.12421  10
   3   1  -1 247.200 7.81152   4
  -3   1   1 247.334 7.70580   8
  -3   1   1 251.783 8.65831  16
   3   1  -1 262.204 9.59410  10
  -1  -1   1 1540.63 42.7062  10
   1  -1  -1 1704.86 43.3313  10
  -1  -1   1 1501.37 42.0467  13
   1  -1  -1 1669.60 39.7603  14
  -1  -1   1 1483.08 40.3781  16
  -1   1   1 1635.89 42.9499  10
   1   1  -1 1560.51 43.3402  10
  -1   1   1 1568.84 40.1661  16
   1  -1   1 2153.44 52.9121   7
   1  -1   1 2223.00 53.0495   4
   1  -1   1 2117.56 53.1006   9
   1  -1   1 2071.24 53.8550  15
   1  -1   1 2243.54 53.9419  14
  -1  -1  -1 2071.48 54.4250  12
  -1  -1  -1 2101.22 54.7869  13
  -1   1  -1 2174.76 52.7959  13
   1   1   1 2008.00 52.9925  15
  -1   1  -1 2149.71 53.3014  12
  -1   1  -1 2245.74 52.8051  13
   1   1   1 2076.36 53.0143   9
   1   1   1 2009.81 52.7585   6
  -1   1  -1 2040.76 52.7243   5
  -1   1  -1 2010.50 55.0800  16
  -3  -1  -1 256.891 9.24459  16
   3  -1   1 260.938 8.37842   9
  -3  -1  -1 244.583 8.06357   8
   3  -1   1 245.081 7.86165   7
   3  -1   1 247.347 7.49173  14
  -3  -1  -1 253.214 7.90631  13
  -3  -1  -1 244.145 7.49226  12
   3  -1   1 239.996 7.75619  15
   3  -1   1 238.330 8.10251   4
  -3   1  -1 262.286 9.21731  16
   3   1   1 235.863 8.09466  15
  -3   1  -1 248.076 7.73243   8
   3   1   1 245.049 8.37174   9
   3   1   1 237.031 7.69921   4
   3   1   1 240.947 7.78593   6
  -3   1  -1 238.295 6.70653  13
  -3   1  -1 244.561 7.59409  12
   3   1   1 241.080 7.21754   7
  -3   1  -1 247.923 7.97112   5
  -5  -1  -1 27.8685 3.00445   5
  -5  -1  -1 23.2255 2.40254  12
  -5  -1  -1 24.2024 3.40735  16
   5  -1   1 25.6242 2.89759   4
   5  -1   1 25.3149 2.08401  14
  -5  -1  -1 29.9584 2.84342   8
   5  -1   1 26.5459 2.86526   7
   5  -1   1 27.4424 2.71886   9
   5  -1   1 21.2972 2.45540  15
  -5  -1  -1 23.0370 2.28473  13
   5   1   1 19.9803 2.75943   9
   5   1   1 22.9383 1.94718   7
  -5   1  -1 25.2323 2.98514   5
   5   1   1 26.8465 3.02226  15
  -5   1  -1 21.2207 2.58398   8
   5   1   1 25.9721 2.56168   4
  -5   1  -1 25.7909 3.83342  16
   7  -1   1 18.2233 3.40551   4
   7  -1   1 13.4005 2.68968   7
  -7  -1  -1 7.23159 2.10662   5
   7  -1   1 8.45098 2.71938   9
  -7  -1  -1 14.6323 3.39288  16
  -7  -1  -1 4.43641 1.92838  12
   7  -1   1 7.05036 2.04839  15
  -7  -1  -1 3.02007 2.45407   8
  -7   1  -1 7.49229 2.78518   5
  -7   1  -1 7.53541 2.54300   8
   7   1   1 6.96653 2.22648   4
   7   1   1 9.11143 2.57533   9
  -7   1  -1 6.01753 2.07283  12
   7   1   1 6.12439 2.35568  15
  -7   1  -1 8.75840 3.03988  16
  -9  -1  -1 116.540 8.21999   8
   9  -1   1 117.694 8.77602   9
  -9  -1  -1 111.652 7.66570   5
  -9  -1  -1 101.085 7.20562  12
  -9  -1  -1 109.721 9.54280  16
  -9   1  -1 105.640 7.63441   8
   9   1   1 107.384 7.70735  15
  -9   1  -1 112.675 7.52481  12
  -9   1  -1 122.888 8.56450   5
  -9   1  -1 105.407 10.0645  16
   9   1   1 114.387 8.36071   9
  10  -2  -1 103.342 7.71000   9
  10  -2  -1 88.4750 6.97191   7
 -10  -2   1 99.4902 7.54081   5
  10  -2  -1 95.7758 8.15956   4
 -10  -2   1 79.7311 8.76505  16
 -10  -2   1 98.6420 8.22853   8
 -10   2   1 92.4666 9.01072  16
 -10   2   1 89.9161 7.09395   5
 -10   2   1 86.0181 7.17874   8
  10   2  -1 95.5694 7.78494   9
  -8  -2   1 288.436 13.4595  16
   8  -2  -1 271.882 12.2707   4
  -8  -2   1 289.108 12.0430   8
  -8  -2   1 285.001 11.4895   5
  -8  -2   1 275.174 11.3935  12
   8  -2  -1 290.550 11.7743   9
   8   2  -1 272.548 11.5561   4
  -8   2   1 274.388 11.8767   5
   8   2  -1 294.532 12.7031   9
  -8   2   1 281.740 14.3636  16
  -8   2   1 263.074 11.2314  12
   8   2  -1 289.809 11.9370  15
  -8   2   1 282.434 11.5785   8
  -6  -2   1 847.331 24.2464   5
  -6  -2   1 870.060 24.8001  13
  -6  -2   1 851.568 26.3083  16
  -6  -2   1 860.376 25.0727   8
   6  -2  -1 835.163 25.2150   4
   6  -2  -1 876.547 24.5934   9
  -6  -2   1 861.534 24.5185  12
   6  -2  -1 856.786 24.1549  14
   6   2  -1 864.441 25.4967   9
  -6   2   1 851.850 25.2771  11
  -6   2   1 854.465 26.9764  16
  -6   2   1 845.539 24.4019   8
  -6   2   1 820.477 24.3371  12
   6   2  -1 845.495 24.6229   4
  -6   2   1 850.774 24.6798   5
  -4  -2   1 679.531 18.9887  13
   4  -2  -1 649.115 18.1657   9
   4  -2  -1 622.611 18.5703  12
  -4  -2   1 691.604 19.5714  16
  -4  -2   1 674.541 18.4463  12
   4  -2  -1 641.904 18.8404   4
  -4  -2   1 686.528 18.8173   8
   4  -2  -1 669.805 18.5334  14
  -4  -2   1 670.249 18.1789   5
   4  -2  -1 645.985 17.2669  15
   4  -2  -1 618.769 17.5337   3
   4   2  -1 682.990 17.8539   6
   4   2  -1 660.061 18.6882   2
  -4   2   1 673.209 20.2086  16
  -4   2   1 660.150 18.5611   5
  -4   2   1 654.309 18.4068  12
   4   2  -1 644.237 18.3767   4
   4   2  -1 637.260 17.1967  14
  -4   2   1 658.635 18.3433   8
   4   2  -1 661.079 21.2897  10
  -4   2   1 645.956 17.1914   1
   4   2  -1 660.220 19.0247   9
  -4   2   1 664.964 19.0191  11
  -2  -2   1 2943.65 77.3571   7
  -2  -2   1 2924.11 76.2006  12
  -2  -2   1 2832.61 77.4870  13
   2  -2  -1 3087.84 76.3048   3
   2  -2  -1 3216.03 75.2347  12
  -2  -2   1 2945.02 76.9905   3
  -2  -2   1 2856.28 76.4959  10
   2  -2  -1 3008.94 74.9641   4
   2  -2  -1 3088.19 76.9670  14
  -2  -2   1 2888.22 74.8590   8
  -2   2   1 3068.10 76.6759   1
  -2   2   1 3204.50 78.9236  11
   2   2  -1 3015.41 75.2043  12
  -2   2   1 3086.68 76.1166   8
   2   2  -1 2987.07 81.1360  10
   2   2  -1 2896.37 75.1123   2
  -2   2   1 2932.97 79.2214  16
   2   2  -1 2935.13 76.0505   4
  -2   2   1 3091.13 75.0601   5
   2   2  -1 2771.43 75.8083   6
  -2   2   1 3173.34 82.7944  10
   0  -2  -1 2826.38 73.7334   3
   0  -2   1 2832.19 74.4623  13
   0  -2   1 2939.45 71.9223   7
   0  -2  -1 2899.28 73.9981  14
   0  -2  -1 2839.99 71.5305  12
   0  -2  -1 2828.94 73.8329  10
   0  -2   1 2810.08 72.9997   3
   0  -2  -1 2957.78 75.6768  13
   0   2   1 2760.18 72.1657   6
   0   2  -1 2901.34 72.6702   2
   0   2  -1 2873.71 75.5776  16
   0   2  -1 2721.53 73.3881  12
   0   2   1 2942.48 76.5942  11
   0   2  -1 3035.81 76.5048  10
   0   2   1 2649.61 72.6706   2
   2  -2   1 376.109 10.8765   4
   2  -2   1 369.749 10.8635   9
   2  -2   1 365.436 10.2948  15
   2  -2   1 377.977 10.0031   3
   2  -2   1 365.469 10.7239   7
  -2  -2  -1 347.677 9.96849   3
   2  -2   1 389.786 10.6525  14
  -2  -2  -1 362.855 11.0124  13
  -2  -2  -1 350.216 11.8023  10
  -2  -2  -1 360.351 10.2500  12
  -2  -2  -1 360.385 10.8194   8
  -2   2  -1 386.031 10.0388   8
   2   2   1 349.696 9.88515   4
   2   2   1 346.262 10.3925   6
   2   2   1 355.675 10.9255   2
  -2   2  -1 381.296 11.6557  16
   2   2   1 357.479 10.8919   9
  -2   2  -1 376.103 10.5647   5
  -2   2  -1 371.969 10.3909  12
  -4  -2  -1 1209.35 32.3678   8
   4  -2   1 1153.05 32.0447   7
   4  -2   1 1184.74 31.5333  14
   4  -2   1 1175.46 32.4574   4
  -4  -2  -1 1189.82 33.9489  16
  -4  -2  -1 1207.14 31.6510  12
   4  -2   1 1175.14 31.4232  15
   4  -2   1 1201.00 32.4799   9
  -4  -2  -1 1214.83 32.2210  13
  -4   2  -1 1166.90 31.4007   8
   4   2   1 1149.76 32.6148   9
   4   2   1 1137.14 30.4186   7
   4   2   1 1217.83 31.7711   6
   4   2   1 1192.30 31.4744   4
  -4   2  -1 1174.73 32.0174   5
  -4   2  -1 1193.69 31.7349  12
   4   2   1 1219.91 32.6242  15
  -4   2  -1 1199.99 34.0080  16
  -6  -2  -1 647.419 19.8186  13
  -6  -2  -1 647.215 20.3316   5
   6  -2   1 650.943 20.3237   7
   6  -2   1 670.705 19.3746  14
   6  -2   1 662.509 21.1117   4
   6  -2   1 639.655 19.4675  15
  -6  -2  -1 652.797 20.0208  12
  -6  -2  -1 661.895 22.9432  16
  -6  -2  -1 683.915 20.9028   8
   6  -2   1 679.211 21.1761   9
  -6   2  -1 646.482 22.9441  16
  -6   2  -1 648.437 19.7713   8
   6   2   1 679.587 21.6696   9
   6   2   1 657.216 20.9192  15
  -6   2  -1 651.560 20.4102   5
  -6   2  -1 705.279 20.4188  12
   6   2   1 641.413 19.8874   4
   8  -2   1 146.751 8.98518   9
  -8  -2  -1 159.613 8.97381   5
  -8  -2  -1 156.350 8.39261  12
   8  -2   1 155.714 9.25159   4
   8  -2   1 153.015 8.37608   7
  -8  -2  -1 156.226 9.26511   8
  -8  -2  -1 164.066 10.9994  16
   8   2   1 151.806 9.30950   9
   8   2   1 162.342 9.18176  15
   8   2   1 158.601 8.28614   4
  -8   2  -1 150.372 8.66255   5
  -8   2  -1 137.317 10.2302  16
  -8   2  -1 153.476 8.10392   8
  -8   2  -1 161.350 8.48024  12
 -10  -2  -1 174.931 9.92648   5
  10  -2   1 189.280 11.2371   9
 -10  -2  -1 123.477 9.99976  12
 -10  -2  -1 177.399 10.2413   8
 -10   2  -1 182.780 11.2135   5
  10   2   1 176.059 11.6974   9
 -11  -3   1 0.60783 2.69195   5
 -11  -3   1 5.28549 4.04241   8
  11  -3  -1 2.01630 2.47030   4
  11   3  -1 4.21543 2.99326   9
 -11   3   1 -1.5008 3.00754   5
   9  -3  -1 113.320 8.51625   4
  -9  -3   1 115.068 7.50767   5
  -9  -3   1 123.057 8.67786   8
   9  -3  -1 120.085 7.21235   9
   9  -3  -1 118.829 7.57810   7
  -9  -3   1 111.551 9.06660  16
  -9   3   1 124.662 8.33254   5
   9   3  -1 122.476 8.30857  15
   9   3  -1 122.911 8.88761   9
  -9   3   1 127.264 10.4874  16
  -9   3   1 107.577 7.35396   8
  -7  -3   1 6.02473 2.60499   8
  -7  -3   1 11.0762 2.36181   5
   7  -3  -1 11.3778 2.29837   9
  -7  -3   1 8.68398 2.77874  16
  -7  -3   1 11.3067 2.58736  13
   7  -3  -1 8.00679 2.63123   4
  -7  -3   1 9.26952 2.28839  12
   7  -3  -1 12.0666 2.33782  14
   7   3  -1 13.0009 2.45365   4
  -7   3   1 11.9261 2.55632   5
  -7   3   1 9.95904 3.41958  16
  -7   3   1 9.31809 2.26054   8
  -7   3   1 14.6671 2.59656  12
   7   3  -1 12.6050 3.06515   9
  -5  -3   1 37.7085 2.79158   5
  -5  -3   1 36.7974 3.10187   8
   5  -3  -1 35.6591 2.64937   9
   5  -3  -1 35.7994 2.31887   3
  -5  -3   1 38.2113 3.23987  13
  -5  -3   1 39.3502 3.44346  16
   5  -3  -1 36.1313 3.35386   4
  -5  -3   1 38.3194 2.92611  12
   5   3  -1 33.8617 2.77868   4
   5   3  -1 36.1927 3.06175   2
  -5   3   1 38.7981 3.44667   5
  -5   3   1 39.1367 4.44993  16
  -5   3   1 38.7766 2.90132   8
  -5   3   1 36.2663 2.92542  12
   5   3  -1 38.5605 2.46991   6
  -5   3   1 37.3127 3.18796  11
   5   3  -1 49.1677 5.10737  10
   5   3  -1 36.8595 3.43489   9
  -3  -3   1 9.57988 1.74273  13
  -3  -3   1 11.9379 1.51241  12
   3  -3  -1 12.7269 1.52061   3
   3  -3  -1 12.7322 1.64267  12
  -3  -3   1 8.98656 1.37319   8
   3  -3  -1 10.8023 1.09180   9
   3  -3  -1 14.5938 1.79497  14
  -3   3   1 10.3068 1.79265  10
   3   3  -1 10.3628 1.12881   6
  -3   3   1 8.64555 1.33890   5
   3   3  -1 8.29204 1.48258   2
   3   3  -1 10.6406 1.32259   4
   3   3  -1 11.4835 2.14527  10
  -3   3   1 9.49288 1.29765   8
  -3   3   1 9.04818 1.73446  16
  -3   3   1 12.6772 1.62461  11
   3   3  -1 11.2799 1.58439  12
  -3   3   1 11.7761 1.50386  12
  -1  -3   1 138.033 4.31744   8
   1  -3  -1 139.778 4.87947  12
  -1  -3   1 137.121 4.79987   3
   1  -3  -1 130.217 4.90757   3
   1  -3  -1 140.230 5.09628  13
  -1  -3   1 135.125 4.34335   7
  -1  -3   1 141.114 5.58896  10
  -1  -3   1 165.740 5.31594  13
   1  -3  -1 134.943 4.28958   4
   1  -3  -1 129.660 4.65910  14
  -1   3   1 138.066 4.62171   2
  -1   3   1 131.802 4.99721  11
  -1   3   1 131.004 4.68248   5
   1   3  -1 144.379 5.82580  10
  -1   3   1 138.775 5.58943  16
   1   3  -1 138.681 4.32851   6
   1   3  -1 142.717 4.94451  12
   1   3  -1 137.902 5.11309   2
   1  -3   1 1537.35 40.2421   9
   1  -3   1 1591.17 40.1900  14
  -1  -3  -1 1558.04 39.1476  14
  -1  -3  -1 1572.80 39.9479  12
   1  -3   1 1577.74 39.4135  13
  -1  -3  -1 1549.67 40.4713  10
  -1  -3  -1 1594.08 40.9333  13
   1  -3   1 1551.53 40.1668   7
  -1  -3  -1 1555.66 40.0892   3
   1  -3   1 1565.66 40.0407   3
  -1   3  -1 1582.93 40.1183  12
   1   3   1 1542.15 39.9430   6
  -1   3  -1 1572.42 39.7672   5
  -1   3  -1 1570.04 40.7713  16
   1   3   1 1581.94 40.4356  10
  -1   3  -1 1561.93 40.3478   2
   1   3   1 1566.03 40.3646   2
   3  -3   1 196.672 5.81318   3
  -3  -3  -1 171.077 6.23448  12
  -3  -3  -1 167.090 6.62649   8
   3  -3   1 187.049 6.79997   7
   3  -3   1 178.893 6.80857   4
   3  -3   1 173.331 5.83453  15
  -3  -3  -1 165.027 5.59132   3
   3  -3   1 177.919 6.50996  14
  -3  -3  -1 166.455 6.92732  13
   3  -3   1 180.824 6.68430   9
  -3   3  -1 173.833 5.68332   8
  -3   3  -1 187.496 6.54590   5
   3   3   1 163.294 5.48800   4
   3   3   1 167.256 6.83725   2
   3   3   1 168.629 6.85705   9
  -3   3  -1 174.354 6.33536  12
   3   3   1 164.418 6.18958   6
  -3   3  -1 186.861 7.72776  16
   5  -3   1 302.377 11.1884   7
   5  -3   1 310.639 10.6534  14
  -5  -3  -1 304.977 12.7240  16
   5  -3   1 309.303 11.5502   4
   5  -3   1 293.251 9.87762  15
  -5  -3  -1 301.845 11.4090   8
  -5  -3  -1 307.687 11.2803  13
  -5  -3  -1 321.826 10.8679  12
   5  -3   1 306.031 11.2142   9
   5   3   1 299.979 10.0354   4
   5   3   1 306.510 11.7037   9
  -5   3  -1 314.323 13.1228  16
   5   3   1 318.128 10.5951   6
  -5   3  -1 299.460 10.1103   8
   5   3   1 301.053 11.5195  15
  -5   3  -1 319.728 11.2595   5
  -5   3  -1 313.486 10.8310  12
  -7  -3  -1 -0.2277 1.53743  12
   7  -3   1 6.09351 2.47256   7
  -7  -3  -1 0.97598 1.82611  13
  -7  -3  -1 -2.8763 2.16552  16
  -7  -3  -1 -0.6247 2.41951   8
   7  -3   1 8.09830 2.83493   4
  -7  -3  -1 -0.5485 1.89010   5
   7  -3   1 2.46926 2.14153   9
  -7   3  -1 3.28176 1.83276   8
   7   3   1 0.86171 1.73304   9
   7   3   1 0.61591 2.26662  15
  -7   3  -1 1.20558 1.84338   5
  -7   3  -1 0.00885 1.17637  12
  -7   3  -1 0.31734 1.99219  16
  -9  -3  -1 14.8617 3.62105   8
   9  -3   1 13.8050 3.90988   9
  -9  -3  -1 18.1553 3.57929  12
   9  -3   1 15.2490 3.64009   7
  -9  -3  -1 12.2429 3.09257   5
  -9  -3  -1 19.9197 4.46577  16
   9   3   1 20.8293 4.11002  15
  -9   3  -1 13.3404 3.28457  12
   9   3   1 19.7110 4.78878   9
  -9   3  -1 10.2612 4.06441   5
  -9   3  -1 12.9180 4.22108  16
 -10  -4   1 147.354 9.46284   8
 -10  -4   1 132.744 8.46517   5
  10  -4  -1 142.729 9.40494   7
  10  -4  -1 150.688 9.82691   4
  10   4  -1 128.246 9.45906   9
 -10   4   1 130.326 8.77747   5
  10   4  -1 150.031 9.99648  15
  -8  -4   1 51.7166 5.42783  16
   8  -4  -1 44.7178 4.57716  14
  -8  -4   1 45.7377 4.52160  13
  -8  -4   1 46.9567 4.63177  12
  -8  -4   1 44.5797 5.46815   8
   8  -4  -1 56.1846 6.21632   4
   8  -4  -1 45.2829 4.34843   9
   8  -4  -1 48.6795 5.44618   7
  -8  -4   1 43.7583 4.41850   5
   8   4  -1 50.4882 5.83324  15
   8   4  -1 61.9985 5.77340   9
  -8   4   1 45.0258 6.75254  16
  -8   4   1 45.6739 5.36934   5
  -8   4   1 44.8975 4.57995   8
  -6  -4   1 56.8991 4.50120  13
  -6  -4   1 64.5785 4.58527   8
   6  -4  -1 57.3925 4.29489  14
   6  -4  -1 54.3643 3.70670   9
  -6  -4   1 55.0823 3.87819  12
  -6  -4   1 53.7200 3.76115   5
  -6  -4   1 56.0346 4.67769  16
   6  -4  -1 53.3829 4.67768   4
  -6   4   1 63.4276 4.50574   5
  -6   4   1 57.8187 6.03026  16
  -6   4   1 54.2526 3.81187   8
   6   4  -1 59.8599 3.72626   6
   6   4  -1 54.8072 3.72234   4
   6   4  -1 51.4291 4.85707   9
  -6   4   1 55.0766 4.10417  12
  -4  -4   1 1488.27 40.1373  16
   4  -4  -1 1529.82 39.5320  14
  -4  -4   1 1404.83 38.2855   3
  -4  -4   1 1491.78 40.1700  13
   4  -4  -1 1484.73 39.4866   4
   4  -4  -1 1447.09 39.2899  12
   4  -4  -1 1479.81 38.6745   3
  -4  -4   1 1424.26 38.9449  12
  -4  -4   1 1413.22 39.2105   8
   4  -4  -1 1465.99 38.3269   9
   4   4  -1 1387.77 38.2656   4
  -4   4   1 1547.35 39.4461   5
  -4   4   1 1560.99 39.2355  11
  -4   4   1 1482.65 39.2818  12
  -4   4   1 1505.42 38.5601   8
   4   4  -1 1437.52 38.1163   6
  -4   4   1 1558.67 41.7008  16
   4   4  -1 1469.62 42.5481  10
   4   4  -1 1421.77 39.6330   2
  -2  -4   1 266.371 9.79426  10
   2  -4  -1 257.900 8.62348   3
  -2  -4   1 263.768 7.58596   7
   2  -4  -1 261.942 8.54294  13
  -2  -4   1 262.229 9.09446  13
  -2  -4   1 262.968 8.22143   8
  -2  -4   1 253.153 8.40788   3
   2  -4  -1 257.787 8.15221   4
   2  -4  -1 258.879 8.61085  14
   2  -4  -1 256.892 8.61975  12
  -2  -4   1 276.757 8.53645  12
  -2   4   1 266.133 8.51824   5
  -2   4   1 263.188 8.22145   2
   2   4  -1 280.971 7.90619   6
   2   4  -1 262.679 8.94507   2
  -2   4   1 256.105 8.56789  11
   2   4  -1 271.096 8.74172  12
  -2   4   1 268.631 8.54743  12
  -2   4   1 261.517 9.76240  16
   2   4  -1 281.300 10.2441  10
   0  -4  -1 2.15042 0.73088  14
   0  -4   1 2.00856 0.90915   3
   0  -4  -1 1.75635 0.78151  12
   0  -4   1 1.03746 0.72184  13
   0  -4   1 1.49191 0.69341   7
   0  -4   1 6.99238 1.06535  14
   0  -4  -1 3.56814 0.98527  13
   0  -4  -1 0.93419 0.89675   3
   0   4  -1 1.50039 0.78881  10
   0   4   1 2.61500 1.04629  11
   0   4   1 -0.0106 0.70158   2
   0   4   1 0.31812 0.48364   6
   0   4  -1 1.64490 0.97896   2
   0   4  -1 2.43777 0.87717  12
  -2  -4  -1 874.122 23.5004  12
  -2  -4  -1 864.223 24.7497  10
   2  -4   1 871.598 23.6973   9
   2  -4   1 871.045 22.1668  13
   2  -4   1 866.401 23.7256  14
   2  -4   1 866.922 23.8197   7
  -2  -4  -1 869.238 24.5437  13
  -2  -4  -1 857.306 23.3665   3
   2  -4   1 852.841 23.3466   3
  -2   4  -1 837.567 24.7094  16
  -2   4  -1 887.619 23.6971  12
  -2   4  -1 841.044 23.2659   5
   2   4   1 871.915 24.1168   2
   2   4   1 866.882 23.3635   6
  -2   4  -1 866.568 23.8219   2
  -4  -4  -1 129.202 5.83667  12
  -4  -4  -1 122.310 6.33453  13
   4  -4   1 137.679 6.48847   4
  -4  -4  -1 121.678 4.85808   3
  -4  -4  -1 129.935 6.28894   8
   4  -4   1 134.166 6.04499  14
   4  -4   1 133.546 5.96417   9
   4  -4   1 132.346 5.03475   3
   4  -4   1 127.811 4.94995  15
   4  -4   1 126.059 6.18721   7
  -4   4  -1 130.092 4.92274   8
   4   4   1 129.096 6.54075   9
  -4   4  -1 146.520 7.80840  16
  -4   4  -1 141.184 6.23078   5
  -4   4  -1 133.849 5.96957  12
   4   4   1 130.497 5.69417   6
  -6  -4  -1 194.729 8.65441  12
  -6  -4  -1 198.741 8.89823   5
  -6  -4  -1 196.794 9.26419  13
   6  -4   1 197.848 8.61838  14
   6  -4   1 180.554 9.23295   4
   6  -4   1 200.443 9.33558   7
  -6  -4  -1 207.743 10.9466  16
  -6  -4  -1 206.823 9.63091   8
   6  -4   1 191.419 8.77062   9
   6   4   1 204.648 8.62338   6
  -6   4  -1 185.447 9.02348   5
   6   4   1 199.419 9.75521   9
  -6   4  -1 201.510 11.2204  16
   6   4   1 205.753 9.85472  15
  -6   4  -1 191.311 8.70658  12
   8  -4   1 257.771 12.1116   9
   8  -4   1 264.945 12.1099   7
  -8  -4  -1 241.566 13.4962  16
  -8  -4  -1 262.330 12.7595   8
  -8  -4  -1 257.853 11.6353  12
  -8  -4  -1 256.348 11.5040   5
   8   4   1 263.379 13.0035   9
  -8   4  -1 248.406 11.6657  12
  -8   4  -1 256.538 12.2333   5
   8   4   1 282.873 13.3906  15
  -8   4  -1 265.673 14.6848  16
 -10  -4  -1 -0.8198 2.68443   5
 -10  -4  -1 1.13978 3.86833   8
  10  -4   1 3.05240 2.94617   7
  10   4   1 2.13833 3.82052  15
 -10   4  -1 1.12576 3.85492   5
  10   4   1 1.18842 2.69266   9
   9  -5  -1 87.2391 7.53499   7
  -9  -5   1 86.3606 7.01108   8
   9  -5  -1 86.1052 7.94350   4
  -9  -5   1 83.7836 6.40360   5
  -9  -5   1 81.7164 7.79206  16
  -9   5   1 74.7338 7.44276   5
   9   5  -1 94.0721 7.88284   9
  -9   5   1 83.7925 9.43606  16
   9   5  -1 87.9147 8.09234  15
  -7  -5   1 2.14102 2.53454   8
  -7  -5   1 -0.3942 1.47206   1
  -7  -5   1 1.85114 2.40056  13
  -7  -5   1 0.41918 1.97742  16
   7  -5  -1 1.47192 1.82845   4
  -7  -5   1 -1.0404 1.53015   5
   7  -5  -1 0.52464 1.23340  14
  -7  -5   1 0.13890 1.63145  12
  -7   5   1 -0.3932 1.37554   8
   7   5  -1 0.34972 1.81198   9
   7   5  -1 0.49027 1.08982   6
   5  -5  -1 563.117 16.6931   9
  -5  -5   1 546.032 18.3373  16
  -5  -5   1 566.631 18.6910  13
   5  -5  -1 558.884 16.7773   3
  -5  -5   1 551.138 17.8411   8
  -5  -5   1 518.865 16.2451   3
   5  -5  -1 591.837 17.9959  14
  -5  -5   1 536.365 17.3328  12
   5  -5  -1 573.944 18.0207   4
  -5   5   1 578.911 17.6725  12
  -5   5   1 595.513 17.9652   5
   5   5  -1 553.723 16.4303   4
  -5   5   1 563.513 16.8174   2
   5   5  -1 558.111 18.2533   2
   5   5  -1 558.281 20.8518  10
  -5   5   1 598.429 20.4568  16
  -5   5   1 576.351 16.5956   8
   5   5  -1 538.639 16.2941   6
   3  -5  -1 1221.72 33.1649  14
   3  -5  -1 1198.22 32.9060   3
  -3  -5   1 1223.49 32.7026   3
  -3  -5   1 1150.47 31.0681   7
  -3  -5   1 1242.70 34.0303  13
  -3  -5   1 1257.59 32.7775   8
   3  -5  -1 1191.69 32.3600  13
   3  -5  -1 1241.07 32.7978   4
  -3  -5   1 1249.73 32.9140  12
   3  -5  -1 1179.55 33.0851  12
   3   5  -1 1227.71 31.9099   6
   3   5  -1 1237.81 35.6119  10
  -3   5   1 1223.33 34.9595  16
  -3   5   1 1182.04 32.6040  11
  -3   5   1 1247.47 33.0847  12
  -3   5   1 1248.74 33.0336   5
  -3   5   1 1221.61 32.4770   2
   3   5  -1 1182.16 31.7430   4
   3   5  -1 1275.94 33.8505   2
  -1  -5   1 81.8768 4.12104   3
   1  -5  -1 75.5237 3.86762  12
  -1  -5   1 73.2988 4.16089  10
   1  -5  -1 74.3188 3.68559  14
  -1  -5   1 70.1670 3.60777  12
  -1  -5   1 79.9922 3.28117   7
   1  -5  -1 78.1907 4.04004  13
  -1  -5   1 72.9282 3.95203  13
   1  -5  -1 72.1956 3.99959   3
   1   5  -1 77.0763 3.40572   6
  -1   5   1 76.3634 3.38660  10
  -1   5   1 80.6465 3.86041   6
  -1   5   1 75.9107 4.04004  11
   1   5  -1 78.7169 4.67801  10
   1   5  -1 72.4556 3.83807  12
   1   5  -1 80.0440 4.37454   2
  -1   5   1 78.3149 3.75168   5
  -1   5   1 71.4929 3.78175   2
   1  -5   1 66.0203 3.69857   3
  -1  -5  -1 66.0482 2.89254  14
  -1  -5  -1 68.1281 3.66401   3
  -1  -5  -1 67.0799 3.60768  12
  -1  -5  -1 69.2582 3.46263  10
   1  -5   1 68.8554 3.31246  13
   1  -5   1 61.7876 3.41794   7
  -1  -5  -1 66.8498 4.27122  13
   1  -5   1 71.0284 3.74734  14
  -1   5  -1 67.0134 4.17888  10
  -1   5  -1 70.5546 4.03539   2
  -1   5  -1 71.5783 3.30925   5
  -1   5  -1 70.6264 3.76711  12
   1   5   1 67.4435 3.50848   6
  -1   5  -1 65.8742 4.00931  16
   1   5   1 64.8010 3.80406   2
   1   5   1 71.9421 3.66484  10
   3  -5   1 325.513 10.9207   9
   3  -5   1 321.624 11.2158   7
  -3  -5  -1 304.361 10.2491   3
  -3  -5  -1 320.841 11.2490   8
   3  -5   1 328.118 11.0997  14
   3  -5   1 308.837 10.4095   3
  -3  -5  -1 320.858 11.8644  13
  -3  -5  -1 312.983 10.7239  12
  -3   5  -1 317.838 12.3318  16
   3   5   1 317.689 11.3566   9
   3   5   1 330.160 11.5663   2
  -3   5  -1 329.414 11.0603  12
  -3   5  -1 332.486 10.7825   5
   3   5   1 326.069 10.5320   6
  -3   5  -1 327.748 11.1315   2
  -5  -5  -1 101.188 5.73360  12
  -5  -5  -1 108.295 7.50024  16
   5  -5   1 110.431 6.51794   7
  -5  -5  -1 107.614 6.77338  13
  -5  -5  -1 98.1512 6.24693   8
   5  -5   1 113.800 6.18817  14
   5  -5   1 110.542 5.82478   9
  -5   5  -1 109.132 6.21536   5
   5   5   1 97.6536 5.52659   6
  -5   5  -1 117.536 7.95835  16
  -5   5  -1 105.874 5.93980  12
   5   5   1 102.087 6.32904   9
   7  -5   1 398.952 15.8400   7
  -7  -5  -1 381.557 17.3244  16
  -7  -5  -1 381.536 14.7274   5
  -7  -5  -1 384.099 15.2942  13
   7  -5   1 385.684 14.4683  14
   7  -5   1 413.335 15.3327   9
  -7  -5  -1 381.492 14.7306  12
  -7  -5  -1 397.843 15.9579   8
  -7   5  -1 389.693 14.9627  12
   7   5   1 420.351 16.7906  15
  -7   5  -1 390.997 15.3956   5
   7   5   1 389.788 14.4041   6
  -7   5  -1 396.719 17.9365  16
   7   5   1 411.449 16.7699   9
  -9  -5  -1 53.1341 6.03678  12
  -9  -5  -1 69.4027 7.64803   8
   9  -5   1 69.0680 7.52774   7
  -9  -5  -1 49.7087 5.41497   5
  -9   5  -1 56.0391 6.77740   5
   9   5   1 68.8587 7.60607  15
   9   5   1 57.3782 7.40481   9
 -10  -6   1 192.559 11.3266   8
  10  -6  -1 188.202 11.0824   7
 -10   6   1 183.107 11.3104   5
  10   6  -1 193.078 12.6537   9
  10   6  -1 201.232 12.3885  15
   8  -6  -1 143.735 9.03479   7
  -8  -6   1 137.549 8.92490   8
  -8  -6   1 133.767 9.01128  13
  -8  -6   1 121.730 8.44589  16
   8  -6  -1 127.838 8.52198   4
  -8  -6   1 141.920 7.55962   5
   8  -6  -1 135.359 8.10200  14
  -8   6   1 132.863 8.69881   5
   8   6  -1 151.689 10.0590   9
  -8   6   1 125.122 10.6813  16
   6  -6  -1 8.61525 2.59242  14
   6  -6  -1 12.5721 3.01215   4
   6  -6  -1 9.62381 2.96186   7
  -6  -6   1 5.93714 2.04736  12
  -6  -6   1 6.83270 1.64894   5
  -6  -6   1 10.6573 2.67642  16
  -6  -6   1 7.62732 2.64131   8
  -6  -6   1 6.92374 2.82465  13
   6   6  -1 7.70476 2.95959   9
   6   6  -1 10.1224 2.66963   2
   6   6  -1 8.95373 1.93597   6
  -6   6   1 12.4272 3.77594  16
  -6   6   1 9.24560 2.04059   2
  -6   6   1 8.86375 2.84260   5
  -4  -6   1 229.996 8.94329  12
   4  -6  -1 232.100 9.36855  14
  -4  -6   1 238.135 9.02614   8
  -4  -6   1 230.898 8.65182   3
   4  -6  -1 226.261 8.93305   4
   4  -6  -1 221.171 8.85772   3
  -4  -6   1 238.270 10.0822  13
   4  -6  -1 208.668 7.86553  13
   4   6  -1 224.473 7.95879   6
  -4   6   1 239.468 9.24412   5
  -4   6   1 211.690 8.36280   2
   4   6  -1 225.156 9.71130   2
   4   6  -1 237.557 11.4585  10
  -4   6   1 270.660 9.52838  12
  -4   6   1 233.871 10.8293  16
  -2  -6   1 37.6669 3.20463   3
   2  -6  -1 36.1844 2.99240  12
  -2  -6   1 37.8292 2.59157   8
  -2  -6   1 38.8462 2.18060   7
  -2  -6   1 40.4527 3.69189  13
   2  -6  -1 32.3469 3.05441  14
   2  -6  -1 34.7493 2.90167  13
  -2  -6   1 38.6294 2.90039  12
   2  -6  -1 39.3608 3.46138   3
   2   6  -1 37.9862 3.28316   2
  -2   6   1 37.9309 2.90787  11
  -2   6   1 39.4277 3.06460   5
   2   6  -1 41.6621 2.57707   6
  -2   6   1 33.6472 2.92312   2
  -2   6   1 38.8210 2.77058  10
   2   6  -1 37.2358 3.84058  10
   2   6  -1 30.5070 3.18703  12
   0  -6   1 234.650 8.47925  13
   0  -6   1 224.091 7.78388   7
   0  -6  -1 220.417 7.14219   7
   0  -6  -1 214.625 7.65488  14
   0  -6  -1 232.713 8.98179  13
   0  -6   1 227.857 8.03894  14
   0  -6  -1 230.392 8.72637   3
   0  -6  -1 233.067 8.44760  12
   0  -6   1 215.194 8.03379  12
   0  -6   1 233.232 8.72770   3
   0   6   1 231.574 8.52124   2
   0   6   1 234.979 8.26120   6
   0   6   1 234.684 7.70687  10
   0   6  -1 221.811 8.40284  12
   0   6  -1 237.689 9.43656  10
   0   6  -1 234.974 8.94657   2
   2  -6   1 1085.68 28.6572  13
  -2  -6  -1 1113.28 30.0218   3
   2  -6   1 1075.25 29.9775   3
  -2  -6  -1 1081.29 29.8915  12
   2  -6   1 1086.35 29.9678   7
   2  -6   1 1093.07 30.0787  14
  -2  -6  -1 1078.16 31.2318  13
  -2   6  -1 1047.38 29.1503   5
   2   6   1 1101.71 29.5214   6
  -2   6  -1 1088.73 30.2608   2
  -2   6  -1 1048.99 31.0929  16
  -2   6  -1 1059.65 30.1147  12
   2   6   1 1045.98 30.3983   2
   2   6   1 1093.43 30.4283  10
   4  -6   1 10.2810 1.89080   3
  -4  -6  -1 8.53725 2.36840   8
  -4  -6  -1 8.74648 1.99596  12
  -4  -6  -1 6.86547 1.65839   3
   4  -6   1 7.24254 2.33309   7
  -4  -6  -1 8.36556 2.73965  13
   4  -6   1 10.1414 2.24431   9
   4   6   1 11.9849 2.77759   2
  -4   6  -1 7.27703 2.73477  16
  -4   6  -1 4.30828 1.92124   2
  -4   6  -1 8.51884 2.18728   5
   4   6   1 6.75016 2.00497   9
   4   6   1 8.21680 1.76768   6
  -4   6  -1 8.96685 1.93153  12
  -6  -6  -1 1.81368 1.88427  12
   6  -6   1 0.17864 2.25365   7
  -6  -6  -1 4.43361 2.77836   8
   6  -6   1 2.66105 2.02014   9
   6  -6   1 -0.6270 1.79503  14
  -6  -6  -1 0.82551 2.27358  16
  -6  -6  -1 2.54580 2.61813  13
  -6   6  -1 8.48324 2.92448   5
  -6   6  -1 -0.2934 1.68500  12
   6   6   1 4.68050 2.23138   6
   6   6   1 2.98131 2.71293  15
  -6   6  -1 3.07188 3.17341  16
  -6   6  -1 0.16186 1.92798   2
   6   6   1 2.68500 2.02452   9
   8  -6   1 184.077 10.6563   7
  -8  -6  -1 161.543 9.31061  12
  -8  -6  -1 177.525 10.2169   8
  -8  -6  -1 155.624 8.84103   5
  -8  -6  -1 174.535 11.6829  16
   8   6   1 181.472 11.3620  15
   8   6   1 186.883 11.5300   9
  -8   6  -1 166.314 10.2363   5
  -8   6  -1 175.751 12.6757  16
   9  -7  -1 -1.0905 3.06817   7
  -9  -7   1 6.51574 3.67717   8
   9   7  -1 1.63472 3.27629   9
  -9   7   1 1.25655 3.42652   5
   9   7  -1 2.83133 3.75578  15
  -7  -7   1 179.904 8.54731   5
  -7  -7   1 191.872 11.0049  13
   7  -7  -1 204.107 10.6608   4
  -7  -7   1 198.027 10.3170   8
   7  -7  -1 205.539 10.2676  14
   7  -7  -1 197.661 10.6302   7
   7   7  -1 197.785 11.2140   9
  -7   7   1 220.147 10.6415   5
  -7   7   1 216.395 13.1402  16
  -5  -7   1 206.238 10.2926  13
   5  -7  -1 191.376 9.25179   7
  -5  -7   1 203.941 9.64311  16
   5  -7  -1 191.500 8.89954   4
   5  -7  -1 194.693 9.18373  14
  -5  -7   1 195.163 8.91421   8
  -5  -7   1 189.596 8.15084   3
   5  -7  -1 188.210 8.48765   3
  -5  -7   1 185.347 8.53400  12
   5   7  -1 214.495 10.2624   2
  -5   7   1 196.552 11.1230  16
   5   7  -1 194.083 10.9015  10
  -5   7   1 187.966 8.17176   2
  -5   7   1 198.874 9.11878   5
   5   7  -1 198.757 7.74884   6
  -3  -7   1 173.688 7.48347  12
   3  -7  -1 177.644 7.97231   3
  -3  -7   1 179.097 7.58178   3
   3  -7  -1 165.799 7.01785  13
  -3  -7   1 172.709 7.14485   8
  -3  -7   1 170.007 8.57578  13
   3  -7  -1 170.115 7.75424  14
   3  -7  -1 179.623 7.54039   7
  -3   7   1 170.964 7.48190  10
   3   7  -1 174.632 6.74579   6
  -3   7   1 173.479 7.34860   5
  -3   7   1 177.948 9.32869  16
   3   7  -1 174.697 9.10715  10
  -3   7   1 171.980 7.39734   2
   3   7  -1 178.053 8.52895   2
  -1  -7   1 458.190 13.9387   8
   1  -7  -1 471.648 14.9539  14
   1  -7  -1 478.706 14.3915   7
  -1  -7   1 498.567 15.8322   3
   1  -7  -1 463.747 15.4290  12
   1  -7  -1 503.237 16.0053  13
  -1  -7   1 466.744 15.1064  12
  -1  -7   1 480.284 15.9400  13
   1  -7  -1 488.004 15.9067   3
  -1  -7   1 481.643 14.1371   7
   1   7  -1 493.308 16.8872  10
  -1   7   1 472.936 14.3467  10
   1   7  -1 487.382 16.1764   2
  -1   7   1 509.254 15.3331   6
  -1   7   1 487.605 15.4203   2
   1   7  -1 508.428 14.7608   6
   1  -7   1 6.34921 1.84531  14
  -1  -7  -1 6.26106 1.32149  14
  -1  -7  -1 7.44194 1.99981  13
   1  -7   1 7.24649 1.62764  13
   1  -7   1 6.38534 2.00826   3
  -1  -7  -1 4.98131 1.95035   3
   1  -7   1 6.88444 1.57560   7
  -1  -7  -1 7.31061 1.82049  12
  -1   7  -1 9.26493 2.49601   2
   1   7   1 4.93600 1.62001   6
  -1   7  -1 6.51340 1.94333  10
  -1   7  -1 4.74703 1.37745   5
   1   7   1 5.22284 1.35579  10
  -1   7  -1 5.59261 1.67781  12
   1   7   1 5.83609 1.97107   2
  -3  -7  -1 59.7220 4.16383  12
   3  -7   1 59.2098 4.61873   7
   3  -7   1 56.9603 4.33446  14
   3  -7   1 62.0368 4.39207   3
  -3  -7  -1 51.7540 5.27358  13
  -3  -7  -1 61.8259 4.66764   8
  -3  -7  -1 56.1634 4.33078   3
   3   7   1 60.0736 4.68753   9
  -3   7  -1 53.8769 4.17150  12
   3   7   1 62.1825 5.10640   2
   3   7   1 63.8146 4.28926   6
  -3   7  -1 56.5205 4.92242  16
  -3   7  -1 50.9152 3.67396   5
  -3   7  -1 68.9210 4.94515   2
  -5  -7  -1 536.464 19.4359  13
  -5  -7  -1 516.716 18.1882   8
   5  -7   1 503.328 17.8048  14
  -5  -7  -1 506.848 19.6464  16
  -5  -7  -1 522.565 17.7340  12
   5  -7   1 521.770 17.3964   9
   5  -7   1 523.099 18.2816   7
   5   7   1 523.174 18.8747   9
  -5   7  -1 492.619 17.6424  12
  -5   7  -1 511.241 17.7242   2
  -5   7  -1 500.698 17.2720   5
   5   7   1 531.053 17.0989   6
  -5   7  -1 497.740 19.6579  16
  -7  -7  -1 74.5916 7.19882  13
  -7  -7  -1 71.3462 7.44845  16
  -7  -7  -1 72.0715 7.33957   8
  -7  -7  -1 70.8931 5.55387   5
  -7  -7  -1 66.8371 5.97858  12
   7  -7   1 77.4752 6.98686   7
  -7   7  -1 87.5494 7.22826   5
   7   7   1 73.3251 7.89660  15
   7   7   1 84.8465 7.19151   9
   7   7   1 78.6725 6.20087   6
  -7   7  -1 80.1182 8.58976  16
  -7   7  -1 73.9952 6.17854   2
  -9  -7  -1 10.2267 2.73427   5
  -9  -7  -1 8.87312 4.05853   8
   9  -7   1 20.8941 4.90140   7
  -9   7  -1 10.8182 4.21992   5
   9   7   1 14.3364 5.10186  15
   9   7   1 22.2176 5.55922   9
   8  -8  -1 325.978 15.3914   7
  -8  -8   1 336.284 15.1675   8
   8   8  -1 342.984 16.4362   9
  -8   8   1 345.180 14.9932   5
   6  -8  -1 292.777 12.7971  14
  -6  -8   1 297.384 12.6060   8
  -6  -8   1 289.742 13.9294  13
   6  -8  -1 286.145 12.9581   7
  -6   8   1 296.027 12.3321   5
   6   8  -1 307.012 13.8918   9
  -6   8   1 282.390 15.0289  16
   6   8  -1 297.802 13.8492   2
  -4  -8   1 19.5237 2.88471   3
  -4  -8   1 19.8696 3.03563   8
   4  -8  -1 23.1578 3.64597   7
   4  -8  -1 23.5612 3.39280  14
   4  -8  -1 17.1897 3.14573   3
  -4  -8   1 15.8586 3.57197  13
  -4   8   1 24.1029 3.15457   5
  -4   8   1 16.1361 3.51779  16
  -4   8   1 18.3212 3.24863   2
   4   8  -1 22.5838 4.00087   2
   4   8  -1 19.9271 2.56056   6
  -2  -8   1 328.212 11.2117   8
   2  -8  -1 335.244 12.2724  14
   2  -8  -1 328.047 12.2865  13
   2  -8  -1 333.107 11.6972   7
  -2  -8   1 339.232 13.1244  13
  -2  -8   1 334.488 12.7017   3
   2  -8  -1 341.805 12.8320   3
   2   8  -1 342.122 13.2429   2
   2   8  -1 354.355 13.9686  10
  -2   8   1 340.980 12.3286   2
  -2   8   1 351.576 11.9447   5
  -2   8   1 357.323 12.5950   6
   2   8  -1 352.053 11.4730   6
   0  -8  -1 940.589 27.6549   3
   0  -8   1 921.247 27.1643  13
   0  -8  -1 897.342 27.0082  12
   0  -8  -1 903.560 25.9956  14
   0  -8   1 920.871 27.4793   3
   0  -8  -1 935.437 28.0764  13
   0  -8   1 924.177 25.9777   7
   0   8  -1 945.047 27.9376   2
   0   8   1 934.865 27.2861   2
   0   8  -1 942.647 26.3625   6
   0   8   1 943.149 26.7087   6
   0   8  -1 914.148 28.2950  10
  -2  -8  -1 308.033 11.8239  12
   2  -8   1 308.172 11.9506   3
  -2  -8  -1 312.570 13.1534  13
  -2  -8  -1 319.583 12.0935   3
  -2  -8  -1 320.156 11.6806   8
   2  -8   1 318.585 11.7818   7
   2  -8   1 314.573 11.8653  14
  -2   8  -1 304.280 12.1944   2
  -2   8  -1 308.832 10.8859   5
  -2   8  -1 296.443 12.8289  10
   2   8   1 330.854 12.6781   2
  -2   8  -1 299.468 11.9216  12
   2   8   1 324.471 11.4235   6
  -4  -8  -1 239.424 10.6055   8
  -4  -8  -1 243.330 9.99183   3
   4  -8   1 243.085 10.2050   3
  -4  -8  -1 230.047 11.8746  13
   4  -8   1 236.732 10.7964   7
   4  -8   1 241.778 10.6867  14
  -4  -8  -1 240.153 10.4066  12
  -4   8  -1 230.268 9.69146   5
   4   8   1 245.716 11.5773   2
   4   8   1 243.943 11.1482   9
   4   8   1 240.676 9.96361   6
  -4   8  -1 237.343 10.4292   2
  -4   8  -1 219.309 11.5304  16
  -6  -8  -1 106.932 7.23714  12
  -6  -8  -1 107.079 8.67329  13
   6  -8   1 110.001 7.73388   7
  -6  -8  -1 104.867 7.92706   8
  -6  -8  -1 106.058 8.44825  16
   6   8   1 114.171 8.51308   9
  -6   8  -1 110.695 7.62213   5
  -6   8  -1 108.145 7.37746   2
   6   8   1 115.011 8.58571  15
   6   8   1 105.599 6.89519   6
  -6   8  -1 111.894 9.46108  16
   8  -8   1 50.7280 6.55812   7
  -8  -8  -1 43.9356 6.30738   8
  -8  -8  -1 43.3969 5.15604   5
   8   8   1 51.5382 7.24838   9
  -8   8  -1 43.1745 5.23528   5
   8   8   1 54.9915 6.93897  15
  -9  -9   1 5.70117 2.83437   8
   9   9  -1 4.10790 3.97894   9
   9   9  -1 10.1837 3.76565  15
  -9   9   1 7.54287 4.61802   5
   7  -9  -1 42.5038 5.87721  14
  -7  -9   1 44.5559 5.72240   8
  -7  -9   1 43.4608 5.93207  13
   7  -9  -1 43.5849 5.72357   7
   7   9  -1 49.8029 6.52815   9
  -7   9   1 33.3069 5.94108  16
  -7   9   1 44.8474 5.15033   5
   5  -9  -1 3.79664 2.22833   7
   5  -9  -1 0.22895 2.03607   3
  -5  -9   1 2.11285 2.44872   8
  -5  -9   1 5.10720 2.51080   3
  -5  -9   1 -1.2173 1.74462  13
   5  -9  -1 2.69261 2.69523  14
   5   9  -1 2.57391 3.07612   2
  -5   9   1 1.70682 3.08286  16
  -5   9   1 1.70127 2.51164   5
  -3  -9   1 2.65215 1.57460   8
  -3  -9   1 0.75722 2.16226   3
   3  -9  -1 4.42801 2.20674   7
   3  -9  -1 9.85301 2.40269  14
   3  -9  -1 1.76888 2.21428   3
  -3  -9   1 4.02375 2.04543  13
  -3   9   1 2.30527 2.01084   5
   3   9  -1 5.80909 2.88081   2
  -3   9   1 8.89089 2.59546   2
   3   9  -1 3.54207 1.63876   6
  -3   9   1 -0.0729 2.25792   6
  -1  -9   1 82.0695 6.00201  13
   1  -9  -1 90.5866 6.12729  13
   1  -9  -1 79.4298 5.82288   3
  -1  -9   1 72.3921 5.91422   3
   1  -9  -1 87.0436 5.15199  14
   1   9  -1 92.0738 5.22912   6
  -1   9   1 85.7927 5.84783   2
   1   9  -1 85.6945 6.47929   2
  -1   9   1 86.6751 5.80311   6
  -1  -9  -1 48.8345 5.25381  13
   1  -9   1 46.1325 3.74001  13
   1  -9   1 51.3764 4.96907   3
  -1  -9  -1 40.9004 4.23833  12
   1  -9   1 44.0118 3.94590   7
  -1  -9  -1 45.5012 4.78557   3
  -1   9  -1 43.1404 4.30445   6
  -1   9  -1 48.8106 5.30717   2
   1   9   1 55.1822 5.42703   2
   1   9   1 51.0803 4.08639   6
   3  -9   1 7.99520 2.64928  14
  -3  -9  -1 7.44962 2.46025  12
   3  -9   1 9.89537 3.06206   7
  -3  -9  -1 8.23964 3.30650  13
  -3  -9  -1 9.37337 2.61711   8
  -3  -9  -1 7.18824 2.74163   3
   3  -9   1 10.0587 2.73489   3
   3   9   1 8.01073 2.50218   6
   3   9   1 12.9047 3.03054   2
  -3   9  -1 9.11995 3.08593   2
  -3   9  -1 10.6938 2.44978   5
   3   9   1 9.81325 2.51392   9
  -5  -9  -1 21.9841 3.69143  12
  -5  -9  -1 28.8120 4.84330  13
  -5  -9  -1 25.6435 4.30042   8
   5  -9   1 24.9619 4.78833   7
   5   9   1 18.8471 4.67172   2
   5   9   1 25.4291 4.79006  15
  -5   9  -1 12.6043 3.19911   5
   5   9   1 23.6218 3.75185   6
  -5   9  -1 16.9784 4.26594  16
  -5   9  -1 25.5580 4.12967   2
   5   9   1 22.4438 4.30464   9
  -7  -9  -1 0.58818 2.53374   5
  -7  -9  -1 4.15846 2.86981   8
   7  -9   1 -1.9856 3.11475   7
   7   9   1 1.71906 3.44281  15
   7   9   1 -0.5096 2.03937   9
  -7   9  -1 0.89644 3.03809   5
   8 -10  -1 21.0490 5.04795   7
  -8  10   1 22.4440 4.78441   5
   8  10  -1 33.1211 5.55203   9
   8  10  -1 31.8031 5.96749  15
   6 -10  -1 1.45837 3.03507   7
  -6 -10   1 -0.6165 3.21947  13
   6 -10  -1 0.47628 1.90963  14
  -6 -10   1 -1.9957 2.41742   8
   6  10  -1 2.89440 2.55353   9
   6  10  -1 2.34338 2.90135   2
  -6  10   1 1.07589 3.09255   5
  -4 -10   1 18.8816 3.91261   3
  -4 -10   1 13.5979 3.92099  13
   4 -10  -1 14.3749 3.42705   7
   4 -10  -1 13.8278 2.98232   3
   4 -10  -1 15.4140 3.20073  14
   4  10  -1 8.78859 3.80628   2
  -4  10   1 9.57751 3.02169   5
  -4  10   1 11.7677 3.58747   6
  -2 -10   1 1.98755 2.62943   3
   2 -10  -1 -2.8648 2.11923   3
   2 -10  -1 5.16438 2.52897  14
  -2 -10   1 1.71937 2.44923  13
   2 -10  -1 -0.2462 1.89234   7
  -2  10   1 1.11318 2.49615   6
   2  10  -1 2.53953 2.95541   2
   2  10  -1 1.40410 1.79756   6
  -2  10   1 1.26534 2.15271   2
   0 -10  -1 66.3702 5.63753  13
   0 -10   1 68.1889 5.23315  13
   0 -10  -1 66.0425 6.28054   3
   0 -10   1 67.0357 6.19350   3
   0  10   1 68.1974 5.58508   6
   0  10  -1 62.8624 6.20563   2
   0  10   1 61.0689 5.79219   2
   0  10  -1 64.2652 5.20637   6
   2 -10   1 102.292 6.81109   3
  -2 -10  -1 85.5271 7.46415  13
  -2 -10  -1 93.2454 7.16740   3
   2 -10   1 89.9917 6.29887   7
  -2 -10  -1 85.9958 6.00609   8
   2  10   1 99.8869 6.43974   6
   2  10   1 95.1015 7.22178   2
  -2  10  -1 92.0379 7.22879   2
  -2  10  -1 92.8199 6.59512   6
  -4 -10  -1 -1.9684 2.73667  13
   4 -10   1 0.28638 2.02234   3
  -4 -10  -1 4.48473 2.62355   3
  -4 -10  -1 0.39366 1.63722   8
   4 -10   1 2.24063 2.86559   7
   4  10   1 0.68979 2.46148   9
   4  10   1 0.17479 2.30971   6
   4  10   1 3.48446 3.19962   2
  -4  10  -1 1.36564 2.60050   2
  -4  10  -1 0.22243 2.11965   5
   6 -10   1 21.1199 4.97319   7
  -6 -10  -1 24.1826 4.36745   8
   6  10   1 19.6854 4.45155   9
   6  10   1 24.4919 4.62134  15
  -6  10  -1 13.8195 3.65053   5
   7 -11  -1 117.597 8.68550   7
   7  11  -1 110.990 9.43098   9
  -5 -11   1 139.454 8.87880   3
   5 -11  -1 140.999 8.84699   3
   5 -11  -1 132.022 8.97708   7
   5  11  -1 153.773 10.5286   2
  -5  11   1 132.141 8.47485   5
  -5  11   1 144.504 9.52378   6
   5  11  -1 133.645 9.05782   9
   3 -11  -1 135.980 8.39785  14
   3 -11  -1 154.200 9.08781   3
  -3 -11   1 146.213 9.23201   3
  -3 -11   1 139.576 9.55352  13
  -3  11   1 131.700 8.17839   6
   3  11  -1 149.964 9.90944   2
  -1 -11   1 216.706 11.3602   3
   1 -11  -1 202.945 11.2650   3
   1 -11  -1 208.720 10.7098  13
  -1 -11   1 216.240 11.0368  13
  -1  11   1 213.766 10.6620   2
  -1  11   1 216.954 10.4314   6
   1  11  -1 241.067 12.0221   2
   1  11  -1 212.745 9.57211   6
  -1 -11  -1 187.574 10.9127  13
   1 -11   1 201.923 10.3873   3
  -1 -11  -1 205.103 11.1303   3
  -1  11  -1 189.715 9.17658   6
  -1  11  -1 192.431 10.2190   2
   1  11   1 212.165 10.8676   2
   1  11   1 180.037 9.38951   6
  -3 -11  -1 168.471 11.0804  13
  -3 -11  -1 178.649 9.33434   8
  -3 -11  -1 183.826 10.2689   3
   3 -11   1 173.993 9.60056   3
   3 -11   1 174.223 9.59559   7
   3  11   1 170.631 9.07113   6
  -3  11  -1 171.372 10.0848   2
  -3  11  -1 181.366 9.92876   6
   3  11   1 166.290 9.44063   9
   3  11   1 192.911 11.0778   2
   5 -11   1 115.843 8.92268   7
  -5 -11  -1 107.954 8.20123   8
   5  11   1 123.351 8.86078   9
   5  11   1 114.735 8.73927  15
   6 -12  -1 93.5474 7.54641   7
  -6  12   1 92.9504 8.77754   6
   6  12  -1 96.6970 8.05007   9
   6  12  -1 89.2026 8.20783   2
   4 -12  -1 150.130 9.58887   3
  -4 -12   1 152.408 9.88191   3
  -4  12   1 144.102 9.75060   6
   4  12  -1 137.578 10.2097   2
   2 -12  -1 134.531 9.40240   3
  -2 -12   1 131.769 8.91152   3
  -2 -12   1 126.071 8.93396  13
   2  12  -1 131.983 9.61671   2
  -2  12   1 137.618 8.99223   6
   0 -12  -1 19.8112 4.12057  13
   0 -12  -1 26.1839 4.58697   3
   0 -12   1 27.6805 4.97967   3
   0  12   1 29.7054 4.12320   6
   0  12   1 24.6459 4.66795   2
   0  12  -1 32.6763 5.39990   2
  -2 -12  -1 1.73400 3.48570   3
   2 -12   1 5.63672 3.19140   3
  -2 -12  -1 2.60714 3.07057  13
   2  12   1 9.79989 3.82304   2
  -2  12  -1 8.30740 3.53963   6
   2  12   1 5.43664 3.04671   6
  -2  12  -1 6.68142 3.49599   2
   4 -12   1 142.846 9.51734   7
   4 -12   1 138.765 8.98771   3
   4  12   1 155.671 10.7033   2
  -4  12  -1 143.425 9.48609   6
   4  12   1 142.274 9.27391  15
   3 -13  -1 42.0723 6.15588   3
  -3 -13   1 45.5989 6.36969   3
   3  13  -1 48.2563 6.55849   2
  -3  13   1 60.0005 6.90860   6
  -1 -13   1 4.09522 3.81863   3
   1 -13  -1 7.39615 4.01174   3
  -1  13   1 6.90420 3.57066   6
   1  13  -1 1.20429 3.33607   2
  -1 -13  -1 48.7423 6.69853   3
   1 -13   1 33.3492 5.46913   3
  -1  13  -1 47.2371 6.12045   2
  -1  13  -1 38.7975 4.82900   6
   1  13   1 42.7898 5.30672   6
   1  13   1 40.0832 5.86801   2
  -3 -13  -1 45.2685 5.71520   3
   3 -13   1 37.8425 5.02556   3
  -3  13  -1 30.9450 5.14344   6
   3  13   1 30.3057 5.53960   2
   2  14  -1 33.3139 6.20800   2
   0 -14   1 0.47016 3.10359   3
   0 -14  -1 2.60800 3.91852   3
   0  14  -1 6.15188 3.53537   2
   0  14   1 1.49387 3.11694   6
  12   0  -2 64.8183 8.17377   4
  10   0  -2 103.325 7.55499   4
  10   0  -2 107.089 7.46817   9
 -10   0   2 100.072 9.55258  16
 -10   0   2 93.1222 8.84379  11
 -10   0   2 105.278 7.90298   5
 -10   0   2 106.701 8.11143   8
  -8   0   2 121.407 8.29204  16
  -8   0   2 126.563 6.61430  12
  -8   0   2 129.179 7.11483   5
   8   0  -2 120.621 6.15814  15
   8   0  -2 118.610 6.91758   9
   8   0  -2 130.088 7.49153   4
  -8   0   2 122.662 7.35164   8
  -6   0   2 81.9487 4.37417   5
  -6   0   2 81.3304 4.24919  12
  -6   0   2 76.1623 3.63352   1
   6   0  -2 98.9723 4.88532   9
  -6   0   2 90.5002 5.69585  16
  -6   0   2 78.3258 4.80316   8
   6   0  -2 87.5783 5.09023   4
   6   0  -2 76.5245 3.97420  14
   4   0  -2 2661.31 67.7563   9
   4   0  -2 2648.18 67.7194  14
  -4   0   2 2680.78 67.6401   5
  -4   0   2 2717.89 67.4457   1
  -4   0   2 2669.68 68.0654   8
  -4   0   2 2701.22 69.0062  16
   4   0  -2 2680.89 70.5809  10
   4   0  -2 2670.20 68.3381   4
   4   0  -2 2680.32 68.3796  12
  -2   0   2 68.7528 2.79657   1
   2   0  -2 67.1513 2.94421   4
  -2   0   2 66.7607 3.55521  10
  -2   0   2 77.6160 3.41185  11
  -2   0   2 66.4950 2.44539   5
   2   0  -2 70.9780 3.58975  10
   2   0  -2 82.2617 2.86904  12
  -2   0   2 66.5614 2.89622  16
   0   0   2 155.648 4.78811   7
   0   0   2 161.691 4.67587   6
   0   0   2 165.573 4.97540   9
   0   0   2 157.884 4.85933   1
   0   0   2 165.654 5.21929  11
   0   0   2 153.974 5.03285  15
   2   0   2 61.7319 3.11949   9
  -2   0  -2 55.5903 2.46592  13
  -2   0  -2 54.4986 2.15878  12
  -2   0  -2 63.9073 2.88461   8
  -2   0  -2 53.5693 3.47298  16
   2   0   2 56.9303 2.59022   7
   2   0   2 58.0494 2.75284   6
   2   0   2 65.7123 3.13807  15
  -4   0  -2 23.7197 3.40860  16
   4   0   2 25.8827 2.57684  15
  -4   0  -2 26.1543 1.95347  13
  -4   0  -2 21.3312 2.02051  12
  -4   0  -2 26.9750 2.53022   8
   4   0   2 24.8158 2.28454   4
   4   0   2 20.1717 1.91640   7
  -4   0  -2 24.6120 2.71721   5
   4   0   2 21.2352 2.79246   9
  -6   0  -2 451.497 15.0847  12
  -6   0  -2 484.667 15.7063   8
  -6   0  -2 469.165 15.9352   5
   6   0   2 449.139 16.4913   9
   6   0   2 463.141 15.8232  15
  -6   0  -2 463.421 18.2714  16
   6   0   2 447.213 15.5608   4
   6   0   2 441.273 14.5786   7
  -8   0  -2 126.945 8.19162   8
   8   0   2 129.418 8.10521  15
   8   0   2 142.063 9.39481   9
  -8   0  -2 145.346 8.53872   5
  -8   0  -2 133.348 7.89700  12
  -8   0  -2 159.269 10.9176  16
 -10   0  -2 25.5747 4.21920  12
  10   0   2 21.0910 5.45476   9
 -10   0  -2 16.3923 4.56743   5
 -11  -1   2 289.364 13.3351   5
 -11  -1   2 309.803 14.6106   8
  11  -1  -2 308.163 14.9931   4
 -11   1   2 292.120 13.6283   5
 -11   1   2 293.465 14.0230   8
  11   1  -2 309.999 14.7303   9
  11   1  -2 291.801 14.0988   4
  -9  -1   2 800.123 25.2994   5
   9  -1  -2 796.287 26.6805   4
  -9  -1   2 814.622 26.0222   8
  -9  -1   2 797.717 28.3828  16
   9  -1  -2 804.032 25.5256   9
  -9   1   2 791.657 28.9077  16
   9   1  -2 804.692 26.1862   4
  -9   1   2 773.596 27.1996  11
  -9   1   2 824.228 25.6827   5
   9   1  -2 802.934 24.9800  15
   9   1  -2 809.453 26.1394   9
  -9   1   2 796.609 25.6904   8
  -7  -1   2 2134.41 55.3612   8
   7  -1  -2 2045.84 53.9498  14
  -7  -1   2 2112.82 57.3283  16
   7  -1  -2 2122.74 54.8474   9
   7  -1  -2 2037.72 55.6265   4
  -7  -1   2 2021.63 54.5302  13
  -7  -1   2 2031.78 54.3612   5
   7  -1  -2 1915.93 53.4026  15
  -7   1   2 2038.63 54.5940  12
  -7   1   2 2065.10 57.5468  16
   7   1  -2 2071.41 55.3689   4
   7   1  -2 2074.15 55.3255   9
  -7   1   2 2054.71 56.4764  11
  -7   1   2 2091.09 54.8077   5
  -7   1   2 2046.20 54.9697   8
  -5  -1   2 1379.82 36.7292  16
   5  -1  -2 1335.63 36.1299   4
  -5  -1   2 1337.26 35.0726   5
   5  -1  -2 1329.09 35.3463  14
   5  -1  -2 1354.13 35.2507   9
  -5  -1   2 1349.08 35.3497  12
  -5  -1   2 1348.46 35.8370   8
   5  -1  -2 1290.21 35.8389  12
  -5  -1   2 1323.35 35.6466  13
  -5  -1   2 1333.64 34.8606   1
  -5   1   2 1331.32 35.6718   8
  -5   1   2 1329.14 35.3769  12
   5   1  -2 1336.85 39.1091  10
   5   1  -2 1332.96 35.9006   4
   5   1  -2 1310.52 35.9509  12
  -5   1   2 1347.22 37.2771  16
   5   1  -2 1356.40 35.8362   9
  -5   1   2 1316.23 34.4323   1
   5   1  -2 1331.62 34.7764  14
  -5   1   2 1315.03 36.7077  11
  -5   1   2 1310.87 35.3794   5
  -3  -1   2 5301.18 136.010   8
   3  -1  -2 5343.85 144.209  10
  -3  -1   2 5076.89 135.425  10
   3  -1  -2 5451.66 135.170  12
  -3  -1   2 5362.14 134.823   1
  -3  -1   2 5161.11 136.070  13
   3  -1  -2 5127.93 133.357   9
  -3  -1   2 5222.77 138.437  16
   3  -1  -2 5280.15 137.261  14
  -3  -1   2 5181.79 132.277   5
   3  -1  -2 5275.41 131.628   4
  -3   1   2 4973.10 135.632   8
  -3   1   2 5093.15 132.442   5
  -3   1   2 5119.50 137.917  11
  -3   1   2 5091.19 140.785  16
  -3   1   2 5206.00 131.127   1
  -3   1   2 5042.19 141.465  10
   3   1  -2 5362.25 132.773  12
   3   1  -2 5132.66 132.060   4
   3   1  -2 5244.80 132.584   2
   3   1  -2 5236.65 144.697  10
  -1  -1   2 7850.62 207.202  11
   1  -1  -2 8338.84 208.025  10
  -1  -1   2 7942.65 203.128   1
  -1  -1   2 7203.41 208.971  10
  -1  -1   2 8099.55 205.006   7
   1  -1  -2 8104.61 205.512   4
   1  -1  -2 8936.68 206.286  14
  -1   1   2 7757.32 203.099   5
   1   1  -2 7380.08 209.274  10
  -1   1   2 7918.95 202.774   6
  -1   1   2 8427.48 207.217  10
  -1   1   2 8977.49 211.471  11
   1   1  -2 7759.60 204.127   2
   1   1  -2 7673.89 202.069  12
  -1   1   2 8706.53 206.285   1
   1  -1   2 1188.22 31.6791   9
  -1  -1  -2 1199.97 31.6726  13
   1  -1   2 1228.58 31.5897  15
   1  -1   2 1252.38 31.4072   7
  -1   1  -2 1265.71 32.0176  16
  -1   1  -2 1295.82 31.2165   5
   1   1   2 1178.43 31.4821   9
  -1   1  -2 1240.27 30.6924  12
   1   1   2 1175.41 31.2540   6
  -1   1  -2 1314.26 30.8827   8
   1   1   2 1182.05 31.6145  15
   1   1   2 1175.76 30.7412   7
   1   1   2 1188.20 32.0495  11
   1   1   2 1182.78 31.0804   1
   3  -1   2 3364.37 87.3246   4
   3  -1   2 3435.08 86.9855   7
  -3  -1  -2 3606.88 89.4542  16
  -3  -1  -2 3450.76 86.9188  13
   3  -1   2 3477.16 87.8446   9
   3  -1   2 3480.86 87.2911  15
  -3  -1  -2 3462.60 87.3289   8
  -3  -1  -2 3524.00 88.0412  12
   3   1   2 3446.36 87.7680   9
   3   1   2 3350.23 86.1226   7
  -3   1  -2 3418.99 86.6537   8
   3   1   2 3450.27 87.0586   6
  -3   1  -2 3446.30 87.1098   5
  -3   1  -2 3474.94 88.9343  16
   3   1   2 3495.61 87.6504  15
  -3   1  -2 3417.40 88.2000  12
   3   1   2 3471.97 86.8060   4
  -3   1  -2 3305.58 87.9179  13
  -5  -1  -2 2133.47 55.5433  13
  -5  -1  -2 2158.88 56.7695   5
  -5  -1  -2 2182.59 56.8427   8
  -5  -1  -2 2222.42 56.0081  12
   5  -1   2 2176.00 57.6146   9
   5  -1   2 2135.19 56.9559   4
  -5  -1  -2 2220.73 59.7048  16
   5  -1   2 2106.75 56.4823  15
   5  -1   2 2067.65 56.0821   7
   5   1   2 2153.01 56.3573   4
   5   1   2 2045.34 55.1017   7
   5   1   2 2135.49 57.6870   9
  -5   1  -2 2175.96 59.4252  16
  -5   1  -2 2116.90 56.5863   5
  -5   1  -2 2172.38 55.9824  12
  -5   1  -2 2085.16 56.0232   8
   5   1   2 2162.45 57.1157  15
  -7  -1  -2 538.502 18.8310   5
  -7  -1  -2 537.278 18.1062  12
  -7  -1  -2 535.835 21.5862  16
   7  -1   2 549.823 18.3399  15
   7  -1   2 546.019 18.0050   7
   7  -1   2 545.484 19.7533   9
  -7  -1  -2 572.561 18.9877   8
   7   1   2 538.116 19.8627   9
  -7   1  -2 532.990 18.7710   5
   7   1   2 571.880 19.2276  15
  -7   1  -2 548.674 18.2775  12
  -7   1  -2 534.508 18.1655   8
  -7   1  -2 528.172 21.5302  16
  -9  -1  -2 750.280 25.1707   5
   9  -1   2 735.595 26.1036   9
  -9  -1  -2 707.293 24.5535   8
  -9  -1  -2 691.437 24.0052  12
  -9   1  -2 673.405 23.8748  12
  -9   1  -2 700.959 24.7143   5
   9   1   2 719.044 26.3483   9
  10  -2  -2 962.500 31.9325   4
 -10  -2   2 960.092 33.7396  16
 -10  -2   2 991.726 31.5976   8
 -10  -2   2 947.706 30.1093   5
  10   2  -2 984.610 31.8949   9
 -10   2   2 975.936 31.0450   5
  10   2  -2 975.251 31.0061   4
 -10   2   2 964.221 30.4035   8
 -10   2   2 959.896 34.9275  16
  -8  -2   2 1212.20 35.1537  12
   8  -2  -2 1254.69 36.6327   4
  -8  -2   2 1245.78 36.1828   8
   8  -2  -2 1237.99 35.0977   9
  -8  -2   2 1230.37 34.9660   5
  -8  -2   2 1200.02 35.2917  13
   8  -2  -2 1215.69 34.5181  14
  -8  -2   2 1252.63 38.0331  16
  -8   2   2 1226.01 35.4178   8
  -8   2   2 1245.54 39.0928  16
   8   2  -2 1262.85 36.5975   9
   8   2  -2 1243.28 35.8978   4
  -8   2   2 1237.67 36.9887  11
  -8   2   2 1232.61 35.6821   5
   6  -2  -2 2571.86 67.6549   4
  -6  -2   2 2579.07 67.2301  13
  -6  -2   2 2599.60 66.3058   5
   6  -2  -2 2514.23 66.5890  14
  -6  -2   2 2622.43 67.3296   8
   6  -2  -2 2583.88 66.2937   9
  -6  -2   2 2551.27 66.6958  12
  -6  -2   2 2632.61 68.4355  16
  -6  -2   2 2593.44 66.0548   1
  -6   2   2 2580.32 66.9513   5
  -6   2   2 2617.69 68.3302  11
   6   2  -2 2659.49 67.7541   9
  -6   2   2 2644.14 69.7156  16
   6   2  -2 2610.14 71.9218  10
  -6   2   2 2567.45 66.8623   8
   6   2  -2 2519.11 65.1568  14
   6   2  -2 2536.35 67.0300   4
  -6   2   2 2373.84 66.4078  12
   4  -2  -2 3140.61 76.2351   9
   4  -2  -2 2997.19 77.4197  12
   4  -2  -2 3067.62 77.4212   4
  -4  -2   2 3081.90 77.1817   8
  -4  -2   2 3118.69 77.6295  13
  -4  -2   2 2986.63 76.1930   5
   4  -2  -2 3032.44 77.1863  14
  -4  -2   2 3013.26 77.3248  16
  -4  -2   2 3001.86 76.7740  12
  -4  -2   2 3110.53 76.8965   1
   4   2  -2 3115.32 80.4437  10
   4   2  -2 3038.02 77.2012   4
  -4   2   2 3062.01 78.1654  11
  -4   2   2 3037.66 77.0621   5
  -4   2   2 2948.28 76.7418  12
   4   2  -2 3048.27 75.7939   6
  -4   2   2 3082.20 78.8626  16
  -4   2   2 3005.59 76.9926   8
   4   2  -2 2973.67 77.4039  12
   4   2  -2 2922.99 76.1790  14
  -4   2   2 2971.03 76.2251   1
   4   2  -2 3134.01 77.0086   2
   2  -2  -2 739.335 19.7655  14
  -2  -2   2 703.172 19.8261  13
   2  -2  -2 727.837 19.4162   4
   2  -2  -2 733.415 19.5686  12
  -2  -2   2 717.969 19.2893   7
  -2  -2   2 724.657 21.2809  10
  -2  -2   2 713.305 19.4124   3
   2  -2  -2 743.206 19.6253  10
  -2  -2   2 703.215 18.7238  16
  -2  -2   2 702.940 19.1680   8
  -2   2   2 776.051 20.5669  11
   2   2  -2 739.812 21.5169  10
  -2   2   2 769.583 20.7478  16
   2   2  -2 742.159 19.6476  12
  -2   2   2 771.483 19.8161  10
  -2   2   2 720.267 19.4843   1
  -2   2   2 763.037 19.5742   5
   2   2  -2 715.772 19.6134   2
   0  -2   2 7326.25 199.673   9
   0  -2   2 7159.37 196.666  15
   0  -2   2 7604.68 199.774   1
   0  -2  -2 8104.48 197.669  14
   0  -2  -2 8325.59 196.628  12
   0  -2  -2 8237.52 200.644   3
   0  -2   2 8434.37 201.526   7
   0  -2   2 7884.25 200.723   3
   0  -2   2 7758.06 199.230  13
   0   2   2 8314.78 202.148   1
   0   2   2 7438.02 199.665   6
   0   2   2 7815.34 198.724   9
   0   2   2 8077.86 204.851  11
   0   2  -2 7628.20 198.525  12
   0   2  -2 7685.65 199.209  16
   0   2   2 7844.39 200.659  15
   0   2   2 7743.82 199.222   2
  -2  -2  -2 8194.64 205.812   3
   2  -2   2 8281.99 211.911   9
  -2  -2  -2 7806.56 214.479  10
   2  -2   2 8160.52 205.465   3
  -2  -2  -2 7992.86 206.848  12
   2  -2   2 8243.86 210.638  15
  -2  -2  -2 8123.49 212.768  13
  -2  -2  -2 7920.62 201.893  14
   2  -2   2 8396.68 209.554   7
   2   2   2 7973.26 208.660   6
  -2   2  -2 8393.75 205.613   8
   2   2   2 7739.88 207.569   9
  -2   2  -2 8371.69 208.286   5
  -2   2  -2 8145.25 205.996  12
  -2   2  -2 8230.13 212.348  16
   2   2   2 7938.03 209.839  15
   4  -2   2 1466.21 39.5853   9
  -4  -2  -2 1468.28 39.2366   8
  -4  -2  -2 1455.38 38.8512  13
  -4  -2  -2 1434.52 38.0275  12
  -4  -2  -2 1454.52 41.1760  16
   4  -2   2 1447.55 39.3095   4
   4  -2   2 1469.95 38.6821  15
   4  -2   2 1417.13 38.8200   7
  -4   2  -2 1463.14 38.8359   5
  -4   2  -2 1446.17 37.9654   8
   4   2   2 1432.43 39.6545   9
   4   2   2 1435.90 39.4392  15
  -4   2  -2 1474.56 41.0089  16
   4   2   2 1454.07 38.6686   6
  -4   2  -2 1470.35 38.3202  12
   4   2   2 1424.10 38.0438   4
   4   2   2 1395.43 36.9817   7
   6  -2   2 962.982 29.1952   7
   6  -2   2 1010.54 29.1217  15
  -6  -2  -2 1041.27 30.1995   8
   6  -2   2 1018.30 30.6079   9
  -6  -2  -2 1033.04 29.9149   5
  -6  -2  -2 1045.31 32.9723  16
  -6  -2  -2 1009.27 29.0063  12
  -6   2  -2 1002.66 29.1155  12
   6   2   2 1058.67 30.6758  15
   6   2   2 1002.23 30.8170   9
   6   2   2 979.625 28.8113   4
  -6   2  -2 1015.43 29.7518   5
  -6   2  -2 997.941 28.6792   8
  -6   2  -2 1002.39 32.7840  16
   8  -2   2 630.323 22.5730   9
  -8  -2  -2 627.369 21.7033   5
  -8  -2  -2 604.553 21.5378   8
  -8  -2  -2 630.921 25.0962  16
  -8  -2  -2 626.779 21.1049  12
   8  -2   2 599.017 20.7043   7
  -8   2  -2 591.525 24.9545  16
  -8   2  -2 613.941 21.0364  12
   8   2   2 626.692 22.1815  15
   8   2   2 614.841 23.0097   9
  -8   2  -2 612.418 21.8513   5
 -10  -2  -2 327.532 15.1553   5
 -10  -2  -2 322.737 14.4397  12
  10   2   2 348.954 16.7073   9
 -10   2  -2 329.795 15.7410   5
 -11  -3   2 29.1630 4.49381   5
  11  -3  -2 28.1641 5.44688   4
  11  -3  -2 23.4421 4.41860   7
 -11  -3   2 36.6424 6.13027   8
 -11   3   2 33.9675 5.15259   8
 -11   3   2 32.8925 5.59988   5
  11   3  -2 37.7160 5.71230   9
  -9  -3   2 214.905 10.6908   8
  -9  -3   2 210.195 11.9668  16
   9  -3  -2 212.462 11.2395   4
  -9  -3   2 210.666 9.82468   5
  -9  -3   2 195.041 10.5306  13
  -9   3   2 208.718 10.1339   8
  -9   3   2 220.302 13.3224  16
   9   3  -2 230.444 11.6857   9
  -9   3   2 216.867 10.8425   5
   9   3  -2 210.940 10.2326   4
   9   3  -2 217.201 10.5808  15
  -7  -3   2 651.485 19.8373   5
  -7  -3   2 649.185 21.8753  16
   7  -3  -2 714.680 20.6711  14
   7  -3  -2 664.456 21.4854   4
  -7  -3   2 627.514 20.1947  12
  -7  -3   2 676.765 21.2035   8
  -7  -3   2 665.996 19.7050   1
   7  -3  -2 660.759 19.8468   9
  -7  -3   2 649.976 20.9921  13
  -7   3   2 659.749 20.8710   5
  -7   3   2 661.183 20.4046   8
  -7   3   2 673.129 23.6243  16
  -7   3   2 628.583 21.3328  11
   7   3  -2 643.485 20.4357   4
   7   3  -2 701.191 21.8410   9
   5  -3  -2 231.692 8.89089  12
   5  -3  -2 237.144 8.99757   4
  -5  -3   2 237.893 8.50888  12
  -5  -3   2 265.145 9.16036   8
   5  -3  -2 226.374 8.73781  14
   5  -3  -2 237.965 7.88940   9
  -5  -3   2 233.846 7.92517   5
  -5  -3   2 238.740 8.49321   1
  -5  -3   2 254.981 9.35319  16
   5  -3  -2 219.246 7.92973   3
  -5  -3   2 248.494 9.43869  13
  -5   3   2 225.332 7.51284   1
  -5   3   2 229.185 8.45980  12
   5   3  -2 238.559 7.52753  14
  -5   3   2 250.657 8.87927   5
   5   3  -2 238.464 8.63465   4
  -5   3   2 229.105 8.46583   8
   5   3  -2 241.435 11.7097  10
   5   3  -2 254.440 7.70822   6
  -5   3   2 245.399 9.46512  11
   5   3  -2 241.522 8.79669   2
  -5   3   2 259.178 10.7953  16
  -3  -3   2 968.775 26.9999   8
   3  -3  -2 1037.76 27.3192   4
   3  -3  -2 1038.70 27.6185  12
  -3  -3   2 1015.43 27.1085  12
   3  -3  -2 1054.91 27.4807   3
  -3  -3   2 1006.21 26.9334  16
  -3  -3   2 998.380 27.0195   3
  -3  -3   2 997.608 26.6630   7
   3  -3  -2 1058.86 27.6619  14
  -3  -3   2 1024.34 27.9738  13
  -3   3   2 1063.03 29.1102  16
   3   3  -2 987.388 27.2130   4
  -3   3   2 1108.57 28.4211  11
  -3   3   2 1017.34 27.1313   8
  -3   3   2 1048.48 27.0254   1
   3   3  -2 977.671 26.0084   6
  -3   3   2 1079.60 28.0862  10
   3   3  -2 981.687 29.9008  10
   3   3  -2 993.096 27.5925  12
  -3   3   2 1060.45 27.4652   5
  -3   3   2 1027.16 26.2303   2
   3   3  -2 995.378 27.4989   2
  -1  -3   2 2639.85 68.1549  13
   1  -3  -2 2687.20 68.3834   3
   1  -3  -2 2750.07 68.0280  14
  -1  -3   2 2805.22 67.9125   7
  -1  -3   2 2666.88 68.1160   3
   1  -3  -2 2704.90 69.9004  12
  -1  -3   2 2717.41 69.6804  10
  -1   3   2 2626.96 67.9643   6
   1   3  -2 2790.44 70.1896  10
  -1   3   2 2729.95 69.1003  11
   1   3  -2 2773.56 68.0752  12
  -1   3   2 2677.04 68.0305   5
   1   3  -2 2733.83 68.4037   2
  -1   3   2 2585.99 67.2852  15
  -1   3   2 2643.57 67.4850   2
  -1  -3  -2 950.452 24.7124  12
   1  -3   2 967.215 25.4276   7
   1  -3   2 980.370 25.7043   9
  -1  -3  -2 959.271 26.2388  13
  -1  -3  -2 949.889 25.5956  10
   1  -3   2 962.949 25.1629  15
  -1  -3  -2 924.284 24.0996  14
   1  -3   2 951.720 24.0749  13
  -1  -3  -2 936.978 25.1539   3
   1  -3   2 952.289 25.0026   3
  -1   3  -2 953.975 25.6454  16
  -1   3  -2 913.553 24.8721  12
   1   3   2 929.137 25.3693  15
  -1   3  -2 954.349 24.6761   5
   1   3   2 938.240 25.1604   9
   1   3   2 921.528 25.3531   2
   1   3   2 959.816 25.2086   6
   1   3   2 958.317 26.5802  11
   3  -3   2 1278.71 34.4852   9
   3  -3   2 1221.57 33.4084  15
  -3  -3  -2 1247.36 34.4189   8
   3  -3   2 1300.67 33.7898  14
  -3  -3  -2 1257.27 34.6129  13
  -3  -3  -2 1276.66 33.3431  12
  -3  -3  -2 1190.55 32.5738   3
   3  -3   2 1257.80 34.2039   7
   3  -3   2 1275.17 32.6131   3
   3   3   2 1259.10 33.8204   6
   3   3   2 1207.91 34.4378  15
   3   3   2 1277.74 34.5426   9
  -3   3  -2 1318.84 33.6216  12
  -3   3  -2 1304.51 33.7383   5
  -3   3  -2 1310.53 35.6731  16
  -3   3  -2 1268.11 32.6024   8
  -5  -3  -2 396.732 13.9254   8
  -5  -3  -2 416.846 13.3302  12
  -5  -3  -2 418.057 16.2336  16
   5  -3   2 395.211 14.2277   9
   5  -3   2 400.513 13.8891   7
  -5  -3  -2 382.434 13.5059  13
   5  -3   2 392.129 12.8500  15
  -5   3  -2 375.911 13.0367  12
   5   3   2 396.386 14.4983   9
   5   3   2 405.051 13.4571   6
  -5   3  -2 399.248 13.6102   5
  -5   3  -2 378.726 12.3486   8
   5   3   2 402.490 14.3361  15
  -5   3  -2 399.710 15.7821  16
  -7  -3  -2 35.9377 5.45991  16
  -7  -3  -2 36.3479 5.08664   8
   7  -3   2 40.4486 5.22650   9
   7  -3   2 36.7096 4.49648   7
  -7  -3  -2 29.5637 3.96243   5
  -7  -3  -2 40.5208 4.41392  12
  -7   3  -2 35.8253 4.79689   5
  -7   3  -2 36.9163 4.32477  12
   7   3   2 33.5534 4.92344  15
  -7   3  -2 33.0459 5.80116  16
  -9  -3  -2 174.349 10.6234   8
  -9  -3  -2 146.752 9.02780  12
   9  -3   2 164.419 10.5849   9
  -9  -3  -2 145.263 9.56774   5
  -9   3  -2 155.415 10.3639   5
   9   3   2 159.447 10.5548  15
   9   3   2 165.722 11.2201   9
  -9   3  -2 154.262 9.21677  12
 -10  -4   2 968.198 32.0939   8
  10  -4  -2 978.096 33.0200   4
  10  -4  -2 994.899 32.2035   7
 -10  -4   2 951.214 30.1391   5
 -10   4   2 1003.65 32.0039   5
  10   4  -2 1018.27 33.3887   9
  10   4  -2 1012.23 32.5233  15
   8  -4  -2 860.169 26.2983  14
  -8  -4   2 845.434 27.0663  13
   8  -4  -2 870.245 27.7629   4
  -8  -4   2 868.650 27.2370   8
  -8  -4   2 852.137 25.5806   5
  -8  -4   2 859.787 28.1754  16
  -8   4   2 862.732 26.6857   5
   8   4  -2 867.058 28.0051   9
  -8   4   2 865.728 30.2473  16
  -8   4   2 850.659 25.9684   8
   8   4  -2 849.430 26.0441   4
  -6  -4   2 2352.21 62.3611  16
   6  -4  -2 2319.94 61.4863  14
  -6  -4   2 2275.15 61.0743  12
  -6  -4   2 2250.13 60.1683   5
  -6  -4   2 2385.01 61.1480   1
   6  -4  -2 2344.28 62.0927   4
  -6  -4   2 2343.51 61.7318   8
  -6  -4   2 2417.85 62.5832  13
  -6   4   2 2356.33 61.6294   5
  -6   4   2 2321.43 64.5038  16
  -6   4   2 2296.77 60.8542   8
   6   4  -2 2357.41 61.9014   2
   6   4  -2 2271.54 60.8523   4
   6   4  -2 2366.30 62.6204   9
  -6   4   2 2243.49 61.8460  11
   6   4  -2 2324.71 66.5422  10
   6   4  -2 2393.41 59.7616   6
   4  -4  -2 6975.98 166.666  14
  -4  -4   2 6192.71 161.698   8
   4  -4  -2 6302.67 162.099   9
  -4  -4   2 6055.74 161.594  12
   4  -4  -2 6619.93 162.358  12
   4  -4  -2 6618.70 161.875   3
   4  -4  -2 6449.82 161.982   4
  -4  -4   2 6399.23 162.906  13
  -4  -4   2 6319.34 165.715   3
   4   4  -2 6264.51 161.560   4
  -4   4   2 6722.72 162.145   5
  -4   4   2 6737.47 164.515  16
  -4   4   2 6415.39 160.712   2
   4   4  -2 6519.45 165.954  10
   4   4  -2 6504.58 160.415   6
   4   4  -2 6359.49 162.347   2
   4   4  -2 6116.63 162.320  12
  -4   4   2 6737.21 161.634   8
  -4   4   2 6369.55 161.766  12
  -4   4   2 6864.32 166.144  11
   2  -4  -2 6907.89 174.173   3
  -2  -4   2 6599.98 172.078   8
   2  -4  -2 6826.99 170.144   4
  -2  -4   2 6644.80 176.666  13
   2  -4  -2 6697.63 172.727  12
  -2  -4   2 6798.52 169.162   7
  -2  -4   2 6640.01 175.824   3
  -2  -4   2 6705.68 167.070  12
   2  -4  -2 7054.98 175.507  14
  -2   4   2 6696.64 172.429   5
   2   4  -2 6835.84 174.475   2
   2   4  -2 6764.58 170.440   6
  -2   4   2 6595.68 178.754  11
   2   4  -2 6948.88 176.891  10
  -2   4   2 6577.92 178.247  16
   2   4  -2 6656.37 174.145  12
  -2   4   2 6411.82 169.623   2
   0  -4   2 5074.85 132.933  13
   0  -4  -2 5302.52 128.051  13
   0  -4   2 5221.50 131.177   7
   0  -4  -2 5007.57 127.819  10
   0  -4  -2 5133.35 131.800  14
   0  -4  -2 5225.44 130.147   3
   0  -4  -2 5048.96 128.567  12
   0  -4   2 4933.57 129.350   3
   0   4  -2 5299.68 127.378   2
   0   4  -2 5061.82 131.304  12
   0   4   2 5112.84 132.329  11
   0   4  -2 5311.13 134.674  10
   0   4  -2 4642.60 129.302  16
   0   4   2 4960.09 128.679   2
   0   4  -2 4871.68 127.153   5
   0   4   2 5024.73 126.733   6
  -2  -4  -2 3133.60 80.7971   3
  -2  -4  -2 3318.88 82.5779  13
   2  -4   2 3174.92 80.7706   3
   2  -4   2 3182.24 81.7211   9
   2  -4   2 3189.27 80.7660  15
   2  -4   2 3219.31 81.5695   7
  -2  -4  -2 3103.82 82.2336  10
  -2  -4  -2 3266.89 80.8205  12
   2  -4   2 3190.61 81.2870  14
  -2   4  -2 3303.52 82.5822  16
  -2   4  -2 3180.44 80.7581   5
  -2   4  -2 3146.01 81.0866  12
   2   4   2 3202.57 81.7707  15
   2   4   2 3218.71 81.1775   6
   2   4   2 3222.92 81.7997   2
   2   4   2 3131.88 81.4500   9
   4  -4   2 2359.56 60.4163  14
   4  -4   2 2281.86 59.5779  15
   4  -4   2 2411.43 61.2418   7
  -4  -4  -2 2230.45 61.3576  13
  -4  -4  -2 2278.53 60.1506  12
  -4  -4  -2 2283.47 61.2172   8
   4  -4   2 2303.49 61.0320   9
  -4   4  -2 2393.90 63.0441  16
   4   4   2 2283.49 60.3104   6
   4   4   2 2251.35 61.4860  15
  -4   4  -2 2309.74 60.3275  12
   4   4   2 2285.78 61.4689   9
  -4   4  -2 2379.09 60.4676   5
  -6  -4  -2 2338.82 63.3326  13
   6  -4   2 2275.74 63.2677   7
  -6  -4  -2 2335.90 63.1470   5
  -6  -4  -2 2372.63 63.8994   8
   6  -4   2 2404.59 63.9048   9
  -6  -4  -2 2304.37 66.3833  16
  -6   4  -2 2274.83 62.6168  12
  -6   4  -2 2335.67 62.9778   5
  -6   4  -2 2263.29 66.3331  16
   6   4   2 2417.70 64.8933   9
   6   4   2 2397.47 62.7837   6
   6   4   2 2444.58 64.7509  15
  -8  -4  -2 1322.43 40.5069   8
  -8  -4  -2 1329.69 39.7960   5
  -8  -4  -2 1356.13 39.4239  12
  -8  -4  -2 1294.14 43.4579  16
   8  -4   2 1355.49 40.4617   9
   8  -4   2 1347.71 40.1199   7
  -8   4  -2 1294.39 39.8709   5
   8   4   2 1364.20 42.0437   9
  -8   4  -2 1305.36 44.2144  16
  -8   4  -2 1295.70 39.4047  12
   8   4   2 1391.11 41.5638  15
  11  -5  -2 456.534 19.0309   7
 -11  -5   2 437.973 18.9967   8
  11  -5  -2 458.468 19.8940   4
  11   5  -2 451.841 20.0291   9
  11   5  -2 437.725 18.9614  15
 -11   5   2 443.751 18.6412   5
   9  -5  -2 544.810 20.2921   7
   9  -5  -2 523.648 18.9728  14
  -9  -5   2 526.365 18.1914   5
  -9  -5   2 555.208 20.4009   8
   9  -5  -2 557.742 20.7732   4
  -9  -5   2 512.586 19.7415  13
   9   5  -2 565.036 21.5298   9
  -9   5   2 547.898 20.0195   5
  -9   5   2 527.004 22.9768  16
   7  -5  -2 801.870 26.1109   4
   7  -5  -2 850.029 25.8367  14
  -7  -5   2 857.546 26.2560   8
  -7  -5   2 855.986 25.3071   1
  -7  -5   2 835.021 26.5599  16
  -7  -5   2 839.431 26.7791  13
   7   5  -2 895.134 27.4772   9
  -7   5   2 826.937 28.9394  16
  -7   5   2 832.459 25.8079   5
  -7   5   2 826.051 24.8483   8
  -5  -5   2 1954.34 53.4044  13
  -5  -5   2 1938.72 52.1549   8
  -5  -5   2 1898.03 52.2592  16
   5  -5  -2 1996.55 51.8612   3
  -5  -5   2 1878.78 50.6808   5
  -5  -5   2 1911.09 51.9008  12
  -5  -5   2 1911.92 51.2439   3
   5  -5  -2 2030.64 52.6800  14
   5  -5  -2 2026.19 52.5937   4
   5   5  -2 1891.30 51.3460   4
   5   5  -2 1957.96 52.8695   2
  -5   5   2 2048.82 52.5146   5
  -5   5   2 2039.01 55.4163  16
  -5   5   2 2040.76 52.4657  11
   5   5  -2 1972.61 56.8526  10
  -5   5   2 2002.49 50.9081   2
   5   5  -2 1955.99 50.4617   6
   3  -5  -2 3694.49 92.2533  14
   3  -5  -2 3566.55 92.1755   3
   3  -5  -2 3767.07 92.4508  13
  -3  -5   2 3635.13 91.7193  12
  -3  -5   2 3728.63 93.0310  13
  -3  -5   2 3576.92 91.3183   8
   3  -5  -2 3664.07 91.4387   4
  -3  -5   2 3630.04 90.6898   7
  -3  -5   2 3671.33 91.8880   3
   3  -5  -2 3601.47 92.3402  12
   3   5  -2 3548.66 90.3645   6
   3   5  -2 3585.52 92.5546   2
  -3   5   2 3670.31 94.3603  16
  -3   5   2 3631.99 91.7398  10
   3   5  -2 3595.29 92.4473  12
  -3   5   2 3568.66 91.0066   2
   3   5  -2 3628.14 95.2483  10
   3   5  -2 3612.75 91.3546   4
  -3   5   2 3556.50 91.8471   5
  -3   5   2 3489.30 92.3937  11
  -1  -5   2 3439.49 86.3771   7
   1  -5  -2 3501.05 87.4584   3
  -1  -5   2 3442.03 87.1973  13
  -1  -5   2 3374.54 87.0510   3
   1  -5  -2 3491.52 87.1241  12
   1  -5  -2 3385.18 87.8288  13
  -1  -5   2 3279.76 85.2622   8
   1  -5  -2 3497.75 86.6430  14
   1  -5  -2 3474.94 85.9538   4
  -1   5   2 3300.09 86.4294   2
   1   5  -2 3407.01 87.1099  12
  -1   5   2 3493.18 88.1739  11
   1   5  -2 3438.32 85.9472   6
  -1   5   2 3407.77 86.8575   6
   1   5  -2 3480.09 89.4343  10
   1   5  -2 3480.18 87.5815   2
  -1  -5  -2 1898.34 49.6019  13
   1  -5   2 1867.38 48.1285   3
  -1  -5  -2 1797.83 47.3787  10
  -1  -5  -2 1878.84 48.0202  12
  -1  -5  -2 1823.35 48.2344   3
   1  -5   2 1849.84 48.2027   7
  -1  -5  -2 1811.34 46.6370  14
   1  -5   2 1875.83 47.0819  13
  -1   5  -2 1843.76 47.1579   5
   1   5   2 1849.49 48.0205   6
  -1   5  -2 1800.86 48.5315  16
  -1   5  -2 1823.92 48.1455  12
   1   5   2 1871.96 48.4242   2
  -1   5  -2 1811.16 50.3510  10
   1   5   2 1823.28 47.8522   9
  -1   5  -2 1863.50 48.6833   2
   3  -5   2 1577.96 42.7222   9
   3  -5   2 1561.73 42.6809   7
  -3  -5  -2 1568.61 41.5049   3
   3  -5   2 1576.91 42.4625  14
   3  -5   2 1562.34 41.5145   3
  -3  -5  -2 1562.09 42.9061   8
  -3  -5  -2 1541.71 41.9643  12
  -3  -5  -2 1627.13 43.9261  13
  -3   5  -2 1577.59 42.8269   2
  -3   5  -2 1562.69 42.3019  12
   3   5   2 1620.00 42.2366   6
   3   5   2 1576.32 43.1492  15
  -3   5  -2 1566.52 44.0119  16
  -3   5  -2 1594.76 41.9127   5
   3   5   2 1564.08 42.9128   9
   3   5   2 1591.19 43.2425   2
   5  -5   2 1757.89 45.2766   7
  -5  -5  -2 1529.27 45.1948  13
  -5  -5  -2 1642.01 48.0135  16
   5  -5   2 1611.19 44.7128   9
  -5  -5  -2 1527.91 43.7595  12
  -5  -5  -2 1531.85 44.8704   8
   5   5   2 1572.51 43.8835   6
  -5   5  -2 1647.54 44.2094   5
   5   5   2 1636.60 45.8200  15
   5   5   2 1580.84 45.5496   9
  -5   5  -2 1652.54 47.4025  16
  -5   5  -2 1582.78 44.2371  12
   7  -5   2 889.354 28.8170   7
  -7  -5  -2 872.808 31.4349  16
  -7  -5  -2 900.103 27.7452  12
  -7  -5  -2 914.411 28.2161   5
  -7  -5  -2 915.756 29.0039   8
   7  -5   2 879.651 28.3056   9
  -7   5  -2 846.344 31.2429  16
  -7   5  -2 871.946 27.9468  12
  -7   5  -2 883.524 27.9862   5
   7   5   2 869.564 27.3405   6
   7   5   2 875.244 29.5240   9
   7   5   2 898.496 29.7120  15
  -9  -5  -2 404.145 17.7477   8
  -9  -5  -2 410.677 17.0927   5
  -9  -5  -2 410.232 16.8677  12
   9  -5   2 427.429 17.7896   9
   9  -5   2 410.957 17.5151   7
   9   5   2 451.426 19.5447  15
   9   5   2 438.291 19.4865   9
  -9   5  -2 404.675 17.0774   5
  10  -6  -2 46.0795 6.93739   4
  10  -6  -2 55.6442 6.59003   7
 -10  -6   2 48.2189 6.03923   8
 -10   6   2 43.2593 6.07998   5
  10   6  -2 54.9664 7.18243   9
  10   6  -2 62.7722 7.82314  15
   8  -6  -2 242.619 11.1967  14
  -8  -6   2 229.064 11.9223  13
   8  -6  -2 235.560 11.8732   4
  -8  -6   2 245.502 11.4025   8
   8   6  -2 254.372 12.8148   9
  -8   6   2 226.952 10.9340   5
  -8   6   2 222.679 13.6888  16
  -6  -6   2 224.617 10.0997  16
   6  -6  -2 253.756 10.5872   4
   6  -6  -2 235.062 9.43015   3
   6  -6  -2 241.833 10.4210  14
  -6  -6   2 241.503 11.3111  13
  -6  -6   2 239.245 10.1695   8
  -6  -6   2 218.915 8.55970   5
  -6  -6   2 241.224 9.06405   3
  -6   6   2 266.739 13.1148  16
  -6   6   2 271.751 10.8405   5
   6   6  -2 232.290 10.8240   2
   6   6  -2 239.679 13.0691  10
  -4  -6   2 82.6991 4.47866   3
   4  -6  -2 67.5950 4.59571   3
  -4  -6   2 74.6837 5.46292  13
   4  -6  -2 69.6323 4.60513  12
  -4  -6   2 71.8317 4.17783  12
   4  -6  -2 70.6609 4.31157   4
  -4  -6   2 74.1948 4.39969   8
   4  -6  -2 76.8516 5.05448  14
   4  -6  -2 67.6271 4.14290  13
   4   6  -2 73.9723 6.11586  10
   4   6  -2 71.6560 4.85237   2
   4   6  -2 71.3367 3.48552   6
  -4   6   2 94.4396 4.99844  11
  -4   6   2 87.4927 6.28633  16
  -4   6   2 70.7018 4.51496   5
  -4   6   2 71.5037 3.93421   2
   4   6  -2 82.4446 4.03079   4
  -2  -6   2 189.110 8.05027  13
  -2  -6   2 191.582 7.71013   3
   2  -6  -2 187.205 7.85331  13
   2  -6  -2 190.648 7.73943  12
   2  -6  -2 182.822 7.40945  14
   2  -6  -2 170.184 6.25781   4
  -2  -6   2 184.326 6.56414   7
   2  -6  -2 203.591 8.08253   3
  -2  -6   2 184.892 6.42869   8
  -2   6   2 201.919 5.89801  10
   2   6  -2 196.545 8.30935   2
  -2   6   2 185.319 5.74212  10
   2   6  -2 201.274 9.47560  10
  -2   6   2 180.004 7.88408  11
  -2   6   2 191.825 7.07336   2
  -2   6   2 190.306 7.50606   5
  -2   6   2 188.164 7.57279   6
   2   6  -2 186.671 6.40452   6
   2   6  -2 192.083 7.76878  12
   0  -6  -2 461.067 15.3757  13
   0  -6  -2 448.242 14.2617  12
   0  -6  -2 459.278 14.6782   3
   0  -6   2 451.573 14.0010  13
   0  -6  -2 448.966 13.3512  14
   0  -6   2 442.459 13.8513   7
   0  -6   2 450.641 14.4666   3
   0  -6  -2 440.672 12.4970   7
   0   6   2 473.795 14.2050   6
   0   6  -2 464.571 14.4552  12
   0   6  -2 452.669 16.1864  10
   0   6  -2 467.500 15.0873   2
   0   6  -2 451.028 12.8952   5
   0   6   2 462.588 14.2451   2
   2  -6   2 609.362 18.5596   3
  -2  -6  -2 647.269 18.8296   3
  -2  -6  -2 639.938 18.8415  12
   2  -6   2 628.351 19.1100   7
  -2  -6  -2 636.084 20.3491  13
  -2   6  -2 605.109 19.6408  16
  -2   6  -2 613.888 17.9032   5
   2   6   2 622.779 18.6558   6
   2   6   2 599.724 19.2086   2
   2   6   2 607.657 18.7774   9
  -2   6  -2 603.913 19.1953   2
  -2   6  -2 627.154 18.9962  12
  -4  -6  -2 242.104 9.93153  12
  -4  -6  -2 251.301 10.5980   8
   4  -6   2 261.459 10.8839   7
  -4  -6  -2 254.897 11.5853  13
   4  -6   2 254.564 10.5000   9
  -4   6  -2 258.896 10.4237  12
  -4   6  -2 245.256 9.82845   5
  -4   6  -2 244.101 10.5497   2
  -4   6  -2 254.364 11.9110  16
   4   6   2 255.606 10.1278   6
   4   6   2 258.385 10.9901   9
   4   6   2 266.789 11.2094  15
   6  -6   2 21.3058 3.90483   9
  -6  -6  -2 15.9423 3.10198  12
  -6  -6  -2 16.9407 3.84173  13
  -6  -6  -2 20.6547 4.15672   8
  -6  -6  -2 17.5049 4.37470  16
   6  -6   2 14.8952 3.79592   7
  -6   6  -2 12.2045 3.20604   5
  -6   6  -2 20.7886 4.72362  16
  -6   6  -2 16.7525 3.55415   2
  -6   6  -2 14.4649 2.99096  12
   6   6   2 19.8340 3.57420   6
   6   6   2 17.5724 4.03631   9
   6   6   2 18.0691 4.21594  15
   8  -6   2 32.6081 5.33260   7
  -8  -6  -2 34.0654 4.54700   5
  -8  -6  -2 36.3235 4.91313  12
  -8  -6  -2 47.4162 6.43849   8
   8  -6   2 30.2662 5.02146   9
  -8   6  -2 32.5620 5.08171   5
   8   6   2 36.1687 6.19691   9
  -8   6  -2 30.9749 4.58022   2
   8   6   2 43.0733 6.98684  15
  -9  -7   2 843.613 28.3868   8
   9  -7  -2 829.530 28.7936   4
   9  -7  -2 826.362 28.7507   7
  -9   7   2 833.713 28.1765   5
   9   7  -2 865.998 30.1379   9
   7  -7  -2 1165.19 35.0938  14
  -7  -7   2 1122.31 34.3982   1
  -7  -7   2 1139.36 36.2126  13
  -7  -7   2 1138.96 34.7146   8
   7  -7  -2 1203.37 35.6781   7
   7  -7  -2 1174.71 35.2892   4
   7   7  -2 1172.80 35.9290   2
   7   7  -2 1162.01 36.4939   9
  -7   7   2 1214.34 35.0639   5
  -7   7   2 1201.26 38.9591  16
  -5  -7   2 1643.83 45.5527  13
   5  -7  -2 1564.60 43.4102   4
  -5  -7   2 1576.07 43.3026   8
   5  -7  -2 1560.00 43.5528   3
  -5  -7   2 1614.79 43.1170   3
   5  -7  -2 1562.61 44.0477  14
  -5   7   2 1555.38 47.0251  16
   5   7  -2 1583.38 44.9156   2
  -5   7   2 1560.81 43.6742   5
   5   7  -2 1566.88 48.1396  10
   3  -7  -2 1111.89 31.9238   3
   3  -7  -2 1089.05 31.8007  12
   3  -7  -2 1103.52 31.6962  13
  -3  -7   2 1066.05 30.2197   8
   3  -7  -2 1100.62 30.2940   4
  -3  -7   2 1131.33 31.6027   3
   3  -7  -2 1145.80 31.7143  14
  -3  -7   2 1149.76 32.7361  13
  -3   7   2 1154.02 31.5440   5
  -3   7   2 1091.66 31.7301  11
   3   7  -2 1171.13 32.7001   2
   3   7  -2 1133.49 34.8146  10
   3   7  -2 1098.05 29.7444   6
  -3   7   2 1112.36 30.6780   2
  -1  -7   2 1624.81 44.1697  13
   1  -7  -2 1620.49 44.9057  13
   1  -7  -2 1595.19 43.1748  14
  -1  -7   2 1649.16 44.1897   3
  -1  -7   2 1642.69 42.9026   7
   1  -7  -2 1626.87 44.3364   3
   1  -7  -2 1553.59 43.8961  12
   1  -7  -2 1611.20 42.3553   7
  -1   7   2 1650.34 43.7722   6
  -1   7   2 1632.96 45.0468  11
   1   7  -2 1658.26 44.8499   2
   1   7  -2 1629.24 42.6864   6
   1   7  -2 1641.44 44.2337  12
  -1   7   2 1640.83 43.5928   2
   1   7  -2 1651.45 46.4961  10
  -1  -7  -2 3026.99 78.7482  14
  -1  -7  -2 3139.39 81.0636   3
   1  -7   2 3107.65 79.6411  13
  -1  -7  -2 3264.95 82.7775  13
   1  -7   2 3128.25 80.8672   3
  -1  -7  -2 3184.72 80.8996  12
   1  -7   2 3211.77 80.6817   7
   1   7   2 3134.52 80.4855   6
   1   7   2 3115.26 81.0713   2
  -1   7  -2 3054.77 79.1322   5
  -1   7  -2 3054.09 83.2753  10
  -1   7  -2 2997.98 80.9335  12
  -1   7  -2 3166.75 81.5113   2
   3  -7   2 1652.36 45.0252   3
  -3  -7  -2 1661.73 45.4344  12
  -3  -7  -2 1720.35 47.7491  13
  -3  -7  -2 1659.09 46.1143   8
   3  -7   2 1685.72 46.0607   7
   3   7   2 1692.70 45.2333   6
   3   7   2 1702.97 46.1252   9
   3   7   2 1664.74 46.5205   2
  -3   7  -2 1642.95 44.5426   5
  -3   7  -2 1590.14 46.9784  16
  -3   7  -2 1609.59 45.6321  12
  -3   7  -2 1659.21 46.0888   2
  -5  -7  -2 799.631 25.4867  12
  -5  -7  -2 817.327 26.4870   8
  -5  -7  -2 853.120 29.0057  16
  -5  -7  -2 814.006 27.3867  13
   5  -7   2 811.324 25.7810   9
   5  -7   2 802.920 26.3422   7
   5   7   2 883.630 27.5935  15
  -5   7  -2 790.992 25.6422  12
   5   7   2 827.303 25.2428   6
   5   7   2 831.259 26.9245   9
  -5   7  -2 768.169 27.7755  16
  -5   7  -2 813.609 26.0406   2
  -5   7  -2 807.232 25.0652   5
  -7  -7  -2 606.280 21.6744   5
  -7  -7  -2 623.468 25.5107  16
  -7  -7  -2 625.381 21.9845  12
  -7  -7  -2 614.365 23.1702   8
   7  -7   2 646.688 23.2521   7
   7   7   2 647.548 21.7651   6
  -7   7  -2 633.314 21.7251   5
  -7   7  -2 653.053 22.4512   2
   7   7   2 655.084 24.2004  15
   7   7   2 605.635 23.6339   9
  -7   7  -2 609.703 24.9741  16
   8  -8  -2 347.959 15.3346   7
  -8  -8   2 303.199 15.1740  13
  -8  -8   2 305.494 13.8628   8
   8  -8  -2 323.633 14.3964  14
   8   8  -2 333.733 15.9600   9
  -8   8   2 321.110 17.5283  16
  -8   8   2 329.945 14.2039   5
  -6  -8   2 341.952 13.5617   8
   6  -8  -2 346.520 13.8269   4
   6  -8  -2 345.999 13.4515   3
   6  -8  -2 366.223 14.5913   7
   6  -8  -2 360.661 14.3895  14
  -6  -8   2 354.697 13.0545   3
  -6  -8   2 345.558 15.3984  13
  -6   8   2 338.454 16.3631  16
   6   8  -2 357.200 14.9355   2
  -6   8   2 361.670 13.8594   5
   4  -8  -2 557.328 18.4191   3
   4  -8  -2 530.483 17.7522   7
   4  -8  -2 529.535 18.0183  14
  -4  -8   2 517.848 16.9036   8
  -4  -8   2 534.804 17.7823   3
  -4  -8   2 546.817 19.3358  13
   4   8  -2 551.378 19.1250   2
  -4   8   2 551.524 18.0729   5
   4   8  -2 521.957 20.6802  10
   2  -8  -2 1367.35 39.2002  12
   2  -8  -2 1391.59 39.5535  13
  -2  -8   2 1396.78 39.8015  13
   2  -8  -2 1353.79 39.4827   3
  -2  -8   2 1425.68 39.3810   3
   2  -8  -2 1408.96 38.6947  14
   2   8  -2 1397.91 41.9450  10
   2   8  -2 1385.11 39.9119   2
   2   8  -2 1434.17 37.4243   6
  -2   8   2 1451.27 39.0987   6
   0  -8  -2 520.742 18.3622  13
   0  -8   2 516.431 17.3145   3
   0  -8  -2 517.361 15.8897  14
   0  -8  -2 507.526 17.1435  12
   0  -8   2 515.177 16.3833   7
   0  -8  -2 520.639 17.6601   3
   0  -8   2 517.462 16.7250  13
   0   8   2 544.090 17.0842   6
   0   8  -2 502.627 17.0870  12
   0   8   2 529.012 17.0913   2
   0   8  -2 559.571 18.2914   2
   0   8  -2 516.667 16.1334   6
   0   8  -2 508.919 18.9420  10
  -2  -8  -2 308.832 11.8708  12
  -2  -8  -2 311.257 12.0337   3
  -2  -8  -2 317.472 13.5891  13
   2  -8   2 312.017 11.8941   3
   2  -8   2 313.111 11.9373   7
  -2   8  -2 295.057 13.5692  10
   2   8   2 327.751 11.8232   6
   2   8   2 307.275 12.3415   2
   2   8   2 291.623 11.4320   9
  -2   8  -2 285.424 10.3298   5
  -2   8  -2 288.957 11.8115  12
  -2   8  -2 277.149 12.0358  16
  -4  -8  -2 654.683 23.2135  13
  -4  -8  -2 619.193 20.9240  12
   4  -8   2 633.446 21.6417   7
  -4  -8  -2 660.755 21.8054   8
   4   8   2 629.606 21.6488   9
   4   8   2 648.540 20.8090   6
  -4   8  -2 653.734 21.6677   2
  -4   8  -2 603.281 22.5903  16
   4   8   2 662.349 22.1189  15
  -4   8  -2 593.971 23.8879  10
  -4   8  -2 638.643 21.4843  12
  -4   8  -2 637.158 20.1360   5
  -6  -8  -2 288.405 12.8776  12
  -6  -8  -2 299.480 15.4143  16
   6  -8   2 294.680 13.8952   7
  -6  -8  -2 294.951 14.2892  13
  -6  -8  -2 290.884 13.6715   8
  -6   8  -2 279.457 15.1333  16
   6   8   2 299.882 14.2852   9
   6   8   2 315.213 14.7718  15
  -6   8  -2 289.704 13.2065   2
  -6   8  -2 282.636 12.6225   5
   6   8   2 291.736 12.6505   6
  -8  -8  -2 275.934 14.0973   8
   8  -8   2 259.118 13.6592   7
  -8  -8  -2 235.206 12.0184   5
  -8   8  -2 259.859 12.8280   5
   8   8   2 276.184 14.6520   9
   8   8   2 238.240 13.7969  15
   8   8   2 245.805 11.5268   6
  -9  -9   2 20.9709 4.77961   8
   9  -9  -2 19.6443 5.00870   7
   9   9  -2 20.3264 4.73466   9
  -9   9   2 26.9386 5.37832   5
  -7  -9   2 4.10355 3.46769  13
   7  -9  -2 8.94904 3.87199   7
   7  -9  -2 2.36408 2.74844  14
  -7  -9   2 11.9464 3.58087   8
   7   9  -2 8.02512 3.86600   9
   7   9  -2 10.0715 4.33332   2
  -7   9   2 6.62300 3.45407   5
  -7   9   2 1.88748 3.66048  16
  -5  -9   2 298.982 12.1556   3
   5  -9  -2 304.152 12.8013   7
   5  -9  -2 300.717 12.7680   3
  -5  -9   2 286.477 11.7871   8
   5  -9  -2 315.734 13.1556  14
  -5  -9   2 303.688 14.1169  13
  -5   9   2 300.232 12.7251   5
   5   9  -2 299.392 13.8983   2
   3  -9  -2 303.608 12.1290  13
  -3  -9   2 314.621 12.6793   3
   3  -9  -2 301.730 12.2350  14
   3  -9  -2 326.411 13.2291   3
  -3  -9   2 306.074 13.0772  13
   3  -9  -2 310.861 11.7466   7
  -3   9   2 305.818 11.5305   2
   3   9  -2 320.026 13.6710   2
  -3   9   2 296.341 12.2942   6
   1  -9  -2 93.6053 5.55612  14
   1  -9  -2 93.3357 6.64823  13
  -1  -9   2 96.4064 6.51933   3
  -1  -9   2 102.985 6.41614  13
   1  -9  -2 97.7363 6.95016   3
  -1  -9   2 97.9556 5.21071   7
   1  -9  -2 89.5641 5.99543  12
   1   9  -2 97.0030 6.68499   2
   1   9  -2 100.280 5.39149   6
  -1   9   2 94.2300 6.03697   2
  -1   9   2 92.0539 5.75233   6
   1  -9   2 141.032 7.29392   7
   1  -9   2 149.638 7.77790   3
  -1  -9  -2 135.146 7.75817   3
  -1  -9  -2 141.301 7.73156  12
  -1  -9  -2 140.235 8.50519  13
   1   9   2 135.697 7.77647   2
  -1   9  -2 135.904 8.38732   2
   1   9   2 140.511 7.50885   6
   3  -9   2 9.55793 3.27617   7
  -3  -9  -2 15.2134 3.05572  12
  -3  -9  -2 10.7096 3.04491   3
   3  -9   2 5.18143 2.24961   3
  -3  -9  -2 9.54536 3.05521   8
  -3  -9  -2 11.8379 3.36395  13
  -3   9  -2 11.6295 3.47112   2
   3   9   2 9.68942 3.31107   2
   3   9   2 13.6965 3.24736  15
   3   9   2 12.1054 3.06546   9
   3   9   2 11.6663 3.01155   6
   5  -9   2 88.7987 7.69365   7
  -5  -9  -2 97.4547 7.11915  12
  -5  -9  -2 99.0049 8.73331  13
  -5  -9  -2 88.8720 7.50802   8
  -5  -9  -2 96.7271 8.43134  16
   5   9   2 98.9090 7.60272  15
   5   9   2 91.2897 6.93381   6
  -5   9  -2 95.7438 7.64982   2
  -5   9  -2 92.4269 6.69400   5
   5   9   2 102.565 7.82807   9
  -7  -9  -2 275.889 14.3733   8
   7  -9   2 287.943 14.4067   7
  -7  -9  -2 291.444 13.1226   5
   7   9   2 287.567 15.1125  15
   7   9   2 277.717 14.5641   9
   7   9   2 282.971 12.8848   6
   8 -10  -2 1029.97 34.1066   7
  -8 -10   2 1016.53 32.5957   8
  -8  10   2 1024.50 33.0433   5
   8  10  -2 1048.85 35.3818   9
   6 -10  -2 995.948 31.2953   7
  -6 -10   2 964.038 32.9470  13
   6 -10  -2 941.934 31.0588  14
  -6 -10   2 947.363 29.8328   3
  -6  10   2 963.118 30.6130   5
   6  10  -2 1006.05 32.8878   2
   4 -10  -2 840.095 26.5716   7
  -4 -10   2 880.199 28.9757  13
   4 -10  -2 841.882 27.7522   3
  -4 -10   2 853.408 27.2022   3
   4 -10  -2 825.803 27.1354  14
  -4  10   2 868.173 26.8318   5
  -4  10   2 844.093 27.1393   6
   4  10  -2 884.835 28.8745   2
   2 -10  -2 1751.56 48.7794  14
   2 -10  -2 1712.69 49.9181  13
   2 -10  -2 1768.11 50.5441   3
  -2 -10   2 1807.16 50.0949   3
  -2  10   2 1812.62 49.4908   6
   2  10  -2 1796.13 50.7496   2
  -2  10   2 1745.32 48.8259   2
   0 -10   2 1306.53 36.3740   7
   0 -10  -2 1250.77 37.7316  12
   0 -10   2 1301.28 38.1463   3
   0 -10  -2 1320.41 39.5633  13
   0 -10  -2 1320.52 38.6866   3
   0  10   2 1296.35 37.2336   6
   0  10   2 1273.05 37.5276   2
   0  10  -2 1247.56 36.0029   6
   0  10  -2 1275.71 38.4766   2
  -2 -10  -2 1162.93 35.4936  12
   2 -10   2 1191.15 35.1736   7
  -2 -10  -2 1196.77 35.4300   8
  -2 -10  -2 1218.03 37.9737  13
   2 -10   2 1176.47 35.5543   3
  -2 -10  -2 1171.45 35.7420   3
   2  10   2 1210.62 36.2773   2
  -2  10  -2 1192.63 36.3286   2
   2  10   2 1230.79 35.1425   6
   2  10   2 1121.87 34.6888  15
  -4 -10  -2 1398.78 45.2647  13
   4 -10   2 1476.95 43.4940   7
  -4 -10  -2 1445.37 43.2304   8
  -4  10  -2 1477.71 43.6463   2
   4  10   2 1483.93 42.3275   6
   4  10   2 1501.75 43.9709  15
   4  10   2 1443.11 43.1892   9
  -6 -10  -2 543.869 21.0588   8
   6 -10   2 544.265 21.2533   7
   6  10   2 537.008 21.6276  15
   6  10   2 509.071 19.1605   6
   6  10   2 525.694 20.9331   9
  -7 -11   2 359.913 16.6269   1
   7 -11  -2 348.628 15.4484   7
  -7  11   2 343.695 15.3701   5
   7  11  -2 354.983 16.6807   9
   7  11  -2 359.386 17.4855   2
  -7  11   2 343.778 15.7228   6
  -5 -11   2 551.057 22.3551  13
   5 -11  -2 538.473 20.7586  14
  -5 -11   2 547.833 19.8935   3
   5 -11  -2 527.694 20.0498   3
   5  11  -2 578.576 22.1122   2
  -5  11   2 553.513 20.0990   6
  -3 -11   2 203.959 11.0697  13
  -3 -11   2 210.515 11.1217   3
   3 -11  -2 209.816 10.4628  14
   3 -11  -2 200.795 11.1954   3
   3  11  -2 216.616 11.9848   2
  -3  11   2 204.286 10.7195   6
   1 -11  -2 315.892 14.1462   3
   1 -11  -2 301.004 13.4996  13
  -1 -11   2 267.403 12.6295  13
  -1 -11   2 301.200 13.6037   3
  -1  11   2 306.052 12.7574   6
  -1  11   2 281.560 12.3965   2
   1  11  -2 311.070 14.2256   2
  -1 -11  -2 1040.45 33.2671   8
  -1 -11  -2 1132.10 36.2631  13
  -1 -11  -2 1189.94 35.4365   3
   1 -11   2 1099.57 33.1030   7
   1 -11   2 1091.39 34.4971   3
   1  11   2 1103.33 34.4031   2
  -1  11  -2 1128.59 32.9514   6
   1  11   2 1131.41 33.5262   6
  -1  11  -2 1138.33 35.2896   2
  -3 -11  -2 480.620 20.6450  13
  -3 -11  -2 491.592 18.7542   8
   3 -11   2 479.734 18.6436   7
  -3 -11  -2 511.980 19.0707   3
   3 -11   2 507.082 18.8247   3
   3  11   2 520.148 20.0984   2
   3  11   2 499.596 18.7901  15
   3  11   2 507.004 18.1484   6
  -3  11  -2 497.746 19.6349   2
  -5 -11  -2 174.067 10.7189   8
   5 -11   2 176.981 10.5482   7
   5  11   2 169.122 9.27811   6
   5  11   2 160.967 10.4138  15
  -5  11  -2 197.537 16.5194   2
   6 -12  -2 123.831 9.06144   7
  -6  12   2 117.702 8.48866   6
   6  12  -2 118.464 10.1134   2
   6  12  -2 116.280 8.87820   9
  -4 -12   2 93.7473 8.23256   3
   4 -12  -2 96.6128 7.66161   3
   4  12  -2 94.6096 8.81211   2
  -4  12   2 90.3808 7.25697   6
   2 -12  -2 317.068 15.0049   3
  -2 -12   2 333.194 14.6682   3
  -2 -12   2 325.664 14.5134  13
   2 -12  -2 297.318 13.2211  14
  -2  12   2 334.768 14.3390   6
   2  12  -2 343.124 15.8873   2
   0 -12  -2 163.176 10.0484  13
   0 -12  -2 149.736 10.5333   3
   0 -12   2 163.715 9.71067   3
   0  12   2 143.802 9.00744   2
   0  12  -2 166.868 10.6154   2
   0  12   2 162.220 9.48435   6
  -2 -12  -2 90.4775 8.18723   3
   2 -12   2 101.071 7.84394   3
  -2  12  -2 102.866 8.48161   2
   2  12   2 97.0374 7.95638   2
   2  12   2 96.3313 6.87381   6
  -2  12  -2 102.272 7.44277   6
   4 -12   2 246.181 12.8476   7
  -4 -12  -2 239.706 12.2720   8
  -4  12  -2 227.439 11.9889   6
  -4  12  -2 237.053 12.6432   2
   4  12   2 264.492 12.3271   6
   5 -13  -2 714.694 27.5393   3
  -3 -13   2 986.328 32.2442   3
   3 -13  -2 959.665 32.3702   3
   3  13  -2 957.089 32.8480   2
  -3  13   2 925.956 30.8771   6
   1 -13  -2 695.571 25.7169   3
  -1 -13   2 706.182 25.4241   3
   1  13  -2 706.918 25.8973   2
  -1  13   2 675.220 24.0117   6
  -1 -13  -2 642.393 24.0667   3
   1 -13   2 638.970 23.5870   3
  -1  13  -2 627.187 23.7205   2
  -3 -13  -2 404.438 16.5429   3
   3 -13   2 382.922 16.4965   3
  -3  13  -2 294.362 15.7764   2
   3  13   2 429.512 17.7914   2
   0  14  -2 121.437 10.5587   2
 -12   0   3 -0.3043 3.45579   8
  12   0  -3 0.63790 2.75377   4
 -12   0   3 -1.0198 2.77157   5
 -10   0   3 -3.5663 2.60106  16
 -10   0   3 -2.3562 3.23409  11
 -10   0   3 0.79079 2.30610   8
 -10   0   3 -2.4659 2.35868   5
  10   0  -3 7.37337 2.38303   9
  10   0  -3 2.86063 2.94808   4
  -8   0   3 -1.2633 2.05650  16
   8   0  -3 3.80560 2.23074   4
   8   0  -3 0.86143 1.52256   9
   8   0  -3 -0.2959 1.16396  14
  -8   0   3 -0.8676 2.07688   8
  -8   0   3 2.68601 1.90306   5
  -8   0   3 -0.9006 1.59838  11
  -6   0   3 7.65123 1.74669  12
   6   0  -3 0.68602 0.95666   9
   6   0  -3 -0.8984 1.67340  10
  -6   0   3 -0.2305 0.80734   5
   6   0  -3 0.44559 1.10732  12
   6   0  -3 0.00100 1.43707   4
  -6   0   3 1.42897 1.16869   8
   6   0  -3 -1.1591 0.85366  14
  -6   0   3 0.31364 1.07480  16
  -6   0   3 0.31500 0.82706   1
  -4   0   3 0.67992 0.73486   1
  -4   0   3 0.75920 0.76573  16
   4   0  -3 0.89942 1.00658   4
  -4   0   3 0.21890 0.86891   8
  -4   0   3 -0.0618 0.99087  11
   4   0  -3 1.90413 1.20266  10
   4   0  -3 -0.7882 0.63582  12
  -4   0   3 -0.0883 0.46474   5
   0   0   3 1.13802 0.50089   6
   0   0   3 0.54650 0.43917   9
   0   0   3 0.78646 0.43073   7
   0   0   3 -0.1776 0.40792   1
   0   0   3 1.74998 0.72098  15
   0   0   3 2.87656 0.84219  11
   2   0   3 1.94624 1.02526  15
  -2   0  -3 5.57769 1.01164  13
  -2   0  -3 3.97842 0.61262  12
   2   0   3 1.92109 0.78509   6
  -2   0  -3 7.54857 1.63920  16
   4   0   3 0.30313 0.99567   9
  -4   0  -3 0.81618 1.72122  16
  -4   0  -3 0.14065 0.76961  12
   4   0   3 0.69485 0.88490   7
  -4   0  -3 1.50214 1.44454   5
  -4   0  -3 2.97963 1.50517   8
   4   0   3 5.68431 1.75505  15
   6   0   3 0.77158 2.20680   9
   6   0   3 2.14416 2.15345  15
  -6   0  -3 8.01135 2.08254  12
  -6   0  -3 7.01020 2.47979   8
  -6   0  -3 0.54731 1.57798   5
  -6   0  -3 1.55020 2.03354  16
  -8   0  -3 1.11057 2.52644  16
  -8   0  -3 5.18917 3.32149   5
  -8   0  -3 0.35412 2.64206   8
   8   0   3 -0.7166 2.55597  15
   8   0   3 -0.9043 2.06839   9
  -8   0  -3 -0.1539 1.99142  12
 -11  -1   3 -4.0626 3.56666  11
 -11  -1   3 1.16462 2.52530   8
  11  -1  -3 -0.4131 2.65596   4
 -11  -1   3 0.90896 2.74809   5
  11   1  -3 -0.6120 1.64783   4
  11   1  -3 -0.3743 2.70788   9
 -11   1   3 -0.4931 3.34693   8
 -11   1   3 -1.4841 2.81689   5
  -9  -1   3 164.665 9.27377   8
   9  -1  -3 161.977 9.31998   4
  -9  -1   3 164.076 8.32666   5
   9  -1  -3 157.461 8.16283   9
  -9  -1   3 153.547 9.99716  16
   9   1  -3 157.106 7.95875  15
   9   1  -3 157.346 8.71900   9
  -9   1   3 169.732 8.72759   8
  -9   1   3 163.778 8.68283   5
  -9   1   3 167.272 10.8634  16
  -9   1   3 167.307 10.4627  11
   9   1  -3 166.590 9.22908   4
  -7  -1   3 497.178 15.7868   5
  -7  -1   3 505.958 17.8177  16
  -7  -1   3 506.478 15.4017   1
  -7  -1   3 526.676 16.8026   8
   7  -1  -3 499.870 15.8067   9
   7  -1  -3 507.652 17.1369   4
   7  -1  -3 501.481 15.8912  14
  -7   1   3 498.692 18.3962  16
   7   1  -3 523.589 17.0154   4
   7   1  -3 507.086 15.3581  14
  -7   1   3 487.721 18.0363  11
  -7   1   3 508.631 16.5314   8
   7   1  -3 506.211 16.4742   9
  -7   1   3 502.233 16.1879   5
  -5  -1   3 200.933 7.83864  13
  -5  -1   3 206.898 7.42388   1
   5  -1  -3 211.358 7.81493  14
  -5  -1   3 222.040 8.36660  16
   5  -1  -3 211.962 9.54184  10
  -5  -1   3 211.775 7.87763   8
   5  -1  -3 210.533 8.20685   4
   5  -1  -3 208.152 7.04830   9
   5  -1  -3 203.282 8.01548  12
  -5  -1   3 207.551 7.11226   5
   5   1  -3 209.637 7.47273  14
  -5   1   3 220.823 9.10625  11
  -5   1   3 208.916 7.27882   1
  -5   1   3 214.601 7.59909   5
   5   1  -3 220.133 10.3487  10
   5   1  -3 203.702 7.01333   2
   5   1  -3 211.046 8.04574  12
  -5   1   3 205.523 7.76649   8
   5   1  -3 211.186 8.15580   4
  -5   1   3 216.906 8.97362  16
  -3  -1   3 4.78534 0.69753   5
   3  -1  -3 6.72999 1.35845   4
   3  -1  -3 5.73591 1.44483  10
  -3  -1   3 5.05712 0.99852   1
  -3  -1   3 8.40376 1.79474  10
   3  -1  -3 3.50890 1.09026  14
   3  -1  -3 7.95591 1.19075  12
  -3  -1   3 3.71322 0.82543  16
   3   1  -3 3.25541 1.60329  10
  -3   1   3 4.96212 1.49453  11
  -3   1   3 7.53253 1.53849  16
  -3   1   3 5.21615 1.42303  10
   3   1  -3 5.38536 1.21456   4
   3   1  -3 4.90690 0.85675   2
  -3   1   3 7.96389 1.16728   5
   3   1  -3 8.67523 1.24339  12
  -3   1   3 6.48341 1.18584   8
  -1  -1   3 206.979 6.92964  15
  -1  -1   3 208.970 6.88396   1
  -1  -1   3 213.783 7.24842  11
  -1  -1   3 208.144 6.84544   9
   1  -1  -3 236.942 7.41836  10
  -1  -1   3 213.055 6.79575   7
  -1   1   3 221.517 6.78333  15
  -1   1   3 222.721 7.66988  11
   1   1  -3 233.136 8.35006  10
  -1   1   3 224.158 6.45069   6
   1   1  -3 227.488 5.64601  12
  -1   1   3 222.319 7.03477   1
  -1   1   3 215.050 6.28351   9
  -1   1   3 222.514 6.68713   7
   1  -1   3 358.977 10.9696   9
   1  -1   3 369.071 10.2999  11
   1  -1   3 351.864 10.8318  15
  -1  -1  -3 347.608 10.9265  13
   1  -1   3 362.793 10.2493   6
   1  -1   3 367.169 9.97922   1
   1  -1   3 363.786 10.5397   7
   1   1   3 337.899 10.8238  15
  -1   1  -3 376.740 11.3204  16
   1   1   3 337.101 10.1917   1
   1   1   3 344.415 10.3852   6
   1   1   3 344.514 11.1915  11
   1   1   3 342.723 9.94800   7
   1   1   3 339.827 10.6175   9
  -3  -1  -3 986.586 26.5893  13
  -3  -1  -3 1027.61 29.3641  16
   3  -1   3 989.213 27.7280   9
  -3  -1  -3 983.028 26.9932   8
   3  -1   3 959.559 27.1107  15
  -3  -1  -3 994.606 25.6760  12
   3  -1   3 947.883 26.5702   7
   3   1   3 965.351 27.5338   9
  -3   1  -3 977.401 26.8190   5
  -3   1  -3 971.589 26.2526   8
   3   1   3 975.339 27.5132  15
  -3   1  -3 986.211 25.7618  12
  -3   1  -3 936.064 24.9918  13
   3   1   3 936.013 25.7703   7
   3   1   3 975.659 26.7745   6
  -3   1  -3 991.321 28.7105  16
   5  -1   3 104.114 6.67952   9
  -5  -1  -3 117.805 6.49747   5
   5  -1   3 102.362 5.51133   7
  -5  -1  -3 125.069 5.65037  12
  -5  -1  -3 105.980 7.44846  16
   5  -1   3 100.712 5.91631  15
  -5  -1  -3 110.666 6.18669   8
  -5   1  -3 109.427 7.74182  16
  -5   1  -3 115.421 5.68212  12
  -5   1  -3 111.605 5.73480   8
  -5   1  -3 121.344 6.50142   5
   5   1   3 113.723 6.61594   9
   5   1   3 113.004 6.54495  15
   7  -1   3 6.63733 2.67576   9
  -7  -1  -3 1.49973 2.60138   8
  -7  -1  -3 3.29939 2.07835  12
   7  -1   3 3.97589 2.42361  15
  -7  -1  -3 5.26980 2.95496   5
  -7  -1  -3 4.48689 3.48717  16
   7   1   3 4.37900 2.87472  15
   7   1   3 0.71051 2.80485   9
  -7   1  -3 0.94494 1.81350  12
  -7   1  -3 2.26096 2.21975   8
  -7   1  -3 2.06155 3.35712  16
  -7   1  -3 2.49474 2.78780   5
  -9  -1  -3 28.3806 5.13689   8
  -9  -1  -3 34.2634 5.58914   5
  -9  -1  -3 24.4976 4.20836  12
   9  -1   3 28.1071 5.51527   9
   9   1   3 23.6139 5.23093  15
  -9   1  -3 28.6566 4.33112  12
  -9   1  -3 25.3829 4.52444   5
   9   1   3 26.0420 5.08938   9
 -12  -2   3 105.883 11.0916  11
  12  -2  -3 110.410 9.33943   4
 -12  -2   3 103.926 9.26353   8
  12   2  -3 114.491 9.14471   9
 -12   2   3 108.794 8.70427   8
 -12   2   3 118.829 9.00113   5
  10  -2  -3 222.897 12.2327   4
 -10  -2   3 227.370 12.1064   8
 -10  -2   3 238.355 13.1921  16
 -10  -2   3 232.453 10.7503   5
  10   2  -3 248.394 11.9689   4
 -10   2   3 231.944 11.2285   5
 -10   2   3 243.148 14.0088  16
 -10   2   3 229.337 11.6335   8
  10   2  -3 249.249 12.2992   9
   8  -2  -3 497.407 17.9009   4
  -8  -2   3 504.212 16.3179   5
  -8  -2   3 490.925 17.2772   8
   8  -2  -3 466.666 16.2055  14
  -8  -2   3 523.819 18.7775  16
   8  -2  -3 492.975 16.0934   9
  -8  -2   3 489.116 17.0382  13
   8   2  -3 522.407 17.7866   9
  -8   2   3 506.115 17.1138   5
  -8   2   3 509.303 19.6704  16
  -8   2   3 479.327 16.8410   8
   8   2  -3 482.862 17.2815   4
  -8   2   3 519.997 18.9668  11
  -6  -2   3 234.421 9.03058   8
   6  -2  -3 240.121 8.04341   9
  -6  -2   3 233.473 9.20761  13
  -6  -2   3 225.880 8.48926  12
   6  -2  -3 238.050 8.92393  14
   6  -2  -3 218.507 9.07024  12
  -6  -2   3 237.565 8.14306   5
   6  -2  -3 232.266 9.41123   4
  -6  -2   3 239.661 9.60987  16
  -6  -2   3 228.871 8.46841   1
   6   2  -3 226.686 9.19160   4
  -6   2   3 244.735 9.15345   8
   6   2  -3 237.042 8.17109  14
  -6   2   3 238.212 8.94930   5
   6   2  -3 233.787 9.16141   9
   6   2  -3 226.281 9.22706  12
   6   2  -3 245.809 12.2323  10
  -6   2   3 238.425 10.2249  11
  -6   2   3 236.990 10.7102  16
  -6   2   3 225.148 7.88404   1
   4  -2  -3 1222.76 33.0912  12
   4  -2  -3 1237.79 33.1099  14
   4  -2  -3 1219.45 33.0245   4
  -4  -2   3 1258.87 32.7007   8
   4  -2  -3 1208.95 34.1675  10
  -4  -2   3 1231.29 32.7502   1
  -4  -2   3 1269.12 33.3802  13
  -4  -2   3 1217.96 31.5357   5
   4  -2  -3 1208.77 31.2669   9
  -4  -2   3 1267.74 32.5778  16
  -4   2   3 1211.18 32.4107   1
  -4   2   3 1229.19 32.7899   8
   4   2  -3 1240.63 33.1396  12
  -4   2   3 1204.65 34.2033  16
  -4   2   3 1213.64 32.6072   5
   4   2  -3 1249.61 32.3844   2
  -4   2   3 1196.92 34.2712  10
   4   2  -3 1238.26 33.1228   4
  -4   2   3 1248.47 34.3324  11
   4   2  -3 1262.27 36.1552  10
   2  -2  -3 3509.49 86.8173  14
   2  -2  -3 3620.45 91.7481  10
   2  -2  -3 3551.62 89.0692  12
   2  -2  -3 3564.41 86.3750   4
  -2  -2   3 3339.23 88.6019  10
  -2  -2   3 3343.28 89.6834  13
  -2  -2   3 3328.48 87.0485   8
  -2  -2   3 3421.94 86.4147   7
  -2  -2   3 3363.02 86.6562   1
  -2   2   3 3359.78 88.1618  15
  -2   2   3 3525.04 86.7228   1
  -2   2   3 3533.30 91.3584  10
   2   2  -3 3356.26 86.4199   2
  -2   2   3 3703.55 88.0423  11
  -2   2   3 3486.91 86.3983   5
  -2   2   3 3415.50 86.0955   6
   2   2  -3 3350.75 88.8593  10
   2   2  -3 3302.60 89.2085  12
   0  -2  -3 607.516 16.8173  14
   0  -2   3 609.687 17.5314   9
   0  -2   3 624.951 16.9856   1
   0  -2   3 631.415 17.3316   7
   0  -2   3 621.750 17.4520  15
   0   2  -3 643.185 16.9860  16
   0   2   3 617.458 16.8593   9
   0   2   3 637.466 18.4583  11
   0   2   3 621.663 16.5178   7
   0   2  -3 642.860 16.2424  12
   0   2   3 607.001 17.2291  15
   0   2   3 628.401 17.0781   6
   0   2  -3 638.760 16.3553   5
   0   2   3 650.380 17.4510   1
  -2  -2  -3 852.183 23.0542   3
  -2  -2  -3 882.544 22.6576  12
   2  -2   3 898.238 24.1409   7
   2  -2   3 873.234 24.1368  15
   2  -2   3 873.090 24.5867   9
  -2  -2  -3 864.609 24.4508  13
  -2  -2  -3 836.661 22.7193  12
  -2   2  -3 892.419 21.8348  13
   2   2   3 861.712 23.9093   6
   2   2   3 852.405 24.2805   9
   2   2   3 843.836 24.4125  15
   2   2   3 824.080 22.5536   7
  -2   2  -3 898.448 22.9515  12
  -2   2  -3 901.393 23.6266   5
  -2   2  -3 910.437 25.0962  16
  -2   2  -3 909.325 22.8687   8
  -4  -2  -3 601.980 18.0791  13
   4  -2   3 575.079 18.1121   7
   4  -2   3 605.137 19.1371   9
  -4  -2  -3 593.185 20.6014  16
  -4  -2  -3 600.601 17.2379  12
   4  -2   3 612.786 18.3805  15
  -4  -2  -3 610.564 18.7493   8
  -4   2  -3 561.226 17.0654   8
  -4   2  -3 586.476 18.0944   5
   4   2   3 602.683 18.1328   6
   4   2   3 588.370 18.9318  15
  -4   2  -3 613.013 17.5397  12
   4   2   3 595.212 19.0956   9
  -4   2  -3 593.273 20.1821  16
   6  -2   3 204.418 9.41699   7
   6  -2   3 203.724 10.5090   9
   6  -2   3 224.035 9.70211  15
  -6  -2  -3 232.154 10.5559   8
  -6  -2  -3 224.642 9.24430  12
  -6  -2  -3 231.849 12.5266  16
  -6  -2  -3 243.315 10.5528   5
  -6   2  -3 218.378 12.2549  16
  -6   2  -3 211.025 9.27152  12
  -6   2  -3 212.866 10.0408   5
   6   2   3 208.711 10.5227   9
   6   2   3 212.004 10.1997  15
  -8  -2  -3 300.170 13.9152   8
   8  -2   3 336.196 15.2965   9
  -8  -2  -3 288.833 13.7618   5
  -8  -2  -3 296.218 16.7323  16
   8   2   3 301.415 15.1473   9
   8   2   3 323.836 14.8100  15
  -8   2  -3 321.098 14.0060   5
  -8   2  -3 285.399 16.7025  16
  -8   2  -3 314.651 13.3443  12
 -11  -3   3 0.21075 3.59698   8
  11  -3  -3 -3.0519 2.85155   4
 -11  -3   3 -0.3861 2.18490   5
  11   3  -3 2.90464 3.52466   9
 -11   3   3 -1.7579 3.24214   5
 -11   3   3 3.69531 2.56544   8
   9  -3  -3 9.92066 2.55107  14
  -9  -3   3 10.3469 3.30298  16
   9  -3  -3 8.05562 3.22028   4
  -9  -3   3 15.6879 2.96370   5
  -9  -3   3 17.4877 3.47042   8
  -9  -3   3 11.7368 3.10976  13
   9   3  -3 10.9692 3.58979   9
   9   3  -3 8.88022 2.88803   4
  -9   3   3 17.4249 3.74668   8
  -9   3   3 15.3410 3.56063   5
  -9   3   3 9.93458 4.06089  16
   7  -3  -3 106.513 6.62331   4
  -7  -3   3 97.9434 5.36930   1
  -7  -3   3 93.4055 6.08870   8
   7  -3  -3 94.0187 5.69806  14
  -7  -3   3 92.9705 4.91464   5
  -7  -3   3 111.885 6.25285  13
  -7  -3   3 102.415 6.35169  16
   7   3  -3 91.5337 5.78799   4
   7   3  -3 104.106 6.15135   9
  -7   3   3 97.9028 5.78479   8
  -7   3   3 94.2727 6.54270  11
  -7   3   3 93.2146 5.86452   5
   7   3  -3 99.3945 8.44090  10
  -7   3   3 102.075 7.61950  16
  -5  -3   3 211.983 8.00600  16
  -5  -3   3 216.305 8.19754   8
   5  -3  -3 209.053 6.72673   9
   5  -3  -3 208.165 8.38269  14
   5  -3  -3 216.572 8.43732   4
  -5  -3   3 223.016 8.22252   1
   5  -3  -3 209.578 7.87809   3
  -5  -3   3 214.812 7.05795   5
  -5  -3   3 231.919 8.85549  13
   5  -3  -3 210.819 8.32510  12
  -5  -3   3 212.755 7.74972  12
   5   3  -3 217.100 8.05901   2
  -5   3   3 227.970 8.28797   8
   5   3  -3 218.351 7.51517  14
  -5   3   3 239.690 10.2005  16
  -5   3   3 227.397 8.35008   5
  -5   3   3 227.135 9.43641  11
   5   3  -3 218.963 11.1102  10
   5   3  -3 204.416 8.22173   4
  -5   3   3 207.643 7.42735   1
   5   3  -3 213.125 8.46970  12
  -3  -3   3 936.362 24.6496  16
  -3  -3   3 948.464 25.5421   8
   3  -3  -3 996.111 26.4313  14
  -3  -3   3 951.716 26.2645   1
   3  -3  -3 964.513 26.1873  12
  -3  -3   3 921.827 25.8281   3
  -3  -3   3 927.849 25.5821   7
  -3  -3   3 942.414 26.5312  13
   3  -3  -3 950.565 25.7747   4
  -3   3   3 972.174 26.0128   1
   3   3  -3 947.817 28.8978  10
  -3   3   3 1000.60 27.8204  16
  -3   3   3 997.451 26.0605   5
  -3   3   3 1014.48 26.3408  10
  -3   3   3 1023.66 27.4956  11
   3   3  -3 932.095 26.1211  12
   3   3  -3 955.360 26.1495   2
   1  -3  -3 113.300 4.84975   3
   1  -3  -3 121.811 3.36850  10
  -1  -3   3 111.479 4.45125  13
   1  -3  -3 114.250 3.82506   4
   1  -3  -3 113.799 4.46366  14
  -1  -3   3 118.712 4.67716   1
  -1  -3   3 114.860 4.54104   7
  -1  -3   3 111.047 4.57042   3
   1  -3  -3 113.349 4.10437  12
  -1   3   3 113.161 3.98017   2
  -1   3   3 119.223 4.86701   1
   1   3  -3 122.229 6.26533  10
  -1   3   3 117.055 4.49303   6
  -1   3   3 114.490 5.49849  11
   1   3  -3 115.859 4.32539  12
   1   3  -3 123.001 4.87129   2
  -1   3   3 116.757 4.21849  15
  -1  -3  -3 371.332 12.3091  13
  -1  -3  -3 416.093 10.8264  12
  -1  -3  -3 366.653 11.2614   3
  -1  -3  -3 368.867 10.3011  14
   1  -3   3 372.881 10.6812   1
   1  -3   3 367.918 11.4977   7
  -1  -3  -3 347.581 11.6665  10
   1  -3   3 378.851 11.9286   9
  -1  -3  -3 369.618 10.4323  12
   1  -3   3 359.013 11.3874  15
   1  -3   3 391.874 11.0947   3
   1   3   3 352.058 11.5447  15
  -1   3  -3 383.179 11.7734  16
  -1   3  -3 392.212 10.7319   5
   1   3   3 364.368 12.6841  11
   1   3   3 356.390 11.2473   6
   1   3   3 352.941 11.1411   9
  -1   3  -3 368.191 10.7426  12
  -3  -3  -3 15.4489 1.78206  12
   3  -3   3 9.30347 1.94175   9
   3  -3   3 12.6484 2.00904  15
  -3  -3  -3 12.9525 2.15741  13
   3  -3   3 12.2564 2.16052   7
   3   3   3 23.5010 2.95440  15
  -3   3  -3 11.4207 1.90077   5
  -3   3  -3 10.1190 2.45222  16
   3   3   3 24.4416 2.96901   9
   3   3   3 9.07830 1.83765   6
  -3   3  -3 10.3925 1.60621  12
   5  -3   3 25.0481 3.85166   9
  -5  -3  -3 27.2646 4.69535  16
   5  -3   3 25.5730 3.55518   7
   5  -3   3 22.7219 2.99924  15
  -5  -3  -3 20.9126 3.01736  13
  -5  -3  -3 22.3239 2.84925  12
  -5  -3  -3 24.5109 3.70833   8
  -5   3  -3 35.2563 4.86265  16
   5   3   3 27.6368 3.31053   6
   5   3   3 28.9924 4.06745  15
   5   3   3 25.8902 3.88331   9
  -5   3  -3 28.6275 3.23025  12
  -5   3  -3 33.9237 3.62343   5
  -7  -3  -3 11.4258 3.64878  16
   7  -3   3 11.6279 3.11216   7
   7  -3   3 15.1502 3.38607   9
  -7  -3  -3 15.2939 3.99130   8
  -7  -3  -3 11.7777 3.00059   5
  -7  -3  -3 13.1111 2.88085  12
  -7   3  -3 19.8679 4.12893   5
  -7   3  -3 12.1925 3.85379  16
  -7   3  -3 12.2419 3.04868  12
   7   3   3 13.5394 3.42489  15
   7   3   3 12.0876 3.79883   9
  -9  -3  -3 54.5784 6.72873   8
  -9  -3  -3 40.9402 5.36326   5
  -9  -3  -3 51.7277 5.88724  12
   9  -3   3 50.3185 7.00660   9
  -9   3  -3 49.7630 5.61640  12
   9   3   3 58.3272 7.56754  15
   9   3   3 62.5231 8.04455   9
  -9   3  -3 58.7946 7.24226   5
 -10  -4   3 142.610 9.47934   8
  10  -4  -3 127.661 9.54567   4
 -10   4   3 135.526 8.45243   5
 -10   4   3 116.642 10.0681  16
  10   4  -3 137.993 9.21856   9
 -10   4   3 118.249 8.02093   8
  -8  -4   3 4.14866 2.68641   8
  -8  -4   3 0.61028 1.90343  16
  -8  -4   3 3.16181 2.38972  13
  -8  -4   3 2.52675 2.15693   1
   8  -4  -3 5.11646 1.89477  14
   8  -4  -3 1.77210 2.46424   4
  -8  -4   3 2.19871 1.63984   5
  -8   4   3 2.12770 2.25631   8
   8   4  -3 3.07440 1.91609   4
   8   4  -3 1.80565 2.42730   9
  -8   4   3 11.6019 3.11901   5
  -8   4   3 4.90016 3.41708  16
  -6  -4   3 318.390 11.6285   8
   6  -4  -3 313.603 10.9791   3
  -6  -4   3 333.880 12.5115  13
  -6  -4   3 322.434 11.5939  16
  -6  -4   3 323.513 10.2170   5
  -6  -4   3 332.829 11.6232   1
   6  -4  -3 311.896 11.8789   4
   6  -4  -3 308.764 11.6120  14
   6  -4  -3 271.223 14.8612  12
  -6   4   3 311.790 12.4348  11
   6   4  -3 324.513 11.7063   2
  -6   4   3 329.954 11.3642   8
   6   4  -3 334.433 15.6221  10
   6   4  -3 318.998 11.4770   4
  -6   4   3 315.149 13.5657  16
  -6   4   3 329.572 11.7021   5
  -4  -4   3 296.599 9.97584   3
  -4  -4   3 278.594 8.58030   5
   4  -4  -3 318.294 10.7685  12
  -4  -4   3 300.052 10.9112  13
  -4  -4   3 310.506 10.2335  12
  -4  -4   3 292.188 9.33693  16
   4  -4  -3 307.022 10.1938   4
   4  -4  -3 314.280 10.5312   3
  -4  -4   3 298.655 9.93643   8
  -4  -4   3 301.107 9.60739   7
   4  -4  -3 315.515 10.7102  14
   4   4  -3 289.052 8.41033   6
  -4   4   3 314.127 11.3428  11
  -4   4   3 317.434 10.4887   5
  -4   4   3 321.575 10.1408   1
   4   4  -3 299.340 10.5500   2
   4   4  -3 281.813 10.4602  12
   4   4  -3 293.956 10.2582   4
   4   4  -3 317.338 13.5462  10
  -4   4   3 329.104 12.4689  16
  -4   4   3 314.084 10.9021  10
   2  -4  -3 264.759 8.61819  14
   2  -4  -3 241.642 8.79773   3
  -2  -4   3 247.427 7.37951   8
   2  -4  -3 247.776 8.40151  12
  -2  -4   3 248.886 8.51456   3
  -2  -4   3 251.714 8.77572  13
   2  -4  -3 241.397 7.60573   4
  -2  -4   3 268.552 6.38720  16
  -2  -4   3 247.594 8.13078   7
  -2   4   3 239.210 8.23546   6
  -2   4   3 245.978 7.38430   2
  -2   4   3 248.274 7.21268  15
   2   4  -3 253.706 10.7559  10
   2   4  -3 248.714 8.75634   2
  -2   4   3 237.226 9.37599  11
  -2   4   3 250.540 8.41802   5
   2   4  -3 247.478 6.99744   6
   2   4  -3 255.734 8.58273  12
   0  -4   3 1354.51 34.6680  13
   0  -4  -3 1368.05 36.7276  13
   0  -4  -3 1313.74 34.5033  14
   0  -4   3 1305.72 35.0017   1
   0  -4   3 1335.62 35.2616   3
   0  -4  -3 1359.44 35.6791   3
   0  -4  -3 1282.43 33.7809  10
   0  -4  -3 1357.69 34.7855  12
   0  -4   3 1363.07 35.4520   7
   0   4  -3 1367.99 37.9928  10
   0   4   3 1282.76 34.4408   9
   0   4  -3 1288.27 34.6867  16
   0   4   3 1330.43 35.1206  15
   0   4  -3 1347.72 35.9086   2
   0   4   3 1352.26 37.0722  11
   0   4  -3 1316.08 33.8859   5
   0   4   3 1332.97 35.0338   2
   0   4   3 1356.71 35.3334   6
   0   4  -3 1354.24 35.0725  12
   2  -4   3 28.9524 3.23190   9
   2  -4   3 23.4686 2.29087  15
   2  -4   3 27.8287 2.18513   3
  -2  -4  -3 26.3248 2.30557   3
   2  -4   3 25.1594 2.89604   7
  -2  -4  -3 29.8361 2.26996  12
  -2  -4  -3 34.9428 3.20366  13
  -2   4  -3 23.9015 2.23401   5
   2   4   3 20.5475 2.36732   6
  -2   4  -3 26.0069 2.39961  12
  -2   4  -3 24.5849 2.93152  16
   2   4   3 24.2223 2.86071  15
   2   4   3 24.2205 2.33506   9
  -4  -4  -3 36.8069 4.07631  13
   4  -4   3 38.3379 3.51596   7
   4  -4   3 31.9964 2.93151  15
   4  -4   3 34.4464 4.14325   9
  -4  -4  -3 35.2665 3.10512  12
  -4  -4  -3 28.8019 3.80963   8
   4   4   3 38.7417 4.29448   9
  -4   4  -3 33.0024 4.00428  16
  -4   4  -3 39.7763 3.39380  12
   4   4   3 37.7808 4.36826  15
  -4   4  -3 35.9195 3.27453   5
   4   4   3 35.3482 3.57128   6
  -6  -4  -3 421.345 15.9132   5
  -6  -4  -3 425.717 16.1919   8
  -6  -4  -3 418.334 14.9245  12
   6  -4   3 412.764 16.1797   9
   6  -4   3 415.198 15.6530   7
  -6  -4  -3 418.212 18.5842  16
  -6   4  -3 409.012 15.0324  12
  -6   4  -3 399.646 15.3390   5
  -6   4  -3 398.582 17.9186  16
   6   4   3 427.568 16.6549  15
   6   4   3 414.824 16.5649   9
   6   4   3 417.774 15.4467   6
   8  -4   3 65.4691 6.35060   7
  -8  -4  -3 59.0925 5.67758  12
  -8  -4  -3 61.9080 7.26469   8
   8  -4   3 47.3902 6.24680   9
  -8  -4  -3 58.6650 6.40974   5
   8   4   3 59.5670 7.29463  15
  -8   4  -3 56.5464 5.82469  12
   8   4   3 60.8498 7.11626   9
  -8   4  -3 61.2617 6.35784   5
  11  -5  -3 274.613 14.1800   7
  11  -5  -3 273.674 14.8837   4
 -11  -5   3 272.019 13.7622   8
  11   5  -3 292.922 14.1523  15
  11   5  -3 277.824 14.9044   9
 -11   5   3 274.178 13.7789   5
  -9  -5   3 11.2654 3.06265  13
   9  -5  -3 10.8673 3.04762  14
   9  -5  -3 8.63216 3.68445   4
  -9  -5   3 10.6010 3.55806   8
  -9   5   3 9.50124 3.09571   8
   9   5  -3 7.35494 3.53310   9
  -9   5   3 8.03860 3.39465   5
  -9   5   3 2.50477 3.45130  16
  -7  -5   3 25.4482 3.63795   1
  -7  -5   3 24.0819 3.37327   8
   7  -5  -3 23.4492 3.58822   4
  -7  -5   3 22.6517 3.57580  13
  -7  -5   3 23.2293 2.98451   5
   7  -5  -3 26.1308 3.83927  14
  -7   5   3 24.7291 3.39747   8
  -7   5   3 28.5280 5.12356  16
   7   5  -3 26.6965 4.30527   9
   7   5  -3 22.0063 4.61249  10
   7   5  -3 19.6732 3.54584   2
   7   5  -3 25.6711 3.28660   4
  -7   5   3 25.3789 3.76730   5
  -5  -5   3 392.325 13.2038   8
   5  -5  -3 402.804 13.4974   4
   5  -5  -3 401.682 13.8672  12
  -5  -5   3 408.254 14.5795  13
   5  -5  -3 417.347 14.0431  14
   5  -5  -3 398.240 13.4756   3
  -5  -5   3 408.588 13.0410   3
  -5  -5   3 387.052 12.7490  16
   5   5  -3 395.508 13.2895   4
  -5   5   3 430.938 16.1518  16
   5   5  -3 393.306 17.0988  10
  -5   5   3 433.257 13.9077   5
   5   5  -3 374.797 13.7357   2
   5   5  -3 365.752 15.2257  12
  -5   5   3 419.536 14.3691  11
  -3  -5   3 129.543 4.85639   8
   3  -5  -3 112.069 5.74487   3
  -3  -5   3 127.710 6.24526  13
  -3  -5   3 115.931 4.79330   7
  -3  -5   3 115.494 5.31955   3
   3  -5  -3 109.795 5.46947  12
   3  -5  -3 111.990 5.41429  14
   3  -5  -3 128.483 4.95638   4
  -3   5   3 106.986 5.83245  11
  -3   5   3 114.813 4.31816  10
   3   5  -3 114.247 7.24613  10
  -3   5   3 116.782 5.43685   5
   3   5  -3 120.441 5.72173  12
  -3   5   3 111.827 4.32713   2
   3   5  -3 115.984 5.92025   2
   3   5  -3 111.093 3.86003   6
  -1  -5   3 804.888 22.2674   7
   1  -5  -3 812.678 23.8666  13
  -1  -5   3 799.185 22.6206   3
   1  -5  -3 816.595 23.0610   3
  -1  -5   3 813.299 22.5234  13
   1  -5  -3 791.894 22.0463  14
   1  -5  -3 795.677 22.3749  12
  -1   5   3 769.090 21.4794  15
   1   5  -3 802.207 25.2661  10
  -1   5   3 777.763 20.9182   9
   1   5  -3 822.282 23.1368   2
  -1   5   3 789.298 23.9654  11
  -1   5   3 783.308 22.3708   6
   1   5  -3 811.300 22.5642  12
  -1   5   3 790.388 21.8202   2
   1  -5   3 366.160 11.5059   3
  -1  -5  -3 356.247 12.9180  13
   1  -5   3 351.461 10.0842  13
  -1  -5  -3 346.186 11.1210  12
   1  -5   3 344.164 10.8680   1
  -1  -5  -3 341.648 9.98141  14
  -1  -5  -3 330.698 11.4572   3
   1  -5   3 363.376 11.7197   7
   1   5   3 333.020 11.5076   2
  -1   5  -3 353.264 12.1852   2
   1   5   3 335.987 11.4843  15
  -1   5  -3 343.775 11.6174  16
   1   5   3 337.375 11.0571   9
  -1   5  -3 350.866 10.4515   5
  -1   5  -3 354.273 11.4291  12
   1   5   3 357.920 11.5594   6
  -1   5  -3 347.013 13.8087  10
  -3  -5  -3 33.0488 2.71534   3
   3  -5   3 32.8924 3.61447   7
  -3  -5  -3 29.6316 2.86349  12
  -3  -5  -3 38.0206 4.07266   8
  -3  -5  -3 29.1360 3.66670  13
   3  -5   3 30.0510 2.52283   3
   3  -5   3 31.4872 3.72258   9
  -3   5  -3 31.1512 2.72415   5
  -3   5  -3 34.1243 3.29230  12
   3   5   3 26.6444 3.07973   6
   3   5   3 31.2354 3.15855   9
   3   5   3 31.5491 3.76269  15
  -3   5  -3 27.3848 3.67529  16
   5  -5   3 221.550 10.2696   7
  -5  -5  -3 211.372 10.1846   8
  -5  -5  -3 219.345 12.4017  16
  -5  -5  -3 209.948 9.36660  12
   5  -5   3 212.689 10.1382   9
  -5  -5  -3 191.259 9.83127  13
   5   5   3 200.532 10.1454   9
   5   5   3 201.875 9.58046   6
   5   5   3 207.222 10.6441  15
  -5   5  -3 251.034 12.4083  16
  -5   5  -3 244.905 9.80235   5
  -5   5  -3 218.075 9.63674  12
   7  -5   3 275.249 13.2946   9
  -7  -5  -3 258.754 12.5941   5
  -7  -5  -3 262.833 13.2717   8
  -7  -5  -3 283.182 12.2437  12
   7  -5   3 279.107 13.1147   7
  -7  -5  -3 277.408 15.5598  16
   7   5   3 271.650 13.6688   9
   7   5   3 257.808 12.1145   6
  -7   5  -3 269.153 15.2697  16
  -7   5  -3 276.039 12.7045   5
  -7   5  -3 276.154 12.4452  12
   7   5   3 264.088 13.4795  15
  -9  -5  -3 13.0033 3.76004  12
  10  -6  -3 37.4684 5.83133   7
 -10  -6   3 32.8720 5.48172   8
  10  -6  -3 28.6749 5.07736   4
  10   6  -3 31.1534 6.02908   9
 -10   6   3 33.1758 4.97428   5
   8  -6  -3 38.6588 4.96796  14
   8  -6  -3 42.2035 5.40215   4
  -8  -6   3 41.4880 4.91342   8
  -8  -6   3 33.5921 4.48316   1
  -8  -6   3 45.3558 5.31634  13
   8   6  -3 36.5400 5.66430   9
  -8   6   3 37.1313 4.69237   5
  -8   6   3 34.0146 6.07111  16
  -6  -6   3 594.189 19.3530   8
  -6  -6   3 608.679 20.8529  13
   6  -6  -3 620.076 20.0707  14
   6  -6  -3 614.235 19.7451   4
  -6  -6   3 606.382 19.7866   1
   6  -6  -3 591.211 19.1171   3
   6   6  -3 579.451 18.6387   4
   6   6  -3 595.940 20.1860   2
   6   6  -3 581.998 23.8216  10
  -6   6   3 642.965 19.8778   5
  -6   6   3 637.477 23.0516  16
   4  -6  -3 107.067 5.69382  12
  -4  -6   3 83.8270 4.77796   3
  -4  -6   3 74.0461 3.85828   7
   4  -6  -3 79.3073 5.06124  13
   4  -6  -3 96.8465 5.37471  14
   4  -6  -3 91.9882 4.68502   4
   4  -6  -3 84.0028 5.28922   3
  -4  -6   3 113.579 6.21520  13
  -4  -6   3 83.3161 4.47088   8
  -4   6   3 69.7413 4.92812   5
  -4   6   3 71.7953 5.11642  11
   4   6  -3 80.4663 4.96872  12
  -4   6   3 87.6812 6.77136  16
   4   6  -3 83.6519 5.63094   2
   4   6  -3 87.1636 7.25903  10
   4   6  -3 81.0975 4.54615   4
   2  -6  -3 28.7843 3.42702   3
  -2  -6   3 28.3022 3.19046  13
   2  -6  -3 25.5107 2.94887  12
   2  -6  -3 27.8704 3.41289  13
  -2  -6   3 28.9969 2.45888   7
  -2  -6   3 36.2045 3.31082   3
   2  -6  -3 29.5715 3.07682  14
  -2   6   3 31.3301 3.13245   6
  -2   6   3 29.5111 3.47426  11
   2   6  -3 28.5398 2.06908   6
   2   6  -3 29.6620 4.38382  10
  -2   6   3 31.0761 2.38906   2
   2   6  -3 39.0875 4.08483   2
   2   6  -3 21.5027 2.78570  12
   0  -6   3 525.181 16.4264   3
   0  -6   3 522.689 15.5918  13
   0  -6  -3 536.798 16.2430  12
   0  -6  -3 531.661 17.7819  13
   0  -6   3 538.575 16.2444   7
   0  -6  -3 504.420 16.5737   3
   0  -6  -3 514.629 15.1004  14
   0   6   3 509.832 15.1488   9
   0   6   3 526.124 15.7148  15
   0   6  -3 528.753 16.9371   2
   0   6   3 529.003 18.0685  11
   0   6   3 521.919 16.2049   6
   0   6  -3 526.802 18.8855  10
   0   6   3 516.926 15.9741   2
   0   6  -3 528.122 16.4178  12
  -2  -6  -3 225.606 10.2130  13
   2  -6   3 225.752 8.63447   3
  -2  -6  -3 226.388 8.70756  12
   2  -6   3 211.549 9.13912   7
  -2  -6  -3 217.830 8.76400   3
  -2   6  -3 247.647 9.81624  16
  -2   6  -3 217.853 8.91943  12
  -2   6  -3 229.969 8.07973   5
  -2   6  -3 223.378 9.66981   2
   2   6   3 218.500 9.32268   2
   2   6   3 217.362 8.81626   6
   2   6   3 210.215 8.76400   9
   2   6   3 219.799 9.15106  15
  -4  -6  -3 67.6992 5.83768   8
   4  -6   3 63.8133 5.56925   7
  -4  -6  -3 70.6232 6.28790  13
   4  -6   3 77.2437 5.87394   9
  -4  -6  -3 75.2689 5.12993  12
  -4   6  -3 83.0275 6.11534   2
  -4   6  -3 73.0887 5.34451  12
   4   6   3 79.8687 5.61792   9
   4   6   3 75.1255 5.19823   6
   4   6   3 68.3808 5.80343  15
  -6  -6  -3 131.450 8.94266  13
   6  -6   3 141.426 8.89167   9
  -6  -6  -3 140.752 10.6171  16
   6  -6   3 153.297 9.27759   7
  -6  -6  -3 153.136 8.42600  12
  -6  -6  -3 148.252 9.52371   8
   6   6   3 143.708 9.03465   9
  -6   6  -3 147.651 10.1136  16
  -6   6  -3 149.023 9.00128   2
  -6   6  -3 148.291 8.12705   5
   6   6   3 139.270 8.39333   6
   6   6   3 153.049 9.95922  15
  -8  -6  -3 -2.5199 2.42724   5
   8  -6   3 1.23792 3.20793   9
  -8  -6  -3 -1.1954 3.64210   8
   8  -6   3 -0.7436 2.86468   7
  -8  -6  -3 0.65352 2.29490  12
   8   6   3 -0.6591 3.14357   9
  -8   6  -3 1.02178 3.28875   5
   8   6   3 1.98725 3.90489  15
  -8   6  -3 1.16990 2.47105  12
  -8   6  -3 2.63392 2.91229   2
   9  -7  -3 144.796 9.90405   4
  -9  -7   3 146.182 10.1017  13
   9  -7  -3 153.714 9.95391   7
   9  -7  -3 154.494 9.04542  14
  -9  -7   3 140.478 9.49040   8
   9   7  -3 154.607 10.7512   9
  -9   7   3 146.163 9.09487   5
  -7  -7   3 31.1151 4.36829   8
  -7  -7   3 33.1764 5.19687  13
   7  -7  -3 30.9933 4.58972  14
   7  -7  -3 33.9452 4.71188   4
  -7  -7   3 31.8354 4.57436   1
  -7   7   3 37.2102 6.41966  16
  -7   7   3 37.2649 4.95264   5
   7   7  -3 36.8907 5.24851   2
   5  -7  -3 15.4916 3.11261  14
   5  -7  -3 17.9605 3.20904   3
   5  -7  -3 12.9726 2.32027  13
   5  -7  -3 13.4352 2.48644   4
  -5  -7   3 18.5811 3.60369  13
  -5  -7   3 18.5409 2.99258   3
  -5  -7   3 13.8845 2.34088   8
  -5   7   3 11.1698 2.86598   5
   5   7  -3 12.6865 3.46128  10
   5   7  -3 18.4308 3.72666   2
  -5   7   3 16.0101 3.60461  16
  -3  -7   3 720.166 22.1876  13
   3  -7  -3 668.776 21.5309  12
   3  -7  -3 694.351 21.2700  14
   3  -7  -3 693.336 21.9964  13
  -3  -7   3 730.280 20.1820   7
   3  -7  -3 709.883 22.0530   3
  -3  -7   3 694.585 21.4785   3
  -3   7   3 688.015 21.1450   6
   3   7  -3 678.537 21.6279  12
  -3   7   3 704.340 21.2537   5
   3   7  -3 711.868 24.9997  10
  -3   7   3 678.279 22.1814  11
  -3   7   3 690.634 20.0866   2
   3   7  -3 746.949 22.4855   2
  -1  -7   3 295.122 10.7356  13
  -1  -7   3 294.643 10.2819   7
   1  -7  -3 284.715 11.2738   3
   1  -7  -3 289.881 10.0657  14
   1  -7  -3 279.069 10.7435  12
  -1  -7   3 291.360 10.8884   3
   1  -7  -3 291.526 11.8093  13
  -1   7   3 278.738 10.0918   2
   1   7  -3 290.697 10.9857  12
   1   7  -3 286.068 13.0442  10
  -1   7   3 282.225 10.5047   6
   1   7  -3 287.019 9.48979   6
  -1   7   3 285.344 12.0180  11
   1   7  -3 304.596 11.7671   2
   1  -7   3 19.4970 2.89236   3
  -1  -7  -3 18.3091 3.41216  13
  -1  -7  -3 19.8752 2.71786  12
  -1  -7  -3 22.9897 3.30056   3
   1  -7   3 24.3644 3.26240   7
  -1   7  -3 22.4507 3.09947  12
  -1   7  -3 30.6544 3.02700  16
   1   7   3 19.2845 2.98249   2
   1   7   3 18.3134 2.73787  15
   1   7   3 21.3713 2.61528   9
   1   7   3 30.6486 3.52976   6
  -1   7  -3 22.4448 3.57114   2
  -1   7  -3 20.8722 3.86546  10
  -3  -7  -3 173.545 9.89743  13
  -3  -7  -3 184.095 9.20321   8
  -3  -7  -3 177.311 8.28884  12
  -3  -7  -3 177.604 7.98789   3
   3  -7   3 183.443 9.05096   7
   3  -7   3 177.501 7.87707   3
  -3   7  -3 181.247 8.64283  12
   3   7   3 184.275 8.72091   9
   3   7   3 183.357 9.03458  15
  -3   7  -3 162.241 8.91626  16
   3   7   3 188.054 8.70568   6
  -3   7  -3 165.732 7.35608   5
  -3   7  -3 178.271 9.21112   2
  -5  -7  -3 40.0292 4.61900  12
  -5  -7  -3 47.7842 5.45116   8
  -5  -7  -3 40.7340 6.29450  16
  -5  -7  -3 42.6515 5.78411  13
   5  -7   3 41.9011 5.39201   7
   5  -7   3 35.5822 4.98219   9
   5   7   3 49.7456 5.02235   6
  -5   7  -3 51.1099 5.16300   5
   5   7   3 48.4581 5.90579   9
   5   7   3 54.1127 6.09580  15
  -5   7  -3 44.5817 5.01118  12
  -5   7  -3 48.3818 5.34927   2
  -5   7  -3 37.4820 5.59420  16
  -7  -7  -3 56.2068 5.80874  12
   7  -7   3 68.0435 7.57648   7
  -7  -7  -3 60.3100 7.57199   8
  -7  -7  -3 60.7403 6.46950   5
   7  -7   3 64.2175 6.87753   9
  -7   7  -3 59.1315 6.27012   5
  -7   7  -3 57.7836 6.44624   2
   7   7   3 61.4301 7.20685   9
   7   7   3 69.4097 8.24904  15
   7   7   3 77.8170 7.00700   6
  -7   7  -3 64.8232 6.34202  12
 -10  -8   3 58.4691 6.76732   8
  10  -8  -3 64.0690 7.81767   7
 -10   8   3 66.0162 7.53927   5
  10   8  -3 60.7562 8.07373   9
   8  -8  -3 452.709 17.6578  14
   8  -8  -3 452.776 18.1163   7
  -8  -8   3 406.501 17.8969  13
   8  -8  -3 441.842 17.5099   4
  -8  -8   3 430.759 17.2968   1
  -8  -8   3 427.961 16.7753   8
   8   8  -3 438.435 18.6078   9
  -8   8   3 433.559 16.9336   5
  -8   8   3 431.872 20.3311  16
   8   8  -3 447.921 18.1986   2
  -6  -8   3 261.185 10.9596   8
  -6  -8   3 252.933 10.7754   3
   6  -8  -3 278.423 12.1081  14
   6  -8  -3 243.748 10.6917   4
  -6  -8   3 265.054 12.7880  13
   6  -8  -3 248.993 11.1659   3
   6   8  -3 268.559 12.5965   2
  -6   8   3 252.072 11.2630   5
  -6   8   3 248.637 14.1455  16
  -4  -8   3 219.127 9.91249   3
   4  -8  -3 215.261 10.0939  12
   4  -8  -3 224.878 9.93305  13
   4  -8  -3 232.357 10.4645   3
  -4  -8   3 249.275 11.3192  13
   4  -8  -3 244.200 10.3467  14
  -4   8   3 207.862 9.93173  11
   4   8  -3 250.476 11.4005   2
  -4   8   3 224.603 10.1056   6
  -4   8   3 246.123 10.2273   5
   4   8  -3 237.673 12.8561  10
  -2  -8   3 215.100 8.28328   7
  -2  -8   3 218.608 9.54400   3
   2  -8  -3 209.195 8.81551  14
  -2  -8   3 212.381 9.37395  13
   2  -8  -3 219.893 10.0036  13
   2  -8  -3 201.553 9.68052   3
   2  -8  -3 207.282 9.37079  12
   2  -8  -3 204.633 7.94124   7
   2   8  -3 217.632 11.5865  10
  -2   8   3 210.224 10.0717  11
   2   8  -3 218.784 10.2478   2
  -2   8   3 210.765 8.34555   2
  -2   8   3 225.184 9.25319   6
   2   8  -3 209.655 9.36996  12
   0  -8  -3 110.884 5.29877  14
   0  -8   3 118.888 5.90559  13
   0  -8  -3 112.837 7.11764   3
   0  -8  -3 123.488 7.73459  13
   0  -8  -3 110.736 6.39418  12
   0  -8   3 120.327 6.58540   3
   0  -8   3 119.647 6.33015   7
   0   8  -3 108.113 6.26589  12
   0   8  -3 126.666 8.16828  10
   0   8   3 113.594 6.55321   6
   0   8   3 116.175 6.33948   2
   0   8   3 120.254 5.79436  15
   0   8  -3 116.509 7.05263   2
   2  -8   3 613.443 19.7222   3
  -2  -8  -3 620.846 21.9170  13
  -2  -8  -3 598.920 19.8114  12
  -2  -8  -3 630.700 20.1242   3
   2  -8   3 599.185 20.0750   7
   2   8   3 630.810 20.5924   2
  -2   8  -3 558.228 22.4214  10
  -2   8  -3 593.483 20.6560   2
   2   8   3 613.252 20.0151  15
   2   8   3 594.667 19.5418   6
   2   8   3 599.297 19.3952   9
  -2   8  -3 625.846 20.3628  12
  -4  -8  -3 500.799 18.7115   8
  -4  -8  -3 510.294 19.9956  13
  -4  -8  -3 491.227 17.6514  12
   4  -8   3 482.518 18.3853   7
   4   8   3 482.001 18.0690   9
   4   8   3 495.191 17.7618   6
  -4   8  -3 464.270 17.7062  12
   4   8   3 519.075 18.9378  15
  -4   8  -3 496.831 18.6117   2
  -6  -8  -3 40.1705 6.06537   8
  -6  -8  -3 22.1669 4.01027  12
   6  -8   3 28.2071 4.98948   7
   6   8   3 22.8795 4.53051   6
  -6   8  -3 23.2659 4.56015   2
   6   8   3 26.0666 5.08160   9
   6   8   3 25.4461 5.38743  15
  -6   8  -3 19.9386 4.21434  12
  -6   8  -3 19.7307 4.27066   5
  -9  -9   3 31.1154 5.02549   8
   9  -9  -3 29.9773 6.00183   7
  -9   9   3 32.0138 5.50916   5
   9   9  -3 34.9478 6.44431   9
  -7  -9   3 33.2022 5.88523  13
  -7  -9   3 30.2805 4.87490   1
  -7  -9   3 32.9707 4.18253   8
   7  -9  -3 43.6902 5.94209   7
   7  -9  -3 39.0145 5.16391  14
   7   9  -3 36.6057 6.06882   2
  -7   9   3 29.3130 6.38737  16
  -7   9   3 28.2819 5.07909   5
  -5  -9   3 7.97313 3.27519  13
   5  -9  -3 8.17156 3.09784  14
   5  -9  -3 6.01369 2.73873   7
  -5  -9   3 8.73783 2.57400   3
   5  -9  -3 5.84354 2.94523   3
  -5   9   3 4.15038 2.94615   5
   5   9  -3 3.20871 3.35494   2
  -5   9   3 4.40188 2.25485   6
   3  -9  -3 24.3947 3.48605  14
   3  -9  -3 23.9938 3.65376  12
  -3  -9   3 25.5340 4.01585  13
   3  -9  -3 24.7177 3.53435  13
   3  -9  -3 31.2066 4.61037   3
   3  -9  -3 22.3860 3.15570   7
  -3  -9   3 24.0252 3.90179   3
   3   9  -3 26.0818 4.59483   2
  -3   9   3 25.4932 3.59693   6
  -3   9   3 23.3146 3.79951  11
   3   9  -3 24.7974 5.74418  10
   1  -9  -3 5.51043 2.02480  14
   1  -9  -3 -0.0592 1.63671  12
   1  -9  -3 1.68629 1.72274  13
  -1  -9   3 1.04475 1.63254  13
  -1  -9   3 0.38764 2.07600   3
  -1  -9   3 2.30101 1.69842   7
   1  -9  -3 3.05390 2.65245   3
   1   9  -3 9.00876 3.38618   2
   1   9  -3 2.54177 2.25118  10
  -1   9   3 0.07981 1.52033   6
  -1   9   3 5.86067 2.17697   2
   1   9  -3 2.65439 1.75110   6
   1  -9   3 3.63977 2.36523   7
  -1  -9  -3 2.15853 2.58514   3
  -1  -9  -3 2.96563 2.74528  13
   1  -9   3 -0.2827 1.97070   3
  -1  -9  -3 5.40640 2.28443  12
  -1   9  -3 2.05805 2.04494  12
   1   9   3 4.90938 1.99922  15
  -1   9  -3 4.79221 2.59118  10
  -1   9  -3 3.61350 3.01000   2
   1   9   3 2.79785 1.84162   2
   1   9   3 8.56540 2.39999   6
  -3  -9  -3 81.0947 6.36185   8
  -3  -9  -3 79.0795 7.18477  13
   3  -9   3 78.1378 5.91413   3
   3  -9   3 80.4510 6.32706   7
  -3  -9  -3 82.4468 6.27516   3
  -3  -9  -3 84.1385 6.33781  12
   3   9   3 87.3827 6.67604  15
   3   9   3 79.1493 6.01609   6
  -3   9  -3 81.2028 7.27535   2
  -3   9  -3 69.6137 6.18256  12
   3   9   3 82.6488 5.83655   9
  -5  -9  -3 11.0239 3.18194  12
  -5  -9  -3 13.5979 4.18151   8
  -5  -9  -3 5.03067 2.84695  13
  -5  -9  -3 13.6300 3.86085  16
   5  -9   3 12.9491 4.36694   7
  -5   9  -3 11.1934 3.86396   2
   5   9   3 15.3939 3.89272   9
   5   9   3 11.2677 3.93163  15
   5   9   3 12.4299 3.80244   6
  -7  -9  -3 1.61734 2.49223   8
  -7  -9  -3 4.17046 2.78009  12
  -7  -9  -3 1.89095 2.46681   5
   7   9   3 1.77810 3.93935  15
   7   9   3 0.13199 2.87930   9
   7   9   3 0.23468 3.18068   6
  -8 -10   3 27.0788 5.56960   1
   8 -10  -3 24.9104 5.34546   7
   8  10  -3 23.7266 4.89008   2
  -8  10   3 21.8310 4.83460   5
   8  10  -3 17.2930 4.81011   9
   6 -10  -3 66.4251 6.67983   3
  -6 -10   3 74.6255 6.51645   3
  -6 -10   3 72.9178 7.54435  13
   6 -10  -3 70.9379 6.64889   7
   6 -10  -3 73.2524 6.40633  14
   6  10  -3 81.3669 7.45674   2
  -6  10   3 68.5392 6.27378   5
  -6  10   3 82.4167 7.71314   6
   4 -10  -3 -0.1624 2.67035   3
   4 -10  -3 1.10369 2.13481   7
   4 -10  -3 1.30733 2.48361  14
  -4 -10   3 0.24838 2.60176   3
  -4 -10   3 0.73868 2.54447  13
  -4  10   3 0.72522 2.82799   6
   4  10  -3 1.68422 3.24008   2
   2 -10  -3 34.6227 4.88864  13
   2 -10  -3 39.0255 4.93567   3
   2 -10  -3 36.0826 4.64069  12
   2 -10  -3 34.9573 4.12812  14
  -2 -10   3 30.5733 4.57885   3
  -2 -10   3 35.3930 4.58825  13
   2  10  -3 36.9678 5.39274   2
  -2  10   3 36.1292 4.75310   6
   0 -10  -3 4.35597 2.81739  13
   0 -10  -3 5.97419 3.30300   3
   0 -10   3 3.63481 1.93952   7
   0 -10  -3 3.70876 2.28806  12
   0 -10   3 3.51590 2.01367   3
   0  10   3 4.21690 2.24612   2
   0  10  -3 4.30993 3.46818   2
   0  10   3 4.59369 2.82338   6
   0  10  -3 2.84210 1.78626   6
  -2 -10  -3 74.7969 7.58474  13
  -2 -10  -3 68.1624 6.05311  12
   2 -10   3 69.7809 6.46036   7
  -2 -10  -3 70.5464 6.50797   3
   2 -10   3 70.9693 6.11840   3
  -2 -10  -3 81.2415 6.55697   8
   2  10   3 69.2939 6.61236   2
   2  10   3 72.8607 6.34910   6
   2  10   3 70.0171 5.78019  15
  -2  10  -3 75.8716 7.57254   2
   4 -10   3 13.2895 3.59538   7
  -4 -10  -3 16.8945 4.29094   8
  -4 -10  -3 15.2330 3.75094  12
   4  10   3 20.2501 4.24691  15
  -4  10  -3 5.17148 3.54531   2
   4  10   3 19.3931 4.19666   6
   6 -10   3 -0.5475 2.52420   7
  -6 -10  -3 -1.6213 3.17432   8
  -6 -10  -3 -1.6795 2.05121  12
   6  10   3 0.14770 2.49964   9
   6  10   3 1.33364 2.33603   6
   6  10   3 1.09824 3.20712  15
  -6  10  -3 2.33679 2.91005   2
   7 -11  -3 120.216 9.04963   7
  -7 -11   3 127.246 10.0863   1
   7  11  -3 127.939 9.98938   9
   7  11  -3 132.500 9.75456   2
  -7  11   3 124.645 9.14503   6
  -7  11   3 119.612 8.97101   5
  -5 -11   3 146.131 9.36544   3
   5 -11  -3 128.436 8.96752  14
   5 -11  -3 130.781 8.47368   7
   5 -11  -3 133.480 9.26746   3
  -5 -11   3 148.511 9.66826  13
  -5  11   3 132.808 9.25324   6
   5  11  -3 153.131 10.7318   2
   3 -11  -3 155.727 8.91946  14
  -3 -11   3 169.820 10.1184   3
  -3 -11   3 168.322 9.68676  13
   3 -11  -3 156.504 10.1002   3
   3  11  -3 178.258 11.0044   2
  -3  11   3 165.114 9.83459   6
   1 -11  -3 127.312 9.27854   3
  -1 -11   3 132.638 8.83880   3
   1 -11  -3 119.338 8.46306  13
  -1  11   3 140.051 8.65277   6
   1  11  -3 129.509 9.43371   2
   1 -11   3 165.223 9.52557   3
  -1 -11  -3 171.413 9.82854  12
  -1 -11  -3 183.497 10.5649   3
   1 -11   3 186.137 9.66207   7
  -1 -11  -3 172.119 9.36989   8
  -1 -11  -3 178.361 11.3105  13
  -1  11  -3 177.852 11.0082   2
   1  11   3 171.332 9.42951   2
   1  11   3 177.907 9.88652   6
  -3 -11  -3 192.912 10.6423  12
  -3 -11  -3 179.711 10.5024   8
   3 -11   3 182.336 10.6750   7
   3 -11   3 175.177 9.84959   3
   3  11   3 185.243 10.3735   6
  -3  11  -3 187.072 11.2322   2
   3  11   3 164.710 9.56802  15
   5 -11   3 85.4420 8.44912   7
  -5 -11  -3 91.7901 8.38413   8
  -5  11  -3 88.5233 8.08239   2
   5  11   3 96.3050 8.26457  15
   5  11   3 95.2025 7.86781   6
   6 -12  -3 12.5812 3.62190   3
  -6 -12   3 1.80623 3.22643   3
  -6 -12   3 5.76980 4.46492   1
   6  12  -3 4.30748 4.34589   2
  -6  12   3 3.86141 3.87303   6
  -4 -12   3 116.196 9.07351   3
   4 -12  -3 102.788 8.65342   3
   4  12  -3 123.363 9.74125   2
  -4  12   3 108.614 8.05203   6
   2 -12  -3 250.558 13.2029   3
  -2 -12   3 237.626 12.7398   3
   2  12  -3 252.997 13.1151   2
  -2  12   3 240.896 11.8429   6
   0 -12   3 54.2300 6.23317   3
   0 -12  -3 41.8491 6.27523  13
   0 -12  -3 54.5160 6.73087   3
   0  12  -3 62.3223 7.43010   2
   0  12   3 44.9088 5.32024   6
   2 -12   3 16.0189 3.90944   3
   2 -12   3 24.3486 4.77649   7
  -2 -12  -3 17.1839 3.41731   8
  -2 -12  -3 17.3673 4.53420   3
  -2  12  -3 20.4392 5.09006   2
   2  12   3 20.8823 4.28407   6
   2  12   3 16.2837 4.15614   2
   4 -12   3 8.68194 4.15343   7
  -4 -12  -3 12.8912 3.36027   8
   4  12   3 7.91657 3.82417   6
  -4  12  -3 12.4702 3.92967   6
  -4  12  -3 11.9045 4.15810   2
   4  12   3 11.6997 3.76568  15
   5 -13  -3 45.6572 6.24795   3
  -3 -13   3 4.48444 3.89825   3
   3 -13  -3 12.9138 4.51516   3
   3  13  -3 10.1181 4.28541   2
  -3  13   3 15.5919 4.55970   6
  -1 -13   3 35.5546 5.58081   3
   1 -13  -3 42.8615 6.18242   3
   1  13  -3 46.9064 6.85699   2
  -1  13   3 42.0920 5.88089   6
   1 -13   3 29.4442 5.14010   3
  -1 -13  -3 28.8611 5.62866   3
  -1  13  -3 24.4887 5.10681   2
   1  13   3 38.6041 5.72810   6
 -12   0   4 392.099 17.3240   8
  12   0  -4 391.613 17.7013   4
  10   0  -4 1304.75 42.0664   9
 -10   0   4 1385.50 44.0686  16
 -10   0   4 1448.64 41.9617   8
 -10   0   4 1441.26 40.7570   5
  10   0  -4 1447.28 42.6690   4
 -10   0   4 1422.55 45.1094  11
  -8   0   4 2857.12 74.7544   5
  -8   0   4 2862.96 77.7285  16
   8   0  -4 2772.25 74.5031  14
  -8   0   4 2887.17 75.9050   8
   8   0  -4 2920.53 76.6951   4
  -8   0   4 2899.76 78.7634  11
   6   0  -4 4438.39 112.056   4
   6   0  -4 4429.48 111.253  14
  -6   0   4 4463.06 112.712  16
  -6   0   4 4380.79 113.760  11
   6   0  -4 4382.48 115.346  10
   6   0  -4 4322.00 110.505   9
  -6   0   4 4374.98 111.399   8
  -6   0   4 4345.56 110.500   5
   6   0  -4 4248.33 111.825  12
  -6   0   4 4457.68 110.861   1
   4   0  -4 9693.38 253.678   4
  -4   0   4 9807.36 256.510  16
  -4   0   4 9939.67 252.840   1
   4   0  -4 9999.99 252.995  14
   4   0  -4 9670.53 244.539   2
  -4   0   4 9743.36 252.548  11
  -4   0   4 9430.31 247.805   5
   4   0  -4 9853.65 251.357  12
   4   0  -4 9677.31 266.346  10
  -4   0   4 9722.57 250.995   8
  -2   0   4 4570.87 123.048  11
  -2   0   4 4714.00 122.485  10
  -2   0   4 4811.81 120.045  15
  -2   0   4 4730.76 121.015   1
   2   0  -4 4829.58 119.125  12
  -2   0   4 4604.43 121.770   7
   2   0  -4 4744.29 120.130   2
   2   0  -4 4692.24 118.475  12
   2   0  -4 4856.44 128.807  10
  -2   0   4 4563.84 119.173   6
   0   0   4 3394.18 84.4296   6
   0   0   4 3371.92 84.7592   7
   0   0   4 3429.92 85.6723  11
   0   0   4 3433.40 84.8873   1
   0   0   4 3322.99 85.0221   9
   0   0   4 3282.57 85.2841  15
  -2   0  -4 7703.53 188.193   8
   2   0   4 7311.48 190.041   7
   2   0   4 7398.07 191.221   1
   2   0   4 7543.29 197.102   9
  -2   0  -4 7619.23 193.824  13
  -2   0  -4 7793.59 190.138  12
  -2   0  -4 7578.83 190.273  12
   2   0   4 7690.18 196.893  15
   2   0   4 7417.47 191.214   6
  -2   0  -4 7546.28 200.568  16
  -4   0  -4 3562.27 91.5953   8
  -4   0  -4 3635.42 90.5357  12
   4   0   4 3420.95 90.9240   7
   4   0   4 3638.53 93.4326   9
  -4   0  -4 3552.70 95.1395  16
   4   0   4 3648.46 92.8505  15
  -4   0  -4 3570.71 92.1782   5
  -6   0  -4 1351.90 39.5740   8
   6   0   4 1436.10 42.0710   9
   6   0   4 1461.16 41.2991  15
  -6   0  -4 1357.56 43.7938  16
  -6   0  -4 1389.44 40.5458   5
  -6   0  -4 1439.07 39.4731  12
   8   0   4 1154.85 35.4490  15
  -8   0  -4 1074.36 33.8376  12
  -8   0  -4 1103.45 35.0255   5
   8   0   4 1107.06 36.6154   9
 -11  -1   4 232.915 15.0571  11
 -11  -1   4 244.600 13.6472  16
 -11  -1   4 242.858 12.7402   8
  11  -1  -4 247.087 13.1873   4
 -11  -1   4 233.697 11.2587   5
  11   1  -4 236.402 11.9739   9
 -11   1   4 227.845 14.1185  11
 -11   1   4 223.576 12.1710   8
 -11   1   4 252.082 11.8784   5
 -11   1   4 235.528 14.2784  16
  11   1  -4 236.231 12.6428   4
   9  -1  -4 139.832 8.76636   4
  -9  -1   4 142.318 7.47204   5
  -9  -1   4 156.288 8.38809   8
  -9  -1   4 151.348 10.4904  11
   9  -1  -4 139.121 7.20789  14
  -9  -1   4 146.327 9.39780  16
  -9   1   4 151.361 10.1759  11
  -9   1   4 137.017 7.79797   5
  -9   1   4 147.118 9.53342  16
   9   1  -4 152.798 7.94025   9
  -9   1   4 146.995 8.15846   8
   9   1  -4 136.694 8.49406   4
   7  -1  -4 1396.89 38.4630   4
  -7  -1   4 1385.97 37.0240   1
  -7  -1   4 1394.52 37.8065   8
   7  -1  -4 1340.94 37.3839  14
  -7  -1   4 1367.16 38.8176  16
  -7  -1   4 1332.53 36.5112   5
   7  -1  -4 1255.42 37.8402  12
   7  -1  -4 1365.19 36.4726   9
  -7   1   4 1416.55 39.8920  16
  -7   1   4 1342.12 37.0149   5
   7   1  -4 1340.85 36.8138  14
   7   1  -4 1354.69 37.3359   9
  -7   1   4 1368.06 40.0007  11
   7   1  -4 1384.80 38.4455   4
   7   1  -4 1348.70 42.3658  10
   7   1  -4 1266.10 37.8089  12
  -7   1   4 1357.93 36.5369   1
  -7   1   4 1364.28 37.7434   8
   5  -1  -4 1469.08 39.8414  12
   5  -1  -4 1489.37 42.1690  10
  -5  -1   4 1508.56 39.4902   8
   5  -1  -4 1495.49 39.9887   4
  -5  -1   4 1468.43 38.2998   5
   5  -1  -4 1442.21 38.0755   9
  -5  -1   4 1466.16 39.3447   1
   5  -1  -4 1467.28 39.6890  14
  -5  -1   4 1484.81 39.7346  16
  -5  -1   4 1485.53 41.3901  11
  -5   1   4 1489.98 39.2847   1
   5   1  -4 1511.59 43.2237  10
  -5   1   4 1461.61 40.6709  16
  -5   1   4 1420.92 38.7890   5
  -5   1   4 1526.05 41.6580  11
   5   1  -4 1479.96 39.8619  12
   5   1  -4 1491.24 39.4174  14
   5   1  -4 1494.38 40.0963   4
   5   1  -4 1463.46 38.1118   2
  -5   1   4 1474.15 39.5115   8
  -3  -1   4 751.520 20.9946   1
  -3  -1   4 775.032 20.8564   7
   3  -1  -4 766.758 21.0061   4
  -3  -1   4 736.788 19.4064   5
  -3  -1   4 726.344 20.3682   8
   3  -1  -4 766.642 21.1404  14
   3  -1  -4 769.068 20.3063  12
  -3  -1   4 718.452 21.9359  11
   3  -1  -4 753.723 22.1011  10
  -3   1   4 717.441 19.6812   6
  -3   1   4 744.684 22.4013  11
   3   1  -4 778.160 20.3918  12
  -3   1   4 752.275 21.4848  16
   3   1  -4 800.282 23.4643  10
  -3   1   4 766.985 22.0782  10
  -3   1   4 734.648 20.9303   1
   3   1  -4 744.627 21.0470   4
   3   1  -4 756.531 20.0001   2
  -3   1   4 759.625 20.2514   5
  -3   1   4 742.383 20.6949   8
  -1  -1   4 4206.41 108.554  11
  -1  -1   4 4300.55 107.916   7
   1  -1  -4 4635.73 116.699  10
  -1  -1   4 4170.85 110.292   9
  -1  -1   4 4191.74 108.725   6
  -1  -1   4 4138.50 108.128  15
  -1  -1   4 4263.79 110.474   1
  -1   1   4 4280.42 110.921   9
  -1   1   4 4354.40 109.857   6
  -1   1   4 4518.69 109.286  11
  -1   1   4 4435.78 107.670   7
  -1   1   4 4279.07 107.945  15
   1   1  -4 4160.76 115.805  10
  -1   1   4 4437.34 111.061   1
  -1  -1  -4 1343.88 36.8161  13
   1  -1   4 1426.69 36.9650   9
   1  -1   4 1406.88 36.8710  15
   1  -1   4 1431.40 36.1819  11
   1  -1   4 1406.49 35.6267   1
   1  -1   4 1420.45 36.3177   7
   1  -1   4 1418.95 35.9332   6
   1   1   4 1358.19 36.8682  15
   1   1   4 1337.98 35.9267   1
   1   1   4 1319.88 35.5758   7
  -1   1  -4 1448.66 37.4122  16
   1   1   4 1324.33 36.0273   6
   1   1   4 1341.91 36.5215   9
   1   1   4 1292.95 37.1173  11
   3  -1   4 553.021 18.0813   9
  -3  -1  -4 583.483 17.5146   8
   3  -1   4 553.401 17.0231   7
  -3  -1  -4 576.286 19.7933  16
  -3  -1  -4 551.649 16.8992  13
   3  -1   4 594.601 18.0468  15
  -3  -1  -4 579.512 15.8642  12
  -3   1  -4 575.070 19.3091  16
   3   1   4 547.312 16.2371   7
   3   1   4 588.905 18.2565   9
   3   1   4 577.953 18.1558  15
   3   1   4 551.672 17.2656   6
  -3   1  -4 554.586 16.5416   8
  -3   1  -4 584.495 17.3575   5
  -3   1  -4 594.332 16.0216  12
  -5  -1  -4 952.441 28.0782   8
  -5  -1  -4 947.812 28.2320   5
   5  -1   4 896.151 27.0696   7
   5  -1   4 964.767 29.3843   9
   5  -1   4 951.308 28.4650  15
  -5  -1  -4 935.155 26.6489  12
  -5  -1  -4 936.184 31.2283  16
   5   1   4 927.404 29.1328   9
  -5   1  -4 892.593 26.7931   8
  -5   1  -4 935.030 28.0529   5
  -5   1  -4 962.502 31.0932  16
   5   1   4 961.977 28.9094  15
  -7  -1  -4 161.632 9.32167   8
  -7  -1  -4 160.054 9.76491   5
   7  -1   4 170.042 9.61844  15
  -7  -1  -4 190.054 9.13850  12
  -7  -1  -4 161.280 11.8026  16
   7  -1   4 173.870 10.7464   9
  -7   1  -4 170.830 11.6426  16
  -7   1  -4 169.101 8.82091  12
   7   1   4 162.619 10.5407   9
  -7   1  -4 179.292 10.0596   5
   7   1   4 173.376 10.1827  15
  -9  -1  -4 94.9702 9.53592   5
   9  -1   4 100.542 9.82723   9
  -9  -1  -4 109.867 8.83151  12
  -9   1  -4 105.056 8.80964  12
  12  -2  -4 150.734 10.6965   4
 -12  -2   4 143.789 10.5016   8
 -12  -2   4 155.088 13.1465  11
 -12   2   4 140.091 9.80766   8
 -12   2   4 140.664 8.95212   5
  12   2  -4 151.678 9.98481   4
 -10  -2   4 660.565 22.3299   5
  10  -2  -4 725.094 25.2936   4
 -10  -2   4 675.748 24.0790   8
 -10  -2   4 706.192 27.1535  11
 -10   2   4 697.537 26.2109  11
 -10   2   4 711.246 27.1523  16
 -10   2   4 697.370 23.7640   8
  10   2  -4 732.650 24.2001   9
  10   2  -4 741.556 24.6228   4
 -10   2   4 708.778 23.5045   5
  -8  -2   4 374.856 13.3232   5
  -8  -2   4 436.832 15.3959   8
  -8  -2   4 408.810 13.9318   1
   8  -2  -4 411.063 15.5852   4
  -8  -2   4 409.863 15.6852  16
   8  -2  -4 402.933 14.3797  14
   8   2  -4 399.262 19.0965  10
  -8   2   4 428.149 16.9578  11
  -8   2   4 412.109 16.8507  16
  -8   2   4 406.639 14.7889   8
  -8   2   4 407.424 14.4938   5
   8   2  -4 413.070 14.9236   9
   8   2  -4 390.684 14.9851   4
   6  -2  -4 72.1066 4.90610   4
   6  -2  -4 68.3400 4.57846  14
   6  -2  -4 73.6166 4.67239  12
  -6  -2   4 77.6248 4.58722   8
  -6  -2   4 70.5955 4.61152  13
  -6  -2   4 73.1408 3.62549   5
  -6  -2   4 72.1828 4.54896  16
  -6  -2   4 79.9713 4.38925   1
   6  -2  -4 57.6791 3.46507   9
   6   2  -4 75.2550 6.83794  10
   6   2  -4 69.0748 4.61104  12
  -6   2   4 62.0157 4.17287   8
  -6   2   4 67.1526 5.18187  16
   6   2  -4 73.2369 3.85918   2
  -6   2   4 69.3010 4.11073   5
  -6   2   4 71.2131 4.00956   1
   6   2  -4 71.4586 4.11997  14
   6   2  -4 69.4246 4.60633   4
   4  -2  -4 2129.42 55.3751  10
  -4  -2   4 2085.21 53.5508   8
   4  -2  -4 2071.72 53.9257  12
  -4  -2   4 2066.13 54.0407   1
  -4  -2   4 2083.64 52.9536  16
   4  -2  -4 2046.22 54.0103   4
  -4  -2   4 2054.40 52.1355   5
   4  -2  -4 2087.46 54.3021  14
  -4  -2   4 2115.43 54.5174  13
  -4   2   4 2087.05 55.9506  11
  -4   2   4 2058.36 53.5203   5
  -4   2   4 2046.63 53.8887   8
   4   2  -4 2117.26 54.4070   4
   4   2  -4 2098.91 57.5440  10
  -4   2   4 2027.15 53.7780   1
  -4   2   4 2141.48 55.5141  16
   4   2  -4 2057.20 53.8761  12
   4   2  -4 2073.27 53.1835   2
  -4   2   4 2066.77 55.3648  10
  -2  -2   4 3289.68 84.3882   8
   2  -2  -4 3556.35 87.5182  12
   2  -2  -4 3496.67 91.1735  10
  -2  -2   4 3269.19 86.1027  11
  -2  -2   4 3299.51 85.2504   7
  -2  -2   4 3228.93 85.4299   1
   2  -2  -4 3647.59 85.7734  14
   2  -2  -4 3461.00 85.0760   4
  -2   2   4 3595.88 87.1959  11
   2   2  -4 3161.88 83.9263  16
  -2   2   4 3437.86 84.7517  15
   2   2  -4 3258.72 85.0218   2
   2   2  -4 3352.59 88.6855  12
   2   2  -4 3394.03 88.1785  10
  -2   2   4 3463.02 85.6645   1
  -2   2   4 3439.45 84.7150   6
   2   2  -4 3171.31 83.9158  16
   0  -2   4 1469.71 39.5765  11
   0  -2   4 1537.09 40.5393  15
   0  -2   4 1558.95 40.2642   7
   0  -2  -4 1567.39 39.7995  14
   0  -2   4 1538.37 40.5860   9
   0  -2   4 1526.98 39.8662   1
   0   2   4 1534.33 39.3031   7
   0   2   4 1495.32 41.4812  11
   0   2  -4 1582.87 38.4929  12
   0   2  -4 1547.24 39.9563  16
   0   2   4 1534.20 40.2845   1
   0   2  -4 1558.33 38.4799  12
   0   2   4 1530.32 39.7301   9
   0   2   4 1520.50 39.8213   6
   0   2   4 1520.98 40.3356  15
   0   2  -4 1560.80 39.0327   5
  -2  -2  -4 1395.49 37.8340  13
   2  -2   4 1415.36 37.3301   7
   2  -2   4 1401.53 37.6375  15
  -2  -2  -4 1408.34 35.3228  12
  -2  -2  -4 1346.49 36.1530   3
   2  -2   4 1407.40 38.1195   9
  -2  -2  -4 1355.41 35.3903  12
   2   2   4 1351.93 37.5358   9
  -2   2  -4 1468.01 36.8795   5
   2   2   4 1358.64 37.1066   6
   2   2   4 1307.84 35.6711   7
  -2   2  -4 1447.01 38.5776  16
  -2   2  -4 1416.10 35.8293   8
   2   2   4 1368.06 37.8751  15
   4  -2   4 158.622 7.33414   7
  -4  -2  -4 157.824 7.20108  13
  -4  -2  -4 160.561 6.40427  12
  -4  -2  -4 170.333 7.94747   8
   4  -2   4 173.148 8.50220   9
   4  -2   4 162.664 7.60573  15
  -4  -2  -4 174.413 9.77107  16
  -4   2  -4 153.524 8.89163  16
  -4   2  -4 157.433 7.33317   5
   4   2   4 155.828 7.29390   6
  -4   2  -4 155.282 6.55794  12
   4   2   4 148.310 7.71404   9
   4   2   4 158.173 7.95597  15
   6  -2   4 189.409 9.35858  15
  -6  -2  -4 200.316 9.74984   5
   6  -2   4 182.451 8.93420   7
  -6  -2  -4 182.880 8.48499  12
   6  -2   4 186.453 10.4282   9
  -6  -2  -4 199.463 10.0888   8
  -6  -2  -4 171.474 11.2360  16
   6   2   4 201.368 10.6171  15
   6   2   4 193.492 10.6045   9
  -6   2  -4 189.157 8.86081  12
  -6   2  -4 194.741 9.52933   5
  -6   2  -4 183.498 11.7612  16
  -8  -2  -4 555.105 21.1841   5
   8  -2   4 575.637 22.4583   9
  -8  -2  -4 533.357 20.3474   8
  -8  -2  -4 547.782 19.9990  12
   8   2   4 556.727 21.6557  15
  -8   2  -4 539.479 19.9854  12
   8   2   4 573.836 22.7907   9
  -8   2  -4 565.806 21.2104   5
  11  -3  -4 912.940 30.8130   4
 -11  -3   4 895.768 33.6033  11
 -11  -3   4 841.355 29.1457   8
 -11   3   4 887.821 29.0228   5
 -11   3   4 884.583 29.0463   8
  11   3  -4 853.192 29.0369   4
   9  -3  -4 982.527 30.9105   4
  -9  -3   4 950.340 30.0119   8
  -9  -3   4 957.529 33.5208  16
   9  -3  -4 953.154 29.1919  14
  -9  -3   4 935.400 27.9083   5
   9   3  -4 952.990 29.8026   4
  -9   3   4 984.556 29.6518   5
  -9   3   4 961.822 29.4765   8
  -9   3   4 978.697 33.2548  16
  -9   3   4 936.951 31.6354  11
   9   3  -4 1001.04 30.5220   9
  -7  -3   4 2171.24 56.7967   1
   7  -3  -4 2064.38 57.5821  12
  -7  -3   4 2100.18 55.2666   5
  -7  -3   4 2232.76 57.4147   8
  -7  -3   4 2122.31 57.2599  16
   7  -3  -4 2131.41 57.6494   4
   7  -3  -4 2122.61 57.1737  14
  -7  -3   4 2192.94 58.0935  13
  -7   3   4 2153.38 56.9079   5
   7   3  -4 2089.19 62.7281  10
   7   3  -4 2037.46 55.5098  14
  -7   3   4 2089.09 56.9178   8
  -7   3   4 2130.99 59.2825  11
   7   3  -4 2136.65 56.3341   2
   7   3  -4 2158.92 57.5083   4
  -7   3   4 2170.93 59.9979  16
  -5  -3   4 2536.61 64.7389  16
  -5  -3   4 2578.11 65.8942   1
   5  -3  -4 2461.49 66.0050  12
   5  -3  -4 2609.96 66.2242  14
  -5  -3   4 2571.57 65.4388   8
  -5  -3   4 2548.99 66.4559  13
   5  -3  -4 2532.24 65.8179   4
   5   3  -4 2575.89 70.3552  10
  -5   3   4 2509.70 65.2325   1
   5   3  -4 2560.19 65.1933   2
  -5   3   4 2491.30 67.7526  16
  -5   3   4 2490.35 65.4548   5
   5   3  -4 2497.99 66.1201  12
   5   3  -4 2485.57 66.0471   4
  -5   3   4 2512.76 65.6329   8
  -5   3   4 2535.09 67.7828  11
  -3  -3   4 3144.61 81.4082   8
   3  -3  -4 3337.04 82.7596  14
   3  -3  -4 3265.92 81.9897   4
  -3  -3   4 3061.91 82.4169   1
  -3  -3   4 3181.13 82.0819   7
  -3  -3   4 3237.43 82.9361  13
   3  -3  -4 3179.52 84.3657  10
   3  -3  -4 3379.41 82.2287  12
   3   3  -4 3181.05 86.0194  10
  -3   3   4 3407.31 82.2114  10
  -3   3   4 3250.99 82.1973   5
  -3   3   4 3397.28 84.3491  11
   3   3  -4 3248.12 82.3002  12
  -3   3   4 3259.82 82.4700   1
   3   3  -4 3117.93 82.2193   2
  -3   3   4 3228.23 81.7713   6
  -3   3   4 3227.09 80.8277  15
   1  -3  -4 6063.81 155.357  10
   1  -3  -4 6069.18 151.422  14
   1  -3  -4 5833.15 150.474  12
   1  -3  -4 6130.74 152.946  12
  -1  -3   4 6094.05 154.275   7
   1  -3  -4 5927.00 151.353   4
  -1  -3   4 5810.56 151.231   1
  -1  -3   4 5841.94 153.757  11
  -1   3   4 5942.83 152.506   1
   1   3  -4 5625.16 150.820  16
  -1   3   4 5919.27 150.602   6
  -1   3   4 5913.21 150.251  11
   1   3  -4 5996.53 158.456  10
   1   3  -4 5979.72 153.911  12
  -1   3   4 5901.63 150.680   9
  -1   3   4 5959.17 154.227  15
   1   3  -4 6119.94 152.308   2
   1  -3   4 2930.65 77.3711   1
  -1  -3  -4 3086.78 76.5948  12
  -1  -3  -4 3042.78 77.0595  14
  -1  -3  -4 3084.05 79.5648  13
   1  -3   4 3117.94 78.7048  15
  -1  -3  -4 3127.59 78.8629  12
   1  -3   4 3097.21 78.6314   7
  -1  -3  -4 3088.76 78.1620   3
   1  -3   4 3045.76 79.1017   9
   1   3   4 3125.63 78.3647   6
  -1   3  -4 3085.79 77.3050   5
   1   3   4 3060.82 78.2249   9
  -1   3  -4 3030.63 78.5608  16
   1   3   4 3124.78 78.9532  15
  -1   3  -4 3121.39 77.1893  12
   1   3   4 2912.71 76.5949   7
   1   3   4 3135.35 80.4682  11
  -3  -3  -4 1590.69 41.6217  12
   3  -3   4 1614.74 43.2095  15
   3  -3   4 1631.25 43.3851   7
  -3  -3  -4 1522.16 43.4268   8
   3  -3   4 1630.21 44.0971   9
  -3  -3  -4 1551.80 43.6421  13
  -3   3  -4 1605.81 41.9924  12
   3   3   4 1586.11 44.1312  15
  -3   3  -4 1611.63 44.7438  16
   3   3   4 1551.40 43.6270   9
  -3   3  -4 1630.27 42.5641   5
   3   3   4 1609.33 43.1362   6
  -5  -3  -4 1684.65 50.8445  16
  -5  -3  -4 1720.52 47.4762   8
   5  -3   4 1731.78 48.2782   9
   5  -3   4 1654.76 46.4322  15
   5  -3   4 1609.32 46.6535   7
  -5  -3  -4 1717.47 45.7447  12
  -5   3  -4 1651.90 46.4519   5
   5   3   4 1764.65 48.3937  15
  -5   3  -4 1658.76 45.8173  12
   5   3   4 1667.48 48.1238   9
  -5   3  -4 1652.06 49.7664  16
   5   3   4 1735.92 47.0413   6
   7  -3   4 827.405 27.1151   7
  -7  -3  -4 848.002 27.9535   5
  -7  -3  -4 826.270 31.5521  16
   7  -3   4 849.349 28.8373   9
  -7  -3  -4 829.042 26.4832  12
  -7  -3  -4 840.492 27.9643   8
  -7   3  -4 819.138 26.6885  12
  -7   3  -4 848.249 27.6880   5
   7   3   4 852.063 29.4125   9
   7   3   4 882.475 29.3573  15
  -7   3  -4 837.123 31.3255  16
  12   4  -4 6.78721 4.37026   9
 -12   4   4 8.17566 3.73244   8
  10  -4  -4 39.4455 5.41524   4
  10  -4  -4 40.7802 4.92640  14
 -10  -4   4 36.0953 5.66977   8
  10   4  -4 41.4312 5.84365   9
  10   4  -4 28.1990 4.36077   4
 -10   4   4 33.0811 5.67214  16
 -10   4   4 33.2700 4.54726   8
 -10   4   4 32.5581 5.03231   5
  -8  -4   4 184.875 8.68447   1
   8  -4  -4 177.113 9.47906   4
   8  -4  -4 178.574 9.00973  14
  -8  -4   4 184.627 9.78524  13
  -8  -4   4 205.914 9.36158   8
   8   4  -4 171.827 9.42912   9
   8   4  -4 167.002 8.72194   4
  -8   4   4 174.116 10.5815  16
  -8   4   4 174.651 8.60179   5
  -8   4   4 166.633 9.92008  11
  -8   4   4 173.880 8.78115   8
   6  -4  -4 417.874 14.8845  12
  -6  -4   4 460.351 15.7056  13
   6  -4  -4 426.824 14.3678   3
  -6  -4   4 446.128 14.5263   8
  -6  -4   4 375.779 15.1744  16
   6  -4  -4 440.822 14.9070   4
  -6  -4   4 453.896 14.8829   1
   6  -4  -4 448.833 15.1123  14
  -6   4   4 442.095 16.2747  11
   6   4  -4 450.444 18.9556  10
   6   4  -4 433.475 13.7836  14
  -6   4   4 428.423 13.8000   1
  -6   4   4 433.014 16.9468  16
  -6   4   4 448.713 14.8027   5
  -6   4   4 432.430 14.4989   8
   6   4  -4 452.703 14.9297   4
   6   4  -4 426.662 14.3335   2
   6   4  -4 421.209 14.9465  12
  -4  -4   4 737.975 21.4358   8
  -4  -4   4 753.523 22.5066   1
   4  -4  -4 773.652 21.9144   4
  -4  -4   4 765.706 22.9583  13
   4  -4  -4 776.754 22.6701  14
  -4  -4   4 752.390 21.6871   7
   4  -4  -4 785.065 22.5258  12
   4  -4  -4 763.802 22.6127   3
   4   4  -4 736.148 22.1927   2
  -4   4   4 810.837 22.3082   5
  -4   4   4 813.598 24.5718  16
   4   4  -4 768.716 26.2227  10
  -4   4   4 796.616 22.2970   1
  -4   4   4 810.193 24.0380  11
   4   4  -4 739.646 22.3499   4
   4   4  -4 778.871 22.6522  12
  -2  -4   4 72.9640 4.13212   1
  -2  -4   4 75.0426 3.97057   7
  -2  -4   4 76.8753 4.15228   3
   2  -4  -4 93.9622 4.70613   3
   2  -4  -4 77.2693 4.05879  14
  -2  -4   4 73.4575 2.93415   8
  -2  -4   4 79.0585 4.11986  13
   2  -4  -4 82.3784 3.93259  12
   2  -4  -4 73.6692 3.27198   4
  -2   4   4 72.6292 4.30203   1
   2   4  -4 88.9299 4.07198  12
   2   4  -4 80.7577 4.46112   2
   2   4  -4 79.1442 5.92971  10
  -2   4   4 70.3700 4.76614  11
  -2   4   4 71.8077 3.91414   6
  -2   4   4 73.1171 3.27489  15
   0  -4  -4 42.2454 2.49687  12
   0  -4  -4 36.7551 3.65705  13
   0  -4  -4 36.6706 2.27941  10
   0  -4   4 38.1660 2.69247   1
   0  -4  -4 35.1916 3.02359   3
   0  -4   4 39.1274 2.87922   7
   0  -4   4 37.6979 2.80408   3
   0  -4  -4 34.6513 2.40454  14
   0   4  -4 39.9487 2.53158  16
   0   4   4 41.4486 2.42581   9
   0   4  -4 38.4367 2.72746  12
   0   4   4 40.7901 3.70493  11
   0   4  -4 36.1264 3.23606   2
   0   4  -4 39.6590 4.24911  10
   0   4   4 38.3278 2.91786   6
   0   4  -4 37.5979 2.00628   5
   0   4   4 37.9491 2.82319  15
  -2  -4  -4 640.291 18.8098   3
   2  -4   4 638.051 20.3203   9
   2  -4   4 636.689 19.4864  15
  -2  -4  -4 675.954 20.9130  13
   2  -4   4 651.004 19.9374   7
  -2  -4  -4 666.708 18.5008  12
   2   4   4 662.718 19.6629   6
  -2   4  -4 646.005 20.2960  16
   2   4   4 647.873 20.0980  15
  -2   4  -4 638.040 18.6095   5
   2   4   4 642.979 19.5688   9
  -2   4  -4 682.355 18.9349  12
  -4  -4  -4 410.392 17.3305  16
   4  -4   4 401.463 14.7007   7
  -4  -4  -4 410.589 13.7164  12
  -4  -4  -4 413.562 15.2619  13
   4  -4   4 415.738 15.4780   9
  -4  -4  -4 396.560 15.1041   8
  -4   4  -4 410.686 16.3204  16
  -4   4  -4 415.610 14.1619   5
   4   4   4 386.004 15.0118   9
   4   4   4 396.165 15.2431  15
  -4   4  -4 449.152 14.1170  12
   4   4   4 413.121 14.6519   6
  -6  -4  -4 71.3258 6.26970   8
  -6  -4  -4 64.7858 5.47633  12
  -6  -4  -4 67.5804 7.32139  16
  -6  -4  -4 61.7748 5.64526   5
   6  -4   4 73.2759 6.40676   9
   6  -4   4 65.8880 5.99489   7
   6   4   4 69.9443 6.31783   6
  -6   4  -4 61.4099 5.48050   5
  -6   4  -4 67.1448 7.54847  16
   6   4   4 69.7704 6.91103  15
   6   4   4 66.2366 6.72401   9
  -6   4  -4 61.4921 5.59127  12
  -8  -4  -4 37.5624 5.59936   5
   8  -4   4 41.8284 6.37239   9
  -8  -4  -4 42.0980 5.30691  12
  -8   4  -4 36.6275 5.15815  12
  -8   4  -4 48.5932 5.73458   5
   8   4   4 37.7235 5.75451   9
   8   4   4 44.2578 6.28631  15
 -11  -5   4 105.167 8.66446   8
  11  -5  -4 109.004 9.56766   4
 -11   5   4 106.286 8.50298   5
  11   5  -4 98.3158 9.06646   9
  -9  -5   4 205.275 11.3999  13
  -9  -5   4 221.303 11.2514   8
   9  -5  -4 222.689 11.6560   4
   9  -5  -4 225.472 10.8796  14
  -9   5   4 230.870 13.5353  16
  -9   5   4 237.457 11.4472   5
  -9   5   4 214.428 10.4414   8
   9   5  -4 214.893 11.8912   9
  -7  -5   4 730.984 23.6703  13
  -7  -5   4 719.110 22.4083   1
   7  -5  -4 685.267 21.7200   3
   7  -5  -4 726.655 22.8832   4
   7  -5  -4 707.777 22.7842  14
  -7  -5   4 715.255 22.3196   8
   7   5  -4 740.611 22.6490   2
  -7   5   4 693.152 22.3072   5
   7   5  -4 687.121 27.6519  10
   7   5  -4 683.263 22.0323   4
  -7   5   4 677.051 23.4064  11
  -7   5   4 724.541 25.6466  16
  -5  -5   4 1110.77 32.2354   1
  -5  -5   4 1124.84 32.8713  13
  -5  -5   4 1064.98 30.9815   8
   5  -5  -4 1163.80 32.2695   3
   5  -5  -4 1151.52 32.3858  14
   5  -5  -4 1138.24 32.4837  12
   5  -5  -4 1136.09 31.6296   4
   5   5  -4 1052.59 32.1307  12
   5   5  -4 1146.57 36.9032  10
  -5   5   4 1183.65 32.0695   5
  -5   5   4 1224.99 33.7399  11
  -5   5   4 1165.86 34.9223  16
   5   5  -4 1098.52 32.0942   2
   5   5  -4 1076.82 31.7670   4
  -3  -5   4 724.363 19.7956   8
   3  -5  -4 741.646 21.5066  14
  -3  -5   4 757.641 20.8661   7
  -3  -5   4 751.955 21.8950  13
  -3  -5   4 730.767 21.6893   1
   3  -5  -4 692.885 19.9870   4
   3  -5  -4 716.369 21.7900   3
  -3  -5   4 726.319 21.2379   3
   3  -5  -4 696.618 21.2503  12
  -3   5   4 706.057 20.9776   6
  -3   5   4 721.215 21.1661   5
   3   5  -4 741.218 21.4918  12
   3   5  -4 750.087 21.7966   2
   3   5  -4 744.573 25.1139  10
  -3   5   4 696.566 22.7063  11
  -1  -5   4 623.279 18.1106  13
   1  -5  -4 587.716 17.7160  14
   1  -5  -4 644.253 19.1157   3
  -1  -5   4 619.395 18.2785   7
  -1  -5   4 623.242 18.4404   1
   1  -5  -4 598.086 19.8578  13
   1  -5  -4 616.384 17.9300  12
  -1  -5   4 605.881 18.3522   3
   1   5  -4 607.779 18.1603  12
  -1   5   4 602.554 17.4380   2
   1   5  -4 621.145 21.4722  10
  -1   5   4 614.268 18.2676   6
  -1   5   4 680.082 18.0951   9
   1   5  -4 635.418 19.0229   2
  -1   5   4 611.934 20.2547  11
  -1   5   4 586.108 17.4313  15
  -1  -5  -4 810.356 22.0006  12
  -1  -5  -4 814.371 24.6208  13
   1  -5   4 790.512 22.3805   3
   1  -5   4 785.497 23.0059   7
   1  -5   4 741.608 21.7306   1
  -1  -5  -4 774.466 22.6642   3
   1   5   4 760.734 22.0652   9
   1   5   4 759.162 22.8024  15
  -1   5  -4 782.043 23.3714   2
  -1   5  -4 765.202 25.9641  10
   1   5   4 799.307 22.7241   6
  -1   5  -4 794.617 22.3132  12
  -1   5  -4 750.204 22.4983  16
  -1   5  -4 768.425 21.1789   5
  -3  -5  -4 698.393 20.6720  12
  -3  -5  -4 686.423 22.8481  13
   3  -5   4 700.985 21.0959  15
   3  -5   4 713.764 22.4396   9
  -3  -5  -4 712.665 22.5208   8
   3  -5   4 674.215 21.8745   7
   3   5   4 692.324 21.8156   9
   3   5   4 718.590 21.7132   6
  -3   5  -4 656.212 22.5250  16
   3   5   4 742.071 22.7493  15
  -3   5  -4 680.673 20.5619   5
  -3   5  -4 695.390 21.1124  12
  -5  -5  -4 460.696 16.1653  12
   5  -5   4 484.719 18.0481   9
  -5  -5  -4 478.938 17.8952   8
  -5  -5  -4 446.475 20.1996  16
   5  -5   4 481.552 17.6599   7
  -5  -5  -4 460.308 17.6502  13
   5   5   4 501.065 18.7367  15
  -5   5  -4 491.225 16.8330   5
   5   5   4 470.723 18.1099   9
  -5   5  -4 454.263 19.1653  16
   5   5   4 463.495 17.0941   6
  -5   5  -4 495.395 16.9124  12
  -7  -5  -4 180.018 10.1348   5
   7  -5   4 176.019 10.5948   9
  -7  -5  -4 174.058 11.0435   8
  -7  -5  -4 175.082 9.50048  12
   7  -5   4 176.980 10.3886   7
   7   5   4 177.139 10.2210   6
   7   5   4 186.840 11.1238   9
  -7   5  -4 162.813 10.0119   5
   7   5   4 194.351 12.0121  15
  -7   5  -4 177.565 9.83864  12
 -10  -6   4 1067.69 33.8503   8
  10  -6  -4 1019.72 34.3179   4
 -10   6   4 1036.37 33.3472   5
  10   6  -4 1077.27 35.0449   9
  -8  -6   4 1239.76 36.4306   1
  -8  -6   4 1198.87 37.4573  13
   8  -6  -4 1190.55 36.7035  14
   8  -6  -4 1253.01 37.1531   4
  -8  -6   4 1236.79 36.3245   8
   8   6  -4 1238.91 37.9336   9
   8   6  -4 1243.27 36.8004   2
  -8   6   4 1194.63 40.3047  16
  -8   6   4 1249.80 36.6039   5
  -6  -6   4 1630.25 45.5986   1
   6  -6  -4 1614.67 45.0518   3
   6  -6  -4 1600.15 44.8305   4
   6  -6  -4 1654.53 45.9272  12
   6  -6  -4 1674.61 45.8646  14
  -6  -6   4 1601.62 44.5103   8
  -6  -6   4 1632.78 46.4066  13
  -6   6   4 1675.71 45.2333   5
   6   6  -4 1538.14 50.4427  10
  -6   6   4 1687.00 46.3451  11
   6   6  -4 1553.53 44.5907   4
  -6   6   4 1705.96 49.0737  16
   6   6  -4 1628.41 45.5846   2
  -4  -6   4 2173.84 57.3811   3
  -4  -6   4 2182.97 58.0545   1
   4  -6  -4 2098.71 57.9023  12
  -4  -6   4 2121.78 56.0525   8
  -4  -6   4 2236.61 58.6763  13
  -4  -6   4 2212.88 56.5339   7
   4  -6  -4 2173.81 57.8559  14
   4  -6  -4 2178.34 56.4525   4
   4  -6  -4 2141.17 58.1115   3
  -4   6   4 2193.62 57.6990   5
  -4   6   4 2183.99 57.4543   6
   4   6  -4 2156.42 62.3618  10
   4   6  -4 2156.05 57.3500   4
   4   6  -4 2251.96 58.4067   2
   4   6  -4 2131.03 58.1176  12
  -4   6   4 2114.00 59.0073  11
   2  -6  -4 3878.57 99.1806  14
   2  -6  -4 3920.95 101.426  13
  -2  -6   4 3951.93 99.8546   3
   2  -6  -4 3981.91 99.7178  12
   2  -6  -4 3941.24 100.441   3
  -2  -6   4 3923.46 99.8230  13
  -2  -6   4 3981.48 99.1727   7
  -2  -6   4 3903.78 99.8451   1
  -2   6   4 3868.89 101.722  11
   2   6  -4 3823.78 103.731  10
   2   6  -4 3879.89 99.8121  12
   2   6  -4 3922.40 100.444   2
  -2   6   4 3843.49 99.3861   6
  -2   6   4 3737.02 97.8949   2
   0  -6  -4 3664.91 92.6344  13
   0  -6  -4 3588.92 89.7452  12
   0  -6   4 3509.05 90.1591   3
   0  -6  -4 3385.33 88.5419  14
   0  -6   4 3589.65 90.3071   7
   0  -6   4 3422.25 89.7213   1
   0  -6  -4 3518.81 90.6167   3
   0   6  -4 3496.57 94.2058  10
   0   6   4 3446.92 89.5664  15
   0   6  -4 3535.66 90.0707  12
   0   6   4 3339.23 88.4972   9
   0   6   4 3550.01 92.9026  11
   0   6  -4 3556.74 91.1193   2
   0   6   4 3487.49 89.7079   2
   0   6   4 3523.87 90.0955   6
   2  -6   4 1722.41 45.9770   3
  -2  -6  -4 1770.14 46.0244  12
  -2  -6  -4 1742.08 48.6993  13
   2  -6   4 1704.37 47.0738   7
  -2  -6  -4 1761.84 46.2756   3
   2   6   4 1755.11 47.3568  15
  -2   6  -4 1651.37 46.9805  16
  -2   6  -4 1790.19 47.9281   2
   2   6   4 1799.18 47.0113   6
  -2   6  -4 1710.36 46.4346  12
  -2   6  -4 1535.50 45.8266   5
   2   6   4 1673.87 46.3036   9
  -2   6  -4 1677.59 51.0236  10
  -4  -6  -4 1244.64 37.3520   8
  -4  -6  -4 1225.84 35.4796  12
   4  -6   4 1235.09 36.8328   7
   4  -6   4 1294.47 37.5568   9
  -4  -6  -4 1253.93 37.7202  13
  -4   6  -4 1221.37 35.8612  12
   4   6   4 1315.08 36.5408   6
  -4   6  -4 1237.99 35.1281   5
   4   6   4 1233.10 36.6906   9
  -4   6  -4 1227.99 37.0539   2
   4   6   4 1295.19 37.7883  15
  -4   6  -4 1157.26 37.6325  16
   6  -6   4 1015.68 32.2226   9
  -6  -6  -4 975.736 30.6056  12
  -6  -6  -4 972.542 32.2757   8
  -6  -6  -4 929.535 35.0100  16
   6  -6   4 1023.63 32.1964   7
   6   6   4 996.809 32.7195   9
  -6   6  -4 984.300 31.9694   2
   6   6   4 973.429 30.8601   6
  -6   6  -4 1033.12 30.7430   5
   6   6   4 1012.59 33.3757  15
  -6   6  -4 947.398 30.6802  12
  -8   6  -4 668.777 26.9247   2
  -8   6  -4 728.138 27.7378  12
  -8   6  -4 729.269 27.4850   5
  -9  -7   4 296.552 14.5634  13
  -9  -7   4 325.800 14.2217   1
   9  -7  -4 324.440 14.7604   4
   9  -7  -4 307.068 14.1814  14
  -9  -7   4 332.687 14.3234   8
  -9   7   4 294.576 16.6431  16
  -9   7   4 324.433 14.0730   5
   9   7  -4 312.970 15.1638   9
   7  -7  -4 76.4450 5.77140   3
  -7  -7   4 74.9227 6.58431   1
  -7  -7   4 71.9915 6.79149  13
   7  -7  -4 70.2202 6.11711  14
  -7  -7   4 76.3804 5.85014   8
   7  -7  -4 74.3022 5.59272   4
  -7   7   4 74.5617 8.17864  16
  -7   7   4 68.5624 6.34415   5
   7   7  -4 72.5652 6.07870   2
   5  -7  -4 168.019 8.72290  12
  -5  -7   4 180.478 9.48027  13
   5  -7  -4 188.856 9.10340  14
   5  -7  -4 181.967 9.00194   3
   5  -7  -4 182.511 8.03018   4
  -5  -7   4 179.253 8.54677   3
  -5  -7   4 182.277 7.73068   8
  -5  -7   4 178.430 9.12679   1
   5  -7  -4 186.670 8.86513  13
   5   7  -4 168.870 7.89921   4
  -5   7   4 163.669 8.90637  11
  -5   7   4 185.532 8.56847   6
  -5   7   4 188.431 9.02680   5
   5   7  -4 200.460 12.1680  10
   5   7  -4 207.063 9.87548   2
   3  -7  -4 769.065 24.0385  12
   3  -7  -4 797.490 25.1020  13
  -3  -7   4 829.267 24.1821   3
  -3  -7   4 796.133 24.4407  13
   3  -7  -4 798.414 24.6239   3
   3  -7  -4 775.079 23.6772  14
  -3  -7   4 804.924 22.8976   7
  -3   7   4 763.287 25.2427  11
  -3   7   4 797.178 23.7220   6
   3   7  -4 769.698 27.7301  10
   3   7  -4 760.547 24.1864  12
   3   7  -4 808.689 24.8174   2
   1  -7  -4 643.335 19.7436  12
   1  -7  -4 636.237 21.6028  13
  -1  -7   4 643.969 19.3729   7
   1  -7  -4 611.716 18.6603  14
   1  -7  -4 646.081 20.3677   3
  -1  -7   4 646.118 19.9256   3
  -1  -7   4 642.474 19.3388  13
   1   7  -4 608.643 22.9439  10
  -1   7   4 629.879 19.6277   6
  -1   7   4 641.040 21.8165  11
   1   7  -4 647.574 20.6341   2
   1   7  -4 606.981 19.6547  12
  -1   7   4 597.844 18.1802  15
  -1   7   4 608.087 18.6687   2
   1  -7   4 515.062 16.4100   1
   1  -7   4 522.126 17.1340   3
   1  -7   4 530.059 17.4383   7
  -1  -7  -4 525.517 19.1074  13
  -1  -7  -4 525.395 16.9049  12
  -1  -7  -4 528.055 17.3136   3
   1   7   4 507.779 16.9194  15
  -1   7  -4 531.566 17.3610  12
   1   7   4 532.793 16.3284   9
  -1   7  -4 497.009 18.0061   2
  -1   7  -4 493.457 20.3481  10
   1   7   4 520.778 17.3357   6
  -3  -7  -4 162.272 8.89561   8
   3  -7   4 148.348 8.66104   7
  -3  -7  -4 162.299 9.89873  13
  -3  -7  -4 174.438 8.26624  12
  -3   7  -4 160.752 8.36317  12
   3   7   4 168.840 9.10762  15
   3   7   4 177.445 8.95633   6
   3   7   4 168.415 8.48535   9
  -3   7  -4 159.312 9.27185   2
  -5  -7  -4 66.2464 6.49700  13
  -5  -7  -4 75.5211 7.89687  16
  -5  -7  -4 72.7119 6.61130   8
  -5  -7  -4 63.6656 5.72545  12
   5  -7   4 69.1686 6.36657   9
   5  -7   4 75.0970 7.53734   7
  -5   7  -4 70.6524 7.09779   2
   5   7   4 76.6749 7.26106  15
   5   7   4 70.6124 6.88020   6
  -5   7  -4 65.3878 5.96946  12
   5   7   4 70.4304 6.66575   9
  -7  -7  -4 274.318 13.2691   5
   7  -7   4 268.966 13.8159   7
   7  -7   4 272.312 14.0163   9
  -7  -7  -4 299.011 15.1609   8
  -7  -7  -4 273.203 12.8444  12
  -7   7  -4 261.177 12.9647  12
   7   7   4 266.352 14.7698  15
   7   7   4 282.661 14.3164   9
   7   7   4 253.804 12.9269   6
  -7   7  -4 282.808 13.7279   2
  10  -8  -4 182.919 11.3195   7
  10  -8  -4 193.837 11.6734   4
  10   8  -4 197.528 12.9259   9
 -10   8   4 182.020 10.8188   5
  -8  -8   4 492.422 20.5531  13
   8  -8  -4 542.406 20.3664  14
  -8  -8   4 540.726 20.3836   1
  -8  -8   4 521.190 19.1008   8
   8  -8  -4 537.960 19.8221   4
  -8   8   4 541.206 23.3336  16
   8   8  -4 539.994 20.7409   2
  -8   8   4 588.912 20.5016   5
   8   8  -4 525.696 21.3420   9
   6  -8  -4 1206.89 35.0194   4
   6  -8  -4 1178.87 36.2337  14
  -6  -8   4 1215.13 36.8711   1
   6  -8  -4 1190.69 36.0288   3
  -6  -8   4 1217.80 34.8218   8
  -6  -8   4 1232.79 37.5914  13
   6   8  -4 1260.99 37.2638   2
  -6   8   4 1232.35 36.2518   5
   4  -8  -4 713.119 22.9237  14
   4  -8  -4 719.502 23.5960   3
  -4  -8   4 728.306 23.0051   3
   4  -8  -4 699.505 23.2743  12
   4  -8  -4 701.848 23.5332  13
  -4  -8   4 733.385 23.8369  13
  -4   8   4 775.310 23.1831   6
   4   8  -4 690.491 26.7012  10
  -4   8   4 705.558 23.9549  11
   4   8  -4 772.428 24.2349   2
  -4   8   4 706.349 22.7875   5
  -2  -8   4 868.205 26.3450   3
   2  -8  -4 843.038 25.3513  14
   2  -8  -4 828.817 26.1350  12
  -2  -8   4 892.431 25.3824   7
   2  -8  -4 872.818 27.7427  13
  -2  -8   4 852.741 26.1188  13
   2  -8  -4 878.400 26.9724   3
  -2   8   4 880.419 28.1926  11
   2   8  -4 831.875 26.1958  12
   2   8  -4 866.443 27.2440   2
   2   8  -4 855.037 30.1343  10
  -2   8   4 865.172 26.0328   6
   0  -8   4 986.051 28.2830   7
   0  -8  -4 945.584 30.2271  13
   0  -8   4 942.465 27.9570   1
   0  -8   4 931.428 28.3538   3
   0  -8  -4 961.939 28.3209  12
   0  -8  -4 983.469 29.0555   3
   0   8  -4 955.680 29.6433   2
   0   8   4 914.273 27.1056  15
   0   8   4 952.644 27.8295   2
   0   8  -4 895.693 31.7273  10
   0   8  -4 908.701 28.2603  12
   0   8   4 955.868 28.1835   6
  -2  -8  -4 604.604 19.2885   3
   2  -8   4 554.792 19.3901   7
  -2  -8  -4 545.259 20.7008  13
   2  -8   4 566.989 18.6468   3
  -2  -8  -4 604.793 19.1460  12
   2   8   4 547.992 18.9539  15
  -2   8  -4 520.701 22.4703  10
  -2   8  -4 547.098 19.0993  12
   2   8   4 554.083 19.0338   6
   2   8   4 488.609 19.1169   9
  -2   8  -4 556.853 20.1210   2
  -4  -8  -4 856.393 28.8622   8
  -4  -8  -4 861.900 30.0821  13
  -4  -8  -4 861.474 27.4937  12
   4  -8   4 843.738 28.2228   7
  -4   8  -4 881.962 28.9617   2
   4   8   4 912.122 29.3599  15
   4   8   4 860.125 28.1194   9
  -4   8  -4 858.141 27.8381  12
   4   8   4 896.998 28.1320   6
  -6  -8  -4 519.449 19.2606  12
  -6  -8  -4 522.584 20.7898   8
   6  -8   4 473.900 19.7412   7
  -6   8  -4 458.884 18.9479  12
   6   8   4 520.442 21.3772  15
   6   8   4 498.654 19.1750   6
   6   8   4 486.078 20.1583   9
  -6   8  -4 486.142 19.8052   2
  -9  -9   4 816.996 28.8958   1
   9  -9  -4 857.690 29.7693   7
  -9   9   4 898.467 29.3688   5
   9   9  -4 852.800 30.9819   9
   7  -9  -4 1009.67 31.6070   3
  -7  -9   4 982.514 33.3413  13
  -7  -9   4 1047.67 32.8862   1
   7  -9  -4 974.999 32.1562  14
   7   9  -4 1040.30 33.1118   2
  -7   9   4 1017.29 31.8857   5
  -7   9   4 1002.84 31.5038   6
  -5  -9   4 1659.02 49.1300  13
  -5  -9   4 1744.67 48.8844   1
   5  -9  -4 1653.18 48.1707   3
  -5  -9   4 1700.02 47.5058   3
   5  -9  -4 1666.42 47.8353  14
   5   9  -4 1725.41 49.2740   2
  -5   9   4 1645.95 47.4992   6
  -5   9   4 1697.02 47.7646   5
  -3  -9   4 1667.18 46.4168   3
  -3  -9   4 1642.32 46.7198  13
   3  -9  -4 1624.33 45.4832  14
   3  -9  -4 1651.28 47.4716  13
   3  -9  -4 1575.02 46.3978  12
   3  -9  -4 1627.20 47.0440   3
  -3   9   4 1655.39 47.8613  11
   3   9  -4 1578.14 50.6312  10
   3   9  -4 1631.52 47.2753   2
  -3   9   4 1706.62 46.3312   6
   1  -9  -4 676.623 23.6949  13
   1  -9  -4 659.143 22.0879  12
   1  -9  -4 684.638 22.8708   3
  -1  -9   4 677.059 22.2669   3
  -1  -9   4 684.563 21.3077   7
   1   9  -4 624.535 25.0851  10
  -1   9   4 673.383 21.8530   6
   1   9  -4 692.718 23.4267   2
   1   9  -4 645.193 22.1021  12
   1  -9   4 1442.60 41.5803   3
  -1  -9  -4 1451.02 44.1250  13
   1  -9   4 1436.14 41.4662   7
  -1  -9  -4 1428.77 41.4162  12
  -1  -9  -4 1429.92 41.9533   3
   1   9   4 1449.82 40.8361  15
  -1   9  -4 1449.69 43.0429   2
   1   9   4 1498.80 41.7614   6
  -1   9  -4 1366.85 41.4715  12
   1   9   4 1478.93 41.6820   2
  -3  -9  -4 1748.76 49.4105   8
   3  -9   4 1703.21 48.7336   7
  -3  -9  -4 1626.42 50.2748  13
  -3  -9  -4 1668.62 47.8184  12
   3   9   4 1709.50 48.7133  15
   3   9   4 1691.94 47.9134   6
  -3   9  -4 1545.64 47.8418  12
  -3   9  -4 1710.06 49.3053   2
  -5  -9  -4 653.135 24.4349   8
   5  -9   4 679.134 24.4798   7
  -5  -9  -4 691.095 23.7411  12
   5   9   4 684.042 23.8293   6
   5   9   4 659.870 23.8983   9
   5   9   4 691.329 25.2312  15
  -5   9  -4 632.785 23.6521  12
  -5   9  -4 668.143 24.6000   2
   8 -10  -4 56.9039 7.11887   7
  -8 -10   4 36.9749 6.25610   1
  -8  10   4 56.1352 6.94820   5
  -8  10   4 42.2240 5.60600   6
   8  10  -4 38.5300 5.85151   2
   8  10  -4 58.8783 7.91451   9
   6 -10  -4 123.146 8.71878   3
  -6 -10   4 134.373 8.57147   3
  -6 -10   4 126.022 9.35956  13
   6 -10  -4 111.391 7.98032  14
  -6 -10   4 123.066 9.55769   1
   6 -10  -4 128.806 8.54041   7
   6  10  -4 135.907 9.96148   2
  -6  10   4 124.863 8.23747   5
  -6  10   4 150.264 8.65297   6
  -4 -10   4 12.1368 3.62910   3
   4 -10  -4 9.62550 3.41922  13
   4 -10  -4 9.85487 3.21084  14
   4 -10  -4 9.70651 3.03480   3
  -4 -10   4 10.5447 3.22326  13
  -4  10   4 12.2281 3.01547   6
   4  10  -4 13.8187 3.65048   2
   2 -10  -4 136.461 9.15021   3
   2 -10  -4 132.693 8.93402  13
   2 -10  -4 128.723 8.20504  12
  -2 -10   4 137.091 8.65426   3
   2  10  -4 143.247 9.56560   2
  -2  10   4 143.355 8.62674   6
   0 -10   4 247.453 11.1732   1
   0 -10  -4 234.056 12.1378   3
   0 -10   4 231.409 11.4114   3
   0 -10  -4 246.794 13.0689  13
   0 -10  -4 219.919 11.0138  12
   0 -10   4 251.617 11.1302   7
   0  10   4 245.700 10.8733   2
   0  10   4 229.258 11.1212   6
   0  10  -4 242.685 12.2331   2
  -2 -10  -4 11.9348 3.21909   8
  -2 -10  -4 9.74449 4.21769  13
  -2 -10  -4 5.31774 3.20001   3
   2 -10   4 9.72529 2.60103   3
   2 -10   4 8.26560 3.53157   7
  -2 -10  -4 14.3398 3.40848  12
  -2  10  -4 11.3525 4.18701   2
   2  10   4 14.3722 3.22176  15
   2  10   4 12.3966 3.85506   6
  -2  10  -4 8.61560 3.35566  12
  -4 -10  -4 71.1898 6.81560   8
  -4 -10  -4 73.6517 6.61145  12
   4 -10   4 71.2626 7.87518   7
  -4  10  -4 60.8022 7.09672   2
   4  10   4 65.5373 6.45109   6
   4  10   4 64.8622 6.68529  15
   7 -11  -4 61.3771 7.15811   7
   7  11  -4 65.2781 7.39276   2
  -7  11   4 64.7623 7.20189   6
  -5 -11   4 166.562 10.2012   3
  -5 -11   4 169.752 10.7084  13
   5 -11  -4 157.956 9.88194   3
  -5 -11   4 170.332 11.0490   1
   5 -11  -4 149.767 10.9593  14
  -5  11   4 169.997 9.95976   6
   5  11  -4 165.980 11.2827   2
   3 -11  -4 632.971 21.6422  14
   3 -11  -4 652.751 23.8584   3
  -3 -11   4 640.036 22.9362   3
   3  11  -4 628.113 23.6741   2
  -3  11   4 634.076 22.1064   6
  -1 -11   4 375.548 15.7340   1
  -1 -11   4 380.700 16.1813   3
   1 -11  -4 368.685 17.0016  13
   1 -11  -4 416.020 17.3420   3
   1 -11  -4 374.795 15.8407  12
  -1  11   4 405.907 15.9229   6
   1  11  -4 387.827 17.2522   2
  -1 -11  -4 388.831 16.7388   3
   1 -11   4 389.355 16.2714   3
  -1 -11  -4 397.981 18.6399  13
  -1 -11  -4 401.784 16.3311   8
  -1 -11  -4 396.858 16.4284  12
   1 -11   4 363.018 15.5308   7
   1  11   4 415.198 16.4540   6
  -1  11  -4 412.979 17.9253   2
   3 -11   4 210.543 11.9612   7
  -3 -11  -4 211.045 11.2882  12
  -3 -11  -4 216.905 12.0091   8
   3  11   4 221.473 11.9231   6
  -3  11  -4 233.541 13.1119   2
   3  11   4 215.276 11.3551  15
  -6 -12   4 590.036 23.4524   1
  -6  12   4 543.685 21.4674   6
   6  12  -4 631.703 24.2078   2
  -4 -12   4 391.867 17.2252   1
   4 -12  -4 371.670 16.9799   3
  -4 -12   4 367.602 16.4441   3
  -4  12   4 364.452 16.0436   6
   4  12  -4 357.687 17.2205   2
  -2 -12   4 558.997 21.2239   1
  -2 -12   4 554.903 21.1997   3
   2 -12  -4 538.124 21.4954   3
  -2  12   4 551.156 20.3605   6
   2  12  -4 556.569 22.1530   2
   0 -12  -4 661.063 24.5164   3
   0 -12   4 676.022 24.1059   3
   0  12   4 637.128 23.1152   6
   0  12  -4 677.483 25.2917   2
  -2 -12  -4 302.509 13.9920   8
  -2 -12  -4 278.711 13.9035   3
   2 -12   4 282.784 13.4271   3
   2 -12   4 276.564 13.1602   7
   2  12   4 289.469 13.9055   6
  -2  12  -4 268.135 14.7208   2
   3 -13  -4 61.2017 6.84103   3
  -3 -13   4 56.8613 7.21821   3
  -3 -13   4 69.4183 7.95562   1
   3  13  -4 71.2182 8.52396   2
  -3  13   4 61.0203 7.00801   6
  -1 -13   4 8.86735 3.41427   1
  -1 -13   4 5.57822 3.55465   3
   1 -13  -4 10.8029 4.49857   3
  -1  13   4 7.87005 3.95109   6
   1  13  -4 5.23162 2.95672   2
   1 -13   4 36.3485 5.11567   3
  -1 -13  -4 36.8776 6.26836   3
  -1  13  -4 34.0223 6.06897   2
   1  13   4 25.6734 5.30489   6
 -12   0   5 3.81880 3.94293   8
 -12   0   5 4.91252 4.86214  11
 -12   0   5 1.18501 2.64884   5
  12   0  -5 -1.0843 3.08029   4
 -10   0   5 -1.8081 3.57339  11
 -10   0   5 3.50888 2.28483  16
 -10   0   5 1.19422 2.95152   8
 -10   0   5 2.93821 2.31803   5
  10   0  -5 1.80075 2.88351   4
  -8   0   5 3.50656 1.83898   5
   8   0  -5 0.69287 1.83342  10
  -8   0   5 3.37585 1.86358  16
  -8   0   5 -0.1807 1.96070   8
  -8   0   5 0.32108 1.46319   1
  -8   0   5 2.19978 2.99138  11
   8   0  -5 0.24597 1.49137  14
   8   0  -5 0.66371 1.58957   4
   8   0  -5 3.73916 1.58807   9
   6   0  -5 2.28789 1.19849  14
  -6   0   5 0.63400 1.08203   8
  -6   0   5 0.37381 0.97099   5
   6   0  -5 0.21207 1.24273   4
  -6   0   5 0.10955 1.19023   1
  -6   0   5 -0.0056 1.31385  16
   6   0  -5 7.25503 1.89425  12
   6   0  -5 2.85032 1.93475  10
  -6   0   5 1.78979 2.06010  11
   4   0  -5 6.07831 2.26311  10
  -4   0   5 2.21367 0.79392   5
  -4   0   5 0.75780 1.13489  11
   4   0  -5 0.99041 0.93004  12
   4   0  -5 0.67355 1.30515   4
  -4   0   5 1.09648 1.13096   1
  -4   0   5 1.71832 0.94608   8
   4   0  -5 0.67065 0.52349   2
  -4   0   5 0.66399 0.40221   6
   4   0  -5 1.26365 1.18768  14
  -4   0   5 6.27796 1.41817  16
  -2   0   5 1.93925 0.57465   6
  -2   0   5 -0.4560 0.82533   1
   2   0  -5 1.28275 0.19798  12
  -2   0   5 -0.1360 0.89506   7
   2   0  -5 1.19498 1.27853  10
   2   0  -5 0.78055 0.19062  12
  -2   0   5 0.18291 0.81517  15
  -2   0   5 1.05430 0.90785  11
   0   0   5 1.46757 0.89417   1
   0   0   5 1.19670 0.90669   7
   0   0   5 0.26059 0.94414  15
   0   0   5 -0.0400 0.85726  11
   0   0   5 0.92958 0.74711   6
   0   0   5 -0.2474 0.76730   9
   2   0   5 -0.6332 1.13530   6
  -2   0  -5 1.02387 0.47648  12
  -2   0  -5 0.85136 0.89923  13
   2   0   5 -0.5364 1.20323  15
   2   0   5 1.84825 1.48475   9
  -2   0  -5 3.02922 0.63925  12
   2   0   5 -0.0278 0.94363   7
  -2   0  -5 -0.7463 0.94529  16
  -2   0  -5 0.80703 1.03236   8
   4   0   5 -0.4740 1.86432  15
  -4   0  -5 1.51943 1.55784   8
   4   0   5 0.47653 1.89632   9
  -4   0  -5 0.69859 2.35668  16
   4   0   5 8.08552 1.89717   7
  -4   0  -5 -1.1301 1.20460   5
  -4   0  -5 0.79671 1.06012  12
  -6   0  -5 0.66202 2.70005   5
  -6   0  -5 0.53744 3.14882  16
   6   0   5 9.20667 3.49461   9
   6   0   5 2.60938 2.92889  15
   8   0   5 -0.5066 3.10686  15
  -8   0  -5 0.63657 2.11283  12
   8   0   5 -1.4843 2.25618   9
  -8   0  -5 1.13081 3.54385   5
 -11  -1   5 6.32719 2.67705   5
 -11  -1   5 9.22447 3.25219   8
  11  -1  -5 10.7108 4.06819   4
 -11  -1   5 17.0766 4.83436  11
 -11   1   5 11.0088 3.51075  16
  11   1  -5 12.2206 3.47811   4
 -11   1   5 13.0098 5.40846  11
 -11   1   5 8.30676 3.16515   5
 -11   1   5 8.39467 3.98946   8
  -9  -1   5 7.81788 3.94883  11
  -9  -1   5 6.89266 3.05799   8
   9  -1  -5 8.62319 2.42604  14
  -9  -1   5 8.48054 2.99845  16
  -9  -1   5 8.75010 1.97453   5
   9  -1  -5 7.12602 3.09056   4
  -9   1   5 6.92825 3.73527  11
   9   1  -5 6.43664 2.30457   9
  -9   1   5 6.58792 2.06433   5
   9   1  -5 10.1911 3.20439   4
  -9   1   5 9.69786 3.35150  16
  -9   1   5 8.86606 3.14299   8
  -7  -1   5 130.320 5.77857   5
   7  -1  -5 126.489 7.08138  12
   7  -1  -5 132.863 6.74436  14
  -7  -1   5 136.864 7.08180   8
  -7  -1   5 134.253 6.61832   1
   7  -1  -5 130.976 7.49830   4
  -7  -1   5 137.990 8.48581  11
   7  -1  -5 131.013 8.78871  10
  -7  -1   5 138.003 7.26287  16
  -7   1   5 134.853 6.85650   8
  -7   1   5 157.351 6.70299   5
  -7   1   5 149.978 7.98924  16
   7   1  -5 135.159 6.68180  14
   7   1  -5 133.146 9.57013  10
  -7   1   5 137.755 6.48303   1
   7   1  -5 144.278 7.64514   4
   7   1  -5 132.620 7.18340  12
   7   1  -5 131.375 6.21431   9
  -7   1   5 140.052 8.69221  11
  -5  -1   5 938.737 26.4165   8
   5  -1  -5 976.340 27.2040  14
  -5  -1   5 954.909 28.8906  11
  -5  -1   5 947.870 26.8758   1
  -5  -1   5 937.414 25.0985   5
   5  -1  -5 943.396 28.9923  10
  -5  -1   5 967.117 26.4357  16
   5  -1  -5 939.761 27.0183   4
   5  -1  -5 964.987 26.7868  12
  -5   1   5 969.515 26.7891   1
   5   1  -5 965.110 26.8383  14
  -5   1   5 926.893 26.5546   8
   5   1  -5 935.826 27.1784   4
   5   1  -5 918.382 26.6005  12
   5   1  -5 946.355 30.2200  10
   5   1  -5 936.288 24.9106   2
  -5   1   5 932.851 25.8030   5
  -5   1   5 954.901 27.6499  16
  -5   1   5 938.755 28.9392  11
   3  -1  -5 242.213 7.53723  12
  -3  -1   5 242.856 9.71894  11
   3  -1  -5 242.077 8.48252   4
  -3  -1   5 237.663 7.91685   8
   3  -1  -5 239.744 8.68055  14
  -3  -1   5 230.904 8.62137   1
   3  -1  -5 256.570 9.78566  10
  -3  -1   5 243.044 8.42734   7
  -3   1   5 236.075 7.24707   6
   3   1  -5 247.918 10.4925  10
  -3   1   5 229.492 8.63443   1
   3   1  -5 245.666 7.63573   2
  -3   1   5 234.796 9.80241  11
   3   1  -5 254.423 7.71956  12
  -1  -1   5 74.0850 4.15201  11
  -1  -1   5 74.2349 3.86487   7
  -1  -1   5 69.1193 3.75991   1
  -1  -1   5 78.2095 3.95877   9
  -1  -1   5 72.4573 3.02922   6
  -1  -1   5 74.0870 3.99552  15
   1  -1  -5 82.7205 4.69235  10
  -1   1   5 75.2796 3.87068  15
  -1   1   5 73.4083 3.47807   9
  -1   1   5 81.1676 3.47287   6
  -1   1   5 78.4928 3.98365   1
  -1   1   5 75.2860 3.64339   7
  -1   1   5 80.7312 4.65168  11
   1   1  -5 73.0822 5.21803  10
  -1  -1  -5 47.8331 3.43703  13
   1  -1   5 46.6423 2.74759   1
   1  -1   5 47.3539 3.09815  11
   1  -1   5 45.5946 3.51199   9
   1  -1   5 48.8474 3.22447   7
   1  -1   5 46.8912 3.63646  15
   1  -1   5 46.0975 2.81588   6
   1   1   5 46.5656 3.47209  15
   1   1   5 48.0433 3.04156   1
   1   1   5 51.7767 3.29656   6
   1   1   5 44.4352 3.32627   9
   1   1   5 44.4980 2.80072   7
   1   1   5 43.6252 3.66092  11
  -1   1  -5 47.7327 3.75578  16
   3  -1   5 229.343 9.65246  15
   3  -1   5 208.839 8.53794   7
  -3  -1  -5 210.094 8.55386  13
   3  -1   5 230.333 10.0217   9
  -3  -1  -5 230.640 11.1856  16
  -3  -1  -5 227.088 9.09449   8
  -3  -1  -5 234.478 7.43105  12
   3   1   5 232.639 9.16417   6
   3   1   5 205.685 7.83186   7
  -3   1  -5 224.827 8.29447   8
   3   1   5 226.859 9.82546  15
  -3   1  -5 229.344 7.56859  12
  -3   1  -5 221.502 10.6232  16
  -3   1  -5 235.652 9.05296   5
   3   1   5 217.868 9.67220   9
  -5  -1  -5 202.555 8.49634  12
  -5  -1  -5 196.508 11.9302  16
   5  -1   5 205.178 10.4914   9
  -5  -1  -5 205.708 10.0441   5
   5  -1   5 183.427 8.61470   7
  -5  -1  -5 208.251 9.64033   8
   5  -1   5 199.067 10.0103  15
   5   1   5 197.418 10.0418  15
  -5   1  -5 204.239 9.81588   5
  -5   1  -5 201.936 11.7869  16
   5   1   5 209.154 10.4620   9
   7  -1   5 70.6152 6.96162  15
   7  -1   5 79.8047 8.40082   9
  -7  -1  -5 60.4581 6.78055   5
  -7   1  -5 70.5313 7.07871   5
  -7   1  -5 71.4193 6.24285  12
   7   1   5 75.2388 7.01828   9
   7   1   5 78.0675 7.63672  15
 -12  -2   5 124.406 9.09261   8
  12  -2  -5 126.939 9.91049   4
 -12  -2   5 124.734 11.2499  11
  12   2  -5 116.701 9.04902   4
 -12   2   5 128.363 9.59677   8
 -12   2   5 108.616 7.68950   5
 -10  -2   5 451.904 17.5399   8
  10  -2  -5 448.883 18.2866   4
 -10  -2   5 449.365 20.7617  11
 -10   2   5 434.739 16.5341   5
 -10   2   5 446.039 19.3538  16
 -10   2   5 435.062 19.7374  11
 -10   2   5 449.804 17.3257   8
  10   2  -5 423.127 16.4976   9
  10   2  -5 439.977 17.7305   4
   8  -2  -5 277.182 11.0979  14
   8  -2  -5 269.711 11.9328   4
  -8  -2   5 270.385 13.3368  11
  -8  -2   5 280.971 10.9402   1
  -8  -2   5 263.434 11.3100   8
  -8  -2   5 261.517 9.67793   5
  -8  -2   5 259.398 11.3809  16
   8   2  -5 266.221 11.7931   4
  -8   2   5 270.088 11.3044   8
   8   2  -5 262.033 10.2335  14
   8   2  -5 260.807 14.8836  10
  -8   2   5 266.434 10.7016   5
  -8   2   5 267.239 12.8342  16
  -8   2   5 262.641 13.2938  11
   8   2  -5 259.938 10.7192   9
  -6  -2   5 432.608 14.3278   1
  -6  -2   5 419.145 13.7177  16
  -6  -2   5 399.613 12.3401   5
   6  -2  -5 422.461 14.4775  14
  -6  -2   5 424.655 14.0410   8
   6  -2  -5 428.901 14.5518   4
  -6  -2   5 422.574 16.1752  11
   6  -2  -5 416.655 16.0322  10
   6  -2  -5 426.499 14.5020  12
   6   2  -5 421.171 13.8407  14
   6   2  -5 443.547 15.0503   4
   6   2  -5 430.012 14.5704  12
   6   2  -5 424.241 17.7591  10
  -6   2   5 423.961 16.2804  11
   6   2  -5 417.801 12.8073   2
  -6   2   5 421.280 14.2126   8
  -6   2   5 415.629 13.6308   5
  -6   2   5 417.347 15.4702  16
  -6   2   5 428.521 13.8532   1
  -4  -2   5 1063.68 31.4924  11
   4  -2  -5 1075.55 30.8731  10
   4  -2  -5 1095.31 29.4669  12
  -4  -2   5 1086.66 29.2101   8
   4  -2  -5 1093.74 30.2449  14
   4  -2  -5 1091.26 29.8803   4
  -4  -2   5 1094.87 30.1380   1
  -4  -2   5 1108.09 29.7398   7
  -4   2   5 1055.83 28.5392   6
  -4   2   5 1078.87 32.0028  11
   4   2  -5 1114.45 33.4031  10
  -4   2   5 1089.19 29.2611   5
   4   2  -5 1092.43 28.9204   2
   4   2  -5 1083.21 29.4978  12
   4   2  -5 1091.13 30.3026   4
  -4   2   5 1010.53 29.7242   1
  -2  -2   5 589.400 17.8835   1
  -2  -2   5 600.891 17.7444   7
   2  -2  -5 653.922 18.3927  10
   2  -2  -5 629.527 16.0433  12
   2  -2  -5 635.272 15.9165  12
   2  -2  -5 628.577 17.4250   4
   2  -2  -5 653.068 18.1086  14
  -2  -2   5 580.733 18.4768  11
  -2   2   5 609.694 16.9651   6
  -2   2   5 613.217 18.0463   1
  -2   2   5 594.523 17.2792  15
   2   2  -5 600.676 20.4142  10
  -2   2   5 605.840 19.1691  11
  -2   2   5 609.794 16.3355   9
   2   2  -5 596.307 17.4249   2
   2   2  -5 621.318 16.5316  12
   2   2  -5 584.508 16.0366  16
   0  -2   5 1033.86 28.4462   7
   0  -2   5 1012.84 28.8151   9
   0  -2   5 1012.90 27.9442  11
   0  -2   5 1039.83 28.9439  15
   0  -2   5 1028.19 28.0378   1
   0   2  -5 1056.61 26.2123  12
   0   2  -5 1067.96 28.4467  16
   0   2   5 1017.73 28.6859  15
   0   2   5 1048.61 30.1578  11
   0   2   5 1007.33 28.4247   1
   0   2   5 1012.08 27.4359   7
   0   2   5 1025.79 27.9727   9
   0   2  -5 1023.75 26.1867  12
   0   2  -5 1039.13 27.1491   5
   0   2  -5 1063.22 31.6205  10
   0   2   5 1082.93 28.1705   6
   2  -2   5 784.595 22.5869   7
   2  -2   5 783.967 23.0289  15
   2  -2   5 768.109 23.2905   9
  -2  -2  -5 753.880 20.0664  12
  -2  -2  -5 735.845 22.8492  13
  -2   2  -5 801.098 23.9050  16
  -2   2  -5 774.913 20.5818  12
   2   2   5 769.842 22.4562   6
  -2   2  -5 818.033 22.0160   5
   2   2   5 711.093 20.9168   7
   2   2   5 760.105 23.2679  15
   2   2   5 743.938 22.7755   9
   4  -2   5 145.249 7.92392  15
  -4  -2  -5 151.431 6.39971  12
  -4  -2  -5 144.114 9.75642  16
  -4  -2  -5 152.036 8.06530   8
   4  -2   5 148.311 7.44464   7
   4  -2   5 142.038 8.46292   9
   4   2   5 151.744 7.90405   6
   4   2   5 158.652 8.67738  15
  -4   2  -5 148.218 9.21942  16
   4   2   5 159.118 8.52034   9
  -4   2  -5 153.153 6.64760  12
  -4   2  -5 155.848 7.66046   5
   6  -2   5 245.722 11.7390  15
   6  -2   5 265.492 13.2166   9
  -6  -2  -5 255.450 12.0384   8
  -6  -2  -5 245.797 10.5098  12
  -6  -2  -5 231.007 11.8995   5
  -6  -2  -5 242.322 14.4899  16
  -6   2  -5 255.508 11.9237   5
  -6   2  -5 249.574 14.3747  16
   6   2   5 250.568 12.6574   9
   6   2   5 258.022 12.9084  15
  -6   2  -5 256.960 10.8388  12
  -8  -2  -5 177.206 11.2263   5
   8  -2   5 174.058 11.6554   9
  -8   2  -5 173.200 10.9803   5
   8   2   5 187.682 11.6018   9
  -8   2  -5 184.497 10.0542  12
   8   2   5 195.894 12.0506  15
  11  -3  -5 64.8643 7.85250   4
 -11  -3   5 50.7277 8.41201  11
 -11  -3   5 60.2537 6.72750   8
  11   3  -5 59.1675 6.50299   4
 -11   3   5 61.9589 6.94039   8
 -11   3   5 51.1120 5.90332   5
  11   3  -5 71.4484 7.12466   9
   9  -3  -5 65.2092 5.57441  14
   9  -3  -5 63.3002 6.68976   4
  -9  -3   5 61.4394 5.29686   1
  -9  -3   5 58.7144 5.86276   8
   9   3  -5 64.9494 6.09706   4
   9   3  -5 56.6133 5.70177   9
  -9   3   5 62.2417 5.45198   8
  -9   3   5 61.1335 7.21492  11
  -9   3   5 67.6970 5.79501   5
  -9   3   5 64.1890 7.28574  16
   7  -3  -5 98.3635 6.58800   4
   7  -3  -5 102.405 6.34008  14
  -7  -3   5 97.7024 6.02171   1
  -7  -3   5 94.6125 5.86544   8
   7  -3  -5 98.0750 6.20025  12
   7   3  -5 98.0971 8.91447  10
   7   3  -5 94.5933 6.02495   4
  -7   3   5 91.2410 7.20460  11
   7   3  -5 100.006 5.18058   2
  -7   3   5 102.953 6.23910   8
  -7   3   5 84.1623 5.07310   1
  -7   3   5 100.974 7.47324  16
  -7   3   5 96.7108 5.86998   5
   7   3  -5 99.0564 6.27390  12
   7   3  -5 97.0933 5.36169  14
   5  -3  -5 17.1292 2.55450  12
   5  -3  -5 20.0083 2.81471   4
   5  -3  -5 21.4029 2.56869  10
  -5  -3   5 22.1865 2.57661   8
  -5  -3   5 16.7972 2.71109   1
   5  -3  -5 23.9282 3.15780  14
  -5   3   5 21.4756 3.62750  11
  -5   3   5 24.5568 3.44568  16
  -5   3   5 20.3848 2.46788   5
  -5   3   5 20.7074 2.70824   1
   5   3  -5 21.5839 2.57600   2
   5   3  -5 30.0351 3.56541   4
   5   3  -5 19.5127 2.70207  12
   5   3  -5 21.2566 3.97717  10
  -3  -3   5 24.1886 2.65710   7
  -3  -3   5 19.7348 1.69596   8
  -3  -3   5 20.1781 2.47143   1
   3  -3  -5 21.4643 2.08148  12
   3  -3  -5 27.0713 2.41165   4
   3  -3  -5 25.0542 2.20832  10
   3  -3  -5 25.6734 2.88051  14
  -3  -3   5 24.5349 2.88432  11
  -3   3   5 20.9797 1.78451  15
  -3   3   5 23.2374 2.06709   6
   3   3  -5 18.8366 2.13605  12
  -3   3   5 17.8872 2.32943   1
  -3   3   5 22.3006 3.29744  11
   3   3  -5 20.9381 2.47760   2
   3   3  -5 22.6759 3.92422  10
   1  -3  -5 4.65241 0.78454  12
   1  -3  -5 6.99658 1.63543  14
  -1  -3   5 5.95388 1.28682  11
   1  -3  -5 7.84250 1.27753   4
  -1  -3   5 6.97401 1.59396   1
   1  -3  -5 6.24774 0.76254  12
  -1  -3   5 14.2804 2.02411   7
   1  -3  -5 8.63567 1.48966  10
   1   3  -5 6.63571 1.20684  12
  -1   3   5 8.24583 1.83683   1
   1   3  -5 9.78126 2.71394  10
  -1   3   5 9.46296 1.22370   9
  -1   3   5 5.91414 2.03766  11
   1   3  -5 6.97621 1.74933   2
  -1   3   5 11.0422 1.76902  15
  -1   3   5 9.72746 1.52155   6
   1  -3   5 240.855 9.21607   7
  -1  -3  -5 241.186 9.95194  13
  -1  -3  -5 236.963 7.14977  12
  -1  -3  -5 241.160 8.90378   3
   1  -3   5 259.230 9.59288  15
  -1  -3  -5 255.964 7.27207  12
   1  -3   5 245.481 9.85489   9
  -1  -3  -5 241.262 8.07118  14
  -1   3  -5 250.208 7.90444  12
   1   3   5 256.687 9.72643  15
  -1   3  -5 244.429 9.30967  16
   1   3   5 245.655 10.6186  11
  -1   3  -5 246.018 8.14651   5
   1   3   5 246.040 8.98606   9
   1   3   5 266.801 9.28991   6
   3  -3   5 55.3021 4.48115   7
   3  -3   5 49.4171 4.25228  15
  -3  -3  -5 52.1882 4.60926  13
   3  -3   5 47.5656 4.47820   9
  -3  -3  -5 51.6288 3.32403  12
  -3  -3  -5 52.3734 4.70982   8
  -3   3  -5 50.4143 3.41368  12
  -3   3  -5 47.8425 3.83314   5
   3   3   5 54.2155 4.50837   6
   3   3   5 48.8625 4.11270   9
  -3   3  -5 43.3364 4.74826  16
   3   3   5 56.7987 4.96079  15
   5  -3   5 78.8882 6.52543   9
  -5  -3  -5 89.3585 5.47613  12
  -5  -3  -5 91.4016 7.06768   5
   5  -3   5 96.7665 6.30040  15
  -5  -3  -5 88.5610 6.93435   8
  -5  -3  -5 86.4962 7.86295  16
   5  -3   5 78.9462 6.16888   7
  -5   3  -5 91.6798 6.49441   5
   5   3   5 83.9912 6.67774   6
  -5   3  -5 95.4918 5.82897  12
   5   3   5 93.3211 7.46590  15
   5   3   5 83.3594 6.96061   9
  -5   3  -5 96.6450 8.29762  16
  -7  -3  -5 19.7741 3.67960  12
  -7  -3  -5 26.5006 4.60390   5
  -7  -3  -5 20.5518 4.64363   8
   7  -3   5 19.7125 4.92481   9
  -7   3  -5 15.3389 3.37857  12
   7   3   5 16.9849 5.10314  15
   7   3   5 19.7101 4.95622   9
  -7   3  -5 23.8208 4.07228   5
 -12  -4   5 83.2045 11.4153  11
 -12  -4   5 86.8394 8.64892   8
  12  -4  -5 67.1645 8.69177   4
 -12   4   5 91.7852 7.31774   5
 -12   4   5 86.6379 7.93538   8
 -10  -4   5 52.4176 6.22914   8
  10  -4  -5 48.5642 5.41329  14
  10  -4  -5 56.7972 7.00371   4
 -10   4   5 45.0855 7.20330  16
 -10   4   5 57.9209 6.17682   8
  10   4  -5 54.4874 6.46621   9
 -10   4   5 49.9981 5.55658   5
  10   4  -5 51.4920 5.91013   4
   8  -4  -5 337.013 13.7387   4
   8  -4  -5 325.837 13.4168  14
  -8  -4   5 346.548 14.2338  13
   8  -4  -5 304.599 12.2754   3
  -8  -4   5 337.076 13.2707   1
  -8  -4   5 352.559 13.3784   8
  -8   4   5 323.891 15.0381  11
  -8   4   5 351.662 16.0243  16
  -8   4   5 328.762 13.1516   8
   8   4  -5 350.964 13.8174   4
   8   4  -5 343.757 12.7109   2
  -8   4   5 338.338 13.0885   5
   6  -4  -5 81.4682 5.24836  12
  -6  -4   5 95.0915 5.93540   1
   6  -4  -5 92.8133 5.45368   3
  -6  -4   5 91.3819 6.26899  13
  -6  -4   5 93.1611 5.37549   8
   6  -4  -5 86.0891 5.81037  14
   6  -4  -5 90.6767 5.71528   4
   6   4  -5 96.9738 5.30041   2
  -6   4   5 78.6097 6.23336  11
   6   4  -5 95.8182 6.07018   4
  -6   4   5 85.4595 6.98139  16
  -6   4   5 79.2372 4.97533   1
   6   4  -5 89.7964 8.08234  10
   6   4  -5 78.7362 5.31692  12
  -6   4   5 96.9621 5.64484   5
   4  -4  -5 5.52288 1.60779  12
  -4  -4   5 3.84636 1.44349  13
   4  -4  -5 -0.2337 1.03888  14
  -4  -4   5 1.72920 1.17744   1
  -4  -4   5 1.95199 0.97784   8
  -4  -4   5 -0.3103 1.09996   7
  -4   4   5 1.10617 1.40411   5
   4   4  -5 6.89624 2.79726  10
  -4   4   5 0.04054 1.27245   1
  -4   4   5 1.11952 1.19004   6
  -4   4   5 0.64021 1.62961  11
   4   4  -5 1.63079 1.11148   2
   2  -4  -5 905.072 26.8032   3
  -2  -4   5 938.323 26.2275   7
   2  -4  -5 929.918 24.9934   4
   2  -4  -5 901.178 23.7775  10
  -2  -4   5 932.483 26.6160  11
  -2  -4   5 933.072 26.5177   1
   2  -4  -5 942.096 26.2694  14
   2  -4  -5 938.180 25.4539  12
   2   4  -5 988.051 25.8868  12
  -2   4   5 919.602 25.3518  15
  -2   4   5 939.904 26.7430   1
   2   4  -5 965.695 26.6531   2
  -2   4   5 927.955 28.4108  11
   2   4  -5 945.869 29.9211  10
  -2   4   5 933.827 25.9010   6
   0  -4  -5 376.279 10.9111  12
   0  -4   5 368.345 11.8964   1
   0  -4  -5 359.378 11.3514  14
   0  -4  -5 368.705 12.4751   3
   0  -4  -5 375.621 13.7851  13
   0  -4   5 360.940 12.4331   7
   0   4   5 359.749 11.3130   9
   0   4  -5 351.069 11.3118  16
   0   4  -5 358.258 15.0741  10
   0   4  -5 384.423 11.4381  12
   0   4   5 365.961 14.2054  11
   0   4   5 362.638 12.2837  15
   0   4   5 363.384 12.0347   6
   0   4  -5 374.185 12.8414   2
   2  -4   5 51.6017 4.17808  15
  -2  -4  -5 56.7859 4.92506  13
   2  -4   5 48.6321 4.65244   9
  -2  -4  -5 45.8467 3.43151   3
  -2  -4  -5 50.4276 3.06586  12
   2  -4   5 48.0308 4.28068   7
  -2   4  -5 45.8674 3.08990   5
   2   4   5 48.6860 4.21928   6
  -2   4  -5 44.7653 3.43972  12
   2   4   5 43.8815 3.56369   9
   2   4   5 45.2631 3.98255  15
  -2   4  -5 43.2210 4.14846  16
   4  -4   5 250.248 10.7491   7
   4  -4   5 219.767 9.88312  15
  -4  -4  -5 226.098 10.5440   8
   4  -4   5 210.170 10.6569   9
  -4  -4  -5 212.163 10.5271  13
  -4  -4  -5 217.560 8.91968  12
  -4  -4  -5 223.639 12.8062  16
   4   4   5 223.876 10.3795   6
  -4   4  -5 222.023 9.23856  12
  -4   4  -5 222.534 9.66006   5
   4   4   5 230.151 11.1707  15
   4   4   5 217.286 10.5377   9
  -4   4  -5 232.334 11.4885  16
  -6  -4  -5 32.8952 5.53833   8
   6  -4   5 27.3628 4.56059   7
   6  -4   5 25.6038 5.01870   9
  -6  -4  -5 24.8977 3.71630  12
  -6  -4  -5 24.3348 4.64004   5
  -6  -4  -5 23.1520 5.02913  16
   6   4   5 29.1514 5.09058   9
  -6   4  -5 23.2599 3.78998  12
   6   4   5 23.0795 4.39246   6
   6   4   5 24.2734 5.10561  15
  -6   4  -5 31.6083 4.68821   5
  -6   4  -5 22.4996 5.37066  16
  11  -5  -5 38.1248 6.17425   4
 -11  -5   5 42.4686 8.10090  11
 -11  -5   5 55.7489 6.73748   8
 -11   5   5 56.4868 5.98630   5
  11   5  -5 48.1275 6.30126   9
   9  -5  -5 201.470 10.8104   4
  -9  -5   5 170.525 9.30179   8
  -9  -5   5 157.201 9.92782  13
   9  -5  -5 169.774 9.32173  14
  -9  -5   5 173.993 9.44445   1
   9   5  -5 168.113 9.40096   4
   9   5  -5 180.922 10.4903   9
  -9   5   5 178.095 12.1306  16
  -9   5   5 170.786 9.64175   5
   7  -5  -5 312.369 12.2737   3
  -7  -5   5 328.858 13.0062   1
   7  -5  -5 322.206 13.1125  12
  -7  -5   5 305.253 11.9787   8
  -7  -5   5 322.840 13.5036  13
   7  -5  -5 325.957 12.8564   4
   7  -5  -5 310.946 12.8408  14
   7   5  -5 287.442 16.2910  10
   7   5  -5 314.233 12.0944   2
  -7   5   5 303.318 14.8976  16
  -7   5   5 306.900 13.9193  11
  -7   5   5 338.527 12.7995   5
   7   5  -5 306.569 12.5761   4
  -5  -5   5 15.9604 2.32672   8
   5  -5  -5 14.2845 2.89565   3
  -5  -5   5 31.6426 3.74594  13
   5  -5  -5 35.3612 4.16331  14
   5  -5  -5 14.2308 2.61926  12
  -5  -5   5 13.6268 2.38678   7
  -5  -5   5 14.3234 2.85045   1
   5  -5  -5 13.8106 2.45536   4
  -5   5   5 20.0437 3.67281  11
   5   5  -5 14.1387 2.76874   2
  -5   5   5 17.3570 2.61279   5
   5   5  -5 11.6643 3.77829  10
  -5   5   5 17.5781 2.73375   6
   5   5  -5 18.9342 3.05079   4
   5   5  -5 12.2634 2.68607  12
  -5   5   5 20.4639 3.06676   1
  -3  -5   5 124.532 6.58504  11
  -3  -5   5 132.368 6.15585   7
   3  -5  -5 123.550 5.18621   4
   3  -5  -5 130.136 6.52279  14
  -3  -5   5 133.132 6.69048  13
   3  -5  -5 128.630 6.20552  12
  -3  -5   5 133.860 6.58461   1
   3  -5  -5 135.908 6.84950   3
   3   5  -5 140.605 9.11213  10
  -3   5   5 122.358 6.52182   1
   3   5  -5 138.142 6.42796  12
   3   5  -5 138.068 6.69807   2
  -3   5   5 166.924 6.69866   6
  -3   5   5 123.243 7.58213  11
   1  -5  -5 958.777 26.5929  12
  -1  -5   5 991.375 27.5476   3
  -1  -5   5 951.986 27.3953   1
   1  -5  -5 991.298 29.5886  13
  -1  -5   5 970.679 27.5318   7
   1  -5  -5 939.075 26.7053  14
   1  -5  -5 954.497 28.0591   3
  -1   5   5 979.853 29.9196  11
  -1   5   5 959.051 27.2210   6
   1   5  -5 1016.23 27.1777  12
   1   5  -5 954.462 27.9696   2
   1   5  -5 952.878 31.2563  10
  -1   5   5 925.197 26.6701  15
  -1  -5  -5 85.0527 4.33899  12
   1  -5   5 81.3954 5.17143   7
  -1  -5  -5 93.7299 6.27167  13
  -1  -5  -5 83.9225 5.16697   3
  -1   5  -5 83.0317 7.12701  10
   1   5   5 81.5619 4.57480   9
  -1   5  -5 92.4841 5.94062   2
   1   5   5 87.4334 5.10657   6
   1   5   5 89.3290 5.43644  15
  -1   5  -5 83.7572 4.65434  12
  -3  -5  -5 113.529 7.43059   8
  -3  -5  -5 106.560 7.15608  13
   3  -5   5 108.479 6.44547  15
   3  -5   5 105.390 6.88093   7
   3  -5   5 107.621 7.36945   9
  -3  -5  -5 112.923 5.77750  12
  -3   5  -5 110.014 7.29090  16
  -3   5  -5 118.067 6.25630  12
   3   5   5 119.427 7.11433  15
   3   5   5 116.339 6.71395   6
  -3   5  -5 103.351 5.72050   5
   3   5   5 114.147 6.55929   9
   5  -5   5 91.8275 7.74554   9
  -5  -5  -5 78.8399 8.36412  16
  -5  -5  -5 84.1726 7.44897   8
   5  -5   5 87.4623 7.04481   7
  -5  -5  -5 82.1108 5.64047  12
  -5   5  -5 90.5333 6.27633  12
   5   5   5 88.2092 7.19825   9
  -5   5  -5 81.1912 7.89003  16
   5   5   5 74.8701 6.67515   6
   5   5   5 86.2898 7.53706  15
  -5   5  -5 83.9289 6.46016   5
  -7  -5  -5 5.06444 2.77515   5
  -7  -5  -5 2.35112 3.67154   8
  -7  -5  -5 2.33881 2.24407  12
   7  -5   5 2.52768 3.73545   9
   7  -5   5 2.70418 2.91914   7
   7   5   5 4.24113 4.04649  15
  -7   5  -5 2.28501 2.55027  12
   7   5   5 8.63990 3.95781   9
  -7   5  -5 4.41546 3.32043   5
 -10  -6   5 6.05705 3.49646   8
  10  -6  -5 7.80516 3.79354   4
 -10   6   5 11.7969 3.89055   5
  10   6  -5 12.3929 4.40291   9
   8  -6  -5 149.711 8.87415  14
  -8  -6   5 140.154 8.64747   1
  -8  -6   5 141.746 8.28131   8
   8  -6  -5 92.9035 10.1591   3
   8  -6  -5 139.127 8.57915   4
  -8  -6   5 144.728 9.11857  13
   8   6  -5 131.552 8.25893   2
  -8   6   5 142.169 10.2215  16
   8   6  -5 145.261 8.21211   4
  -8   6   5 146.767 8.19192   5
   6  -6  -5 291.186 11.9708   3
  -6  -6   5 277.238 12.2044  13
   6  -6  -5 285.018 11.9330  12
   6  -6  -5 276.912 11.9675  14
  -6  -6   5 286.180 10.8621   8
  -6  -6   5 284.534 12.2138   1
   6  -6  -5 277.003 11.0863   4
   6   6  -5 261.515 11.3659   4
  -6   6   5 310.797 13.2988  11
   6   6  -5 266.063 12.0210  12
  -6   6   5 297.404 14.4515  16
   6   6  -5 282.588 11.7226   2
   6   6  -5 266.548 15.2094  10
  -6   6   5 321.741 12.1822   5
   4  -6  -5 71.2148 5.03279  12
  -4  -6   5 71.9090 5.43009   1
   4  -6  -5 64.8803 5.37199   3
  -4  -6   5 67.0246 4.43932   7
   4  -6  -5 67.8222 4.01370   4
   4  -6  -5 67.8517 5.17785  14
  -4  -6   5 67.1249 4.97546  13
  -4   6   5 76.4137 5.29260   5
   4   6  -5 84.4548 5.45921  12
  -4   6   5 73.5252 6.12378  11
  -4   6   5 78.6008 4.76245   6
   4   6  -5 71.8274 5.46658   2
   4   6  -5 69.5183 6.71461  10
  -2  -6   5 282.518 10.6288   3
   2  -6  -5 274.002 10.2167  12
  -2  -6   5 264.153 10.4971   1
   2  -6  -5 268.285 11.8320  13
   2  -6  -5 257.244 9.96712  14
  -2  -6   5 283.497 10.5422  13
  -2  -6   5 278.585 10.3464   7
   2  -6  -5 282.100 11.2837   3
   2   6  -5 276.818 10.4264  12
  -2   6   5 281.042 10.3034   6
  -2   6   5 266.149 12.2579  11
   2   6  -5 262.669 13.3758  10
   2   6  -5 280.522 11.0560   2
   0  -6   5 13.5398 2.71315   7
   0  -6   5 12.1060 2.39702   3
   0  -6  -5 11.2214 2.63309   3
   0  -6  -5 9.70038 2.63831  13
   0  -6   5 8.84394 1.93895   1
   0  -6  -5 15.4711 2.34918  12
   0   6   5 14.4570 2.36392  15
   0   6   5 11.2958 2.43431   6
   0   6   5 12.2472 3.03283  11
   0   6  -5 10.8864 2.89305   2
   0   6  -5 22.8168 4.13738  10
   0   6  -5 11.5294 2.27426  12
   2  -6   5 12.3733 2.93354   7
  -2  -6  -5 16.8546 2.54233  12
  -2  -6  -5 15.6568 2.77529   3
  -2  -6  -5 13.0169 3.44899  13
  -2   6  -5 16.9007 3.57527   2
   2   6   5 12.5650 2.50996   9
  -2   6  -5 13.4651 2.54870  12
   2   6   5 15.9621 2.88196   6
   2   6   5 16.3727 3.00220  15
  -2   6  -5 8.79597 2.90954  10
  -4  -6  -5 376.311 13.8131  12
  -4  -6  -5 342.670 15.4253  13
  -4  -6  -5 360.371 15.5283   8
   4  -6   5 359.623 15.0145   7
   4  -6   5 357.959 15.5192   9
  -4   6  -5 339.969 15.1408   2
  -4   6  -5 359.350 14.0345  12
   4   6   5 388.006 15.6174  15
   4   6   5 360.931 14.6357   9
   4   6   5 377.500 14.9327   6
  -6  -6  -5 51.8362 5.67871  12
  -6  -6  -5 61.2460 7.44274   8
   6  -6   5 45.8538 6.32574   9
   6  -6   5 49.4576 6.34342   7
  -6  -6  -5 42.9139 5.49387   5
   6   6   5 54.6298 6.43284   9
   6   6   5 46.1739 6.69470  15
  -6   6  -5 42.8753 5.30239  12
  -6   6  -5 45.5395 6.22354   2
   6   6   5 45.6941 6.14820   6
 -11  -7   5 145.176 9.39525   8
  11   7  -5 133.295 11.6555   9
   9  -7  -5 151.977 9.73004  14
  -9  -7   5 171.466 9.78175   8
   9  -7  -5 165.271 10.0101   4
  -9  -7   5 164.446 10.3722  13
  -9  -7   5 165.763 10.2769   1
  -9   7   5 140.391 11.8611  16
   9   7  -5 183.467 10.5328   2
  -9   7   5 157.583 9.48526   5
   9   7  -5 163.738 10.4145   9
  -7  -7   5 8.57700 3.27803  13
   7  -7  -5 12.3929 3.00268  14
  -7  -7   5 10.3307 2.71620   8
   7  -7  -5 11.9338 3.02286   4
  -7  -7   5 17.8395 4.06207   1
   7  -7  -5 9.69531 3.01851   3
   7   7  -5 8.82796 3.18714   2
  -7   7   5 14.0966 4.55566  16
  -7   7   5 12.6448 3.42633   5
  -7   7   5 10.4315 3.43836  11
   5  -7  -5 121.247 7.34809  12
  -5  -7   5 129.542 7.95078   1
   5  -7  -5 120.711 7.42421  14
   5  -7  -5 134.307 8.00015  13
  -5  -7   5 130.109 7.70297  13
  -5  -7   5 133.754 6.52776   7
   5  -7  -5 117.600 7.55659   3
  -5   7   5 121.901 8.25639  11
  -5   7   5 127.710 7.42183   5
   5   7  -5 128.798 10.2151  10
   5   7  -5 117.971 6.91667   4
  -5   7   5 131.675 6.94438   6
   5   7  -5 124.596 7.90077   2
   5   7  -5 131.804 7.69125  12
  -3  -7   5 100.224 6.07474  13
   3  -7  -5 90.9124 5.94268  12
   3  -7  -5 96.6792 6.75291   3
  -3  -7   5 102.440 6.39366   3
   3  -7  -5 98.5937 7.03947  13
   3  -7  -5 104.520 6.16709  14
  -3  -7   5 118.424 6.02677   7
  -3  -7   5 106.016 6.63168   1
  -3   7   5 99.9957 7.43611  11
   3   7  -5 104.972 8.74845  10
  -3   7   5 109.353 6.25681   6
   3   7  -5 115.470 6.58259  12
   3   7  -5 105.444 6.62855   2
  -1  -7   5 106.162 6.19979   7
   1  -7  -5 104.339 5.39305  14
   1  -7  -5 99.6797 5.85704  12
  -1  -7   5 110.409 6.35819   3
  -1  -7   5 99.9890 6.04169   1
   1  -7  -5 101.875 6.75154   3
   1  -7  -5 117.418 7.84628  13
   1   7  -5 93.3098 6.83601   2
  -1   7   5 113.758 8.11873  11
  -1   7   5 98.8319 5.11637  15
  -1   7   5 103.440 5.92033   6
   1   7  -5 101.457 6.05585  12
   1   7  -5 98.7790 8.20506  10
  -1  -7  -5 466.448 16.4474   3
  -1  -7  -5 459.086 18.1137  13
  -1  -7  -5 473.739 15.8077  12
   1  -7   5 475.355 16.8163   7
   1  -7   5 477.816 16.2079   3
  -1   7  -5 470.912 16.2767  12
   1   7   5 495.432 16.8197   6
  -1   7  -5 482.012 17.5420   2
   1   7   5 477.602 16.4860  15
  -1   7  -5 428.083 19.7537  10
  -3  -7  -5 56.9868 6.06220  13
  -3  -7  -5 74.2205 6.73848   8
  -3  -7  -5 59.9875 5.23962  12
   3  -7   5 54.9222 6.05208   7
   3   7   5 56.8427 5.65800   6
   3   7   5 64.5052 5.80531  15
  -3   7  -5 70.0672 6.85441   2
   3   7   5 57.3680 5.15476   9
  -3   7  -5 46.4433 5.07604  12
   5  -7   5 -0.7385 2.82901   7
  -5  -7  -5 0.22730 2.98302  13
  -5  -7  -5 1.69551 3.56295   8
  -5  -7  -5 -0.0323 1.98782  12
   5   7   5 3.69370 3.33071   6
   5   7   5 4.23839 2.17362   9
   5   7   5 0.02390 2.85588  15
  -5   7  -5 -0.6959 2.14295  12
  -5   7  -5 -0.1337 2.11448   2
 -10  -8   5 75.5338 6.97998   8
  10  -8  -5 87.1638 8.12418   4
 -10   8   5 68.9910 7.18162   5
  10   8  -5 80.1962 9.22176   9
  -8  -8   5 76.3471 7.53209   1
   8  -8  -5 65.6749 6.75340  14
  -8  -8   5 71.5121 6.82309  13
   8  -8  -5 61.9338 5.65535   4
  -8  -8   5 54.0245 5.49373   8
   8   8  -5 64.0018 6.88447   2
  -8   8   5 79.6758 6.71594   5
  -6  -8   5 389.887 15.8808   1
  -6  -8   5 376.263 15.8188  13
   6  -8  -5 382.093 15.1002  14
   6  -8  -5 375.033 15.3750   3
  -6   8   5 361.864 15.8378  11
  -6   8   5 378.767 15.0196   5
  -6   8   5 398.702 14.8895   6
   6   8  -5 379.549 15.6841   2
   4  -8  -5 706.671 22.9397  12
  -4  -8   5 710.642 22.5905   3
   4  -8  -5 678.318 22.2586  14
   4  -8  -5 664.219 23.2731  13
  -4  -8   5 702.131 23.2311  13
  -4  -8   5 687.450 22.9621   1
   4  -8  -5 707.573 23.3726   3
  -4  -8   5 706.567 21.2356   7
  -4   8   5 706.707 22.2057   6
   4   8  -5 657.609 22.6786  12
  -4   8   5 700.664 24.4270  11
   4   8  -5 642.870 21.6186   4
   4   8  -5 676.520 27.1713  10
   4   8  -5 719.680 23.5422   2
  -2  -8   5 80.8383 5.58892   7
   2  -8  -5 83.3985 5.85188  12
   2  -8  -5 75.4144 6.37024  13
   2  -8  -5 79.3179 5.27524  14
  -2  -8   5 69.8534 4.97384  13
   2  -8  -5 75.8900 6.48817   3
  -2  -8   5 68.0875 5.69134   1
  -2  -8   5 79.6236 5.98763   3
   2   8  -5 80.1567 5.80790  12
   2   8  -5 70.1344 6.00648   2
   2   8  -5 67.3579 7.30833  10
  -2   8   5 75.3032 5.77881   6
  -2   8   5 73.7820 7.04646  11
   0  -8   5 76.5769 5.41584   1
   0  -8   5 85.0706 6.14439   7
   0  -8  -5 87.0894 6.67492   3
   0  -8  -5 77.4274 7.07835  13
   0  -8   5 73.7238 5.69017   3
   0  -8  -5 77.1643 5.58928  12
   0   8  -5 86.1205 5.98333  12
   0   8   5 76.7302 5.67084   6
   0   8  -5 84.1914 6.85941   2
   0   8   5 80.4281 5.14459  15
   0   8  -5 68.3306 7.00418  10
   2  -8   5 327.145 12.8852   3
  -2  -8  -5 333.219 13.2155  12
  -2  -8  -5 332.533 15.5424  13
   2  -8   5 310.174 13.7943   7
  -2  -8  -5 323.118 13.2215   3
   2   8   5 344.721 14.0346   6
  -2   8  -5 311.384 13.4005  12
  -2   8  -5 351.375 14.9547   2
   2   8   5 346.712 14.0656  15
  -4  -8  -5 172.956 9.27826  12
  -4  -8  -5 159.635 11.0403  13
   4  -8   5 177.817 10.3877   7
  -4  -8  -5 168.464 10.6577   8
   4   8   5 175.579 9.73448   6
  -4   8  -5 180.045 9.80332  12
   4   8   5 124.153 10.3481   9
  -4   8  -5 171.433 10.8075   2
   4   8   5 166.085 10.3711  15
   6  -8   5 128.102 9.61600   7
  -6  -8  -5 134.459 8.78607  12
  -6  -8  -5 146.286 10.9832   8
   6   8   5 153.599 10.0915   9
  -6   8  -5 136.658 9.23994  12
   6   8   5 156.533 10.4221  15
   6   8   5 135.121 9.08929   6
  -6   8  -5 139.823 9.61767   2
  -9  -9   5 5.24989 4.00174   1
   9   9  -5 1.01304 2.96505   9
   9   9  -5 3.99071 3.79363   2
  -9   9   5 -0.5938 2.93117   6
  -9   9   5 2.00517 3.61782   5
   7  -9  -5 -2.2587 2.28702   3
  -7  -9   5 -1.0209 3.44087   1
  -7  -9   5 4.98223 2.64994  13
   7  -9  -5 -0.0280 2.98876  14
   7   9  -5 0.28574 2.37951   2
  -7   9   5 -1.3562 2.86016   5
  -7   9   5 -0.8603 2.75956   6
   5  -9  -5 67.5262 6.09546   3
   5  -9  -5 61.8158 6.04436  13
   5  -9  -5 65.2585 6.17104  12
  -5  -9   5 76.2661 6.61617   3
   5  -9  -5 68.0864 5.66343  14
  -5  -9   5 69.9659 6.68058  13
  -5  -9   5 68.1926 6.73655   1
   5   9  -5 83.3405 7.53913   2
  -5   9   5 64.5617 6.65581  11
  -5   9   5 66.9697 5.61758   6
  -3  -9   5 30.7913 4.71509   1
  -3  -9   5 41.0250 4.76249  13
   3  -9  -5 36.6895 4.53629  12
   3  -9  -5 34.8698 5.11938   3
   3  -9  -5 31.5077 4.96101  13
  -3  -9   5 36.7719 4.29717   7
  -3  -9   5 35.2732 4.73162   3
   3  -9  -5 35.3196 4.12930  14
   3   9  -5 36.9773 5.62894   2
  -3   9   5 35.3922 4.71491   6
  -3   9   5 30.2841 5.11973  11
   3   9  -5 39.7964 4.96076  12
   1  -9  -5 11.0216 3.65758  13
  -1  -9   5 2.55633 2.00587   1
  -1  -9   5 2.53966 1.90751   3
   1  -9  -5 1.13423 2.77763   3
  -1  -9   5 0.93217 2.34135   7
   1  -9  -5 4.09544 2.28511  12
  -1   9   5 1.33201 2.41525   6
   1   9  -5 2.27212 2.21877  12
   1   9  -5 2.51336 2.55636   2
   1  -9   5 16.3195 3.45304   7
   1  -9   5 18.3463 3.60693   3
  -1  -9  -5 13.2337 3.04806  12
  -1  -9  -5 10.8528 3.47055   3
  -1  -9  -5 11.8971 4.13190  13
   1   9   5 14.9220 3.09968  15
  -1   9  -5 12.0263 3.16831  12
   1   9   5 7.20527 2.68758   6
  -1   9  -5 8.10716 3.84208   2
  -3  -9  -5 20.3073 4.19553   8
  -3  -9  -5 19.5726 3.73135  12
  -3  -9  -5 16.3355 4.81377  13
   3  -9   5 18.8910 4.06489   7
  -3   9  -5 17.0436 4.15360   2
   3   9   5 17.7846 3.80133   6
  -3   9  -5 23.4619 4.21203  12
   3   9   5 22.9737 4.44600  15
   5  -9   5 1.85299 3.33849   7
  -5  -9  -5 4.43664 3.79574   8
  -5  -9  -5 4.45253 2.67429  12
   5   9   5 8.57511 3.95632   6
  -5   9  -5 10.6177 4.15574   2
  -5   9  -5 4.42980 2.85071  12
   5   9   5 3.29003 3.37822  15
  -8 -10   5 0.80565 3.85859   1
   8 -10  -5 -1.0837 3.12794   7
  -8  10   5 0.63741 2.20224   6
  -8  10   5 1.32151 3.41136   5
   8  10  -5 -0.5683 3.62510   2
  -6 -10   5 67.5165 7.30820  13
   6 -10  -5 47.7951 6.23478   3
   6 -10  -5 43.4897 5.96143  14
  -6 -10   5 59.0047 7.24527   1
   6  10  -5 50.8934 6.33985   2
  -6  10   5 51.7254 6.01551   6
   4 -10  -5 26.1431 4.22439  12
   4 -10  -5 28.8123 5.11372   3
  -4 -10   5 28.7324 4.86330   3
  -4 -10   5 32.3707 4.80209   1
  -4 -10   5 28.8677 4.31902  13
   4 -10  -5 37.0140 5.17560  13
   4 -10  -5 28.3395 4.27413  14
  -4  10   5 29.9754 5.42390  11
  -4  10   5 29.7618 4.65918   6
   4  10  -5 35.6220 5.34120   2
   2 -10  -5 3.70690 3.45167   3
  -2 -10   5 2.95926 2.49800   7
  -2 -10   5 6.86585 3.09207   3
   2 -10  -5 -1.2203 2.23551  13
  -2 -10   5 3.44536 2.71414   1
   2 -10  -5 0.21667 2.08380  12
   2  10  -5 -2.3366 3.18467   2
  -2  10   5 1.04946 2.77008   6
   0 -10  -5 4.12447 3.42443  13
   0 -10   5 5.46272 3.04433   7
   0 -10   5 12.9785 3.48889   3
   0 -10  -5 7.64341 2.84055  12
   0 -10  -5 8.75696 3.85283   3
   0  10   5 15.0905 3.95171   6
   0  10  -5 12.2051 4.46791   2
   0  10  -5 3.87785 2.16506  12
  -2 -10  -5 0.47757 2.96810   3
   2 -10   5 -0.4703 2.82723   3
  -2 -10  -5 2.39924 2.28439   8
   2 -10   5 0.61282 3.10022   7
  -2 -10  -5 1.23909 2.25124  12
  -2  10  -5 -1.1619 2.51812   2
  -2  10  -5 3.65928 2.57761  12
   2  10   5 0.02799 2.10450  15
   2  10   5 0.30803 3.22976   6
   4 -10   5 38.5630 5.88225   7
  -4 -10  -5 42.6240 5.56640  12
  -4 -10  -5 50.4841 6.42835   8
   4  10   5 49.4964 6.46235  15
   4  10   5 46.9756 6.16551   6
  -4  10  -5 40.1730 5.75430   2
   7 -11  -5 100.152 8.25687   3
  -7 -11   5 97.8459 8.59364   1
   7  11  -5 102.582 9.62181   2
  -7  11   5 105.230 8.26787   6
   5 -11  -5 159.875 10.1962   3
  -5 -11   5 166.058 10.4640   1
  -5 -11   5 184.615 10.8679   3
  -5  11   5 175.322 9.79447   6
   5  11  -5 181.316 11.7174   2
  -3 -11   5 147.980 9.85086   1
  -3 -11   5 153.804 9.90688   3
   3 -11  -5 136.004 9.66209  13
   3 -11  -5 148.036 10.1219   3
  -3  11   5 151.007 9.58525   6
   3  11  -5 154.719 10.9110   2
  -1 -11   5 136.136 8.57601   7
  -1 -11   5 147.852 9.44307   3
   1 -11  -5 128.945 9.97287  13
   1 -11  -5 150.245 10.3099   3
   1  11  -5 148.337 10.6412   2
  -1  11   5 139.491 9.13496   6
   1 -11   5 124.465 8.55460   3
  -1 -11  -5 119.202 8.42850  12
  -1 -11  -5 106.593 8.39585   8
  -1 -11  -5 112.292 9.00533   3
   1 -11   5 117.427 8.53170   7
  -1  11  -5 124.544 10.1267   2
   1  11   5 136.017 9.34656   6
   3 -11   5 64.5953 7.66214   7
  -3 -11  -5 62.7129 6.34335  12
  -3 -11  -5 73.1214 7.83326   8
  -3  11  -5 59.9640 7.68202   2
   3  11   5 70.7057 7.63713   6
  -6 -12   5 6.00113 4.47517   1
   6 -12  -5 7.14064 3.78947   3
   6  12  -5 6.49889 3.50803   2
  -6  12   5 5.07567 2.66581   6
   4 -12  -5 18.9333 4.79015   3
  -4 -12   5 22.7652 5.06628   3
  -4 -12   5 21.0213 4.38196   1
  -4  12   5 23.9181 5.18112   6
   4  12  -5 14.5448 4.37917   2
  -2 -12   5 68.4568 7.33318   3
  -2 -12   5 63.7670 7.14445   1
   2 -12  -5 65.2515 7.64462   3
  -2  12   5 64.5534 7.25960   6
   2  12  -5 53.5952 7.13949   2
   0 -12  -5 197.646 12.0702   3
   0 -12  -5 198.982 10.9578  12
   0 -12   5 196.794 11.2276   3
   0  12  -5 202.090 12.6865   2
   0  12   5 197.006 11.4262   6
  -2 -12  -5 60.9546 6.85004  12
  -2 -12  -5 59.1590 6.84552   8
  -2  12  -5 56.5253 7.61163   2
   2  12   5 56.9969 6.80431   6
  -3 -13   5 36.5266 6.26682   3
   3 -13  -5 35.8938 6.03077   3
  -3 -13   5 24.4187 4.96968   1
  -3  13   5 28.8138 5.73114   6
   3  13  -5 40.4848 6.92254   2
   1 -13  -5 47.3617 6.07355   3
  -1 -13   5 49.0555 6.00887   3
   1  13  -5 54.3905 7.29848   2
  -1  13   5 52.6123 7.02126   6
  12   0  -6 6.85579 3.75511   4
 -12   0   6 7.59640 5.38389  11
 -12   0   6 6.81388 4.13146   8
 -10   0   6 67.3164 5.44666   5
 -10   0   6 79.0963 9.16140  11
 -10   0   6 77.7691 6.39453   8
 -10   0   6 70.4435 7.03984  16
  10   0  -6 86.5199 6.94758   4
  -8   0   6 580.118 18.6031   1
   8   0  -6 547.105 18.5455  14
   8   0  -6 577.750 19.6898   4
   8   0  -6 530.738 19.0059  12
  -8   0   6 545.658 17.3311   5
  -8   0   6 558.878 19.7043  16
   8   0  -6 553.177 22.6780  10
  -8   0   6 563.247 18.9886   8
  -8   0   6 573.355 22.0791  11
  -6   0   6 8.80255 1.59952   5
   6   0  -6 13.7483 3.43702  10
  -6   0   6 11.5776 2.19090   1
   6   0  -6 11.3143 2.27755  12
  -6   0   6 15.1261 2.37833   8
  -6   0   6 10.8399 2.82148  11
   6   0  -6 9.16710 2.52645   4
  -6   0   6 14.5671 2.54772  16
   6   0  -6 15.7350 2.75805  14
  -4   0   6 17.3204 3.27874  11
   4   0  -6 18.1924 3.13073  10
  -4   0   6 23.5307 2.98162   1
   4   0  -6 20.2797 2.79343   4
   4   0  -6 22.1965 2.13812  12
  -2   0   6 536.590 16.0499   7
   2   0  -6 580.164 18.6322  10
  -2   0   6 537.166 14.7648   6
  -2   0   6 527.685 16.5069   1
  -2   0   6 523.617 16.2724  15
  -2   0   6 506.106 17.3183  11
   0   0   6 176.182 6.57852   6
   0   0   6 172.513 7.50907  15
   0   0   6 168.572 7.65423  11
   0   0   6 176.990 6.91824   7
   0   0  -6 178.585 8.95195  10
   0   0   6 168.363 6.91622   1
   0   0   6 166.620 7.15729   9
   2   0   6 273.059 10.2094   6
  -2   0  -6 281.875 12.2313  16
  -2   0  -6 291.190 8.00300  12
   2   0   6 278.770 11.2361  15
  -2   0  -6 277.017 10.1249   8
   2   0   6 261.653 9.88377   7
   2   0   6 289.314 11.2046   9
   4   0   6 72.5343 6.41752   9
   4   0   6 96.6422 7.01236  15
  -4   0  -6 83.5780 4.72713  12
  -4   0  -6 82.0350 5.76979   5
  -4   0  -6 73.8268 6.85793  16
  -6   0  -6 30.1653 7.23917  16
   6   0   6 48.8107 6.41455   9
   6   0   6 34.9569 5.39467  15
  -6   0  -6 36.5946 5.31101   5
  -6   0  -6 38.2226 4.46577  12
 -11  -1   6 909.902 33.9013  11
  11  -1  -6 895.978 30.5359   4
 -11  -1   6 878.423 29.1013   8
 -11   1   6 868.833 27.6946   5
  11   1  -6 855.828 29.9000   4
 -11   1   6 864.667 29.2620   8
 -11   1   6 898.443 33.3115  11
  -9  -1   6 639.800 22.2514   8
   9  -1  -6 690.849 22.1464  14
  -9  -1   6 674.892 21.6242   1
  -9  -1   6 700.745 25.9312  11
   9  -1  -6 683.926 23.4238   4
  -9   1   6 668.356 21.1720   5
  -9   1   6 639.456 23.6540  16
  -9   1   6 651.736 22.3176   8
   9   1  -6 706.088 23.5539   4
   9   1  -6 634.847 21.3463  14
  -9   1   6 678.008 25.8090  11
  -7  -1   6 1286.63 39.1038  11
  -7  -1   6 1269.95 35.6999   8
   7  -1  -6 1249.01 35.9576  14
   7  -1  -6 1227.41 38.9956  10
  -7  -1   6 1264.58 35.7337   1
  -7  -1   6 1277.98 35.9673  16
  -7  -1   6 1213.56 33.7490   5
   7  -1  -6 1284.83 36.5197   4
   7  -1  -6 1209.23 35.9868  12
  -7   1   6 1249.14 34.5723   5
  -7   1   6 1256.09 35.5226   1
  -7   1   6 1293.46 37.2595  16
  -7   1   6 1307.43 39.2864  11
  -7   1   6 1293.24 35.9812   8
   7   1  -6 1297.05 36.7778   4
   7   1  -6 1228.86 36.0803  12
   7   1  -6 1261.37 35.7643  14
   7   1  -6 1245.04 40.3739  10
   5  -1  -6 2948.54 74.9788  14
  -5  -1   6 2882.59 73.9463   8
  -5  -1   6 2856.30 74.5503   1
  -5  -1   6 2870.94 76.9999  11
   5  -1  -6 2843.44 73.9619  12
  -5  -1   6 2704.70 72.0560   5
   5  -1  -6 2814.42 76.6393  10
   5  -1  -6 2879.89 74.7522   4
  -5   1   6 2848.37 74.2269   8
   5   1  -6 2900.39 74.0827  12
  -5   1   6 2909.26 77.4203  11
  -5   1   6 2961.23 74.7195   1
   5   1  -6 2909.00 78.4074  10
  -5   1   6 2714.84 71.9989   6
  -5   1   6 2841.34 73.1008   5
   5   1  -6 2895.62 74.7708  14
   5   1  -6 2986.47 75.2220   4
   3  -1  -6 1274.58 34.1355   4
  -3  -1   6 1247.87 34.0202   7
   3  -1  -6 1233.64 34.4663  14
   3  -1  -6 1304.65 36.0461  10
  -3  -1   6 1245.54 35.8751  11
  -3  -1   6 1253.89 34.5086   1
   3  -1  -6 1240.08 32.2794  12
   3   1  -6 1293.32 37.2298  10
  -3   1   6 1184.77 32.3458   6
  -3   1   6 1251.81 33.7306  15
   3   1  -6 1290.35 32.5286  12
  -3   1   6 1198.76 36.0043  11
   3   1  -6 1265.11 32.9200   2
  -3   1   6 1244.80 34.5954   1
  -1  -1   6 2225.47 59.8734   7
  -1  -1   6 2286.96 60.1221   9
  -1  -1   6 2215.16 58.5541   6
  -1  -1   6 2241.71 60.1446   1
   1  -1  -6 2463.43 62.3405  10
  -1  -1   6 2279.85 60.5907  15
  -1  -1   6 2093.89 60.4808  11
  -1   1   6 2388.21 60.4317   1
   1   1  -6 2280.38 63.2066  10
  -1   1   6 2350.45 59.6294   7
  -1   1   6 2442.86 62.1274  11
  -1   1   6 2327.79 59.4594   9
  -1   1   6 2394.76 59.2194   6
  -1   1   6 2353.70 60.4712  15
   1  -1   6 2651.45 68.6138  15
   1  -1   6 2712.61 68.5890   9
   1  -1   6 2557.83 66.6499   1
   1  -1   6 2667.83 67.6183   7
  -1  -1  -6 2522.84 68.3023  13
   1   1   6 2436.27 66.8940   1
  -1   1  -6 2889.72 64.3961  12
   1   1   6 2463.71 68.8990  11
   1   1   6 2612.61 67.3759   6
   1   1   6 2588.37 68.6535  15
  -1   1  -6 2729.71 69.3038  16
   1   1   6 2499.21 66.7270   7
   1   1   6 2502.59 67.8899   9
  -1   1  -6 2552.36 64.2183  12
   3  -1   6 666.137 21.8888  15
  -3  -1  -6 678.779 18.7091  12
  -3  -1  -6 636.943 23.7892  16
   3  -1   6 649.215 20.4998   7
   3  -1   6 674.638 22.3340   9
  -3  -1  -6 668.039 20.9873   8
  -3   1  -6 686.602 20.9611   5
   3   1   6 669.244 21.9828   9
  -3   1  -6 686.724 19.0299  12
   3   1   6 685.632 22.2762  15
  -3   1  -6 685.580 23.5349  16
   3   1   6 657.667 21.0635   6
  -5  -1  -6 718.432 23.6548   8
  -5  -1  -6 764.951 24.7795   5
  -5  -1  -6 739.754 22.3847  12
   5  -1   6 759.041 25.1933  15
   5  -1   6 723.890 25.6307   9
  -5  -1  -6 722.576 27.8736  16
  -5   1  -6 745.689 22.6064  12
  -5   1  -6 746.808 24.2437   5
   5   1   6 736.611 25.6436   9
   5   1   6 755.453 25.7651  15
  -5   1  -6 706.114 27.1866  16
   7  -1   6 545.716 22.1979   9
  -7  -1  -6 569.140 21.4609   5
   7  -1   6 596.983 21.9367  15
  -7  -1  -6 549.518 19.5389  12
  -7   1  -6 558.460 21.0056   5
  -7   1  -6 577.680 20.0206  12
   7   1   6 595.574 22.5892  15
   7   1   6 549.009 22.5729   9
 -12  -2   6 426.978 22.1624  11
  12  -2  -6 420.832 18.9783   4
 -12  -2   6 415.594 17.5450   8
  12   2  -6 431.481 18.5001   4
 -12   2   6 407.009 17.7972   8
  10  -2  -6 353.262 16.1449   4
 -10  -2   6 386.256 15.5726   8
  10  -2  -6 353.182 14.4696  14
 -10  -2   6 368.425 18.5923  11
  10   2  -6 369.091 14.8713   9
  10   2  -6 384.508 16.1286   4
 -10   2   6 407.063 18.8592  11
 -10   2   6 373.330 17.2989  16
 -10   2   6 372.069 15.6096   8
 -10   2   6 399.150 14.9594   5
   8  -2  -6 1116.05 32.7000  14
  -8  -2   6 1110.91 32.3364   1
  -8  -2   6 1105.57 35.9677  11
  -8  -2   6 1114.75 32.4457   8
   8  -2  -6 1112.11 33.1736   4
   8  -2  -6 1020.78 32.7251  12
  -8   2   6 1099.14 32.5566   8
   8   2  -6 1130.05 33.4930   4
   8   2  -6 1106.16 31.9736  14
  -8   2   6 1106.50 31.6806   1
   8   2  -6 1071.26 37.9356  10
  -8   2   6 1098.62 35.7540  11
   8   2  -6 1079.23 33.1857  12
  -8   2   6 1113.78 34.6683  16
  -8   2   6 1082.59 31.5576   5
   6  -2  -6 1513.91 40.7714   4
  -6  -2   6 1497.29 39.8303   8
  -6  -2   6 1436.96 40.4201   1
   6  -2  -6 1451.92 40.6074  14
   6  -2  -6 1418.43 42.2736  10
  -6  -2   6 1473.10 43.1278  11
   6  -2  -6 1438.99 40.3107  12
   6   2  -6 1446.77 44.8764  10
  -6   2   6 1441.65 40.1094   8
  -6   2   6 1431.05 39.2576   5
  -6   2   6 1458.85 40.0978   1
  -6   2   6 1451.94 43.0377  11
   6   2  -6 1412.63 40.2081  12
   6   2  -6 1462.28 40.2040  14
  -6   2   6 1456.18 41.7984  16
   6   2  -6 1482.74 41.0288   4
   4  -2  -6 3508.48 88.3290  14
   4  -2  -6 3493.64 86.8789  12
  -4  -2   6 3375.61 89.7607  11
   4  -2  -6 3417.14 87.6616   4
  -4  -2   6 3513.04 87.7207   7
  -4  -2   6 3406.84 86.8354   8
  -4  -2   6 3495.91 88.2462   1
   4   2  -6 3376.51 86.5741   2
   4   2  -6 3485.76 86.9571  12
  -4   2   6 3376.38 90.3997  11
   4   2  -6 3417.74 88.1562   4
   4   2  -6 3404.90 91.8381  10
  -4   2   6 3392.71 88.0345   1
  -4   2   6 3208.50 85.9265   6
  -2  -2   6 3777.53 99.3922   1
   2  -2  -6 3950.38 100.095  10
   2  -2  -6 3872.99 98.6252   4
   2  -2  -6 4027.81 99.3326  14
  -2  -2   6 3597.17 99.9389  11
  -2  -2   6 3940.00 99.3008   7
   2  -2  -6 3907.02 98.1142  12
   2  -2  -6 3997.51 98.2123  12
  -2   2   6 4050.31 99.7846   1
  -2   2   6 3953.69 98.1744   6
   2   2  -6 3852.85 98.7321   2
  -2   2   6 3908.09 98.8985  15
   2   2  -6 3634.98 97.3422  16
  -2   2   6 4181.84 101.978  11
   2   2  -6 3891.64 98.8319  12
  -2   2   6 3959.19 97.6659   9
   2   2  -6 3815.16 102.799  10
   0  -2  -6 688.598 21.5074  10
   0  -2   6 683.924 20.2136   7
   0  -2   6 684.589 20.5912   9
   0  -2   6 661.371 19.7235   1
   0  -2   6 695.610 20.8677  15
   0   2   6 673.643 20.5683  15
   0   2  -6 686.444 17.4869  12
   0   2  -6 684.468 23.5095  10
   0   2  -6 667.812 17.4665  12
   0   2  -6 665.129 18.6725   5
   0   2   6 693.906 19.7584   6
   0   2   6 654.615 20.0745   1
   0   2   6 684.751 19.1531   7
   0   2   6 646.195 19.5438   9
   0   2  -6 657.560 20.0003  16
   0   2   6 661.629 21.7869  11
   2  -2   6 1095.45 31.1821   7
   2  -2   6 1132.73 32.2642  15
  -2  -2  -6 1124.24 28.3920  12
   2  -2   6 1130.68 32.5240   9
  -2  -2  -6 1053.15 31.6983  13
   2   2   6 1094.57 31.2282   6
  -2   2  -6 1090.22 32.5989  16
  -2   2  -6 1106.70 28.9688  12
   2   2   6 1065.80 32.1988  15
  -2   2  -6 1108.94 30.5263   5
   2   2   6 1038.70 31.4955   9
   4  -2   6 1448.54 42.4830  15
  -4  -2  -6 1498.15 39.7274  12
  -4  -2  -6 1458.42 45.9618  16
  -4  -2  -6 1495.86 42.4009   8
   4  -2   6 1460.19 43.2297   9
   4  -2   6 1456.49 41.5006   7
   4   2   6 1494.12 43.4956  15
  -4   2  -6 1479.81 41.5425   5
  -4   2  -6 1441.67 44.4915  16
   4   2   6 1458.18 41.9096   6
  -4   2  -6 1481.36 40.0952  12
   4   2   6 1495.78 43.2055   9
   6  -2   6 558.097 21.5611   9
   6  -2   6 540.530 20.5448  15
  -6  -2  -6 548.797 20.2802   8
  -6  -2  -6 547.169 20.8675   5
  -6  -2  -6 582.019 19.0988  12
  -6   2  -6 573.030 19.1821  12
  -6   2  -6 536.169 19.9063   5
   6   2   6 551.292 21.5379   9
   6   2   6 574.292 22.0571  15
 -11  -3   6 176.284 10.7713   8
  11  -3  -6 206.549 11.5984   4
 -11  -3   6 192.956 14.5345  11
 -11   3   6 175.466 12.7105  11
 -11   3   6 192.771 11.1911   8
  11   3  -6 188.103 11.0781   4
  11   3  -6 172.157 10.2195   9
 -11   3   6 173.921 10.1095   5
  -9  -3   6 59.5913 6.10975   8
  -9  -3   6 61.1255 5.61271   1
   9  -3  -6 56.8070 5.44313  14
  -9  -3   6 48.2104 7.34017  11
   9  -3  -6 43.8004 5.71673   4
  -9   3   6 58.5582 6.02792   8
   9   3  -6 55.7154 6.16478   4
  -9   3   6 46.5146 4.92285   5
  -9   3   6 55.4795 7.26528  11
   9   3  -6 50.5779 4.79096   9
  -9   3   6 49.3552 5.97596  16
  -7  -3   6 224.550 9.39943   8
   7  -3  -6 210.139 9.88443   4
  -7  -3   6 216.616 9.80552   1
  -7  -3   6 219.793 11.7576  11
   7  -3  -6 202.599 9.63158  12
   7  -3  -6 207.455 9.76366  14
  -7   3   6 217.358 11.7328  11
  -7   3   6 202.082 10.9070  16
  -7   3   6 205.478 9.00523   1
   7   3  -6 207.999 10.0639   4
   7   3  -6 200.737 9.71221  12
  -7   3   6 212.724 9.59663   8
   7   3  -6 195.498 8.79659  14
   7   3  -6 210.786 12.8505  10
  -7   3   6 219.351 9.08223   5
   5  -3  -6 998.128 29.7835  10
  -5  -3   6 1018.51 28.3864   8
   5  -3  -6 1025.27 29.1119  12
  -5  -3   6 1042.84 31.6333  11
   5  -3  -6 1008.12 29.6715  14
  -5  -3   6 1044.03 29.7874   1
  -5  -3   6 1041.79 29.1345   7
   5  -3  -6 1013.33 29.0697   4
  -5   3   6 974.544 31.5360  11
  -5   3   6 980.189 27.7100   6
   5   3  -6 1042.57 34.0073  10
   5   3  -6 1025.57 28.2416   2
  -5   3   6 1035.76 28.6982   5
   5   3  -6 1046.75 29.8543   4
  -5   3   6 980.202 29.1527   1
   5   3  -6 1051.08 29.2716  12
  -3  -3   6 493.956 15.8259   7
   3  -3  -6 540.829 16.3555  14
   3  -3  -6 509.093 14.7173  12
   3  -3  -6 511.253 15.3355   4
  -3  -3   6 486.945 16.1157   1
   3  -3  -6 513.339 15.7271  10
  -3  -3   6 470.431 16.7613  11
   3   3  -6 489.387 19.1474  10
  -3   3   6 500.193 14.9418  15
   3   3  -6 494.983 15.4841   2
  -3   3   6 527.662 18.0888  11
  -3   3   6 522.963 16.3325   1
  -3   3   6 507.891 14.9671   6
   3   3  -6 496.379 14.9823  12
   1  -3  -6 398.289 10.7484  12
  -1  -3   6 404.518 13.3960   1
  -1  -3   6 423.905 13.6530   7
   1  -3  -6 410.518 10.9019  12
   1  -3  -6 399.148 13.1071  14
  -1  -3   6 410.019 14.1399  11
   1  -3  -6 418.850 13.5469  10
   1  -3  -6 393.915 12.2621   4
  -1   3   6 386.352 12.0843   9
   1   3  -6 398.982 13.4696   2
   1   3  -6 407.418 16.6214  10
  -1   3   6 416.333 12.9997   6
  -1   3   6 401.974 15.3718  11
   1   3  -6 418.010 11.8890  12
  -1   3   6 401.905 13.3585  15
  -1   3   6 426.615 13.9431   1
  -1  -3  -6 428.891 15.7893  13
  -1  -3  -6 432.695 14.4031   3
   1  -3   6 428.143 15.2257  15
   1  -3   6 428.272 15.4817   9
  -1  -3  -6 455.738 12.1869  12
   1  -3   6 456.833 14.9407   7
  -1   3  -6 447.246 13.4288   5
   1   3   6 459.007 14.8438   6
  -1   3  -6 441.817 18.7390  10
  -1   3  -6 433.859 12.9328  12
   1   3   6 451.559 15.4064  15
   1   3   6 452.209 14.6290   9
  -1   3  -6 441.502 14.9194  16
   1   3   6 449.654 16.7956  11
   3  -3   6 125.685 7.12086   7
   3  -3   6 134.242 8.10348   9
  -3  -3  -6 122.804 7.29219   8
  -3  -3  -6 117.516 5.45569  12
  -3  -3  -6 118.647 7.20175  13
   3  -3   6 129.313 7.59164  15
  -3  -3  -6 121.227 8.81181  16
   3   3   6 116.372 7.24019   9
   3   3   6 114.659 7.01291   6
   3   3   6 121.129 7.70281  15
  -3   3  -6 124.448 6.48781   5
  -3   3  -6 122.041 7.61668  16
  -3   3  -6 122.508 5.90883  12
  -5  -3  -6 208.259 13.2964  16
  -5  -3  -6 209.213 10.9099   8
   5  -3   6 203.443 11.5667   9
   5  -3   6 221.037 10.6049   7
  -5  -3  -6 206.498 9.12326  12
  -5  -3  -6 224.686 11.1034   5
   5   3   6 214.955 10.7474   6
  -5   3  -6 207.885 9.43711  12
   5   3   6 219.417 11.8886  15
   5   3   6 203.775 11.3345   9
  -5   3  -6 214.733 10.0246   5
  -5   3  -6 204.828 12.4939  16
  -7  -3  -6 166.192 10.4902   8
  -7  -3  -6 165.959 10.2358   5
  -7  -3  -6 179.491 9.33136  12
   7  -3   6 170.114 11.5822   9
  -7   3  -6 163.846 10.2542   5
   7   3   6 170.524 11.7217  15
   7   3   6 167.551 11.2744   9
  -7   3  -6 176.957 9.54688  12
 -12  -4   6 479.869 19.6380   8
 -12  -4   6 470.598 23.4958  11
  12  -4  -6 497.957 21.0606   4
 -12   4   6 475.284 18.6452   5
 -10  -4   6 1245.73 42.2827  11
  10  -4  -6 1195.95 37.3690  14
  10  -4  -6 1198.78 38.3249   4
 -10  -4   6 1267.53 37.7049   8
  10   4  -6 1242.31 37.9156   4
  10   4  -6 1251.92 38.0692   9
 -10   4   6 1225.42 37.4029   8
 -10   4   6 1231.21 37.0050   5
 -10   4   6 1237.28 40.4559  11
 -10   4   6 1207.07 40.7974  16
  -8  -4   6 2333.94 63.2058   1
   8  -4  -6 2268.41 62.4472   3
  -8  -4   6 2306.64 66.7522  11
   8  -4  -6 2288.57 63.2480  14
   8  -4  -6 2365.00 63.5827   4
   8  -4  -6 2277.87 63.6915  12
  -8  -4   6 2398.08 62.7891   8
  -8   4   6 2330.67 66.2581  11
   8   4  -6 2294.94 63.5878   4
  -8   4   6 2347.70 61.9819   1
  -8   4   6 2313.78 62.4076   5
  -8   4   6 2239.81 66.0346  16
  -6  -4   6 1815.62 51.9172  11
   6  -4  -6 1793.79 48.9497   4
  -6  -4   6 1855.62 49.8304   1
   6  -4  -6 1814.89 49.6386  12
   6  -4  -6 1817.23 49.7744  14
  -6  -4   6 1818.27 48.3543   8
   6   4  -6 1827.58 49.9255   4
   6   4  -6 1881.95 49.9457  12
   6   4  -6 1774.32 55.0327  10
  -6   4   6 1786.24 48.7444   5
   6   4  -6 1771.09 48.1151   2
  -6   4   6 1739.16 51.7399  11
  -6   4   6 1767.66 48.8706   1
  -6   4   6 1735.45 47.7479   6
  -4  -4   6 1856.82 52.4626  11
  -4  -4   6 1810.15 48.9991   8
   4  -4  -6 1985.45 51.2788  14
   4  -4  -6 1994.21 50.5266  12
  -4  -4   6 1898.42 50.4955   7
   4  -4  -6 1889.72 49.8740   4
  -4  -4   6 1850.48 51.1505   1
  -4   4   6 1937.05 53.2563  11
  -4   4   6 1932.15 49.7751   6
   4   4  -6 1796.86 55.2375  10
  -4   4   6 1955.32 51.1798   1
   4   4  -6 1823.46 50.3703   2
   4   4  -6 1894.79 50.4723  12
  -2  -4   6 3092.00 79.9822   1
  -2  -4   6 2886.77 79.6143  11
   2  -4  -6 3081.74 79.5671  14
  -2  -4   6 3226.88 79.9766   7
   2  -4  -6 3178.50 78.2858  12
   2  -4  -6 3009.35 78.1154   4
   2   4  -6 3148.49 78.7043  12
  -2   4   6 3027.75 78.7831  15
  -2   4   6 3071.65 82.4042  11
  -2   4   6 3048.08 79.0040   6
   2   4  -6 3135.73 79.9441   2
   2   4  -6 3123.40 84.4709  10
  -2   4   6 3062.66 80.1914   1
   0  -4   6 3015.88 77.2375   7
   0  -4  -6 3036.06 74.6777  12
   0  -4  -6 2905.20 75.6255  14
   0  -4   6 2842.41 76.2322   1
   0  -4  -6 2941.51 79.0189  13
   0  -4  -6 3063.57 77.4452   3
   0   4  -6 2995.86 75.3882  12
   0   4   6 2974.83 77.1027  15
   0   4   6 2977.30 76.7181   6
   0   4  -6 2916.62 81.7504  10
   0   4  -6 2956.17 77.4729   2
   0   4   6 2963.59 79.8349  11
   0   4   6 2872.39 75.6432   9
  -2  -4  -6 2160.90 56.7675  12
   2  -4   6 2223.49 60.5288   9
   2  -4   6 2246.54 59.8005  15
   2  -4   6 2181.92 59.5405   7
  -2  -4  -6 2163.04 60.5702  13
   2   4   6 2225.11 59.2819   6
  -2   4  -6 2223.08 57.6693  12
   2   4   6 2186.68 59.0979   9
   2   4   6 2229.55 60.2658  15
  -4  -4  -6 1211.61 41.5766  16
  -4  -4  -6 1252.70 37.9187   8
   4  -4   6 1278.23 37.3202   7
  -4  -4  -6 1273.42 35.2007  12
   4  -4   6 1245.52 38.5510   9
   4  -4   6 1211.74 36.7632  15
   4   4   6 1277.84 38.6702  15
  -4   4  -6 1275.59 35.6820  12
  -4   4  -6 1281.78 35.9953   5
   4   4   6 1240.97 36.9446   6
   4   4   6 1234.63 37.7405   9
  -6  -4  -6 488.078 19.6408   5
   6  -4   6 479.179 18.6848   7
  -6  -4  -6 494.343 19.3289   8
   6  -4   6 516.881 20.8600   9
   6   4   6 498.844 20.3582   9
  -6   4  -6 475.169 17.9127  12
  -6   4  -6 481.887 18.3928   5
   6   4   6 519.460 20.9001  15
 -11  -5   6 519.354 20.0984   8
 -11  -5   6 534.923 24.8540  11
 -11   5   6 497.773 19.5350   5
  11   5  -6 502.939 20.5103   9
  -9  -5   6 941.033 33.3965  11
  -9  -5   6 939.389 29.2441   1
   9  -5  -6 900.870 29.5539   4
   9  -5  -6 909.162 29.4091  14
  -9  -5   6 915.974 28.6799   8
  -9   5   6 901.566 32.3059  16
  -9   5   6 905.401 28.4772   5
   9   5  -6 923.995 29.8677   9
  -9   5   6 864.317 30.9639  11
   9   5  -6 890.060 29.1033   4
   7  -5  -6 1008.61 32.1163  12
  -7  -5   6 1111.48 32.5117   1
   7  -5  -6 1030.11 31.7556   3
  -7  -5   6 1085.19 31.0822   8
   7  -5  -6 1030.75 32.0092  14
   7  -5  -6 1034.44 31.3968   4
   7   5  -6 1031.01 32.3003  12
  -7   5   6 1074.61 31.5915   5
  -7   5   6 1085.91 31.3189   1
  -7   5   6 1028.84 33.9898  11
  -7   5   6 1088.48 35.1443  16
   7   5  -6 1087.44 31.1297   2
   7   5  -6 1116.11 32.5985   4
  -5  -5   6 1108.39 30.9737   8
   5  -5  -6 1113.74 31.6428   4
   5  -5  -6 1132.74 32.7093  12
   5  -5  -6 1151.34 33.4678   3
  -5  -5   6 1112.09 34.4108  11
  -5  -5   6 1073.79 32.8625   1
  -5  -5   6 1109.72 31.9771   7
   5  -5  -6 1146.29 33.0338  14
   5   5  -6 1140.40 33.1361   4
   5   5  -6 1106.26 37.9438  10
   5   5  -6 1045.94 31.9865   2
  -5   5   6 1176.25 32.4005   5
   5   5  -6 1076.49 32.6149  12
  -5   5   6 1182.40 35.2257  11
  -5   5   6 1186.92 32.8398   1
  -5   5   6 1203.19 31.8916   6
  -3  -5   6 1215.75 33.9485   1
  -3  -5   6 1160.76 34.1055  11
   3  -5  -6 1139.11 32.6869  12
   3  -5  -6 1194.45 33.5404  14
   3  -5  -6 1178.57 34.4591   3
  -3  -5   6 1224.69 33.4674   7
   3   5  -6 1203.88 33.1328  12
  -3   5   6 1164.57 33.8996   1
  -3   5   6 1152.72 32.7611   6
   3   5  -6 1221.50 38.4697  10
  -3   5   6 1173.08 36.1932  11
   3   5  -6 1212.52 33.9346   2
   1  -5  -6 1636.86 46.5828  13
   1  -5  -6 1562.05 44.5297   3
   1  -5  -6 1595.96 43.1909  14
  -1  -5   6 1590.26 43.9264   1
   1  -5  -6 1601.22 42.6855  12
  -1  -5   6 1631.48 44.2392   7
  -1   5   6 1634.49 47.1536  11
   1   5  -6 1666.95 44.8553   2
  -1   5   6 1587.44 43.4533  15
   1   5  -6 1655.23 43.2719  12
  -1   5   6 1631.54 43.8721   6
   1   5  -6 1593.88 48.8309  10
   1  -5   6 1659.09 45.5702   7
  -1  -5  -6 1634.65 47.2014  13
  -1  -5  -6 1658.52 43.2955  12
  -1  -5  -6 1628.95 44.7841   3
  -1   5  -6 1654.18 46.0255   2
  -1   5  -6 1551.51 49.9507  10
   1   5   6 1636.45 45.1112   6
  -1   5  -6 1645.50 43.9247  12
   1   5   6 1587.34 44.0651   9
   1   5   6 1688.81 45.7109  15
  -3  -5  -6 812.756 23.9992  12
   3  -5   6 806.851 26.0561   7
  -3  -5  -6 788.773 26.7033  13
  -3  -5  -6 769.806 26.4829   8
   3  -5   6 833.810 27.2656   9
  -3   5  -6 813.079 24.5614  12
   3   5   6 819.453 25.7927   6
  -3   5  -6 795.767 26.6418   2
   3   5   6 855.964 27.1289  15
   3   5   6 797.098 25.6155   9
  -5  -5  -6 396.463 17.1917   8
  -5  -5  -6 397.231 15.1716  12
   5  -5   6 393.464 17.5264   9
   5  -5   6 409.524 16.5432   7
   5   5   6 410.192 17.9016  15
  -5   5  -6 414.005 15.7369  12
   5   5   6 410.214 16.8860   6
   5   5   6 414.833 17.2454   9
 -10  -6   6 27.5584 4.92119   1
 -10  -6   6 32.5555 7.05039  11
 -10  -6   6 38.7200 5.39771   8
 -10   6   6 27.1509 4.45364   5
  10   6  -6 25.0722 5.14433   9
  -8  -6   6 27.2398 4.91821   1
  -8  -6   6 14.8173 3.34475   8
   8  -6  -6 17.4203 3.33448   4
  -8  -6   6 15.6736 4.05099  13
   8  -6  -6 21.2263 3.82020   3
   8  -6  -6 17.3324 3.96989  14
  -8   6   6 23.2043 4.80998  16
  -8   6   6 22.4734 4.86690  11
   8   6  -6 14.9667 3.36948   2
  -8   6   6 14.7015 3.64903   5
   8   6  -6 16.4311 3.69576   4
   6  -6  -6 216.697 9.44797   4
   6  -6  -6 221.259 10.4221   3
   6  -6  -6 214.245 10.3930  12
  -6  -6   6 226.908 11.0715  13
   6  -6  -6 220.718 10.5548  14
  -6  -6   6 212.828 9.11119   8
  -6  -6   6 224.870 10.5927   1
  -6   6   6 249.217 10.6666   5
   6   6  -6 209.606 10.3888  12
   6   6  -6 203.383 15.5119  10
  -6   6   6 255.716 10.0482   6
   6   6  -6 211.999 10.2976   4
   6   6  -6 221.057 10.2772   2
  -6   6   6 242.788 12.2577  11
  -4  -6   6 356.835 14.2530  11
  -4  -6   6 376.722 13.0251   7
  -4  -6   6 376.437 13.9368   1
  -4  -6   6 368.496 13.8986  13
   4  -6  -6 339.860 13.3171  14
   4  -6  -6 367.126 14.0967   3
   4  -6  -6 358.817 13.3182  12
   4   6  -6 361.368 13.5104  12
  -4   6   6 350.894 15.4285  11
   4   6  -6 360.950 17.4371  10
  -4   6   6 331.817 12.5972   6
   4   6  -6 371.905 13.9052   2
  -2  -6   6 187.089 8.70843   1
   2  -6  -6 178.959 8.01167  14
   2  -6  -6 192.092 10.0452  13
  -2  -6   6 188.706 8.34785   7
   2  -6  -6 184.686 9.01285   3
   2  -6  -6 182.137 7.97143  12
  -2   6   6 187.553 10.6350  11
  -2   6   6 178.686 8.18464   6
   2   6  -6 183.799 11.4391  10
  -2   6   6 186.981 7.34724  15
   2   6  -6 186.229 9.11704   2
   2   6  -6 192.432 8.30758  12
   0  -6  -6 77.7881 6.88798  13
   0  -6   6 80.0633 5.17647   1
   0  -6  -6 78.9502 5.90139   3
   0  -6  -6 76.0713 4.70082  12
   0  -6   6 83.1015 5.90163   7
   0   6  -6 80.2594 5.10080  12
   0   6  -6 81.6489 7.75042  10
   0   6  -6 73.4771 6.27544   2
   0   6   6 75.8791 7.13902  11
   0   6   6 82.7530 5.65090   6
   0   6   6 96.2129 5.70485  15
  -2  -6  -6 29.4429 3.39319  12
  -2  -6  -6 28.7166 4.66779  13
   2  -6   6 33.7103 4.74092   7
   2   6   6 29.9093 4.22997   6
  -2   6  -6 30.8612 3.77059  12
  -2   6  -6 21.0821 4.43104   2
   2   6   6 29.1012 3.63350   9
   2   6   6 41.5365 4.85058  15
  -4  -6  -6 113.785 10.3637  16
  -4  -6  -6 137.299 9.38802   8
   4  -6   6 128.840 9.28545   9
  -4  -6  -6 122.752 7.13369  12
  -4  -6  -6 107.239 8.02740  13
   4  -6   6 106.753 8.11098   7
  -4   6  -6 109.367 7.23316  12
  -4   6  -6 122.051 8.45133   2
   4   6   6 124.163 8.56123   6
   4   6   6 121.394 8.93220  15
   4   6   6 105.643 7.41849   9
  -6  -6  -6 166.635 11.2057   8
  -6  -6  -6 152.702 9.86569   5
   6  -6   6 163.799 10.6010   9
   6  -6   6 156.740 10.2116   7
  -6  -6  -6 157.917 8.93225  12
   6   6   6 156.194 10.5870   9
   6   6   6 140.270 9.42358   6
  -6   6  -6 167.904 9.69092  12
  -6   6  -6 163.945 10.9660   2
   6   6   6 170.848 11.4313  15
 -11  -7   6 347.543 15.2239   8
  11  -7  -6 294.520 15.0432   4
  11   7  -6 306.014 15.7918   9
  -9  -7   6 510.581 18.4051   8
  -9  -7   6 535.559 20.0044   1
   9  -7  -6 401.697 20.4333  14
   9  -7  -6 486.629 19.0032   4
   9   7  -6 495.128 18.7636   2
  -9   7   6 495.266 18.0003   6
  -9   7   6 506.153 19.1869   5
  -7  -7   6 924.495 29.4091   1
   7  -7  -6 878.929 29.1620  12
  -7  -7   6 886.985 29.7700  13
   7  -7  -6 900.058 29.2126  14
   7  -7  -6 898.697 28.9685   3
   7   7  -6 837.365 28.2577   4
  -7   7   6 926.142 27.8797   6
  -7   7   6 953.716 28.8115   5
  -7   7   6 959.787 31.1018  11
   7   7  -6 889.366 28.6262   2
   5  -7  -6 1318.87 38.9979  12
  -5  -7   6 1364.74 39.8397  13
   5  -7  -6 1351.05 38.8639  14
   5  -7  -6 1369.72 39.7441   3
  -5  -7   6 1378.71 39.5213   1
  -5  -7   6 1348.88 37.5913   7
  -5   7   6 1300.33 40.8507  11
   5   7  -6 1290.21 38.5168   4
  -5   7   6 1311.20 37.9159   6
   5   7  -6 1287.35 39.0677  12
   5   7  -6 1384.47 39.2043   2
   3  -7  -6 1935.50 53.9871   3
   3  -7  -6 1899.69 52.3071  14
   3  -7  -6 1942.72 52.7768  12
  -3  -7   6 1944.96 53.3809   1
  -3  -7   6 2033.84 52.6034   7
   3  -7  -6 1934.11 55.3473  13
   3   7  -6 1831.71 58.1498  10
  -3   7   6 1917.98 52.3669   6
   3   7  -6 1977.37 53.8967   2
   3   7  -6 1886.62 52.7740  12
  -3   7   6 1909.16 55.8532  11
   1  -7  -6 943.563 28.6894   3
   1  -7  -6 899.959 30.1135  13
  -1  -7   6 947.486 27.8217   7
  -1  -7   6 894.227 27.4068   1
   1  -7  -6 916.883 27.1265  12
   1   7  -6 933.603 28.8247   2
  -1   7   6 889.671 26.3181  15
   1   7  -6 870.185 32.2170  10
  -1   7   6 915.073 27.6243   6
   1   7  -6 896.582 27.3505  12
  -1   7   6 934.237 30.9918  11
  -1  -7  -6 587.456 19.8806   3
   1  -7   6 590.209 20.2528   7
  -1  -7  -6 581.126 22.1227  13
  -1  -7  -6 602.419 19.1757  12
  -1   7  -6 578.439 19.5522  12
  -1   7  -6 565.467 20.9977   2
   1   7   6 606.495 20.1890   6
   1   7   6 586.455 19.9777  15
  -3  -7  -6 955.722 32.5070  13
   3  -7   6 923.267 30.7456   7
  -3  -7  -6 995.858 29.4091  12
  -3  -7  -6 975.358 31.8904   8
  -3   7  -6 962.701 31.7354   2
   3   7   6 980.653 30.5909   6
  -3   7  -6 952.398 29.8925  12
   3   7   6 971.867 31.4074  15
  -5  -7  -6 621.369 23.8243   8
   5  -7   6 610.213 23.1053   7
  -5  -7  -6 597.716 21.1038  12
  -5   7  -6 625.159 23.9085   2
   5   7   6 656.306 24.2811  15
   5   7   6 604.097 22.2970   6
  -5   7  -6 609.425 21.9981  12
 -10  -8   6 307.346 15.2038   1
 -10   8   6 319.383 14.9180   5
  10   8  -6 323.185 16.3717   9
 -10   8   6 315.628 13.7061   6
   8  -8  -6 249.522 12.9608  14
  -8  -8   6 262.375 13.9116  13
  -8  -8   6 278.844 13.9894   1
   8  -8  -6 259.404 12.4054   3
   8   8  -6 283.130 13.0515   2
  -8   8   6 316.162 12.9412   6
  -8   8   6 281.250 13.3372   5
  -6  -8   6 498.070 18.9665   1
   6  -8  -6 463.299 18.2447  12
   6  -8  -6 479.387 18.6493   3
   6  -8  -6 496.505 18.4354  14
   6  -8  -6 470.699 18.7419  13
  -6  -8   6 482.569 18.9839  13
   6   8  -6 517.527 18.9712   2
   6   8  -6 487.960 17.7426   4
  -6   8   6 463.773 19.5934  11
  -6   8   6 494.191 17.6258   6
  -4  -8   6 298.172 12.8589  13
   4  -8  -6 274.119 11.7844  14
   4  -8  -6 291.653 13.1615   3
   4  -8  -6 271.317 12.1932  12
  -4  -8   6 294.358 11.6009   7
   4  -8  -6 280.890 13.5024  13
  -4  -8   6 281.051 12.8440   1
   4   8  -6 275.012 12.3673  12
   4   8  -6 284.787 13.0516   2
  -4   8   6 282.662 11.9312   6
  -4   8   6 280.886 14.2354  11
   2  -8  -6 241.349 10.1299  14
  -2  -8   6 253.879 11.4001   1
   2  -8  -6 237.951 12.7512  13
   2  -8  -6 231.657 11.7331   3
  -2  -8   6 268.486 11.2168   7
   2  -8  -6 245.255 10.9223  12
   2   8  -6 251.480 12.3127   2
   2   8  -6 267.058 11.4292  12
  -2   8   6 249.561 10.8263   6
  -2   8   6 253.214 13.5476  11
   0  -8  -6 772.274 25.1507   3
   0  -8  -6 709.323 26.5448  13
   0  -8   6 753.659 24.5804   7
   0  -8  -6 757.095 24.0627  12
   0   8  -6 764.164 25.6620   2
   0   8   6 789.379 24.6299   6
   0   8   6 770.339 23.7577  15
   0   8  -6 752.311 24.3496  12
  -2  -8  -6 381.668 17.2565  13
   2  -8   6 371.001 15.6349   7
  -2  -8  -6 369.580 14.3203  12
   2   8   6 350.515 14.9736  15
  -2   8  -6 358.151 14.7726  12
   2   8   6 364.068 15.0667   6
  -2   8  -6 350.172 15.9037   2
   4  -8   6 153.123 10.0665   7
  -4  -8  -6 163.698 9.16994  12
  -4  -8  -6 151.108 10.2351   8
   4   8   6 159.427 10.1128  15
  -4   8  -6 151.224 10.5913   2
   4   8   6 150.150 9.50580   6
  -4   8  -6 150.856 9.34218  12
  -9  -9   6 295.177 15.0000   1
  -9   9   6 286.263 14.0428   5
  -9   9   6 273.580 12.6962   6
   9   9  -6 270.220 13.5654   2
   7  -9  -6 122.353 8.73164  14
  -7  -9   6 112.018 8.96529  13
   7  -9  -6 122.437 8.29394   3
  -7  -9   6 112.567 8.56909   1
   7   9  -6 110.289 8.96130   2
  -7   9   6 129.156 8.36749   6
   5  -9  -6 19.8484 3.91843  12
   5  -9  -6 6.50844 3.01758  14
  -5  -9   6 7.81948 2.62617  13
   5  -9  -6 12.6532 3.55551  13
  -5  -9   6 7.44377 3.46099   1
   5  -9  -6 10.9888 3.83713   3
  -5   9   6 8.41414 2.61820   6
   5   9  -6 4.98779 3.60069   2
  -5   9   6 6.26937 3.76886  11
  -3  -9   6 102.698 7.00345  13
  -3  -9   6 100.629 6.77644   7
  -3  -9   6 100.551 7.63710   1
   3  -9  -6 103.916 8.38834  13
   3  -9  -6 98.3440 8.07971   3
   3  -9  -6 94.1560 6.48944  14
   3  -9  -6 95.2145 7.01344  12
  -3  -9   6 98.5403 7.42895   3
   3   9  -6 109.951 8.61145   2
  -3   9   6 96.5984 7.05121   6
   3   9  -6 96.0503 7.24232  12
  -3   9   6 100.234 8.80701  11
  -1  -9   6 151.221 8.57977   1
   1  -9  -6 151.816 9.46808   3
  -1  -9   6 129.207 8.39947   3
  -1  -9   6 150.784 8.38857   7
   1  -9  -6 148.596 8.49154  12
   1  -9  -6 158.397 10.1202  13
   1   9  -6 143.661 9.84698   2
  -1   9   6 138.631 8.57246   6
   1   9  -6 131.026 8.45439  12
   1  -9   6 108.776 8.03365   7
  -1  -9  -6 105.826 7.24981  12
  -1  -9  -6 114.478 9.60614  13
  -1  -9  -6 102.080 7.72929   3
   1   9   6 109.739 8.11368   6
  -1   9  -6 113.745 7.66463  12
  -1   9  -6 108.444 8.84510   2
   1   9   6 106.728 7.15251  15
  -3  -9  -6 153.386 10.4755   8
  -3  -9  -6 153.086 9.02719  12
   3  -9   6 165.580 10.4840   7
   3   9   6 154.376 9.81322  15
   3   9   6 151.901 10.1328   6
  -3   9  -6 136.363 8.97503  12
  -3   9  -6 149.080 10.0661   2
  -8 -10   6 459.461 19.3375   1
   8  10  -6 408.564 18.3263   2
  -8  10   6 400.822 16.8663   6
   6 -10  -6 1118.80 35.4938   3
  -6 -10   6 1082.62 35.3851   1
   6  10  -6 1072.28 35.3488   2
  -6  10   6 1119.54 34.5224   6
   4 -10  -6 1123.53 35.1769  12
  -4 -10   6 1140.24 35.5538   1
   4 -10  -6 1080.11 33.6687  14
  -4 -10   6 1105.81 34.9759  13
   4 -10  -6 1111.63 35.6632   3
   4  10  -6 1127.06 35.8407   2
  -4  10   6 1088.91 36.8718  11
  -4  10   6 1123.15 34.4084   6
   2 -10  -6 805.150 27.1924   3
  -2 -10   6 772.023 26.3069   3
   2 -10  -6 808.615 26.4768  12
   2 -10  -6 774.970 28.2368  13
  -2 -10   6 757.350 25.9208   1
  -2  10   6 765.638 25.5995   6
   2  10  -6 747.172 26.0177  12
   2  10  -6 781.160 27.5989   2
   0 -10  -6 1146.79 35.5215   3
   0 -10   6 1133.78 34.8244   7
   0 -10  -6 1142.56 34.7013  12
   0 -10  -6 1106.99 37.6915  13
   0  10  -6 1066.88 34.8111  12
   0  10  -6 1090.94 36.0792   2
   0  10   6 1133.74 34.8559   6
   2 -10   6 624.995 22.6818   7
  -2 -10  -6 637.144 23.8823   8
  -2 -10  -6 610.856 22.0912  12
  -2  10  -6 619.072 24.0059   2
   2  10   6 645.327 22.8584   6
  -2  10  -6 570.897 22.0911  12
  -7 -11   6 294.064 15.3742   1
   7 -11  -6 267.933 13.9470   3
  -7  11   6 273.631 13.6065   6
   5 -11  -6 378.380 17.3101   3
  -5 -11   6 394.770 17.5031   1
  -5  11   6 377.142 16.1608   6
   5  11  -6 360.837 16.8851   2
   3 -11  -6 750.790 26.3699  12
   3 -11  -6 753.928 27.3365   3
  -3 -11   6 744.413 26.5145   1
   3  11  -6 747.571 27.2574   2
  -3  11   6 769.021 25.9673   6
   1 -11  -6 260.538 14.0236   3
   1 -11  -6 277.269 13.3427  12
  -1 -11   6 283.263 13.0621   7
  -1  11   6 291.447 13.7668   6
   1  11  -6 279.638 14.8589   2
   1 -11   6 93.7714 8.26320   7
  -1 -11  -6 87.1493 7.32261   3
  -1 -11  -6 84.9762 7.38130   8
  -1 -11  -6 83.8329 7.22321  12
  -1  11  -6 94.5118 9.55648   2
   1  11   6 84.6140 7.38236   6
   6 -12  -6 220.474 14.5250   3
   4 -12  -6 157.894 10.4486   3
  -4 -12   6 154.867 10.6867   1
  -4  12   6 145.451 9.26007   6
   4  12  -6 152.097 11.4548   2
   2 -12  -6 50.9564 7.20608   3
   2 -12  -6 53.5192 6.19513  12
  -2 -12   6 48.4517 6.14860   1
   2  12  -6 57.3813 7.72166   2
  -2  12   6 59.9411 6.42072   6
   0 -12  -6 206.361 12.5368   3
   0 -12   6 216.520 11.7499   7
   0 -12  -6 208.249 11.6500  12
   0  12  -6 205.926 13.1910   2
   0  12   6 225.591 12.3649   6
 -12   0   7 1.40445 4.94356  11
  12   0  -7 3.74096 2.55813   4
 -12   0   7 -0.7191 3.62688   8
 -10   0   7 0.09012 2.84674   8
 -10   0   7 0.72318 4.27580  11
  10   0  -7 1.19983 1.99952  14
  10   0  -7 0.73358 2.98353   4
   8   0  -7 2.86035 2.77160   4
   8   0  -7 6.86174 2.90942  10
  -8   0   7 4.07943 2.51162   8
  -8   0   7 0.92362 1.56060   1
   8   0  -7 -1.5683 1.26208  14
  -8   0   7 -0.1572 2.32040  11
   8   0  -7 2.63430 1.72699  12
  -8   0   7 7.38894 3.05528  16
  -8   0   7 4.66605 1.63923   5
  -6   0   7 2.68296 1.81563   8
  -6   0   7 5.65115 1.39494   5
  -6   0   7 2.01426 2.41425  11
   6   0  -7 -0.4662 1.08248  14
   6   0  -7 1.03470 1.51811   4
   6   0  -7 -0.0666 1.33793  12
   6   0  -7 2.74147 1.98153  10
  -6   0   7 -1.9316 1.67485   1
   4   0  -7 1.26917 1.51297  10
  -4   0   7 1.52162 1.71223   1
   4   0  -7 -0.2898 1.53033   4
  -4   0   7 -0.5870 1.25960  11
   4   0  -7 3.13457 1.10111  12
  -2   0   7 6.13574 1.95244   1
  -2   0   7 1.71675 1.51295  15
  -2   0   7 0.33060 1.32880   7
   2   0  -7 -0.3277 1.62198  10
  -2   0   7 0.25481 0.65547   6
  -2   0   7 -0.1817 1.35720  11
   0   0   7 0.01134 1.13078   1
   0   0   7 0.08665 1.30855   9
   0   0   7 2.35916 1.26823   6
   0   0  -7 0.64444 1.40851  10
   0   0   7 2.55443 1.58072   7
   0   0   7 0.14302 1.55792  15
   0   0   7 11.3058 2.54678  11
  -2   0  -7 14.0570 2.45589   8
   2   0   7 3.04554 1.66079   7
   2   0   7 -0.0352 1.56167   6
  -2   0  -7 1.98482 0.77292  12
   2   0   7 0.88585 2.10701  15
   2   0   7 -1.9356 1.61241   9
  -2   0  -7 1.35559 2.30539  16
  -4   0  -7 3.55019 3.13537  16
   4   0   7 4.23198 2.97825   9
  -4   0  -7 -1.1110 1.67202   5
   4   0   7 0.12557 1.79466  15
  -4   0  -7 2.34725 1.61601  12
   6   0   7 -1.7326 2.75358   9
   6   0   7 3.04636 3.55751  15
  -6   0  -7 2.95268 3.15294   5
  -6   0  -7 1.25821 2.39500  12
  11  -1  -7 110.029 8.40858   4
 -11  -1   7 104.792 11.2116  11
 -11  -1   7 106.186 8.47056   8
 -11   1   7 95.4916 10.7520  11
  11   1  -7 119.283 8.57083   4
 -11   1   7 101.960 8.64712   8
   9  -1  -7 -1.1838 2.74698   4
  -9  -1   7 0.56912 2.43438   8
  -9  -1   7 -0.4061 3.62078  11
  -9  -1   7 -1.3450 2.20474   1
   9  -1  -7 -0.0524 2.09018  14
   9  -1  -7 2.93572 2.38094  12
   9   1  -7 0.55767 2.09257   4
  -9   1   7 1.06311 1.30325   5
  -9   1   7 -0.0671 2.11280   1
  -9   1   7 -0.0125 2.09829  16
  -9   1   7 2.13398 3.85426  11
  -9   1   7 7.11567 2.99664   8
   9   1  -7 2.38364 2.05136  14
   7  -1  -7 24.9961 3.53195  14
  -7  -1   7 26.3373 3.87154   1
   7  -1  -7 23.2878 3.63535   4
  -7  -1   7 28.3676 5.14590  11
   7  -1  -7 20.5800 4.07469  10
   7  -1  -7 26.2401 3.62055  12
  -7  -1   7 24.8441 3.53602   8
  -7   1   7 25.7606 5.03269  11
  -7   1   7 25.7526 3.41351   8
  -7   1   7 22.5348 3.56573   1
   7   1  -7 23.8247 3.26342  14
   7   1  -7 27.4744 3.69083  12
   7   1  -7 25.1427 4.14601   4
   7   1  -7 19.3703 4.29844  10
  -7   1   7 29.5468 3.92859  16
  -7   1   7 22.3427 2.78733   5
   5  -1  -7 258.199 10.5269  14
  -5  -1   7 269.094 10.7688   1
   5  -1  -7 267.377 12.1245  10
  -5  -1   7 269.890 12.4002  11
   5  -1  -7 251.952 9.62773  12
   5  -1  -7 267.536 10.6528   4
   5   1  -7 264.904 10.9026   4
  -5   1   7 274.628 10.8896   1
   5   1  -7 269.659 9.79951  12
   5   1  -7 270.216 13.0826  10
  -5   1   7 257.191 12.5042  11
   3  -1  -7 394.176 13.0545   4
   3  -1  -7 376.871 14.4979  10
   3  -1  -7 373.490 10.8256  12
  -3  -1   7 389.536 13.0395   7
  -3  -1   7 366.918 13.3339   1
   3  -1  -7 390.528 13.5240  14
  -3  -1   7 376.395 14.4370  11
   3   1  -7 390.465 11.9072   2
  -3   1   7 378.662 13.4410   1
  -3   1   7 365.733 11.2412   6
   3   1  -7 390.468 11.1676  12
  -3   1   7 390.681 12.8379  15
  -3   1   7 366.289 14.7101  11
   3   1  -7 400.328 15.8024  10
  -1  -1   7 231.173 9.24111   9
  -1  -1   7 214.736 9.49650  11
  -1  -1   7 227.939 9.08838   7
  -1  -1   7 208.398 8.96908   1
   1  -1  -7 247.088 10.9769  10
  -1  -1   7 229.976 9.62446  15
  -1  -1   7 218.497 7.70816   6
  -1   1   7 281.539 10.0584  15
  -1   1   7 231.198 8.65874   9
   1   1  -7 234.826 11.5277  10
  -1   1   7 239.506 8.34359   6
  -1   1   7 226.789 8.67634   7
  -1   1   7 235.254 9.24707   1
  -1   1   7 232.618 10.3046  11
   1  -1   7 18.9497 3.14218   9
   1  -1   7 9.53931 2.71962  15
   1  -1   7 11.0708 2.16076   7
  -1  -1  -7 15.1086 2.73344  13
  -1   1  -7 10.7628 2.08031   5
   1   1   7 3.99104 1.55492   1
  -1   1  -7 5.91425 3.04328  10
   1   1   7 4.31590 1.84661  15
  -1   1  -7 5.83109 0.73297  12
   1   1   7 4.33725 1.62099   7
   1   1   7 5.79337 1.82470   9
   1   1   7 3.18716 2.01559  11
  -1   1  -7 5.71921 1.86080  16
  -3  -1  -7 9.95282 3.54360  16
  -3  -1  -7 10.9184 3.10143   5
  -3  -1  -7 9.13742 2.78909   8
   3  -1   7 9.43738 2.73437   9
   3  -1   7 11.4010 2.90654  15
   3  -1   7 13.2705 2.99410   7
  -3  -1  -7 10.7911 1.70801  12
  -3   1  -7 13.3416 3.67742  16
   3   1   7 11.0718 2.69185   9
   3   1   7 11.8720 2.60457   6
  -3   1  -7 8.46667 2.70863   5
   3   1   7 14.0136 3.53193  15
  -5  -1  -7 132.743 7.04194  12
  -5  -1  -7 141.931 9.18538   5
   5  -1   7 143.152 9.42717  15
   5  -1   7 137.743 9.59943   9
  -5   1  -7 142.158 7.51685  12
   5   1   7 148.701 9.85785   9
  -5   1  -7 136.373 8.78429   5
  -5   1  -7 139.913 10.7950  16
   5   1   7 139.377 9.77189  15
  12  -2  -7 196.725 12.2198   4
 -12  -2   7 180.484 13.8206  11
 -12  -2   7 190.296 10.9984   8
 -12   2   7 204.038 12.0731   8
  12   2  -7 192.112 11.8462   4
  10  -2  -7 169.732 9.55625  14
  10  -2  -7 171.887 10.7555   4
 -10  -2   7 183.646 10.2664   8
 -10  -2   7 168.474 12.3461  11
 -10   2   7 191.952 10.2589   8
 -10   2   7 172.072 11.1644  16
  10   2  -7 179.917 10.8304   4
 -10   2   7 179.945 9.20681   5
 -10   2   7 173.695 12.8033  11
  -8  -2   7 355.393 14.1180   1
   8  -2  -7 359.469 14.3265  14
   8  -2  -7 359.001 14.7050   4
  -8  -2   7 380.613 14.0892   8
   8  -2  -7 343.145 14.2029  12
  -8  -2   7 368.890 16.8876  11
   8  -2  -7 334.927 15.8499  10
   8   2  -7 362.567 14.6511   4
  -8   2   7 344.287 13.8072   8
  -8   2   7 359.887 13.7321   1
  -8   2   7 352.873 12.9226   5
  -8   2   7 358.466 16.5480  11
  -8   2   7 347.132 15.2497  16
   8   2  -7 333.027 13.4486  14
   8   2  -7 365.402 14.4758  12
   6  -2  -7 690.316 23.8867  10
  -6  -2   7 711.184 21.5199   8
  -6  -2   7 709.904 22.4920   1
  -6  -2   7 716.671 24.7752  11
   6  -2  -7 819.617 22.5070  12
   6  -2  -7 694.077 22.2796   4
   6  -2  -7 700.182 22.5175  14
  -6   2   7 680.306 20.9196   5
   6   2  -7 696.056 26.2077  10
  -6   2   7 719.428 25.2452  11
   6   2  -7 696.508 22.7906   4
  -6   2   7 707.539 22.2806   1
   6   2  -7 694.586 21.9294  12
   6   2  -7 700.920 22.3294  14
   4  -2  -7 239.391 9.29182   4
   4  -2  -7 222.719 9.47466  14
   4  -2  -7 234.555 10.1616  10
  -4  -2   7 233.178 9.32854   7
   4  -2  -7 225.630 8.20093  12
  -4  -2   7 225.509 9.60789   1
  -4  -2   7 217.355 10.6082  11
   4   2  -7 240.048 8.41221   2
  -4   2   7 226.860 11.2283  11
  -4   2   7 225.048 7.69499   6
   4   2  -7 245.087 12.3214  10
   4   2  -7 235.464 8.40253  12
  -4   2   7 227.277 9.71807   1
  -2  -2   7 434.193 14.9632   1
   2  -2  -7 444.947 11.5203  12
   2  -2  -7 461.560 15.8554  10
  -2  -2   7 445.167 14.7742   7
   2  -2  -7 474.764 11.6442  12
  -2  -2   7 396.558 15.0168  11
   2  -2  -7 434.673 14.5891  14
  -2   2   7 438.994 13.2910   9
   2   2  -7 435.797 14.2311   2
  -2   2   7 478.196 15.4489   1
  -2   2   7 468.447 14.8040  15
  -2   2   7 451.665 13.7285   6
   2   2  -7 457.764 12.6546  12
  -2   2   7 460.691 16.9437  11
   2   2  -7 439.077 17.7871  10
   0  -2   7 714.150 22.1727  15
   0  -2   7 688.095 21.3235   7
   0  -2   7 673.372 20.8278   1
   0  -2   7 715.622 21.9917   9
   0   2  -7 725.647 18.4070  12
   0   2  -7 715.934 25.3274  10
   0   2   7 731.098 22.1329  15
   0   2  -7 681.466 21.2646  16
   0   2   7 694.948 23.3115  11
   0   2   7 700.695 20.8279   6
   0   2   7 695.994 20.3174   7
   0   2   7 681.763 20.8240   9
   0   2   7 672.977 21.2271   1
  -2  -2  -7 185.152 10.9977  13
  -2  -2  -7 244.846 10.6152   8
   2  -2   7 252.934 11.2586   9
  -2  -2  -7 258.028 7.68034  12
   2  -2   7 243.939 10.2703   7
  -2  -2  -7 239.450 12.4807  16
   2  -2   7 227.740 10.8743  15
  -2   2  -7 237.840 11.2456  16
   2   2   7 239.771 10.4662   9
  -2   2  -7 258.876 9.73866   5
  -2   2  -7 250.921 8.27518  12
   2   2   7 243.233 10.1990   6
   2   2   7 252.173 11.4710  15
  -4  -2  -7 224.669 13.8288  16
  -4  -2  -7 225.961 11.3841   5
   4  -2   7 225.085 10.5292   7
  -4  -2  -7 238.883 9.12805  12
   4  -2   7 244.817 12.3373   9
   4  -2   7 227.069 11.6771  15
  -4  -2  -7 232.055 11.1181   8
  -4   2  -7 230.834 12.5951  16
   4   2   7 220.566 10.8345   6
   4   2   7 233.158 11.8410   9
   4   2   7 240.927 12.4623  15
  -4   2  -7 238.293 10.7884   5
  -4   2  -7 228.983 9.26810  12
   6  -2   7 138.409 10.1283   9
  -6  -2  -7 156.248 8.22090  12
  -6  -2  -7 148.788 9.84649   5
   6   2   7 161.215 10.4182  15
  -6   2  -7 155.811 9.09023   5
  -6   2  -7 146.251 8.31918  12
   6   2   7 140.839 9.73236   9
  11  -3  -7 1.77230 2.74001   4
 -11  -3   7 -1.1109 2.86553   8
 -11  -3   7 3.60188 4.97513  11
  11   3  -7 -0.4987 3.16917   4
 -11   3   7 1.24089 1.97531   5
 -11   3   7 -0.8877 4.17076  11
 -11   3   7 0.72933 2.54333   8
   9  -3  -7 1.12433 2.88625   4
  -9  -3   7 -0.0477 2.58908   1
  -9  -3   7 0.90454 2.41015   8
   9  -3  -7 2.02362 1.80374  14
  -9  -3   7 1.99282 3.86462  11
   9  -3  -7 2.10064 1.87775   3
   9   3  -7 3.46420 2.49517   9
  -9   3   7 -0.8854 2.05370   5
   9   3  -7 -0.8501 2.59400   4
  -9   3   7 1.81918 2.88511   8
  -9   3   7 0.74434 3.62472  11
  -9   3   7 1.30939 2.60202  16
  -7  -3   7 140.699 9.42872  11
   7  -3  -7 152.059 7.99005   4
   7  -3  -7 138.338 8.13993  14
   7  -3  -7 134.154 7.68656  12
  -7  -3   7 126.567 8.04355   1
  -7  -3   7 148.059 7.48338   8
   7   3  -7 135.208 10.6703  10
  -7   3   7 133.420 9.30526  11
   7   3  -7 140.242 7.91559  12
  -7   3   7 142.598 7.04061   5
  -7   3   7 170.637 8.10663   6
   7   3  -7 135.789 7.40090  14
  -7   3   7 131.626 7.56808   1
   7   3  -7 142.890 8.12236   4
  -5  -3   7 2.93946 1.45277   8
   5  -3  -7 2.57460 2.15032  14
  -5  -3   7 4.48299 1.85792   1
   5  -3  -7 0.58818 1.34867  12
  -5  -3   7 6.33392 2.73927  11
  -5  -3   7 2.82186 2.05766   7
   5  -3  -7 2.49754 1.83197   4
   5   3  -7 3.68583 1.69412  12
   5   3  -7 4.66810 1.89974   4
   5   3  -7 3.40191 2.98911  10
  -5   3   7 2.92067 1.21454   6
  -5   3   7 0.63399 1.77948  11
  -5   3   7 3.93887 2.17359   1
   3  -3  -7 319.347 11.5508  14
  -3  -3   7 295.911 11.3076   7
   3  -3  -7 302.987 10.5759   4
  -3  -3   7 282.555 11.9428  11
   3  -3  -7 313.153 9.76865  12
  -3  -3   7 290.485 11.5207   1
  -3   3   7 304.312 10.1905   6
  -3   3   7 310.889 11.6951   1
   3   3  -7 296.783 14.2294  10
  -3   3   7 286.210 10.3704  15
   3   3  -7 299.997 10.7515   2
  -3   3   7 316.092 13.4961  11
   3   3  -7 304.179 10.1561  12
   1  -3  -7 33.5636 1.59428  12
   1  -3  -7 27.4047 1.54240  12
   1  -3  -7 26.6203 3.19511  14
  -1  -3   7 27.0635 3.34328   1
  -1  -3   7 29.8440 3.64561   7
  -1   3   7 27.7632 3.57717   1
  -1   3   7 29.4003 4.50088  11
  -1   3   7 29.0216 2.41815   9
   1   3  -7 34.3212 2.42208  12
  -1   3   7 30.4170 3.49577  15
  -1   3   7 43.3706 3.21670   6
   1   3  -7 31.5534 5.15817  10
   1   3  -7 32.2712 3.69592   2
   1  -3   7 46.1510 5.06362  15
  -1  -3  -7 37.9223 4.72325  13
  -1  -3  -7 40.7852 2.23499  12
   1  -3   7 57.7005 4.81382   7
   1  -3   7 41.4721 4.28960   9
  -1  -3  -7 39.9916 3.75409   3
   1   3   7 53.8384 4.89128  15
  -1   3  -7 37.6082 2.86353  12
   1   3   7 41.8758 3.82694   9
  -1   3  -7 34.2747 5.75546  10
   1   3   7 39.0986 4.09848   6
  -3  -3  -7 -0.5202 1.18015  12
   3  -3   7 -0.7057 2.37198  15
   3  -3   7 2.60084 2.64187   9
  -3  -3  -7 0.84859 2.83034  16
   3  -3   7 -0.0731 1.50278   7
  -3  -3  -7 4.23037 2.16155   8
   3   3   7 3.40479 2.50478   6
   3   3   7 3.63574 2.70431  15
   3   3   7 1.29720 1.60456   9
  -3   3  -7 0.07210 1.27768  12
  -5  -3  -7 2.35055 1.84610  12
   5  -3   7 4.12957 3.59842   9
  -5  -3  -7 1.04206 3.02246   5
   5  -3   7 0.13970 2.87111  15
   5  -3   7 0.97271 2.33965   7
  -5  -3  -7 1.09730 3.05171   8
   5   3   7 1.09897 2.09124   9
  -5   3  -7 2.51546 2.07189  12
  -5   3  -7 2.49896 2.67265   5
   5   3   7 -0.3615 3.43969  15
  12  -4  -7 1.55933 3.91858   4
 -12  -4   7 -1.5008 2.96302   8
 -12  -4   7 5.44701 5.45807  11
  12   4  -7 -1.2048 2.73436   4
 -12   4   7 -0.5752 2.54791   5
 -10  -4   7 186.504 9.96947   8
 -10  -4   7 189.144 13.8714  11
  10  -4  -7 167.433 10.7569   4
  10  -4  -7 171.797 10.0740  14
 -10  -4   7 178.388 10.2619   1
 -10   4   7 195.297 10.1050   5
 -10   4   7 168.181 11.7905  11
 -10   4   7 183.870 11.9167  16
  10   4  -7 186.836 10.3465   9
  10   4  -7 176.335 10.7942   4
   8  -4  -7 275.604 12.8335  14
   8  -4  -7 282.684 12.4687   3
   8  -4  -7 308.715 13.2900   4
   8  -4  -7 281.645 12.7819  12
  -8  -4   7 302.651 15.3612  11
  -8  -4   7 310.195 13.3307   1
  -8  -4   7 313.625 12.4836   8
  -8   4   7 285.392 15.0482  11
  -8   4   7 322.636 11.8836   6
   8   4  -7 298.013 13.1505  12
  -8   4   7 295.325 12.0622   5
  -8   4   7 289.476 12.1807   1
   8   4  -7 274.558 11.8601  14
  -8   4   7 307.673 15.0509  16
   8   4  -7 307.302 13.5470   4
   6  -4  -7 33.2192 3.99075  12
  -6  -4   7 29.7207 4.09035   1
  -6  -4   7 32.0846 3.37142   8
  -6  -4   7 30.2337 5.03725  11
   6  -4  -7 37.6730 4.35647   4
   6  -4  -7 32.2825 4.14274  14
  -6   4   7 36.6334 4.39781   1
   6   4  -7 36.1229 5.99712  10
  -6   4   7 30.7861 3.19529   6
  -6   4   7 30.1496 5.13602  11
   6   4  -7 36.8800 3.60722   2
  -6   4   7 35.6214 3.86938   5
   6   4  -7 41.0898 4.89476   4
   6   4  -7 35.2419 4.20586  12
   4  -4  -7 259.283 10.8443  14
  -4  -4   7 262.135 10.5064   7
  -4  -4   7 256.562 11.7093  11
   4  -4  -7 259.954 9.84276  12
  -4  -4   7 256.011 10.8481   1
   4  -4  -7 261.644 9.83328   4
   4   4  -7 260.890 10.3073   2
   4   4  -7 262.404 14.0074  10
  -4   4   7 268.635 9.66527   6
   4   4  -7 276.609 10.2883  12
  -4   4   7 282.232 11.1883   1
  -4   4   7 279.487 12.8985  11
  -2  -4   7 134.889 7.07274   7
   2  -4  -7 130.476 6.71423  14
   2  -4  -7 131.735 5.42135  12
  -2  -4   7 132.722 6.98635   1
  -2   4   7 129.653 6.25149  15
  -2   4   7 135.084 7.09760   1
  -2   4   7 131.662 8.41102  11
   2   4  -7 140.168 9.44045  10
  -2   4   7 134.935 6.38706   6
   2   4  -7 134.322 5.88273  12
   2   4  -7 136.612 6.97412   2
   0  -4   7 72.1377 5.41990   7
   0  -4  -7 66.1697 5.68880  13
   0  -4  -7 67.8867 5.15046   3
   0  -4  -7 70.9423 3.46809  12
   0   4  -7 71.8825 5.72156   2
   0   4  -7 72.6526 4.04244  12
   0   4  -7 72.2417 7.08719  10
   0   4   7 68.7014 6.52003  11
   0   4   7 63.6491 5.04778  15
   0   4   7 78.7521 5.21834   6
   2  -4   7 431.277 16.7226   9
   2  -4   7 399.471 15.5671  15
  -2  -4  -7 409.041 16.3670  13
  -2  -4  -7 399.908 12.8742  12
   2  -4   7 389.069 15.2928   7
   2   4   7 410.219 14.9086   9
   2   4   7 419.417 16.2476  15
  -2   4  -7 412.783 13.6407  12
   2   4   7 402.130 15.2443   6
   4  -4   7 52.6110 5.95137   7
  -4  -4  -7 62.4102 4.72368  12
  -4  -4  -7 63.6188 7.13205   8
   4  -4   7 60.7320 6.58637  15
   4  -4   7 58.1002 6.56501   9
  -4  -4  -7 55.1617 7.81680  16
   4   4   7 63.8895 7.19082  15
   4   4   7 62.8602 6.14143   9
  -4   4  -7 59.4061 5.02188  12
   4   4   7 56.3436 6.15028   6
   6  -4   7 2.84102 2.98262   9
  -6  -4  -7 5.97670 3.18823   5
  -6  -4  -7 0.02718 2.38443   8
  -6  -4  -7 1.05041 2.07416  12
  -6   4  -7 3.04713 2.24280  12
   6   4   7 3.94697 2.88051   9
   6   4   7 4.62421 4.23104  15
 -11  -5   7 13.4070 3.42698   8
 -11  -5   7 9.08708 5.76763  11
  11  -5  -7 9.00653 4.11869   4
 -11   5   7 11.4311 3.67499   5
  11   5  -7 14.6681 4.13525   4
  11   5  -7 8.65940 3.91379   9
  -9  -5   7 383.622 19.2913  11
   9  -5  -7 377.050 15.9788  14
   9  -5  -7 400.117 16.3986   4
  -9  -5   7 394.925 15.4599   8
  -9  -5   7 388.871 16.3127   1
   9   5  -7 386.212 16.3209   4
  -9   5   7 384.182 18.5629  16
  -9   5   7 365.697 17.8913  11
  -9   5   7 390.211 15.3016   5
   7  -5  -7 121.081 7.41059  12
   7  -5  -7 113.842 7.62181   3
  -7  -5   7 118.820 6.55221   8
  -7  -5   7 119.092 9.41894  11
   7  -5  -7 112.376 7.78589  14
  -7  -5   7 121.477 8.21272   1
   7  -5  -7 117.547 6.90424   4
  -7   5   7 124.145 7.52757   5
  -7   5   7 119.520 6.58843   6
   7   5  -7 108.720 7.76348   4
  -7   5   7 103.743 8.38707  11
   7   5  -7 115.622 7.36643  12
   7   5  -7 120.132 6.78830   2
  -7   5   7 113.564 6.87703   1
   5  -5  -7 50.3186 4.12810   4
  -5  -5   7 54.8005 4.40970   7
   5  -5  -7 50.3105 4.46667  12
  -5  -5   7 55.7564 5.37250   1
  -5  -5   7 54.8054 5.66353  11
   5  -5  -7 45.6652 5.14518   3
   5  -5  -7 54.1635 5.50816  14
  -5   5   7 57.6124 5.95843  11
   5   5  -7 54.9525 4.74111   2
  -5   5   7 53.6215 5.15997   1
  -5   5   7 59.8906 4.32098   6
   5   5  -7 53.2980 5.51312   4
   5   5  -7 52.1368 7.36483  10
   5   5  -7 52.6325 4.74940  12
   3  -5  -7 163.141 7.91566  14
   3  -5  -7 155.570 7.09916  12
   3  -5  -7 142.698 8.00664   3
  -3  -5   7 144.633 7.68003   1
  -3  -5   7 153.200 7.48408   7
   3   5  -7 156.362 10.4443  10
  -3   5   7 151.815 7.16895   6
   3   5  -7 152.162 8.00477   2
   3   5  -7 168.694 7.43242  12
  -3   5   7 143.823 8.06301   1
  -3   5   7 144.719 9.46293  11
   1  -5  -7 11.2215 2.31310  14
   1  -5  -7 7.84916 2.73254   3
   1  -5  -7 11.3132 3.37160  13
  -1  -5   7 8.07377 2.16947   1
  -1  -5   7 11.5904 2.60934   7
   1  -5  -7 12.6028 2.08854  12
   1   5  -7 13.3916 3.15224   2
  -1   5   7 9.62973 2.32687   6
  -1   5   7 13.8670 3.78683  11
   1   5  -7 12.3712 4.03600  10
  -1   5   7 10.8859 2.43657  15
   1   5  -7 11.4849 2.20898  12
   1  -5   7 254.287 11.4554   7
  -1  -5  -7 270.495 9.54930  12
  -1  -5  -7 253.708 12.6591  13
  -1  -5  -7 239.171 10.6092   3
   1   5   7 274.610 11.4404   6
   1   5   7 266.851 11.4234  15
  -1   5  -7 251.948 11.5675   2
  -1   5  -7 261.255 10.0448  12
   3  -5   7 293.354 13.1029   7
   3  -5   7 294.764 14.0852   9
  -3  -5  -7 299.904 14.1004   8
  -3  -5  -7 286.148 11.0936  12
  -3   5  -7 292.442 13.9557   2
  -3   5  -7 288.508 11.7619  12
   3   5   7 293.756 13.0691   6
   3   5   7 287.155 12.6094   9
   3   5   7 287.979 13.6925  15
  -5  -5  -7 -0.1577 3.24958   8
   5  -5   7 -0.0064 2.47573   9
  -5  -5  -7 -2.8427 1.91913   5
   5  -5   7 0.90673 2.62787   7
  -5  -5  -7 -0.5905 1.69315  12
  -5   5  -7 0.51271 1.98928  12
   5   5   7 -1.1046 2.36376   9
  -5   5  -7 1.33333 3.28181   2
   5   5   7 -3.1871 2.74906   6
   5   5   7 1.62804 3.33537  15
 -10  -6   7 87.5890 8.05551   1
  10  -6  -7 66.5264 6.47531   4
 -10  -6   7 63.8176 6.56446   8
 -10  -6   7 73.4744 8.71104  11
  10   6  -7 76.9270 7.04028   9
  10   6  -7 56.8657 6.38465   4
 -10   6   7 58.2636 6.38085   5
   8  -6  -7 42.4629 5.28378   3
  -8  -6   7 27.6309 5.15935   1
   8  -6  -7 36.9901 4.99802   4
  -8  -6   7 28.6770 5.98506  11
  -8  -6   7 30.9243 4.15571   8
   8  -6  -7 31.8600 4.73460  12
   8  -6  -7 40.0287 5.46292  14
   8   6  -7 27.8728 4.63035   4
  -8   6   7 26.8315 5.46045  11
  -8   6   7 27.5899 3.96823   6
  -8   6   7 30.5322 4.58972   5
  -6  -6   7 2.86297 2.75174  11
  -6  -6   7 7.31155 3.11496   1
   6  -6  -7 5.02416 2.34059  14
   6  -6  -7 3.00228 2.63727   3
   6  -6  -7 6.85809 2.60007  12
   6  -6  -7 3.53117 2.00880   4
   6   6  -7 4.35245 2.48141  12
   6   6  -7 4.20492 2.77841   4
  -6   6   7 6.67083 2.48933   6
   6   6  -7 6.74454 2.85178   2
  -6   6   7 6.94163 2.98832  11
   4  -6  -7 466.369 17.1284   3
  -4  -6   7 437.098 16.6260   1
  -4  -6   7 462.614 15.9978   7
   4  -6  -7 457.601 16.0032  12
   4  -6  -7 444.996 16.0939  14
  -4  -6   7 411.751 17.0419  11
   4   6  -7 478.386 16.4135  12
  -4   6   7 455.877 18.8900  11
   4   6  -7 472.203 16.6515   2
   4   6  -7 437.021 20.3786  10
  -4   6   7 462.803 15.5725   6
  -2  -6   7 212.173 9.79123   1
   2  -6  -7 218.168 9.04134  12
   2  -6  -7 197.190 8.89040  14
   2  -6  -7 212.352 10.4988   3
  -2  -6   7 214.411 9.83702   7
   2  -6  -7 202.631 11.3770  13
   2   6  -7 204.017 12.6491  10
  -2   6   7 213.408 12.1201  11
  -2   6   7 207.327 9.30029   6
   2   6  -7 204.660 10.1576   2
  -2   6   7 213.578 8.53197  15
   2   6  -7 212.936 9.15540  12
   0  -6  -7 0.12057 1.83883  13
   0  -6  -7 -0.3743 1.56453  12
   0  -6  -7 2.65742 2.43192   3
   0  -6   7 2.63337 2.54301   7
   0   6   7 2.51306 1.72760   6
   0   6   7 1.36064 2.05225  11
   0   6  -7 0.07980 1.56772  12
   0   6   7 0.28280 1.64015  15
   0   6  -7 1.20541 2.73994   2
  -2  -6  -7 88.4753 5.52431  12
  -2  -6  -7 82.9623 7.14309  13
   2  -6   7 84.5582 6.89910   7
   2   6   7 90.6576 7.01162   6
  -2   6  -7 90.1700 6.08393  12
  -2   6  -7 84.4548 7.74858   2
   2   6   7 90.5260 7.18604  15
   4  -6   7 44.8937 5.91628   7
  -4  -6  -7 35.0857 5.47224   8
   4  -6   7 40.9980 6.39764   9
  -4  -6  -7 41.2730 4.83713  12
   4   6   7 50.9902 5.82376   9
  -4   6  -7 53.7916 6.43615   2
  -4   6  -7 47.1367 5.36030  12
   4   6   7 54.8324 6.54215   6
   4   6   7 56.4668 7.25471  15
  -9  -7   7 42.2999 7.37947  11
   9  -7  -7 35.1911 5.11786   4
  -9   7   7 37.2164 4.97644   5
  -9   7   7 39.2437 5.04891   6
   7  -7  -7 291.543 13.5568  12
  -7  -7   7 300.090 14.0938   1
   7  -7  -7 296.911 13.6802   3
  -7  -7   7 296.906 15.3985  11
   7  -7  -7 307.554 13.5699  14
   7   7  -7 291.364 12.7129   2
   7   7  -7 281.996 13.0021   4
  -7   7   7 315.375 13.1488   5
  -7   7   7 303.530 12.2460   6
  -7   7   7 318.692 15.7176  11
  -5  -7   7 125.592 7.41686   7
  -5  -7   7 123.204 8.54900  11
  -5  -7   7 117.687 8.05974   1
   5  -7  -7 126.105 8.49952   3
   5  -7  -7 110.535 7.59904  14
   5  -7  -7 109.577 7.38809  12
  -5   7   7 113.556 8.71596  11
   5   7  -7 111.477 7.60522  12
  -5   7   7 121.238 7.10571   6
   5   7  -7 121.707 7.52205   2
   5   7  -7 122.223 7.50157   4
  -3  -7   7 -0.3340 1.48781   1
   3  -7  -7 0.86041 2.59979  13
  -3  -7   7 7.37188 2.94080   7
   3  -7  -7 2.84794 2.99431   3
   3  -7  -7 1.78902 1.82695  12
   3  -7  -7 9.34586 2.68336  14
   3   7  -7 2.25081 2.12623  12
   3   7  -7 -1.1284 2.03355   2
  -3   7   7 1.42858 2.15478   6
  -3   7   7 1.63572 3.24359  11
  -1  -7   7 180.924 9.54159   7
  -1  -7   7 177.979 8.98185   1
   1  -7  -7 185.236 11.2360  13
   1  -7  -7 187.827 8.64274  12
   1  -7  -7 194.405 9.89448   3
   1   7  -7 180.088 8.85452  12
   1   7  -7 166.467 9.93832   2
  -1   7   7 182.494 9.21827   6
  -1   7   7 176.580 8.33837  15
  -1   7   7 185.996 11.9513  11
   1  -7   7 174.843 9.93516   7
  -1  -7  -7 166.154 9.05050   3
  -1  -7  -7 171.798 8.59327  12
  -1  -7  -7 173.195 10.6751  13
  -1   7  -7 183.720 9.17017  12
   1   7   7 179.505 9.27205  15
   1   7   7 182.215 9.78817   6
  -1   7  -7 175.289 10.7413   2
   3  -7   7 35.1706 5.09055   7
  -3  -7  -7 33.1273 4.37818  12
  -3  -7  -7 29.1517 5.63550   8
  -3  -7  -7 34.2980 5.58413  13
  -3   7  -7 40.7993 5.88522   2
  -3   7  -7 39.2825 4.95837  12
   3   7   7 43.6028 5.87221   6
   3   7   7 33.6509 5.22600  15
 -10  -8   7 37.5575 7.08356  11
 -10  -8   7 40.6291 6.62800   1
  10   8  -7 36.5605 6.31880   9
 -10   8   7 35.2685 5.19801   5
 -10   8   7 38.3416 4.94603   6
   8  -8  -7 25.4768 4.32519   3
  -8  -8   7 24.6046 5.40399   1
  -8  -8   7 12.1622 4.54548  11
   8   8  -7 20.2666 4.45041   2
  -8   8   7 20.3922 3.86821   5
  -8   8   7 18.9000 3.89548   6
   6  -8  -7 286.390 13.4228   3
   6  -8  -7 243.997 12.2212  12
   6  -8  -7 254.754 12.4274  14
  -6  -8   7 273.566 12.8323   1
  -6  -8   7 240.827 13.7712  11
   6  -8  -7 259.280 13.1135  13
  -6   8   7 252.810 11.2574   6
   6   8  -7 260.198 12.7033   2
  -6   8   7 248.022 14.2161  11
   6   8  -7 252.300 12.1259   4
   4  -8  -7 270.141 13.6951  13
   4  -8  -7 259.265 11.8579  14
   4  -8  -7 284.603 12.4357  12
  -4  -8   7 291.420 11.8170   7
   4  -8  -7 275.173 13.5188   3
  -4  -8   7 283.056 13.0073   1
   4   8  -7 273.387 13.1554   2
  -4   8   7 275.025 14.4300  11
   4   8  -7 274.825 12.5030  12
  -4   8   7 272.889 11.7287   6
   2  -8  -7 269.772 14.2051  13
  -2  -8   7 273.105 12.2986   1
   2  -8  -7 277.558 11.8933  12
   2  -8  -7 263.944 12.9649   3
  -2  -8   7 271.762 12.1851   7
  -2   8   7 264.742 11.9633   6
   2   8  -7 265.547 13.1344   2
   2   8  -7 278.401 12.1890  12
  -2   8   7 273.772 15.0261  11
   0  -8  -7 196.559 10.2445   3
   0  -8   7 200.396 10.6085   7
   0  -8  -7 198.847 9.43503  12
   0  -8  -7 182.520 11.4310  13
   0   8   7 203.521 10.4655   6
   0   8   7 194.404 9.44118  15
   0   8  -7 188.991 9.71562  12
   0   8  -7 192.153 11.3311   2
  -2  -8  -7 22.4449 3.65346  12
   2  -8   7 22.2613 4.72329   7
  -2  -8  -7 17.2749 4.17837   8
  -2  -8  -7 18.0384 5.34722  13
   2   8   7 20.2881 4.50024   6
  -2   8  -7 22.9195 5.28631   2
   2   8   7 26.8799 4.68223  15
  -2   8  -7 18.0280 3.84369  12
  -4  -8  -7 87.5339 6.69374  12
  -4  -8  -7 95.8321 9.16019   8
   4  -8   7 79.8711 7.63296   7
   4   8   7 88.8569 8.17347  15
  -4   8  -7 81.9205 8.64627   2
   4   8   7 99.7687 7.99211   6
  -4   8  -7 94.7747 7.56908  12
  -9  -9   7 3.99641 3.85342  11
  -9  -9   7 3.87240 3.22004   1
  -9   9   7 2.29097 3.12098   5
  -9   9   7 -0.6061 2.74803   6
  -7  -9   7 2.62111 3.83244   1
   7  -9  -7 16.1587 4.55072   3
  -7   9   7 3.32000 3.02076   6
   7   9  -7 7.47413 3.92550   2
   5  -9  -7 27.7512 4.26963  14
  -5  -9   7 26.9689 5.05706   1
   5  -9  -7 36.1842 5.02859  12
   5  -9  -7 26.3468 4.56380   3
   5  -9  -7 25.7522 4.51055  13
  -5   9   7 25.4454 5.12529  11
   5   9  -7 20.9409 3.88802   4
   5   9  -7 28.8059 5.24687   2
  -5   9   7 29.4372 4.76336   6
  -3  -9   7 26.6239 4.55616   1
   3  -9  -7 13.2340 3.37490  12
   3  -9  -7 14.8140 4.27430  13
   3  -9  -7 10.8922 4.22267   3
  -3  -9   7 12.9551 3.56596   7
   3   9  -7 10.2798 4.52053   2
   3   9  -7 13.5922 3.59091  12
  -3   9   7 14.6374 3.68674   6
  -3   9   7 11.4206 4.70396  11
   1  -9  -7 29.1223 5.14066  13
  -1  -9   7 26.1707 4.97147   7
   1  -9  -7 32.9206 4.58404  12
   1   9  -7 30.8096 4.79377  12
   1   9  -7 31.3939 5.74682   2
  -1   9   7 40.9511 5.40994   6
  -1  -9  -7 5.54535 2.68013  12
   1  -9   7 4.30618 3.76394   7
   1   9   7 6.24151 2.70870   6
  -1   9  -7 10.9823 4.54545   2
  -1   9  -7 8.34459 3.00663  12
   3  -9   7 5.50368 3.02524   7
  -3  -9  -7 3.98818 2.50569  12
  -3  -9  -7 8.65798 4.12438   8
   3   9   7 3.51899 2.88608  15
   3   9   7 4.00554 3.81300   6
  -3   9  -7 3.34022 4.03684   2
  -3   9  -7 7.70460 3.08866  12
   8 -10  -7 6.64736 3.53132   3
  -8 -10   7 6.06655 4.71404   1
   8  10  -7 7.91696 4.34831   2
  -8  10   7 5.29922 3.19046   6
  -6 -10   7 0.44743 3.52948   1
   6 -10  -7 -0.5325 3.11475   3
  -6  10   7 1.84434 2.90725   6
   6  10  -7 0.50369 3.65824   2
   4 -10  -7 46.5230 6.42220  13
  -4 -10   7 70.0247 7.50442   1
   4 -10  -7 60.2886 6.60647  12
   4 -10  -7 50.4927 6.82154   3
  -4  10   7 59.7258 8.28311  11
  -4  10   7 58.5057 6.53464   6
   4  10  -7 62.7627 7.58642   2
   2 -10  -7 53.9430 6.50311   3
   2 -10  -7 50.8977 5.95634  12
  -2 -10   7 46.3160 5.56477   1
   2 -10  -7 44.9637 7.63788  13
  -2 -10   7 47.0960 5.70260   7
  -2  10   7 52.0264 5.70827   6
   2  10  -7 47.5535 5.91465  12
   2  10  -7 44.2725 6.66688   2
   0 -10   7 9.57304 4.14405   7
   0 -10  -7 6.24973 2.77187  12
   0 -10  -7 18.0362 4.76379   3
   0  10  -7 1.23729 4.20623   2
   0  10   7 10.3341 2.97471   6
   0  10  -7 5.08087 3.00399  12
   2 -10   7 11.2424 4.38758   7
  -2 -10  -7 9.47499 2.98143  12
  -2 -10  -7 14.5026 4.67669   8
  -2  10  -7 9.55031 3.46719  12
   2  10   7 11.2166 4.41785   6
  -2  10  -7 15.8741 4.86586   2
  -7 -11   7 64.8382 9.93734   1
   7 -11  -7 67.8592 7.42347   3
   7  11  -7 78.4764 8.78489   2
  -7  11   7 70.5919 6.30458   6
  -5 -11   7 79.2421 8.42469   1
   5 -11  -7 77.5691 8.34864   3
  -5  11   7 73.1151 7.48737   6
   5  11  -7 78.9349 8.28775   2
   3 -11  -7 120.160 8.70809  12
  -3 -11   7 113.297 8.75647   1
   3 -11  -7 134.383 10.5731   3
  -3  11   7 117.074 8.07218   6
   3  11  -7 132.985 10.5313   2
   1 -11  -7 147.018 10.0064   3
  -1 -11   7 160.348 10.1172   7
   1 -11  -7 157.741 10.0785  12
   1  11  -7 156.385 11.7372   2
  -1  11   7 138.453 9.60929   6
  -1 -11  -7 60.5908 6.19061  12
  -1 -11  -7 53.4332 6.88971   8
   1 -11   7 55.7490 7.53384   7
   1  11   7 59.9918 7.45645   6
  -1  11  -7 44.8111 8.02121   2
   4 -12  -7 0.33520 2.79934   3
  -4 -12   7 2.05189 3.44247   1
   4  12  -7 5.68556 4.66999   2
  -4  12   7 -0.4546 2.88491   6
   2 -12  -7 24.2791 4.56059  12
   2 -12  -7 15.5330 5.38398   3
   2  12  -7 25.5944 6.15731   2
  -2  12   7 17.7590 4.63553   6
  12   0  -8 1476.05 45.8308   4
 -12   0   8 1470.93 44.7274   8
 -12   0   8 1434.77 49.5011  11
 -10   0   8 1015.65 36.6675  11
 -10   0   8 993.901 31.4509   1
  10   0  -8 1007.29 31.8611  14
 -10   0   8 1036.29 32.4619   8
  10   0  -8 1063.59 33.7299   4
   8   0  -8 1640.23 47.2988  14
   8   0  -8 1654.21 47.3433  12
   8   0  -8 1587.22 51.3511  10
   8   0  -8 1714.56 48.1116   4
  -8   0   8 1661.99 46.7131   8
  -8   0   8 1690.20 47.2601   1
  -8   0   8 1700.48 51.6710  11
   6   0  -8 2060.09 56.6360  12
  -6   0   8 2175.54 61.3113  11
   6   0  -8 2169.67 58.0698   4
   6   0  -8 2057.60 60.9981  10
   6   0  -8 2070.81 57.7073  14
  -6   0   8 2166.95 58.0552   1
   4   0  -8 2513.22 65.3049   4
  -4   0   8 2491.98 65.6460   1
  -4   0   8 2363.68 67.4237  11
   4   0  -8 2396.18 67.9429  10
   4   0  -8 2464.20 62.7714  12
  -2   0   8 4767.40 117.605   7
  -2   0   8 4663.13 118.214  15
  -2   0   8 4485.13 115.535   6
  -2   0   8 4459.60 119.702  11
   2   0  -8 4581.55 121.242  10
  -2   0   8 4665.10 118.237   1
   0   0   8 2600.76 68.3824   6
   0   0  -8 2597.32 73.7252  10
   0   0   8 2680.03 69.2499   7
   0   0   8 2640.25 70.7158  15
   0   0   8 2582.77 70.7481  11
   0   0   8 2631.45 69.7880   9
   0   0  -8 2669.77 71.4988  16
   2   0   8 809.089 26.2920   9
  -2   0  -8 820.408 28.1720  16
   2   0   8 798.382 26.6441  15
   2   0   8 759.831 24.3600   7
  -2   0  -8 837.324 21.7478  12
  -2   0  -8 825.344 25.0689   5
  -4   0  -8 1269.29 38.0643   5
   4   0   8 1263.05 39.5695  15
   4   0   8 1272.44 39.5692   9
 -11  -1   8 342.905 19.5581  11
 -11  -1   8 322.578 15.0395   8
  11  -1  -8 315.097 15.7999   4
 -11   1   8 337.843 19.1773  11
  11   1  -8 350.305 16.0013   4
 -11   1   8 359.274 15.6965   8
   9  -1  -8 427.216 16.6258  14
  -9  -1   8 437.565 20.5295  11
  -9  -1   8 420.990 16.6609   1
  -9  -1   8 443.222 16.6770   8
   9  -1  -8 471.416 17.7622   4
   9  -1  -8 429.536 16.9697  12
  -9   1   8 415.655 16.4048   8
  -9   1   8 430.292 16.3800   1
   9   1  -8 401.868 16.7954  12
  -9   1   8 418.985 20.1505  11
   9   1  -8 405.057 15.9778  14
   9   1  -8 418.597 17.0100   4
   7  -1  -8 159.013 8.35272  12
   7  -1  -8 174.367 9.26330   4
  -7  -1   8 163.716 10.8862  11
   7  -1  -8 184.236 9.27196  14
  -7  -1   8 170.150 8.36997   8
   7  -1  -8 152.203 9.77821  10
  -7  -1   8 182.020 9.34445   1
  -7   1   8 160.121 8.85967   1
   7   1  -8 177.061 9.68786   4
   7   1  -8 171.688 8.85782  14
  -7   1   8 166.302 10.7267  11
   7   1  -8 171.400 8.66837  12
  -7   1   8 155.386 6.97887   5
   7   1  -8 174.458 11.1776  10
   5  -1  -8 914.394 27.6545   4
   5  -1  -8 915.950 26.3499  12
  -5  -1   8 942.967 30.5709  11
   5  -1  -8 907.650 29.7408  10
   5  -1  -8 934.604 28.1555  14
  -5  -1   8 955.174 28.3484   1
   5   1  -8 920.794 31.2214  10
   5   1  -8 910.880 26.2824  12
  -5   1   8 897.976 30.4148  11
   5   1  -8 912.830 27.9509   4
  -5   1   8 926.383 28.0202   1
  -3  -1   8 880.979 25.5749   7
  -3  -1   8 802.244 26.8304  11
   3  -1  -8 836.808 25.8141  14
  -3  -1   8 850.379 25.9385   1
   3  -1  -8 854.721 27.5324  10
   3  -1  -8 858.553 22.5408  12
   3  -1  -8 932.497 25.6987   4
   3   1  -8 849.350 28.8246  10
   3   1  -8 873.255 22.8805  12
  -3   1   8 870.696 25.4351  15
  -3   1   8 799.047 23.2016   6
   3   1  -8 849.021 24.0156   2
  -3   1   8 863.124 26.0781   1
  -3   1   8 810.291 27.5240  11
  -1  -1   8 303.290 12.1257  15
  -1  -1   8 266.402 11.7393  11
   1  -1  -8 295.523 13.2690  10
  -1  -1   8 273.387 11.2143   9
  -1  -1   8 304.637 11.4560   7
  -1  -1   8 270.175 11.1424   1
  -1   1   8 311.976 11.7144   1
  -1   1   8 319.261 13.3341  11
   1   1  -8 291.958 14.3427  10
  -1   1   8 303.223 10.9237   9
  -1   1   8 313.812 12.1541  15
  -1   1   8 303.995 10.4720   6
  -1   1   8 307.668 11.1173   7
  -1  -1  -8 645.666 24.9345  10
   1  -1   8 694.726 21.9203   7
   1  -1   8 748.886 23.7440  15
   1  -1   8 742.646 23.3285   9
  -1  -1  -8 682.573 24.7071  16
  -1   1  -8 711.823 21.2841   5
   1   1   8 657.568 22.2200   9
  -1   1  -8 725.167 29.8732  10
   1   1   8 688.414 21.6699   6
  -1   1  -8 702.857 23.6730  16
   1   1   8 681.661 23.2810  15
   3  -1   8 289.495 13.3935   9
   3  -1   8 286.636 13.5382  15
  -3  -1  -8 268.154 12.3436   5
  -3  -1  -8 283.970 15.1542  16
  -3  -1  -8 281.355 9.50154  12
  -3   1  -8 273.048 11.7899   5
   3   1   8 284.500 13.5851  15
   3   1   8 288.787 12.8334   9
  -3   1  -8 264.648 13.8236  16
  -3   1  -8 271.404 9.73032  12
  -5  -1  -8 110.330 7.85544   5
   5  -1   8 136.335 9.73861   9
   5  -1   8 116.469 9.21534  15
  -5   1  -8 105.511 6.38191  12
  -5   1  -8 109.399 8.15331   5
   5   1   8 108.391 8.84568   9
   5   1   8 104.900 9.20171  15
 -12  -2   8 83.9086 10.9113  11
 -12  -2   8 108.272 8.73715   8
  12  -2  -8 101.720 9.56905   4
 -12   2   8 95.4324 10.0904  11
 -12   2   8 97.8759 8.92831   8
  12   2  -8 88.9481 8.57834   4
 -10  -2   8 83.9103 10.4713  11
 -10  -2   8 69.8114 6.88205   1
 -10  -2   8 74.7744 6.89586   8
  10  -2  -8 77.5721 6.28589  14
  10  -2  -8 63.8757 7.42932   4
  10   2  -8 78.5004 8.01701   4
 -10   2   8 77.9161 7.34021   8
 -10   2   8 76.2553 9.62640  11
 -10   2   8 64.1411 5.22481   5
  -8  -2   8 876.908 30.8496  11
   8  -2  -8 828.025 26.9931  14
  -8  -2   8 867.642 26.5397   8
   8  -2  -8 828.821 27.1231  12
  -8  -2   8 853.664 27.2850   1
   8  -2  -8 878.768 27.6041   4
   8   2  -8 787.244 26.7661  12
  -8   2   8 855.181 25.3373   5
   8   2  -8 856.449 27.7915   4
   8   2  -8 803.048 26.5554  14
  -8   2   8 842.646 26.8030   1
  -8   2   8 839.541 30.6569  11
   6  -2  -8 991.761 28.9998  12
  -6  -2   8 973.648 30.0778   1
  -6  -2   8 981.880 32.5217  11
   6  -2  -8 972.270 29.9726  14
   6  -2  -8 983.083 29.5462   4
   6   2  -8 1005.16 30.5198   4
   6   2  -8 969.627 34.0245  10
  -6   2   8 992.562 29.8500   1
   6   2  -8 1017.74 29.2202  12
  -6   2   8 946.340 32.6845  11
  -4  -2   8 158.526 7.65675   7
   4  -2  -8 137.459 7.59334  14
   4  -2  -8 147.861 6.05393  12
  -4  -2   8 147.343 7.86616   1
  -4  -2   8 149.415 8.77930  11
   4  -2  -8 170.262 7.49376   4
  -4   2   8 145.564 9.03560  11
  -4   2   8 149.298 7.94917   1
  -4   2   8 112.717 5.92572   6
   4   2  -8 154.632 6.34501  12
   4   2  -8 147.600 9.71937  10
   4   2  -8 108.881 6.56211   2
   2  -2  -8 413.041 14.6252  14
  -2  -2   8 418.850 14.8402   7
   2  -2  -8 432.196 11.0743  12
  -2  -2   8 369.511 14.9000  11
  -2  -2   8 418.151 15.0585   1
   2   2  -8 450.245 12.3620  12
  -2   2   8 430.058 14.7841  15
  -2   2   8 431.084 15.1939   1
   2   2  -8 410.002 14.1412   2
   2   2  -8 400.258 17.9563  10
  -2   2   8 479.271 17.3986  11
  -2   2   8 420.591 13.5166   6
   0  -2   8 463.661 16.9052  15
   0  -2   8 446.349 15.9587   7
   0  -2  -8 451.010 17.3335  13
   0  -2   8 483.863 16.8917   9
   0   2   8 456.539 15.8444   1
   0   2   8 452.515 17.8779  11
   0   2   8 443.490 14.8222   7
   0   2  -8 457.636 20.0832  10
   0   2  -8 481.819 12.8741  12
   0   2   8 442.361 15.3763   9
   0   2   8 448.513 16.5508  15
   0   2   8 467.094 15.4481   6
   2  -2   8 373.690 15.3527   9
  -2  -2  -8 366.927 10.8478  12
   2  -2   8 375.063 15.3830  15
   2  -2   8 368.922 14.0325   7
  -2  -2  -8 355.517 14.0447   8
  -2  -2  -8 353.505 16.6789  16
   2   2   8 325.652 13.8547   9
   2   2   8 361.734 15.0055  15
  -2   2  -8 363.120 11.4549  12
   2   2   8 353.051 13.8224   6
   4  -2   8 441.980 18.8570   9
   4  -2   8 453.970 18.6915  15
  -4  -2  -8 447.740 17.8835   5
  -4  -2  -8 448.151 14.8597  12
   4   2   8 446.388 18.6643  15
  -4   2  -8 464.871 15.3964  12
   4   2   8 466.106 18.6040   9
  11  -3  -8 658.116 24.7288   4
 -11  -3   8 656.331 23.5934   8
 -11  -3   8 663.807 28.7565  11
  11   3  -8 671.855 24.6720   4
 -11   3   8 633.741 27.2968  11
 -11   3   8 634.487 22.0809   5
   9  -3  -8 1219.02 37.1435  14
  -9  -3   8 1259.22 37.3997   1
   9  -3  -8 1160.24 37.1558  12
   9  -3  -8 1241.64 37.4811   4
  -9  -3   8 1232.09 36.3785   8
  -9  -3   8 1256.10 41.5487  11
   9   3  -8 1238.43 38.0541   4
  -9   3   8 1176.16 40.5429  11
  -9   3   8 1220.26 35.5632   5
  -9   3   8 1193.03 35.9737   1
   9   3  -8 1256.35 40.9722  12
   9   3  -8 1116.80 35.6857  14
   7  -3  -8 1286.63 37.4024  12
  -7  -3   8 1302.33 41.0687  11
   7  -3  -8 1253.41 37.6397  14
   7  -3  -8 1322.25 37.5595   4
  -7  -3   8 1270.85 36.2362   8
  -7  -3   8 1312.82 38.0839   1
   7   3  -8 1292.88 38.3809   4
  -7   3   8 1226.63 40.6695  11
   7   3  -8 1256.18 37.2389  12
  -7   3   8 1285.52 36.0372   5
  -7   3   8 1249.85 37.3114   1
   7   3  -8 1227.13 37.1974  14
  -5  -3   8 1984.72 53.0396   7
  -5  -3   8 1949.52 55.7707  11
   5  -3  -8 1920.14 51.9257  12
  -5  -3   8 1974.05 53.7774   1
   5  -3  -8 1953.61 52.4717   4
   5  -3  -8 1967.40 53.6212  14
   5   3  -8 1944.44 53.8651   4
  -5   3   8 1891.67 56.4272  11
  -5   3   8 1911.44 53.4464   1
   5   3  -8 1886.26 58.2937  10
   5   3  -8 1948.49 52.2111  12
  -3  -3   8 1477.36 46.4167  11
   3  -3  -8 1648.71 45.0470   4
  -3  -3   8 1640.33 45.9192   7
   3  -3  -8 1741.45 46.4239  14
  -3  -3   8 1648.75 46.4261   1
   3  -3  -8 1766.16 43.6400  12
  -3   3   8 1806.87 49.8229  11
  -3   3   8 1741.79 46.7830   1
  -3   3   8 1710.05 45.3193  15
   3   3  -8 1660.96 44.1282  12
  -3   3   8 1661.97 44.4138   6
   3   3  -8 1615.66 45.1286   2
   3   3  -8 1579.07 50.5461  10
  -1  -3   8 1017.46 30.7125   1
   1  -3  -8 1062.98 26.9320  12
   1  -3  -8 1020.56 30.2965  14
  -1  -3   8 1082.58 31.2240   7
  -1   3   8 1067.31 31.1913  15
  -1   3   8 1069.21 30.1968   6
   1   3  -8 1124.71 28.4575  12
  -1   3   8 1064.82 33.8683  11
   1   3  -8 999.518 35.5363  10
   1   3  -8 1075.86 31.0604   2
  -1   3   8 1009.24 31.0353   1
   1  -3   8 1644.01 46.4962  15
   1  -3   8 1639.42 45.5489   7
  -1  -3  -8 1632.90 41.1907  12
   1  -3   8 1607.30 46.5542   9
  -1  -3  -8 1566.88 46.6996  13
   1   3   8 1605.58 46.1201  15
  -1   3  -8 1582.05 42.2481  12
   1   3   8 1609.22 44.9237   6
   1   3   8 1567.06 44.6392   9
   3  -3   8 1069.09 32.9487  15
   3  -3   8 1059.38 33.5284   9
  -3  -3  -8 952.601 35.6494  16
  -3  -3  -8 1015.87 28.6370  12
  -3  -3  -8 1015.12 32.3881   8
   3  -3   8 1051.60 32.0912   7
   3   3   8 989.291 32.0697   9
   3   3   8 1061.77 32.2988   6
   3   3   8 1043.67 33.5738  15
  -3   3  -8 1060.51 29.5747  12
  -5  -3  -8 413.072 14.8418  12
   5  -3   8 424.459 18.7338   9
  -5  -3  -8 414.795 17.6025   5
   5  -3   8 431.335 17.8725  15
   5   3   8 411.587 17.7356   9
   5   3   8 422.860 18.8417  15
  -5   3  -8 401.824 15.3016  12
 -12  -4   8 186.978 12.3524   8
 -12   4   8 154.389 9.55516   5
  12   4  -8 169.509 12.0404   4
  10  -4  -8 59.3133 6.73261   4
 -10  -4   8 72.5763 9.10447  11
 -10  -4   8 84.0416 7.76876   1
 -10  -4   8 73.5268 6.15732   8
  10  -4  -8 70.7588 6.36575  14
  10   4  -8 70.4681 6.04647   9
 -10   4   8 70.2104 5.86712   5
 -10   4   8 66.2170 8.76371  11
  10   4  -8 79.9986 8.31494   4
  -8  -4   8 43.9960 5.87218   1
   8  -4  -8 29.5445 4.42532  12
  -8  -4   8 42.8992 7.06378  11
  -8  -4   8 32.2676 4.22998   8
   8  -4  -8 37.0313 5.12812  14
   8  -4  -8 47.9617 5.29960   3
   8  -4  -8 34.4422 4.98349   4
  -8   4   8 34.9869 6.45433  11
   8   4  -8 45.2562 5.89983   4
  -8   4   8 38.2762 4.57313   5
   8   4  -8 36.1337 4.31263  14
  -8   4   8 32.3780 4.57160   1
   8   4  -8 36.4861 4.97932  12
   6  -4  -8 61.4974 5.86471  14
  -6  -4   8 57.3677 4.22543   8
  -6  -4   8 59.9183 6.70527  11
  -6  -4   8 54.8475 5.90041   1
   6  -4  -8 60.1817 5.09749  12
   6  -4  -8 67.7600 5.51697   4
  -6   4   8 54.1390 3.98994   6
  -6   4   8 52.0306 4.94893   1
   6   4  -8 49.9924 4.91387  12
  -6   4   8 52.7952 7.09911  11
   6   4  -8 74.8176 6.44595   4
   4  -4  -8 187.896 7.77829  12
  -4  -4   8 171.086 8.99796   1
  -4  -4   8 156.423 8.05667   7
   4  -4  -8 166.976 7.55489   4
   4  -4  -8 171.326 8.70072  14
  -4  -4   8 153.139 8.97786  11
  -4   4   8 170.401 7.28138   6
  -4   4   8 184.927 10.9683  11
   4   4  -8 160.458 11.1417  10
   4   4  -8 168.144 7.91589  12
  -4   4   8 184.822 9.25235   1
   4   4  -8 157.910 7.86958   2
   2  -4  -8 443.979 15.4796  14
  -2  -4   8 443.320 15.8767   1
  -2  -4   8 465.138 16.0927   7
   2  -4  -8 454.719 13.6161  12
  -2   4   8 442.258 15.2394  15
  -2   4   8 434.555 18.4188  11
   2   4  -8 440.905 20.0400  10
   2   4  -8 441.256 15.8444   2
   2   4  -8 460.634 14.3515  12
  -2   4   8 446.276 14.9762   6
  -2   4   8 444.188 16.3892   1
   0  -4  -8 168.040 9.69649  13
   0  -4  -8 173.396 8.83646   3
   0  -4  -8 176.308 6.41815  12
   0  -4   8 176.908 9.10941   7
   0   4   8 191.243 11.2746  11
   0   4  -8 162.526 9.07231   2
   0   4   8 177.060 8.60187   6
   0   4  -8 182.078 7.38618  12
   0   4   8 165.840 8.65416  15
   2  -4   8 11.8626 3.74811  15
   2  -4   8 16.1741 3.70474   9
  -2  -4  -8 10.4451 1.96272  12
  -2  -4  -8 11.5184 3.63508   8
   2  -4   8 12.6442 3.55471   7
  -2   4  -8 11.5552 2.52995  12
  -2   4  -8 8.03766 3.69898   2
   2   4   8 7.71755 2.53527   9
   2   4   8 17.1397 4.18437  15
   2   4   8 12.3881 2.93053   6
   4  -4   8 59.8595 7.31774   9
   4  -4   8 57.9198 6.40520   7
  -4  -4  -8 47.4113 6.17047   8
  -4  -4  -8 68.6713 5.03323  12
   4   4   8 51.3808 6.05642   9
   4   4   8 57.1098 6.38640   6
   4   4   8 58.3302 7.13973  15
  -4   4  -8 73.8111 5.63221  12
  11  -5  -8 249.619 13.4812   4
 -11  -5   8 256.647 16.9798  11
 -11  -5   8 274.809 12.8420   8
 -11   5   8 191.446 14.7802  11
  11   5  -8 245.418 13.1262   4
   9  -5  -8 184.772 16.1394  12
   9  -5  -8 228.343 11.5761   3
  -9  -5   8 230.185 12.6201   1
   9  -5  -8 214.620 11.5847   4
   9  -5  -8 228.679 11.9920  14
  -9  -5   8 230.422 14.2748  11
  -9  -5   8 291.560 11.6737   8
  -9   5   8 230.042 11.3099   5
   9   5  -8 233.619 12.5593   4
  -9   5   8 226.102 14.1626  11
  -7  -5   8 161.147 9.97252   1
   7  -5  -8 174.615 9.17866   4
  -7  -5   8 187.149 11.8782  11
   7  -5  -8 177.159 10.0651  14
   7  -5  -8 176.178 9.41651  12
   7  -5  -8 176.346 10.0552   3
   7   5  -8 166.916 9.54512  12
  -7   5   8 160.074 11.1923  11
   7   5  -8 175.817 10.2126   4
  -7   5   8 196.439 8.33762   6
  -7   5   8 179.318 9.77870   1
  -5  -5   8 388.170 15.0168   7
   5  -5  -8 419.834 15.8416  14
  -5  -5   8 382.455 15.6105   1
   5  -5  -8 428.616 14.9491  12
  -5  -5   8 414.748 17.1258  11
   5  -5  -8 398.709 15.8783   3
  -5   5   8 409.488 13.9558   6
  -5   5   8 411.319 15.8803   1
   5   5  -8 388.470 14.6224   2
   5   5  -8 407.623 15.1089  12
  -5   5   8 456.808 19.0886  11
   5   5  -8 418.999 16.0042   4
  -3  -5   8 703.572 22.6175   7
   3  -5  -8 684.255 22.3606  14
   3  -5  -8 718.283 23.8588   3
   3  -5  -8 694.372 21.3211  12
  -3  -5   8 717.148 23.2992   1
   3   5  -8 724.638 22.8659   2
  -3   5   8 689.966 21.6958   6
  -3   5   8 684.281 23.1041   1
   3   5  -8 720.093 21.8425  12
  -3   5   8 745.718 26.6024  11
  -1  -5   8 413.000 15.3877   1
   1  -5  -8 415.377 17.9132  13
   1  -5  -8 429.928 16.3985   3
  -1  -5   8 463.952 16.3761   7
   1  -5  -8 437.166 13.8199  12
  -1   5   8 436.748 18.7287  11
   1   5  -8 435.786 16.4635   2
   1   5  -8 443.497 14.7841  12
  -1   5   8 424.845 15.4221  15
  -1   5   8 437.543 15.5567   6
  -1  -5  -8 212.948 11.8767  13
  -1  -5  -8 216.112 8.34442  12
   1  -5   8 206.617 10.4028   7
  -1   5  -8 209.528 9.04782  12
  -1   5  -8 209.809 11.3604   2
   1   5   8 211.821 10.6686  15
   1   5   8 209.908 10.3534   6
   3  -5   8 204.763 12.0097   9
   3  -5   8 177.294 10.4314   7
  -3  -5  -8 178.538 8.52017  12
  -3  -5  -8 192.332 11.4155   8
   3   5   8 201.285 10.8357   6
  -3   5  -8 191.128 9.18341  12
  -3   5  -8 182.283 11.4032   2
   3   5   8 183.435 11.2127  15
 -10  -6   8 758.627 27.0633   1
  10  -6  -8 749.497 26.3249   4
 -10   6   8 765.094 25.8600   5
  10   6  -8 751.174 26.6564   9
  10   6  -8 732.965 26.4104   4
   8  -6  -8 1217.74 37.9034  14
   8  -6  -8 1273.00 38.2892  12
  -8  -6   8 1287.89 38.7242   1
   8  -6  -8 1201.82 37.7007   3
   8  -6  -8 1168.53 36.3926   4
  -8   6   8 1206.08 35.4265   6
   8   6  -8 1230.29 38.3223   4
  -8   6   8 1216.06 36.6589   5
  -8   6   8 1225.63 40.9047  11
   6  -6  -8 1809.18 50.5875  14
  -6  -6   8 1715.30 52.5728  11
  -6  -6   8 1754.34 49.5672   7
   6  -6  -8 1853.26 51.4646   3
   6  -6  -8 1811.53 50.3053  12
  -6  -6   8 1760.13 51.1137   1
   6   6  -8 1666.48 48.9444   2
   6   6  -8 1627.97 49.8902  12
  -6   6   8 1835.68 48.7589   6
  -6   6   8 1913.96 54.8068  11
   6   6  -8 1710.15 50.5042   4
   4  -6  -8 1418.01 40.5362  12
   4  -6  -8 1410.39 41.0647  14
  -4  -6   8 1448.26 42.0664   1
  -4  -6   8 1446.66 41.1019   7
   4  -6  -8 1425.10 42.4754   3
   4   6  -8 1433.64 41.0096  12
  -4   6   8 1424.32 45.1883  11
   4   6  -8 1423.45 41.3481   2
   2  -6  -8 925.056 27.1689  12
  -2  -6   8 957.133 29.0377   1
   2  -6  -8 910.831 31.3444  13
  -2  -6   8 931.139 28.8428   7
   2  -6  -8 965.852 29.9448   3
  -2   6   8 927.917 32.4457  11
   2   6  -8 902.654 29.0360   2
  -2   6   8 919.370 28.0070   6
   2   6  -8 927.002 27.7554  12
  -2   6   8 907.652 27.2743  15
   0  -6  -8 1247.48 39.5853  13
   0  -6  -8 1249.55 34.4468  12
   0  -6   8 1204.05 36.8756   7
   0  -6  -8 1175.53 36.4443   3
   0   6  -8 1223.75 35.2414  12
   0   6  -8 1213.50 37.5174   2
   0   6   8 1279.64 36.6338   6
   0   6   8 1227.10 36.5380  15
   2  -6   8 1163.26 36.4342   7
  -2  -6  -8 1160.44 37.3544   8
  -2  -6  -8 1161.40 38.1118  13
  -2  -6  -8 1200.86 33.8628  12
   2   6   8 1180.96 36.8828  15
   2   6   8 1226.96 36.6346   6
  -2   6  -8 1157.64 34.5655  12
  -2   6  -8 1184.24 37.4825   2
   4  -6   8 668.331 24.6940   7
  -4  -6  -8 706.791 26.2048   8
  -4  -6  -8 679.503 22.2884  12
  -4   6  -8 685.578 23.3306  12
   4   6   8 714.199 25.1374   6
  -4   6  -8 683.022 25.7948   2
   4   6   8 705.505 26.2079  15
  -9  -7   8 167.185 13.0071  11
  -9  -7   8 194.563 11.3589   1
   9  -7  -8 180.918 10.6553   3
   9   7  -8 177.991 10.7667   4
  -9   7   8 193.540 10.3348   5
  -9   7   8 185.975 12.8900  11
   7  -7  -8 497.697 19.2473  12
   7  -7  -8 498.585 19.2712  14
  -7  -7   8 503.540 21.5697  11
   7  -7  -8 522.272 19.9807   3
  -7  -7   8 485.332 19.8327   1
  -7   7   8 547.731 22.5638  11
   7   7  -8 503.924 19.4930   4
   7   7  -8 473.341 19.4399  12
   7   7  -8 472.785 18.2071   2
  -7   7   8 514.700 17.6573   6
  -5  -7   8 168.494 10.0284   1
   5  -7  -8 162.783 9.05381  12
   5  -7  -8 163.635 9.30041  14
  -5  -7   8 157.283 8.58852   7
   5  -7  -8 170.076 10.2257   3
   5   7  -8 176.407 9.76392   2
  -5   7   8 154.440 8.40157   6
   5   7  -8 156.897 9.16463  12
  -5   7   8 154.473 11.0170  11
   5   7  -8 171.085 9.91849   4
   3  -7  -8 102.471 8.20139   3
   3  -7  -8 105.355 6.86972  14
   3  -7  -8 110.384 8.51173  13
  -3  -7   8 102.464 7.45379   1
   3  -7  -8 106.811 6.92696  12
  -3  -7   8 102.170 7.36989   7
   3   7  -8 109.587 7.08145  12
   3   7  -8 98.7806 7.96166   2
  -3   7   8 108.363 7.03386   6
  -3   7   8 111.331 9.97860  11
   1  -7  -8 187.374 10.3059   3
  -1  -7   8 214.463 10.8573   7
   1  -7  -8 194.543 11.8808  13
   1  -7  -8 192.569 9.01071  12
  -1   7   8 202.639 10.4355  15
  -1   7   8 213.365 13.2596  11
   1   7  -8 188.896 9.49156  12
  -1   7   8 187.926 9.91837   6
   1   7  -8 188.201 11.0337   2
   1  -7   8 172.923 10.3008   7
  -1  -7  -8 163.261 11.2426  13
  -1  -7  -8 174.306 8.58383  12
  -1   7  -8 164.154 10.8888   2
   1   7   8 188.618 10.4207   6
   1   7   8 171.946 9.54169  15
  -1   7  -8 189.072 9.44207  12
  -3  -7  -8 272.400 14.2317   8
   3  -7   8 270.209 13.8217   7
  -3  -7  -8 274.080 12.0072  12
  -3   7  -8 278.063 14.8087   2
   3   7   8 306.076 14.2311   6
  -3   7  -8 286.082 12.8738  12
   3   7   8 275.647 14.0897  15
 -10  -8   8 430.993 26.5336  11
 -10  -8   8 521.363 21.1676   1
 -10   8   8 536.926 21.8795   5
   8  -8  -8 263.055 13.6453   3
  -8  -8   8 272.571 15.8845  11
  -8  -8   8 262.025 13.8491   1
  -8   8   8 285.349 12.1440   6
  -8   8   8 289.686 15.7492  11
   6  -8  -8 355.779 16.5640  13
  -6  -8   8 345.010 15.8889   1
   6  -8  -8 338.473 15.8709   3
   6  -8  -8 343.953 15.0373  14
  -6  -8   8 365.575 14.4766   7
   6  -8  -8 333.393 14.9535  12
   6   8  -8 326.891 15.0184  12
   6   8  -8 359.007 15.3888   4
  -6   8   8 327.779 16.9548  11
   6   8  -8 362.636 15.3092   2
  -6   8   8 345.688 14.1337   6
   4  -8  -8 776.996 25.8607  12
  -4  -8   8 785.804 25.6849   7
   4  -8  -8 771.398 28.4498  13
  -4  -8   8 772.608 26.6647   1
   4  -8  -8 792.679 27.5607   3
   4   8  -8 838.954 27.4122   2
   4   8  -8 749.885 26.0065  12
  -4   8   8 790.069 29.9107  11
  -4   8   8 813.784 25.6319   6
   2  -8  -8 520.455 20.3291   3
   2  -8  -8 517.583 18.6221  12
  -2  -8   8 520.212 19.4810   7
  -2  -8   8 529.922 19.5236   1
   2  -8  -8 531.835 22.3708  13
  -2   8   8 541.507 23.4045  11
   2   8  -8 502.036 19.9998   2
  -2   8   8 519.907 19.0925   6
   2   8  -8 547.346 19.3863  12
   0  -8  -8 520.456 22.3170  13
   0  -8  -8 534.591 18.5811  12
   0  -8  -8 520.161 19.8612   3
   0  -8   8 538.675 20.4617   7
   0   8  -8 527.412 19.2613  12
   0   8  -8 518.094 20.9488   2
   0   8   8 552.204 20.0588   6
  -2  -8  -8 394.835 18.1102   8
  -2  -8  -8 412.909 15.7077  12
   2  -8   8 408.090 17.4007   7
   2   8   8 387.360 16.5550   6
   2   8   8 380.214 16.6257  15
  -2   8  -8 391.188 17.7041   2
  -2   8  -8 393.332 16.1734  12
  -9  -9   8 464.106 20.2755   1
  -9  -9   8 445.929 21.7624  11
  -9   9   8 459.654 17.2761   6
  -7  -9   8 666.747 25.2112   1
   7  -9  -8 700.939 25.1699   3
   7  -9  -8 567.182 23.8954  12
   7   9  -8 705.825 24.3376   2
  -7   9   8 693.225 23.1976   6
  -5  -9   8 620.074 23.5976   1
   5  -9  -8 620.269 24.5824  13
  -5  -9   8 642.120 21.8968   7
   5  -9  -8 657.071 24.1992   3
   5  -9  -8 655.602 23.1261  12
   5  -9  -8 601.622 21.8169  14
   5   9  -8 618.152 22.6968   4
  -5   9   8 614.419 25.8149  11
  -5   9   8 645.674 22.1815   6
   5   9  -8 644.379 23.4384   2
   5   9  -8 604.593 23.0660  12
  -3  -9   8 1173.37 36.7136   1
  -3  -9   8 1184.65 35.7122   7
   3  -9  -8 1165.74 37.1912   3
   3  -9  -8 1156.02 39.4142  13
   3  -9  -8 1206.50 36.0825  12
  -3   9   8 1172.15 40.4993  11
   3   9  -8 1121.58 35.9248  12
   3   9  -8 1145.90 37.0450   2
  -3   9   8 1157.55 35.6822   6
  -1  -9   8 1212.21 38.4224   7
   1  -9  -8 1276.57 39.2587   3
   1  -9  -8 1288.41 37.8010  12
   1   9  -8 1226.14 38.2642  12
  -1   9   8 1255.57 38.2657   6
   1   9  -8 1238.43 39.8493   2
  -1  -9  -8 378.572 15.2603  12
   1  -9   8 372.028 16.8510   7
  -1   9  -8 362.058 15.7723  12
   1   9   8 397.882 16.7873   6
  -1   9  -8 371.452 17.6378   2
   8 -10  -8 27.8455 4.77000   3
   8  10  -8 36.1577 6.06356   2
  -8  10   8 34.5792 5.09435   6
   6 -10  -8 65.1964 7.07554  12
   6 -10  -8 64.6435 7.71672   3
  -6 -10   8 63.8459 7.40838   1
  -6  10   8 54.6881 6.28177   6
   6  10  -8 59.5052 7.15178   2
  -6  10   8 57.3323 7.61472  11
   4 -10  -8 135.484 9.16906  12
   4 -10  -8 134.571 10.4558   3
  -4 -10   8 145.923 9.09309   7
  -4 -10   8 150.651 10.0611   1
  -4  10   8 132.939 10.9118  11
   4  10  -8 133.913 10.3460   2
  -4  10   8 133.845 8.91940   6
   2 -10  -8 7.18307 3.07033  12
   2 -10  -8 11.3751 4.50617   3
  -2 -10   8 10.8161 3.61211   7
  -2  10   8 8.13042 3.44944   6
   2  10  -8 6.75082 3.22103  12
   2  10  -8 4.19148 4.59200   2
   0 -10  -8 34.5191 6.31508   3
   0 -10  -8 35.3511 4.97249  12
   0 -10   8 44.4369 6.60782   7
   0  10  -8 45.4273 7.31349   2
   0  10  -8 33.8900 5.31027  12
   0  10   8 47.8267 6.47156   6
   5 -11  -8 164.446 11.1978   3
  -5 -11   8 162.126 11.0080   1
   5 -11  -8 160.117 10.2378  12
  -5  11   8 157.691 9.88189   6
   5  11  -8 145.911 10.1921   2
  -5  11   8 157.595 12.3036  11
   3 -11  -8 85.3704 9.07628   3
  -3 -11   8 87.4095 7.87003   1
   3 -11  -8 82.6853 7.43682  12
   3  11  -8 115.879 10.0660   2
  -3  11   8 74.2537 7.35602   6
  -1 -11   8 231.204 12.3611   7
   1 -11  -8 235.963 12.1935  12
   1 -11  -8 231.377 13.2220   3
  -1  11   8 237.921 12.2065   6
   1  11  -8 194.487 15.1101   2
 -12   0   9 -1.3505 5.29479  11
  12   0  -9 -1.9992 3.24092   4
 -12   0   9 3.18020 3.41982   8
 -10   0   9 -0.9147 3.12039   1
 -10   0   9 0.26819 2.05623   8
  10   0  -9 2.95604 2.84094  14
  10   0  -9 0.02287 3.57585   4
 -10   0   9 2.98530 4.83291  11
  -8   0   9 3.66774 3.94732  11
   8   0  -9 1.53876 2.22028  12
  -8   0   9 0.61283 2.90609   1
   8   0  -9 -1.7813 2.80064   4
   8   0  -9 2.24649 2.45628  14
   6   0  -9 0.03129 1.44735  12
  -6   0   9 0.30214 1.73647   1
  -6   0   9 9.12461 3.26718  11
   6   0  -9 -0.3634 2.36391  10
   6   0  -9 3.02808 2.76293   4
   6   0  -9 0.24973 2.08749  14
   4   0  -9 1.17648 1.04486  12
   4   0  -9 0.43054 2.23653  10
  -4   0   9 2.83093 2.32927   1
   4   0  -9 6.63503 2.77444   4
  -4   0   9 0.41114 2.14965  11
  -2   0   9 1.81205 1.67590  11
   2   0  -9 2.33674 0.58147  12
   2   0  -9 -0.9662 2.10213  10
  -2   0   9 0.82001 2.06642  15
  -2   0   9 -0.7117 1.86316   7
  -2   0   9 1.64074 1.88916   1
   0   0   9 -1.3901 1.72727   9
   0   0   9 0.00133 2.30387  15
   0   0   9 0.04592 1.36076   6
   0   0   9 1.14633 1.91504   7
  -4   0  -9 0.31753 1.56980  12
   4   0   9 -0.5287 2.01245   9
   4   0   9 -0.6464 3.29741  15
 -11  -1   9 127.209 12.5632  11
  11  -1  -9 120.947 10.0609   4
 -11  -1   9 128.796 9.24192   8
  11   1  -9 124.882 9.76399   4
 -11   1   9 113.827 12.1817  11
   9  -1  -9 109.783 8.74466   4
   9  -1  -9 113.713 8.20277  12
  -9  -1   9 111.819 10.7860  11
  -9  -1   9 101.125 8.18799   1
  -9  -1   9 112.776 7.78656   8
   9  -1  -9 108.060 7.93109  14
  -9   1   9 110.431 7.58268   1
  -9   1   9 104.462 10.6333  11
   9   1  -9 104.515 8.69392   4
   9   1  -9 122.507 8.14112  14
   9   1  -9 108.127 7.92357  12
   7  -1  -9 6.29056 2.66018   4
  -7  -1   9 9.68000 3.48810  11
   7  -1  -9 6.92519 2.48236  12
   7  -1  -9 8.07212 2.99427  14
  -7  -1   9 6.89474 3.40176   1
  -7   1   9 9.82968 3.45827   1
   7   1  -9 13.9743 3.03646  12
  -7   1   9 14.5775 3.95011  11
   7   1  -9 7.92454 3.56606   4
   7   1  -9 8.56107 2.95127  14
   5  -1  -9 2.10370 1.94247  10
   5  -1  -9 1.21025 2.33140  14
  -5  -1   9 0.65977 2.34204   1
   5  -1  -9 2.05651 1.79792  12
   5  -1  -9 -1.0455 2.14329   4
  -5  -1   9 0.31942 1.67771  11
  -5   1   9 0.80459 2.63965  11
   5   1  -9 0.06012 2.39173   4
  -5   1   9 1.74837 2.17197   1
   5   1  -9 4.03059 1.71011  12
   5   1  -9 2.01544 2.65151  10
  -3  -1   9 229.606 10.0677   7
   3  -1  -9 220.779 7.10323  12
   3  -1  -9 213.631 9.76950   4
   3  -1  -9 193.291 11.2710  10
  -3  -1   9 212.661 10.9594  11
  -3  -1   9 219.223 10.3340   1
   3  -1  -9 234.760 10.5403  14
  -3   1   9 210.889 10.1831   1
  -3   1   9 217.370 11.7452  11
   3   1  -9 224.871 12.3858  10
   3   1  -9 226.526 7.46208  12
  -3   1   9 212.598 9.76167  15
  -1  -1   9 254.983 11.7847  15
  -1  -1   9 259.664 11.1464   1
  -1  -1   9 265.102 11.1034   7
  -1   1   9 279.711 12.0140  15
   1   1  -9 263.702 14.5325  10
  -1   1   9 264.566 10.0872   6
  -1   1   9 284.354 11.0326   9
  -1   1   9 271.495 11.4349   1
  -1   1   9 293.905 13.1698  11
  -1   1   9 269.603 10.8489   7
   1   1  -9 278.619 7.55081  12
   1  -1   9 43.6311 5.28117   9
   1  -1   9 39.1052 4.52890   7
   1  -1   9 33.9765 4.87902  15
  -1  -1  -9 42.7200 1.84849  12
  -1  -1  -9 46.1409 6.18800  16
   1   1   9 52.6698 6.22568  15
   1   1   9 40.2743 4.35039   6
   1   1   9 35.0123 4.70317   9
  -1   1  -9 43.7427 2.55758  12
   3  -1   9 10.7271 3.82365   9
   3  -1   9 13.6848 4.36535  15
  -3  -1  -9 5.14077 2.99759   5
  -3  -1  -9 9.87319 4.07651  16
  -3  -1  -9 10.7494 1.92562  12
   3   1   9 8.55009 3.93273  15
  -3   1  -9 10.4097 2.24397  12
   3   1   9 8.99796 3.33840   9
  12  -2  -9 77.9055 7.62248   4
 -12  -2   9 59.4678 9.45603  11
 -12  -2   9 71.9473 7.67875   8
  12   2  -9 63.8708 7.70651   4
 -12   2   9 82.4222 10.6881  11
 -10  -2   9 115.576 9.02684   1
  10  -2  -9 113.689 8.57326  14
  10  -2  -9 116.675 9.20874   4
 -10  -2   9 125.254 8.68697   8
 -10  -2   9 124.632 10.9974  11
 -10   2   9 117.078 11.5765  11
  10   2  -9 125.859 8.97589   4
  10   2  -9 125.930 8.18083  14
 -10   2   9 120.571 8.46422   1
  -8  -2   9 434.924 16.1379   8
  -8  -2   9 442.475 17.2933   1
   8  -2  -9 446.405 17.2650  14
  -8  -2   9 449.604 20.1355  11
   8  -2  -9 439.276 16.9413  12
   8  -2  -9 428.576 17.0541   4
   8   2  -9 415.188 16.6098  14
   8   2  -9 419.427 16.7030  12
  -8   2   9 422.859 20.2233  11
  -8   2   9 428.445 17.0604   1
   8   2  -9 431.251 17.7379   4
   6  -2  -9 304.719 11.8267  12
  -6  -2   9 317.274 13.6226   1
   6  -2  -9 311.859 12.6997   4
  -6  -2   9 307.911 15.2030  11
   6  -2  -9 305.185 13.0007  14
   6   2  -9 305.138 13.6002   4
  -6   2   9 296.480 14.9968  11
   6   2  -9 302.689 12.0712  12
  -6   2   9 316.753 13.2149   1
   6   2  -9 275.686 15.9032  10
   4  -2  -9 305.966 10.5022  12
  -4  -2   9 295.469 13.6012  11
   4  -2  -9 298.070 12.7168  14
   4  -2  -9 317.740 12.3731   4
  -4  -2   9 317.725 13.2104   1
  -4  -2   9 314.128 12.6485   7
  -4   2   9 320.689 15.2250  11
   4   2  -9 317.529 10.8293  12
  -4   2   9 311.149 13.0954   1
   4   2  -9 302.603 15.8072  10
   2  -2  -9 422.834 14.8284   4
   2  -2  -9 398.428 15.1332  14
  -2  -2   9 407.026 15.4795   1
   2  -2  -9 441.393 11.3508  12
  -2  -2   9 413.201 15.3675   7
   2   2  -9 423.438 12.4820  12
  -2   2   9 428.296 15.7862   1
  -2   2   9 418.251 13.8438   6
  -2   2   9 450.450 18.2256  11
  -2   2   9 439.649 15.6819  15
   2   2  -9 412.690 14.8373   2
   2   2  -9 384.945 18.4884  10
   0  -2   9 153.163 9.00272   9
   0  -2  -9 155.401 9.37672  13
   0  -2   9 208.051 9.45352   7
   0  -2   9 156.247 9.47896  15
   0   2   9 159.072 10.0315  11
   0   2   9 152.737 7.63615   6
   0   2   9 156.617 8.17818   1
   0   2   9 161.495 8.09217   9
   0   2  -9 154.064 5.77244  12
   0   2   9 149.467 8.64183  15
   2  -2   9 232.716 10.8509   7
  -2  -2  -9 216.384 7.51153  12
  -2  -2  -9 195.121 12.7248  16
   2  -2   9 246.207 12.5237  15
   2  -2   9 214.656 11.7842   9
  -2  -2  -9 261.805 14.2738   8
   2   2   9 234.598 12.2860  15
  -2   2  -9 233.991 8.43396  12
   2   2   9 219.053 10.6829   6
   2   2   9 217.109 10.8346   9
  -4  -2  -9 198.212 8.42163  12
  -4  -2  -9 200.854 10.8473   5
   4  -2   9 199.074 11.6794   9
   4   2   9 191.277 11.3245   9
   4   2   9 208.105 12.4599  15
  -4   2  -9 201.318 8.99232  12
 -11  -3   9 102.233 10.5495  11
  11  -3  -9 106.581 9.11728   4
 -11  -3   9 112.244 8.38528   8
 -11  -3   9 95.2260 8.45968   1
 -11   3   9 93.1834 11.0317  11
  11   3  -9 102.052 9.13260   4
  -9  -3   9 3.02648 3.52872   1
  -9  -3   9 2.08087 2.56909   8
  -9  -3   9 0.29855 2.81789  11
   9  -3  -9 2.81174 2.56716  12
   9  -3  -9 0.40496 2.77349  14
   9  -3  -9 -1.3418 3.22110   4
  -9   3   9 2.13800 2.93711   1
  -9   3   9 1.15010 3.04854  11
   9   3  -9 12.0580 4.10701   4
   9   3  -9 0.65001 2.51057  12
  -9   3   9 1.85666 2.05442   5
   9   3  -9 -0.3046 2.05421  14
   7  -3  -9 63.1001 6.16420   4
  -7  -3   9 69.9469 7.24985  11
   7  -3  -9 61.5003 5.52108  12
   7  -3  -9 59.3227 6.10816  14
  -7  -3   9 59.8923 6.64625   1
  -7   3   9 68.3776 6.57254   1
   7   3  -9 60.1296 5.59142  12
   7   3  -9 64.5928 7.01523   4
   7   3  -9 68.0535 6.12057  14
  -7   3   9 53.8557 7.60247  11
  -5  -3   9 2.30474 2.57641  11
   5  -3  -9 2.32711 1.69085  12
  -5  -3   9 -0.4986 1.65235   7
   5  -3  -9 2.11307 2.55585  14
  -5  -3   9 1.10823 2.43363   1
   5  -3  -9 5.57802 2.53188   4
   5   3  -9 -0.0755 2.70251   4
  -5   3   9 1.41323 3.11203  11
  -5   3   9 -2.2189 2.42096   1
   5   3  -9 0.17270 1.54443  12
   3  -3  -9 2.38368 1.91008   4
   3  -3  -9 2.24634 1.29109  12
  -3  -3   9 2.21370 2.20097   1
  -3  -3   9 3.27911 1.83452   7
   3  -3  -9 -0.8325 2.00652  14
   3   3  -9 0.55221 1.21284  12
  -3   3   9 0.21613 2.05999   1
  -3   3   9 1.37112 1.69951  15
  -3   3   9 2.58595 1.44821   6
  -3   3   9 0.82484 2.56978  11
   3   3  -9 4.60384 3.17434  10
   3   3  -9 -0.7874 1.89815   2
  -1  -3   9 35.6739 4.18974   1
  -1  -3   9 37.8270 4.80502   7
   1  -3  -9 35.5271 2.15991  12
   1  -3  -9 34.7649 5.23559  13
  -1   3   9 52.5859 5.14348  15
  -1   3   9 45.5363 5.08132   1
   1   3  -9 43.5700 4.96432   2
   1   3  -9 40.0425 3.15839  12
  -1   3   9 31.7952 5.14676  11
   1  -3   9 25.8743 4.63438   9
   1  -3   9 25.3889 4.85932  15
   1  -3   9 25.4643 4.25477   7
  -1  -3  -9 22.9423 2.13477  12
  -1   3  -9 27.7869 4.79296   2
  -1   3  -9 25.3291 2.87183  12
   1   3   9 20.0777 4.12755  15
   1   3   9 22.3963 3.81576   6
   3  -3   9 63.9971 7.06785   9
   3  -3   9 62.9354 6.09522   7
  -3  -3  -9 57.1206 4.16156  12
   3  -3   9 49.2165 6.50907  15
  -3  -3  -9 57.3906 6.61687   5
   3   3   9 58.1230 7.15446  15
   3   3   9 50.8923 5.75754   6
  -3   3  -9 61.2390 4.82128  12
   3   3   9 56.9443 5.88285   9
 -10  -4   9 71.5472 6.50990   8
 -10  -4   9 84.3719 8.51341   1
  10  -4  -9 75.3285 7.88708   4
 -10  -4   9 71.9002 9.68269  11
  10  -4  -9 81.0792 7.35665   3
 -10   4   9 78.0423 8.71695  11
 -10   4   9 66.2779 6.14592   5
  10   4  -9 59.2518 7.08014   4
   8  -4  -9 25.8535 4.62229  14
  -8  -4   9 34.6092 6.39806  11
   8  -4  -9 30.2246 4.79588   4
   8  -4  -9 23.2232 4.18798  12
  -8  -4   9 23.1265 4.45920   1
  -8  -4   9 21.8008 3.45624   8
   8   4  -9 27.8048 5.12130   4
  -8   4   9 20.8470 4.31137   1
   8   4  -9 19.2963 3.95549  12
   8   4  -9 30.5930 4.43106  14
  -8   4   9 25.4530 6.19876  11
  -6  -4   9 294.548 13.6719   1
   6  -4  -9 296.520 12.3067   4
   6  -4  -9 295.397 13.3185  14
  -6  -4   9 314.532 15.1115  11
   6  -4  -9 307.093 12.5796  12
   6   4  -9 295.243 12.4260  12
  -6   4   9 292.988 15.8442  11
   6   4  -9 316.865 13.9469   4
  -6   4   9 304.849 13.5726   1
   4  -4  -9 168.152 8.97782  14
   4  -4  -9 168.175 7.57870  12
  -4  -4   9 150.969 8.97404   1
  -4  -4   9 163.951 10.8661  11
  -4  -4   9 154.751 8.72279   7
  -4   4   9 177.633 9.40879   1
   4   4  -9 160.818 7.78087  12
   4   4  -9 159.429 8.25953   2
  -4   4   9 156.391 7.24164   6
  -4   4   9 172.259 11.4630  11
   2  -4  -9 4.72025 1.49931  12
   2  -4  -9 4.24793 2.40992  14
  -2  -4   9 0.81467 2.29265   7
  -2  -4   9 0.18598 1.95837   1
  -2   4   9 5.71117 2.13780   6
   2   4  -9 1.25010 2.48431   2
   2   4  -9 1.70155 1.74284  12
  -2   4   9 1.73921 3.04128  11
  -2   4   9 2.77668 2.39982   1
  -2   4   9 -0.5752 1.68349  15
   0  -4  -9 155.705 6.07504  12
   0  -4   9 164.011 9.18734   7
   0  -4  -9 145.953 9.90442  13
   0   4   9 154.973 8.45504   6
   0   4   9 140.774 10.3992  11
   0   4   9 161.578 9.17898  15
   0   4  -9 160.866 9.64855   2
   0   4  -9 164.004 7.10973  12
  -2  -4  -9 104.126 8.28000   8
  -2  -4  -9 107.979 5.43385  12
   2  -4   9 114.751 8.98038   9
  -2  -4  -9 86.7722 8.97857  16
   2  -4   9 95.1863 7.59664   7
   2   4   9 112.876 8.55355  15
  -2   4  -9 109.057 6.34391  12
  -2   4  -9 94.9539 8.64839   2
   2   4   9 96.7960 7.41930   6
   4  -4   9 17.5566 4.29947   7
  -4  -4  -9 29.9875 4.13102  12
   4  -4   9 22.6593 5.14950   9
  -4  -4  -9 26.8457 5.22132   5
  -4   4  -9 23.5307 3.71113  12
   4   4   9 19.2812 4.70272  15
  -4   4  -9 17.3430 5.01051   2
 -11  -5   9 42.1866 8.19952  11
 -11  -5   9 46.5312 6.67007   1
 -11  -5   9 50.2783 5.43907   8
  11  -5  -9 41.3456 5.68065   4
  11   5  -9 56.3910 7.23540   4
 -11   5   9 55.4698 8.40556  11
  -9  -5   9 17.5566 4.89044   1
   9  -5  -9 21.9772 4.44016   3
  -9  -5   9 15.5059 5.56038  11
   9  -5  -9 18.1067 4.01651  12
   9  -5  -9 18.1927 4.33831   4
  -9   5   9 20.2028 6.02117  11
   9   5  -9 20.1972 4.69925   4
  -9   5   9 16.2460 4.09930   1
   7  -5  -9 130.281 9.02260  14
  -7  -5   9 143.914 9.80575   1
   7  -5  -9 145.354 9.52504   3
   7  -5  -9 143.536 8.26800   4
  -7  -5   9 149.835 10.5479  11
   7  -5  -9 126.321 8.26284  12
  -7   5   9 133.819 9.33786   1
  -7   5   9 135.651 11.2171  11
   7   5  -9 137.977 8.72068  12
   7   5  -9 136.712 9.55608   4
  -5  -5   9 417.296 21.2805  11
   5  -5  -9 484.893 18.4923   3
   5  -5  -9 465.540 17.7936  14
   5  -5  -9 474.818 16.6418  12
  -5  -5   9 477.765 18.3178   1
  -5  -5   9 490.601 17.5015   7
  -5   5   9 498.823 18.2991   1
  -5   5   9 513.512 16.1624   6
  -5   5   9 497.477 21.4228  11
   5   5  -9 473.407 18.4480   4
   5   5  -9 485.182 17.1783  12
   5   5  -9 418.739 16.3196   2
  -3  -5   9 14.9002 3.83911   7
   3  -5  -9 15.0134 3.93044   3
   3  -5  -9 9.88509 3.03181  14
   3  -5  -9 11.5452 2.51071  12
  -3  -5   9 10.9424 3.09432   1
  -3   5   9 12.5507 2.78667   6
   3   5  -9 11.5742 2.54344  12
  -3   5   9 14.5079 3.98117  11
   3   5  -9 12.7862 3.52704   2
  -3   5   9 11.9817 3.70628   1
   1  -5  -9 8.88300 1.96996  12
   1  -5  -9 9.80169 3.77194  13
   1  -5  -9 6.88492 3.17217   3
  -1  -5   9 14.2801 3.21045   7
   1   5  -9 8.34834 2.24093  12
  -1   5   9 5.00240 2.11667   6
  -1   5   9 16.6920 4.83698  11
  -1   5   9 11.8332 3.09235  15
   1   5  -9 13.4780 3.90461   2
  -1  -5  -9 168.303 7.26995  12
   1  -5   9 174.140 10.1380   7
  -1  -5  -9 173.386 11.0128  13
  -1   5  -9 164.866 8.22023  12
   1   5   9 179.803 9.51558   6
   1   5   9 161.025 9.82637  15
  -1   5  -9 170.866 10.9518   2
   3  -5   9 32.4230 5.09311   7
  -3  -5  -9 42.0366 4.33563  12
  -3  -5  -9 37.3615 6.07519   8
   3   5   9 56.1120 7.20438  15
  -3   5  -9 38.2339 6.38877   2
  -3   5  -9 41.2921 4.88120  12
   3   5   9 27.8823 4.55404   6
 -10  -6   9 133.476 10.3616   1
 -10  -6   9 137.364 12.3864  11
  10  -6  -9 141.215 9.46436   4
 -10   6   9 127.034 11.6583  11
  10   6  -9 123.159 9.56517   4
 -10   6   9 126.997 8.61739   5
   8  -6  -9 2.76160 2.63157  12
  -8  -6   9 3.87787 3.86959  11
  -8  -6   9 0.95146 2.72556   1
   8  -6  -9 0.34425 3.15962  14
   8  -6  -9 6.27738 3.37720   3
   8   6  -9 0.72392 2.28091   4
   8   6  -9 0.33380 2.22061  14
   8   6  -9 2.42155 2.86948  12
  -8   6   9 1.93121 4.52003  11
   6  -6  -9 41.6061 5.16174  12
   6  -6  -9 35.8876 5.19153  14
  -6  -6   9 42.3302 5.06033   7
  -6  -6   9 33.7579 5.55773   1
   6  -6  -9 38.4313 5.73095   3
  -6   6   9 47.0259 4.71566   6
   6   6  -9 38.4060 5.62551   4
  -6   6   9 38.2240 6.90393  11
   6   6  -9 34.1533 4.76288  12
   4  -6  -9 97.0297 7.11615  14
   4  -6  -9 93.4685 6.41481  12
   4  -6  -9 99.2432 8.36484   3
  -4  -6   9 101.686 7.84697   1
  -4  -6   9 99.9032 7.58175   7
  -4   6   9 97.0410 9.86164  11
   4   6  -9 99.6103 6.92422  12
  -4   6   9 98.7307 6.54576   6
   4   6  -9 98.7000 7.57041   2
   2  -6  -9 37.4261 4.07832  12
   2  -6  -9 37.0684 5.59603   3
  -2  -6   9 44.1467 5.80858   7
   2  -6  -9 36.2810 5.51376  13
  -2  -6   9 31.4597 4.41010   1
  -2   6   9 29.5671 5.58436  11
   2   6  -9 42.5851 5.67188   2
   2   6  -9 38.8709 4.49339  12
  -2   6   9 36.8722 4.49987   6
   0  -6   9 161.883 9.87741   7
   0  -6  -9 167.797 11.4148  13
   0  -6  -9 162.395 7.82026  12
   0   6   9 171.289 9.54916  15
   0   6  -9 169.984 8.74454  12
   0   6  -9 163.612 10.5778   2
   0   6   9 171.640 9.65344   6
  -2  -6  -9 27.5406 5.54136   8
   2  -6   9 13.9096 4.20478   7
  -2  -6  -9 21.6868 3.28294  12
  -2   6  -9 21.4511 4.77927   2
  -2   6  -9 19.8369 3.86374  12
   2   6   9 17.9785 3.89057  15
   2   6   9 20.6300 4.41777   6
   9  -7  -9 57.4541 6.80767   3
  -9  -7   9 46.5541 6.53503   1
  -9  -7   9 51.4483 8.32877  11
  -9   7   9 46.7273 7.68170  11
   9   7  -9 45.8496 6.56979   4
  -7  -7   9 204.225 11.9172   1
   7  -7  -9 174.334 10.7827  14
   7  -7  -9 188.868 10.5916  12
   7  -7  -9 181.215 11.1893   3
   7   7  -9 181.722 10.7703  12
  -7   7   9 192.473 9.16046   6
  -7   7   9 191.818 13.2992  11
   7   7  -9 166.195 10.8418   4
  -5  -7   9 41.4869 5.65633   7
   5  -7  -9 47.4794 5.40846  12
   5  -7  -9 32.1731 5.90649  13
   5  -7  -9 53.5913 6.39871   3
   5  -7  -9 46.8477 5.40397  14
  -5  -7   9 56.4322 6.82862   1
   5   7  -9 38.9416 5.43639   2
   5   7  -9 41.7201 5.41343  12
  -5   7   9 43.2309 4.88480   6
  -5   7   9 42.5876 7.52456  11
   5   7  -9 37.6467 5.33107   4
  -3  -7   9 93.5450 7.52147   1
  -3  -7   9 92.7157 7.62259   7
   3  -7  -9 98.1767 6.93023  12
   3  -7  -9 94.7336 8.38310  13
   3  -7  -9 97.5909 8.33190   3
   3   7  -9 86.3793 7.94146   2
  -3   7   9 94.7253 9.07257  11
   3   7  -9 94.4522 6.90690  12
  -3   7   9 90.5079 6.31873   6
   1  -7  -9 36.1457 4.27161  12
   1  -7  -9 30.3072 5.89035  13
   1  -7  -9 32.9692 5.52502   3
  -1  -7   9 36.7717 5.82135   7
  -1   7   9 38.3157 4.75135   6
   1   7  -9 35.9434 4.67401  12
   1   7  -9 35.5769 5.99514   2
  -1  -7  -9 4.05851 2.37156  12
   1  -7   9 4.46611 3.53392   7
   1   7   9 6.96287 2.66659  15
   1   7   9 1.85372 2.18535   6
  -1   7  -9 7.77950 2.87229  12
  -1   7  -9 7.04359 4.59340   2
   8  -8  -9 145.146 10.3805   3
   8  -8  -9 158.222 10.1916  12
  -8  -8   9 154.583 11.5362   1
   8   8  -9 139.192 9.88717   4
  -8   8   9 168.717 12.8376  11
   6  -8  -9 31.8459 5.91606  13
  -6  -8   9 31.4467 5.76746   1
   6  -8  -9 23.5780 4.28439  12
   6  -8  -9 24.7646 4.76413   3
  -6  -8   9 23.4393 4.45845   7
   6  -8  -9 18.1527 5.23304  14
   6   8  -9 42.9632 5.69550  12
  -6   8   9 24.8058 5.65856  11
  -6   8   9 26.9143 4.30522   6
   6   8  -9 25.2470 4.72589   2
   6   8  -9 34.3872 5.59782   4
   4  -8  -9 112.859 9.31604   3
  -4  -8   9 117.147 8.74625   1
   4  -8  -9 107.402 9.44631  13
   4  -8  -9 95.8390 7.29282  12
  -4  -8   9 112.675 8.25075   7
  -4   8   9 108.376 7.62309   6
  -4   8   9 97.3728 10.6043  11
   4   8  -9 111.441 8.99324   2
   4   8  -9 103.652 7.82166  12
  -2  -8   9 381.544 16.6296   7
   2  -8  -9 428.629 17.8398   3
   2  -8  -9 407.705 15.6034  12
  -2   8   9 395.779 16.0850   6
   2   8  -9 387.824 15.9695  12
  -2   8   9 382.043 20.0648  11
   2   8  -9 382.771 17.0676   2
   0  -8   9 119.236 9.33492   7
   0  -8  -9 117.616 7.42033  12
   0   8   9 126.633 8.84118   6
   0   8  -9 125.689 8.24362  12
   0   8  -9 125.042 9.35773   2
   2   8   9 25.5608 5.13610  15
   7  -9  -9 -3.0059 3.31809   3
   7  -9  -9 1.76047 2.57514  12
  -7  -9   9 -3.0198 3.28837   1
  -7   9   9 5.24593 2.27655   6
  -7   9   9 -1.7315 4.12476  11
   7   9  -9 5.47182 3.93710   2
   5  -9  -9 5.03047 4.11340   3
  -5  -9   9 5.94950 3.46488   7
  -5  -9   9 8.18434 3.96944   1
   5  -9  -9 4.82138 2.74058  12
   5   9  -9 9.66986 4.18755   2
  -5   9   9 5.74998 2.30413   6
  -5   9   9 2.65140 4.56237  11
   5   9  -9 6.38369 3.25883  12
   5   9  -9 9.80223 3.74605   4
  -3  -9   9 11.7671 3.46082   7
   3  -9  -9 5.84962 2.78357  12
  -3  -9   9 10.5891 3.56262   1
   3  -9  -9 10.5715 3.72125   3
  -3   9   9 13.9673 3.20786   6
   3   9  -9 10.0345 4.59062   2
   3   9  -9 6.27214 3.18786  12
  -3   9   9 10.3253 5.64086  11
   1  -9  -9 26.5205 5.25787   3
  -1  -9   9 44.9219 6.03464   7
   1  -9  -9 32.7061 4.35567  12
   1   9  -9 30.9644 4.85661  12
   1   9  -9 37.0406 6.66552   2
  -1   9   9 46.2278 5.98522   6
   6 -10  -9 23.0308 5.34975   3
  -6 -10   9 15.1957 4.73374   1
   6 -10  -9 18.1200 4.14944  12
  -6  10   9 18.3713 6.14603  11
   6  10  -9 19.8041 5.22953   2
  -6  10   9 29.6751 4.88684   6
  -4 -10   9 5.49758 3.54747   7
   4 -10  -9 5.86372 4.43130   3
   4 -10  -9 2.13099 2.67888  12
  -4 -10   9 1.97286 3.11070   1
   4  10  -9 2.19903 2.93681  12
   4  10  -9 4.71333 3.33884   2
  -4  10   9 2.25502 3.03878   6
  -4  10   9 5.67739 5.03756  11
   2 -10  -9 17.3583 4.98691   3
  -2 -10   9 22.6183 5.29221   7
   2 -10  -9 14.3645 3.45279  12
   2  10  -9 24.5660 5.05354   2
   2  10  -9 16.4925 3.94628  12
 -12   0  10 50.1588 10.5447  11
 -10   0  10 23.9256 7.01386  11
  10   0 -10 18.7493 4.37399   4
 -10   0  10 22.9136 5.06348   1
  10   0 -10 19.0965 4.34542  12
  10   0 -10 19.0802 4.51368  14
  -8   0  10 13.0659 5.14178  11
  -8   0  10 6.77883 3.66098   1
   8   0 -10 8.10462 3.23394  14
   8   0 -10 8.39798 3.06762  12
   8   0 -10 5.11855 3.65911   4
  -6   0  10 394.025 18.2093  11
  -6   0  10 363.240 15.6236   1
   6   0 -10 390.869 15.5128   4
   6   0 -10 367.919 13.9129  12
   6   0 -10 390.450 15.6714  14
   4   0 -10 67.2691 6.30655  14
   4   0 -10 88.8161 4.55702  12
   4   0 -10 68.4669 11.4802  10
   4   0 -10 64.1626 6.36518   4
  -4   0  10 59.7863 6.80207  11
  -4   0  10 64.9792 5.70678   1
   2   0 -10 7.03098 1.04425  12
  -2   0  10 5.71019 3.02640  15
  -2   0  10 4.44206 2.66509  11
  -2   0  10 18.8717 3.63587   7
  -2   0  10 6.03675 2.63416   1
   0   0  10 50.2923 5.90502  15
   0   0  10 46.5300 5.06676   9
   0   0  10 47.5661 5.05159   7
   2   0  10 9.57534 4.18384  15
   2   0  10 10.2017 3.57737   9
  -2   0 -10 11.4963 1.79845  12
  11  -1 -10 287.372 14.8637   4
 -11  -1  10 278.550 14.0493   1
 -11  -1  10 281.786 17.4383  11
  11   1 -10 301.027 14.7922   4
 -11   1  10 267.475 17.7984  11
   9  -1 -10 805.236 28.1154  14
   9  -1 -10 857.983 28.4197  12
   9  -1 -10 822.367 28.4610   4
  -9  -1  10 884.489 29.0212   1
  -9  -1  10 846.156 32.8320  11
  -9   1  10 833.358 28.1103   1
   9   1 -10 837.727 28.2649  12
   9   1 -10 825.233 28.0528  14
   9   1 -10 845.284 29.0734   4
  -9   1  10 835.379 32.3699  11
  -7  -1  10 593.780 22.1491   1
   7  -1 -10 634.693 21.3032  12
   7  -1 -10 634.881 22.4092   4
  -7  -1  10 622.456 25.5214  11
   7  -1 -10 605.816 22.2919  14
  -7   1  10 624.352 22.5177   1
   7   1 -10 636.170 22.3644  14
   7   1 -10 637.707 22.7866   4
  -7   1  10 615.766 25.3306  11
   7   1 -10 668.437 21.6335  12
   5  -1 -10 722.148 23.5147   4
  -5  -1  10 707.883 24.2211   1
   5  -1 -10 721.384 21.4788  12
  -5  -1  10 705.965 25.9666  11
   5  -1 -10 710.075 24.0221  14
  -5   1  10 721.088 24.3023   1
   5   1 -10 693.983 23.7423   4
   5   1 -10 721.426 21.5350  12
  -5   1  10 646.351 25.7435  11
   5   1 -10 685.903 24.1237  14
   3  -1 -10 1189.78 35.0015   4
  -3  -1  10 1148.91 36.9476  11
   3  -1 -10 1194.95 31.1679  12
   3  -1 -10 1105.32 35.0477  14
  -3  -1  10 1238.11 35.4646   7
  -3  -1  10 1198.66 35.8270   1
  -3   1  10 1142.72 35.6421   1
  -3   1  10 1240.70 35.6044  15
  -3   1  10 1147.45 37.8034  11
   3   1 -10 1222.37 31.6811  12
  -1  -1  10 513.591 19.7020  15
  -1  -1  10 494.280 18.0984   7
   1  -1 -10 513.298 18.5654  14
  -1   1  10 517.259 18.7136   1
  -1   1  10 531.326 18.0269   7
  -1   1  10 541.255 19.6492  15
   1   1 -10 524.746 14.2402  12
  -1   1  10 540.071 20.7664  11
  -1  -1 -10 483.678 13.4267  12
   1  -1  10 485.361 19.4665  15
   1  -1  10 525.411 19.5292   9
  -1   1 -10 519.392 14.3298  12
   1   1  10 476.025 18.1479   9
   1   1  10 490.553 19.7715  15
  -3  -1 -10 584.646 17.5611  12
   3  -1  10 594.118 22.6253   9
   3  -1  10 596.859 23.2981  15
   3   1  10 617.829 23.5909  15
   3   1  10 598.936 22.4050   9
  -3   1 -10 578.854 18.0202  12
  10  -2 -10 703.274 26.0854  12
 -10  -2  10 735.958 30.8627  11
  10  -2 -10 765.794 26.4963   4
 -10   2  10 766.605 26.0232   1
 -10   2  10 751.076 30.8375  11
  10   2 -10 811.628 28.5381  14
  10   2 -10 633.422 25.8445  12
  10   2 -10 765.472 27.1070   4
   8  -2 -10 621.061 22.1223   4
   8  -2 -10 563.330 21.4968  14
   8  -2 -10 588.651 21.3773  12
  -8  -2  10 619.615 25.7276  11
  -8  -2  10 636.779 22.6879   1
  -8   2  10 590.834 25.0092  11
   8   2 -10 593.319 21.4519  12
  -8   2  10 589.559 21.9110   1
   8   2 -10 587.609 21.5533  14
   8   2 -10 614.582 22.6602   4
   6  -2 -10 736.609 25.2967  14
   6  -2 -10 753.732 23.6586  12
  -6  -2  10 795.458 26.1363   1
   6  -2 -10 747.441 24.9663   4
  -6  -2  10 744.246 28.0485  11
  -6   2  10 752.407 25.6448   1
   6   2 -10 766.736 24.0663  12
   6   2 -10 760.767 25.8388  14
  -6   2  10 743.269 28.6338  11
   6   2 -10 763.510 26.0244   4
  -4  -2  10 481.600 17.6600   7
   4  -2 -10 470.483 14.7964  12
   4  -2 -10 475.083 17.7631  14
  -4  -2  10 478.047 17.8317   1
  -4  -2  10 456.095 18.8503  11
   4  -2 -10 454.969 16.9000   4
  -4   2  10 475.402 20.4226  11
   4   2 -10 481.618 15.2009  12
  -4   2  10 461.740 17.9416   1
   2  -2 -10 899.206 28.8574  14
   2  -2 -10 956.079 24.2466  12
  -2  -2  10 855.583 28.7185   1
  -2  -2  10 900.779 28.9195   7
   2   2 -10 925.236 25.4034  12
  -2   2  10 951.283 29.4200  15
  -2   2  10 985.763 29.9365   1
  -2   2  10 974.306 32.3339  11
   0  -2  10 1205.73 36.8702   7
   0  -2  10 1258.54 38.6883  15
   0   2  10 1207.87 37.8645  15
   0   2 -10 1297.23 32.9530  12
   0   2 -10 1280.28 37.6046   2
   0   2  10 1172.41 35.7740   6
  -2  -2 -10 365.278 15.4506   5
  -2  -2 -10 365.704 11.4254  12
   2  -2  10 397.542 16.6776   9
   2  -2  10 405.735 17.5710  15
   2   2  10 391.744 17.0300  15
  -2   2 -10 382.095 12.4582  12
   2   2  10 318.391 15.0886   9
 -11  -3  10 107.110 8.07614   8
 -11  -3  10 100.922 11.4795  11
 -11  -3  10 98.1607 8.99624   1
  11  -3 -10 101.525 9.11666   4
  11   3 -10 95.6009 9.16975   4
 -11   3  10 99.4534 11.5003  11
   9  -3 -10 244.662 12.9037   4
   9  -3 -10 275.656 13.2301  12
   9  -3 -10 248.723 12.9264  14
  -9  -3  10 271.592 16.0607  11
  -9  -3  10 254.848 13.7652   1
   9   3 -10 270.250 13.1817  12
   9   3 -10 229.173 12.1832  14
  -9   3  10 252.056 16.0362  11
   9   3 -10 273.884 13.9986   4
  -9   3  10 262.320 13.0104   1
  -7  -3  10 90.8257 8.18089   1
  -7  -3  10 106.800 9.65820  11
   7  -3 -10 88.4702 7.54787  14
   7  -3 -10 87.5519 6.69207  12
   7  -3 -10 130.639 8.27158   4
  -7   3  10 90.2596 9.52504  11
   7   3 -10 93.5424 8.10122   4
  -7   3  10 85.9400 7.11618   1
   7   3 -10 96.0344 7.62339  14
   7   3 -10 86.8722 6.70339  12
   5  -3 -10 68.6862 6.53793  14
  -5  -3  10 70.9768 7.03210  11
   5  -3 -10 69.8146 6.01162   4
  -5  -3  10 80.7269 6.80440   7
  -5  -3  10 67.8946 6.69002   1
   5  -3 -10 70.1810 5.33467  12
  -5   3  10 69.7461 6.10406   1
  -5   3  10 70.1287 8.18615  11
   5   3 -10 70.1767 5.31377  12
   5   3 -10 68.0333 6.33198   4
   3  -3 -10 310.618 13.5465  14
  -3  -3  10 311.268 13.7006   1
   3  -3 -10 330.047 10.8253  12
  -3  -3  10 302.548 13.4481   7
  -3   3  10 334.134 13.2590  15
   3   3 -10 310.630 11.2943  12
  -3   3  10 345.362 14.3995   1
  -3   3  10 356.444 17.0212  11
   1  -3 -10 156.128 5.55817  12
   1  -3 -10 160.944 10.5930  13
  -1  -3  10 172.367 9.67978   7
  -1   3  10 168.660 11.2458  11
   1   3 -10 171.700 6.90700  12
   1   3 -10 161.318 9.48669   2
  -1   3  10 153.580 7.86820   6
  -1   3  10 158.174 9.29721  15
   1  -3  10 117.655 8.13606   7
  -1  -3 -10 117.570 4.76864  12
  -1  -3 -10 110.061 9.81264  16
  -1  -3 -10 115.832 8.31061   8
   1   3  10 110.256 8.11642  15
   1   3  10 114.893 7.36587   6
  -1   3 -10 116.945 5.87314  12
  -1   3 -10 120.666 9.03801   2
  -3  -3 -10 134.107 6.25003  12
   3  -3  10 140.984 9.89594   9
  -3  -3 -10 135.838 9.37039   5
  -3   3 -10 149.110 10.6925   2
  -3   3 -10 152.628 7.61338  12
   3   3  10 146.521 9.87539  15
 -10  -4  10 474.255 19.4750   1
  10  -4 -10 473.120 18.9805   4
  10  -4 -10 404.799 24.6060  12
  10  -4 -10 462.083 18.8999   3
 -10  -4  10 476.858 23.2799  11
 -10   4  10 471.603 18.7415   1
  10   4 -10 496.832 20.2909   4
 -10   4  10 422.870 21.9784  11
  -8  -4  10 805.874 30.6993  11
   8  -4 -10 804.306 26.0885   4
   8  -4 -10 769.609 26.2640  12
  -8  -4  10 777.317 27.3875   1
   8  -4 -10 757.220 26.6304  14
  -8   4  10 770.517 26.3828   1
  -8   4  10 775.407 30.4861  11
   8   4 -10 807.029 27.7434   4
   8   4 -10 766.723 26.3085  12
   8   4 -10 700.403 25.5889  14
   6  -4 -10 1652.79 48.3680  14
  -6  -4  10 1657.78 48.8787   1
  -6  -4  10 1674.23 51.1610  11
   6  -4 -10 1688.57 46.9968  12
  -6   4  10 1631.02 52.2379  11
  -6   4  10 1653.42 48.6683   1
   6   4 -10 1705.13 49.1935   4
   6   4 -10 1636.24 47.0075  12
   4  -4 -10 1593.80 42.1266  12
  -4  -4  10 1470.69 44.2439   7
  -4  -4  10 1455.10 44.7446   1
   4  -4 -10 1559.03 44.4413  14
   4   4 -10 1450.18 42.3935  12
  -4   4  10 1574.71 45.5653   1
  -4   4  10 1590.20 48.7622  11
   2  -4 -10 811.981 27.5562   3
  -2  -4  10 865.194 27.5644   7
   2  -4 -10 829.077 23.4502  12
  -2  -4  10 794.548 26.6327   1
   2  -4 -10 815.691 29.6558  13
  -2   4  10 812.733 25.5074   6
   2   4 -10 840.325 26.8433   2
   2   4 -10 851.720 24.6071  12
  -2   4  10 839.779 30.7793  11
  -2   4  10 828.639 26.6869  15
   0  -4 -10 782.940 21.6860  12
   0  -4 -10 724.441 27.5054  13
   0  -4  10 760.094 26.0907   7
   0   4 -10 799.931 23.3186  12
   0   4 -10 807.901 26.9168   2
   0   4  10 780.279 26.3130  15
   0   4  10 756.452 25.1149   6
   2  -4  10 634.773 23.1923   7
  -2  -4 -10 645.789 19.2294  12
  -2  -4 -10 635.536 23.7215   8
   2   4  10 644.139 24.0780  15
  -2   4 -10 634.914 20.5205  12
  -2   4 -10 667.526 24.4821   2
   2   4  10 662.250 22.9637   6
  11   5 -10 259.672 15.9527   4
   9  -5 -10 423.701 17.7459   3
   9  -5 -10 419.413 16.7493   4
   9  -5 -10 412.183 17.2551  12
  -9  -5  10 396.894 18.2072   1
  -9  -5  10 386.447 20.4066  11
  -9   5  10 417.312 17.3832   1
   9   5 -10 395.933 17.8762   4
  -9   5  10 364.490 20.0910  11
   9   5 -10 368.064 17.3707  12
   7  -5 -10 724.081 24.6838  12
   7  -5 -10 701.556 25.3176  14
   7  -5 -10 748.284 26.3115   3
  -7  -5  10 748.941 28.2805  11
  -7  -5  10 750.607 26.2597   1
  -7   5  10 724.078 29.2447  11
   7   5 -10 729.819 25.2531  12
  -7   5  10 710.984 25.5227   1
   7   5 -10 719.376 26.2010   4
   5  -5 -10 856.970 27.8629  14
   5  -5 -10 818.081 28.6778   3
   5  -5 -10 854.267 26.3830  12
  -5  -5  10 835.613 28.3238   1
  -5  -5  10 830.025 27.6953   7
   5   5 -10 805.251 28.3070   4
  -5   5  10 922.564 32.5013  11
   5   5 -10 820.032 26.7079  12
  -5   5  10 866.840 28.8318   1
  -3  -5  10 655.387 22.8350   7
   3  -5 -10 644.682 25.5200  13
   3  -5 -10 674.764 20.3811  12
  -3  -5  10 650.430 22.7945   1
   3  -5 -10 664.696 23.8514   3
  -3   5  10 624.616 20.8700   6
  -3   5  10 626.741 26.0927  11
   3   5 -10 622.768 20.7091  12
   3   5 -10 646.698 22.2125   2
   1  -5 -10 449.410 14.2814  12
   1  -5 -10 422.750 17.4705   3
   1  -5 -10 416.120 18.8793  13
  -1  -5  10 448.196 17.3670   7
  -1   5  10 426.726 16.3493   6
   1   5 -10 433.365 15.3256  12
  -1   5  10 436.469 20.6249  11
  -1   5  10 429.250 16.9368  15
   1   5 -10 439.619 17.7251   2
  -1  -5 -10 361.355 12.6705  12
   1  -5  10 372.062 16.1847   7
   1   5  10 376.172 15.7142   6
  -1   5 -10 386.006 14.1244  12
  -1   5 -10 392.557 17.5518   2
   1   5  10 361.048 16.3608  15
 -10  -6  10 167.626 11.7444   1
 -10  -6  10 149.613 13.0794  11
  10   6 -10 148.629 10.7001   4
 -10   6  10 153.772 13.0884  11
   8  -6 -10 72.9506 7.90539   3
  -8  -6  10 92.2293 9.12959   1
  -8  -6  10 97.0173 9.05537  11
   8  -6 -10 85.1458 7.34653  12
   8   6 -10 87.2427 7.71707  12
  -8   6  10 103.862 11.2736  11
   8   6 -10 89.9491 8.44868   4
   6  -6 -10 16.5536 3.57588  12
  -6  -6  10 12.2775 4.13375   7
   6  -6 -10 17.5243 4.76060   3
  -6  -6  10 23.7620 5.04825   1
   6  -6 -10 19.9109 4.55425  14
   6   6 -10 25.9293 5.30953   4
  -6   6  10 22.4621 6.12311  11
   6   6 -10 18.6161 3.88709  12
   4  -6 -10 45.7222 5.55031  14
   4  -6 -10 47.4583 6.56950   3
  -4  -6  10 54.3244 6.54049   7
   4  -6 -10 48.2170 7.35652  13
   4  -6 -10 51.8682 5.25147  12
  -4  -6  10 43.6064 5.68836   1
  -4   6  10 43.9435 4.79549   6
  -4   6  10 40.4499 7.28915  11
   4   6 -10 53.8729 5.49985  12
   4   6 -10 39.2586 5.54394   2
   2  -6 -10 93.4098 6.05568  12
   2  -6 -10 101.218 8.39242   3
  -2  -6  10 97.2816 7.99085   7
   2  -6 -10 84.5914 8.07114  13
  -2   6  10 91.2634 9.82957  11
  -2   6  10 96.2448 6.97494   6
   2   6 -10 89.4362 8.11978   2
   2   6 -10 98.0918 6.96680  12
   0  -6  10 122.909 9.12694   7
   0  -6 -10 124.695 6.64019  12
   0   6  10 127.746 8.52799   6
   0   6 -10 123.751 7.48093  12
   0   6 -10 120.141 9.78401   2
   0   6  10 123.714 8.47294  15
  -9  -7  10 534.393 21.5882   1
   9  -7 -10 451.896 19.4365  12
  -9   7  10 459.655 22.1695  11
   9   7 -10 470.924 19.5357   4
   7  -7 -10 523.060 20.2276  12
   7  -7 -10 557.384 21.9060   3
  -7  -7  10 532.923 21.4606   1
   7   7 -10 501.495 21.0391   4
   7   7 -10 489.493 20.3032  12
  -7   7  10 574.191 24.8498  11
  -5  -7  10 417.231 17.8808   1
  -5  -7  10 408.695 16.8592   7
   5  -7 -10 419.430 16.3490  12
   5  -7 -10 399.170 18.1609   3
  -5   7  10 409.066 15.5401   6
   5   7 -10 411.551 17.9372   4
  -5   7  10 388.327 20.6028  11
   5   7 -10 380.433 16.4484   2
  -3  -7  10 497.344 19.2243   1
   3  -7 -10 484.720 17.4599  12
   3  -7 -10 491.040 20.1330   3
  -3  -7  10 466.334 18.5827   7
   3   7 -10 480.528 18.0288  12
  -3   7  10 458.443 17.6720   6
   3   7 -10 468.217 19.0861   2
  -3   7  10 500.043 23.2443  11
   1  -7 -10 789.350 29.4337   3
   1  -7 -10 835.103 25.7638  12
  -1  -7  10 850.950 28.6495   7
   1   7 -10 869.805 27.1521  12
   1   7 -10 804.312 28.4464   2
  -1   7  10 815.815 27.4706   6
  -1  -7 -10 439.405 22.4618   8
  -1   7 -10 384.446 19.1057   2
  -1   7 -10 469.065 17.5289  12
   1   7  10 459.054 18.3865  15
   1   7  10 481.397 18.6247   6
   8  -8 -10 214.467 12.0316  12
   8  -8 -10 206.415 12.2258   3
  -8  -8  10 216.391 13.7607   1
  -8   8  10 233.898 15.7753  11
   8   8 -10 203.939 12.2087   4
  -6  -8  10 181.678 11.8883   1
   6  -8 -10 192.354 12.1010   3
   6  -8 -10 172.257 10.4291  12
  -6  -8  10 207.417 10.8257   7
   6   8 -10 183.368 11.0091  12
  -6   8  10 191.488 14.6018  11
  -6   8  10 157.990 9.34833   6
   6   8 -10 196.394 11.7122   4
   4  -8 -10 447.064 16.8293  12
  -4  -8  10 406.093 17.7400   1
   4  -8 -10 416.021 18.6777   3
  -4  -8  10 419.707 17.3670   7
   4   8 -10 399.992 17.5667   2
   4   8 -10 402.539 16.8452  12
  -4   8  10 384.022 15.9066   6
  -4   8  10 374.913 20.0619  11
  -2  -8  10 207.372 11.9429   7
   2  -8 -10 198.512 12.1662   3
   2  -8 -10 206.743 10.4815  12
   2   8 -10 198.101 12.4735   2
   2   8 -10 208.194 10.8620  12
  -2   8  10 199.674 10.6098   6
   0  -8  10 78.3282 8.64821   7
   0  -8 -10 74.6178 5.97704  12
   0   8  10 75.8882 7.60537   6
   0   8 -10 77.8711 6.72886  12
   0   8 -10 69.7996 8.42599   2
   7  -9 -10 136.938 9.54134  12
  -7  -9  10 152.609 10.5503   1
   7  -9 -10 140.143 9.93313   3
   7   9 -10 140.083 9.91110   4
  -7   9  10 136.702 12.5768  11
  -5  -9  10 174.047 10.7704   7
  -5  -9  10 186.797 11.6912   1
   5  -9 -10 192.601 12.4339   3
   5  -9 -10 190.577 10.9062  12
   5   9 -10 184.237 11.3044   2
   5   9 -10 181.762 10.7840  12
  -5   9  10 173.296 9.96173   6
   5   9 -10 167.139 11.2520   4
  -5   9  10 170.484 14.2642  11
   3  -9 -10 20.9756 4.04877  12
   3  -9 -10 17.6491 5.10627   3
  -3  -9  10 11.2917 4.45041   7
  -3   9  10 15.3825 6.24926  11
   3   9 -10 17.6292 4.19321  12
   3   9 -10 17.2028 5.23359   2
  -3   9  10 13.2742 3.73146   6
  10   0 -11 2.00554 2.92291  12
 -10   0  11 1.48998 4.62819  11
  10   0 -11 2.45197 3.28903   4
 -10   0  11 0.53114 3.90637   1
   8   0 -11 0.19398 2.30425  12
  -8   0  11 -0.2306 3.34625   1
   8   0 -11 -1.2628 2.61683  14
   8   0 -11 0.89160 2.50834   4
  -8   0  11 2.18696 3.90289  11
   6   0 -11 1.52960 1.98730  12
  -6   0  11 -1.5961 2.77942   1
  -6   0  11 -0.9581 2.92338  11
   6   0 -11 0.36410 2.23036   4
   6   0 -11 0.09079 2.82976  14
   4   0 -11 1.43928 1.48684  12
   4   0 -11 3.88740 2.92896  14
  -4   0  11 0.33580 2.60887  11
   4   0 -11 1.06148 2.84657   4
  -4   0  11 0.38724 2.69161   1
   2   0 -11 0.30650 0.89876  12
   2   0 -11 5.93108 3.17499  14
  -2   0  11 -0.3986 2.18429   1
   0   0  11 2.11456 2.36261  15
   2   0  11 -3.8051 2.35539   9
  -2   0 -11 2.92278 1.37002  12
   2   0  11 -1.2313 2.38196  15
 -11  -1  11 69.7078 7.83437   1
 -11  -1  11 69.7444 10.1192  11
  11  -1 -11 65.3746 8.02991   4
 -11   1  11 63.8465 10.2099  11
  11   1 -11 68.9462 7.52863   4
 -11   1  11 58.7024 7.22805   1
   9  -1 -11 193.135 11.6657   4
   9  -1 -11 181.333 10.6507  12
  -9  -1  11 200.396 12.2419   1
  -9  -1  11 187.415 14.2060  11
  -9   1  11 180.244 11.6723   1
  -9   1  11 175.419 13.7604  11
   9   1 -11 174.484 11.4984   4
  -7  -1  11 52.5881 6.34317   1
   7  -1 -11 42.8103 6.00789   4
  -7  -1  11 49.1848 7.27390  11
   7  -1 -11 56.5532 6.77125  14
   7  -1 -11 40.6135 4.77816  12
   7   1 -11 47.3108 5.15897  12
   7   1 -11 42.2582 5.89430  14
   7   1 -11 54.3763 7.00822   4
  -7   1  11 41.6879 6.23594   1
  -7   1  11 44.7225 7.50281  11
   5  -1 -11 6.33948 2.24076  12
   5  -1 -11 9.27229 3.52966  14
   5  -1 -11 8.79982 3.62225   4
  -5  -1  11 2.85386 2.80947  11
  -5  -1  11 12.0478 3.91439   1
  -5   1  11 4.41913 3.47223  11
   5   1 -11 9.15806 3.83520   4
   5   1 -11 8.18963 2.27861  12
   5   1 -11 12.2675 4.00217  14
  -5   1  11 7.64598 3.41290   1
   3  -1 -11 18.3037 3.56600   4
   3  -1 -11 19.4877 2.19267  12
  -3  -1  11 26.1464 4.61785   7
   3  -1 -11 19.0636 3.64143  14
  -3  -1  11 21.1891 3.78387   1
  -3   1  11 12.9649 3.49572   1
   3   1 -11 19.0448 2.38844  12
  -3   1  11 15.9404 4.37409  11
  -1  -1  11 72.7677 6.09699   7
  -1   1  11 78.8003 7.38172  15
   1   1 -11 79.4514 3.66624  12
   1  -1  11 129.127 9.38445  15
   1   1  11 120.764 9.38533  15
  -1   1 -11 121.227 9.02711   2
  -1   1 -11 133.794 5.34726  12
 -10  -2  11 169.242 11.5255   1
 -10  -2  11 169.264 13.9680  11
  10  -2 -11 150.458 10.6777   4
  10  -2 -11 157.265 10.2500  12
 -10   2  11 146.394 13.4179  11
 -10   2  11 166.345 10.8976   1
  10   2 -11 175.024 11.5946   4
  10   2 -11 153.042 10.1759  12
  -8  -2  11 112.799 8.55142   1
   8  -2 -11 121.524 9.14634   4
   8  -2 -11 111.187 8.64657  14
   8  -2 -11 118.789 8.11933  12
  -8  -2  11 119.160 11.0559  11
   8   2 -11 100.931 7.83810  14
   8   2 -11 105.017 7.83421  12
  -8   2  11 111.911 10.8810  11
  -8   2  11 107.269 9.14586   1
   8   2 -11 110.306 9.45172   4
   6  -2 -11 176.096 10.6461  14
  -6  -2  11 171.343 11.7519  11
  -6  -2  11 182.152 10.9431   1
   6  -2 -11 192.668 10.6388   4
   6  -2 -11 182.052 9.28875  12
  -6   2  11 198.498 10.8054   1
   6   2 -11 189.432 9.31542  12
   6   2 -11 173.839 11.0160   4
   6   2 -11 182.694 10.9118  14
  -6   2  11 194.924 13.2713  11
  -4  -2  11 367.083 15.0850   7
   4  -2 -11 339.217 11.7941  12
   4  -2 -11 337.238 14.8836  14
   4  -2 -11 330.922 13.8608   4
  -4  -2  11 343.095 15.1728   1
   4   2 -11 358.987 12.3763  12
   4   2 -11 362.257 15.5649   4
  -4   2  11 337.904 17.1786  11
  -4   2  11 309.807 14.7046   1
  -2  -2  11 101.450 8.99289   1
   2  -2 -11 140.829 4.89751  12
  -2  -2  11 119.247 8.38592   7
  -2   2  11 131.726 10.1064  11
   2   2 -11 132.823 5.94530  12
  -2   2  11 135.259 8.46436  15
  -2   2  11 128.117 8.55780   1
   0  -2  11 100.934 7.68175   7
   0   2 -11 103.541 5.07283  12
   0   2  11 111.716 8.81672  15
   0   2 -11 117.339 8.56288   2
 -11  -3  11 2.99329 4.18936   1
  11  -3 -11 0.99859 3.71412   4
  11   3 -11 3.02909 4.29357   4
  -9  -3  11 14.7268 5.32247   1
   9  -3 -11 11.3623 4.30324   4
  -9  -3  11 13.8536 5.50121  11
   9  -3 -11 9.31320 3.28405  12
  -9   3  11 7.67663 4.16399   1
   9   3 -11 5.63813 4.13147   4
  -9   3  11 11.5520 5.86450  11
   9   3 -11 12.8106 3.62696  12
  -7  -3  11 23.3981 5.65957  11
   7  -3 -11 25.0375 5.01530  14
   7  -3 -11 25.7986 4.84168   4
   7  -3 -11 23.7603 4.09396  12
  -7  -3  11 23.0225 4.72247   1
   7   3 -11 25.6780 5.57508   4
   7   3 -11 24.0461 4.05729  12
  -7   3  11 22.5503 4.46912   1
  -7   3  11 24.9720 6.15218  11
   7   3 -11 32.6900 4.89085  14
  -5  -3  11 65.8236 7.18607   1
  -5  -3  11 75.8033 7.06550   7
   5  -3 -11 69.2637 7.12650  14
   5  -3 -11 61.6810 5.29040  12
   5   3 -11 64.5712 5.34572  12
  -5   3  11 71.3398 7.62116   1
  -5   3  11 58.7872 8.13476  11
   5   3 -11 65.8272 7.66888   4
  -3  -3  11 29.3157 5.03193   7
  -3  -3  11 21.9986 4.15575   1
   3  -3 -11 33.7166 3.08333  12
   3  -3 -11 29.5466 4.79543  14
  -3   3  11 27.2508 4.66399   1
  -3   3  11 36.8122 6.03213  11
   3   3 -11 30.8436 3.45073  12
  -3   3  11 34.9278 4.87228  15
  -1  -3  11 37.0023 4.94333   7
   1  -3 -11 41.4807 2.65725  12
   1   3 -11 41.1168 3.59318  12
  -1   3  11 35.2307 6.32042  11
  -1   3  11 48.4425 6.17796  15
   1   3 -11 57.5763 6.49011   2
  -1  -3 -11 3.00591 1.08618  12
   1  -3  11 4.39780 2.89415   7
  -1   3 -11 6.21650 3.94159   2
   1   3  11 -2.4518 2.11414   6
   1   3  11 7.66516 3.63296  15
  -1   3 -11 -0.0090 1.68298  12
  10  -4 -11 -0.1988 2.46996  12
  10  -4 -11 8.38627 3.58186   3
  10  -4 -11 1.24845 3.35467   4
 -10  -4  11 2.92105 4.46453  11
 -10  -4  11 -3.5265 3.95122   1
  10   4 -11 5.50452 3.84305   4
 -10   4  11 2.53301 4.81251  11
 -10   4  11 -0.3122 2.57324   1
  -8  -4  11 79.5791 8.72131   1
   8  -4 -11 57.9421 6.48973   4
   8  -4 -11 76.0120 6.84547  12
  -8  -4  11 78.5243 9.15196  11
  -8   4  11 74.0748 10.1293  11
   8   4 -11 65.3192 6.58031  12
   8   4 -11 73.2068 7.22867   4
  -8   4  11 66.1787 7.59892   1
  -6  -4  11 181.929 11.2919   1
   6  -4 -11 193.012 10.9132  14
   6  -4 -11 177.149 9.59416  12
  -6   4  11 172.745 11.3095   1
   6   4 -11 182.403 9.68955  12
  -6   4  11 173.616 13.0691  11
   6   4 -11 167.052 11.1426   4
   4  -4 -11 53.4518 4.36270  12
   4  -4 -11 37.1977 5.16523  14
  -4  -4  11 41.9414 5.44250   1
  -4  -4  11 47.2771 6.03365   7
  -4   4  11 51.5694 6.65351   1
   4   4 -11 51.1281 4.79564  12
  -4   4  11 61.1020 8.50486  11
   2  -4 -11 123.415 9.08583   3
  -2  -4  11 118.213 8.75418   7
   2  -4 -11 115.026 9.30229  13
   2  -4 -11 119.126 5.75188  12
  -2   4  11 112.728 7.96520  15
  -2   4  11 120.273 10.7428  11
   2   4 -11 130.296 6.95595  12
   0  -4  11 34.0572 5.01194   7
   0  -4 -11 34.7168 2.87822  12
   0   4 -11 27.9685 5.58850   2
   0   4  11 48.2425 6.38702  15
   0   4  11 40.0597 4.93007   6
   0   4 -11 41.0373 4.20639  12
  -9  -5  11 1.95619 4.33374   1
  -9  -5  11 7.49665 4.50080  11
   9  -5 -11 4.18574 2.97182  12
   9  -5 -11 5.23876 3.49255   3
   9   5 -11 3.56508 3.06341  12
  -9   5  11 4.41680 3.08699   1
   9   5 -11 -0.7790 2.44815   4
  -9   5  11 -1.0515 4.56999  11
   7  -5 -11 111.028 8.66970   3
   7  -5 -11 116.341 8.35623  12
  -7  -5  11 118.023 9.05015   1
   7   5 -11 120.781 9.69624   4
  -7   5  11 107.685 9.35111   1
   7   5 -11 107.917 8.27643  12
  -7   5  11 100.308 11.3198  11
   5  -5 -11 79.4390 6.39749  12
  -5  -5  11 86.6383 8.14929   1
   5  -5 -11 85.3110 7.68664   3
   5  -5 -11 90.1791 7.48152  14
  -5  -5  11 86.7705 8.01770   7
   5   5 -11 82.4488 8.10470   4
   5   5 -11 80.6691 6.62883  12
  -5   5  11 90.1649 10.1803  11
  -5   5  11 89.6920 8.26669   1
   3  -5 -11 53.8518 6.80985   3
   3  -5 -11 60.7861 4.82396  12
  -3  -5  11 61.8779 6.80617   7
  -3  -5  11 60.1197 6.57201   1
  -3   5  11 49.6270 7.83002  11
   3   5 -11 64.3037 5.42279  12
   1  -5 -11 79.4483 4.96891  12
  -1  -5  11 78.5816 7.67813   7
  -1   5  11 81.2044 6.67221  15
  -1   5  11 86.4305 6.76751   6
   1   5 -11 76.6206 7.24934   2
   1   5 -11 85.1070 5.85196  12
   1   5  11 -0.8276 2.55772   6
   8  -6 -11 107.275 9.25621   3
  -8  -6  11 102.690 9.60637   1
   8  -6 -11 118.084 8.62003  12
  -8   6  11 102.388 10.5948  11
   8   6 -11 110.672 8.63960  12
   8   6 -11 119.267 9.75952   4
   6  -6 -11 64.6197 8.04816   3
   6  -6 -11 59.0086 5.88192  12
  -6  -6  11 67.8111 7.36848   1
   6   6 -11 52.3754 7.27315   4
  -6   6  11 58.3948 9.39269  11
   6   6 -11 60.1654 6.59546  12
  -4  -6  11 1.66892 2.94895   1
   4  -6 -11 0.02865 3.76408   3
   4  -6 -11 1.23959 2.14263  12
  -4  -6  11 11.5355 4.52865   7
  -4   6  11 2.71304 4.16262  11
   4   6 -11 0.74867 2.21536  12
   2  -6 -11 94.6497 8.42068   3
   2  -6 -11 97.0475 6.14855  12
  -2  -6  11 93.0965 7.47066   7
  -2   6  11 91.5136 6.94064   6
   2   6 -11 90.0375 7.45734   2
   2   6 -11 84.0051 6.93187  12
  -2   6  11 82.6020 9.73701  11
   0  -6 -11 109.905 6.13914  12
   0  -6  11 114.420 8.30951   7
   0   6  11 110.508 8.44484  15
   0   6  11 108.095 7.59463   6
   0   6 -11 110.306 7.30075  12
   0   6 -11 106.860 9.62308   2
   7  -7 -11 2.98369 2.79249  12
  -7  -7  11 8.64030 4.12782   1
   7  -7 -11 3.59487 3.84366   3
   7   7 -11 4.74459 3.08766  12
  -7   7  11 3.13574 5.19889  11
   7   7 -11 7.73412 4.18581   4
  -5  -7  11 121.866 9.51789   7
   5  -7 -11 147.855 8.75993  12
  -5  -7  11 121.555 9.66888   1
   5  -7 -11 129.348 10.5609   3
   5   7 -11 127.622 8.89629  12
  -5   7  11 140.461 13.1705  11
   5   7 -11 133.335 10.1898   4
   3  -7 -11 135.395 8.28275  12
  -3  -7  11 139.034 10.0249   7
   3  -7 -11 148.164 10.8459   3
   3   7 -11 144.525 9.19991  12
  -3   7  11 141.978 11.8014  11
  -3   7  11 120.701 8.28368   6
   3   7 -11 136.009 9.92076   2
   1  -7 -11 2.34600 2.06870  12
  -1  -7  11 3.51765 3.40686   7
   1   7 -11 2.40864 2.43984  12
  -1   7  11 2.78792 2.83831   6
   1   7 -11 -1.0459 2.58755   2
  -6  -8  11 10.7014 4.20863   1
   6  -8 -11 22.3551 4.77874   3
   6  -8 -11 13.3006 3.65260  12
  -6   8  11 10.5539 6.15027  11
   6   8 -11 17.1559 4.20315  12
   6   8 -11 19.1301 4.26740   4
   4  -8 -11 50.6342 6.81390   3
  -4  -8  11 41.8851 8.24677   1
  -4  -8  11 73.1049 8.07028   7
   4  -8 -11 67.4646 6.23824  12
  -4   8  11 59.3532 9.78493  11
   4   8 -11 71.4452 6.78070  12
  -2   8  11 73.7081 7.86680   6
 -10   0  12 1136.79 37.2418   1
  10   0 -12 1136.75 37.0981   4
  10   0 -12 1139.90 36.7668  12
 -10   0  12 1092.74 41.1864  11
   8   0 -12 987.567 32.0368  12
   8   0 -12 1007.36 33.2803   4
  -8   0  12 1047.74 34.0153   1
  -8   0  12 987.910 36.9780  11
   6   0 -12 1226.54 35.5156  12
  -6   0  12 1187.37 38.2859   1
  -6   0  12 1177.68 41.0411  11
   6   0 -12 1229.07 38.1248   4
  -4   0  12 881.051 29.5563   1
   4   0 -12 901.925 29.1918   4
   4   0 -12 895.177 25.1907  12
  -4   0  12 830.765 30.9613  11
   4   0 -12 829.714 29.0319  14
   2   0 -12 564.629 15.8778  12
   0   0  12 1181.19 38.2832  15
   9  -1 -12 253.492 12.9440  12
   9  -1 -12 281.097 14.2192   4
  -9  -1  12 247.168 16.2379  11
  -9  -1  12 264.387 14.5054   1
   9   1 -12 246.331 13.9862   4
  -9   1  12 259.875 14.2354   1
   9   1 -12 243.560 12.8344  12
  -9   1  12 227.934 15.9516  11
   7  -1 -12 340.158 14.0408  12
  -7  -1  12 356.183 16.5489   1
  -7  -1  12 353.259 18.0298  11
   7  -1 -12 336.663 15.7166   4
   7   1 -12 351.236 14.4732  12
   7   1 -12 356.128 16.4862   4
  -7   1  12 345.680 16.2924   1
  -7   1  12 322.532 18.0944  11
   5  -1 -12 112.420 6.46856  12
   5  -1 -12 102.251 8.31425   4
  -5  -1  12 116.050 8.42750   1
  -5  -1  12 103.737 9.24696  11
   5  -1 -12 104.588 8.07082  14
   5   1 -12 90.7837 8.18445  14
   5   1 -12 111.582 9.06760   4
   5   1 -12 105.846 6.36033  12
  -5   1  12 110.653 10.1113  11
  -5   1  12 98.9914 8.55630   1
   3  -1 -12 285.933 13.6847  14
  -3  -1  12 300.108 13.4799   7
   3  -1 -12 283.345 9.42729  12
  -3  -1  12 259.914 13.0725   1
  -3   1  12 254.167 12.7491   1
  -3   1  12 257.968 14.8129  11
   3   1 -12 267.359 13.6247   4
   3   1 -12 289.624 10.0349  12
  -1  -1  12 237.580 12.4806   7
   1   1 -12 283.805 8.94246  12
  -1   1  12 312.068 14.8267  15
  10  -2 -12 176.843 10.9028  12
 -10  -2  12 162.641 13.8378  11
 -10  -2  12 162.582 11.7888   1
  10  -2 -12 169.937 11.4004   4
  10   2 -12 145.838 11.3726   4
 -10   2  12 171.062 13.2751  11
 -10   2  12 164.183 11.3141   1
  10   2 -12 174.135 10.8232  12
   8  -2 -12 20.9756 3.98498  12
   8  -2 -12 32.0844 5.61210   4
  -8  -2  12 26.1069 5.14523   1
  -8  -2  12 21.6376 5.58952  11
   8   2 -12 30.6797 4.98337  12
   8   2 -12 24.7150 5.70163   4
  -8   2  12 26.5476 5.54090   1
  -8   2  12 23.9034 6.26691  11
  -6  -2  12 215.494 12.5051   1
   6  -2 -12 251.462 12.4537   4
   6  -2 -12 223.254 10.2608  12
  -6  -2  12 215.629 13.4076  11
  -6   2  12 228.371 12.7080   1
   6   2 -12 230.869 13.1462   4
  -6   2  12 242.654 15.2317  11
   6   2 -12 223.254 10.9429  12
  -4  -2  12 442.392 18.5142   1
   4  -2 -12 478.887 15.1486  12
  -4  -2  12 505.435 18.8819   7
   4  -2 -12 411.296 18.0758  14
  -4   2  12 458.630 21.0123  11
   4   2 -12 458.302 19.3313   4
  -4   2  12 438.629 18.6951   1
   4   2 -12 470.147 15.6439  12
   2  -2 -12 183.267 6.36055  12
  -2  -2  12 185.401 10.7661   7
  -2   2  12 192.870 11.0655  15
   2   2 -12 183.896 7.39292  12
  -2   2  12 175.145 10.6050   1
   0   2 -12 151.980 6.30835  12
   0   2  12 144.290 10.1945  15
   9  -3 -12 462.217 18.9549  12
   9  -3 -12 467.318 19.1779   4
  -9  -3  12 473.440 20.5721   1
  -9  -3  12 483.295 23.3798  11
  -9   3  12 461.270 23.0032  11
   9   3 -12 454.698 19.0713  12
   9   3 -12 498.419 20.8507   4
  -9   3  12 450.001 19.7268   1
  -7  -3  12 685.088 25.6036   1
  -7  -3  12 653.335 26.9554  11
   7  -3 -12 673.065 23.1425  12
  -7   3  12 657.269 28.5032  11
  -7   3  12 682.220 25.4556   1
   7   3 -12 697.935 25.9076   4
   7   3 -12 714.072 23.8538  12
   5  -3 -12 585.714 19.2948  12
  -5  -3  12 606.386 23.0338   1
  -5   3  12 576.788 25.4305  11
   5   3 -12 591.030 19.9022  12
  -5   3  12 581.506 22.6181   1
   5   3 -12 595.623 23.3582   4
  -3  -3  12 675.710 32.1597   1
   3  -3 -12 832.651 23.4630  12
  -3  -3  12 820.534 27.9754   7
   3   3 -12 818.879 24.5493  12
  -3   3  12 841.844 28.5215   1
  -3   3  12 889.420 32.0954  11
  -1  -3  12 593.232 22.0553   7
  -1   3  12 576.510 22.3788  15
   1   3 -12 611.361 18.4712  12
   8  -4 -12 122.731 8.46635  12
  -8  -4  12 95.0525 11.8028  11
  -8  -4  12 121.870 10.1819   1
  -8   4  12 127.044 12.3041  11
   8   4 -12 119.251 9.29708   4
   8   4 -12 114.436 8.51075  12
  -8   4  12 130.794 10.5991   1
  -6  -4  12 83.0882 8.71821   1
   6  -4 -12 82.0570 6.43328  12
  -6   4  12 74.4341 9.94438  11
  -6   4  12 90.0876 8.59227   1
   6   4 -12 83.0233 7.10710  12
   6   4 -12 74.8992 8.57884   4
  -4  -4  12 43.7824 6.20413   1
   4  -4 -12 32.8839 3.80098  12
  -4  -4  12 41.4319 6.18567   7
   4  -4 -12 37.4311 5.56278   3
   4   4 -12 33.2445 4.32897  12
  -4   4  12 47.2344 5.95086   1
  -4   4  12 42.8598 7.72695  11
   2  -4 -12 17.6675 2.38703  12
  -2  -4  12 19.4057 4.79495   7
   2   4 -12 21.9500 3.21495  12
  -2   4  12 20.7206 4.37146  15
  -2   4  12 21.7633 4.78511  11
   9  -5 -12 178.160 12.6763  12
   9  -5 -12 218.660 13.0766   3
  -9   5  12 217.909 15.0122   1
   9   5 -12 225.493 13.2073  12
  -9   5  12 206.874 18.6607  11
   9   5 -12 244.754 16.0422   4
   7  -5 -12 248.061 14.0889   3
   7  -5 -12 243.922 11.9732  12
  -7  -5  12 241.929 13.9539   1
   7   5 -12 231.856 12.2919  12
   7   5 -12 246.527 13.9796   4
  -7   5  12 231.012 15.9652  11
  -7   5  12 234.359 13.8436   1
  -5  -5  12 139.709 10.1672   7
   5  -5 -12 140.281 8.33106  12
   5  -5 -12 133.700 9.80221   3
  -5  -5  12 126.406 9.69905   1
   5   5 -12 125.806 8.44611  12
   5   5 -12 118.976 10.2306   4
  -5   5  12 142.220 12.2876  11
   3  -5 -12 108.087 8.55166   3
  -3  -5  12 108.084 8.78664   7
   3  -5 -12 108.153 6.23937  12
  -3   5  12 98.1180 9.64599  11
   3   5 -12 102.079 7.35706  12
  -1   5  12 195.137 12.3613  15
   8  -6 -12 420.052 20.3067  12
   8   6 -12 436.191 22.2103   4
   8   6 -12 456.042 18.8542  12
  -6  -6  12 569.654 22.8127   1
   6  -6 -12 591.998 23.6249   3
   6  -6 -12 588.705 20.8833  12
   6   6 -12 553.884 21.1187  12
  -6   6  12 602.009 26.3972  11
   6   6 -12 531.567 22.6678   4
  -4  -6  12 787.514 27.7485   7
   4  -6 -12 825.269 29.4747   3
   4  -6 -12 803.100 25.5316  12
  -4   6  12 797.449 32.4125  11
   4   6 -12 804.478 26.5600  12
  -5  -7  12 224.135 14.6216   1
   5  -7 -12 259.989 13.8949  12
  -5  -7  12 265.543 15.3891   7
   5   7 -12 224.171 15.9549   4
  -8   0  13 1.51281 3.82468  11
   8   0 -13 -0.0335 2.64529   4
  -8   0  13 0.65378 2.92584   1
   8   0 -13 1.12561 2.82491  12
  -6   0  13 -2.9191 2.95573  11
  -6   0  13 1.83809 3.49262   1
   6   0 -13 2.63960 3.96990   4
   6   0 -13 0.73793 2.07379  12
   4   0 -13 -0.2900 3.49723   4
  -4   0  13 1.63705 2.81757   1
   4   0 -13 0.74157 1.61067  12
   9  -1 -13 37.7495 6.54415   4
  -9  -1  13 40.4845 7.87326  11
   9  -1 -13 37.9039 5.76777  12
  -9  -1  13 32.5027 5.55464   1
   9   1 -13 30.4075 4.81301  12
  -9   1  13 30.0494 6.42657   1
  -9   1  13 35.3950 6.38493  11
   9   1 -13 32.2584 6.62531   4
  -7  -1  13 99.3927 10.0408  11
   7  -1 -13 118.771 9.35469   4
   7  -1 -13 102.313 7.37917  12
  -7  -1  13 118.615 9.75572   1
   7   1 -13 104.062 7.59220  12
  -7   1  13 127.068 9.83502   1
  -7   1  13 115.276 11.1717  11
   7   1 -13 115.491 9.07714   4
  -5  -1  13 45.6364 6.54735   1
   5  -1 -13 42.6866 4.50571  12
   5   1 -13 36.9692 6.40507   4
   5   1 -13 38.7528 4.57693  12
  -5   1  13 28.6175 5.88740  11
  -5   1  13 46.7338 6.57263   1
   3  -1 -13 0.54688 1.23339  12
   3   1 -13 4.09230 4.01948   4
   3   1 -13 0.90137 1.58571  12
   8  -2 -13 65.3611 6.69530  12
  -8  -2  13 73.1027 8.30465   1
   8  -2 -13 54.8070 6.83216   4
  -8  -2  13 48.1950 8.00377  11
   8   2 -13 62.7644 6.43193  12
  -8   2  13 56.6027 8.16258  11
   8   2 -13 81.2512 9.07148   4
  -8   2  13 61.5302 7.87155   1
  -6  -2  13 161.622 11.0445   1
   6   2 -13 173.620 9.53621  12
   6   2 -13 164.245 11.6482   4
  -6   2  13 164.920 11.0749   1
  -6   2  13 166.798 12.2943  11
   4  -2 -13 119.628 6.22246  12
  -4  -2  13 118.682 8.93060   1
  -4   2  13 104.109 9.96121  11
   4   2 -13 121.723 9.20469   4
  -4   2  13 105.724 8.88739   1
   4   2 -13 110.731 6.51234  12
   2   2 -13 107.918 6.11950  12
  -7  -3  13 11.8664 3.83704   1
   7  -3 -13 16.3510 4.08651  12
  -7   3  13 20.8616 6.29214  11
   7   3 -13 18.4720 4.76597   4
  -7   3  13 18.0663 4.31566   1
   7   3 -13 12.4248 3.90133  12
  -5  -3  13 5.27049 3.38853   1
   5  -3 -13 -0.6856 1.88813  12
  -5   3  13 -0.2020 3.30217   1
  -5   3  13 3.51233 3.07182  11
   5   3 -13 4.95640 2.79191  12
   5   3 -13 -0.0779 3.79350   4
   3  -3 -13 2.16177 3.49166   3
  -3  -3  13 1.21082 3.19756   7
   3  -3 -13 0.56131 1.34423  12
   3   3 -13 0.41659 1.85293  12
  -3   3  13 0.18755 3.12955  11
  -6  -4  13 0.21444 3.35482   1
   6  -4 -13 1.82289 2.78517   3
   6  -4 -13 -0.2502 2.58439  12
  -6   4  13 3.54008 3.00376   1
   6   4 -13 4.26841 3.43245   4
  -6   4  13 0.73062 3.14801  11
   6   4 -13 1.54664 2.97281  12
   4  -4 -13 87.3501 5.70099  12
  -4  -4  13 90.0019 8.28464   7
   4  -4 -13 90.1629 9.11953   3
  -4   4  13 95.8002 9.52122  11
   4   4 -13 91.2162 6.51277  12
   4   4 -13 72.8893 8.66589   4
  -5  -5  13 4.33648 4.08725   1
   0   0   0    0.00    0.00   0

 _exptl_absorpt_process_details
)
 SADABS 2016/2: Krause, L., Herbst-Irmer, R., Sheldrick G.M. & Stalke D.,
 J. Appl. Cryst. 48 (2015) 3-10
)
 _exptl_absorpt_correction_type   multi-scan
 _exptl_absorpt_correction_T_max  0.7482
 _exptl_absorpt_correction_T_min  0.6699
 _exptl_special_details
)
 The following wavelength and cell were deduced by SADABS from the
 direction cosines etc. They are given here for emergency use only:
 CELL 0.71075    6.806    7.601    7.440   89.988  117.691   90.008
)

;
_shelx_hkl_checksum              90425
loop_
_space_group_symop_operation_xyz
'x, y, z'
'-x, y, -z+1/2'
'x+1/2, y+1/2, z'
'-x+1/2, y+1/2, -z+1/2'
'-x, -y, -z'
'x, -y, z-1/2'
'-x+1/2, -y+1/2, -z'
'x+1/2, -y+1/2, z-1/2'
loop_
_atom_site_label
_atom_site_type_symbol
_atom_site_fract_x
_atom_site_fract_y
_atom_site_fract_z
_atom_site_U_iso_or_equiv
_atom_site_adp_type
_atom_site_occupancy
_atom_site_site_symmetry_order
_atom_site_calc_flag
_atom_site_refinement_flags_posn
_atom_site_refinement_flags_adp
_atom_site_refinement_flags_occupancy
_atom_site_disorder_assembly
_atom_site_disorder_group
Ni Ni 0.000000 0.500000 0.000000 0.00492(5) Uani 1 2 d S . P . .
S S 0.000000 0.15705(3) 0.250000 0.00453(6) Uani 1 2 d S T P . .
O1 O 0.17277(10) 0.04702(10) 0.40390(10) 0.00962(11) Uani 1 1 d . . . . .
O2 O 0.10392(10) 0.27036(8) 0.15499(10) 0.00809(10) Uani 1 1 d . . . . .
O3 O 0.000000 0.63099(12) 0.250000 0.00704(12) Uani 1 2 d S T P . .
H H 0.109(3) 0.695(3) 0.296(3) 0.018(4) Uiso 1 1 d . . . . .
loop_
_atom_site_aniso_label
_atom_site_aniso_U_11
_atom_site_aniso_U_22
_atom_site_aniso_U_33
_atom_site_aniso_U_23
_atom_site_aniso_U_13
_atom_site_aniso_U_12
Ni 0.00440(7) 0.00540(7) 0.00470(7) 0.00020(3) 0.00190(5) -0.00017(4)
S 0.00342(9) 0.00469(10) 0.00518(9) 0.000 0.00173(7) 0.000
O1 0.0057(2) 0.0114(3) 0.0109(2) 0.00550(19) 0.00316(18) 0.00282(19)
O2 0.0077(2) 0.0077(2) 0.0107(2) 0.00324(17) 0.00581(18) 0.00093(17)
O3 0.0064(3) 0.0078(3) 0.0069(3) 0.000 0.0031(2) 0.000
loop_
_atom_type_symbol
_atom_type_description
_atom_type_scat_dispersion_real
_atom_type_scat_dispersion_imag
_atom_type_scat_source
O O 0.0106 0.0060 'International Tables Vol C Tables 4.2.6.8 and 6.1.1.4'
H H 0.0000 0.0000 'International Tables Vol C Tables 4.2.6.8 and 6.1.1.4'
S S 0.1246 0.1234 'International Tables Vol C Tables 4.2.6.8 and 6.1.1.4'
Ni Ni 0.3393 1.1124 'International Tables Vol C Tables 4.2.6.8 and 6.1.1.4'
loop_
_geom_angle_atom_site_label_1
_geom_angle_atom_site_label_2
_geom_angle_atom_site_label_3
_geom_angle
_geom_angle_site_symmetry_1
_geom_angle_site_symmetry_3
_geom_angle_publ_flag
O2 Ni O2 180.0 . 5_565 ?
O2 Ni O1 94.86(3) . 8_455 ?
O2 Ni O1 85.14(3) 5_565 8_455 ?
O2 Ni O1 85.14(3) . 4 ?
O2 Ni O1 94.86(3) 5_565 4 ?
O1 Ni O1 180.00(4) 8_455 4 ?
O2 Ni O3 92.72(3) . . ?
O2 Ni O3 87.28(3) 5_565 . ?
O1 Ni O3 86.80(2) 8_455 . ?
O1 Ni O3 93.20(2) 4 . ?
O2 Ni O3 87.28(3) . 5_565 ?
O2 Ni O3 92.72(3) 5_565 5_565 ?
O1 Ni O3 93.20(2) 8_455 5_565 ?
O1 Ni O3 86.80(2) 4 5_565 ?
O3 Ni O3 180.0 . 5_565 ?
O2 Ni O2 81.659(15) . 8_455 ?
O2 Ni O2 98.341(15) 5_565 8_455 ?
O1 Ni O2 43.52(2) 8_455 8_455 ?
O1 Ni O2 136.48(2) 4 8_455 ?
O3 Ni O2 128.576(16) . 8_455 ?
O3 Ni O2 51.424(16) 5_565 8_455 ?
O2 Ni O2 98.341(15) . 4 ?
O2 Ni O2 81.658(15) 5_565 4 ?
O1 Ni O2 136.48(2) 8_455 4 ?
O1 Ni O2 43.52(2) 4 4 ?
O3 Ni O2 51.425(16) . 4 ?
O3 Ni O2 128.575(16) 5_565 4 ?
O2 Ni O2 180.0 8_455 4 ?
O2 Ni O2 136.26(2) . 6_565 ?
O2 Ni O2 43.75(2) 5_565 6_565 ?
O1 Ni O2 113.51(2) 8_455 6_565 ?
O1 Ni O2 66.49(2) 4 6_565 ?
O3 Ni O2 120.20(3) . 6_565 ?
O3 Ni O2 59.80(3) 5_565 6_565 ?
O2 Ni O2 96.233(19) 8_455 6_565 ?
O2 Ni O2 83.766(19) 4 6_565 ?
O2 Ni O2 43.74(2) . 2 ?
O2 Ni O2 136.25(2) 5_565 2 ?
O1 Ni O2 66.49(2) 8_455 2 ?
O1 Ni O2 113.51(2) 4 2 ?
O3 Ni O2 59.80(3) . 2 ?
O3 Ni O2 120.20(3) 5_565 2 ?
O2 Ni O2 83.767(19) 8_455 2 ?
O2 Ni O2 96.234(19) 4 2 ?
O2 Ni O2 180.0 6_565 2 ?
O1 S O1 110.33(6) 2 . ?
O1 S O2 110.25(4) 2 . ?
O1 S O2 108.43(4) . . ?
O1 S O2 108.43(4) 2 2 ?
O1 S O2 110.25(4) . 2 ?
O2 S O2 109.14(5) . 2 ?
S O1 Ni 136.69(4) . 4_545 ?
S O1 O2 36.09(2) . . ?
Ni O1 O2 100.71(3) 4_545 . ?
S O1 O1 34.83(3) . 2 ?
Ni O1 O1 139.81(5) 4_545 2 ?
O2 O1 O1 60.60(3) . 2 ?
S O1 O2 35.17(2) . 2 ?
Ni O1 O2 145.27(4) 4_545 2 ?
O2 O1 O2 60.40(3) . 2 ?
O1 O1 O2 59.48(3) 2 2 ?
S O1 O2 128.00(4) . 4_545 ?
Ni O1 O2 47.413(19) 4_545 4_545 ?
O2 O1 O2 110.09(3) . 4_545 ?
O1 O1 O2 102.55(3) 2 4_545 ?
O2 O1 O2 161.84(4) 2 4_545 ?
S O1 O3 170.57(5) . 7_556 ?
Ni O1 O3 47.762(15) 4_545 7_556 ?
O2 O1 O3 145.84(3) . 7_556 ?
O1 O1 O3 150.58(2) 2 7_556 ?
O2 O1 O3 135.55(3) 2 7_556 ?
O2 O1 O3 61.43(2) 4_545 7_556 ?
S O1 O2 115.00(4) . 8_556 ?
Ni O1 O2 42.557(19) 4_545 8_556 ?
O2 O1 O2 86.39(3) . 8_556 ?
O1 O1 O2 146.93(3) 2 8_556 ?
O2 O1 O2 104.09(3) 2 8_556 ?
O2 O1 O2 89.97(3) 4_545 8_556 ?
O3 O1 O2 61.73(3) 7_556 8_556 ?
S O1 O3 92.81(3) . 3_545 ?
Ni O1 O3 44.441(17) 4_545 3_545 ?
O2 O1 O3 57.88(2) . 3_545 ?
O1 O1 O3 101.97(4) 2 3_545 ?
O2 O1 O3 115.73(3) 2 3_545 ?
O2 O1 O3 62.55(3) 4_545 3_545 ?
O3 O1 O3 92.20(2) 7_556 3_545 ?
O2 O1 O3 56.89(2) 8_556 3_545 ?
S O1 O2 127.01(4) . 6_556 ?
Ni O1 O2 95.49(3) 4_545 6_556 ?
O2 O1 O2 162.33(4) . 6_556 ?
O1 O1 O2 102.20(3) 2 6_556 ?
O2 O1 O2 108.66(3) 2 6_556 ?
O2 O1 O2 76.08(3) 4_545 6_556 ?
O3 O1 O2 51.81(2) 7_556 6_556 ?
O2 O1 O2 110.54(3) 8_556 6_556 ?
O3 O1 O2 135.54(3) 3_545 6_556 ?
S O1 O2 112.24(4) . 7_556 ?
Ni O1 O2 78.20(3) 4_545 7_556 ?
O2 O1 O2 108.25(3) . 7_556 ?
O1 O1 O2 139.55(3) 2 7_556 ?
O2 O1 O2 80.89(3) 2 7_556 ?
O2 O1 O2 117.27(3) 4_545 7_556 ?
O3 O1 O2 58.80(2) 7_556 7_556 ?
O2 O1 O2 45.69(2) 8_556 7_556 ?
O3 O1 O2 102.36(3) 3_545 7_556 ?
O2 O1 O2 81.85(2) 6_556 7_556 ?
S O1 O1 89.28(3) . 5_556 ?
Ni O1 O1 133.28(4) 4_545 5_556 ?
O2 O1 O1 123.92(4) . 5_556 ?
O1 O1 O1 80.57(4) 2 5_556 ?
O2 O1 O1 65.47(3) 2 5_556 ?
O2 O1 O1 117.10(4) 4_545 5_556 ?
O3 O1 O1 85.53(3) 7_556 5_556 ?
O2 O1 O1 120.84(4) 8_556 5_556 ?
O3 O1 O1 177.46(3) 3_545 5_556 ?
O2 O1 O1 43.19(2) 6_556 5_556 ?
O2 O1 O1 75.49(3) 7_556 5_556 ?
S O2 Ni 130.66(4) . . ?
S O2 O1 35.48(2) . . ?
Ni O2 O1 160.26(4) . . ?
S O2 O1 34.58(2) . 2 ?
Ni O2 O1 117.63(3) . 2 ?
O1 O2 O1 59.92(4) . 2 ?
S O2 O2 35.43(3) . 2 ?
Ni O2 O2 100.83(2) . 2 ?
O1 O2 O2 60.35(3) . 2 ?
O1 O2 O2 59.25(2) 2 2 ?
S O2 O3 106.85(4) . 3_545 ?
Ni O2 O3 122.31(3) . 3_545 ?
O1 O2 O3 72.71(3) . 3_545 ?
O1 O2 O3 112.05(4) 2 3_545 ?
O2 O2 O3 129.65(4) 2 3_545 ?
S O2 O1 160.23(4) . 4 ?
Ni O2 O1 47.45(2) . 4 ?
O1 O2 O1 137.96(3) . 4 ?
O1 O2 O1 161.84(4) 2 4 ?
O2 O2 O1 127.61(2) 2 4 ?
O3 O2 O1 77.29(3) 3_545 4 ?
S O2 O3 135.62(4) . 5_565 ?
Ni O2 O3 47.53(2) . 5_565 ?
O1 O2 O3 150.01(4) . 5_565 ?
O1 O2 O3 101.68(3) 2 5_565 ?
O2 O2 O3 133.67(4) 2 5_565 ?
O3 O2 O3 96.21(2) 3_545 5_565 ?
O1 O2 O3 60.99(2) 4 5_565 ?
S O2 O1 91.15(3) . 8_455 ?
Ni O2 O1 42.585(18) . 8_455 ?
O1 O2 O1 126.55(4) . 8_455 ?
O1 O2 O1 75.91(3) 2 8_455 ?
O2 O2 O1 72.21(3) 2 8_455 ?
O3 O2 O1 158.08(3) 3_545 8_455 ?
O1 O2 O1 90.03(3) 4 8_455 ?
O3 O2 O1 61.89(2) 5_565 8_455 ?
S O2 O3 101.60(3) . . ?
Ni O2 O3 44.704(16) . . ?
O1 O2 O3 116.68(3) . . ?
O1 O2 O3 115.79(3) 2 . ?
O2 O2 O3 66.172(14) 2 . ?
O3 O2 O3 128.38(3) 3_545 . ?
O1 O2 O3 63.02(2) 4 . ?
O3 O2 O3 92.23(2) 5_565 . ?
O1 O2 O3 56.765(18) 8_455 . ?
S O2 O1 94.12(3) . 6 ?
Ni O2 O1 114.91(3) . 6 ?
O1 O2 O1 83.61(2) . 6 ?
O1 O2 O1 71.34(3) 2 6 ?
O2 O2 O1 128.45(2) 2 6 ?
O3 O2 O1 56.92(2) 3_545 6 ?
O1 O2 O1 103.92(3) 4 6 ?
O3 O2 O1 67.39(3) 5_565 6 ?
O1 O2 O1 110.54(3) 8_455 6 ?
O3 O2 O1 159.60(3) . 6 ?
S O2 O1 82.44(3) . 7_556 ?
Ni O2 O1 94.79(3) . 7_556 ?
O1 O2 O1 71.75(3) . 7_556 ?
O1 O2 O1 116.49(3) 2 7_556 ?
O2 O2 O1 62.10(3) 2 7_556 ?
O3 O2 O1 87.73(2) 3_545 7_556 ?
O1 O2 O1 78.38(2) 4 7_556 ?
O3 O2 O1 136.90(3) 5_565 7_556 ?
O1 O2 O1 107.37(3) 8_455 7_556 ?
O3 O2 O1 54.327(17) . 7_556 ?
O1 O2 O1 142.00(3) 6 7_556 ?
Ni O3 Ni 123.70(4) . 2 ?
Ni O3 O2 111.559(18) . 3_455 ?
Ni O3 O2 90.401(16) 2 3_455 ?
Ni O3 O2 90.401(16) . 4 ?
Ni O3 O2 111.560(18) 2 4 ?
O2 O3 O2 133.24(5) 3_455 4 ?
Ni O3 O1 45.437(17) . 8_455 ?
Ni O3 O1 104.66(3) 2 8_455 ?
O2 O3 O1 71.27(2) 3_455 8_455 ?
O2 O3 O1 134.30(2) 4 8_455 ?
Ni O3 O1 104.66(3) . 7_556 ?
Ni O3 O1 45.437(17) 2 7_556 ?
O2 O3 O1 134.31(2) 3_455 7_556 ?
O2 O3 O1 71.27(2) 4 7_556 ?
O1 O3 O1 123.23(4) 8_455 7_556 ?
Ni O3 O2 162.24(3) . 6_566 ?
Ni O3 O2 45.191(15) 2 6_566 ?
O2 O3 O2 84.26(2) 3_455 6_566 ?
O2 O3 O2 83.78(2) 4 6_566 ?
O1 O3 O2 141.78(2) 8_455 6_566 ?
O1 O3 O2 57.58(2) 7_556 6_566 ?
Ni O3 O2 45.191(15) . 5_565 ?
Ni O3 O2 162.24(3) 2 5_565 ?
O2 O3 O2 83.78(2) 3_455 5_565 ?
O2 O3 O2 84.26(2) 4 5_565 ?
O1 O3 O2 57.58(2) 8_455 5_565 ?
O1 O3 O2 141.78(2) 7_556 5_565 ?
O2 O3 O2 149.57(4) 6_566 5_565 ?
Ni O3 O2 42.58(2) . . ?
Ni O3 O2 82.71(3) 2 . ?
O2 O3 O2 128.38(3) 3_455 . ?
O2 O3 O2 96.041(17) 4 . ?
O1 O3 O2 61.51(2) 8_455 . ?
O1 O3 O2 66.87(3) 7_556 . ?
O2 O3 O2 121.26(3) 6_566 . ?
O2 O3 O2 87.77(2) 5_565 . ?
Ni O3 O2 82.71(3) . 2 ?
Ni O3 O2 42.578(19) 2 2 ?
O2 O3 O2 96.040(18) 3_455 2 ?
O2 O3 O2 128.38(3) 4 2 ?
O1 O3 O2 66.87(3) 8_455 2 ?
O1 O3 O2 61.51(2) 7_556 2 ?
O2 O3 O2 87.77(2) 6_566 2 ?
O2 O3 O2 121.26(3) 5_565 2 ?
O2 O3 O2 47.66(3) . 2 ?
Ni O3 O1 122.60(3) . 3_455 ?
Ni O3 O1 42.361(14) 2 3_455 ?
O2 O3 O1 49.402(19) 3_455 3_455 ?
O2 O3 O1 144.99(2) 4 3_455 ?
O1 O3 O1 80.60(2) 8_455 3_455 ?
O1 O3 O1 87.80(2) 7_556 3_455 ?
O2 O3 O1 61.22(2) 6_566 3_455 ?
O2 O3 O1 126.35(2) 5_565 3_455 ?
O2 O3 O1 101.16(3) . 3_455 ?
O2 O3 O1 54.44(2) 2 3_455 ?
Ni O3 O1 42.361(14) . 4 ?
Ni O3 O1 122.60(3) 2 4 ?
O2 O3 O1 144.99(2) 3_455 4 ?
O2 O3 O1 49.402(19) 4 4 ?
O1 O3 O1 87.80(2) 8_455 4 ?
O1 O3 O1 80.60(2) 7_556 4 ?
O2 O3 O1 126.35(2) 6_566 4 ?
O2 O3 O1 61.22(2) 5_565 4 ?
O2 O3 O1 54.44(2) . 4 ?
O2 O3 O1 101.16(3) 2 4 ?
O1 O3 O1 155.51(4) 3_455 4 ?
Ni O3 H 106.0(14) . . ?
Ni O3 H 106.8(14) 2 . ?
O2 O3 H 118.8(14) 3_455 . ?
O2 O3 H 17.1(14) 4 . ?
O1 O3 H 146.7(14) 8_455 . ?
O1 O3 H 74.5(14) 7_556 . ?
O2 O3 H 71.0(14) 6_566 . ?
O2 O3 H 90.7(14) 5_565 . ?
O2 O3 H 112.1(14) . . ?
O2 O3 H 135.8(14) 2 . ?
O1 O3 H 131.1(14) 3_455 . ?
O1 O3 H 66.2(14) 4 . ?
Ni O3 H 106.8(14) . 2 ?
Ni O3 H 106.0(14) 2 2 ?
O2 O3 H 17.1(14) 3_455 2 ?
O2 O3 H 118.8(14) 4 2 ?
O1 O3 H 74.5(14) 8_455 2 ?
O1 O3 H 146.7(14) 7_556 2 ?
O2 O3 H 90.7(14) 6_566 2 ?
O2 O3 H 71.0(14) 5_565 2 ?
O2 O3 H 135.8(14) . 2 ?
O2 O3 H 112.1(14) 2 2 ?
O1 O3 H 66.2(14) 3_455 2 ?
O1 O3 H 131.1(14) 4 2 ?
H O3 H 107(3) . 2 ?
loop_
_geom_bond_atom_site_label_1
_geom_bond_atom_site_label_2
_geom_bond_distance
_geom_bond_site_symmetry_2
_geom_bond_publ_flag
Ni O2 2.0321(7) . ?
Ni O2 2.0321(7) 5_565 ?
Ni O1 2.0332(7) 8_455 ?
Ni O1 2.0332(7) 4 ?
Ni O3 2.1127(5) . ?
Ni O3 2.1128(5) 5_565 ?
Ni O2 3.4183(7) 8_455 ?
Ni O2 3.4183(7) 4 ?
Ni O2 3.4433(7) 6_565 ?
Ni O2 3.4433(7) 2 ?
S O1 1.4659(7) 2 ?
S O1 1.4659(7) . ?
S O2 1.4874(6) . ?
S O2 1.4875(6) 2 ?
O1 O2 2.3958(9) . ?
O1 O1 2.4064(13) 2 ?
O1 O2 2.4229(9) 2 ?
O1 O2 2.7502(10) 4_545 ?
O1 O3 2.8492(8) 7_556 ?
O1 O2 2.9939(10) 8_556 ?
O1 O3 3.0128(8) 3_545 ?
O1 O2 3.2202(10) 6_556 ?
O1 O2 3.2255(11) 7_556 ?
O1 O1 3.3536(14) 5_556 ?
O2 O2 2.4241(13) 2 ?
O2 O3 2.6724(8) 3_545 ?
O2 O3 2.8612(8) 5_565 ?
O2 O3 3.0000(11) . ?
O3 H 0.820(19) . ?
O3 H 0.820(19) 2 ?
loop_
_geom_hbond_atom_site_label_D
_geom_hbond_atom_site_label_H
_geom_hbond_atom_site_label_A
_geom_hbond_distance_DH
_geom_hbond_distance_HA
_geom_hbond_distance_DA
_geom_hbond_angle_DHA
_geom_hbond_site_symmetry_A
_geom_hbond_publ_flag
O3 H O2 0.820(19) 1.904(19) 2.6725(8) 155.7(19) 4 yes
