#------------------------------------------------------------------------------
#$Date: 2022-01-01 07:13:54 +0200 (Sat, 01 Jan 2022) $
#$Revision: 271676 $
#$URL: file:///home/coder/svn-repositories/cod/cif/1/56/58/1565869.cif $
#------------------------------------------------------------------------------
#
# This file is available in the Crystallography Open Database (COD),
# http://www.crystallography.net/. The original data for this entry
# were provided by IUCr Journals, http://journals.iucr.org/.
#
# The file may be used within the scientific community so long as
# proper attribution is given to the journal article from which the
# data were obtained.
#
data_1565869
loop_
_publ_author_name
'Olejniczak, Anna'
'Katrusiak, Anna'
'Podsiad\/lo, Marcin'
'Katrusiak, Andrzej'
_publ_section_title
;
 Stochastic hydration of a high-nitrogen-content molecular compound
 recrystallized under pressure
;
_journal_issue                   1
_journal_name_full               IUCrJ
_journal_page_first              49
_journal_page_last               54
_journal_paper_doi               10.1107/S2052252521010381
_journal_volume                  9
_journal_year                    2022
_chemical_formula_moiety         'C4 H2 Cl N5'
_chemical_formula_sum            'C4 H2 Cl N5'
_chemical_formula_weight         155.56
_chemical_name_systematic        6-chloro-1,2,3,4-tetrazolo[1,5-b]pyridazine
_space_group_crystal_system      orthorhombic
_space_group_IT_number           19
_space_group_name_Hall           'P 2ac 2ab'
_space_group_name_H-M_alt        'P 21 21 21'
_atom_sites_solution_hydrogens   geom
_atom_sites_solution_primary     direct
_audit_creation_date             2020-07-14
_audit_creation_method
;
Olex2 1.3
(compiled 2020.06.28 svn.raecde09e for OlexSys, GUI svn.r6132)
;
_cell_angle_alpha                90
_cell_angle_beta                 90
_cell_angle_gamma                90
_cell_formula_units_Z            4
_cell_length_a                   7.0473(2)
_cell_length_b                   8.7636(2)
_cell_length_c                   10.0299(2)
_cell_measurement_reflns_used    2441
_cell_measurement_temperature    190.0(1)
_cell_measurement_theta_max      64.3480
_cell_measurement_theta_min      5.0420
_cell_volume                     619.44(3)
_computing_cell_refinement       'CrysAlisPro 1.171.40.67a (Rigaku OD, 2019)'
_computing_data_collection       'CrysAlisPro 1.171.40.67a (Rigaku OD, 2019)'
_computing_data_reduction        'CrysAlisPro 1.171.40.67a (Rigaku OD, 2019)'
_computing_molecular_graphics    'Olex2 1.3 (Dolomanov et al., 2009)'
_computing_publication_material  'Olex2 1.3 (Dolomanov et al., 2009)'
_computing_structure_refinement  'SHELXL 2018/3 (Sheldrick, 2015)'
_computing_structure_solution    'SHELXT 2018/2 (Sheldrick, 2018)'
_diffrn_ambient_environment      N~2~
_diffrn_ambient_temperature      190.0(1)
_diffrn_detector                 'CCD plate'
_diffrn_detector_area_resol_mean 10.5357
_diffrn_detector_type            Atlas
_diffrn_measured_fraction_theta_full 0.991
_diffrn_measured_fraction_theta_max 0.991
_diffrn_measurement_details
;
List of Runs (angles in degrees, time in seconds):

  # Type    Start    End  Width  t~exp~   \w     \q     \k     \f   Frames
--------------------------------------------------------------------------
  1  \w     13.00 116.00   1.00    1.25    --   41.73  77.00 150.00  103
  2  \w     13.00  88.00   1.00    1.25    --   41.73-125.00  60.00   75
  3  \w     40.00  99.00   1.00    1.25    --   41.73  37.00 -90.00   59
  4  \w     16.00  51.00   1.00    2.50    --   88.44 -45.00 150.00   35
  5  \w     36.00 158.00   1.00    2.50    --   88.44  15.00  60.00  122
  6  \w      8.00 106.00   1.00    2.50    --   88.44 -94.00 120.00   98
  7  \w     37.00  77.00   1.00    2.50    --   88.44 -45.00  90.00   40
  8  \w     44.00  70.00   1.00    2.50    --   88.44 -45.00-120.00   26
  9  \w     16.00 109.00   1.00    2.50    --   88.44 -94.00-120.00   93
 10  \w     26.00  75.00   1.00    2.50    --   88.44 -45.00   0.00   49
 11  \w     42.00  81.00   1.00    2.50    --   88.44 -94.00   0.00   39
 12  \w     85.00 111.00   1.00    2.50    --   88.44 125.00  90.00   26
 13  \w    116.00 146.00   1.00    2.50    --   88.44 125.00  90.00   30
 14  \w     68.00 107.00   1.00    2.50    --   88.44-125.00  90.00   39
 15  \w     75.00 156.00   1.00    2.50    --   88.44  61.00 -90.00   81
;
_diffrn_measurement_device       'four-circle diffractometer'
_diffrn_measurement_device_type
'SuperNova, Single source at offset/far, Atlas'
_diffrn_measurement_method       '\w scans'
_diffrn_orient_matrix_type
'CrysAlisPro convention (1999,Acta A55,543-557)'
_diffrn_orient_matrix_UB_11      -0.0558225000
_diffrn_orient_matrix_UB_12      -0.0081730000
_diffrn_orient_matrix_UB_13      -0.1483452000
_diffrn_orient_matrix_UB_21      0.0483194000
_diffrn_orient_matrix_UB_22      -0.1714057000
_diffrn_orient_matrix_UB_23      -0.0017970000
_diffrn_orient_matrix_UB_31      -0.2057610000
_diffrn_orient_matrix_UB_32      -0.0381119000
_diffrn_orient_matrix_UB_33      0.0398033000
_diffrn_radiation_monochromator  mirror
_diffrn_radiation_probe          x-ray
_diffrn_radiation_type           'Cu K\a'
_diffrn_radiation_wavelength     1.54184
_diffrn_reflns_av_R_equivalents  0.0176
_diffrn_reflns_av_unetI/netI     0.0141
_diffrn_reflns_Laue_measured_fraction_full 0.991
_diffrn_reflns_Laue_measured_fraction_max 0.991
_diffrn_reflns_limit_h_max       6
_diffrn_reflns_limit_h_min       -8
_diffrn_reflns_limit_k_max       9
_diffrn_reflns_limit_k_min       -10
_diffrn_reflns_limit_l_max       11
_diffrn_reflns_limit_l_min       -10
_diffrn_reflns_number            3643
_diffrn_reflns_point_group_measured_fraction_full 0.983
_diffrn_reflns_point_group_measured_fraction_max 0.983
_diffrn_reflns_theta_full        64.768
_diffrn_reflns_theta_max         64.768
_diffrn_reflns_theta_min         6.708
_diffrn_source                   'micro-focus sealed X-ray tube'
_diffrn_source_type              'SuperNova (Cu) X-ray Source'
_exptl_absorpt_coefficient_mu    4.821
_exptl_absorpt_correction_T_max  1.00000
_exptl_absorpt_correction_T_min  0.66101
_exptl_absorpt_correction_type   multi-scan
_exptl_absorpt_process_details
;
CrysAlisPro 1.171.40.67a (Rigaku Oxford Diffraction, 2019)
Empirical absorption correction using spherical harmonics,
 implemented in SCALE3 ABSPACK scaling algorithm.
;
_exptl_crystal_colour            colourless
_exptl_crystal_density_diffrn    1.668
_exptl_crystal_description       plate
_exptl_crystal_F_000             312
_exptl_crystal_size_max          0.50
_exptl_crystal_size_mid          0.20
_exptl_crystal_size_min          0.15
_refine_diff_density_max         0.274
_refine_diff_density_min         -0.193
_refine_diff_density_rms         0.036
_refine_ls_abs_structure_details
;
 Flack x determined using 381 quotients [(I+)-(I-)]/[(I+)+(I-)]
 (Parsons, Flack and Wagner, Acta Cryst. B69 (2013) 249-259).
;
_refine_ls_abs_structure_Flack   0.484(7)
_refine_ls_extinction_method     none
_refine_ls_goodness_of_fit_ref   1.086
_refine_ls_hydrogen_treatment    constr
_refine_ls_matrix_type           full
_refine_ls_number_parameters     91
_refine_ls_number_reflns         1032
_refine_ls_number_restraints     0
_refine_ls_restrained_S_all      1.086
_refine_ls_R_factor_all          0.0354
_refine_ls_R_factor_gt           0.0344
_refine_ls_shift/su_max          0.000
_refine_ls_shift/su_mean         0.000
_refine_ls_structure_factor_coef Fsqd
_refine_ls_weighting_details
'w=1/[\s^2^(Fo^2^)+(0.0473P)^2^+0.3109P] where P=(Fo^2^+2Fc^2^)/3'
_refine_ls_weighting_scheme      calc
_refine_ls_wR_factor_gt          0.0903
_refine_ls_wR_factor_ref         0.0911
_reflns_Friedel_coverage         0.635
_reflns_Friedel_fraction_full    0.971
_reflns_Friedel_fraction_max     0.971
_reflns_number_gt                1001
_reflns_number_total             1032
_reflns_threshold_expression     'I > 2\s(I)'
_cod_data_source_file            lt5042.cif
_cod_data_source_block           C4H2N5Cl1@190K_phase_alpha
_cod_database_code               1565869
_shelx_shelxl_version_number     2018/3
_chemical_oxdiff_formula         C4H2N5Cl1
_shelx_space_group_comment
;
The symmetry employed for this shelxl refinement is uniquely defined
by the following loop, which should always be used as a source of
symmetry information in preference to the above space-group names.
They are only intended as comments.
;
_reflns_odcompleteness_completeness 98.93
_reflns_odcompleteness_iscentric 1
_reflns_odcompleteness_theta     64.67
_olex2_refinement_description
;
1. Fixed Uiso
 At 1.2 times of:
  All C(H) groups
2.a Aromatic/amide H refined with riding coordinates:
 C7(H7), C8(H8)
;
_shelx_res_file
;
TITL 1a_a.res in P2(1)2(1)2(1)
    1a.res
    created by SHELXL-2018/3 at 13:00:32 on 14-Jul-2020
REM Old TITL 1a in P2(1)2(1)2(1)
REM SHELXT solution in P2(1)2(1)2(1): R1 0.142, Rweak 0.042, Alpha 0.003
REM <I/s> 0.936 for 15 systematic absences, Orientation as input
REM Flack x = 0.486 ( 0.006 ) from 387 Parsons' quotients
REM Formula found by SHELXT: C8 N Cl
CELL 1.54184 7.0473 8.7636 10.0299 90 90 90
ZERR 4 0.0002 0.0002 0.0002 0 0 0
LATT -1
SYMM 0.5-X,-Y,0.5+Z
SYMM -X,0.5+Y,0.5-Z
SYMM 0.5+X,0.5-Y,-Z
SFAC C H Cl N
UNIT 16 8 4 20

L.S. 44 0 0
PLAN  5
CONF
BOND
list 4
fmap 2 53
ACTA
MORE -1
BOND $H
REM <olex2.extras>
REM <HklSrc "%.\\1a.hkl">
REM </olex2.extras>

WGHT    0.047300    0.310900
FVAR       1.03322
CL1   3    0.289706    0.332993    0.319327    11.00000    0.06748    0.02927 =
         0.06895   -0.00292    0.01481   -0.00147
N4    4    0.358887    0.747784    0.411673    11.00000    0.05120    0.03166 =
         0.03036   -0.00098   -0.00073   -0.00294
N5    4    0.368787    0.594141    0.417838    11.00000    0.05289    0.03283 =
         0.03693    0.00469    0.00294    0.00019
N3    4    0.432851    0.838468    0.506097    11.00000    0.06885    0.04490 =
         0.03870   -0.00621   -0.00642   -0.00939
N2    4    0.395331    0.976988    0.466157    11.00000    0.07842    0.04068 =
         0.05443   -0.01239    0.00294   -0.00837
N1    4    0.299789    0.980945    0.349126    11.00000    0.06533    0.03351 =
         0.05126   -0.00324    0.00568   -0.00138
C9    1    0.277621    0.834864    0.314971    11.00000    0.05034    0.03059 =
         0.03340    0.00342    0.00465    0.00117
C7    1    0.199892    0.604994    0.207442    11.00000    0.05479    0.04506 =
         0.03137   -0.00758    0.00083   -0.00352
AFIX  43
H7    2    0.146702    0.549069    0.138065    11.00000   -1.20000
AFIX   0
C6    1    0.286914    0.529478    0.316552    11.00000    0.04856    0.03030 =
         0.03922   -0.00242    0.00846   -0.00137
C8    1    0.195164    0.758584    0.205448    11.00000    0.05460    0.04652 =
         0.03130    0.00590   -0.00028    0.00330
AFIX  43
H8    2    0.140148    0.811878    0.135199    11.00000   -1.20000
AFIX   0
HKLF 4




REM  1a_a.res in P2(1)2(1)2(1)
REM wR2 = 0.0911, GooF = S = 1.086, Restrained GooF = 1.086 for all data
REM R1 = 0.0344 for 1001 Fo > 4sig(Fo) and 0.0354 for all 1032 data
REM 91 parameters refined using 0 restraints

END

WGHT      0.0473      0.3109

REM Highest difference peak  0.274,  deepest hole -0.193,  1-sigma level  0.036
Q1    1   0.1536  0.3383  0.3338  11.00000  0.05    0.27
Q2    1   0.4254  0.3376  0.3394  11.00000  0.05    0.27
Q3    1   0.1800  0.9687  0.3325  11.00000  0.05    0.15
Q4    1   0.2652  0.5666  0.2566  11.00000  0.05    0.14
Q5    1   0.1860  0.3575  0.2424  11.00000  0.05    0.14
;
_shelx_res_checksum              9484
_shelx_hkl_file
;
   0   0  -1    0.19    0.19
   0   0  -2 1632.04    9.96
   0   0  -3    0.28    0.55
   0   0  -4   21.28    1.83
   0   0  -5   -0.19    0.58
   0   0   6 1406.62   12.38
   0   0  -6 1367.04   18.20
   0   0   7    0.76    0.70
   0   0  -7    0.34    1.10
   0   0   7    0.13    0.56
   0   0  -8  867.45   17.97
   0   0   8  838.76   11.48
   0   0   8  848.42   11.33
   0   0   9    0.57    0.72
   0   0  10  300.12    7.09
   0   0  11    0.84    0.54
   0  -1   0    0.23    0.25
   0  -1   0    0.79    0.17
   0   1  -1 1312.06    7.75
   0  -1  -1 1334.43    7.20
   0   1  -2   39.10    1.74
   0  -1  -2   40.58    1.65
   0  -1  -3 4110.89   19.88
   0   1  -3 4043.40   20.75
   0   1  -4   19.59    1.80
   0  -1  -4   20.63    1.79
   0   1  -5 1286.91   15.90
   0  -1  -5 1344.44   15.62
   0   1  -6    0.63    0.82
   0  -1  -6    0.85    0.80
   0  -1   6    0.22    0.59
   0  -1   6    0.24    0.57
   0   1   6    0.34    0.59
   0   1   6   -0.06    0.62
   0  -1  -7   35.34    3.28
   0  -1   7   37.64    2.33
   0   1  -7   33.54    3.30
   0   1   7   33.26    2.23
   0  -1   7   38.91    2.42
   0   1   7   33.44    2.25
   0   1   8   47.12    2.79
   0   1  -8   58.92    4.78
   0   1   8   53.27    3.00
   0  -1   8   51.64    2.99
   0  -1   8   56.93    3.03
   0  -1  -8   53.18    4.56
   0  -1   9   21.34    1.94
   0   1   9   26.52    2.19
   0  -1   9   26.70    2.23
   0   1   9   23.04    2.03
   0  -1  10  116.69    4.53
   0   1  10  112.93    4.06
   0   1  10  115.03    4.31
   0  -1  11   24.16    1.90
   0   1  11   24.44    1.79
   0  -2   0  181.17    3.78
   0  -2   0  189.98    2.26
   0   2  -1 1196.31    9.13
   0  -2  -1 1228.73   10.04
   0  -2  -2  374.31    6.25
   0  -2  -2  365.63    5.55
   0   2  -2  371.83    5.93
   0  -2  -3  387.50    6.62
   0   2  -3  402.00    7.06
   0  -2  -4    9.64    1.30
   0   2  -4    8.27    1.28
   0   2   5  780.11    8.84
   0  -2  -5  782.64   12.29
   0   2   5  763.51    8.33
   0  -2   5  795.25    8.83
   0  -2   6   10.73    1.25
   0   2  -6    6.74    1.61
   0   2   6   10.57    1.20
   0  -2   6   12.69    1.39
   0   2   6   13.21    1.32
   0  -2  -6   11.29    1.91
   0  -2   7  460.49    8.10
   0   2   7  467.25    7.91
   0   2  -7  466.70   12.53
   0  -2  -7  475.53   12.13
   0   2   7  461.37    8.22
   0  -2   7  455.86    8.25
   0   2   8   40.54    2.55
   0   2   8   40.02    2.65
   0  -2   8   38.44    2.67
   0   2  -8   35.43    3.91
   0  -2   8   37.23    2.50
   0  -2  -8   41.43    3.95
   0  -2   9    0.21    0.69
   0   2   9    0.44    0.74
   0   2   9    0.15    0.55
   0   2  10  122.99    4.24
   0   2  10  131.37    4.36
   0  -2  10  115.80    4.28
   0  -2  11    4.51    0.92
   0   2  11    1.89    0.54
   0  -3   0    0.31    0.22
   0  -3   0    0.26    0.58
   0  -3  -1  288.41    4.17
   0   3  -1  286.36    5.37
   0  -3  -1  291.22    6.09
   0  -3  -2 2046.91   16.94
   0   3  -2 1985.74   15.58
   0   3  -3    9.21    1.35
   0  -3  -3    9.36    1.46
   0   3  -4   37.43    2.69
   0  -3  -4   35.84    2.83
   0   3   4   37.21    1.93
   0  -3   4   38.01    1.94
   0  -3  -5   81.15    4.65
   0   3   5   85.47    3.21
   0  -3   5   87.08    3.16
   0   3   5   86.17    2.93
   0   3  -5   89.21    4.65
   0   3   6   25.87    1.99
   0  -3  -6   24.47    2.83
   0  -3  -6   22.40    2.51
   0   3  -6   20.52    2.58
   0  -3   6   25.02    1.89
   0   3   6   25.78    1.78
   0   3  -7    6.46    1.52
   0  -3   7    5.55    1.06
   0  -3  -7    3.81    1.65
   0   3   7    5.72    0.91
   0  -3   7    5.70    1.09
   0  -3   7    5.50    1.13
   0   3   7    6.66    1.13
   0   3   8  160.13    4.89
   0  -3  -8  155.79    8.19
   0   3   8  161.52    5.23
   0  -3   8  161.41    5.37
   0   3   9   14.30    1.50
   0   3   9   13.74    1.70
   0  -3   9   13.45    1.65
   0  -3  10    1.21    0.66
   0   3  10    0.32    0.43
   0   3  10    1.19    0.50
   0  -3  11    0.67    0.48
   0  -4   0   17.85    1.84
   0  -4  -1 3225.21   23.72
   0   4  -1 3315.05   20.91
   0   4  -2   96.12    3.90
   0  -4  -2   91.70    4.24
   0  -4  -2   96.58    3.18
   0  -4   3  230.24    4.80
   0  -4  -3  221.68    6.91
   0   4  -3  226.76    6.45
   0   4   3  220.12    4.72
   0  -4  -4   96.19    4.97
   0  -4   4   94.94    3.34
   0   4   4   96.04    3.35
   0   4  -4   93.41    4.53
   0  -4   4   95.61    3.07
   0   4   5  234.17    5.02
   0   4   5  248.64    5.76
   0  -4   5  245.50    5.12
   0  -4   5  246.96    5.77
   0  -4  -5  226.10    8.20
   0   4  -5  241.39    8.04
   0  -4   6   55.76    2.99
   0   4   6   52.08    2.56
   0  -4  -6   48.40    4.23
   0   4   6   57.49    3.00
   0   4  -6   54.11    4.29
   0  -4   7  231.62    6.33
   0   4   7  219.03    5.45
   0  -4  -7  212.71    9.12
   0  -4   7  223.18    6.30
   0   4  -7  211.36    8.98
   0   4   7  222.11    6.15
   0   4   8    7.30    1.31
   0  -4   8    6.85    1.34
   0  -4   9  326.74    7.40
   0   4   9  319.22    7.15
   0  -4  10   13.93    1.46
   0   4  10   14.33    1.43
   0   5   0    0.48    0.57
   0  -5   0    0.57    0.57
   0  -5   0    1.13    0.61
   0  -5  -1  549.81    7.51
   0  -5   1  544.62    7.64
   0   5  -1  552.46    7.59
   0  -5  -1  555.02   11.37
   0   5  -1  539.79    9.56
   0  -5   1  541.05    7.69
   0  -5  -1  552.72    7.54
   0   5   1  551.93    7.65
   0   5   2    1.85    0.65
   0   5  -2    2.87    0.93
   0  -5  -2    1.89    0.60
   0  -5  -2    3.16    1.09
   0  -5   2    2.30    0.66
   0  -5  -2    3.48    0.76
   0   5  -2    2.35    0.67
   0  -5   3  892.29   10.52
   0   5  -3  847.43   13.59
   0  -5  -3  835.29   14.99
   0  -5  -3  873.09    9.88
   0   5   3  866.08   10.43
   0  -5   4  712.12    9.19
   0  -5  -4  738.60    9.43
   0  -5   4  748.24   10.20
   0  -5  -4  726.57   14.74
   0   5   4  725.62   10.08
   0   5  -4  712.42   13.47
   0  -5  -5    0.53    0.96
   0   5  -5    4.17    1.33
   0  -5   5    3.24    0.90
   0   5   5    3.19    0.93
   0  -5   5    4.46    0.90
   0   5  -6   77.47    5.28
   0   5   6   84.49    3.83
   0  -5  -6   81.39    5.48
   0  -5   6   82.62    3.86
   0  -5   7   13.43    1.76
   0   5   7   11.98    1.54
   0   5   8    5.33    1.18
   0  -5   8    3.61    1.15
   0  -5   9   80.55    3.49
   0   5   9   83.43    3.49
   0   5  10    0.82    0.55
   0  -5  10   -1.24    0.36
   0  -6   0 1056.91   11.49
   0  -6   0 1043.16   11.74
   0   6   0 1028.74   11.63
   0  -6  -1   48.19    2.55
   0   6  -1   48.25    2.56
   0  -6   1   50.27    2.71
   0  -6  -1   52.68    3.99
   0  -6   1   50.53    2.65
   0  -6  -1   49.53    2.53
   0   6   1   49.48    2.62
   0  -6  -2  203.62    5.13
   0  -6  -2  195.70    4.98
   0  -6  -2  210.55    8.00
   0   6   2  205.25    5.36
   0  -6   2  201.82    5.30
   0   6   3   27.22    2.11
   0  -6  -3   21.29    2.77
   0  -6  -3   24.67    1.89
   0  -6   3   24.51    2.01
   0  -6   4   10.34    1.32
   0  -6  -4    7.79    1.88
   0  -6  -4    8.12    1.16
   0   6   4    7.59    1.30
   0  -6   4   10.99    1.50
   0  -6   5   11.79    1.52
   0  -6  -5   10.07    2.29
   0   6   5    9.88    1.51
   0  -6   5    9.27    1.52
   0  -6  -5    9.01    1.26
   0   6   6 1335.90   15.28
   0  -6   6 1366.38   15.68
   0   6   7    2.15    0.90
   0  -6   7    2.24    1.07
   0   6   8   39.73    2.49
   0  -6   8   35.74    2.46
   0   6   9    3.69    0.72
   0  -6   9    4.70    0.87
   0  -7   0   -0.21    0.72
   0   7   0   -0.12    0.58
   0  -7   0    0.20    0.43
   0   7  -1    3.71    1.06
   0  -7  -1    2.45    0.81
   0  -7   1    3.81    0.96
   0  -7  -1    2.59    0.85
   0   7   1    2.76    0.87
   0  -7   2    4.14    0.97
   0  -7  -2    7.35    1.30
   0   7   2    5.30    1.17
   0  -7  -3   63.08    3.04
   0  -7   3   55.06    3.09
   0   7   3   56.34    3.18
   0  -7   3   57.14    3.06
   0  -7  -3   57.12    4.64
   0  -7  -4   91.60    3.65
   0  -7   4   87.71    3.95
   0  -7   4   93.70    3.91
   0   7   4  101.21    4.25
   0  -7   5  230.03    5.91
   0   7   5  249.95    6.60
   0  -7   5  236.18    6.47
   0  -7   6    6.73    1.34
   0   7   6    5.09    1.05
   0  -7   7   17.50    1.81
   0   7   7   14.10    1.54
   0   7   8    1.11    0.52
   0  -7   8    1.40    0.69
   0  -8   0    2.01    0.97
   0   8   0    1.74    0.76
   0  -8   1  583.35    9.39
   0  -8  -1  580.27    9.56
   0   8   1  594.21   10.00
   0  -8   2   33.17    2.37
   0  -8   2   29.64    2.28
   0  -8  -2   28.85    2.15
   0   8   2   31.21    2.46
   0  -8   3    9.45    1.38
   0  -8   3    7.24    1.23
   0   8   3    8.18    1.36
   0  -8   4    0.75    0.70
   0   8   4    1.56    0.75
   0  -8   4    0.26    0.46
   0  -8   5   20.04    1.90
   0  -8   5   21.46    1.73
   0   8   5   23.38    1.94
   0  -8   6   81.49    3.44
   0   8   6   86.88    3.51
   0  -8   7   74.07    2.96
   0   8   7   81.93    3.06
   0  -9   0    0.21    0.58
   0  -9   1   69.35    2.98
   0  -9   1   68.00    3.23
   0   9   1   68.75    3.24
   0  -9   2  138.05    4.51
   0  -9   2  144.86    4.36
   0   9   2  137.06    4.52
   0   9   3    9.09    1.20
   0  -9   3    7.94    1.11
   0  -9   3    6.67    1.13
   0   9   4  185.44    4.98
   0  -9   4  180.34    4.71
   0  -9   4  179.22    4.64
   0  -9   5    4.04    0.78
   0   9   5    5.80    0.88
   0 -10   0   95.60    3.29
   0 -10   1  150.73    4.11
   0 -10  -1  142.36    3.88
   0 -10  -2   19.26    1.40
   0 -10   2   19.16    1.53
  -1   0   0    1.37    0.45
   1   0   0   -0.05    0.16
  -1   0   1 1034.86    7.37
  -1   0  -1 1044.48    7.48
   1   0  -3 1422.21   11.55
  -1   0  -3 1382.58   12.70
  -1   0  -4  494.85    8.93
   1   0  -4  494.39    8.18
  -1   0  -5    5.64    1.36
   1   0  -5    5.28    1.15
  -1   0   5    7.15    0.94
   1   0   5    6.31    0.95
  -1   0  -6   30.17    2.91
   1   0  -6   29.81    2.74
   1   0   6   29.87    2.05
  -1   0   6   29.91    2.00
   1   0   6   27.27    1.73
   1   0   7   21.80    1.76
   1   0   7   19.22    1.84
   1   0  -7   17.92    2.34
  -1   0  -7   19.45    2.66
  -1   0   7   18.07    1.77
  -1   0  -8  162.89    8.12
  -1   0   8  155.87    5.17
   1   0  -8  160.16    7.61
   1   0   8  155.03    4.72
  -1   0   8  151.76    5.18
   1   0   8  150.38    5.10
  -1   0   9   21.00    2.13
   1   0   9   22.65    2.13
   1   0  10  409.06    7.94
   1   0  10  409.67    8.13
  -1   0  10  413.55    8.39
   1   0  11   18.70    1.48
  -1   0  11   19.34    1.73
   1  -1  11   21.10    1.65
  -1   1  11   20.07    1.69
   1  -1  10   61.29    3.12
  -1   1  10   63.68    3.33
  -1   1  10   64.18    3.20
   1  -1   9   65.22    3.44
  -1   1   9   70.84    3.64
   1  -1   9   70.41    3.28
   1   1  -8  302.33   10.67
  -1   1   8  295.42    6.45
  -1   1   8  301.04    7.16
   1  -1   8  315.88    7.45
   1  -1   8  304.03    6.67
  -1  -1  -8  306.58   11.30
   1  -1   7  260.14    6.47
  -1   1   7  256.92    6.15
  -1   1   7  253.36    6.05
   1  -1   7  251.78    5.71
  -1   1   7  258.94    5.66
  -1  -1  -7  259.64    9.42
   1   1  -7  272.83    9.31
  -1   1   6   13.51    1.26
   1  -1   6   14.91    1.58
   1   1  -6   13.93    2.05
  -1  -1  -6   15.68    2.24
  -1   1   6   14.24    1.35
   1  -1   6   14.66    1.26
   1  -1   6   13.44    1.31
  -1   1   6   14.02    1.37
   1   1  -5  384.05    8.78
  -1   1   5  370.85    6.05
  -1  -1  -5  373.96    8.96
   1   1  -4  125.12    4.39
  -1  -1  -4  136.60    4.79
  -1  -1  -3  778.52    9.96
   1   1  -3  820.52    9.88
  -1  -1  -2 1782.28   13.20
   1   1  -2 1771.84   12.71
  -1  -1  -1  713.60    4.68
  -1  -1   0  699.23    6.67
  -1   1   0  694.53    4.82
   1  -1  -1  727.06    3.65
  -1  -1   1  717.59    6.80
  -1   1  -1  714.05    5.72
  -1   1  -2 1745.31   11.91
   1  -1  -2 1763.26    9.38
   1  -1  -3  839.45    8.41
  -1   1  -3  839.52   10.09
   1  -1  -4  133.00    4.07
  -1   1  -4  133.18    4.77
   1  -1  -5  367.57    7.87
  -1   1  -5  377.89    9.08
   1   1   5  389.98    6.42
  -1  -1   5  367.45    6.12
  -1   1  -6   13.82    2.11
   1   1   6   15.46    1.51
   1  -1  -6   17.42    2.04
  -1  -1   6   15.24    1.46
  -1  -1   7  258.49    6.31
   1  -1  -7  241.28    8.26
   1   1   7  260.72    6.34
  -1   1  -7  254.07    9.29
  -1   1  -8  312.28   11.25
  -1  -1   8  297.73    7.28
   1   1   8  305.05    7.23
   1  -1  -8  287.10    9.85
   1   1   9   70.63    3.36
  -1  -1   9   69.87    3.63
   1   1   9   68.39    3.55
   1   1  10   65.83    3.07
   1   1  10   64.29    3.27
  -1  -1  10   65.67    3.43
   1   1  11   21.78    1.68
  -1  -1  11   22.90    1.83
  -1   2  11   26.31    1.80
   1  -2  11   27.54    1.86
  -1   2  10   37.83    2.53
   1  -2  10   36.34    2.35
   1  -2   9   39.01    2.66
   1  -2   9   45.22    2.69
  -1   2   9   43.99    2.86
  -1   2   8   45.98    2.64
   1  -2   8   41.68    2.81
   1   2  -8   47.63    4.44
  -1   2   8   46.43    2.85
  -1  -2  -8   44.06    4.40
   1  -2   8   44.04    2.69
  -1  -2  -7   65.58    4.93
  -1   2   7   57.76    2.81
   1  -2   7   64.86    3.03
  -1   2   7   60.69    3.07
   1   2  -7   56.08    4.47
   1  -2   7   63.86    3.34
   1  -2   7   62.15    2.93
  -1   2   6  395.52    7.03
   1  -2   6  389.61    6.80
  -1  -2  -6  389.11   10.75
   1   2  -6  400.75   10.58
   1  -2   6  405.75    6.80
  -1   2   6  389.53    6.72
   1   2  -5 1992.45   20.87
  -1  -2  -5 1948.18   21.47
  -1   2   5 1954.14   14.07
  -1   2   5 1940.32   13.65
   1  -2   5 1976.24   13.57
   1   2  -4  265.91    6.93
  -1  -2  -4  264.04    7.12
   1   2  -3 2011.62   17.06
  -1  -2  -3 2017.35   17.49
  -1  -2  -2   40.53    1.90
   1   2  -2   43.51    2.34
  -1  -2  -1  769.19    8.34
  -1  -2  -1  758.45    7.05
  -1  -2   0  726.02    7.63
  -1   2   0  735.52    3.99
  -1   2  -1  792.24    6.76
  -1   2  -1  786.64    4.47
   1  -2  -2   46.04    1.54
  -1   2  -2   40.41    2.02
   1  -2  -2   41.69    2.41
  -1   2  -3 1967.19   16.34
   1  -2  -3 2009.73   12.92
   1  -2  -4  266.28    5.69
  -1   2  -4  263.62    6.96
  -1  -2   5 1956.51   14.61
   1   2   5 1982.69   14.73
  -1  -2   5 1928.31   13.25
  -1   2  -5 1928.59   21.33
   1   2   6  399.27    7.34
  -1  -2   6  396.32    7.34
   1   2   6  379.53    6.24
   1  -2  -6  386.79    9.19
  -1   2  -6  400.43   10.87
  -1   2  -7   53.98    4.41
   1  -2  -7   65.44    4.24
   1   2   7   59.61    2.75
   1   2   7   58.88    3.13
  -1  -2   7   65.28    3.30
  -1   2  -8   39.29    4.08
   1   2   8   44.77    2.54
  -1  -2   8   42.45    2.89
   1   2   8   44.31    2.89
   1   2   9   43.42    2.93
   1   2   9   44.62    2.52
  -1  -2   9   45.41    3.04
  -1  -2  10   37.15    2.52
   1   2  10   37.85    2.48
  -1  -2  10   35.91    2.55
  -1  -2  11   24.55    1.77
   1   2  11   25.72    1.72
   1  -3  11    7.54    0.99
  -1   3  11    8.43    1.10
  -1   3   9   35.32    2.35
  -1   3   9   40.72    2.64
   1  -3   9   38.67    2.61
   1  -3   9   38.32    2.47
   1  -3   8   66.91    3.54
  -1   3   8   62.57    3.25
   1  -3   8   67.15    3.35
  -1   3   8   61.15    3.14
  -1   3   7   58.33    3.04
   1  -3   7   60.59    3.02
   1   3  -7   59.05    4.70
  -1  -3  -7   56.08    4.38
   1  -3   7   57.49    3.00
  -1   3   7   57.99    2.96
   1  -3   6  117.29    3.93
   1   3  -6  116.03    5.97
  -1   3   6  116.47    3.95
  -1  -3  -6  110.28    5.57
  -1   3   6  104.12    3.66
  -1   3   5   23.52    1.69
  -1  -3  -5   22.48    2.35
  -1   3   5   23.77    1.69
   1   3  -5   20.74    2.42
   1  -3   5   24.87    1.72
  -1  -3  -4  134.56    4.98
  -1   3   4  132.81    3.54
   1   3  -4  136.64    5.38
  -1   3   4  133.37    3.58
   1  -3   4  130.67    3.56
  -1  -3  -3  159.45    4.86
   1   3  -3  169.83    5.51
  -1  -3  -2  245.14    5.43
   1   3  -2  257.21    6.32
  -1  -3  -2  250.39    5.79
  -1  -3  -1  132.81    3.90
  -1  -3  -1  137.36    3.88
  -1   3   0 1961.30    9.88
  -1  -3   0 1966.70   13.63
   1  -3   0 1951.48   16.63
  -1   3  -1  135.29    3.30
  -1  -3   1  132.81    3.47
   1  -3  -1  134.92    4.49
   1  -3  -2  254.62    6.56
  -1   3  -2  257.54    5.48
   1  -3  -3  167.40    5.82
  -1   3  -3  166.96    5.19
   1  -3  -4  127.09    5.64
   1   3   4  131.48    3.71
  -1  -3   4  134.11    3.53
  -1   3  -4  136.93    5.33
  -1  -3   4  135.41    3.69
  -1  -3   5   23.71    1.78
  -1   3  -5   23.74    2.60
   1  -3  -5   20.68    2.59
   1   3   5   26.08    1.89
  -1  -3   5   24.05    1.69
  -1   3  -6  112.63    6.03
   1   3   6  111.04    4.10
   1  -3  -6  120.15    6.47
  -1  -3   6  114.34    4.14
  -1  -3   6  111.54    3.63
  -1  -3   7   56.07    3.18
   1  -3  -7   67.94    5.43
  -1   3  -7   60.06    4.80
   1   3   7   56.56    3.20
  -1  -3   8   63.88    3.55
   1   3   8   68.89    3.69
   1   3   9   36.47    2.62
  -1  -3   9   42.08    2.89
  -1  -3  10   12.80    1.58
  -1   3 -10   16.28    1.80
   1   3  10   14.94    1.57
  -1  -3  10   14.99    1.59
   1   3  11    7.53    0.95
  -1  -3  11    7.69    1.03
  -1   4  10   15.86    1.61
   1  -4   9   76.79    3.46
   1  -4   9   77.89    3.37
  -1   4   9   73.26    3.21
   1  -4   8    7.84    1.25
   1  -4   8    7.76    1.34
  -1   4   8    7.07    1.20
   1  -4   8    7.17    1.31
   1   4  -7    9.84    2.37
   1  -4   7   13.47    1.58
  -1   4   7   14.74    1.68
   1  -4   7   14.75    1.62
  -1   4   7   14.56    1.67
  -1  -4  -6   58.09    4.26
  -1   4   6   58.40    2.96
   1   4  -6   58.22    4.50
  -1   4   6   58.11    2.91
   1  -4   6   63.20    3.12
   1   4  -5  389.57   10.50
   1  -4   5  397.84    7.24
  -1   4   5  403.35    7.25
  -1  -4  -5  376.97    9.84
   1   4  -4  186.13    6.81
  -1  -4  -4  178.15    6.29
  -1   4   4  176.48    4.56
   1  -4   4  181.76    4.64
  -1   4   3  929.57    9.81
  -1  -4  -3  909.89   12.97
  -1  -4  -3  970.33   13.38
   1  -4   3  962.29   10.11
   1   4  -3  969.70   14.53
   1  -4   2   24.41    1.63
  -1  -4  -2   22.93    1.98
  -1  -4  -2   23.00    1.97
  -1   4   2   25.55    1.62
   1   4  -2   25.16    2.33
  -1  -4  -1  406.67    7.95
  -1  -4  -1  411.21    7.17
  -1   4   0  277.77    4.63
   1  -4   0  276.60    7.33
  -1  -4   1  427.35    6.28
   1  -4  -1  407.25    9.00
  -1   4  -1  402.55    6.57
   1  -4  -2   25.34    2.50
  -1  -4   2   25.46    1.70
  -1   4  -2   24.19    1.94
  -1  -4   3  941.32    9.65
  -1  -4   3  948.88    9.83
  -1   4  -3  917.08   13.01
   1   4   3  942.58    9.78
  -1  -4   4  179.80    4.68
  -1  -4   4  172.29    4.47
  -1   4  -4  170.33    6.33
   1  -4  -4  183.95    7.23
   1   4   4  178.62    4.67
  -1  -4   5  390.67    7.47
  -1  -4   5  389.83    6.98
   1  -4  -5  397.84   11.48
   1   4   5  397.27    7.49
  -1   4  -5  373.88   10.30
  -1  -4   6   58.52    3.15
   1   4   6   60.85    3.19
  -1  -4   6   60.90    2.96
   1  -4  -6   52.38    4.55
  -1   4  -6   58.28    4.52
  -1   4  -7   15.83    2.69
  -1  -4   7   13.77    1.80
   1  -4  -7    8.76    2.22
   1   4   7   12.59    1.72
  -1  -4   8    7.02    1.40
   1   4   8    8.55    1.43
  -1  -4   9   80.26    3.81
   1   4   9   77.63    3.62
  -1  -4  10   16.95    1.62
  -1  -4  10   19.58    1.63
  -1   4 -10   19.87    1.95
   1   4  10   18.93    1.67
  -1   5  10    2.38    0.75
   1  -5   9   45.01    2.40
  -1   5   9   46.57    2.46
  -1   5   9   47.31    2.85
   1  -5   8    6.87    1.21
   1  -5   8    8.75    1.25
   1  -5   8    7.76    1.23
  -1   5   8    7.00    1.20
   1  -5   7  124.51    4.72
  -1   5   7  134.04    4.73
  -1   5   6   88.37    3.83
   1  -5   6   91.69    4.00
   1   5  -6   84.35    5.61
  -1   5   5   52.02    2.90
   1  -5   5   55.41    2.96
   1   5  -5   55.31    4.32
   1   5  -4    5.48    1.44
   1  -5   4    4.15    0.79
  -1   5   4    4.60    1.01
   1  -5   4    4.43    0.99
  -1  -5  -4    2.28    1.23
  -1  -5  -3   46.64    3.45
   1   5  -3   51.59    3.71
  -1  -5  -3   51.72    2.61
  -1   5   3   51.08    2.65
   1  -5   3   55.36    2.77
  -1  -5  -2  392.76    9.23
   1  -5   2  413.06    7.17
   1   5  -2  399.40    9.68
  -1  -5  -2  388.64    6.85
  -1   5   2  404.08    6.99
  -1  -5  -1 2017.96   20.31
   1   5  -1 2025.46   13.71
  -1  -5  -1 2047.34   15.33
  -1   5   1 2074.78   15.44
   1  -5   1 2071.16   15.61
  -1  -5   0  246.20    5.35
   1  -5   0  254.76    7.94
   1  -5   0  253.06    5.52
   1  -5   0  247.33    4.92
   1   5   0  261.65    4.97
  -1   5   0  263.15    5.52
   1   5   1 2025.07   14.24
  -1  -5   1 2006.04   14.43
  -1  -5   1 2038.04   15.39
  -1   5  -1 2038.04   15.42
   1  -5  -1 2031.18   22.74
   1   5   2  396.97    6.63
  -1  -5   2  395.68    7.07
   1  -5  -2  395.79   10.44
  -1  -5   2  381.66    6.61
  -1  -5   3   50.31    2.57
  -1  -5   3   50.15    2.53
   1   5   3   51.33    2.58
   1  -5  -3   49.32    4.00
   1   5   4    5.75    1.10
  -1  -5   4    4.59    0.89
  -1  -5   4    4.72    0.92
  -1   5  -4    6.41    1.41
   1  -5  -4    4.59    1.59
  -1  -5   5   55.50    2.87
  -1   5  -5   52.32    4.12
  -1  -5   5   49.91    2.94
   1   5   5   55.00    3.03
   1  -5  -5   49.21    4.56
  -1  -5   6   88.36    3.74
  -1  -5   6   85.69    4.02
   1  -5  -6   86.33    6.09
   1   5   6   86.93    3.93
  -1  -5   7  126.48    4.98
   1   5   7  137.55    5.02
  -1  -5   7  128.77    5.03
  -1  -5   8    8.14    1.41
   1   5   8    7.59    1.35
  -1  -5   9   49.80    2.87
   1   5   9   51.04    2.78
  -1   5 -10    1.49    0.64
  -1  -5  10    0.61    0.38
   1   5  10    1.35    0.50
  -1   6   9    8.99    1.20
   1  -6   8   60.42    2.93
  -1   6   8   61.37    3.14
  -1   6   8   60.40    2.93
   1  -6   8   61.94    3.10
  -1  -6  -7  114.83    4.20
   1  -6   7  115.26    4.47
  -1   6   7  116.38    4.37
   1  -6   6  327.02    7.56
  -1   6   6  316.63    7.36
  -1  -6  -6  337.22    7.45
  -1   6   5  109.97    4.38
   1   6  -5  107.96    6.30
   1  -6   5  112.49    4.48
  -1  -6  -5  112.34    4.35
   1  -6   4 1971.87   17.89
   1   6  -4 1904.10   24.65
   1  -6   4 1963.14   15.87
  -1   6   4 1958.80   17.89
  -1  -6  -4 1913.01   17.53
   1   6  -3  145.51    6.65
  -1  -6  -3  148.68    6.57
  -1   6   3  152.63    4.90
  -1  -6  -3  145.24    4.76
   1  -6   3  151.01    4.87
   1  -6   2  735.81   10.49
  -1  -6  -2  727.96   13.97
  -1  -6  -2  733.72   10.32
  -1   6   2  724.45   10.40
   1   6  -2  737.42   14.28
  -1   6   1   70.18    3.22
   1  -6   1   68.30    3.19
   1   6  -1   60.94    4.06
  -1  -6  -1   67.96    3.14
   1   6  -1   65.05    2.78
   1  -6   0   16.71    1.50
  -1  -6   0   16.32    1.67
   1  -6   0   16.76    1.66
  -1  -6   0   15.92    1.46
   1   6   0   17.31    1.54
  -1   6   0   20.05    1.78
   1  -6  -1   61.08    4.52
  -1  -6   1   65.86    3.16
  -1   6  -1   66.84    3.16
   1  -6  -1   64.18    3.13
  -1  -6   1   66.36    2.90
   1   6   1   63.72    2.85
  -1  -6   2  739.95   10.65
  -1  -6   2  722.11    9.85
   1  -6  -2  711.50   10.21
  -1  -6   2  732.28   10.10
   1   6   2  729.66    9.92
   1  -6  -2  729.36   15.83
  -1  -6   3  146.70    4.75
  -1  -6   3  146.33    4.66
   1  -6  -3  146.07    7.37
   1   6   3  147.09    4.69
   1  -6  -4 1974.95   27.81
  -1  -6   4 1909.12   17.62
  -1  -6   4 1939.58   17.51
   1   6   4 1977.17   17.67
   1   6   5  107.64    4.35
   1  -6  -5  122.66    7.30
  -1  -6   5  108.64    4.51
  -1  -6   5  112.18    4.28
  -1  -6   6  324.47    7.16
  -1  -6   6  325.24    7.80
   1   6   6  324.24    7.58
  -1  -6   7  115.08    4.67
  -1  -6   7  113.80    4.57
   1   6   7  114.21    4.45
   1   6   8   60.73    3.06
  -1  -6   8   64.03    3.28
  -1   6  -9    7.45    1.36
  -1  -6   9    6.95    1.08
   1   6   9    9.44    1.12
   1  -7   8   37.27    2.01
  -1   7   8   38.56    2.09
  -1   7   8   42.59    2.16
   1  -7   7    4.03    0.99
  -1   7   7    2.63    0.77
   1  -7   7    3.41    0.94
  -1   7   7    3.57    0.85
  -1   7   6   15.41    1.51
  -1   7   6   11.72    1.50
  -1  -7  -6   15.32    1.70
   1  -7   6   17.57    1.82
  -1   7   5    3.37    0.97
   1  -7   5    3.59    0.97
  -1  -7  -5    2.35    0.92
   1  -7   4    2.28    0.63
  -1   7   4   -0.25    0.77
  -1  -7  -4    1.49    1.00
   1  -7   4    1.68    0.94
  -1  -7  -3   30.55    2.40
   1  -7   3   31.65    2.46
  -1   7   3   30.76    2.47
  -1  -7  -2  162.25    5.26
   1  -7   2  170.12    5.41
  -1  -7  -1  332.81    7.49
   1   7  -1  359.79    6.98
   1  -7   1  353.32    7.63
  -1   7   1  349.57    7.72
   1   7   0    1.07    0.78
  -1  -7   0    0.89    0.84
  -1   7   0    0.60    0.84
   1  -7   0    0.68    0.78
   1  -7  -1  355.94    7.56
  -1  -7   1  341.16    6.91
  -1  -7   1  334.69    7.65
  -1   7  -1  352.18    7.75
   1   7   1  348.94    7.12
  -1  -7   1  363.43    7.60
  -1  -7   2  170.79    5.29
   1  -7  -2  166.92    8.13
  -1  -7   2  170.39    5.07
   1   7   2  171.89    5.16
   1  -7  -2  174.96    5.35
  -1  -7   3   28.60    2.26
   1  -7  -3   28.32    2.21
   1   7   3   30.30    2.28
   1  -7  -3   23.25    3.28
  -1  -7   3   31.24    2.42
   1  -7  -4    1.68    0.73
  -1  -7   4    1.72    0.78
  -1  -7   4    2.68    1.03
   1   7   4    2.97    0.91
   1   7   5    3.55    1.04
  -1  -7   5    3.25    1.02
  -1  -7   5    2.64    1.07
  -1  -7   6   12.67    1.46
   1   7   6   16.40    1.72
  -1  -7   6   15.06    1.76
  -1  -7   7    4.42    0.96
   1   7   7    4.51    0.92
  -1  -7   8   40.72    2.32
   1   7   8   40.21    2.22
  -1   7  -8   43.40    2.67
  -1   8   7    4.15    0.79
   1  -8   7    4.67    0.91
  -1   8   6   60.38    2.87
   1  -8   6   58.35    2.85
   1  -8   5   68.21    3.25
  -1   8   5   66.35    3.25
  -1  -8  -5   68.23    3.05
   1  -8   4  257.52    6.45
   1  -8   4  251.42    5.88
  -1   8   4  267.97    6.73
  -1  -8  -4  246.61    6.09
  -1   8   3  204.33    6.04
  -1  -8  -3  210.99    5.83
   1  -8   3  203.77    5.46
   1  -8   3  205.56    5.87
   1  -8   2   50.56    2.99
  -1  -8  -2   50.55    3.06
  -1   8   2   52.01    3.13
   1  -8   1  258.72    6.60
  -1   8   1  259.78    6.83
  -1  -8  -1  261.59    6.78
  -1   8   0  236.60    6.55
   1   8   0  239.79    5.91
  -1  -8   0  234.31    6.24
  -1  -8   0  227.91    6.38
   1  -8   0  225.74    6.10
  -1  -8   1  256.53    6.54
   1  -8  -1  256.21    6.42
   1   8   1  261.66    6.31
  -1  -8   2   52.50    2.83
  -1  -8   2   51.73    3.08
   1   8   2   51.97    2.90
   1  -8  -2   50.18    2.86
  -1  -8   3  195.60    5.48
   1  -8  -3  188.21    5.17
  -1  -8   3  205.23    5.90
   1   8   3  204.60    5.71
  -1  -8   4  250.79    6.37
  -1  -8   4  244.12    6.09
   1   8   4  256.67    6.32
   1   8   5   70.42    3.25
  -1  -8   5   69.28    3.23
  -1  -8   5   66.21    3.13
  -1  -8   6   56.33    2.58
   1   8   6   57.32    2.79
  -1   8  -6   61.49    3.12
   1   8   7    3.52    0.74
  -1  -8   7    3.56    0.78
  -1   9   5   16.09    1.42
   1  -9   5   14.41    1.33
  -1   9   4   11.69    1.35
   1  -9   4   12.40    1.20
   1  -9   4   10.64    1.26
   1  -9   3   35.46    2.23
  -1   9   3   37.79    2.42
  -1  -9  -3   36.50    2.24
   1  -9   3   36.02    2.13
   1  -9   2   97.96    3.66
   1  -9   2  102.87    3.80
  -1   9   2  102.79    4.00
  -1  -9  -2   97.07    3.73
  -1  -9  -2   99.66    3.60
  -1  -9  -1   62.15    2.98
   1  -9   1   63.16    3.01
   1  -9   0  143.21    4.41
  -1  -9   0  141.97    4.61
   1  -9  -1   64.10    2.93
  -1  -9   1   64.11    3.15
   1   9   1   61.84    2.86
  -1  -9   2  104.66    4.02
   1   9   2  100.13    3.61
  -1  -9   3   33.15    2.24
   1   9   3   36.83    2.19
  -1  -9   4   11.61    1.29
   1   9   4   11.59    1.20
   1   9   5   14.78    1.26
  -1  -9   5   14.41    1.29
  -1 -10  -1   18.14    1.40
   1 -10   1   18.02    1.45
  -1 -10   0    4.26    0.87
   1 -10   0    4.27    0.87
   1 -10  -1   15.79    1.30
  -1 -10   1   14.61    1.35
  -1 -10   2   38.54    2.04
   1 -10  -2   40.45    1.97
  -2   0   1 9999.00   31.72
  -2   0  -1 9916.64   33.19
   2   0  -2 7154.89   25.55
  -2   0  -2 7225.70   29.91
   2   0  -3  885.23    9.97
  -2   0  -3  856.48   11.80
   2   0  -4  361.74    7.20
  -2   0  -4  354.61    8.54
   2   0  -5  305.97    7.66
   2   0   5  306.05    6.14
  -2   0   5  308.01    5.90
  -2   0   5  305.79    5.65
  -2   0   5  289.89    5.24
  -2   0  -5  307.33    6.18
  -2   0  -5  302.84    8.95
  -2   0   6  512.88    7.46
   2   0   6  533.77    8.85
  -2   0   6  540.67    8.66
  -2   0  -6  548.40   13.40
  -2   0  -6  536.16    8.77
  -2   0   6  532.77    8.30
   2   0  -6  536.83   11.34
   2   0   7   63.37    3.37
  -2   0   7   61.44    2.74
  -2   0   7   65.47    3.33
  -2   0   7   65.08    3.30
   2   0  -7   66.57    4.46
  -2   0   7   62.69    3.20
  -2   0  -7   65.26    5.24
  -2   0   8  753.70   11.71
  -2   0   8  745.70   11.38
  -2   0  -8  741.90   18.45
   2   0  -8  732.20   15.89
  -2   0   8  738.68   11.07
   2   0   8  720.97   11.74
   2   0   9    1.82    0.98
  -2   0   9    1.87    0.90
  -2   0  10   58.35    3.14
   2   0  10   57.79    2.73
   2   0  10   52.57    3.03
   2   0  11   86.17    3.25
  -2   0  11   93.02    3.40
  -2   1  11   14.12    1.35
   2  -1  11   14.92    1.38
  -2   1  10   22.37    1.99
  -2   1  10   25.46    2.05
   2  -1  10   28.19    2.19
  -2   1   9   68.04    3.59
  -2   1   9   73.12    3.70
   2  -1   9   67.91    3.64
   2  -1   8   32.58    2.70
   2   1  -8   31.51    3.58
  -2   1   8   26.10    2.36
  -2  -1  -8   30.28    3.86
  -2   1   8   29.80    2.42
  -2   1   7   16.10    1.75
  -2   1   7   17.31    1.50
   2  -1   7   16.39    1.77
  -2  -1  -7   20.81    3.07
   2   1  -7   15.40    2.41
  -2   1   6  270.65    6.15
   2  -1   6  275.70    6.52
  -2   1   6  265.66    5.93
  -2   1   6  263.38    5.28
  -2  -1  -6  272.20    9.48
   2   1  -6  274.67    8.57
  -2   1   5  846.11    9.72
  -2   1   5  832.92    9.43
  -2   1   5  818.35    8.70
  -2  -1  -5  842.80   15.24
   2   1  -5  829.25   13.36
  -2  -1  -4   25.75    2.57
   2   1  -4   23.15    2.08
   2   1  -3  337.00    7.08
  -2  -1  -3  334.16    7.77
  -2  -1  -2 1994.46   17.30
  -2  -1  -1  448.12    7.60
  -2   1   1  470.31    6.35
  -2  -1   0  174.51    4.57
   2  -1   0  184.96    3.75
  -2   1   0  179.54    3.92
  -2  -1   1  467.53    7.40
   2  -1  -1  466.82    6.60
  -2   1  -1  458.98    6.61
   2  -1  -1  470.03    4.26
   2  -1  -2 2090.01   10.68
  -2   1  -2 2074.78   15.41
  -2  -1   2 2044.59   15.88
  -2   1  -2 2073.49   15.15
   2  -1  -3  335.30    5.34
  -2   1  -3  328.55    7.13
  -2   1  -4   24.64    2.38
   2  -1  -4   32.89    2.07
  -2   1  -5  816.57   14.66
   2  -1  -5  856.51   11.90
  -2  -1   5  835.27    9.25
  -2  -1   5  857.14    9.89
   2   1   5  840.09   10.08
   2  -1  -6  279.85    7.80
  -2  -1   6  274.17    6.29
  -2  -1   6  265.54    5.57
  -2   1  -6  263.68    9.30
   2   1   6  274.75    6.34
  -2  -1   7   18.36    1.91
  -2   1  -7   14.16    2.56
  -2  -1   7   18.19    1.52
  -2   1  -7   19.57    2.07
   2   1   7   17.86    1.89
  -2   1  -8   29.08    3.91
  -2  -1   8   34.96    2.54
  -2  -1   8   33.35    2.65
  -2   1  -8   32.17    2.59
   2   1   8   30.38    2.52
  -2  -1   9   66.42    3.65
  -2  -1   9   70.77    3.61
   2   1   9   68.29    3.63
   2   1  10   26.39    2.16
  -2  -1  10   23.93    2.07
  -2  -1  11   13.22    1.40
   2   1  11   14.19    1.37
  -2   2  10   17.31    1.73
  -2   2  10   13.95    1.58
   2  -2  10   14.58    1.61
  -2   2   9   33.86    2.50
  -2   2   9   35.15    2.74
   2  -2   9   33.74    2.62
   2  -2   8  169.24    5.84
  -2   2   8  165.12    5.42
   2  -2   7  242.80    6.80
  -2   2   7  231.79    6.11
   2   2  -7  239.86    9.17
   2   2  -6    2.54    1.10
  -2   2   6    2.92    0.82
  -2   2   6    3.15    0.92
   2  -2   5  218.31    4.51
   2   2  -5  230.49    7.51
  -2   2   5  218.03    4.59
  -2   2   5  223.37    5.10
   2   2  -4  410.98    9.31
  -2   2   4  398.38    5.79
  -2   2   4  411.74    6.34
   2   2  -3  101.88    4.36
  -2  -2  -3  110.55    4.79
  -2  -2  -3  108.46    3.09
  -2  -2  -2  103.33    4.22
  -2  -2  -2  100.68    2.30
  -2  -2  -1  950.21   11.77
   2  -2   1  947.38   10.35
  -2   2   0   94.90    2.46
   2  -2   0  101.25    3.52
  -2  -2   0   98.42    3.72
  -2  -2   1  919.99   10.98
  -2   2  -1  901.89    7.34
  -2   2  -1  909.98    8.24
  -2   2  -2  109.09    3.44
  -2   2  -2  103.60    3.16
   2  -2  -2  109.21    4.17
  -2  -2   2  110.19    3.91
  -2   2  -3  112.27    4.34
  -2   2  -3  111.11    3.85
   2  -2  -3  115.24    4.70
  -2   2  -4  399.43    9.44
  -2  -2   4  402.69    6.35
   2   2   4  414.42    6.44
  -2   2  -4  398.45    5.83
  -2  -2   5  223.62    5.30
  -2   2  -5  222.46    7.92
  -2  -2   5  227.93    5.13
   2   2   5  229.71    5.31
  -2   2  -5  213.44    4.53
  -2  -2   6    3.16    0.97
  -2   2  -6    2.36    1.09
  -2  -2   6    2.46    0.70
   2   2   6    2.85    0.91
  -2   2  -7  242.83    9.95
   2   2   7  240.68    6.41
  -2  -2   7  253.82    6.62
  -2  -2   7  224.06    5.61
  -2  -2   8  167.54    5.72
  -2   2  -8  172.69    6.24
   2   2   8  167.91    5.68
  -2  -2   9   31.72    2.53
  -2   2  -9   30.74    2.64
  -2  -2   9   33.68    2.54
   2   2   9   31.70    2.55
  -2  -2  10   15.57    1.71
   2   2  10   17.56    1.76
  -2  -2  10   16.14    1.65
   2   2  11   29.32    1.85
  -2  -2  11   28.29    1.78
   2  -3  10    7.84    1.09
  -2   3  10   10.12    1.39
  -2   3   9   19.56    2.01
   2  -3   9   20.77    2.08
  -2   3   9   22.30    2.20
   2  -3   8   18.10    2.00
  -2   3   8   17.10    1.89
  -2   3   7   76.16    3.62
  -2  -3  -7   89.31    6.44
   2   3  -7   86.80    5.77
   2  -3   7   85.02    3.45
   2  -3   6   34.03    2.10
  -2   3   6   27.59    1.93
  -2   3   6   33.53    2.34
   2   3  -6   28.79    3.16
   2   3  -5   14.77    2.08
   2  -3   5   13.39    1.28
  -2   3   5   12.46    1.44
  -2  -3  -5   15.01    2.37
  -2   3   5   13.69    1.43
  -2   3   4  243.10    5.24
  -2  -3  -4  252.98    8.23
  -2   3   4  248.82    5.14
   2  -3   4  241.27    4.99
   2   3  -4  263.92    8.15
  -2  -3  -3  280.45    7.88
   2  -3   3  270.91    5.07
   2   3  -3  277.27    7.89
  -2  -3  -2  343.94    8.11
  -2  -3  -2  327.37    5.40
  -2  -3  -1  423.44    8.46
   2  -3   1  438.06    8.37
  -2  -3   0  174.79    5.20
   2  -3   0  180.48    5.52
  -2  -3   1  445.10    8.06
   2  -3  -1  433.12    8.75
  -2  -3   2  340.55    7.15
   2  -3  -2  336.67    8.16
  -2   3  -3  251.95    6.85
  -2  -3   3  263.70    5.14
   2  -3  -3  284.78    8.17
   2   3   3  275.66    5.02
  -2   3  -4  233.46    7.58
  -2  -3   4  240.71    5.33
  -2  -3   4  243.51    5.31
   2  -3  -4  241.34    8.16
   2   3   4  248.33    5.29
  -2   3  -4  239.52    4.79
  -2  -3   5   12.55    1.39
  -2   3  -5   13.75    2.26
   2   3   5   14.01    1.48
   2  -3  -5   13.63    2.18
  -2   3  -5   12.17    1.21
  -2  -3   6   29.89    2.32
  -2   3  -6   29.71    3.51
  -2  -3   6   32.44    2.30
   2  -3  -6   26.87    3.29
   2   3   6   33.79    2.41
  -2   3  -7   83.02    5.95
  -2  -3   7   77.76    3.84
   2  -3  -7   73.16    5.70
   2   3   7   83.74    3.88
  -2  -3   7   74.80    3.39
  -2  -3   8   17.80    2.06
  -2   3  -8   18.78    2.34
   2   3   8   16.69    2.00
  -2  -3   9   21.33    2.09
   2   3   9   20.56    2.00
  -2  -3   9   22.66    2.03
  -2   3  -9   19.40    2.27
  -2  -3  10    9.81    1.29
  -2   3 -10    8.87    1.41
   2   3  10    8.55    1.34
  -2  -3  10    8.15    1.15
  -2   4  10   46.98    2.59
   2  -4   9   92.50    3.92
  -2   4   9   93.49    4.19
   2  -4   8   44.78    3.01
   2  -4   8   43.08    2.59
  -2   4   8   50.08    3.35
  -2   4   7  306.11    6.75
   2  -4   7  292.90    6.67
  -2   4   6    7.49    1.19
   2   4  -6    7.36    1.65
  -2  -4  -6   11.38    2.32
   2  -4   6   10.62    1.31
   2   4  -5   84.87    5.27
  -2   4   5   86.58    3.48
  -2  -4  -5   95.91    5.72
   2  -4   5   87.86    3.46
  -2  -4  -4  210.89    7.78
  -2   4   4  217.06    5.20
   2  -4   4  213.26    5.14
  -2  -4  -3  145.15    6.00
  -2   4   3  148.78    4.17
   2  -4   3  145.74    4.22
   2   4  -3  154.02    6.39
  -2   4   2  442.17    6.86
  -2   4   2  417.63    6.68
   2  -4   2  431.33    6.97
  -2  -4  -2  438.47    9.67
   2  -4   1 1540.32   13.05
  -2   4   1 1529.63   12.61
  -2  -4  -1 1526.57   12.65
  -2  -4  -1 1555.98   17.14
  -2  -4   0    0.42    0.59
  -2   4   0    1.20    0.56
  -2  -4   0    3.10    0.73
  -2  -4   0    1.71    0.68
  -2  -4   0    1.22    0.60
   2  -4   0    1.71    0.68
  -2  -4   1 1584.03   16.01
   2  -4  -1 1568.18   18.91
  -2   4  -1 1520.26   12.81
  -2  -4   1 1571.36   12.75
  -2  -4   1 1572.12   12.64
   2   4   2  435.33    6.25
  -2  -4   2  430.30    6.95
  -2  -4   2  429.05    6.80
   2  -4  -2  447.42   10.60
  -2  -4   3  150.26    4.26
  -2  -4   3  157.01    4.39
   2  -4  -3  148.77    6.42
   2   4   3  158.29    4.10
  -2  -4   4  208.69    5.41
   2   4   4  210.78    5.19
  -2  -4   4  217.34    5.41
   2  -4  -4  224.85    8.57
  -2   4  -4  207.87    4.74
   2   4   5   89.89    3.67
  -2  -4   5   85.59    3.63
   2  -4  -5   89.31    5.77
  -2   4  -5   81.07    3.04
  -2  -4   5   84.90    3.76
   2   4   6    9.37    1.50
  -2  -4   6    9.63    1.38
   2  -4  -6   11.05    2.37
  -2  -4   7  318.62    7.81
  -2  -4   7  306.07    6.90
   2   4   7  318.38    7.57
  -2  -4   8   49.24    3.12
   2   4   8   40.41    2.77
  -2   4  -8   47.73    3.60
  -2  -4   9   93.25    4.06
  -2   4  -9   96.43    4.56
  -2  -4   9   90.87    3.62
   2   4   9   92.14    3.86
  -2  -4  10   49.11    2.59
  -2   4 -10   46.05    2.71
   2   4  10   45.30    2.41
   2  -5   9   10.52    1.30
  -2  -5  -9   15.13    1.50
  -2   5   9   11.63    1.46
   2  -5   8   39.35    2.73
   2  -5   8   35.20    2.31
  -2   5   8   38.56    2.78
   2  -5   7   24.89    2.13
  -2   5   7   22.68    1.93
  -2   5   7   22.00    2.24
   2  -5   6   95.72    3.95
  -2   5   6   95.03    3.90
  -2   5   6   97.84    4.46
   2   5  -5  144.15    7.25
   2  -5   5  146.04    4.79
  -2   5   5  135.19    4.61
  -2  -5  -5  140.39    7.06
  -2   5   5  139.27    5.09
  -2   5   4  305.28    6.75
   2  -5   4  324.74    6.97
   2   5  -4  319.69   10.34
  -2  -5  -4  315.53    9.81
  -2   5   4  313.44    7.13
   2  -5   3  467.97    8.16
  -2  -5  -3  460.28   11.14
  -2  -5  -3  465.59    8.22
  -2   5   3  461.53    8.05
  -2   5   3  467.90    8.03
   2   5  -3  480.05   12.17
  -2   5   2   49.31    2.62
   2  -5   2   52.72    2.77
  -2  -5  -2   52.18    3.50
  -2  -5  -2   50.87    2.73
   2   5  -2   51.19    3.90
   2  -5   1  235.86    5.68
  -2   5   1  241.88    5.61
  -2  -5  -1  234.92    5.58
   2  -5   0  512.56    8.35
   2  -5   0  506.89   11.85
  -2   5   0  510.94    8.13
  -2  -5   0  496.33    7.99
  -2  -5   0  497.56    8.10
  -2  -5   1  241.39    5.63
   2  -5  -1  246.39    8.52
  -2  -5   1  245.67    5.73
  -2   5  -1  243.48    5.75
   2   5   1  237.00    4.81
  -2  -5   2   51.03    2.62
   2   5   2   52.32    2.43
   2  -5  -2   55.30    4.32
  -2  -5   2   50.02    2.70
  -2  -5   2   52.42    2.73
  -2  -5   3  456.75    8.04
   2  -5  -3  482.64   12.78
   2   5   3  463.01    7.60
  -2  -5   3  456.31    8.23
  -2  -5   4  306.05    7.02
  -2  -5   4  295.07    6.84
   2  -5  -4  314.67   10.85
   2   5   4  303.46    6.60
  -2   5  -4  295.70    5.92
  -2  -5   5  140.11    5.07
  -2  -5   5  137.32    4.83
   2  -5  -5  140.40    7.69
   2   5   5  137.69    4.70
  -2  -5   6   95.00    4.06
   2   5   6   93.01    4.05
  -2  -5   7   26.83    2.34
   2   5   7   25.66    2.26
  -2  -5   7   26.07    2.15
  -2  -5   8   36.20    2.63
  -2   5  -8   35.95    3.08
   2   5   8   38.45    2.55
  -2   5  -9   14.55    1.85
  -2  -5   9   13.54    1.51
   2   5   9   13.59    1.40
  -2   6   9   37.58    2.13
   2  -6   8  109.18    4.04
  -2   6   8  115.17    4.16
  -2  -6  -8  111.88    3.86
   2  -6   8  105.83    3.73
  -2   6   7  162.90    5.34
  -2  -6  -7  159.04    5.07
   2  -6   7  167.44    5.08
  -2   6   7  158.70    4.79
   2  -6   6  240.91    6.34
  -2   6   6  242.10    6.58
  -2   6   6  231.40    6.08
  -2  -6  -6  236.50    6.50
  -2   6   5  281.88    6.89
  -2  -6  -5  280.91    7.08
  -2   6   5  291.26    7.10
   2  -6   5  282.69    6.94
   2  -6   4  122.27    4.54
  -2   6   4  112.48    4.38
   2   6  -4  110.96    6.36
  -2  -6  -4  117.49    4.63
  -2   6   4  116.41    4.31
  -2   6   3   27.03    2.22
  -2  -6  -3   25.27    2.22
   2   6  -3   26.02    3.09
   2  -6   3   28.35    2.27
   2   6  -2  451.79   12.21
  -2   6   2  448.70    8.52
  -2  -6  -2  415.77    8.27
   2  -6   2  434.33    8.42
  -2   6   1   21.54    1.95
   2  -6   1   19.42    1.95
  -2  -6  -1   21.00    1.93
  -2  -6  -1   19.82    1.86
  -2   6   0  419.76    8.21
  -2  -6   0  400.56    7.87
   2  -6   0  410.72    8.27
  -2  -6   1   18.24    1.85
   2  -6  -1   21.03    1.98
  -2  -6   1   19.48    1.93
   2  -6  -1   22.63    2.94
   2   6   1   19.94    1.63
  -2  -6   2  438.71    8.52
  -2  -6   2  430.36    7.91
   2  -6  -2  439.47   12.78
   2   6   2  439.68    7.52
  -2  -6   2  445.93    8.49
   2  -6  -3   28.32    3.50
  -2  -6   3   25.84    2.11
  -2  -6   3   22.59    2.12
   2   6   3   26.07    2.03
   2  -6  -4  118.39    7.24
  -2  -6   4  106.83    4.35
   2   6   4  120.05    4.35
  -2  -6   4  119.56    4.61
  -2  -6   5  275.86    7.15
  -2  -6   5  294.74    7.25
   2   6   5  284.29    6.86
   2   6   6  239.26    6.33
  -2  -6   6  230.20    6.30
  -2  -6   7  166.12    5.44
  -2  -6   7  157.55    4.82
  -2   6  -7  175.80    6.35
   2   6   7  169.75    5.19
  -2  -6   8  115.48    4.18
  -2   6  -8  114.34    4.76
   2   6   8  109.42    3.87
  -2  -6   9   35.89    2.09
  -2   6  -9   35.77    2.42
   2   6   9   36.21    2.00
  -2   7   7   13.77    1.36
  -2   7   7   14.66    1.46
  -2  -7  -7   13.94    1.46
   2  -7   7   13.87    1.48
   2  -7   6   70.92    3.33
  -2   7   6   66.06    3.15
  -2  -7  -6   71.92    3.34
  -2   7   6   67.79    3.14
  -2   7   5   13.35    1.61
   2  -7   5   11.63    1.59
  -2  -7  -5   10.19    1.51
   2  -7   4  138.91    4.99
  -2   7   4  142.88    5.03
  -2  -7  -4  136.51    4.96
  -2   7   3   36.51    2.65
   2  -7   3   40.59    2.79
  -2  -7  -3   35.07    2.63
  -2   7   2    6.03    1.32
   2  -7   2    4.85    1.28
  -2  -7  -2    5.06    1.14
  -2  -7  -2    7.44    1.32
   2   7  -2    5.30    1.62
   2  -7   1   24.32    2.25
  -2   7   1   27.04    2.36
  -2  -7  -1   24.14    2.11
  -2  -7  -1   24.69    2.26
   2   7  -1   22.46    2.89
  -2   7   0    8.30    1.48
   2  -7   0    8.99    1.55
  -2  -7   0    9.59    1.45
  -2  -7   0    9.25    1.42
  -2  -7   1   26.40    2.34
  -2  -7   1   24.17    2.24
   2  -7  -1   27.00    2.36
   2   7   2    3.60    0.97
  -2  -7   2    4.44    1.25
   2  -7  -2    5.04    1.32
  -2  -7   3   41.05    2.66
   2  -7  -3   35.63    2.66
  -2  -7   3   41.73    2.85
   2   7   3   41.99    2.52
  -2  -7   4  130.68    4.73
  -2  -7   4  135.39    5.05
  -2   7  -4  134.62    5.18
   2   7   4  133.79    4.58
   2  -7  -4  132.04    4.85
  -2  -7   5   10.13    1.52
   2  -7  -5   13.34    1.66
  -2   7  -5   13.42    1.88
   2   7   5   11.28    1.44
  -2  -7   5   12.22    1.58
  -2   7  -6   72.30    3.83
   2   7   6   72.55    3.29
  -2  -7   6   67.53    3.24
  -2   7  -7   16.98    2.01
  -2  -7   7   15.96    1.66
  -2  -7   7   14.41    1.38
   2   7   7   15.51    1.41
  -2  -7   8    8.42    1.07
  -2   7  -8    8.15    1.26
   2   7   8    9.85    1.08
   2  -8   6   15.79    1.49
  -2  -8  -6   16.16    1.46
  -2   8   6   16.61    1.41
  -2   8   5   57.77    2.89
  -2  -8  -5   52.32    2.78
   2  -8   5   54.35    2.82
  -2   8   4    4.11    1.00
   2  -8   4    2.73    0.82
  -2  -8  -4    3.56    0.96
   2  -8   3   14.77    1.78
   2  -8   3   14.86    1.54
  -2   8   3   16.20    1.79
  -2  -8  -3   15.43    1.80
  -2  -8  -2  166.25    5.04
  -2   8   2  164.07    5.41
  -2  -8  -2  166.37    5.39
   2  -8   2  166.74    5.39
  -2   8   1  267.40    7.04
  -2  -8  -1  252.95    6.46
  -2  -8  -1  269.13    6.93
   2  -8   1  247.78    6.55
   2  -8   0    5.42    1.24
  -2  -8   0    5.30    1.20
  -2  -8   0    6.33    1.28
  -2  -8   1  265.34    6.83
   2  -8  -1  258.72    6.70
  -2  -8   2  166.97    5.44
   2  -8  -2  162.59    5.26
   2   8   2  165.43    4.73
   2  -8  -3   15.55    1.65
  -2  -8   3   15.52    1.80
   2   8   3   16.31    1.55
   2   8   4    4.31    0.89
  -2  -8   4    2.81    0.88
   2  -8  -4    3.92    0.93
  -2  -8   5   57.46    2.95
   2   8   5   53.76    2.63
  -2  -8   6   17.76    1.57
   2   8   6   18.71    1.44
  -2  -8   6   17.29    1.50
   2  -9   4   94.84    3.32
  -2   9   4   93.02    3.36
  -2  -9  -4   88.04    3.13
   2  -9   3   30.30    1.76
  -2   9   3   32.61    2.13
  -2  -9  -3   32.50    2.07
   2  -9   3   32.39    2.08
   2  -9   2   82.64    3.38
   2  -9   2   84.26    3.17
  -2  -9  -2   88.62    3.58
  -2  -9  -1   43.87    2.48
   2  -9   1   43.11    2.51
  -2  -9  -1   41.83    2.53
   2  -9   0   48.17    2.66
  -2  -9   0   48.25    2.67
   2  -9  -1   38.44    2.37
  -2  -9   1   41.94    2.49
  -2  -9   2   84.18    3.52
   2  -9  -2   76.95    3.14
  -2  -9   3   35.20    2.27
  -2  -9   4   91.71    3.37
  -3   0   0   -0.16    0.81
  -3   0   1 1324.82   14.68
   3   0  -1 1336.29   10.29
  -3   0  -1 1351.56   15.50
  -3   0  -2  287.78    7.55
   3   0  -2  286.91    5.93
  -3   0   2  297.67    7.00
  -3   0  -3  815.05   13.70
  -3   0   3  803.18    8.64
  -3   0   3  797.60    8.28
   3   0  -3  805.18   10.56
  -3   0  -3  784.39    8.13
  -3   0  -3  805.44    8.10
  -3   0   4 1842.93   13.54
   3   0  -4 1838.97   17.22
   3   0   4 1830.57   14.67
  -3   0   4 1842.01   14.13
  -3   0  -4 1807.82   23.08
  -3   0   4 1836.38   13.68
  -3   0   4 1839.77   15.23
  -3   0  -4 1834.98   16.09
  -3   0   5  170.99    4.64
   3   0   5  169.89    4.99
  -3   0  -5  171.37    5.31
  -3   0  -5  163.13    7.95
  -3   0  -5  165.20    7.57
   3   0  -5  173.78    5.94
  -3   0   5  174.73    5.15
  -3   0   5  169.15    4.62
  -3   0   5  187.27    4.81
  -3   0   6    6.43    1.19
   3   0   6    6.32    1.20
  -3   0   6    8.08    1.28
  -3   0  -6    6.24    2.14
  -3   0   6    7.43    1.18
  -3   0  -6    9.12    1.39
  -3   0   6    6.85    1.34
   3   0  -6    6.11    1.29
  -3   0  -6    9.62    2.27
   3   0   7   94.01    4.30
  -3   0   7   96.49    4.10
  -3   0  -7   97.39    4.36
  -3   0  -7   85.79    6.81
  -3   0   7   88.89    3.68
  -3   0  -7   97.54    6.85
  -3   0   7   98.18    4.10
  -3   0   7   92.75    4.16
  -3   0   8  107.32    3.88
  -3   0   8  105.01    4.35
  -3   0   8  107.62    4.42
   3   0   8  108.41    4.66
  -3   0   9   31.43    2.43
   3   0   9   33.33    2.60
  -3   0  10   48.83    2.70
   3   0  10   49.26    2.79
  -3   1  10   13.28    1.47
   3  -1  10   15.49    1.56
  -3   1   9   12.45    1.61
  -3   1   9   10.64    1.47
   3  -1   9   13.04    1.78
   3  -1   8  187.55    6.22
  -3   1   8  178.81    4.98
  -3   1   8  174.57    5.58
  -3   1   8  176.27    6.02
   3  -1   7   67.48    3.75
  -3   1   7   62.89    3.04
   3   1  -7   61.32    4.61
  -3  -1  -7   66.65    6.10
  -3   1   7   67.37    3.90
  -3   1   7   66.98    3.46
   3  -1   6  135.18    4.94
  -3   1   6  131.83    4.26
  -3   1   6  140.32    4.63
  -3  -1  -6  141.23    8.45
   3   1  -6  138.71    6.31
  -3   1   6  131.14    5.22
   3   1  -5   48.90    3.37
  -3   1   5   46.74    2.45
  -3  -1  -5   44.48    4.35
  -3   1   5   45.34    2.51
  -3   1   5   43.72    2.90
  -3   1   4  432.55    6.85
  -3   1   4  435.20    6.87
  -3   1   4  444.74    8.17
   3   1  -4  452.77    9.80
  -3  -1  -4  459.39   12.24
  -3  -1  -3  239.62    7.92
  -3  -1  -3  237.46    4.60
  -3   1   3  227.91    5.34
   3   1  -3  241.06    6.64
  -3   1   3  231.81    4.63
  -3  -1  -2  201.90    6.67
  -3   1   1  130.30    4.31
  -3  -1  -1  124.91    5.06
  -3   1   0  579.45    9.11
   3  -1   0  590.21    7.33
  -3  -1   1  129.60    4.85
  -3   1  -1  125.64    4.47
   3  -1  -1  130.55    3.91
  -3   1  -2  194.73    5.87
   3  -1  -2  186.23    3.72
   3  -1  -2  205.59    5.56
  -3  -1   2  206.58    6.11
  -3  -1   3  230.60    4.66
  -3   1  -3  233.87    5.76
  -3   1  -3  221.88    6.82
  -3   1  -3  232.07    7.01
  -3   1  -3  234.98    4.60
  -3  -1   3  239.49    4.89
   3   1   4  439.41    7.06
  -3  -1   4  438.49    6.73
  -3  -1   4  442.55    6.74
  -3   1  -4  436.77   10.65
  -3   1  -4  445.43    6.47
  -3  -1   4  435.40    6.65
  -3   1  -4  449.29    8.59
  -3   1  -4  462.89   11.36
  -3  -1   4  435.42    6.94
  -3  -1   4  445.74    7.17
  -3   1  -4  435.89    6.61
  -3  -1   5   45.66    2.47
  -3  -1   5   43.22    2.45
  -3  -1   5   47.92    2.52
  -3   1  -5   48.74    3.15
  -3   1  -5   46.64    4.06
  -3  -1   5   43.57    2.46
  -3   1  -5   40.06    3.88
   3   1   5   41.89    2.51
  -3  -1   6  140.39    4.66
  -3  -1   6  145.38    4.67
  -3   1  -6  137.78    5.39
  -3   1  -6  118.73    7.15
  -3  -1   6  136.60    4.47
  -3  -1   6  130.90    4.31
  -3   1  -6  138.75    7.81
   3   1   6  136.13    4.70
  -3  -1   7   64.61    3.43
  -3  -1   7   62.97    3.12
  -3  -1   7   64.17    3.35
  -3   1  -7   68.31    3.93
  -3   1  -7   54.54    5.19
  -3   1  -7   56.55    5.44
   3   1   7   66.47    3.53
  -3  -1   8  183.91    5.86
  -3  -1   8  178.39    5.08
  -3  -1   8  181.32    5.68
  -3   1  -8  177.81    6.20
   3   1   8  182.55    5.91
  -3  -1   9   12.33    1.53
   3   1   9   12.72    1.63
  -3  -1  10   12.43    1.38
   3   1  10   16.17    1.65
   3  -2  10    1.67    0.70
  -3   2  10    1.35    0.85
  -3   2   9   44.84    2.84
  -3   2   9   46.73    3.03
   3  -2   9   49.21    3.10
   3  -2   8   71.57    3.94
  -3   2   8   65.53    3.51
  -3   2   8   72.64    4.16
   3  -2   7  145.59    5.52
  -3   2   7  145.74    5.05
  -3  -2  -7  156.36    9.17
   3   2  -7  144.61    7.31
  -3   2   7  143.97    5.92
  -3   2   6  289.39    6.30
  -3   2   6  303.25    6.86
  -3   2   6  278.72    8.12
   3   2  -6  279.38    9.44
  -3   2   5   42.12    2.35
  -3   2   5   45.00    2.57
   3   2  -5   41.65    3.46
  -3   2   5   34.79    2.80
  -3   2   4   11.68    1.20
   3   2  -4   12.43    1.90
  -3  -2  -4   15.92    2.49
  -3   2   4   11.87    1.65
  -3   2   4   14.66    1.41
  -3   2   3 1305.55   11.15
   3   2  -3 1283.11   17.14
  -3  -2  -3 1319.70   19.04
  -3   2   3 1283.78   13.37
  -3   2   2  624.54    7.25
  -3  -2  -2  645.84   12.32
  -3  -2  -2  638.64    7.32
  -3  -2  -1   58.45    3.66
  -3   2   0  376.28    6.58
  -3  -2   0  397.49    8.97
   3  -2   0  404.51    7.53
  -3  -2   1   54.81    3.31
  -3   2  -1   52.97    2.63
   3  -2  -1   50.63    2.89
  -3  -2   2  623.03    7.84
  -3  -2   2  607.03    7.65
  -3   2  -2  624.30    9.28
  -3  -2   2  625.63    7.41
  -3   2  -2  615.67    9.50
   3  -2  -2  619.60   10.70
  -3  -2   2  636.65   11.19
  -3  -2   3 1308.24   11.95
  -3  -2   3 1284.92   11.44
  -3   2  -3 1317.46   14.68
  -3   2  -3 1270.74   16.00
  -3   2  -3 1262.14   14.81
   3  -2  -3 1301.93   17.08
   3   2   3 1278.32   10.81
  -3   2  -3 1276.62   11.35
  -3   2  -4   11.72    1.93
  -3  -2   4   11.91    1.24
  -3  -2   4   12.86    1.34
  -3   2  -4   13.02    1.80
  -3  -2   4   13.26    1.24
  -3   2  -4   12.05    1.09
  -3   2  -4   13.35    1.86
   3  -2  -4   12.17    1.91
   3   2   4   13.07    1.27
  -3   2  -4   12.61    1.26
  -3  -2   5   43.16    2.49
  -3  -2   5   44.55    2.56
  -3  -2   5   45.83    2.39
  -3   2  -5   41.55    3.53
  -3   2  -5   43.13    3.25
  -3  -2   5   44.97    2.53
   3  -2  -5   45.57    3.86
  -3   2  -5   39.14    3.84
  -3   2  -5   43.79    2.34
   3   2   5   42.52    2.46
  -3  -2   6  298.33    6.89
  -3  -2   6  290.65    6.74
  -3  -2   6  308.90    6.97
  -3   2  -6  316.11    8.78
   3  -2  -6  299.60   10.57
  -3   2  -6  275.61   11.08
   3   2   6  294.59    6.83
  -3  -2   7  147.49    5.19
  -3  -2   7  141.47    4.79
  -3  -2   7  141.90    5.00
  -3   2  -7  145.34    6.10
   3  -2  -7  142.10    7.86
  -3   2  -7  135.94    8.36
   3   2   7  138.64    4.98
  -3  -2   8   73.11    3.75
  -3  -2   8   63.97    3.13
  -3  -2   8   67.42    3.47
  -3   2  -8   70.32    4.19
   3   2   8   66.07    3.57
  -3  -2   9   47.77    2.93
  -3   2  -9   45.08    3.16
  -3  -2   9   50.09    2.86
   3   2   9   52.79    3.04
   3   2  10    2.55    0.78
  -3  -2  10    1.24    0.65
   3  -3  10    5.87    0.96
  -3   3  10    4.43    0.99
   3  -3   9   13.17    1.73
  -3   3   9   10.55    1.59
   3  -3   8   12.07    1.77
  -3   3   8   13.18    1.92
  -3   3   7   10.91    1.89
  -3  -3  -6  144.85    8.41
  -3   3   6  128.36    5.71
   3   3  -6  127.39    6.73
   3   3  -5   93.01    5.47
  -3  -3  -5   91.62    6.08
  -3   3   5   88.40    4.55
   3  -3   4    6.80    0.99
  -3  -3  -4   10.50    1.25
   3   3  -4   10.25    1.86
  -3  -3  -4    7.88    2.07
  -3   3   4   10.37    1.54
   3  -3   3  135.52    3.84
  -3  -3  -3  144.41    6.66
   3   3  -3  140.68    6.19
  -3  -3  -3  132.67    3.88
  -3   3   3  141.01    4.71
  -3  -3  -2   65.91    2.70
   3  -3   2   64.19    2.66
  -3   3   2   70.89    3.04
  -3  -3  -2   69.19    4.36
  -3  -3  -1  330.24    5.76
  -3   3   1  338.98    6.10
  -3  -3   0  278.10    7.83
  -3  -3   0  263.67    5.10
   3  -3   0  281.30    7.34
  -3  -3   1  351.21    8.70
  -3   3  -1  341.88    6.75
  -3  -3   1  343.02    5.81
   3  -3  -1  346.81    8.48
  -3  -3   1  342.49    5.97
  -3   3  -2   69.39    3.42
  -3  -3   2   68.38    2.80
  -3  -3   2   66.19    2.76
  -3  -3   2   65.98    2.51
   3  -3  -2   66.49    3.96
  -3  -3   2   65.10    3.76
  -3  -3   3  132.59    3.89
  -3  -3   3  134.41    4.16
  -3   3  -3  128.75    5.09
   3  -3  -3  137.34    6.04
   3   3   3  136.09    3.72
  -3  -3   4    8.44    1.24
  -3   3  -4    6.73    1.53
  -3  -3   4    8.09    1.00
   3   3   4    7.25    1.06
   3  -3  -4    9.01    1.77
  -3   3  -4    9.10    1.21
  -3  -3   5   92.45    3.73
  -3  -3   5   96.87    3.43
  -3   3  -5   86.40    4.92
  -3  -3   5   91.06    3.83
   3  -3  -5   89.34    5.75
   3   3   5   89.69    3.66
  -3   3  -5   87.22    3.37
  -3  -3   6  128.02    4.66
  -3  -3   6  136.31    4.82
  -3   3  -6  136.86    6.28
   3  -3  -6  120.40    7.03
   3   3   6  127.71    4.60
  -3  -3   7   11.81    1.62
  -3   3  -7   13.14    2.31
  -3  -3   7   13.45    1.61
  -3  -3   7   12.64    1.58
   3   3   7   10.87    1.54
  -3  -3   8   12.01    1.63
  -3  -3   8   10.52    1.37
  -3  -3   8   13.21    1.59
  -3   3  -8   11.09    1.93
   3   3   8   12.01    1.59
  -3  -3   9   11.63    1.52
  -3   3  -9   11.54    1.77
  -3  -3   9   10.33    1.32
   3   3   9   11.63    1.46
   3   3  10    5.71    0.93
   3  -4   9   49.84    2.88
  -3   4   9   51.15    3.04
   3  -4   8   89.25    4.23
  -3   4   8   90.29    4.46
  -3   4   7   20.63    2.36
  -3   4   6   86.77    4.63
   3  -4   6   83.83    3.45
   3   4  -5  173.48    7.96
  -3  -4  -5  178.33    8.61
   3  -4   5  181.87    4.93
  -3   4   5  188.96    6.51
   3  -4   4   54.86    2.73
  -3  -4  -4   42.87    4.16
  -3  -4  -4   50.01    2.50
  -3   4   4   49.52    2.72
   3   4  -4   56.35    4.38
  -3   4   4   52.71    3.27
   3  -4   3  492.91    8.03
  -3  -4  -3  505.27   12.75
   3   4  -3  511.15   12.68
  -3  -4  -3  484.71    7.52
  -3   4   3  479.33    8.04
  -3   4   3  487.18    8.89
   3  -4   2  127.42    4.09
  -3  -4  -2  126.41    3.81
  -3   4   2  122.11    4.00
  -3   4   2  128.97    4.21
   3  -4   1   13.05    1.44
  -3  -4  -1   12.94    1.33
  -3  -4  -1   14.40    1.38
  -3   4   1   12.53    1.35
  -3  -4  -1   13.30    1.41
  -3  -4  -1   11.23    1.89
  -3   4   1   13.84    1.31
  -3  -4   0  222.84    7.36
  -3  -4   0  228.02    5.43
  -3  -4   0  224.66    5.01
  -3   4   0  219.82    5.21
   3  -4   0  236.42    7.64
  -3  -4   0  225.60    5.19
  -3  -4   1   12.65    1.76
  -3  -4   1   12.24    1.40
  -3   4  -1   13.71    1.60
   3  -4  -1   17.27    2.24
  -3  -4   1   13.92    1.37
  -3  -4   2  128.30    4.24
  -3   4  -2  125.03    4.76
  -3  -4   2  125.35    3.90
   3  -4  -2  131.72    6.24
  -3  -4   3  484.65    7.70
  -3  -4   3  494.66    8.62
   3  -4  -3  513.95   12.71
   3   4   3  497.32    7.34
  -3  -4   4   55.14    2.60
  -3  -4   4   55.12    3.07
  -3   4  -4   47.04    3.59
   3  -4  -4   46.92    4.13
   3   4   4   52.54    2.67
  -3   4  -4   50.64    2.66
  -3  -4   5  183.06    5.61
  -3   4  -5  163.22    6.96
   3  -4  -5  181.39    8.51
   3   4   5  184.99    5.24
  -3   4  -5  181.90    4.99
  -3  -4   6   83.10    3.87
  -3  -4   6   81.99    3.92
  -3   4  -6   85.38    5.24
   3   4   6   81.18    3.69
  -3   4  -6   82.20    3.40
  -3  -4   7   19.45    2.02
  -3  -4   7   19.73    1.92
  -3   4  -7   20.20    2.75
   3   4   7   21.27    2.03
  -3  -4   8   89.16    3.99
  -3  -4   8   85.37    3.52
  -3   4  -8   93.45    4.93
   3   4   8   90.39    3.86
  -3  -4   9   48.43    2.72
  -3   4  -9   48.37    3.17
   3   4   9   46.89    2.59
   3  -5   9   20.69    1.68
  -3  -5  -9   20.06    1.60
  -3   5   9   20.81    1.80
   3  -5   8   14.31    1.65
  -3   5   8   14.30    1.76
   3  -5   7   56.49    2.82
  -3   5   7   52.25    3.32
   3  -5   6   17.87    1.70
  -3   5   6   17.68    2.13
   3  -5   5   93.61    3.83
  -3   5   5   98.87    4.07
  -3   5   5   98.17    4.55
  -3  -5  -4   77.72    5.60
   3  -5   4   82.88    3.63
   3   5  -4   83.35    5.61
  -3   5   4   78.59    3.70
  -3   5   4   87.90    4.15
   3   5  -3  136.81    7.09
   3  -5   3  134.17    4.53
  -3  -5  -3  125.71    6.55
  -3   5   3  126.45    4.57
  -3  -5  -3  133.92    4.72
  -3   5   3  135.47    4.75
   3  -5   2  573.13    9.41
  -3  -5  -2  579.69    8.30
  -3   5   2  549.34    9.21
  -3  -5  -2  579.74    9.45
  -3   5   2  556.79    8.94
   3   5  -2  559.27   13.87
  -3  -5  -2  589.83   13.24
  -3  -5  -1  233.03    7.96
   3  -5   1  231.24    5.98
  -3  -5  -1  231.38    5.36
  -3   5   1  216.41    5.77
  -3  -5  -1  223.97    5.74
  -3  -5   0  152.64    6.13
  -3  -5   0  138.29    4.82
   3  -5   0  132.08    6.43
  -3   5   0  139.70    4.63
   3  -5   0  143.16    4.79
  -3  -5   0  140.49    4.49
  -3  -5   1  233.96    6.28
  -3   5  -1  211.63    5.83
   3  -5  -1  225.92    8.58
  -3  -5   1  224.66    5.69
  -3  -5   1  217.58    7.14
  -3  -5   2  553.01    8.70
  -3  -5   2  581.30    9.90
  -3   5  -2  537.59   10.05
  -3  -5   2  583.68    9.19
   3  -5  -2  580.03   14.26
  -3  -5   3  130.56    4.10
  -3  -5   3  131.07    4.86
  -3   5  -3  146.87    5.75
   3  -5  -3  133.45    7.16
   3   5   3  133.41    4.09
  -3  -5   4   83.99    3.96
  -3   5  -4   78.68    4.61
   3  -5  -4   85.08    5.90
   3   5   4   84.07    3.47
  -3   5  -4   81.00    3.48
  -3  -5   5   91.76    4.21
  -3   5  -5   99.57    5.37
   3   5   5   94.35    3.83
  -3   5  -5   93.95    3.65
  -3  -5   6   19.58    2.01
  -3  -5   6   18.10    1.94
  -3   5  -6   19.41    2.73
   3   5   6   17.74    1.74
  -3  -5   7   55.15    3.16
  -3  -5   7   54.46    3.02
  -3   5  -7   53.39    3.89
   3   5   7   53.28    2.95
  -3  -5   8   11.32    1.49
  -3  -5   8   14.17    1.38
  -3   5  -8   14.86    1.96
   3   5   8   10.97    1.34
  -3  -5   9   19.98    1.63
  -3   5  -9   19.80    1.96
   3   5   9   21.20    1.57
   3  -6   8   12.45    1.43
  -3  -6  -8   10.98    1.26
  -3   6   8   12.11    1.34
  -3  -6  -7  248.32    6.16
  -3   6   7  246.15    6.30
   3  -6   7  235.83    5.48
   3  -6   6   80.98    3.50
  -3  -6  -6   83.24    3.85
  -3   6   6   78.46    3.82
   3  -6   5  142.15    4.78
  -3   6   5  146.41    4.89
  -3  -6  -5  154.68    5.39
  -3   6   5  140.09    5.07
   3  -6   4  343.95    7.57
  -3   6   4  342.92    7.73
  -3  -6  -4  350.98    8.11
  -3   6   4  340.99    7.65
  -3   6   3  198.29    5.88
  -3  -6  -3  207.11    6.15
   3   6  -3  195.23    8.70
   3  -6   3  197.71    5.86
   3  -6   2  564.25    9.90
   3   6  -2  546.04   14.44
  -3   6   2  575.85   10.06
  -3  -6  -2  579.71   10.11
   3  -6   1  401.54    8.44
  -3  -6  -1  386.96    8.50
  -3   6   1  402.90    8.39
  -3  -6  -1  401.91    8.28
   3  -6   0   -0.60    0.82
  -3  -6   0    0.92    0.83
  -3  -6   0   -0.16    0.71
   3  -6  -1  403.93    8.74
  -3  -6   1  421.58    9.04
   3  -6  -1  396.51   12.29
  -3  -6   1  401.60    8.21
  -3  -6   2  591.57   10.62
   3  -6  -2  558.49   15.00
  -3  -6   2  568.21    9.80
  -3  -6   3  201.45    6.30
  -3   6  -3  192.31    6.40
   3  -6  -3  196.00    9.12
  -3  -6   4  359.70    8.40
  -3   6  -4  334.71    8.85
   3   6   4  348.43    7.01
  -3   6  -4  348.12    7.02
  -3  -6   5  154.17    5.43
  -3   6  -5  143.46    6.02
   3   6   5  145.51    4.67
  -3   6  -5  143.35    4.25
  -3  -6   6   78.54    3.68
  -3  -6   6   78.25    3.76
  -3   6  -6   80.67    4.52
   3   6   6   81.83    3.50
  -3  -6   7  244.14    6.07
  -3  -6   7  236.40    5.81
  -3   6  -7  241.25    7.22
   3   6   7  242.00    5.64
  -3  -6   8    9.14    1.25
  -3  -6   8   11.55    1.10
  -3   6  -8   12.10    1.64
   3   6   8   13.08    1.28
   3  -7   7   18.50    1.46
  -3  -7  -7   23.72    1.77
   3  -7   6   22.65    1.81
  -3  -7  -6   28.07    2.15
   3  -7   5   27.70    2.13
  -3   7   5   24.53    1.97
  -3  -7  -5   26.89    2.21
  -3   7   4   17.64    1.78
   3  -7   4   18.21    1.86
  -3  -7  -4   20.61    2.04
   3  -7   3   59.12    3.26
  -3   7   3   59.61    3.26
  -3  -7  -3   53.88    3.24
  -3   7   2  119.78    4.72
  -3  -7  -2  124.85    4.83
   3  -7   2  121.38    4.69
   3  -7   1   21.02    2.14
  -3  -7  -1   24.25    2.19
  -3  -7  -1   22.94    2.16
  -3  -7   0  105.74    4.56
  -3  -7   0  111.19    4.53
   3  -7   0  102.77    4.52
  -3  -7   1   24.33    2.30
  -3  -7   1   24.71    2.22
   3  -7  -1   21.71    2.23
   3  -7  -2  120.85    4.93
  -3  -7   2  125.49    5.05
   3  -7  -3   52.52    3.27
  -3  -7   3   55.55    3.39
   3  -7  -4   18.16    1.95
  -3  -7   4   16.92    1.86
  -3   7  -4   20.46    2.19
  -3  -7   5   29.13    2.30
  -3   7  -5   27.60    2.49
   3   7   5   25.10    1.84
   3  -7  -5   26.62    2.26
  -3  -7   6   24.08    1.91
   3  -7  -6   22.14    1.89
  -3  -7   6   25.34    2.00
  -3   7  -6   25.59    2.30
   3   7   6   24.45    1.65
  -3  -7   7   21.05    1.63
  -3  -7   7   23.88    1.60
  -3   7  -7   21.86    1.92
   3   7   7   22.47    1.50
   3  -8   5   26.14    1.82
  -3  -8  -5   24.23    1.81
   3  -8   4   40.17    2.36
  -3   8   4   41.88    2.41
  -3  -8  -4   40.45    2.48
   3  -8   3  237.89    5.97
  -3   8   3  219.91    5.79
  -3  -8  -3  230.32    6.08
   3  -8   2   62.22    3.24
  -3  -8  -2   62.88    3.30
   3  -8   1   32.74    2.45
  -3  -8  -1   39.53    2.68
  -3  -8  -1   37.78    2.52
   3  -8   0  171.39    5.44
  -3  -8   0  174.02    5.49
  -3  -8   0  170.81    5.41
  -3  -8   1   34.82    2.51
   3  -8  -1   35.88    2.62
  -3  -8   2   59.39    3.24
   3  -8  -2   59.66    3.25
   3  -8  -3  220.01    5.89
  -3  -8   3  235.33    6.25
  -3  -8   4   40.30    2.47
   3  -8  -4   38.21    2.41
  -3  -8   5   24.68    1.79
   3  -8  -5   23.47    1.78
  -3  -8   5   27.76    1.99
   3  -9   3   35.11    1.98
  -3  -9  -3   34.03    2.00
   3  -9   2   31.74    2.01
  -3  -9  -2   31.94    2.06
   3  -9   1   19.68    1.68
  -3  -9  -1   22.55    1.82
  -3  -9   0  100.56    3.54
   3  -9   0  103.93    3.69
  -3  -9   1   21.87    1.76
   3  -9  -1   21.57    1.80
   3  -9  -2   31.98    2.04
  -3  -9   2   32.88    2.09
   3  -9  -3   29.91    1.88
  -3  -9   3   32.43    2.01
  -4   0   0   10.14    1.32
  -4   0   0   10.44    1.71
  -4   0   0    9.66    1.29
  -4   0   1  261.46    7.67
  -4   0  -1  251.46    7.86
  -4   0   1  257.21    5.19
  -4   0  -1  241.98    4.89
  -4   0   1  258.92    4.88
  -4   0   1  253.13    5.63
  -4   0  -1  249.85    5.79
  -4   0   1  240.51    4.88
  -4   0  -1  259.77    5.39
  -4   0   1  258.10    5.62
  -4   0  -1  243.59    4.54
  -4   0   2 1369.34   11.96
  -4   0  -2 1365.70   19.15
  -4   0   2 1363.01   12.23
   4   0  -2 1343.48   14.62
  -4   0  -2 1382.12   13.94
  -4   0   2 1349.56   11.13
  -4   0  -2 1367.21   12.25
  -4   0   2 1386.78   13.51
  -4   0   2 1414.21   17.93
  -4   0  -2 1371.64   11.31
   4   0   3 3067.31   18.81
  -4   0   3 3151.68   19.32
  -4   0  -3 3056.92   31.02
  -4   0  -3 3080.08   21.67
  -4   0  -3 3092.28   18.94
  -4   0   3 3198.92   19.00
  -4   0   3 3051.98   21.51
  -4   0  -3 3132.98   18.16
   4   0   4   26.94    2.00
  -4   0   4   25.38    1.94
  -4   0  -4   24.32    3.24
  -4   0   4   25.99    1.83
  -4   0  -4   28.07    2.00
  -4   0   4   24.18    2.13
   4   0   5  277.27    6.75
  -4   0   5  287.66    6.66
  -4   0   5  289.15    6.60
  -4   0  -5  268.42   11.15
  -4   0   5  291.52    7.24
   4   0   6  415.50    8.57
  -4   0   6  415.31    8.28
  -4   0   6  412.70    8.39
  -4   0   6  397.09    8.79
  -4   0   7  105.02    4.16
  -4   0   7  100.10    4.30
  -4   0  -7   97.07    4.29
  -4   0   7  104.70    4.52
   4   0   7  103.67    4.48
  -4   0   8   64.17    3.18
  -4   0   8   66.94    3.46
  -4   0   8   62.77    3.28
   4   0   8   65.63    3.61
  -4   0   9   59.62    3.03
   4   0   9   56.92    3.10
   4   0  10    5.17    0.88
   4  -1  10   21.18    1.73
   4  -1   9    7.13    1.16
  -4   1   9    8.66    1.30
  -4   1   8   29.44    2.57
   4  -1   8   29.60    2.52
   4  -1   7  101.39    4.55
  -4   1   7   95.38    3.93
  -4   1   7   92.56    4.16
  -4   1   7   97.87    4.81
   4  -1   6  238.63    6.77
  -4   1   6  234.12    6.23
  -4   1   6  231.53    6.34
  -4  -1  -6  223.69    6.08
  -4   1   6  247.52    7.64
   4  -1   5    5.39    1.09
  -4  -1  -5    0.28    0.76
  -4   1   5    3.82    1.08
  -4   1   5    3.34    1.00
  -4  -1  -5    0.85    1.04
  -4   1   5    5.02    1.41
   4   1  -4  122.78    5.38
  -4  -1  -4  132.56    7.39
  -4  -1  -4  115.43    4.23
  -4   1   4  125.30    4.89
  -4   1   4  124.17    4.18
  -4   1   3   26.09    1.86
  -4  -1  -3   26.55    3.19
  -4  -1  -3   27.57    2.10
  -4  -1  -3   26.74    1.88
  -4   1   3   25.83    2.19
   4   1  -3   25.86    2.53
  -4   1   2  135.11    3.81
  -4   1   2  133.44    3.67
  -4  -1  -2  129.48    4.26
  -4  -1  -2  140.01    6.49
  -4  -1  -2  132.78    3.88
  -4   1   2  124.79    4.32
  -4   1   1  263.87    4.97
  -4  -1  -1  273.35    8.60
  -4  -1  -1  268.97    5.87
  -4   1   1  255.44    4.85
  -4  -1  -1  258.74    5.24
  -4   1   1  257.80    5.83
  -4   1   1  268.91    5.74
  -4   1   1  261.89    7.22
  -4   1   0  808.43   12.84
  -4  -1   0  817.15   14.44
  -4  -1   0  783.08    9.35
  -4  -1   0  829.57   10.16
  -4   1   0  803.07   10.17
  -4  -1   0  803.72    9.38
  -4   1   0  808.15    9.85
  -4   1   0  769.67    8.21
  -4  -1   1  265.26    8.11
  -4   1  -1  257.87    7.53
  -4  -1   1  256.62    5.00
  -4  -1   1  259.43    5.53
  -4   1  -1  250.51    5.93
  -4  -1   1  253.65    5.19
  -4   1  -1  263.68    5.53
  -4  -1   1  271.76    5.60
  -4  -1   2  127.59    3.82
  -4   1  -2  129.32    5.59
  -4  -1   2  139.29    4.12
  -4  -1   2  125.34    3.62
  -4   1  -2  146.86    4.05
  -4  -1   2  125.51    3.95
  -4  -1   2  142.72    5.96
  -4   1  -2  128.67    3.75
  -4  -1   3   25.79    1.94
  -4  -1   3   24.75    1.85
  -4   1  -3   27.70    2.74
  -4   1  -3   27.28    1.85
  -4  -1   3   27.62    2.01
   4  -1  -3   26.03    2.43
  -4   1  -3   25.39    1.81
  -4  -1   4  121.77    4.22
  -4  -1   4  122.55    4.01
  -4   1  -4  111.85    6.02
  -4   1  -4  123.30    3.88
  -4  -1   4  120.76    4.19
   4  -1  -4  120.37    5.76
  -4   1  -4  124.04    5.17
  -4   1  -4  118.51    3.92
   4   1   4  120.53    3.98
  -4  -1   5    2.69    0.88
   4   1   5    1.35    0.68
  -4   1  -5    2.58    1.32
  -4  -1   5    2.51    0.99
  -4   1  -5    2.71    1.92
  -4  -1   5    4.03    0.98
   4  -1  -5    2.59    0.98
  -4  -1   6  228.40    5.93
  -4  -1   6  224.50    6.25
  -4  -1   6  236.29    6.39
  -4   1  -6  212.71    9.96
  -4   1  -6  246.17    7.80
  -4  -1   6  214.83    5.94
   4  -1  -6  219.81    9.22
   4   1   6  239.85    6.34
  -4  -1   7   96.74    4.05
  -4  -1   7   91.39    4.04
  -4  -1   7   95.01    4.20
   4   1   7   93.80    4.11
  -4  -1   8   29.71    2.24
  -4  -1   8   26.98    2.28
   4   1   8   31.39    2.48
   4   1   9    8.09    1.21
  -4  -1   9    7.84    0.96
  -4  -1   9    6.36    1.07
   4   1  10   21.45    1.63
   4  -2  10   17.80    1.47
  -4   2   9   44.75    2.76
   4  -2   9   47.92    2.81
   4  -2   8   49.34    3.16
  -4   2   8   48.45    3.33
   4  -2   7   78.14    4.08
  -4   2   7   72.45    4.41
   4  -2   6   25.99    2.41
  -4   2   6   27.83    2.26
   4   2  -6   23.49    2.92
  -4  -2  -6   17.76    3.59
  -4   2   6   19.93    2.69
  -4   2   5   18.29    1.87
  -4  -2  -5   14.50    3.07
  -4   2   5   18.20    2.35
   4   2  -5   16.77    2.28
  -4   2   4  211.01    5.42
  -4  -2  -4  212.08    9.54
  -4  -2  -4  205.24    5.35
   4   2  -4  207.19    7.72
  -4   2   4  217.53    6.84
   4   2  -3   29.76    2.89
  -4   2   3   26.62    1.89
  -4  -2  -3   21.55    1.80
  -4  -2  -3   24.86    1.87
  -4   2   3   23.42    2.17
  -4  -2  -3   24.87    3.25
  -4   2   2  156.70    4.16
  -4  -2  -2  160.49    7.21
  -4  -2  -2  158.82    4.57
  -4  -2  -2  154.83    4.54
  -4  -2  -2  155.93    4.16
  -4   2   2  150.36    4.90
  -4   2   1  286.92    5.31
  -4  -2  -1  280.36    9.11
  -4   2   1  280.82    5.95
  -4  -2  -1  275.90    5.92
  -4  -2  -1  277.43    5.39
  -4   2   1  277.37    6.23
  -4  -2   0   24.16    2.70
  -4  -2   0   26.79    1.64
  -4   2   0   23.30    1.93
  -4  -2   0   20.34    1.70
  -4  -2   0   23.42    1.61
  -4   2   0   23.67    1.83
  -4   2   0   23.11    2.07
  -4  -2   1  286.15    8.76
  -4   2  -1  268.35    7.06
  -4  -2   1  280.01    5.53
  -4  -2   1  280.69    6.05
  -4  -2   1  282.39    5.72
  -4  -2   1  266.46    5.34
  -4   2  -1  286.98    5.90
  -4   2  -1  277.03    6.43
  -4   2  -2  144.55    5.48
  -4  -2   2  154.14    4.36
  -4  -2   2  149.17    4.44
  -4  -2   2  144.34    4.05
   4  -2  -2  148.56    5.67
  -4   2  -2  148.87    4.11
  -4  -2   2  146.29    4.03
  -4  -2   2  157.69    6.47
  -4  -2   3   22.84    1.89
  -4  -2   3   23.03    1.85
  -4   2  -3   18.40    2.31
  -4   2  -3   23.67    1.71
   4  -2  -3   24.66    2.62
  -4  -2   3   21.51    1.66
  -4   2  -3   25.09    1.92
  -4  -2   4  208.41    5.74
  -4  -2   4  209.71    5.33
  -4   2  -4  208.77    7.24
  -4   2  -4  211.52    4.94
   4  -2  -4  206.30    7.86
   4   2   4  212.19    5.15
  -4   2  -4  206.88    5.34
  -4  -2   5   19.30    1.69
  -4  -2   5   18.41    1.98
  -4  -2   5   18.84    1.74
  -4   2  -5   16.82    2.49
   4  -2  -5   18.33    2.62
   4   2   5   17.51    1.71
  -4   2  -5   17.96    1.72
  -4  -2   6   22.19    2.00
  -4  -2   6   26.49    2.29
   4  -2  -6   27.94    3.53
   4   2   6   25.51    2.13
  -4   2  -6   29.01    3.15
  -4  -2   7   73.61    3.56
  -4  -2   7   75.43    3.63
  -4   2  -7   71.12    4.55
   4   2   7   80.81    3.78
  -4  -2   8   50.21    2.90
  -4  -2   8   45.90    2.71
   4   2   8   52.94    3.01
  -4  -2   9   40.81    2.19
  -4   2  -9   41.72    2.65
   4   2   9   44.88    2.60
   4  -3   9    1.81    0.71
  -4   3   9    0.91    0.64
   4  -3   8    4.64    1.11
  -4   3   8    5.40    1.31
   4  -3   7    8.88    1.65
  -4   3   7    7.75    1.76
  -4  -3  -6   12.79    1.64
  -4   3   6    9.54    2.17
   4   3  -5  133.73    6.94
  -4  -3  -5  141.32    8.38
  -4  -3  -5  133.03    4.59
  -4   3   5  123.37    5.81
  -4  -3  -4   87.73    6.25
  -4  -3  -4   78.84    3.51
   4   3  -4   81.46    5.28
  -4   3   4   86.22    4.51
   4   3  -3   24.43    2.90
  -4  -3  -3   24.08    3.12
  -4  -3  -3   26.88    2.13
  -4   3   3   25.83    2.38
  -4  -3  -2   34.63    3.55
   4  -3   2   30.83    2.02
  -4  -3  -2   31.75    2.19
  -4   3   2   33.49    2.45
  -4  -3  -1  171.41    7.39
   4  -3   1  166.78    4.63
  -4   3   1  167.36    4.68
  -4  -3  -1  168.55    4.74
  -4  -3  -1  170.04    4.48
  -4  -3  -1  167.53    4.20
  -4   3   1  175.59    5.12
  -4   3   0    2.01    0.94
  -4  -3   0    4.02    0.83
  -4  -3   0    2.81    0.91
  -4  -3   0    2.72    1.04
  -4  -3   0    2.34    0.72
  -4  -3   0    2.44    0.67
   4  -3   0    4.91    1.01
  -4   3   0    1.32    0.71
  -4  -3   1  168.03    6.95
  -4  -3   1  174.85    4.81
  -4  -3   1  173.60    4.67
   4  -3  -1  171.29    6.31
  -4  -3   1  162.92    3.97
  -4   3  -1  173.20    4.65
  -4  -3   2   32.53    2.21
  -4  -3   2   33.17    2.24
  -4   3  -2   28.91    2.62
  -4  -3   2   31.56    2.11
   4  -3  -2   33.53    2.95
  -4   3  -2   27.28    1.85
  -4  -3   2   34.36    3.18
  -4  -3   3   21.18    1.94
  -4  -3   3   25.43    2.00
  -4   3  -3   21.81    2.54
   4  -3  -3   25.99    2.85
  -4   3  -3   26.32    2.06
  -4  -3   4   80.02    3.76
  -4   3  -4   77.03    4.78
  -4  -3   4   81.91    3.45
   4  -3  -4   84.23    5.32
  -4   3  -4   83.87    3.58
  -4  -3   5  130.62    4.47
  -4  -3   5  128.06    4.83
  -4  -3   5  140.09    4.52
  -4   3  -5  133.80    6.62
   4  -3  -5  125.48    6.94
   4   3   5  135.01    4.45
  -4   3  -5  140.96    4.64
  -4  -3   6   13.78    1.64
  -4  -3   6   11.35    1.68
  -4   3  -6   14.35    2.52
   4   3   6   12.59    1.51
  -4  -3   7    8.57    1.27
   4   3   7    7.83    1.27
  -4   3  -7    8.19    2.12
  -4  -3   7    7.10    1.23
  -4  -3   8    3.40    0.95
   4   3   8    2.95    0.84
  -4   3  -8    3.50    1.43
  -4  -3   8    2.31    0.86
   4   3   9   -0.04    0.24
  -4  -3   9    0.79    0.32
  -4   4   9   15.78    1.51
   4  -4   9   15.68    1.48
   4  -4   8   10.25    1.34
  -4   4   8   11.38    1.67
   4  -4   7  106.99    4.64
  -4   4   7  109.45    5.10
  -4   4   6  105.24    5.25
  -4  -4  -5   14.83    1.61
  -4   4   5   12.10    2.06
  -4  -4  -4  252.80   10.67
  -4  -4  -4  249.42    6.06
   4   4  -4  250.32    9.89
  -4   4   4  250.23    7.59
   4   4  -3  103.38    6.29
   4  -4   3   90.77    3.53
  -4  -4  -3   87.49    5.96
  -4  -4  -3   88.44    3.68
  -4   4   3   97.19    4.46
  -4  -4  -2  274.10   10.04
   4  -4   2  284.91    6.40
  -4  -4  -2  283.58    6.41
  -4  -4  -2  286.77    6.53
  -4   4   2  281.09    7.00
  -4  -4  -1  185.46    7.89
  -4  -4  -1  175.71    5.01
  -4  -4  -1  175.95    4.96
  -4   4   1  174.41    5.20
   4  -4   1  172.75    5.12
  -4  -4   0   85.44    5.30
  -4  -4   0   83.92    3.60
  -4   4   0   82.58    3.57
  -4  -4   0   87.41    3.51
  -4  -4   0   81.94    3.36
  -4   4   0   81.96    3.36
  -4  -4   1  172.82    7.28
  -4  -4   1  187.43    5.57
  -4  -4   1  192.45    5.24
   4  -4  -1  174.63    7.13
  -4  -4   1  180.61    4.85
  -4  -4   2  293.53    7.18
  -4  -4   2  284.43    6.68
  -4   4  -2  274.07    7.75
  -4  -4   2  273.42    5.90
   4  -4  -2  269.10    9.27
  -4  -4   3   91.42    4.12
  -4  -4   3   89.13    3.72
  -4   4  -3   89.96    5.03
   4  -4  -3   88.85    5.58
  -4   4  -3   89.42    3.76
  -4  -4   4  247.40    6.81
  -4  -4   4  238.45    5.95
  -4   4  -4  224.98    8.31
   4  -4  -4  228.33    9.32
  -4   4  -4  245.58    6.23
  -4  -4   5   12.78    1.55
  -4  -4   5   13.61    1.82
  -4  -4   5   14.34    1.55
  -4   4  -5   15.46    2.66
   4   4   5   14.82    1.62
  -4   4  -5   18.74    1.85
  -4  -4   6   96.70    4.02
  -4  -4   6  108.83    4.51
  -4   4  -6   94.18    5.74
   4   4   6  106.71    4.06
  -4  -4   7   97.86    3.98
  -4  -4   7  104.07    4.25
  -4   4  -7  101.37    5.54
   4   4   7  106.84    3.97
  -4  -4   8    8.84    1.20
  -4  -4   8    8.76    1.17
  -4   4  -8   12.50    1.96
   4   4   8    9.33    1.29
   4   4   9   15.42    1.26
   4  -5   8    7.98    1.16
  -4  -5  -8    5.59    1.00
  -4   5   8    6.00    1.03
  -4  -5  -7   32.93    2.36
  -4   5   7   33.10    2.56
  -4  -5  -6  110.19    4.42
  -4   5   6  110.35    4.89
   4  -5   5   65.44    2.99
  -4  -5  -5   74.49    3.77
  -4   5   5   73.11    4.08
   4  -5   4   19.82    1.76
  -4  -5  -4   18.27    1.72
  -4  -5  -4   18.08    2.04
  -4   5   4   18.28    1.99
   4  -5   3   89.22    3.85
  -4  -5  -3   96.44    3.72
  -4  -5  -3   89.92    4.04
  -4   5   3   96.87    4.35
   4   5  -3   83.94    5.87
  -4  -5  -2   72.32    5.14
   4  -5   2   74.18    3.56
  -4  -5  -2   75.96    3.40
  -4  -5  -2   73.46    3.60
   4   5  -2   71.17    5.32
  -4   5   2   71.81    3.57
  -4  -5  -1  102.99    6.03
   4  -5   1  105.92    4.29
  -4  -5  -1  111.26    4.09
  -4  -5  -1  108.32    4.22
  -4  -5   0  291.26    9.68
   4  -5   0  320.62    7.57
  -4  -5   0  293.36    7.46
  -4  -5   0  320.74    7.03
  -4  -5   1  101.34    4.55
  -4   5  -1  106.64    4.35
   4  -5  -1  100.55    5.84
  -4  -5   1  103.16    4.01
  -4  -5   1  104.42    5.70
  -4  -5   2   76.77    3.57
  -4  -5   2   75.39    4.01
   4  -5  -2   63.89    4.94
  -4  -5   2   69.77    3.30
  -4  -5   3   83.71    3.59
  -4  -5   3   93.11    4.45
  -4   5  -3   83.06    4.73
   4  -5  -3   87.64    5.95
  -4  -5   4   19.55    1.71
  -4  -5   4   18.35    2.13
  -4   5  -4   15.85    2.51
  -4   5  -4   18.31    1.79
  -4  -5   5   66.58    3.38
  -4   5  -5   71.18    4.73
  -4  -5   5   73.55    3.84
  -4   5  -5   72.28    3.33
  -4  -5   6  104.06    4.07
  -4  -5   6  112.43    4.53
  -4   5  -6  115.80    5.85
   4   5   6  106.60    3.77
  -4  -5   7   29.54    2.16
  -4  -5   7   29.90    2.18
  -4   5  -7   29.99    2.99
   4   5   7   32.72    2.05
   4   5   8    4.21    0.73
  -4  -5   8    5.43    0.85
   4  -6   7   19.11    1.76
  -4  -6  -7   15.61    1.51
  -4   6   7   16.60    1.59
  -4  -6  -6    0.32    0.77
  -4   6   6    1.13    0.65
   4  -6   5   26.02    1.88
  -4  -6  -5   27.62    2.26
  -4   6   5   27.58    2.25
  -4  -6  -4   41.80    2.83
  -4   6   4   42.31    2.76
   4  -6   4   39.07    2.52
   4  -6   3  330.10    7.34
  -4  -6  -3  334.28    7.79
  -4   6   3  314.54    7.16
   4  -6   2   43.68    2.89
  -4  -6  -2   44.44    2.96
   4  -6   1    4.89    1.26
  -4  -6  -1    4.31    1.19
   4  -6   0  342.04    8.11
  -4  -6   0  343.67    7.61
   4  -6  -1    4.86    1.38
  -4  -6   1    5.83    1.19
  -4  -6   1    3.99    1.24
  -4  -6   1    5.26    1.18
   4  -6  -2   43.92    3.13
  -4  -6   2   43.90    2.70
  -4  -6   2   46.94    3.32
  -4  -6   3  337.58    8.45
  -4   6  -3  335.52    7.34
  -4  -6   4   43.50    2.99
  -4   6  -4   41.85    3.29
  -4   6  -4   40.57    2.51
  -4  -6   5   26.64    2.26
  -4   6  -5   26.76    2.74
  -4   6  -5   26.47    1.91
  -4   6  -6    2.70    1.19
  -4  -6   6    1.92    0.88
  -4  -6   7   17.16    1.53
  -4  -7  -6    7.16    1.12
   4  -7   5   29.72    1.93
  -4  -7  -5   31.59    2.21
   4  -7   4    0.36    0.72
  -4  -7  -4    0.67    0.69
   4  -7   3    2.83    0.90
  -4  -7  -3    4.35    1.18
   4  -7   2   50.39    3.00
  -4  -7  -2   55.75    3.16
   4  -7   1   19.43    2.01
  -4  -7  -1   17.95    1.89
   4  -7   0   17.27    1.99
  -4  -7   0   16.75    1.99
  -4  -7   0   19.33    1.95
   4  -7  -1   18.46    2.02
  -4  -7   1   17.80    1.73
  -4  -7   1   21.68    2.06
  -4  -7   1   16.94    1.84
   4  -7  -2   47.79    3.11
  -4  -7   2   49.07    3.23
  -4   7  -3    5.13    1.03
   4  -7  -3    3.22    1.09
  -4  -7   3    4.26    1.15
  -4   7  -4    1.88    0.55
   4  -7  -4    1.64    0.97
  -4  -7   4   -0.46    0.77
  -4  -7   5   34.97    2.38
   4  -7  -5   30.97    2.29
  -4  -7   6    9.31    1.10
   4  -7  -6    7.19    1.07
   4  -8   4   51.68    2.33
  -4  -8  -4   62.08    2.73
   4  -8   3   43.03    2.31
  -4  -8  -3   42.71    2.43
   4  -8   2   65.73    3.02
  -4  -8  -2   64.99    3.07
   4  -8   1   20.03    1.82
  -4  -8  -1   17.21    1.56
  -4  -8  -1   20.38    1.82
   4  -8   0   50.98    2.83
  -4  -8   0   51.78    2.79
   4  -8  -1   22.61    2.01
  -4  -8   1   18.47    1.77
   4  -8  -2   64.91    3.14
  -4  -8   2   65.67    3.15
  -4   8  -2   62.93    2.74
   4  -8  -3   43.63    2.54
  -4  -8   3   45.25    2.51
  -4   8  -3   41.97    2.01
  -4  -8   4   58.17    2.74
   4  -8  -4   57.54    2.66
   4  -9   0    7.27    1.04
  -5   0   0   -0.39    0.70
  -5   0   0    0.73    0.91
  -5   0   0   -0.25    0.48
  -5   0   0   -0.36    0.45
  -5   0   0    0.71    0.86
  -5   0  -1  233.75    8.64
  -5   0   1  245.67    5.35
  -5   0   1  255.64    5.89
  -5   0  -1  228.80    5.35
  -5   0  -1  226.80    6.39
  -5   0   1  238.03    5.54
  -5   0  -1  234.52    5.90
  -5   0  -1  252.33    6.04
  -5   0   1  247.86    6.32
  -5   0  -1  240.37    5.04
  -5   0   1  234.06    8.36
  -5   0   2    4.50    1.07
  -5   0  -2    3.69    0.87
  -5   0  -2    5.30    1.32
  -5   0   2    4.58    1.00
  -5   0   2    5.02    0.97
  -5   0  -2    6.68    1.63
  -5   0  -2    4.99    1.05
  -5   0   2    6.50    1.30
  -5   0  -2    4.29    0.88
  -5   0   3   28.68    2.19
  -5   0  -3   28.10    3.30
  -5   0   3   27.97    2.16
  -5   0  -3   29.39    2.56
  -5   0  -3   31.37    2.27
  -5   0   3   26.59    2.39
  -5   0   4  385.44    7.82
  -5   0  -4  363.67   12.92
  -5   0  -4  386.45    8.89
  -5   0   4  383.96    8.69
  -5   0   5  443.68    8.76
  -5   0  -5  432.52    9.49
  -5   0   5  406.11    9.18
   5   0   5  416.91    8.22
  -5   0   6   52.46    3.08
  -5   0  -6   48.28    3.34
  -5   0   6   47.73    3.21
   5   0   6   50.91    3.01
  -5   0   7  164.03    5.23
  -5   0  -7  150.83    5.21
  -5   0   7  151.70    5.23
   5   0   7  152.79    5.02
   5   0   8    7.29    1.11
  -5   0   8    6.77    1.13
   5   0   9   -0.53    0.51
   5  -1   9   20.80    1.56
  -5  -1  -8   13.56    1.36
  -5   1   8   11.30    1.46
   5  -1   8   13.87    1.53
  -5   1   7    9.61    1.54
  -5   1   7   11.60    1.83
   5  -1   7   10.34    1.50
   5  -1   6   12.73    1.70
  -5   1   6   12.31    1.71
  -5  -1  -6   11.66    1.70
  -5   1   6   12.67    2.02
   5  -1   5  199.72    5.88
  -5   1   5  210.95    5.96
  -5  -1  -5  186.64    5.92
  -5   1   5  204.71    7.12
   5  -1   4    2.85    1.00
  -5  -1  -4    4.80    1.28
  -5   1   4    2.67    1.05
  -5  -1  -4    2.44    1.42
  -5   1   4    2.35    1.22
  -5   1   3   51.32    2.79
  -5  -1  -3   47.74    4.56
  -5  -1  -3   47.98    3.09
  -5  -1  -3   54.11    2.92
  -5   1   3   53.33    3.38
  -5   1   2   84.12    3.35
  -5  -1  -2   92.49    5.88
  -5   1   2   86.42    3.38
  -5  -1  -2   85.76    4.04
  -5  -1  -2   83.60    3.77
  -5  -1  -2   91.75    3.66
  -5   1   2   87.83    4.11
  -5  -1  -1  102.08    6.00
  -5   1   1  104.34    3.53
  -5   1   1  100.77    3.48
  -5  -1  -1   93.18    3.73
  -5  -1  -1  101.97    4.28
  -5  -1  -1  100.60    4.02
  -5  -1  -1  104.50    3.87
  -5   1   1  102.96    4.22
  -5   1   1   98.18    5.19
  -5   1   0   10.28    1.16
  -5  -1   0    7.57    1.35
  -5   1   0    9.80    1.57
  -5  -1   0    8.84    1.33
  -5   1   0    8.86    1.34
  -5   1   0    9.07    1.92
  -5  -1   0   11.26    2.14
  -5  -1   0    8.77    1.31
  -5   1   0    9.13    1.38
  -5   1   0    8.31    1.20
  -5  -1   1  106.41    5.92
  -5   1  -1   99.87    5.39
  -5  -1   1  100.66    3.51
  -5  -1   1  102.63    3.98
  -5   1  -1  101.08    4.36
  -5  -1   1  102.09    3.76
  -5   1  -1  112.40    4.14
  -5  -1   1  101.40    3.92
  -5   1  -1   91.24    3.42
  -5   1  -2   83.24    5.08
  -5  -1   2   84.57    3.42
  -5  -1   2   85.92    3.72
  -5   1  -2   86.71    4.26
  -5  -1   2   86.91    3.39
  -5   1  -2   89.71    3.62
  -5  -1   2   80.45    3.59
  -5   1  -2   81.11    3.34
  -5   1  -3   46.55    4.08
  -5  -1   3   50.74    2.85
  -5  -1   3   50.21    2.87
  -5   1  -3   49.84    3.49
  -5   1  -3   49.20    2.79
  -5  -1   3   46.91    2.84
  -5   1  -3   47.20    2.64
  -5  -1   4    2.21    1.02
  -5   1  -4    3.12    1.37
  -5  -1   4    3.34    1.01
  -5   1  -4    1.56    0.90
  -5  -1   4    2.46    0.98
  -5  -1   5  205.95    6.05
  -5   1  -5  199.91    7.03
  -5  -1   6   13.25    1.68
  -5   1  -6   13.81    2.21
  -5  -1   6   11.10    1.43
   5   1   6   12.23    1.48
  -5  -1   7   10.26    1.55
  -5   1  -7   10.96    1.80
   5   1   7   10.15    1.38
  -5  -1   8   12.58    1.44
  -5   1  -8   11.89    1.59
   5   1   8   11.40    1.37
   5   1   9   18.41    1.50
   5  -2   9    0.85    0.49
  -5  -2  -8   73.65    3.04
  -5   2   8   85.79    3.96
   5  -2   8   83.29    3.57
   5  -2   7   20.15    1.94
  -5  -2  -7   22.76    1.96
  -5   2   7   24.87    2.48
   5  -2   6   35.51    2.66
  -5  -2  -6   40.39    2.76
  -5   2   6   40.80    3.43
   5  -2   5   36.31    2.71
  -5  -2  -5   33.56    2.62
  -5   2   5   32.50    3.27
  -5   2   4   57.52    3.13
  -5  -2  -4   56.54    5.39
  -5  -2  -4   57.78    3.16
  -5  -2  -4   54.40    3.21
  -5   2   4   55.55    3.90
  -5   2   3    8.83    1.40
   5   2  -3    8.03    1.71
  -5  -2  -3    6.93    1.37
  -5  -2  -3    8.52    2.11
  -5   2   3    7.92    1.64
  -5  -2  -2  238.24    9.96
  -5  -2  -2  238.12    6.40
  -5  -2  -2  259.04    6.00
  -5   2   2  234.56    6.83
  -5  -2  -1  110.88    6.53
  -5   2   1  106.43    4.25
  -5  -2  -1  115.45    4.33
  -5  -2  -1  120.12    4.09
  -5   2   1  118.51    4.66
  -5  -2   0  452.45   12.70
  -5  -2   0  430.57    8.47
  -5   2   0  453.30    8.91
  -5  -2   0  480.56    8.46
  -5  -2   0  450.41    7.71
  -5   2   0  459.56    8.59
  -5  -2   1  102.51    5.99
  -5  -2   1  111.56    3.90
  -5  -2   1  110.23    4.25
  -5   2  -1  115.36    4.75
  -5  -2   1  118.25    4.17
  -5  -2   1  109.55    3.89
  -5   2  -1  112.60    4.14
  -5   2  -1  109.57    4.02
  -5  -2   2  241.35    6.04
  -5  -2   2  245.08    6.35
  -5   2  -2  240.94    7.28
  -5  -2   2  241.22    5.88
  -5   2  -2  229.90    5.80
  -5  -2   2  223.17    5.58
  -5  -2   2  251.28    9.26
  -5   2  -2  248.20    5.98
  -5   2  -3    6.70    1.20
  -5  -2   3    8.70    1.35
  -5  -2   3    7.88    1.30
  -5   2  -3    8.19    1.87
  -5   2  -3    7.34    1.17
  -5  -2   3    6.47    1.20
  -5  -2   4   54.10    3.16
  -5  -2   4   61.90    3.22
  -5   2  -4   62.68    4.26
  -5   2  -4   57.38    2.91
  -5  -2   4   50.62    2.71
  -5   2  -4   54.62    3.03
  -5  -2   5   36.70    2.70
  -5   2  -5   32.53    3.22
  -5  -2   6   40.08    2.77
  -5   2  -6   35.96    3.40
   5   2   6   36.69    2.41
  -5  -2   7   22.81    2.06
  -5   2  -7   21.50    2.63
   5   2   7   20.63    1.82
  -5  -2   8   82.37    3.34
  -5   2  -8   83.96    3.85
   5   2   8   81.19    3.20
   5  -3   8    3.62    1.09
  -5   3   8    2.01    0.84
   5  -3   7   12.98    1.63
  -5  -3  -7   12.09    1.39
  -5   3   7   12.60    1.91
   5  -3   6    7.12    1.18
  -5  -3  -6    5.22    1.11
  -5   3   6    5.15    1.43
  -5  -3  -5   39.00    2.71
  -5   3   5   35.81    3.42
  -5  -3  -4   24.20    2.22
  -5   3   4   22.61    2.71
  -5  -3  -3  133.68    7.92
  -5  -3  -3  169.23    5.48
  -5  -3  -3  154.82    4.88
  -5   3   3  164.59    6.19
   5   3  -3  137.78    7.07
  -5  -3  -2   43.83    4.36
  -5  -3  -2   38.42    2.70
  -5  -3  -2   37.51    2.40
   5   3  -2   34.53    3.56
  -5   3   2   37.57    2.83
  -5  -3  -1   22.10    2.97
  -5   3   1   23.88    2.17
  -5  -3  -1   21.02    2.05
  -5  -3  -1   28.06    2.02
  -5   3   1   24.76    2.24
  -5  -3   0   25.58    3.27
  -5  -3   0   20.17    2.07
  -5   3   0   23.17    2.19
  -5  -3   0   20.39    1.97
  -5  -3   0   21.87    1.80
  -5   3   0   19.30    1.92
  -5  -3   1   23.13    2.02
  -5  -3   1   22.90    2.15
  -5   3  -1   21.94    2.33
  -5  -3   1   25.23    2.08
  -5  -3   1   23.86    1.79
  -5   3  -1   21.99    1.91
  -5  -3   1   23.55    3.03
  -5  -3   2   37.67    2.62
  -5  -3   2   41.66    2.77
  -5   3  -2   38.39    3.10
  -5   3  -2   39.32    2.45
  -5   3  -2   38.83    2.60
  -5  -3   3  163.16    5.49
  -5  -3   3  160.54    5.23
  -5   3  -3  147.09    6.30
  -5   3  -3  154.92    4.50
  -5   3  -3  163.75    5.22
  -5  -3   4   23.66    2.24
  -5  -3   4   25.08    2.10
  -5   3  -4   23.02    2.05
  -5  -3   5   39.30    2.83
  -5   3  -5   36.24    2.51
  -5  -3   6    7.27    1.26
  -5  -3   7   12.99    1.57
  -5   3  -7   15.03    2.18
   5   3   8    4.74    0.72
  -5   3  -8    4.35    1.14
  -5  -3   8    5.03    0.90
   5  -4   8   45.68    2.38
  -5  -4  -8   48.47    2.40
  -5   4   8   50.32    2.72
   5  -4   7   17.30    1.78
  -5  -4  -7   15.41    1.60
  -5   4   7   14.00    1.74
   5  -4   6  100.90    4.33
  -5  -4  -6  100.73    4.04
  -5   4   6  101.80    5.03
  -5  -4  -5   88.60    3.66
  -5  -4  -5   88.80    3.92
  -5   4   5   97.74    4.98
  -5  -4  -4    3.58    1.02
  -5  -4  -4    4.46    1.21
  -5   4   4    4.47    1.38
  -5  -4  -3   16.07    1.84
  -5  -4  -3   15.34    1.77
  -5   4   3   17.19    2.19
  -5  -4  -2   81.37    3.76
  -5  -4  -2   76.38    3.49
  -5   4   2   79.08    4.00
  -5  -4  -1   25.28    3.21
   5  -4   1   19.02    1.86
  -5  -4  -1   22.35    2.06
  -5  -4  -1   19.22    1.83
  -5   4   1   21.97    2.11
  -5  -4   0  146.81    7.50
   5  -4   0  151.22    5.06
  -5   4   0  158.23    5.25
  -5  -4   0  167.64    5.28
  -5   4   0  149.59    4.92
  -5  -4   1   21.51    2.04
  -5  -4   1   20.06    2.15
  -5   4  -1   18.87    2.18
  -5  -4   1   18.48    2.59
  -5   4  -1   21.55    1.87
  -5  -4   2   91.05    4.26
  -5  -4   2   84.89    3.98
  -5   4  -2   80.47    4.40
  -5   4  -2   85.35    3.92
  -5  -4   3   15.30    1.88
  -5  -4   3   14.46    1.67
  -5   4  -3   15.75    2.32
  -5   4  -3   17.62    1.84
  -5   4  -4    4.05    1.08
  -5  -4   4    2.91    1.10
  -5  -4   4    4.26    1.23
  -5  -4   5   93.85    4.28
  -5   4  -5   92.16    3.80
  -5  -4   6  101.02    4.25
  -5  -4   7   14.35    1.49
  -5   4  -7   15.01    2.15
  -5  -4   8   46.01    2.20
  -5   4  -8   46.07    2.75
   5  -5   7   11.58    1.37
  -5  -5  -7    9.92    1.23
  -5   5   7   10.34    1.34
  -5  -5  -6   11.11    1.39
  -5   5   6   15.19    1.78
  -5  -5  -5    0.48    0.85
  -5   5   5    2.13    0.91
  -5  -5  -4  203.80    5.24
  -5  -5  -4  206.45    5.87
  -5   5   4  207.68    6.52
  -5  -5  -3   38.89    2.50
  -5  -5  -3   38.90    2.64
  -5   5   3   37.54    2.78
   5  -5   2   80.52    3.52
  -5  -5  -2   88.52    3.79
  -5  -5  -2   81.82    3.72
  -5   5   2   78.15    3.78
   5  -5   1   21.61    2.05
  -5  -5  -1   24.53    2.22
  -5  -5  -1   20.95    1.97
  -5   5   1   20.70    1.92
   5  -5   0   18.04    1.91
  -5  -5   0   18.26    2.07
  -5  -5   0   16.29    1.66
   5  -5  -1   20.61    2.12
  -5  -5   1   19.85    2.07
  -5  -5   1   23.55    2.23
  -5   5  -1   19.41    2.07
  -5  -5   2   84.44    4.29
  -5  -5   2   89.52    4.02
  -5   5  -2   80.61    4.11
  -5   5  -2   91.20    4.02
  -5  -5   3   37.03    2.87
  -5  -5   3   35.14    2.50
  -5   5  -3   34.58    3.01
  -5   5  -3   42.15    2.78
  -5  -5   4  213.75    6.54
  -5  -5   4  196.56    5.18
  -5   5  -4  202.79    6.98
  -5   5  -4  218.12    5.82
  -5   5  -5    1.06    1.18
  -5  -5   5    0.50    0.83
  -5   5  -5    0.86    0.68
  -5  -5   6   12.38    1.50
  -5   5  -6   14.02    2.04
  -5  -5   7    9.61    1.21
  -5   5  -7   10.09    1.41
   5  -6   6    6.46    1.04
  -5  -6  -6    6.30    1.04
  -5  -6  -5   48.50    2.62
  -5   6   5   49.45    2.57
  -5  -6  -4   10.75    1.47
  -5   6   4   10.46    1.20
   5  -6   3   13.17    1.48
  -5  -6  -3   12.39    1.52
   5  -6   2   71.50    3.31
  -5  -6  -2   73.99    3.47
   5  -6   1  415.06    8.20
  -5  -6  -1  423.92    8.10
   5  -6   0   24.62    2.22
  -5  -6   0   24.79    2.23
  -5  -6   0   25.54    2.07
   5  -6  -1  434.12    8.84
  -5  -6   1  442.99    8.61
  -5  -6   1  420.74    7.76
   5  -6  -2   74.10    3.73
  -5  -6   2   75.08    3.96
  -5  -6   2   79.19    3.51
  -5   6  -2   82.48    3.74
   5  -6  -3   15.77    1.84
  -5  -6   3   11.58    1.72
  -5  -6   3   14.77    1.53
  -5   6  -3   14.33    1.80
  -5   6  -3   17.05    1.74
  -5  -6   4   11.88    1.59
   5  -6  -4   10.69    1.57
  -5   6  -4   10.47    1.63
  -5   6  -4   10.78    1.33
  -5  -6   5   51.43    2.88
  -5   6  -5   53.45    3.10
  -5   6  -6    5.59    1.16
  -5  -6   6    6.71    0.96
  -5  -7  -4   43.10    2.25
   5  -7   3   18.37    1.50
  -5  -7  -3   22.32    1.73
   5  -7   2    6.47    1.07
  -5  -7  -2    8.06    1.20
   5  -7   1   20.63    1.77
  -5  -7  -1   21.84    1.86
  -5  -7  -1   18.86    1.73
   5  -7   0    4.40    0.98
  -5  -7   0    2.54    0.86
  -5  -7   0    3.04    0.95
   5  -7  -1   19.22    1.87
  -5  -7   1   17.50    1.65
   5  -7  -2    7.88    1.37
  -5  -7   2    8.38    1.26
  -5   7  -2    9.13    1.26
   5  -7  -3   18.46    1.77
  -5  -7   3   20.52    1.81
  -5   7  -3   20.97    1.65
  -5  -7   4   45.62    2.49
  -5   7  -4   48.78    2.15
   5  -8   1   38.16    2.01
   5  -8   0   12.89    1.29
  -5   8   0   13.05    1.22
   5  -8  -1   41.12    2.13
  -5   8  -1   43.32    2.11
  -6   0   0    0.71    0.61
  -6   0   0    1.83    0.94
  -6   0   0   -1.32    0.73
  -6   0   0    0.29    0.86
  -6   0  -1   26.77    3.49
  -6   0   1   23.02    1.79
  -6   0   1   21.27    1.90
  -6   0  -1   25.05    1.96
  -6   0   1   22.25    2.02
  -6   0  -1   23.52    2.28
  -6   0  -1   25.40    2.24
  -6   0   1   24.57    2.30
  -6   0   2    5.62    1.14
  -6   0  -2    8.60    1.75
  -6   0   2    3.92    1.06
  -6   0  -2    5.59    1.31
  -6   0   2    4.97    1.41
  -6   0   3  602.08    9.59
  -6   0  -3  599.09   11.65
  -6   0  -3  600.19   11.03
  -6   0  -3  631.44   10.11
  -6   0   3  595.83   10.87
  -6   0   4   58.25    3.16
  -6   0  -4   56.19    3.67
  -6   0   4   53.38    3.45
  -6   0   5  597.72    9.89
  -6   0   5  575.66   10.48
  -6   0   6   22.69    2.00
  -6   0  -6   21.06    2.14
  -6   0   6   20.26    1.97
  -6   0  -7    3.99    0.96
  -6   0  -7    0.80    0.85
  -6  -1  -7   33.93    2.27
  -6   1   7   30.43    2.26
  -6  -1  -6    0.83    0.99
  -6   1   6    1.66    0.95
  -6   1   5   36.82    2.55
  -6  -1  -5   37.39    2.69
  -6  -1  -5   36.37    2.78
  -6   1   5   36.27    3.05
  -6   1   4   17.88    1.86
  -6  -1  -4   16.50    2.15
  -6  -1  -4   18.42    2.17
  -6   1   4   21.81    2.41
  -6   1   3   11.75    1.56
  -6  -1  -3   10.10    1.48
  -6  -1  -3   13.51    1.96
  -6  -1  -3   15.04    1.91
  -6   1   3   12.46    2.01
  -6   1   2   59.47    3.04
  -6  -1  -2   54.50    2.97
  -6  -1  -2   57.98    3.41
  -6  -1  -2   63.43    3.33
  -6   1   2   53.77    3.53
  -6   1   1    4.71    0.91
  -6  -1  -1    2.50    0.93
  -6  -1  -1    4.81    1.24
  -6  -1  -1    1.45    1.48
  -6  -1  -1    3.07    1.15
  -6   1   1    4.73    1.40
  -6   1   0  273.69    5.85
  -6  -1   0  287.18    6.87
  -6  -1   0  302.74    7.09
  -6   1   0  276.70    6.45
  -6  -1   0  301.58    7.04
  -6   1   0  304.57    7.42
  -6  -1   0  290.88   10.76
  -6  -1   1    3.93    1.17
  -6   1  -1    1.88    1.30
  -6  -1   1    5.57    1.22
  -6   1  -1    3.25    1.09
  -6  -1   1    1.70    1.48
  -6   1  -1    4.35    1.23
  -6  -1   1    5.09    1.32
  -6   1  -1    4.29    0.88
  -6  -1   2   51.10    2.93
  -6  -1   2   53.19    3.07
  -6   1  -2   62.12    3.91
  -6  -1   2   56.94    2.98
  -6   1  -2   58.56    3.41
  -6   1  -2   56.70    3.14
  -6  -1   2   56.40    3.21
  -6   1  -2   56.36    2.89
  -6  -1   3   11.03    1.51
  -6  -1   3   12.96    1.70
  -6   1  -3   11.42    2.17
  -6   1  -3   14.00    1.73
  -6  -1   3   11.74    1.65
  -6  -1   4   16.78    1.87
  -6   1  -4   19.98    2.62
  -6  -1   4   15.80    1.85
  -6  -1   5   32.92    2.50
  -6  -1   5   28.47    2.20
  -6   1  -6   -1.42    0.90
  -6  -1   6    0.66    0.78
  -6  -1   7   34.99    2.24
  -6   1  -7   30.14    2.28
  -6  -2  -7    2.46    0.75
  -6   2   7    1.08    0.73
  -6  -2  -6    7.14    1.30
  -6   2   6    7.86    1.51
  -6  -2  -5   51.71    3.03
  -6   2   5   48.51    3.63
  -6  -2  -4   27.19    2.28
  -6  -2  -4   32.18    2.58
  -6   2   4   31.50    3.01
  -6  -2  -3    4.31    1.28
  -6  -2  -3    2.39    1.18
  -6   2   3    3.89    1.35
  -6  -2  -2  138.50    5.06
  -6  -2  -2  138.07    4.81
  -6   2   2  132.10    5.42
  -6  -2  -1   14.56    1.83
  -6  -2  -1   17.07    1.95
  -6  -2  -1   16.04    1.78
  -6   2   1   16.97    2.06
  -6   2   1   15.64    1.70
  -6   2   0    6.79    1.25
  -6  -2   0    6.00    1.27
  -6   2   0    5.81    1.42
  -6  -2   0    7.72    1.34
  -6  -2   0    7.01    1.21
  -6   2   0    7.53    1.45
  -6  -2   1   17.16    1.97
  -6   2  -1   17.01    2.21
  -6  -2   1   14.92    1.75
  -6   2  -1   12.35    1.60
  -6  -2   1   13.22    1.64
  -6   2  -1   18.27    1.90
  -6   2  -1   14.74    1.70
  -6  -2   2  128.01    4.55
  -6  -2   2  138.70    5.00
  -6   2  -2  136.26    5.84
  -6   2  -2  127.93    4.66
  -6  -2   2  122.04    4.33
  -6   2  -2  128.95    4.52
  -6  -2   3    1.55    0.98
  -6   2  -3    0.69    1.12
  -6  -2   3    2.86    0.94
  -6   2  -3    4.17    1.03
  -6  -2   3    3.57    0.98
  -6   2  -3    5.00    1.22
  -6  -2   4   30.97    2.48
  -6  -2   4   35.42    2.59
  -6   2  -4   30.69    3.23
  -6  -2   5   49.89    2.95
  -6   2  -5   55.96    4.00
  -6   2  -6    5.91    1.66
  -6  -2   6    6.43    1.18
  -6   2  -7    0.74    0.82
  -6  -2   7    2.26    0.85
  -6   3   7    5.40    0.98
  -6  -3  -6   13.05    1.34
  -6   3   6   12.19    1.72
  -6  -3  -5   31.01    2.50
  -6  -3  -5   36.34    2.40
  -6   3   5   29.30    2.74
  -6  -3  -4    8.01    1.63
  -6  -3  -4    6.08    1.32
  -6   3   4    5.90    1.56
  -6  -3  -3    7.85    1.60
  -6  -3  -3    8.50    1.53
  -6   3   3    7.42    1.68
  -6  -3  -2    7.85    1.56
  -6  -3  -2    9.58    1.62
  -6   3   2    9.53    1.65
  -6  -3  -1   43.88    3.18
  -6  -3  -1   47.13    3.01
  -6   3   1   42.51    3.00
  -6   3   1   41.06    2.65
  -6   3   0    0.91    0.71
  -6  -3   0    2.65    1.12
  -6   3   0    4.59    1.16
  -6  -3   0    2.67    1.10
  -6  -3   0    3.38    1.00
  -6   3   0    2.13    1.05
  -6  -3   1   43.75    3.01
  -6   3  -1   37.49    2.99
  -6  -3   1   42.48    2.79
  -6  -3   1   42.51    2.45
  -6   3  -1   43.43    2.74
  -6   3  -1   45.52    2.83
  -6  -3   2    8.37    1.43
  -6   3  -2    8.51    1.94
  -6  -3   2    8.04    1.46
  -6   3  -2    7.95    1.34
  -6   3  -2    9.55    1.49
  -6   3  -3    7.81    1.32
  -6  -3   3    7.29    1.27
  -6   3  -3    5.13    1.80
  -6  -3   3    7.65    1.27
  -6   3  -3    7.04    1.21
  -6  -3   4   11.00    1.50
  -6   3  -4    7.12    1.94
  -6  -3   4    9.23    1.41
  -6   3  -4   10.44    1.39
  -6  -3   5   37.34    2.61
  -6   3  -5   30.98    3.09
  -6  -3   6   12.79    1.57
  -6   3  -6   10.08    1.91
  -6   3  -7    5.75    1.23
  -6  -3   7    5.52    0.96
  -6   4   6   47.04    2.83
   6  -4   5    6.77    0.97
  -6  -4  -5    8.93    1.25
  -6   4   5   10.66    1.65
  -6  -4  -4  184.31    5.12
  -6   4   4  182.89    6.18
  -6  -4  -3    9.61    1.73
  -6  -4  -3    8.41    1.40
  -6   4   3    7.74    1.57
  -6  -4  -2   69.00    3.98
  -6  -4  -2   72.27    3.46
  -6   4   2   65.20    3.60
  -6  -4  -1   11.29    1.71
  -6  -4  -1   11.41    1.58
  -6   4   1   11.70    1.64
  -6  -4   0   16.50    2.07
  -6  -4   0   18.38    1.94
  -6   4   0   14.85    1.68
  -6   4   0   17.24    1.93
  -6   4  -1    9.90    1.49
   6  -4  -1    8.86    1.36
  -6  -4   1   12.85    1.70
  -6   4  -1    9.88    1.62
  -6   4  -1   10.24    1.36
  -6  -4   2   61.93    3.52
  -6  -4   2   68.05    3.56
  -6   4  -2   63.33    3.80
  -6   4  -2   67.26    3.44
  -6  -4   3    9.24    1.39
  -6   4  -3    8.25    1.77
  -6  -4   3    8.47    1.42
  -6   4  -3    8.45    1.35
  -6  -4   4  179.18    5.63
  -6  -4   4  184.48    5.15
  -6   4  -4  163.87    6.39
  -6   4  -4  181.28    5.11
  -6  -4   5    9.87    1.42
  -6   4  -5    7.14    1.70
  -6  -4   6   44.62    2.48
  -6   4  -6   44.52    3.05
  -6  -5  -5    6.75    1.20
  -6   5   5    4.94    1.07
  -6  -5  -4    6.50    1.35
  -6   5   4    5.03    1.01
  -6  -5  -3    1.15    1.07
  -6   5   3    2.53    0.81
  -6  -5  -2   55.90    3.53
  -6   5   2   52.09    2.83
  -6  -5  -1   76.14    3.95
  -6   5   1   66.63    3.01
   6  -5   0    9.75    1.27
  -6  -5   0   11.48    1.65
  -6   5   0   12.32    1.68
  -6  -5   1   74.40    3.70
  -6   5  -1   71.61    3.52
  -6  -5   2   40.56    2.75
   6  -5  -2   47.49    2.83
  -6  -5   2   55.49    3.01
  -6   5  -2   46.44    2.83
  -6   5  -2   57.70    3.05
  -6   5  -3    1.44    0.76
   6  -5  -3    0.65    0.83
  -6  -5   3   -0.40    0.59
  -6   5  -3    0.60    1.01
  -6  -5   3    0.52    0.86
   6  -5  -4    5.75    1.08
  -6   5  -4    4.64    1.39
  -6  -5   4    7.13    1.20
  -6   5  -4    6.76    1.03
  -6   5  -5    3.09    1.10
  -6  -5   5    5.97    0.95
  -6  -6  -4    8.51    1.28
  -6  -6  -3   87.67    3.70
  -6  -6  -2    0.87    0.85
  -6  -6  -1   80.71    3.60
  -6  -6   0   47.48    2.72
  -6   6   0   50.89    2.79
  -6  -6   1   83.90    3.40
  -6   6  -1   90.04    3.59
  -6   6  -2   -0.17    0.55
   6  -6  -2    0.33    0.58
  -6  -6   2   -0.41    0.67
   6  -6  -3   76.03    3.10
  -6  -6   3   77.03    2.78
   6  -6  -4    9.78    1.19
  -6   7   0   23.38    1.63
  -6   7  -1   15.05    1.32
  -7   0   0   -0.55    0.70
  -7   0   0   -0.03    0.64
  -7   0  -1   75.93    3.61
  -7   0  -1   71.32    3.54
  -7   0   1   75.09    3.67
  -7   0  -2    2.24    1.10
  -7   0  -2    2.33    1.01
  -7   0   2    3.17    1.09
  -7   0  -3   50.71    3.23
  -7   0   3   45.83    2.92
  -7   0  -4   -0.01    0.97
  -7   0   4    0.61    0.93
  -7   0  -5   91.24    4.04
  -7   0   5   86.40    3.49
  -7   0  -6   32.10    2.19
  -7  -1  -6    5.06    0.91
  -7  -1  -5   34.25    2.44
  -7   1   5   26.82    2.28
  -7  -1  -4    6.27    1.31
  -7   1   4    5.48    1.30
  -7  -1  -3   45.85    3.01
  -7   1   3   44.33    3.09
  -7  -1  -2   37.26    2.68
  -7  -1  -2   39.37    2.63
  -7   1   2   38.03    2.90
  -7  -1  -1    2.36    0.92
  -7  -1  -1    3.05    1.06
  -7  -1  -1    3.48    1.10
  -7   1   1    2.21    1.11
  -7  -1   0    1.89    0.80
  -7  -1   0   -0.14    0.80
  -7  -1   0    2.07    1.05
  -7  -1   1    2.40    0.92
  -7  -1   1    3.99    0.97
  -7   1  -1    2.02    0.72
  -7   1  -1    2.74    1.08
  -7  -1   1    3.56    1.10
  -7  -1   2   38.24    2.49
  -7   1  -2   39.51    2.77
  -7   1  -2   37.08    2.47
  -7  -1   2   35.73    2.45
  -7  -1   3   41.99    2.47
  -7   1  -3   41.33    2.95
  -7  -1   3   41.29    2.54
  -7  -1   4    6.32    1.07
  -7   1  -4    5.52    1.34
  -7  -1   4    3.55    0.97
  -7  -1   5   28.74    2.02
  -7   1  -5   28.48    2.46
  -7   1  -6    1.87    0.89
  -7  -2  -5    1.21    0.71
  -7   2   5   -0.49    0.80
  -7  -2  -4   12.36    1.57
  -7   2   4    8.55    1.62
  -7  -2  -3   10.37    1.60
  -7   2   3   11.02    1.81
  -7  -2  -2   15.36    1.75
  -7  -2  -2   14.17    1.72
  -7   2   2   13.67    1.81
  -7  -2  -1    5.93    1.26
  -7  -2  -1    4.91    1.21
  -7  -2  -1    5.36    1.23
  -7   2   1    5.26    1.33
  -7  -2   0  220.08    6.08
  -7  -2   0  234.47    5.98
  -7  -2   0  233.76    5.79
  -7   2   0  240.70    6.31
  -7  -2   1    4.25    1.08
  -7  -2   1    5.51    1.12
  -7   2  -1    4.70    1.20
  -7  -2   2   13.89    1.59
  -7   2  -2   16.05    1.63
  -7  -2   2   15.23    1.49
  -7  -2   3   12.60    1.41
  -7   2  -3   12.49    1.97
  -7   2  -3   10.72    1.58
  -7  -2   4    9.76    1.27
  -7   2  -4    8.67    1.73
  -7   2  -4    7.88    1.52
  -7  -2   5    0.51    0.65
  -7   2  -5   -0.60    0.81
  -7  -3  -5    3.35    0.82
  -7   3   5    3.36    0.98
  -7  -3  -4   10.39    1.33
  -7   3   4   10.45    1.64
  -7  -3  -3   34.10    2.44
  -7  -3  -3   42.10    2.51
  -7   3   3   42.56    2.88
  -7  -3  -2   15.74    1.81
  -7  -3  -2   15.83    1.67
  -7   3   2   14.85    1.79
  -7  -3  -1   -0.98    0.75
  -7  -3  -1    0.14    0.71
  -7   3   1   -0.22    0.80
  -7  -3   0   -1.11    1.00
  -7   3   0    2.19    0.82
  -7  -3   1   -0.52    0.88
  -7   3  -1    0.87    0.72
  -7   3  -1    1.58    0.68
  -7  -3   2   16.94    1.72
  -7   3  -2   15.01    1.51
  -7   3  -2   17.43    1.65
  -7  -3   3   42.78    2.54
  -7   3  -3   41.21    3.13
  -7  -3   4   10.33    1.31
  -7   3  -4    9.08    1.81
  -7   3  -5    3.20    1.22
  -7   4   4    1.17    0.72
  -7  -4  -3    2.10    0.96
  -7  -4  -3    2.14    0.51
  -7   4   3    2.71    0.82
  -7  -4  -2   22.35    2.05
  -7   4   2   24.44    1.94
  -7  -4  -1    3.28    1.00
  -7   4   1    5.16    1.08
  -7  -4   0   62.14    3.21
  -7   4   0   57.10    2.61
  -7   4   0   58.22    2.86
  -7  -4   1    5.12    1.18
  -7   4  -1    4.98    0.93
  -7  -4   2   22.95    1.84
  -7   4  -2   23.11    1.79
  -7   4  -4    2.47    0.93
  -7  -5  -2   12.08    1.43
  -7  -5  -1    6.67    1.09
  -7   5   0   -1.43    0.73
  -7  -5   0   -0.28    0.73
  -7   5  -1    6.70    1.03
  -7  -5   1    8.36    1.19
  -7  -5   2   10.83    1.20
  -7   5  -2   11.42    1.19
  -8   0   0   17.14    1.61
  -8   0   1   15.59    1.56
  -8   0   2   20.13    1.76
  -8  -1  -2    7.08    1.20
  -8   1   2    6.11    1.25
  -8   1   1   11.07    1.47
  -8   1   0   30.78    2.13
  -8   1  -1   11.12    1.40
  -8  -1   1   10.36    1.21
  -8   2   1    4.97    0.91
  -8   2   0    0.90    0.64
  -8   2  -1    3.53    0.83
   0   0   0    0.00    0.00


TITL 1a in P2(1)2(1)2(1)
REM P2(1)2(1)2(1) (#19 in standard setting)
CELL 1.54184   7.047294   8.763630  10.029890  90.0000  90.0000  90.0000
ZERR    4.00   0.000210   0.000196   0.000246   0.0000   0.0000   0.0000
LATT -1
SYMM -x+1/2,-y, z+1/2
SYMM -x, y+1/2,-z+1/2
SYMM  x+1/2,-y+1/2,-z
SFAC C H N Cl
UNIT 16.00 8.00 20.00 4.00
TREF
HKLF 4
END
_computing_structure_solution     'SHELXT 2018/2 (Sheldrick, 2018)'
;
_shelx_hkl_checksum              19783
_olex2_submission_special_instructions 'No special instructions were received'
_oxdiff_exptl_absorpt_empirical_details
;
Empirical correction (ABSPACK) includes:
- Absorption correction using spherical harmonics
- Frame scaling
;
_oxdiff_exptl_absorpt_empirical_full_max 1.647
_oxdiff_exptl_absorpt_empirical_full_min 0.786
loop_
_space_group_symop_operation_xyz
'x, y, z'
'-x+1/2, -y, z+1/2'
'-x, y+1/2, -z+1/2'
'x+1/2, -y+1/2, -z'
loop_
_atom_site_label
_atom_site_type_symbol
_atom_site_fract_x
_atom_site_fract_y
_atom_site_fract_z
_atom_site_U_iso_or_equiv
_atom_site_adp_type
_atom_site_occupancy
_atom_site_site_symmetry_order
_atom_site_calc_flag
_atom_site_refinement_flags_posn
_atom_site_refinement_flags_adp
_atom_site_refinement_flags_occupancy
_atom_site_disorder_assembly
_atom_site_disorder_group
Cl1 Cl 0.28971(15) 0.33299(10) 0.31933(10) 0.0552(4) Uani 1 1 d . . . . .
N4 N 0.3589(5) 0.7478(3) 0.4117(3) 0.0377(7) Uani 1 1 d . . . . .
N5 N 0.3688(5) 0.5941(3) 0.4178(3) 0.0409(7) Uani 1 1 d . . . . .
N3 N 0.4329(5) 0.8385(4) 0.5061(3) 0.0508(8) Uani 1 1 d . . . . .
N2 N 0.3953(6) 0.9770(4) 0.4662(4) 0.0578(10) Uani 1 1 d . . . . .
N1 N 0.2998(6) 0.9809(4) 0.3491(3) 0.0500(9) Uani 1 1 d . . . . .
C9 C 0.2776(5) 0.8349(4) 0.3150(3) 0.0381(7) Uani 1 1 d . . . . .
C7 C 0.1999(6) 0.6050(4) 0.2074(3) 0.0437(9) Uani 1 1 d . . . . .
H7 H 0.146702 0.549069 0.138065 0.052 Uiso 1 1 calc R U . . .
C6 C 0.2869(5) 0.5295(4) 0.3166(3) 0.0394(8) Uani 1 1 d . . . . .
C8 C 0.1952(6) 0.7586(4) 0.2054(3) 0.0441(9) Uani 1 1 d . . . . .
H8 H 0.140148 0.811878 0.135199 0.053 Uiso 1 1 calc R U . . .
loop_
_atom_site_aniso_label
_atom_site_aniso_U_11
_atom_site_aniso_U_22
_atom_site_aniso_U_33
_atom_site_aniso_U_23
_atom_site_aniso_U_13
_atom_site_aniso_U_12
Cl1 0.0675(6) 0.0293(5) 0.0689(6) -0.0029(4) 0.0148(5) -0.0015(5)
N4 0.0512(17) 0.0317(14) 0.0304(14) -0.0010(12) -0.0007(14) -0.0029(13)
N5 0.0529(17) 0.0328(15) 0.0369(15) 0.0047(12) 0.0029(15) 0.0002(14)
N3 0.069(2) 0.0449(18) 0.0387(16) -0.0062(17) -0.0064(15) -0.0094(18)
N2 0.078(3) 0.0407(18) 0.0544(19) -0.0124(16) 0.0029(19) -0.0084(18)
N1 0.065(2) 0.0335(15) 0.0513(17) -0.0032(13) 0.0057(18) -0.0014(16)
C9 0.0503(19) 0.0306(17) 0.0334(16) 0.0034(14) 0.0046(15) 0.0012(17)
C7 0.055(2) 0.0451(19) 0.0314(17) -0.0076(14) 0.0008(19) -0.0035(17)
C6 0.049(2) 0.0303(17) 0.0392(18) -0.0024(14) 0.0085(18) -0.0014(16)
C8 0.055(2) 0.047(2) 0.0313(17) 0.0059(15) -0.0003(18) 0.0033(18)
loop_
_atom_type_symbol
_atom_type_description
_atom_type_scat_dispersion_real
_atom_type_scat_dispersion_imag
_atom_type_scat_source
C C 0.0181 0.0091 'International Tables Vol C Tables 4.2.6.8 and 6.1.1.4'
H H 0.0000 0.0000 'International Tables Vol C Tables 4.2.6.8 and 6.1.1.4'
Cl Cl 0.3639 0.7018 'International Tables Vol C Tables 4.2.6.8 and 6.1.1.4'
N N 0.0311 0.0180 'International Tables Vol C Tables 4.2.6.8 and 6.1.1.4'
loop_
_geom_angle_atom_site_label_1
_geom_angle_atom_site_label_2
_geom_angle_atom_site_label_3
_geom_angle
_geom_angle_site_symmetry_1
_geom_angle_site_symmetry_3
_geom_angle_publ_flag
N5 N4 C9 127.9(3) . . ?
N3 N4 N5 122.6(3) . . ?
N3 N4 C9 109.5(3) . . ?
C6 N5 N4 112.1(3) . . ?
N2 N3 N4 104.8(3) . . ?
N3 N2 N1 113.0(3) . . ?
C9 N1 N2 104.8(3) . . ?
N4 C9 C8 117.6(3) . . ?
N1 C9 N4 107.8(3) . . ?
N1 C9 C8 134.6(3) . . ?
C6 C7 H7 120.4 . . ?
C8 C7 H7 120.4 . . ?
C8 C7 C6 119.2(3) . . ?
N5 C6 Cl1 114.7(3) . . ?
N5 C6 C7 126.3(3) . . ?
C7 C6 Cl1 118.9(3) . . ?
C9 C8 H8 121.6 . . ?
C7 C8 C9 116.9(3) . . ?
C7 C8 H8 121.6 . . ?
loop_
_geom_bond_atom_site_label_1
_geom_bond_atom_site_label_2
_geom_bond_distance
_geom_bond_site_symmetry_2
_geom_bond_publ_flag
Cl1 C6 1.722(3) . ?
N4 N5 1.350(4) . ?
N4 N3 1.342(4) . ?
N4 C9 1.361(4) . ?
N5 C6 1.298(5) . ?
N3 N2 1.305(5) . ?
N2 N1 1.354(5) . ?
N1 C9 1.334(4) . ?
C9 C8 1.411(5) . ?
C7 H7 0.9300 . ?
C7 C6 1.418(5) . ?
C7 C8 1.347(5) . ?
C8 H8 0.9300 . ?
loop_
_geom_torsion_atom_site_label_1
_geom_torsion_atom_site_label_2
_geom_torsion_atom_site_label_3
_geom_torsion_atom_site_label_4
_geom_torsion
_geom_torsion_site_symmetry_1
_geom_torsion_site_symmetry_2
_geom_torsion_site_symmetry_3
_geom_torsion_site_symmetry_4
_geom_torsion_publ_flag
N4 N5 C6 Cl1 -178.7(2) . . . . ?
N4 N5 C6 C7 1.7(6) . . . . ?
N4 N3 N2 N1 -0.1(5) . . . . ?
N4 C9 C8 C7 1.5(6) . . . . ?
N5 N4 N3 N2 -179.8(3) . . . . ?
N5 N4 C9 N1 179.8(3) . . . . ?
N5 N4 C9 C8 -1.1(6) . . . . ?
N3 N4 N5 C6 179.6(3) . . . . ?
N3 N4 C9 N1 -0.3(4) . . . . ?
N3 N4 C9 C8 178.8(3) . . . . ?
N3 N2 N1 C9 -0.1(5) . . . . ?
N2 N1 C9 N4 0.3(4) . . . . ?
N2 N1 C9 C8 -178.7(4) . . . . ?
N1 C9 C8 C7 -179.6(4) . . . . ?
C9 N4 N5 C6 -0.5(6) . . . . ?
C9 N4 N3 N2 0.2(4) . . . . ?
C6 C7 C8 C9 -0.5(6) . . . . ?
C8 C7 C6 Cl1 179.2(3) . . . . ?
C8 C7 C6 N5 -1.3(7) . . . . ?
