#------------------------------------------------------------------------------
#$Date: 2021-11-24 12:20:24 +0200 (Wed, 24 Nov 2021) $
#$Revision: 270857 $
#$URL: file:///home/coder/svn-repositories/cod/cif/1/56/53/1565397.cif $
#------------------------------------------------------------------------------
#
# This file is available in the Crystallography Open Database (COD),
# http://www.crystallography.net/
#
# All data on this site have been placed in the public domain by the
# contributors.
#
data_1565397
loop_
_publ_author_name
'Adonin, Sergey A.'
'Novikov, Alexander S.'
'Chernova, Katerina V.'
'Vinnik, Denis A.'
'Taskaev, Sergey V.'
'Korolkov, Ilya V.'
'Ilyina, Ekaterina V.'
'Pavlov, Alexander A.'
'Novikov, Valentin V.'
'Sokolov, Maxim N.'
'Fedin, Vladimir P.'
_publ_section_title
;
 Heteroleptic copper(II) complexes with 2-bromo-5-methylpyridine:
 Structures, features of non-covalent interactions and magnetic behavior
;
_journal_name_full               'Inorganica Chimica Acta'
_journal_page_first              119333
_journal_paper_doi               10.1016/j.ica.2019.119333
_journal_volume                  502
_journal_year                    2020
_chemical_formula_sum            'C12 H12 Br2 Cl2 Cu N2'
_chemical_formula_weight         478.50
_space_group_crystal_system      monoclinic
_space_group_IT_number           14
_space_group_name_Hall           '-P 2yn'
_space_group_name_H-M_alt        'P 1 21/n 1'
_atom_sites_solution_hydrogens   geom
_audit_creation_method           SHELXL-2014/7
_cell_angle_alpha                90
_cell_angle_beta                 106.671(7)
_cell_angle_gamma                90
_cell_formula_units_Z            2
_cell_length_a                   6.0165(4)
_cell_length_b                   12.7136(7)
_cell_length_c                   10.4535(7)
_cell_measurement_reflns_used    1394
_cell_measurement_temperature    130(2)
_cell_measurement_theta_max      28.2870
_cell_measurement_theta_min      3.1700
_cell_volume                     765.99(9)
_computing_cell_refinement       'CrysAlisPro 1.171.38.46 (Rigaku OD, 2015)'
_computing_data_collection       'CrysAlisPro 1.171.38.46 (Rigaku OD, 2015)'
_computing_data_reduction        'CrysAlisPro 1.171.38.46 (Rigaku OD, 2015)'
_computing_structure_refinement  'SHELXL-2014/7 (Sheldrick, 2014)'
_diffrn_ambient_temperature      130(2)
_diffrn_detector_area_resol_mean 10.6168
_diffrn_measured_fraction_theta_full 0.995
_diffrn_measured_fraction_theta_max 0.831
_diffrn_measurement_device_type  'New Xcalibur, AtlasS2'
_diffrn_measurement_method       '\w scans'
_diffrn_radiation_type           MoK\a
_diffrn_radiation_wavelength     0.71073
_diffrn_reflns_av_R_equivalents  0.0277
_diffrn_reflns_av_unetI/netI     0.0386
_diffrn_reflns_Laue_measured_fraction_full 0.995
_diffrn_reflns_Laue_measured_fraction_max 0.831
_diffrn_reflns_limit_h_max       7
_diffrn_reflns_limit_h_min       -8
_diffrn_reflns_limit_k_max       17
_diffrn_reflns_limit_k_min       -12
_diffrn_reflns_limit_l_max       9
_diffrn_reflns_limit_l_min       -13
_diffrn_reflns_number            3461
_diffrn_reflns_point_group_measured_fraction_full 0.995
_diffrn_reflns_point_group_measured_fraction_max 0.831
_diffrn_reflns_theta_full        25.500
_diffrn_reflns_theta_max         28.987
_diffrn_reflns_theta_min         2.589
_diffrn_source                   'fine-focus sealed X-ray tube'
_exptl_absorpt_coefficient_mu    6.977
_exptl_absorpt_correction_T_max  1.00000
_exptl_absorpt_correction_T_min  0.73838
_exptl_absorpt_correction_type   multi-scan
_exptl_absorpt_process_details
;
CrysAlisPro 1.171.39.46 (Rigaku Oxford Diffraction, 2018)
Empirical absorption correction using spherical harmonics,
 implemented in SCALE3 ABSPACK scaling algorithm.
;
_exptl_crystal_colour            brown
_exptl_crystal_density_diffrn    2.075
_exptl_crystal_description       block
_exptl_crystal_F_000             462
_exptl_crystal_size_max          0.220
_exptl_crystal_size_mid          0.100
_exptl_crystal_size_min          0.070
_refine_diff_density_max         0.739
_refine_diff_density_min         -0.611
_refine_diff_density_rms         0.100
_refine_ls_extinction_coef       .
_refine_ls_extinction_method     none
_refine_ls_goodness_of_fit_ref   1.042
_refine_ls_hydrogen_treatment    constr
_refine_ls_matrix_type           full
_refine_ls_number_parameters     89
_refine_ls_number_reflns         1695
_refine_ls_number_restraints     0
_refine_ls_restrained_S_all      1.042
_refine_ls_R_factor_all          0.0330
_refine_ls_R_factor_gt           0.0267
_refine_ls_shift/su_max          0.001
_refine_ls_shift/su_mean         0.000
_refine_ls_structure_factor_coef Fsqd
_refine_ls_weighting_details
'w=1/[\s^2^(Fo^2^)+(0.0231P)^2^] where P=(Fo^2^+2Fc^2^)/3'
_refine_ls_weighting_scheme      calc
_refine_ls_wR_factor_gt          0.0558
_refine_ls_wR_factor_ref         0.0585
_reflns_Friedel_coverage         0.000
_reflns_Friedel_fraction_full    .
_reflns_Friedel_fraction_max     .
_reflns_number_gt                1478
_reflns_number_total             1695
_reflns_threshold_expression     'I > 2\s(I)'
_cod_data_source_file            ICA-2020-502-119333.cif
_cod_data_source_block           SA2279_a
_cod_original_sg_symbol_H-M      'P 21/n'
_cod_database_code               1565397
_shelx_shelxl_version_number     2014/7
_shelx_space_group_comment
;
The symmetry employed for this shelxl refinement is uniquely defined
by the following loop, which should always be used as a source of
symmetry information in preference to the above space-group names.
They are only intended as comments.
;
_shelx_estimated_absorpt_t_min   0.309
_shelx_estimated_absorpt_t_max   0.641
_shelx_res_file
;

    SA2279_a.res created by SHELXL-2014/7


TITL SA2279_a.res in P2(1)/n
REM Old TITL SA2279 in P2(1)/n

REM SHELXT solution in P2(1)/n
REM R1 0.081,  Rweak 0.020,  Alpha 0.020,  Orientation as input
REM Formula found by SHELXT:  C12 N2 Cl2 Cu Br2

CELL  0.71073   6.0165  12.7136  10.4535   90.000  106.671   90.000
ZERR   2.000   0.0004   0.0007   0.0007    0.000    0.007    0.000
LATT  1
SYMM 1/2-X, 1/2+Y, 1/2-Z
SFAC C N CL CU BR H
UNIT 24 4 4 2 4 24
SIZE 0.10 0.22 0.07
TEMP -143
L.S. 10
BOND $H
LIST 6
FMAP 2
PLAN 10
ACTA 51

WGHT    0.023100
FVAR       0.51966
C1    1    0.619831    0.703921    0.623137    11.00000    0.01392    0.02358 =
         0.01527    0.00262    0.00505    0.00158
C2    1    0.603490    0.809603    0.648063    11.00000    0.02535    0.02092 =
         0.02045   -0.00492    0.00840   -0.00877
AFIX  43
H2    6    0.730950    0.847559    0.703594    11.00000   -1.20000
AFIX   0
C3    1    0.393112    0.858055    0.588612    11.00000    0.03484    0.01410 =
         0.02555   -0.00031    0.01637   -0.00226
AFIX  43
H3    6    0.374976    0.930938    0.602986    11.00000   -1.20000
AFIX   0
C4    1   -0.022478    0.851311    0.442420    11.00000    0.02601    0.02053 =
         0.03538    0.00488    0.00995    0.01166
AFIX 137
H4A   6   -0.009050    0.896433    0.368990    11.00000   -1.50000
H4B   6   -0.070695    0.893772    0.508047    11.00000   -1.50000
H4C   6   -0.138195    0.796383    0.407334    11.00000   -1.50000
AFIX   0
C5    1    0.208298    0.801241    0.508182    11.00000    0.01976    0.01714 =
         0.01826    0.00155    0.00968    0.00127
C6    1    0.243655    0.695805    0.490101    11.00000    0.01445    0.01835 =
         0.01727    0.00234    0.00653    0.00021
AFIX  43
H6    6    0.118468    0.655483    0.436417    11.00000   -1.20000
AFIX   0
N1    2    0.448424    0.647379    0.545363    11.00000    0.01391    0.01603 =
         0.01532    0.00067    0.00566   -0.00129
CL1   3    0.644625    0.558125    0.335282    11.00000    0.02235    0.01945 =
         0.02075    0.00222    0.00999    0.00131
CU1   4    0.500000    0.500000    0.500000    10.50000    0.01379    0.01271 =
         0.01611    0.00036    0.00422    0.00164
BR1   5    0.899321    0.629089    0.697769    11.00000    0.01461    0.03506 =
         0.02480    0.00448    0.00055    0.00006
HKLF 4

REM  SA2279_a.res in P2(1)/n
REM R1 =  0.0267 for    1478 Fo > 4sig(Fo)  and  0.0330 for all    1695 data
REM     89 parameters refined using      0 restraints

END

WGHT      0.0231      0.0000

REM Highest difference peak  0.739,  deepest hole -0.611,  1-sigma level  0.100
Q1    1   0.9080  0.6230  0.7835  11.00000  0.05    0.74
Q2    1   0.8646  0.6227  0.6040  11.00000  0.05    0.57
Q3    1   0.5650  0.4966  0.3979  11.00000  0.05    0.54
Q4    1   1.0617  0.6270  0.6130  11.00000  0.05    0.43
Q5    1   0.6059  0.5597  0.2537  11.00000  0.05    0.40
Q6    1   0.3789  0.6671  0.5129  11.00000  0.05    0.34
Q7    1   0.9654  0.5844  0.6760  11.00000  0.05    0.33
Q8    1   0.3072  0.5041  0.4295  11.00000  0.05    0.33
Q9    1   0.0874  0.8145  0.4839  11.00000  0.05    0.32
Q10   1   0.5457  0.5419  0.3303  11.00000  0.05    0.30
;
_shelx_res_checksum              96439
_shelx_hkl_file
;
   0   0  -1    0.20    0.64
   0   0   2   27.96    2.85
   0   0  -2   26.67    3.05
   0   0  -3    4.06    2.25
   0   0   3    2.36    1.64
   0   0  -4  576.93   19.07
   0   0  -5   -1.23    2.53
   0   0  -6 3075.10   61.51
   0   0  -7   -0.19    2.66
   0   0  -8  220.08   16.90
   0   0  -9    4.99    4.72
   0   0 -10  763.68   36.32
   0   0 -11   -2.81    5.41
   0   0 -12   21.63    7.63
   0   1  -1 2564.34   36.18
   0  -1   1 2608.13   36.17
   0   1  -2 1742.62   30.45
   0  -1   2 1763.89   30.69
   0  -1  -3  857.49   20.26
   0  -1   3  814.07   21.25
   0   1  -3  820.38   21.64
   0  -1  -4  852.54   22.84
   0   1  -4  857.74   24.91
   0  -1   4  843.38   24.16
   0   1  -5 4120.94   71.49
   0  -1  -5 4158.18   68.92
   0  -1   5 4082.58   69.80
   0  -1   6  484.47   20.81
   0   1  -6  468.97   21.49
   0  -1  -6  502.81   21.27
   0   1  -7   51.69    7.78
   0  -1  -7   52.00    7.51
   0   1  -8  191.60   15.84
   0  -1  -8  192.52   15.37
   0   1  -9   23.91    7.09
   0  -1  -9   15.37    5.72
   0   1 -10   10.23    5.23
   0  -1 -10   13.66    5.52
   0  -1 -11  313.85   24.07
   0   1 -11  290.20   23.89
   0   1 -12   67.65   12.98
   0  -1 -12   65.42   12.36
   0  -2   0   28.89    2.35
   0   2   0   31.49    2.41
   0  -2   1 1719.66   23.72
   0   2  -1 1756.59   24.09
   0   2  -1 1740.87   27.98
   0  -2  -1 1759.92   26.30
   0  -2   1 1725.57   28.05
   0  -2   2    0.48    1.45
   0  -2   3  659.83   19.99
   0   2  -3  633.65   19.80
   0   2  -4  120.69    9.10
   0  -2   4  118.30    9.10
   0  -2  -5  282.87   13.81
   0  -2   5  263.42   14.66
   0   2  -5  269.09   15.32
   0  -2   6  550.86   23.34
   0  -2  -6  561.75   22.04
   0   2  -6  532.41   23.59
   0   2  -7  350.06   20.40
   0  -2  -7  383.89   19.63
   0  -2   7  386.59   20.53
   0   2  -8   19.53    5.61
   0  -2  -8   19.98    5.49
   0  -2  -9  631.41   29.79
   0   2  -9  614.69   31.25
   0   2 -10    7.17    4.56
   0  -2 -10   23.85    6.98
   0   2 -11  549.48   33.48
   0  -2 -11  564.69   32.80
   0   2 -12  189.88   21.23
   0  -2 -12  206.69   20.77
   0   3   0    1.96    1.52
   0  -3   0    0.60    1.14
   0   3  -1  609.05   11.30
   0  -3  -1  597.85   13.99
   0   3  -1  580.25   15.01
   0  -3   1  613.12   15.50
   0   3   1  610.45   14.35
   0   3  -2   11.81    3.03
   0  -3   2    8.60    1.80
   0  -3   3 1445.26   33.54
   0  -3   3 1450.29   29.16
   0   3  -3 1451.58   32.70
   0  -3   4   98.52    8.83
   0  -3   5  151.55   11.96
   0   3  -5  123.59   11.09
   0   3  -6  765.46   29.25
   0  -3  -6  867.83   27.61
   0  -3   6  809.94   29.79
   0   3  -7 1368.04   43.30
   0  -3  -7 1451.95   39.86
   0  -3  -8  447.12   23.15
   0   3  -8  423.20   24.89
   0   3  -9   -1.04    3.91
   0  -3  -9    1.50    3.05
   0   3 -10    6.28    4.82
   0  -3 -10    8.33    4.99
   0   3 -11   53.72   11.52
   0  -3 -11   62.15   11.43
   0  -3 -12   98.40   14.68
   0  -4   0 2458.66   39.40
   0   4   0 2468.94   39.19
   0   4   1  773.10   18.22
   0  -4   1  750.61   19.31
   0   4  -1  750.11   13.70
   0  -4  -1  767.56   18.11
   0   4  -1  755.26   18.95
   0  -4   2 2574.46   37.99
   0  -4   2 2749.05   48.07
   0  -4  -2 2833.62   44.11
   0   4  -2 2754.28   46.64
   0  -4   3    7.36    3.36
   0   4  -3    5.43    2.45
   0  -4   3    6.01    1.97
   0  -4   4   64.96    7.58
   0  -4   4   62.87    6.24
   0   4  -4   65.57    7.52
   0   4  -5  112.58   10.68
   0  -4   5  126.85   10.01
   0  -4   5  126.60   11.54
   0  -4   6  155.72   13.46
   0  -4  -7  104.76   10.20
   0  -4  -8 1969.66   51.61
   0  -4  -9    5.28    3.14
   0  -4 -10   71.84   11.14
   0  -4 -11   27.75    7.91
   0  -4 -12  431.20   30.01
   0  -5   0   -0.23    1.44
   0   5   0    0.26    1.63
   0   5  -1  169.98    6.00
   0   5   1  164.18    8.80
   0  -5  -1  162.90    8.58
   0   5  -1  170.27    9.21
   0  -5   1  162.74    9.28
   0   5  -2 2300.21   43.88
   0  -5  -2 2370.62   41.36
   0  -5   2 2321.81   45.10
   0   5  -2 2351.01   35.74
   0  -5  -3 2648.82   46.37
   0   5  -3 2529.78   49.95
   0  -5   3 2637.81   53.19
   0  -5   3 2433.61   40.06
   0  -5   4 1761.02   35.57
   0   5  -4 1854.79   43.71
   0   5  -5  109.68   10.60
   0  -5   5  113.99   10.96
   0  -5   5  103.33    8.58
   0  -5   6  614.04   23.30
   0  -5   6  643.02   28.38
   0   5  -6  630.50   27.71
   0   5  -7  552.13   27.77
   0  -5   7  559.65   24.20
   0   5  -8    2.66    3.75
   0  -5  -8    4.14    3.19
   0  -5  -9  262.33   19.05
   0   5  -9  255.02   20.97
   0   5 -10   85.73   13.37
   0  -5 -10   75.99   11.09
   0  -5 -11    2.62    4.21
   0   5 -11   -1.90    4.87
   0  -5 -12   63.74   11.77
   0   6   0 1758.12   35.47
   0  -6   0 1751.11   35.85
   0  -6   1 3265.05   56.27
   0   6  -1 3362.38   55.72
   0   6   1 3400.91   54.90
   0   6  -1 3288.55   45.22
   0  -6  -1 3408.95   54.66
   0   6  -2 1117.76   21.35
   0  -6   2 1100.42   29.95
   0  -6  -2 1140.30   27.34
   0   6  -2 1037.31   28.00
   0  -6  -3  491.19   17.69
   0   6  -3  420.92   17.98
   0  -6   3  416.67   12.68
   0  -6   4  750.35   20.53
   0  -6  -4  860.66   25.68
   0   6  -4  766.58   27.47
   0  -6   4  846.82   30.45
   0  -6   5   73.71    9.57
   0  -6   5   66.05    6.35
   0   6  -5   70.20    8.89
   0  -6   6   56.98    6.85
   0   6  -6   52.60    8.32
   0  -6   7 1294.22   37.61
   0   6  -7 1302.00   44.02
   0   6  -8  121.43   14.25
   0  -6   8  114.40   11.56
   0  -6  -9  252.21   18.50
   0   6  -9  231.16   20.47
   0   6 -10  209.53   20.53
   0  -6 -10  215.84   18.42
   0   6 -11   57.84   11.98
   0  -6 -11   62.26   10.82
   0  -6 -12   -6.05    6.00
   0  -7   0   -0.91    1.82
   0   7   0    0.99    1.78
   0   7  -1  415.35   16.99
   0   7  -1  420.42   11.32
   0  -7   1  413.89   17.29
   0  -7  -1  415.54   16.35
   0   7   1  423.69   16.66
   0  -7  -2  283.75   13.63
   0   7  -2  298.60   10.10
   0   7  -2  286.09   14.95
   0  -7   2  287.23   15.39
   0  -7  -3  111.87    8.86
   0   7  -3  111.20    9.48
   0  -7   3   97.32    9.87
   0   7  -4  565.20   23.43
   0  -7   4  531.64   16.45
   0  -7   4  635.36   27.13
   0  -7  -4  628.45   22.55
   0   7  -5 1770.24   47.64
   0  -7   5 1647.02   35.95
   0  -7   6  267.70   14.22
   0   7  -6  303.81   19.68
   0   7  -7   54.67    9.42
   0  -7   7   46.26    6.36
   0  -7   8    2.14    2.97
   0   7  -8    9.09    5.94
   0   7  -9  349.13   25.35
   0  -7  -9  389.22   23.42
   0  -7 -10   93.09   12.52
   0   7 -10   61.02   11.53
   0  -7 -11   83.69   12.56
   0   7 -11   66.75   12.41
   0  -7 -12   57.97   12.00
   0   8   0  894.46   26.89
   0  -8   0  813.71   25.65
   0   8   1   10.10    3.39
   0  -8  -1    6.30    2.73
   0   8  -1    9.64    1.91
   0   8  -1    8.53    3.03
   0  -8   1    5.72    3.04
   0   8  -2   19.75    4.43
   0  -8  -2   19.76    3.89
   0  -8   2   20.49    4.73
   0   8  -2   19.38    2.83
   0  -8  -3    7.06    2.66
   0   8  -3   12.82    3.95
   0  -8   3    8.37    3.58
   0   8  -4  858.86   30.67
   0  -8  -4  979.66   30.26
   0  -8  -5  116.40   10.44
   0  -8   5  101.07    7.61
   0   8  -5   88.32   10.27
   0  -8   6   12.91    3.43
   0   8  -6   11.46    5.55
   0   8  -7   52.17    9.39
   0  -8   7   52.62    7.07
   0   8  -8  125.02   14.83
   0  -8   8   92.50    9.97
   0   8  -9   -3.56    4.95
   0  -8 -10  736.38   35.21
   0   8 -10  771.37   40.63
   0  -8 -11   18.34    7.13
   0  -9   0    2.08    2.07
   0   9   0    1.02    2.26
   0  -9   1  243.44   15.24
   0   9  -1  261.64    9.45
   0   9  -1  257.03   15.23
   0  -9  -1  265.30   15.13
   0   9   1  244.92   14.31
   0   9  -2  231.26   14.56
   0  -9   2  232.11   15.91
   0  -9  -2  227.32   13.91
   0   9  -2  245.42    9.51
   0  -9  -3  166.07   12.14
   0  -9   3  153.26   13.75
   0   9  -3  142.85   12.51
   0   9  -4  312.31   18.89
   0  -9  -4  375.33   18.99
   0   9  -5  309.99   19.50
   0  -9   6  475.72   18.32
   0   9  -6  491.91   26.13
   0  -9   7    2.76    2.39
   0   9  -7    6.13    4.32
   0   9  -8   89.03   12.96
   0   9  -9  321.77   25.63
   0  -9 -10    5.53    4.86
   0   9 -10    9.54    6.15
   0  -9 -11   64.30   11.17
   0  10   0    1.49    2.41
   0 -10   0    7.05    3.32
   0  10  -1 1110.88   22.85
   0  10  -1 1083.91   33.84
   0 -10   1 1081.43   35.27
   0  10   1 1090.53   33.57
   0 -10  -1 1125.14   34.12
   0  10  -2  610.13   25.84
   0 -10  -2  660.99   25.41
   0 -10   2  623.26   27.53
   0  10  -2  680.14   16.72
   0  10  -3  152.79   13.01
   0  10  -4  271.11   18.63
   0  10  -5   52.58    8.51
   0  10  -6  121.81   13.65
   0  10  -7  293.97   22.23
   0  10  -8  628.44   33.16
   0  10  -9   98.78   14.56
   0 -10 -10  137.31   15.98
   0 -10 -11   62.23   11.85
   0  11   0    0.99    3.18
   0  11   1   14.16    4.81
   0  11  -1   12.90    4.79
   0  11  -1   17.01    2.78
   0  11  -2  352.18   19.94
   0  11  -2  339.65   11.64
   0  11  -3 1383.70   42.75
   0  11  -4  347.39   21.88
   0  11  -5  130.50   14.13
   0  11  -6   11.11    5.46
   0  11  -7  197.36   18.80
   0  11  -8   17.70    6.84
   0  11  -9  114.64   15.87
   0  12   0  290.27   11.48
   0  12   0  301.16   18.80
   0  12  -1   -3.14    2.46
   0  12   1    0.31    3.33
   0  12  -1   -0.22    3.35
   0  12  -2  690.61   29.73
   0  12  -3    6.32    4.17
   0  12  -4   63.84   10.03
   0  12  -5  137.19   14.80
   0  12  -6    7.36    4.81
   0  12  -7   13.82    6.68
   0  12  -8  266.01   22.95
   0  13   0    1.61    1.67
   0  13   0   -3.71    3.92
   0  13   1   60.49    9.50
   0  13  -1   77.85   10.56
   0  13  -2   11.28    5.27
   0  13  -3  254.40   19.34
   0  13  -4   10.35    4.89
   0  13  -5   24.61    7.58
   0  13  -6  113.13   14.87
   0  13  -7  165.58   18.31
   0  14   0  639.74   30.38
   0  14  -1   29.21    7.11
   0  14   1   24.20    6.24
   0  14  -2   67.93   10.23
   0  14  -3   99.02   12.61
   0  14  -4   72.07   11.47
   0  14  -5    6.93    4.58
   0  14  -6   63.08   10.96
   0  15   0    0.58    4.45
   0  15  -1  232.22   19.33
   0  15  -2    1.84    4.74
   0  15  -3   41.84    9.39
   0  15  -4    8.92    6.17
   0  15  -5  324.65   25.24
   0  16   0  643.46   33.24
   0  16  -1   47.53   10.01
   0  16  -2   12.15    6.45
   0  16  -3    5.60    4.75
   0  16  -4   31.95    8.52
   0  17   0    5.21    4.85
   0  17  -1  131.27   15.73
   0  17  -2   63.28   11.89
   1   0 -13   89.59   14.52
   1   0 -12    1.12    5.22
   1   0 -11  422.57   27.60
   1   0 -10    0.62    3.56
   1   0  -9  146.48   14.23
   1   0  -8   -4.34    4.09
   1   0  -7 2548.46   56.23
  -1   0   6    1.91    1.98
   1   0  -6    3.43    3.12
   1   0  -5  241.99   12.63
  -1   0   5  235.02   11.77
  -1   0   4   -0.48    1.35
   1   0  -4    1.77    1.70
  -1   0   3  133.34    6.66
   1   0  -3  116.54    6.64
   1   0  -2   18.36    2.56
  -1   0   2    4.68    1.39
  -1   0   1 3136.76   39.38
   1   0  -1 3125.16   39.51
  -1   0   0    1.01    0.73
   1   0   0   -0.76    1.52
  -1   0   0    0.21    0.99
  -1   0  -1  169.00    8.41
   1   0   1  145.44    7.11
   1   0   2    4.16    3.11
  -1   0  -3 3292.60   54.24
  -1   0  -4    1.66    2.32
  -1   0  -5  385.63   18.31
  -1   0  -6    0.19    2.49
  -1   0  -7 1476.09   44.55
  -1   0  -8   -1.67    3.82
  -1   0  -9  181.70   17.52
  -1   0 -10    3.20    4.27
  -1   0 -11  250.77   22.65
   1  -1 -13   47.90   11.59
   1   1 -12  646.39   36.72
   1  -1 -12  601.53   34.58
   1  -1 -11   74.57   12.04
   1   1 -11   74.72   12.31
   1   1 -10   11.59    5.09
   1  -1 -10    8.71    3.97
   1   1  -9  533.30   27.60
   1  -1  -9  552.32   26.92
   1   1  -8   52.51    8.28
  -1  -1   8   60.31    8.02
   1  -1  -8   63.26    8.66
   1  -1  -7   24.06    5.46
  -1  -1   7   19.58    4.44
   1   1  -7   22.92    5.16
   1   1  -6 1278.02   35.60
   1  -1  -6 1308.25   34.11
  -1  -1   6 1294.48   34.51
   1  -1  -5    6.63    2.30
   1   1  -5    7.60    3.11
  -1  -1   5    4.33    2.19
   1  -1  -4  200.77    9.56
  -1  -1   4  200.69   10.67
   1   1  -3 9439.86  124.28
  -1  -1   3 9466.22  122.46
  -1   1   3 9928.16  117.19
   1  -1  -3 9999.00  118.42
   1   1  -2 3278.08   48.07
  -1   1   2 3356.45   41.07
   1  -1  -2 3370.33   41.78
  -1  -1   2 3187.92   47.81
  -1  -1   1  292.98    8.37
   1   1  -1  296.25    8.67
  -1  -1   0  353.78    9.46
   1   1   0  324.88    9.23
  -1   1   0  370.42    8.27
  -1   1   0  389.14   10.53
   1   1   0  366.69    9.54
  -1  -1   0  380.53    9.55
   1  -1   1  539.49   14.51
  -1   1  -1  512.11   13.25
   1   1   1  527.43   14.50
  -1   1  -1  555.98   14.69
   1  -1   2 2627.27   44.67
  -1   1  -2 2594.71   43.12
  -1   1  -3   81.28    7.06
   1  -1   3   88.37    7.86
   1  -1   4  275.94   15.36
  -1   1  -4  268.58   14.12
  -1  -1  -4  274.38   13.77
  -1   1  -5  393.71   18.88
  -1  -1  -5  366.47   17.68
  -1   1  -6    7.96    4.10
  -1  -1  -6   13.30    4.47
  -1   1  -7  582.82   27.41
  -1  -1  -7  586.19   26.41
  -1   1  -8 1528.94   49.34
  -1  -1  -8 1517.50   47.56
  -1   1  -9  180.18   17.34
  -1  -1  -9  175.15   16.88
  -1  -1 -10  134.06   16.12
  -1   1 -10  149.97   17.20
  -1  -1 -11   86.28   13.81
  -1   1 -11   87.07   14.19
   1  -2 -13   70.14   12.88
   1  -2 -12   32.30    9.12
   1  -2 -11  300.36   23.05
   1  -2 -10   14.18    4.87
   1  -2  -9   35.73    7.00
   1   2  -9   20.27    5.95
   1   2  -8  732.99   31.46
   1  -2  -8  820.10   30.39
   1   2  -7   78.53    9.72
  -1  -2   7   85.99    9.58
   1  -2  -7   99.26    9.31
  -1  -2   6 1612.55   41.28
   1  -2  -6 1694.72   38.66
   1  -2  -5 2328.65   42.80
  -1  -2   5 2177.61   47.00
   1   2  -4 2597.89   49.84
  -1  -2   4 2556.35   48.65
   1  -2  -4 2724.22   43.32
   1   2  -3  305.50   12.85
   1  -2  -3  330.58    9.68
   1   2  -2  166.55    7.95
  -1  -2   2  170.36    8.35
   1   2  -1   20.59    2.81
  -1  -2   1   24.34    2.96
  -1  -2   1   21.43    1.62
   1   2   0 2517.63   38.92
   1  -2   0 2572.78   36.26
   1   2   0 2595.34   35.71
  -1  -2   0 2593.50   38.95
  -1  -2   0 2657.12   36.39
  -1   2   0 2634.20   33.47
   1  -2   1 2500.54   40.03
  -1   2  -1 2733.82   41.23
   1  -2   1 2611.53   40.59
   1   2   1 2530.16   41.09
  -1   2  -1 2537.75   40.11
  -1  -2  -1 2563.24   40.37
  -1   2  -2 6469.44   88.56
   1  -2   2 6320.92   88.45
  -1   2  -2 6565.68   88.30
   1  -2   2 6347.39   87.53
   1  -2   3  394.85   15.88
   1  -2   3  382.27   15.66
  -1   2  -3  402.70   16.36
   1  -2   4 1708.02   39.45
   1  -2   4 1591.68   38.55
  -1   2  -4 1689.13   40.07
  -1   2  -5  185.06   13.46
   1  -2   5  187.45   13.47
   1  -2   5  188.78   13.02
  -1   2  -6  112.39   11.30
   1  -2   6  120.40   12.11
  -1  -2  -6  111.56   10.19
  -1   2  -7  381.80   22.17
  -1  -2  -7  402.15   21.71
  -1  -2  -8   37.69    7.48
  -1   2  -8   35.41    8.15
  -1   2  -9  102.23   13.40
  -1  -2  -9   89.38   12.12
  -1  -2 -10  435.33   27.99
  -1   2 -10  460.98   29.97
  -1  -2 -11   87.97   13.62
  -1   2 -11   75.23   13.15
   1  -3 -13   -5.54    6.36
   1   3 -12    5.36    6.25
   1  -3 -12   -3.10    4.82
   1  -3 -11  172.44   17.43
   1  -3 -10  792.51   34.80
   1  -3  -9  273.29   18.47
   1  -3  -8   12.47    4.11
   1  -3  -7  301.66   16.14
  -1  -3   7  285.07   17.85
   1   3  -6  293.10   17.67
   1  -3  -6  329.21   15.37
  -1  -3   6  330.82   18.41
   1   3  -5  160.58   11.71
  -1  -3   5  181.12   12.51
   1  -3  -5  182.77    9.95
   1   3  -4 1462.52   35.66
  -1  -3   4 1554.31   36.53
   1   3  -3 1714.10   36.44
  -1  -3   3 1755.10   37.20
   1   3  -2 2460.66   42.58
  -1  -3   2 2556.67   43.74
  -1   3   1 3897.18   48.52
   1   3  -1 3813.95   56.58
  -1  -3   1 3789.10   56.71
   1  -3  -1 4006.64   48.21
   1   3   0 3380.39   51.12
   1  -3   0 3424.33   45.49
  -1  -3   0 3320.87   50.62
   1   3   0 3417.68   45.12
  -1   3   0 3465.92   44.33
  -1  -3  -1  544.66   15.61
   1  -3   1  513.16   15.44
  -1   3  -1  581.55   15.79
  -1   3  -1  506.96   13.87
   1  -3   1  531.65   14.72
   1  -3   2   58.04    5.82
   1  -3   2   67.97    5.64
  -1   3  -2   60.91    5.96
  -1   3  -2   72.18    6.21
  -1   3  -3    7.42    2.86
   1  -3   3    7.08    2.43
   1  -3   3   11.60    3.42
   1  -3   4    0.04    2.09
  -1   3  -4    3.27    2.76
   1  -3   4   -1.62    2.35
   1  -3   5 2091.94   48.87
   1  -3   5 2048.90   49.01
  -1   3  -5 2092.88   50.02
   1  -3   6 1884.71   48.39
   1  -3   6 1933.78   49.99
  -1   3  -6 1873.44   50.36
  -1   3  -7  269.29   19.08
  -1  -3  -7  278.84   17.82
  -1   3  -8   33.32    7.79
  -1  -3  -8   39.56    8.01
  -1   3  -9   47.63   10.19
  -1  -3  -9   49.12    9.21
  -1  -3 -10  497.45   29.66
  -1   3 -10  430.58   29.67
  -1  -3 -11    8.68    5.86
  -1   3 -11    5.57    6.21
   1  -4 -13   -8.09    6.23
   1   4 -12   93.66   15.44
   1  -4 -12   85.75   12.83
   1  -4 -11   51.91   10.46
   1   4 -11   54.39   10.78
   1   4 -10  150.09   16.72
   1  -4 -10  145.08   14.48
   1   4  -9  882.11   38.47
   1  -4  -9  924.80   34.59
   1   4  -8   24.63    6.29
   1  -4  -8   24.12    5.52
   1   4  -7  265.08   18.18
   1  -4  -7  271.03   15.32
   1   4  -6  121.24   11.61
  -1  -4   6  143.14   12.50
   1  -4  -6  136.82    9.83
  -1  -4   5 3327.16   64.76
   1   4  -5 3186.24   63.39
   1   4  -4  164.46   11.31
  -1  -4   3   58.61    6.49
   1   4  -3   62.67    6.37
   1  -4  -2    7.09    1.68
   1   4  -2    8.30    3.15
  -1  -4   2    8.25    2.61
   1  -4  -1   60.61    3.84
  -1  -4   1   55.90    5.32
   1   4  -1   57.54    5.41
  -1   4   1   58.18    3.75
  -1  -4   0  405.26   14.29
   1   4   0  421.08   14.66
   1  -4   0  433.19   11.91
  -1   4   0  445.39   11.57
   1  -4   1 4011.52   62.40
  -1   4  -1 4219.84   59.56
  -1   4  -1 3945.68   58.13
  -1  -4  -1 4045.85   61.76
   1   4   1 4033.46   62.04
   1  -4   2  183.82    9.45
  -1  -4  -2  197.31   10.52
  -1   4  -2  185.19    9.79
  -1   4  -2  208.46   10.36
   1  -4   2  185.73   10.95
   1  -4   3 1287.79   30.38
   1  -4   3 1259.14   33.59
   1  -4   4   17.55    4.64
  -1   4  -4    6.43    3.46
   1  -4   4    8.28    2.71
  -1   4  -5 1944.36   49.32
   1  -4   5 1951.36   49.19
   1  -4   5 1960.31   45.95
  -1   4  -6  251.43   17.82
   1  -4   6  237.29   15.98
  -1   4  -7  111.62   12.71
  -1   4  -8  143.32   15.34
  -1  -4  -8  154.24   14.21
  -1  -4  -9    1.43    3.36
  -1   4  -9    0.88    4.31
  -1   4 -10   27.31    8.67
  -1  -4 -10   35.23    8.17
  -1   4 -11  536.38   35.23
  -1  -4 -11  546.50   33.38
   1  -5 -13  215.50   21.91
   1  -5 -12    4.93    5.20
   1  -5 -11  294.58   21.90
   1   5 -11  300.06   25.39
   1   5 -10  854.65   40.52
   1  -5 -10  877.26   36.09
   1   5  -9   17.47    6.16
   1  -5  -9   19.85    5.49
   1  -5  -8  137.15   11.93
   1   5  -8  136.09   14.42
   1   5  -7  199.39   16.24
   1  -5  -7  213.89   13.41
   1   5  -6   69.04    8.99
  -1  -5   6   75.21    9.39
  -1  -5   5  134.81   11.90
   1   5  -5  128.82   11.37
   1   5  -4 1607.84   40.06
  -1  -5   3 1415.54   35.23
   1   5  -3 1355.98   33.78
  -1  -5   3 1284.01   20.61
   1  -5  -3 1400.05   27.54
   1   5  -2   12.29    3.44
  -1  -5   2    8.62    2.94
   1  -5  -2   11.08    2.19
  -1   5   1   16.37    2.68
   1  -5  -1   19.89    2.79
   1   5  -1   15.04    3.48
  -1  -5   1   19.89    3.64
  -1   5   0 2051.58   34.04
  -1  -5   0 1933.24   38.78
   1   5   0 2019.84   40.28
   1  -5   0 2129.50   35.54
  -1   5  -1  316.06   11.87
  -1  -5  -1  316.77   13.72
   1   5   1  304.77   13.52
  -1   5  -1  336.73   12.45
  -1  -5  -2  154.46    9.69
   1  -5   2  137.69    8.15
  -1   5  -2  158.15    9.49
  -1   5  -2  154.13    9.05
   1  -5   2  142.31   10.27
  -1  -5  -3  606.00   20.93
  -1   5  -3  594.54   20.33
  -1   5  -3  534.49   20.00
   1  -5   3  527.40   18.15
   1  -5   3  597.66   23.47
   1  -5   4   83.92    9.46
   1  -5   4   69.86    7.10
  -1   5  -4   65.53    7.54
   1  -5   5  192.43   12.97
   1  -5   5  222.89   16.23
   1  -5   6  653.17   26.08
  -1  -5  -8   23.26    6.21
  -1  -5  -9  570.78   29.96
  -1  -5 -10  355.06   25.32
  -1  -5 -11  245.51   22.39
   1  -6 -13   45.24   10.85
   1  -6 -12    3.11    4.20
   1   6 -11   26.10    8.48
   1  -6 -11   25.43    7.16
   1   6 -10  279.17   23.15
   1  -6 -10  297.79   20.56
   1  -6  -9  180.10   14.87
   1   6  -9  187.76   18.25
   1  -6  -8  953.60   32.28
   1   6  -8  937.34   38.67
   1   6  -7  452.43   25.07
   1   6  -6  348.68   20.50
  -1  -6   6  328.97   15.40
   1   6  -5    2.09    2.43
  -1  -6   5    4.16    3.43
  -1  -6   5    3.42    2.36
   1   6  -4   74.17    8.47
  -1  -6   4   88.37    9.41
   1  -6  -4   91.79    7.12
  -1  -6   4   72.22    4.51
  -1  -6   3  602.85   23.07
   1   6  -3  558.67   21.55
   1  -6  -3  601.08   17.80
   1  -6  -2   -0.42    1.28
  -1  -6   2    2.24    2.27
   1   6  -2    0.01    1.89
   1   6  -1 1169.55   30.10
  -1   6   1 1203.05   25.23
  -1  -6   1 1117.99   29.44
   1  -6  -1 1216.34   25.54
   1   6   0  145.48    9.93
  -1  -6   0  143.91    9.48
   1  -6   0  156.11    8.75
  -1   6   0  152.28    8.19
  -1  -6  -1   64.46    6.78
  -1   6  -1   66.89    5.73
  -1   6  -1   61.19    5.60
   1  -6   1   61.85    6.16
   1   6   1   61.43    6.56
  -1   6  -2  884.60   24.68
  -1   6  -2  944.79   24.21
   1  -6   2  897.85   28.65
  -1  -6  -2  972.03   27.65
   1  -6   3  839.83   23.72
   1  -6   3  969.32   31.72
  -1   6  -3  895.23   27.70
  -1  -6  -3  967.56   28.59
  -1   6  -3  959.50   26.34
   1  -6   4  763.95   24.47
   1  -6   4  868.32   31.96
  -1  -6  -4  915.98   29.24
  -1   6  -4  779.86   27.77
   1  -6   5  255.96   14.80
  -1   6  -5  257.60   16.81
  -1   6  -6  446.73   24.01
   1  -6   6  422.85   20.67
  -1   6  -7   98.74   12.50
  -1   6  -8   46.37    9.04
  -1   6  -9  117.19   14.86
  -1  -6  -9  123.71   13.94
  -1  -6 -10  154.21   16.94
  -1   6 -10  144.33   17.29
  -1  -6 -11   52.46   10.97
   1  -7 -12   74.82   12.06
   1   7 -11  140.11   17.85
   1  -7 -11  147.74   15.84
   1   7 -10  245.15   22.31
   1  -7 -10  242.08   18.72
   1   7  -9    7.61    5.95
   1  -7  -9    3.34    3.05
   1   7  -8  407.04   25.88
  -1  -7   8  377.42   18.98
   1   7  -7   -0.69    3.26
  -1  -7   7   11.61    4.19
   1   7  -6  165.01   14.64
  -1  -7   6  162.84    9.73
   1  -7  -5  238.00   13.22
   1   7  -5  190.72   14.88
  -1  -7   5  191.51    8.57
   1  -7  -4   28.83    4.42
  -1  -7   4   26.12    2.34
  -1  -7   4   32.00    6.60
   1   7  -4   28.47    5.72
  -1  -7   3    3.23    2.69
   1  -7  -3    7.93    2.49
   1   7  -3    7.75    3.42
  -1  -7   2 4802.94   81.32
   1   7  -2 4692.76   79.39
   1  -7  -2 4919.15   71.15
   1  -7  -1  458.04   15.48
  -1   7   1  488.12   16.09
  -1  -7   1  432.48   18.31
   1   7  -1  442.29   18.62
  -1   7   0  166.09    9.33
   1   7   0  170.71   11.40
  -1  -7   0  164.09   11.27
   1  -7   0  164.53    9.83
  -1  -7  -1  139.88   10.24
  -1   7  -1  139.93    8.47
  -1   7  -1  138.82    9.17
   1   7   1  128.50   10.20
   1  -7   1  128.43    9.35
   1  -7   2  768.94   27.57
  -1   7  -2  716.79   23.02
  -1  -7  -2  747.77   24.93
  -1   7  -2  758.91   21.62
   1  -7   3   98.20   10.16
  -1   7  -3   93.27    8.89
  -1   7  -3   95.83    8.53
  -1  -7  -3  100.76    9.20
  -1   7  -4 1743.41   44.54
  -1  -7  -4 1919.99   45.56
   1  -7   4 1807.46   49.20
  -1   7  -5  127.47   12.16
   1  -7   5  113.09    9.74
   1  -7   6   77.97    8.87
  -1   7  -6   79.40   10.37
  -1   7  -7  151.81   15.03
  -1   7  -8  470.44   28.15
  -1   7  -9  187.80   19.00
  -1   7 -10   10.73    6.21
  -1  -7 -10   12.70    5.36
   1  -8 -12    9.52    4.83
   1  -8 -11   16.48    5.39
   1  -8 -10    8.75    4.97
   1   8 -10    9.27    6.80
   1   8  -9    2.21    4.71
   1  -8  -9   12.70    5.45
   1   8  -8   70.72   11.37
  -1  -8   8   55.81    7.03
   1   8  -7 1192.06   43.07
  -1  -8   7 1145.85   29.26
   1  -8  -6   14.47    4.21
  -1  -8   6   14.52    2.90
   1   8  -6    6.18    4.01
   1   8  -5  356.34   20.78
   1  -8  -5  400.40   17.81
  -1  -8   5  345.93   10.73
   1   8  -4   24.67    5.87
   1  -8  -4   29.43    4.60
   1   8  -3 1510.15   41.75
   1  -8  -3 1597.04   35.38
  -1  -8   3 1596.71   44.24
  -1  -8   2    2.66    1.99
   1   8  -2    7.57    3.46
   1  -8  -2    7.02    2.37
  -1   8   1  933.45   25.06
   1   8  -1  857.95   28.63
  -1  -8   1  891.26   28.63
   1  -8  -1  874.92   24.51
   1  -8   0   22.39    4.18
   1   8   0   20.87    4.49
  -1  -8   0   20.24    4.21
  -1   8   0   18.83    3.50
  -1   8  -1  542.43   17.75
  -1  -8  -1  521.15   21.37
   1  -8   1  525.03   20.71
  -1   8  -1  503.58   18.87
   1   8   1  508.05   21.60
  -1  -8  -2  184.48   12.65
  -1   8  -2  179.98   11.95
   1  -8   2  200.12   14.50
  -1   8  -2  185.27   10.40
   1  -8   3 4353.70   83.80
  -1   8  -3 4236.75   69.91
  -1  -8  -3 4328.52   77.86
  -1   8  -4   27.27    5.49
  -1   8  -5    1.46    2.96
   1  -8   5    2.12    2.36
  -1   8  -6   -3.29    4.57
   1  -8   6    3.16    4.11
  -1   8  -7    8.29    4.55
  -1   8  -8    3.62    4.49
  -1   8  -9  523.53   31.72
  -1   8 -10    4.07    5.24
  -1  -8 -10   16.16    6.67
   1  -9 -11  259.71   21.34
   1   9 -10   -1.51    5.80
   1  -9 -10    5.19    4.40
   1   9  -9   10.68    5.75
   1   9  -8  789.66   37.15
  -1  -9   7    3.25    2.24
   1   9  -7    6.54    4.28
  -1  -9   6   38.14    3.97
   1   9  -6   49.94    8.73
   1   9  -5  134.72   13.29
   1  -9  -5  158.02   11.59
   1  -9  -4   15.91    3.88
   1   9  -4   10.46    4.56
   1  -9  -3  336.11   15.57
   1   9  -3  338.70   19.43
  -1  -9   2 1983.13   50.33
   1   9  -2 1973.05   49.19
   1  -9  -2 2130.48   44.18
   1   9  -1  662.54   26.15
  -1  -9   1  625.60   25.26
   1  -9  -1  658.27   22.28
  -1   9   1  667.98   22.14
   1  -9   0   42.61    6.14
  -1   9   0   43.03    5.66
   1   9   0   39.82    6.24
  -1  -9   0   41.51    6.47
   1  -9   1  196.15   13.27
   1   9   1  202.40   14.31
  -1   9  -1  222.43   11.45
  -1  -9  -1  202.05   13.75
  -1   9  -1  188.85   12.12
  -1   9  -2  118.03   10.17
  -1   9  -2  107.52    8.15
  -1   9  -3  200.79   13.70
  -1   9  -3  225.56   12.95
  -1   9  -4  881.58   32.03
  -1   9  -5  789.19   31.67
   1  -9   6    8.71    2.88
  -1   9  -6   11.51    4.90
  -1   9  -7  118.36   14.16
  -1   9  -8  256.63   21.68
  -1   9  -9  227.79   21.70
  -1  -9 -10  121.72   15.91
   1 -10 -10   81.80   11.17
   1  10  -9  364.98   27.21
   1  10  -8  270.44   22.25
   1  10  -7   98.23   13.28
   1  10  -6  276.14   20.57
   1 -10  -5   23.98    4.93
   1  10  -5   24.58    6.68
   1  10  -4   84.49   10.82
   1 -10  -4   84.18    8.64
   1 -10  -3  418.30   18.64
   1  10  -3  391.70   21.59
   1  10  -2   -1.57    3.59
   1 -10  -2    2.76    2.03
  -1  10   1  390.40   17.84
   1 -10  -1  360.59   17.51
   1  10  -1  382.76   20.77
  -1  10   0  185.05   10.59
   1 -10   0  191.80   13.25
  -1  10   0  179.39   12.30
   1  10   0  180.64   13.66
   1 -10   1   17.96    4.89
  -1  10  -1   16.42    3.46
  -1  10  -1   14.39    3.90
   1  10   1   17.95    5.24
  -1  10  -2  302.37   16.81
  -1  10  -2  299.89   14.15
  -1  10  -3   23.56    5.32
  -1  10  -3   18.92    5.00
  -1  10  -4  341.11   19.95
  -1  10  -5  374.80   22.31
  -1  10  -6  187.15   16.58
  -1  10  -7    6.60    5.73
  -1  10  -8   12.52    6.23
  -1  10  -9   95.08   14.29
   1  11  -9   23.13    7.87
   1  11  -8  159.55   17.56
   1  11  -7    7.80    4.68
   1  11  -6    1.03    3.88
   1  11  -5   35.31    8.11
   1  11  -4  578.40   28.75
   1 -11  -4  576.84   24.04
   1  11  -3   34.00    6.95
   1 -11  -3   42.00    6.41
   1  11  -2    9.42    4.22
   1 -11  -2    4.95    2.10
  -1  11   1    1.08    2.42
   1  11  -1   -0.01    3.01
   1 -11  -1    2.86    2.88
  -1  11   0  553.01   23.19
   1  11   0  490.34   24.20
   1 -11   0  507.63   23.25
  -1  11   0  524.12   18.97
  -1  11  -1   42.62    5.54
   1 -11   1   37.67    7.08
   1  11   1   43.59    7.76
  -1  11  -1   41.65    6.67
  -1  11  -2   17.36    3.89
  -1  11  -2   22.21    5.32
  -1  11  -3    7.13    3.41
  -1  11  -3   15.82    5.17
  -1  11  -4  117.27   12.29
  -1  11  -5  105.54   12.16
  -1  11  -6  234.65   18.93
  -1  11  -7  126.44   15.23
  -1  11  -8   34.83    9.10
   1  12  -8   29.55    9.12
   1  12  -7    6.36    5.64
   1  12  -6  106.69   14.48
   1  12  -5  613.28   31.44
   1  12  -4  120.04   13.56
   1  12  -3   70.27   10.18
   1  12  -2    5.99    4.35
  -1  12   1   29.09    5.60
   1  12  -1   34.61    7.62
   1  12   0  189.92   15.58
  -1  12   0  188.55   13.68
  -1  12   0  191.73   11.64
  -1  12  -1  626.22   26.33
   1  12   1  611.55   28.89
  -1  12  -1  636.38   21.82
  -1  12  -2  247.51   13.87
  -1  12  -2  254.79   17.07
  -1  12  -3    8.96    4.21
  -1  12  -4    3.19    3.13
  -1  12  -5  537.24   28.82
  -1  12  -6   11.71    5.41
  -1  12  -7   11.12    6.53
  -1  12  -8    7.42    5.06
   1  13  -7   69.98   12.46
   1  13  -6   54.67   10.38
   1  13  -5    4.31    4.09
   1  13  -4  214.44   18.88
   1  13  -3  764.66   34.83
   1  13  -2   19.59    4.64
  -1  13   1  404.85   21.72
   1  13  -1  402.07   24.22
   1  13   0  420.63   24.94
  -1  13   0  436.86   18.11
  -1  13   0  433.40   22.36
  -1  13  -1  111.72   11.85
   1  13   1  120.70   12.99
  -1  13  -1  113.50    9.12
  -1  13  -2  116.69   11.99
  -1  13  -3   36.55    7.54
  -1  13  -4   50.85    9.26
  -1  13  -5  227.72   19.16
  -1  13  -6  227.54   20.38
  -1  13  -7  113.70   15.27
   1  14  -6  231.14   21.36
   1  14  -5   26.37    7.43
   1  14  -4  265.02   22.26
   1  14  -3   45.79    9.51
   1  14  -2    3.52    4.59
  -1  14   1  136.22   13.26
   1  14  -1  120.77   13.87
  -1  14   0  273.99   18.65
   1  14   0  242.48   19.51
  -1  14  -1  142.92   14.01
  -1  14  -2  372.22   22.59
  -1  14  -3  219.68   18.15
  -1  14  -4  149.22   15.66
  -1  14  -5    4.12    3.86
  -1  14  -6   -3.61    5.79
   1  15  -5   18.66    6.92
   1  15  -4   16.74    6.78
   1  15  -3   37.14    8.36
   1  15  -2  269.95   21.81
   1  15  -1  143.23   15.81
   1  15   0    9.61    5.36
  -1  15   0    9.76    4.70
  -1  15  -1   27.24    7.72
  -1  15  -2  166.33   16.14
  -1  15  -3  109.66   13.28
  -1  15  -4   20.00    6.79
  -1  15  -5   -0.29    3.94
  -1  15  -6    2.09    4.89
   1  16  -3   35.92    9.49
   1  16  -2    0.86    4.81
   1  16  -1   86.40   13.42
   1  16   0   -2.01    4.29
  -1  16   0    5.03    5.02
  -1  16  -1   30.58    8.02
  -1  16  -2   -4.23    4.74
  -1  16  -3   89.17   12.85
  -1  16  -4   14.00    6.69
  -2   0   8   21.89    4.33
  -2   0   7    0.37    1.91
  -2   0   6 1311.22   31.58
   2   0  -5    0.30    2.02
  -2   0   5   -1.41    1.84
   2   0  -4 4838.32   71.33
  -2   0   4 4779.43   67.62
   2   0  -3    1.22    1.50
   2   0  -2 1295.65   23.04
  -2   0   2 1352.92   23.67
   2   0  -1    0.42    1.04
  -2   0   1    1.36    0.96
   2   0   0 1712.28   32.98
  -2   0   0 1833.24   34.13
  -2   0   0 1701.75   28.64
   2   0   1    1.23    1.90
  -2   0  -1    1.51    2.13
  -2   0  -2 3224.98   57.67
   2   0   2 3149.58   56.98
  -2   0  -3   -0.08    2.10
   2   0   3    2.34    2.41
   2   0   4  891.22   30.80
  -2   0  -4  868.56   27.79
  -2   0  -5    2.00    2.65
   2   0   5    6.66    3.74
  -2   0  -6 1972.13   51.59
  -2   0  -7   -0.64    3.68
  -2   0  -8   60.44    9.90
  -2   0  -9    4.23    4.92
  -2   0 -10    3.80    4.58
   2   1 -13   10.01    7.14
   2  -1 -12   55.49   10.64
   2  -1 -11   60.20   10.26
   2  -1 -10  348.82   22.14
   2  -1  -9  887.70   33.61
   2  -1  -8  627.44   25.66
  -2  -1   8  631.06   25.76
   2  -1  -7  540.85   21.76
  -2  -1   7  580.88   22.74
  -2   1   6    8.96    2.58
   2   1  -6   19.62    4.90
  -2  -1   6   10.58    3.18
   2  -1  -6    9.54    2.76
  -2  -1   5 2082.36   41.82
  -2   1   5 2103.47   36.73
   2   1  -5 1994.37   43.35
  -2  -1   4   60.22    5.64
   2   1  -4   77.14    6.86
  -2   1   4   75.35    4.79
  -2   1   3 1772.68   26.14
  -2  -1   3 1752.07   33.65
   2   1  -3 1718.33   32.96
   2  -1  -3 1789.14   29.80
   2  -1  -2   87.73    3.99
  -2  -1   2   82.18    5.35
  -2   1   2   85.18    4.06
   2   1  -2   78.21    5.36
  -2  -1   1 1065.69   22.82
   2   1  -1 1016.28   21.36
  -2  -1   1 1005.74   20.70
  -2   1   1 1063.79   16.61
  -2   1   0  717.15   19.85
   2   1   0  677.15   18.30
  -2  -1   0  634.63   16.54
  -2  -1   0  691.14   18.80
  -2  -1  -1 5941.17   84.63
   2  -1   1 5776.18   84.39
  -2   1  -1 5687.32   79.54
  -2   1  -1 5987.78   84.94
   2   1   1 5830.61   84.15
  -2   1  -2  914.30   24.14
  -2   1  -2  992.45   27.57
   2  -1   2  985.49   27.41
   2   1   2  931.83   26.70
  -2   1  -3    3.73    2.42
   2  -1   3   -1.88    3.30
   2   1   3   -3.19    2.73
   2   1   4  543.35   23.87
  -2   1  -4  576.50   22.72
   2  -1   4  573.02   24.13
  -2   1  -5  139.71   12.15
   2  -1   5  126.59   12.29
   2   1   5  141.54   13.14
  -2  -1  -5  143.43   11.87
  -2  -1  -6   75.95    9.39
  -2   1  -6   82.62   10.16
  -2   1  -7 1054.93   39.29
  -2  -1  -7 1076.16   39.14
  -2  -1  -8  450.93   26.50
  -2   1  -8  424.79   26.29
  -2   1  -9    2.88    5.69
  -2  -1  -9    1.70    3.70
  -2   1 -10  253.45   23.15
  -2  -1 -10  239.15   21.80
   2  -2 -13  260.67   23.10
   2  -2 -12  139.05   16.35
   2   2 -12  148.03   18.74
   2   2 -11   72.20   12.25
   2  -2 -11   46.39    8.84
   2   2 -10  460.63   27.77
   2  -2 -10  455.41   25.00
   2   2  -9   26.44    6.97
   2  -2  -9   22.54    5.74
   2   2  -8   80.20   10.69
  -2  -2   8   81.73    9.59
   2  -2  -8   79.79    9.09
  -2  -2   7  104.87   10.12
   2  -2  -7  100.73    9.10
   2   2  -7   87.09   10.06
   2   2  -6  918.20   30.72
   2  -2  -6  997.04   26.49
  -2  -2   6  975.09   29.60
  -2  -2   5 2808.70   53.10
   2  -2  -5 2803.89   45.91
   2   2  -5 2783.20   55.02
   2  -2  -4 2112.92   32.95
   2   2  -4 2082.71   42.24
   2   2  -3  452.75   15.76
  -2  -2   3  451.39   16.00
  -2  -2   2   88.67    6.28
   2   2  -2   82.33    6.22
  -2   2   1  920.95   15.12
   2   2  -1  834.10   20.71
  -2  -2   1  842.55   20.41
  -2  -2   1  865.99   19.65
   2   2   0  606.86   17.01
  -2   2   0  643.45   15.24
  -2   2   0  658.79   19.58
   2   2   0  557.31   16.88
  -2  -2   0  643.07   17.69
  -2  -2   0  625.45   17.45
   2  -2   1  293.30   13.33
  -2  -2  -1  305.34   12.58
  -2   2  -1  296.84   13.41
  -2   2  -1  302.54   11.93
  -2  -2  -1  326.11   14.17
   2   2   1  282.56   12.75
  -2   2  -2 2943.03   53.76
  -2   2  -2 2738.34   49.58
   2  -2   2 2788.05   52.27
   2   2   2 2697.84   52.40
   2   2   3  475.27   20.76
   2  -2   3  523.55   21.07
  -2   2  -3  512.63   20.13
  -2   2  -4  254.19   15.14
   2   2   4  224.94   15.46
   2  -2   4  235.31   14.84
   2   2   5 1012.98   36.01
  -2   2  -5 1054.44   34.78
   2  -2   5 1076.98   36.07
  -2  -2  -6   83.83    9.76
  -2   2  -6  104.59   11.69
  -2   2  -7 1292.47   44.88
  -2  -2  -7 1232.41   41.76
  -2   2  -8  651.71   33.25
  -2  -2  -8  669.42   32.57
  -2   2  -9  136.73   15.93
  -2  -2  -9  140.23   15.92
  -2   2 -10   97.54   14.62
  -2  -2 -10   97.96   14.43
   2  -3 -13    8.23    6.54
   2  -3 -12  139.13   15.92
   2   3 -12  142.86   17.93
   2   3 -11  532.17   32.26
   2  -3 -11  536.94   28.54
   2  -3 -10  281.72   19.34
   2   3 -10  281.46   22.25
   2   3  -9   10.98    4.88
   2  -3  -9    3.09    3.42
   2  -3  -8   77.93    8.67
   2   3  -8   71.39   10.07
   2  -3  -7 1687.53   39.48
  -2  -3   7 1751.33   46.03
   2   3  -6    5.92    3.28
  -2  -3   6   20.30    4.83
   2  -3  -6   15.28    3.56
  -2  -3   5  226.69   13.67
   2  -3  -5  252.55   10.37
   2   3  -5  199.66   13.27
  -2  -3   4    1.38    1.96
   2  -3  -4    1.41    1.00
   2   3  -4    0.17    2.21
   2   3  -3  149.94    9.66
  -2  -3   3  145.46    9.64
  -2  -3   2    2.61    1.12
   2   3  -2    2.73    2.23
  -2  -3   2    4.14    1.96
  -2  -3   1 2323.62   41.84
   2  -3  -1 2360.79   32.55
  -2  -3   1 2410.20   37.67
   2   3  -1 2348.38   42.67
  -2   3   0  848.02   18.90
   2   3   0  799.38   21.87
  -2  -3   0  788.21   21.56
   2   3   0  846.69   20.15
   2  -3   0  807.74   18.37
  -2   3   0  892.02   23.77
  -2  -3   0  821.98   20.30
   2  -3   1   76.12    6.83
  -2   3  -1   77.86    6.22
   2  -3   1   67.87    5.83
  -2  -3  -1   68.32    6.29
  -2   3  -1   83.47    7.45
   2   3   1   77.07    6.22
   2   3   2  387.02   17.18
   2  -3   2  386.34   16.58
   2  -3   2  368.22   15.40
  -2  -3  -2  389.98   16.30
  -2   3  -2  388.90   15.95
  -2   3  -2  418.89   17.68
  -2   3  -3 2075.11   45.85
  -2   3  -3 2262.06   48.17
   2  -3   3 2181.66   46.38
   2  -3   3 2093.81   46.14
  -2   3  -4  402.91   19.75
   2  -3   4  375.53   18.99
   2   3   5    9.72    6.46
   2  -3   5   -5.35    4.13
  -2   3  -5    5.23    3.33
  -2   3  -6   52.99    8.59
  -2  -3  -7    2.49    3.44
  -2   3  -7   -5.05    4.91
  -2  -3  -8   74.02   10.60
  -2   3  -8   64.47   10.90
  -2   3  -9  540.07   32.47
  -2  -3  -9  594.05   32.52
  -2   3 -10  315.30   26.00
  -2  -3 -10  323.38   25.45
   2  -4 -13   33.22    8.81
   2   4 -12  582.06   35.91
   2  -4 -12  550.32   31.30
   2   4 -11   59.71   11.30
   2  -4 -11   66.77   10.03
   2  -4 -10   25.76    6.33
   2   4 -10   25.69    7.97
   2   4  -9  135.25   14.62
   2  -4  -9  144.73   12.70
   2  -4  -8   80.78    8.63
   2   4  -8   66.05    9.85
  -2  -4   7  151.43   13.37
   2  -4  -7  150.83   10.55
   2   4  -7  111.08   12.09
  -2  -4   6 2077.14   50.44
   2  -4  -6 2163.82   40.60
   2   4  -5  942.01   30.64
   2  -4  -5 1115.38   23.51
   2   4  -4  290.21   15.40
   2  -4  -4  329.27    9.48
  -2  -4   4  323.66   16.61
  -2  -4   3  281.80   14.64
   2   4  -3  288.34   14.63
   2  -4  -2 3185.41   41.04
  -2  -4   2 3138.86   43.56
   2   4  -2 3225.35   55.67
  -2  -4   2 3150.27   55.04
  -2  -4   1  146.00    6.94
  -2  -4   1  131.47    9.00
   2   4  -1  145.76    9.49
   2  -4  -1  143.42    6.45
   2   4   0   65.87    6.63
  -2   4   0   75.73    4.18
  -2   4   0   67.50    6.37
  -2  -4   0   66.88    6.60
   2   4   0   70.48    5.41
   2  -4   0   62.94    5.31
   2  -4   1  170.27    9.81
  -2   4  -1  194.47   10.30
  -2  -4  -1  180.27   10.92
  -2   4  -1  189.15   11.08
   2   4   1  174.69    9.95
   2  -4   2  158.16   10.64
  -2  -4  -2  171.42   11.02
   2  -4   2  158.02   10.48
  -2   4  -2  159.93   10.65
  -2   4  -2  180.84   11.70
   2   4   2  150.57   10.64
   2   4   3  356.93   18.34
  -2   4  -3  426.13   19.56
   2  -4   3  408.45   18.42
  -2   4  -3  402.19   18.51
   2  -4   3  398.89   18.40
  -2  -4  -3  436.40   18.97
  -2   4  -4 1542.14   41.70
   2  -4   4 1560.79   41.05
   2  -4   4 1560.97   41.54
   2  -4   5   32.74    6.25
   2  -4   5   13.99    4.11
  -2   4  -5   28.64    6.22
  -2   4  -6  275.54   19.29
  -2   4  -7    9.30    4.95
  -2   4  -8  946.08   41.16
  -2  -4  -8 1011.33   40.11
  -2  -4  -9  105.90   13.57
  -2   4  -9   94.48   14.49
  -2   4 -10   34.22    9.46
  -2  -4 -10   33.24    8.32
   2   5 -12    7.43    4.62
   2  -5 -12    6.43    3.96
   2  -5 -11  315.08   21.72
   2   5 -11  299.26   24.99
   2  -5 -10  163.91   14.63
   2   5 -10  150.08   16.92
   2   5  -9    6.87    5.54
   2  -5  -9    3.39    3.25
   2  -5  -8  970.43   30.60
   2   5  -8  849.43   36.02
   2  -5  -7  994.69   28.08
   2   5  -7  901.94   35.37
  -2  -5   6  752.41   29.75
   2   5  -6  670.50   28.17
   2  -5  -6  790.08   21.93
   2   5  -5   22.50    5.36
  -2  -5   4   29.59    5.55
   2   5  -4   21.10    4.67
  -2  -5   3  134.38    5.01
   2  -5  -3  151.37    6.29
  -2  -5   3  145.83   10.98
   2   5  -3  140.78   10.91
  -2  -5   2  600.32   12.82
   2  -5  -2  691.18   12.94
  -2  -5   2  613.52   21.70
   2   5  -2  649.63   22.40
  -2   5   1 2181.63   30.09
   2   5  -1 2116.10   44.19
  -2  -5   1 2147.96   44.56
   2  -5  -1 2054.81   35.98
  -2   5   0 3941.95   63.43
   2   5   0 3664.02   64.19
  -2   5   0 3888.72   51.57
   2  -5   0 3567.99   58.75
   2   5   0 3770.26   55.24
  -2  -5   0 3773.89   64.17
  -2  -5  -1   82.75    7.72
   2  -5   1   84.20    7.43
  -2   5  -1   86.96    7.62
  -2   5  -1   82.74    6.03
   2   5   1   73.64    6.67
  -2  -5  -2  982.84   28.95
   2   5   2  839.05   26.14
   2  -5   2  885.87   27.74
  -2   5  -2  903.17   24.66
  -2   5  -2  958.25   27.94
   2  -5   3 1185.73   34.97
  -2   5  -3 1165.90   34.49
  -2   5  -3 1251.23   34.77
  -2  -5  -3 1278.73   35.01
   2  -5   3 1203.70   33.64
   2  -5   4   27.27    5.76
   2  -5   4   19.40    4.67
  -2  -5  -4   29.02    5.50
  -2   5  -4   14.06    4.15
  -2   5  -5  177.94   14.83
   2  -5   5  168.80   13.76
  -2   5  -6   71.35   10.40
  -2   5  -7   16.34    5.81
  -2   5  -8  258.62   21.53
  -2  -5  -8  290.12   21.49
  -2   5  -9  406.30   28.79
  -2  -5  -9  401.12   26.44
  -2  -5 -10   66.13   11.79
  -2   5 -10   65.30   12.73
   2  -6 -12   10.08    4.92
   2   6 -11  100.58   15.34
   2  -6 -11  116.70   13.42
   2   6 -10    2.45    4.97
   2  -6 -10    5.28    3.27
   2  -6  -9  140.19   12.25
   2   6  -9  120.84   14.85
   2  -6  -8  342.05   17.58
   2   6  -8  281.10   21.00
   2   6  -7   73.97   10.43
   2  -6  -7   81.95    7.71
   2   6  -6    9.22    4.01
   2   6  -5 1467.35   42.30
  -2  -6   5 1582.96   45.17
  -2  -6   4   50.09    7.56
   2  -6  -4   46.58    4.40
   2   6  -4   38.00    6.70
   2  -6  -3 2485.94   37.89
  -2  -6   3 2467.86   53.02
   2   6  -2  597.36   22.58
   2  -6  -2  676.63   15.01
  -2  -6   2  592.82   22.52
  -2   6   1  870.96   17.52
   2   6  -1  833.35   27.18
  -2  -6   1  829.67   26.83
   2  -6  -1  887.80   19.25
  -2   6   0  834.64   24.68
   2   6   0  776.45   25.83
   2  -6   0  799.09   23.38
  -2  -6   0  787.73   25.35
  -2   6   0  847.88   18.85
   2   6   0  790.68   18.99
   2   6   1   46.34    5.33
  -2   6  -1   51.09    6.25
  -2   6  -1   50.93    4.78
  -2  -6  -1   58.55    6.96
   2  -6   1   66.70    7.16
  -2   6  -2  131.34    9.02
   2   6   2  131.68   10.12
   2  -6   2  129.62   10.69
  -2   6  -2  148.08   10.72
  -2  -6  -2  141.65   11.07
  -2   6  -3 1436.76   38.53
   2  -6   3 1232.86   34.52
  -2  -6  -3 1384.58   37.99
   2  -6   3 1320.64   38.77
  -2   6  -3 1316.21   34.65
   2  -6   4  320.36   19.35
   2  -6   4  300.45   16.98
  -2   6  -4  296.91   17.32
  -2  -6  -9   19.54    6.62
  -2  -6 -10   75.14   12.87
   2   7 -11  108.10   15.70
   2  -7 -11  116.67   13.12
   2   7 -10   24.93    8.33
   2  -7 -10   29.12    6.90
   2  -7  -9  554.75   24.62
   2   7  -9  471.80   29.13
   2   7  -8  202.47   17.85
   2  -7  -8  247.20   14.94
   2  -7  -7   32.85    5.58
   2   7  -7   21.69    6.55
   2   7  -6  487.36   25.47
   2  -7  -6  551.38   19.99
  -2  -7   5  227.14    7.91
   2   7  -5  232.79   16.70
   2  -7  -5  255.10   11.95
  -2  -7   4   41.79    7.13
   2  -7  -4   53.91    4.99
   2   7  -4   45.28    7.30
   2   7  -3  475.37   21.73
   2  -7  -3  527.15   14.86
  -2  -7   3  501.29   22.70
   2   7  -2  344.12   17.92
  -2  -7   2  334.84   17.60
   2  -7  -2  396.15   12.53
  -2   7   1   41.66    4.11
   2   7  -1   36.83    6.05
   2  -7  -1   43.52    4.34
  -2  -7   1   38.14    6.24
   2   7   0 1203.67   34.74
   2  -7   0 1234.51   32.20
  -2  -7   0 1206.53   34.04
  -2   7   0 1302.39   26.43
   2   7   0 1225.82   24.81
  -2   7   0 1279.09   32.21
   2   7   1 1468.17   33.13
  -2   7  -1 1614.96   37.92
   2   7   1 1508.88   40.02
  -2  -7  -1 1507.15   39.40
  -2   7  -1 1551.00   32.22
   2  -7   1 1482.61   38.59
  -2  -7  -2  386.42   19.22
   2   7   2  351.26   16.95
   2  -7   2  370.35   19.32
  -2   7  -2  372.41   15.93
  -2   7  -2  392.50   18.10
  -2   7  -3   46.11    6.42
   2  -7   3   47.86    7.41
  -2   7  -3   55.98    7.87
  -2   7  -4    3.03    2.63
   2  -7   4    2.95    2.38
  -2   7  -5 1013.42   35.38
  -2   7  -6  112.45   12.49
  -2   7  -7  187.47   17.24
  -2   7  -8   35.33    8.94
  -2   7  -9   23.02    7.57
  -2   7 -10   46.05   10.95
   2   8 -10   84.47   13.82
   2  -8 -10   92.43   10.99
   2  -8  -9   13.27    4.53
   2   8  -9   11.48    5.51
   2   8  -8  581.92   31.95
   2  -8  -8  661.03   25.15
   2  -8  -7    1.24    2.37
  -2  -8   7    5.93    2.84
   2   8  -7   -0.93    4.27
   2  -8  -6    9.15    2.74
  -2  -8   6    1.20    1.45
   2   8  -6    6.07    4.64
   2  -8  -5   80.14    7.24
   2   8  -5   71.61   10.12
   2  -8  -4 1434.53   30.98
   2   8  -4 1350.40   42.01
   2   8  -3   -2.60    3.61
   2  -8  -3    0.38    1.65
   2   8  -2    4.38    3.14
  -2  -8   2    3.78    2.83
   2  -8  -2    5.94    2.08
   2  -8  -1   20.80    3.49
  -2   8   1   16.10    2.97
   2   8  -1   17.67    4.74
  -2  -8   1   18.88    4.88
  -2   8   0 1534.53   37.06
   2  -8   0 1518.16   38.31
   2   8   0 1469.36   40.71
  -2   8   0 1539.14   31.62
  -2  -8   0 1460.40   40.29
   2   8   0 1460.36   27.42
  -2   8  -1   20.15    4.50
   2   8   1   19.94    4.93
   2  -8   1   14.09    4.08
  -2   8  -1   19.54    3.97
   2   8   1   19.31    3.94
   2  -8   2  788.41   29.68
   2   8   2  734.08   25.47
  -2   8  -2  809.41   25.26
  -2   8  -2  842.21   27.58
  -2   8  -3   18.45    4.64
  -2   8  -3   24.55    5.96
   2  -8   3   24.73    6.04
  -2   8  -4   31.89    6.53
  -2   8  -4   57.58    9.86
  -2   8  -5    1.09    3.59
  -2   8  -6 1341.88   44.80
  -2   8  -7   52.13    9.70
  -2   8  -8   85.76   12.84
  -2   8  -9   24.45    7.62
   2   9 -10  114.23   16.13
   2   9  -9  326.38   25.35
   2  -9  -9  336.34   19.49
   2   9  -8  207.31   19.13
   2  -9  -7  159.19   12.16
   2   9  -7  141.01   15.22
   2   9  -6  210.83   18.18
   2  -9  -6  235.42   13.79
   2  -9  -5   92.19    7.89
   2   9  -5   79.46   10.69
   2  -9  -4   14.53    3.11
   2   9  -4   21.47    6.05
   2   9  -3  282.25   18.53
   2  -9  -3  319.97   13.83
   2   9  -2  139.55   12.74
   2  -9  -2  146.58    9.13
   2  -9  -1  357.72   15.44
  -2   9   1  345.56   14.13
   2   9  -1  339.69   19.74
   2  -9   0 1513.79   40.77
   2   9   0 1435.92   26.47
   2   9   0 1411.74   41.96
  -2   9   0 1557.87   33.64
  -2   9   0 1569.27   38.72
   2   9   1  363.43   15.10
   2  -9   1  367.89   20.03
  -2   9  -1  397.92   18.38
  -2   9  -1  402.52   16.67
   2   9   1  389.12   21.07
   2   9   2  319.76   16.64
   2  -9   2  360.16   21.10
  -2   9  -2  348.89   16.97
  -2   9  -2  330.42   17.11
  -2   9  -3   10.31    4.47
  -2   9  -3    7.10    3.41
  -2   9  -4   36.76    6.52
  -2   9  -4   59.60    9.92
  -2   9  -5  488.08   24.98
  -2   9  -6    4.88    3.66
  -2   9  -7   72.84   11.59
  -2   9  -8   53.28   10.60
  -2   9  -9   11.63    6.03
   2  10  -9   48.05   10.05
   2  10  -8  187.39   18.76
   2  10  -7   63.42   11.36
   2  10  -6  200.77   18.48
   2 -10  -6  198.26   12.98
   2 -10  -5  607.89   22.22
   2  10  -5  537.40   28.73
   2  10  -4   49.15    8.28
   2 -10  -4   56.04    6.38
   2 -10  -3  746.24   23.23
   2  10  -3  739.50   31.88
   2  10  -2  600.65   28.03
   2 -10  -2  646.30   21.86
  -2  10   1  243.59   12.58
   2  10  -1  207.36   15.70
   2 -10  -1  223.28   13.18
   2  10   0   17.89    2.47
   2  10   0   16.53    5.36
  -2  10   0   18.18    4.07
  -2  10   0   11.60    3.75
  -2  10  -1    6.91    3.64
   2  10   1    7.98    4.26
   2  10   1    8.34    3.10
   2 -10   1    7.45    3.79
  -2  10  -1    5.65    2.54
  -2  10  -2  261.26   15.38
   2  10   2  221.30   13.94
  -2  10  -2  261.80   15.58
  -2  10  -3  362.08   19.63
  -2  10  -3  324.31   18.13
  -2  10  -4  205.14   15.32
  -2  10  -5  418.87   23.06
  -2  10  -6   42.62    8.44
  -2  10  -7  153.14   16.38
  -2  10  -8   25.58    8.44
  -2  10  -9    9.32    6.22
   2  11  -9   13.13    6.51
   2  11  -8  170.33   19.03
   2  11  -7  769.96   38.43
   2  11  -6  142.90   15.90
   2  11  -5    2.00    3.94
   2 -11  -5    5.15    3.36
   2  11  -4    6.77    4.94
   2 -11  -4    5.68    2.69
   2  11  -3    9.35    4.31
   2 -11  -3    5.23    2.62
   2  11  -2  218.70   17.50
   2 -11  -2  236.05   13.93
  -2  11   1 1157.21   31.18
   2 -11  -1 1091.43   32.82
   2  11  -1 1089.23   39.33
  -2  11   0  124.58    9.97
   2  11   0  110.18    4.61
   2  11   0  119.59   12.61
  -2  11   0  113.80   10.33
  -2  11  -1  137.09   10.83
  -2  11  -1  149.65   12.15
   2  11   1  113.43    8.10
   2  11   2  192.62   12.71
  -2  11  -2  214.21   14.27
  -2  11  -2  218.59   14.71
  -2  11  -3  653.27   27.09
  -2  11  -3  652.02   27.16
   2  11   3  563.13   26.01
  -2  11  -4    0.40    3.58
  -2  11  -5   56.48    8.78
  -2  11  -6   43.89    8.48
  -2  11  -7    5.66    4.37
  -2  11  -8   40.02    9.14
   2  12  -8   70.34   12.91
   2  12  -7   26.86    8.10
   2  12  -6  633.98   33.70
   2  12  -5    8.24    5.02
   2  12  -4   30.02    7.49
   2  12  -3   70.45   10.53
   2  12  -2  937.77   38.82
   2 -12  -2  949.37   31.12
   2 -12  -1   -3.07    3.34
  -2  12   1   -1.60    3.10
  -2  12   1    2.37    2.23
   2  12  -1    5.28    4.33
   2  12   0  106.64   12.70
  -2  12   0  114.06   10.12
  -2  12   0  106.12   10.14
  -2  12  -1  103.41   10.00
  -2  12  -1  118.26   10.72
  -2  12  -2   41.76    7.08
  -2  12  -2   40.36    6.90
  -2  12  -3   43.15    7.99
  -2  12  -3   29.52    6.15
  -2  12  -4  738.48   31.83
  -2  12  -5    1.75    3.35
  -2  12  -6   28.70    7.23
  -2  12  -7  127.75   15.37
  -2  12  -8  203.56   20.23
   2  13  -7  188.34   19.65
   2  13  -6    8.77    5.46
   2  13  -5   26.82    7.51
   2  13  -4   20.07    7.06
   2  13  -3   66.56   10.63
   2  13  -2    0.05    4.02
   2  13  -1  305.40   22.30
  -2  13   1  326.53   17.74
  -2  13   1  307.42   17.79
  -2  13   0   41.82    6.78
   2  13   0   43.48    8.58
  -2  13   0   42.80    6.69
  -2  13  -1    2.04    3.85
  -2  13  -1   14.24    4.66
  -2  13  -2  123.09   11.91
  -2  13  -2  112.77   11.23
  -2  13  -3  237.02   17.14
  -2  13  -4  156.21   14.91
  -2  13  -5  111.50   13.52
  -2  13  -6   51.05   10.27
  -2  13  -7   15.85    6.04
   2  14  -5   52.29   11.20
   2  14  -4  252.25   22.05
   2  14  -3   20.65    6.89
   2  14  -2   17.86    6.82
   2  14  -1   30.03    7.90
  -2  14   1   34.93    6.41
  -2  14   0  184.74   14.19
   2  14   0  169.38   17.43
  -2  14  -1   10.73    4.49
  -2  14  -2  319.58   20.13
  -2  14  -3    2.48    3.41
  -2  14  -4   33.05    7.40
  -2  14  -5   93.06   12.96
  -2  14  -6   81.18   12.60
   2  15  -3  224.77   21.16
   2  15  -2    2.25    4.72
   2  15  -1   28.91    7.65
   2  15   0   27.76    7.86
   3   0 -13  126.18   17.50
   3   0 -12  -11.97    6.51
   3   0 -11  936.91   41.34
   3   0 -10   -2.46    3.48
  -3   0   9   45.85    6.81
   3   0  -9   52.10    8.71
  -3   0   8    0.92    2.40
   3   0  -8    2.53    3.56
  -3   0   7  208.51   12.22
   3   0  -7  192.45   13.64
   3   0  -6   -1.15    2.25
  -3   0   6    8.40    2.73
  -3   0   5  531.98   16.72
   3   0  -5  534.84   18.78
   3   0  -4   -1.40    1.55
  -3   0   3   38.59    4.14
   3   0  -3   38.92    3.98
   3   0  -2   -0.30    1.36
  -3   0   2    1.07    1.37
  -3   0   1 2913.11   53.09
  -3   0   1 2838.79   44.30
  -3   0   0   -4.49    3.14
  -3   0   0    0.95    1.40
   3   0   1  485.34   20.18
  -3   0  -1  482.55   20.59
   3   0   2   -0.41    2.23
  -3   0  -2   10.64    4.70
   3   0   3 2856.24   62.05
  -3   0  -3 2749.38   56.50
  -3   0  -4    1.25    3.11
  -3   0  -5 1088.37   36.84
  -3   0  -6    1.65    3.68
  -3   0  -7  121.83   13.85
  -3   0  -8   -4.56    5.66
  -3   0  -9 1231.78   50.49
   3   1 -13   19.26    7.34
   3  -1 -13   26.76    8.05
   3   1 -12   42.52   10.23
   3  -1 -12   40.09    9.22
   3   1 -11   44.26    9.02
   3  -1 -11   51.70    9.99
   3   1 -10  332.99   23.10
   3  -1 -10  349.09   23.08
  -3  -1   9  135.03   12.10
   3   1  -9  133.14   13.64
   3  -1  -9  128.07   13.06
   3   1  -8   82.20    9.96
  -3  -1   8   81.10    8.77
   3  -1  -8   85.11    9.83
  -3  -1   7  311.14   16.14
  -3   1   7  313.52   13.67
   3   1  -7  311.39   17.97
   3  -1  -7  320.87   17.28
  -3  -1   6  514.21   19.40
  -3   1   6  504.95   16.02
   3   1  -6  532.44   21.83
   3  -1  -6  504.99   19.71
  -3  -1   5 1027.26   26.97
  -3   1   5 1061.01   22.24
   3   1  -5 1048.84   28.62
   3  -1  -5 1105.73   27.02
   3   1  -4  100.16    7.69
   3  -1  -4  105.97    6.55
  -3  -1   4   85.19    7.52
  -3   1   4   97.26    5.12
   3   1  -3  550.75   17.04
  -3  -1   3  606.78   18.42
   3  -1  -3  579.62   14.14
  -3  -1   2 1511.16   33.60
   3  -1  -2 1400.51   24.85
  -3  -1   2 1515.05   29.93
  -3   1   2 1545.62   25.16
   3   1  -2 1492.57   30.05
   3   1  -1   56.04    5.27
  -3   1   1   65.27    6.93
  -3  -1   1   61.98    5.34
  -3   1   1   59.39    4.31
  -3  -1   1   62.89    6.44
   3   1   0  467.46   17.95
  -3   1   0  450.89   13.87
  -3  -1   0  454.74   15.96
  -3   1   0  490.01   19.72
  -3  -1   0  475.73   18.66
  -3  -1  -1 1078.49   31.38
   3  -1   1 1057.30   30.66
  -3  -1  -1 1076.34   27.36
   3   1   1 1065.40   30.53
  -3   1  -1 1064.42   31.32
  -3  -1  -2   79.43    9.83
  -3   1  -2   64.12    8.61
   3   1   2   66.42    7.87
   3  -1   2   57.58    7.40
  -3   1  -2   55.72    6.37
   3  -1   3  918.97   31.98
  -3   1  -3  853.98   28.33
   3   1   3  897.31   31.72
  -3   1  -4 1840.27   47.13
  -3   1  -5  865.95   32.83
  -3  -1  -5  820.05   31.64
  -3   1  -6  146.73   14.59
  -3  -1  -6  143.62   13.91
  -3  -1  -7   31.29    7.57
  -3   1  -7   25.91    7.41
  -3   1  -8  375.01   26.02
  -3  -1  -8  410.43   27.13
  -3   1  -9    0.81    4.25
  -3  -1  -9    0.41    4.00
   3   2 -13    3.44    5.43
   3   2 -12   68.76   12.39
   3   2 -11   54.00   10.64
   3   2 -10 1017.75   41.56
   3   2  -9  316.57   21.31
  -3  -2   8  621.90   25.86
   3   2  -8  589.56   27.76
   3   2  -7   68.99    8.91
  -3  -2   7   63.27    7.79
   3   2  -6   13.43    3.92
   3  -2  -6   16.15    3.37
  -3  -2   6   17.13    4.16
   3   2  -5  361.72   16.87
   3  -2  -5  364.87   13.94
   3   2  -4  721.46   23.20
   3  -2  -4  770.43   17.45
  -3  -2   4  750.10   23.61
   3  -2  -3  741.16   13.87
   3   2  -3  702.74   21.21
  -3  -2   3  736.38   21.90
  -3  -2   2 3721.28   61.18
   3   2  -2 3623.03   60.13
  -3  -2   2 3800.29   60.54
  -3   2   2 3807.88   47.62
  -3   2   2 3826.56   47.38
  -3   2   1    3.67    1.47
   3   2  -1   -0.07    1.67
  -3   2   1    2.19    2.11
  -3   2   1    2.42    1.02
  -3  -2   1    2.82    2.14
  -3  -2   1    1.46    1.60
   3   2   0 2061.12   42.33
  -3  -2   0 2133.30   41.41
  -3   2   0 2197.75   46.89
  -3   2   0 2083.07   37.52
  -3  -2   0 2139.42   43.90
   3  -2   1  510.91   20.73
  -3  -2  -1  495.56   18.54
   3   2   1  498.98   20.04
  -3   2  -1  511.16   17.97
  -3   2  -1  532.28   21.71
  -3  -2  -1  516.33   20.71
  -3   2  -2  427.52   20.52
  -3  -2  -2  418.39   18.33
   3  -2   2  413.96   19.87
  -3   2  -2  399.26   17.45
   3   2   2  423.06   19.90
   3  -2   3  487.65   22.99
  -3   2  -3  467.62   21.01
   3   2   3  483.12   22.93
  -3   2  -3  488.54   23.54
  -3   2  -4  181.19   13.91
  -3   2  -5    4.47    3.42
  -3   2  -6  412.73   24.40
  -3  -2  -6  431.78   24.08
  -3  -2  -7   73.68   11.08
  -3   2  -7   69.25   11.00
  -3   2  -8  274.86   22.92
  -3  -2  -8  304.53   23.48
  -3   2  -9  174.35   19.07
  -3  -2  -9  199.31   19.80
   3   3 -12   -2.32    5.27
   3   3 -11  122.97   15.71
   3   3 -10  341.37   24.23
   3   3  -9    7.88    5.15
  -3  -3   8 2098.35   53.30
   3   3  -8 1957.68   54.79
   3   3  -7  739.81   29.61
  -3  -3   7  824.57   29.93
  -3  -3   6   46.00    6.89
   3   3  -6   43.43    6.68
   3   3  -5 1488.11   38.56
   3  -3  -5 1580.24   31.32
  -3  -3   5 1566.56   40.55
   3   3  -4 2611.56   53.03
   3  -3  -4 2767.42   39.11
  -3  -3   4 2657.98   53.34
   3   3  -3  829.25   24.97
  -3  -3   3  857.53   25.18
  -3  -3   2   18.64    3.38
   3   3  -2   20.47    4.03
  -3  -3   2   21.54    3.98
  -3   3   1  584.12   21.42
  -3   3   1  549.64    9.50
  -3   3   1  589.75   14.32
  -3  -3   1  576.58   19.42
   3   3  -1  549.39   19.45
  -3  -3   1  552.39   18.66
  -3  -3   0   27.29    4.86
  -3   3   0   21.53    4.47
   3   3   0   20.89    3.89
  -3  -3   0   22.09    4.19
  -3   3   0   28.78    3.83
  -3  -3  -1  634.70   22.29
  -3   3  -1  637.37   20.56
   3   3   1  637.06   22.51
  -3   3  -1  659.64   24.65
  -3  -3  -2 2226.57   48.39
   3  -3   2 2261.34   50.87
  -3   3  -2 2119.23   46.28
   3   3   2 2225.78   50.34
  -3   3  -2 2340.60   53.25
  -3  -3  -3  810.55   28.40
  -3   3  -3  789.13   30.00
   3  -3   3  771.03   29.15
   3   3   3  723.70   28.25
  -3   3  -3  741.02   27.13
  -3   3  -4  126.87   11.93
  -3   3  -5  150.65   14.05
  -3   3  -6  547.50   28.65
  -3  -3  -7    2.71    4.77
  -3   3  -7    4.31    4.13
  -3  -3  -8   48.04    9.64
  -3   3  -8   57.35   10.65
  -3  -3  -9   34.36    9.20
  -3   3  -9   26.46    8.97
   3   4 -12   16.56    7.53
   3   4 -11   40.73    9.79
   3  -4 -11   35.72    7.19
   3   4 -10   11.69    5.69
   3  -4 -10   12.27    4.80
   3  -4  -9 1051.89   32.55
   3   4  -9 1027.09   41.03
   3  -4  -8  204.54   12.15
   3   4  -8  195.61   16.42
  -3  -4   7    4.61    2.98
   3   4  -7   -1.54    2.79
   3   4  -6   87.44    9.96
   3   4  -5  122.66   11.00
  -3  -4   5  136.02   11.81
  -3  -4   4   21.95    4.89
   3  -4  -4   28.53    2.43
   3   4  -4   24.13    4.99
  -3  -4   3 3666.19   56.76
   3   4  -3 3696.78   66.08
  -3  -4   3 3708.17   65.18
   3   4  -2  191.12   12.12
  -3  -4   2  224.64   12.86
  -3  -4   2  203.18   10.10
  -3   4   1  330.11   16.36
   3   4  -1  274.86   14.58
  -3  -4   1  301.70   14.78
  -3  -4   1  307.81   13.37
  -3   4   0   27.56    3.84
  -3  -4   0   29.58    4.79
   3   4   0   23.87    4.18
  -3  -4   0   38.51    6.18
  -3   4   0   24.72    4.74
  -3  -4  -1 2355.17   49.47
  -3   4  -1 2301.69   45.42
   3   4   1 2260.68   47.33
  -3   4  -1 2425.96   52.83
   3  -4   2  171.21   12.76
  -3  -4  -2  191.31   12.84
  -3   4  -2  181.72   12.30
   3   4   2  165.45   12.38
  -3   4  -2  169.24   13.17
   3   4   3    5.17    2.68
  -3   4  -3    6.18    4.68
  -3   4  -3    8.80    3.55
  -3   4  -4  136.54   12.79
  -3   4  -5    3.38    3.79
  -3   4  -6    7.39    5.18
  -3   4  -7  938.75   40.80
  -3  -4  -8   24.05    7.82
  -3   4  -8   27.50    8.40
  -3  -4  -9  104.50   14.95
  -3   4  -9   84.84   13.66
   3   5 -12   16.32    5.65
   3   5 -11   68.37   12.42
   3  -5 -11   54.76    8.72
   3   5 -10   15.26    6.30
   3  -5 -10   21.29    5.48
   3  -5  -9  182.49   12.77
   3   5  -9  167.01   16.91
   3  -5  -8  267.39   13.74
   3   5  -8  243.61   18.63
   3  -5  -7  185.03    9.67
   3   5  -7  189.43   15.66
   3  -5  -6    8.15    1.80
   3   5  -6    6.51    3.58
  -3  -5   5   75.40    9.59
   3   5  -5   66.82    8.72
   3  -5  -4 1083.31   16.92
   3   5  -4 1015.75   32.50
  -3  -5   4 1103.44   34.30
   3   5  -3  288.73   15.99
  -3  -5   3  279.90   10.80
  -3  -5   3  289.25   15.71
  -3  -5   2   12.40    2.75
   3   5  -2   17.27    4.34
  -3  -5   2   11.02    3.26
  -3   5   1    4.90    2.58
   3   5  -1    3.76    2.69
  -3  -5   1    5.38    3.05
   3   5   0   60.76    6.03
  -3  -5   0   57.81    7.06
   3   5   0   52.33    6.98
  -3   5   0   68.07    4.20
  -3   5   0   60.75    7.41
  -3   5  -1    3.79    1.86
   3   5   1    2.89    2.18
  -3   5  -1    5.31    3.74
  -3  -5  -1    3.64    2.67
  -3   5  -2  887.30   28.76
  -3  -5  -2  958.52   31.42
   3   5   2  927.54   30.30
  -3   5  -2  971.85   32.65
  -3   5  -3  409.81   22.26
  -3   5  -3  396.09   20.24
   3   5   3  374.32   20.33
  -3   5  -4   66.00   11.58
  -3   5  -4   51.82    7.94
  -3   5  -5  990.22   37.72
  -3   5  -6  689.04   33.09
  -3   5  -7  170.74   17.65
  -3  -5  -8   57.70   10.49
  -3   5  -8   41.68    9.85
  -3   5  -9    4.00    4.64
   3   6 -11  117.00   15.84
   3   6 -10  132.88   15.82
   3  -6 -10  130.15   11.80
   3  -6  -9   34.64    5.59
   3   6  -9   29.23    7.53
   3  -6  -8   46.67    5.90
   3   6  -8   35.50    7.36
   3  -6  -7  389.30   14.16
   3   6  -7  341.24   21.78
   3  -6  -6   13.14    2.16
   3   6  -6    8.66    3.56
   3  -6  -5  200.38    8.12
   3   6  -5  195.57   15.35
  -3  -6   4   42.72    6.96
   3  -6  -4   48.10    2.78
  -3  -6   4   40.69    3.71
   3   6  -4   37.29    6.47
   3   6  -3    5.11    3.09
  -3  -6   3    4.26    1.41
  -3  -6   3    1.41    2.29
   3   6  -2  750.53   27.67
   3  -6  -2  717.00   15.96
  -3  -6   2  728.16   26.52
  -3  -6   2  700.47   18.72
  -3   6   1  904.01   29.47
   3   6  -1  824.07   28.69
  -3  -6   1  873.73   29.12
   3  -6  -1  805.50   20.68
   3   6   0  641.22   25.54
   3   6   0  665.39   20.60
  -3   6   0  747.70   26.90
  -3  -6   0  697.35   25.96
  -3   6   0  727.99   15.68
   3  -6   0  629.62   20.61
   3   6   1  177.26   11.72
  -3   6  -1  200.56   14.38
  -3   6  -1  182.14    9.39
   3  -6   1  163.55   11.12
   3  -6   2  679.83   25.67
  -3   6  -2  757.07   23.24
   3   6   2  723.69   26.21
  -3   6  -2  772.70   29.24
  -3   6  -3  226.00   16.89
   3  -6   3  164.11   13.32
  -3   6  -3  209.43   13.46
   3   6   3  190.28   14.71
  -3   6  -4   31.70    6.67
  -3   6  -4   57.43   10.42
  -3   6  -5  526.18   27.58
  -3   6  -6  126.56   14.28
  -3   6  -7  123.15   15.12
  -3   6  -8  624.92   36.21
   3   7 -11    9.99    6.97
   3   7 -10   16.35    6.32
   3  -7  -9   17.76    4.91
   3   7  -9   12.91    5.93
   3  -7  -8   18.89    3.70
   3   7  -8   23.47    6.76
   3  -7  -7  163.47    9.06
   3   7  -7  139.63   14.52
   3  -7  -6 1974.97   37.26
   3  -7  -6 2010.79   33.82
   3   7  -6 1832.29   54.16
  -3  -7   5   77.23    4.57
   3  -7  -5   95.80    5.81
   3  -7  -5   86.73    4.49
   3   7  -5   74.86    9.94
   3   7  -4  192.51   15.03
   3  -7  -4  229.06    7.31
  -3  -7   4  171.55    6.31
   3  -7  -3   73.10    4.52
   3   7  -3   76.32    9.39
   3   7  -2 1005.99   33.82
   3  -7  -2  926.06   21.63
  -3   7   1    9.42    3.62
  -3   7   1    9.32    1.49
   3   7  -1   10.66    4.16
   3  -7  -1    7.64    2.66
   3   7   0 1932.56   38.61
   3   7   0 1927.71   49.05
  -3   7   0 2116.72   49.43
  -3   7   0 2111.53   33.35
   3  -7   0 1815.21   41.32
  -3   7  -1    5.36    3.14
   3   7   1    3.38    2.40
  -3   7  -1    3.33    1.83
   3  -7   1    0.82    2.34
   3  -7   2   79.83    9.04
  -3   7  -2   94.77    7.99
   3   7   2   78.64    8.13
  -3   7  -2   99.06   10.41
  -3   7  -3  209.82   16.36
   3  -7   3  183.49   14.53
  -3   7  -3  212.30   13.44
   3   7   3  182.51   14.47
  -3   7  -4 1153.75   41.10
  -3   7  -4 1144.41   36.10
  -3   7  -5  145.87   13.54
  -3   7  -6    0.87    4.22
  -3   7  -7  191.23   17.68
  -3   7  -8   44.95    9.80
  -3   7  -9    7.76    5.99
   3   8 -10   22.61    8.40
   3   8  -9  215.47   20.25
   3  -8  -8    7.78    2.21
   3   8  -8    6.85    4.61
   3  -8  -7 1046.11   27.93
   3   8  -7  926.36   39.98
   3  -8  -7 1045.67   25.84
   3  -8  -6    1.06    1.61
  -3  -8   6   -0.78    1.23
   3  -8  -6   -2.57    1.56
   3   8  -6    0.51    4.25
   3  -8  -5  446.90   13.79
   3   8  -5  369.49   22.32
   3   8  -4   12.34    4.41
   3  -8  -4   20.66    2.60
   3   8  -3  783.28   31.17
   3  -8  -3  741.16   19.43
   3  -8  -2  147.15    8.95
   3   8  -2  178.32   14.54
  -3   8   1 2501.82   55.15
  -3   8   1 2421.47   35.89
   3   8  -1 2298.47   56.47
   3   8   0   16.61    4.76
  -3   8   0   16.43    2.60
   3   8   0   15.22    3.08
   3  -8   0   10.66    3.38
  -3   8   0   11.33    3.88
  -3   8  -1   23.23    6.04
   3   8   1   21.39    4.21
  -3   8  -1   21.53    3.68
   3  -8   1   14.41    4.18
   3   8   2    9.21    2.48
  -3   8  -2    7.84    3.19
   3  -8   2   12.77    3.99
  -3   8  -2   13.44    3.66
  -3   8  -3  107.67   12.03
  -3   8  -3   95.12    9.21
   3   8   3   80.53    9.95
  -3   8  -4    9.44    4.12
  -3   8  -4   21.48    7.62
  -3   8  -5  568.91   27.11
  -3   8  -6   12.59    5.53
  -3   8  -7   35.11    8.46
  -3   8  -8    5.04    4.86
  -3   8  -9  221.65   21.58
   3   9 -10    7.93    6.90
   3   9  -9   16.35    7.15
   3   9  -8   36.47    9.19
   3   9  -7  454.33   28.54
   3  -9  -7  490.44   17.40
   3   9  -6 1034.95   41.42
   3   9  -5  245.75   19.13
   3  -9  -5  276.18   11.50
   3  -9  -4   83.26    5.67
   3   9  -4   72.16   10.08
   3  -9  -3  309.34   13.56
   3   9  -3  309.00   20.34
   3  -9  -3  335.52   11.28
   3  -9  -2  247.57   13.13
   3   9  -2  281.34   19.13
  -3   9   1  182.76   13.91
  -3   9   1  184.11    8.34
   3   9  -1  176.13   14.91
   3  -9  -1  154.77   11.09
   3   9   0  626.51   28.67
   3   9   0  602.95   17.92
  -3   9   0  682.83   18.53
  -3   9   0  663.07   27.14
   3  -9   0  583.20   23.97
   3   9   1   14.63    3.89
  -3   9  -1   13.11    4.48
  -3   9  -1   15.41    3.52
   3  -9   1    9.82    3.88
   3  -9   2  106.44   11.61
  -3   9  -2  125.50    9.55
   3   9   2  109.96    9.73
  -3   9  -2  119.96   12.09
  -3   9  -3  347.32   21.42
  -3   9  -3  317.79   16.96
   3   9   3  305.60   18.81
  -3   9  -4  488.98   26.92
  -3   9  -4  458.18   22.48
  -3   9  -5  296.74   19.64
  -3   9  -6  113.94   13.70
  -3   9  -7  116.35   14.39
  -3   9  -8   -3.22    5.42
   3  10  -9   38.73   10.84
   3  10  -8   25.88    7.77
   3  10  -7  230.12   20.85
   3  10  -6    4.30    5.32
   3  10  -5  117.77   14.10
   3  10  -4   24.34    6.84
   3 -10  -3  355.93   16.33
   3  10  -3  351.18   22.56
   3 -10  -3  376.78   13.60
   3 -10  -2  245.91   14.08
   3  10  -2  263.16   19.38
  -3  10   1  469.59   15.02
  -3  10   1  465.82   22.71
   3  10  -1  443.78   24.90
   3 -10  -1  430.24   20.28
   3  10   0  450.30   14.10
   3  10   0  515.68   27.16
   3 -10   0  449.22   22.30
  -3  10   0  527.96   17.52
  -3  10   0  528.10   24.64
  -3  10  -1  219.39   11.96
   3  10   1  202.99   11.56
  -3  10  -1  219.48   16.12
   3 -10   1  194.95   15.37
  -3  10  -2  258.10   14.52
   3  10   2  216.35   13.77
  -3  10  -2  240.21   17.23
  -3  10  -3    4.16    3.97
  -3  10  -3    2.19    2.52
  -3  10  -4   13.17    7.12
  -3  10  -4    3.83    3.89
  -3  10  -5  230.59   17.57
  -3  10  -6  100.12   12.53
  -3  10  -7   89.12   12.63
  -3  10  -8  217.77   20.52
   3  11  -8  372.93   27.88
   3  11  -7   10.27    6.13
   3  11  -6   13.76    6.23
   3  11  -5   10.72    5.56
   3  11  -4  315.71   22.75
   3  11  -3    5.06    4.91
   3  11  -2    0.60    3.57
   3  11  -1  221.58   18.39
  -3  11   1  240.47   16.94
   3 -11  -1  197.20   14.74
  -3  11   0   56.81    8.34
  -3  11   0   59.84    6.36
   3  11   0   69.93   10.87
   3 -11   0   54.15    8.39
  -3  11  -1   12.54    4.39
  -3  11  -1   16.23    4.08
  -3  11  -2  384.16   18.39
  -3  11  -2  393.54   22.70
  -3  11  -3   45.90    8.26
  -3  11  -3   52.11    7.55
  -3  11  -4   75.11   12.02
  -3  11  -4   52.10    8.14
  -3  11  -5  162.87   14.94
  -3  11  -6  432.34   25.54
  -3  11  -7    8.27    5.43
   3  12  -7   21.69    7.01
   3  12  -6   -1.62    5.25
   3  12  -5   15.91    6.44
   3  12  -4   13.00    6.17
   3  12  -3  303.68   23.05
   3  12  -2  334.26   23.69
   3  12  -1   36.87    8.41
  -3  12   1   28.36    6.67
  -3  12   0   61.14    8.90
   3  12   0   68.29   11.21
  -3  12  -1  624.34   22.97
  -3  12  -1  611.33   28.25
  -3  12  -2   -7.12    5.93
  -3  12  -2   -1.09    3.33
  -3  12  -3    6.50    4.87
  -3  12  -3   -0.01    2.92
  -3  12  -4   89.11   11.22
   3  13  -6   -6.12    6.56
   3  13  -5  381.71   27.51
   3  13  -4  258.67   22.33
   3  13  -3  121.59   14.92
  -3  13   2  156.69   14.22
   3  13  -2  160.61   17.41
   3  13  -1   29.34    8.63
  -3  13   1   38.85    7.82
  -3  13   0  122.55   12.78
  -3  13  -1  217.23   17.07
  -3  13  -2  261.15   19.46
  -3  13  -3  214.67   18.40
   3  14  -3   26.44    8.61
  -3  14   2  264.76   19.04
   3  14  -2  283.09   23.53
   3  14  -1   60.97   11.23
  -3  14   1   66.87    9.47
  -3  14   0  268.46   19.52
   4   0 -13    1.20    5.30
   4   0 -12    1.95    4.29
   4   0 -11   -2.10    4.47
   4   0 -10   10.06    4.97
   4   0  -9    2.26    3.14
  -4   0   9    1.74    2.20
  -4   0   8 2032.68   44.09
   4   0  -8 2086.26   51.35
  -4   0   7   -4.24    2.42
   4   0  -7   -4.58    2.97
   4   0  -6  658.18   22.59
  -4   0   6  652.95   20.00
   4   0  -5   -1.88    2.12
  -4   0   4 1785.51   36.77
   4   0  -4 1744.75   35.10
  -4   0   3    0.10    1.58
   4   0  -3    0.80    1.37
  -4   0   2 2647.02   55.71
  -4   0   2 2591.73   44.74
  -4   0   1    0.64    2.33
  -4   0   1    0.19    1.45
  -4   0   0  898.16   24.91
  -4   0   0  936.58   31.82
  -4   0  -1    0.27    3.71
   4   0   1    2.36    2.27
  -4   0  -1   -2.11    2.42
  -4   0  -2 3537.36   65.86
  -4   0  -2 3554.84   74.83
  -4   0  -3   -3.64    3.44
  -4   0  -4  150.84   13.44
  -4   0  -5    1.33    3.56
  -4   0  -6  195.87   17.67
  -4   0  -7   -2.62    5.09
  -4   0  -8  265.40   23.18
   4   1 -13  306.26   26.24
   4  -1 -13  289.83   24.74
   4   1 -12   78.93   12.88
   4  -1 -12   76.97   12.54
   4   1 -11   30.40    8.12
   4  -1 -11   34.54    7.73
   4   1 -10   37.94    8.30
   4  -1 -10   21.73    6.82
  -4  -1   9  721.27   27.47
   4   1  -9  652.22   29.79
   4  -1  -9  671.85   29.06
   4   1  -8    1.74    3.09
   4  -1  -8   -0.72    2.70
  -4   1   8    1.96    1.70
  -4  -1   8   -6.51    3.91
  -4  -1   7  204.76   12.81
   4   1  -7  197.80   14.00
   4  -1  -7  223.85   13.49
  -4   1   7  204.89   10.10
  -4  -1   6   37.33    5.38
  -4   1   6   34.08    3.68
   4   1  -6   38.08    6.12
   4  -1  -6   36.15    4.94
  -4   1   5  272.70    9.73
   4   1  -5  286.05   14.39
   4  -1  -5  302.75   12.64
   4  -1  -4  599.58   16.60
   4   1  -4  615.20   20.35
  -4  -1   4  635.39   21.23
  -4  -1   3 3021.89   59.60
   4  -1  -3 3023.61   46.57
   4   1  -3 3003.16   52.83
  -4  -1   3 3133.44   53.67
  -4   1   3 3205.30   48.22
   4   1  -2  577.74   19.07
  -4   1   2  643.99   25.16
  -4  -1   2  649.43   24.04
  -4  -1   2  653.53   20.45
  -4   1   2  660.75   16.78
  -4   1   1   40.12    6.64
  -4   1   1   36.52    4.06
  -4  -1   1   39.50    6.43
  -4  -1   1   33.99    4.67
  -4   1   0  775.06   21.61
  -4  -1   0  764.05   23.66
  -4   1   0  751.84   28.90
  -4  -1   0  731.93   27.68
  -4  -1  -1  219.14   15.77
   4   1   1  196.09   14.40
  -4   1  -1  202.22   11.66
  -4  -1  -1  211.41   12.72
  -4   1  -1  186.22   12.20
  -4   1  -1  219.81   15.77
  -4   1  -2  151.16   14.28
  -4  -1  -2  150.16   11.74
  -4  -1  -2  163.25   14.76
  -4   1  -2  135.44   11.04
  -4   1  -3 1217.77   42.87
  -4   1  -3 1141.92   36.31
  -4   1  -4   47.66    8.34
  -4  -1  -4   49.46    8.29
  -4  -1  -5   14.13    5.77
  -4   1  -5    8.75    4.13
  -4   1  -6  305.42   22.11
  -4  -1  -6  302.40   21.70
  -4   1  -7  409.71   27.43
  -4  -1  -7  475.08   29.64
  -4   1  -8  277.07   24.20
  -4  -1  -8  261.02   23.36
   4   2 -13   -7.42    6.41
   4  -2 -13   12.00    5.51
   4   2 -12   -2.56    6.04
   4  -2 -12    4.74    4.68
   4   2 -11  404.90   27.20
   4  -2 -11  364.69   24.17
   4   2 -10   87.94   12.04
   4  -2 -10  107.49   12.25
  -4  -2   9  132.57   12.21
   4   2  -9  125.82   13.13
   4  -2  -9  133.50   12.41
  -4  -2   8  342.63   18.86
   4   2  -8  343.65   20.46
   4  -2  -8  362.39   18.74
  -4  -2   7  323.14   17.21
   4   2  -7  316.21   18.40
   4  -2  -7  350.87   16.33
   4   2  -6   33.99    5.86
   4  -2  -6   42.96    5.07
   4   2  -5  364.63   17.43
   4  -2  -5  418.00   13.43
  -4  -2   5  381.98   18.81
   4  -2  -4   71.73    4.60
   4   2  -4   68.70    7.15
  -4  -2   4   74.85    7.81
  -4  -2   3   -0.57    2.31
   4   2  -3   -0.53    1.90
  -4  -2   3    0.05    1.86
  -4   2   2  388.43   19.87
   4   2  -2  352.54   15.61
  -4  -2   2  385.15   18.26
  -4  -2   2  413.15   17.02
  -4   2   2  397.55   10.58
  -4   2   2  385.74   11.55
  -4   2   1  105.23    5.94
  -4  -2   1  100.73    8.20
  -4   2   1  103.88   10.22
  -4   2   1   97.95    6.76
  -4  -2   1   86.94    8.95
  -4   2   0   74.73    5.99
  -4  -2   0   87.37    7.90
  -4   2   0   88.44    7.37
  -4   2   0   93.25   10.17
  -4  -2   0   78.54    9.00
  -4  -2  -1  860.42   31.34
  -4  -2  -1  896.81   28.37
  -4   2  -1  861.90   26.93
   4   2   1  851.11   30.30
  -4   2  -1  894.56   32.67
  -4   2  -2   92.24   11.19
  -4  -2  -2   88.56    9.04
  -4   2  -2   88.38    9.23
  -4   2  -3 1603.33   49.48
  -4   2  -3 1566.61   43.84
  -4   2  -4  152.96   13.97
  -4   2  -5  396.96   24.14
  -4  -2  -6   -4.09    4.50
  -4   2  -6    0.45    3.80
  -4  -2  -7    8.48    6.51
  -4   2  -7    0.46    4.41
  -4  -2  -8   76.98   13.04
  -4   2  -8   58.84   11.50
   4  -3 -13   72.33   12.31
   4   3 -12   63.09   11.95
   4  -3 -12   58.58   10.45
   4   3 -11  137.86   16.15
   4  -3 -11  142.61   14.92
   4   3 -10   -1.51    3.57
   4  -3 -10    3.96    4.01
   4   3  -9  112.25   12.86
   4  -3  -9  118.59   11.35
   4  -3  -8   26.46    5.08
  -4  -3   8   22.81    5.20
   4   3  -8   15.34    4.79
  -4  -3   7   94.74    9.95
   4   3  -7   88.76   10.11
   4  -3  -7  103.89    8.70
   4   3  -6   97.26   10.21
   4  -3  -6   99.26    6.90
   4  -3  -5  987.46   19.41
   4   3  -5  938.44   30.20
  -4  -3   5  948.14   31.53
  -4  -3   4   14.41    4.04
   4   3  -4   12.25    3.89
   4   3  -3    5.59    3.05
  -4  -3   3    8.49    3.26
  -4  -3   3    5.30    2.44
  -4   3   2  235.33   15.38
  -4   3   2  236.57    8.10
  -4  -3   2  229.17   13.39
  -4  -3   2  224.88   13.45
   4   3  -2  212.69   13.17
  -4   3   1 1704.94   44.81
  -4   3   1 1597.80   25.52
  -4   3   1 1650.06   31.75
  -4  -3   1 1590.06   38.26
  -4  -3   1 1571.57   39.63
  -4  -3   0  479.25   21.98
  -4   3   0  475.78   14.27
  -4  -3   0  506.58   20.87
  -4   3   0  510.78   18.05
  -4   3   0  512.81   24.14
  -4  -3  -1    3.71    3.00
   4   3   1    2.89    2.35
  -4   3  -1    0.04    4.14
  -4   3  -1    0.18    2.33
  -4   3  -2  144.27   11.71
  -4   3  -2  138.34   13.89
  -4   3  -3   46.80    9.63
  -4   3  -3   28.93    5.95
  -4   3  -4   91.37   11.12
  -4   3  -5  676.39   32.13
  -4   3  -6  449.23   27.70
  -4  -3  -6  411.87   26.12
  -4   3  -7  210.50   20.07
  -4  -3  -7  214.90   19.65
  -4   3  -8  396.21   28.98
  -4  -3  -8  439.89   30.01
   4   4 -12   56.52   11.16
   4  -4 -12   66.66   10.97
   4  -4 -11    8.81    4.44
   4   4 -11    7.46    5.78
   4   4 -10  663.63   33.94
   4  -4 -10  672.06   30.15
   4  -4  -9    0.54    3.05
   4   4  -9    8.53    4.95
   4  -4  -8   74.45    8.10
   4   4  -8   69.06   10.04
   4   4  -7  174.98   14.98
   4  -4  -7  200.56   11.42
   4   4  -6 1530.21   44.50
   4  -4  -6 1566.52   29.44
   4  -4  -5   71.16    3.10
   4   4  -5   74.84    8.99
  -4  -4   5   81.04    9.64
  -4  -4   4   54.23    7.55
   4   4  -4   69.03    8.39
  -4  -4   4   51.53    6.30
  -4  -4   3   19.05    4.09
   4   4  -3   19.12    4.59
  -4  -4   3   25.88    5.23
  -4   4   2   87.04    9.69
   4   4  -2   86.17    8.80
  -4  -4   2  104.57    9.63
  -4  -4   2   89.14    8.24
  -4  -4   1  267.25   14.92
  -4   4   1  275.16   11.11
   4   4  -1  242.74   15.01
  -4   4   1  292.16   17.88
  -4  -4   1  281.67   15.75
  -4   4   0 1800.71   37.58
  -4  -4   0 1796.19   43.86
  -4  -4   0 1644.02   42.54
  -4   4   0 1829.66   48.46
  -4   4   0 1665.84   29.79
   4   4   1   87.39    9.41
  -4   4  -1   88.22    8.42
  -4   4  -1   84.93   10.18
  -4   4  -2  427.15   20.22
  -4   4  -2  433.33   24.42
  -4   4  -3   10.19    6.22
  -4   4  -3    3.94    2.76
  -4   4  -4 1151.02   40.12
  -4   4  -4 1258.08   47.61
  -4   4  -5   55.25    9.89
  -4   4  -6    7.51    5.30
  -4  -4  -7   -3.47    5.39
  -4   4  -7    4.18    5.62
  -4   4  -8    2.04    4.95
   4   5 -12  178.37   19.79
   4   5 -11  421.62   29.06
   4  -5 -11  434.43   25.59
   4   5 -10  328.79   24.42
   4  -5 -10  326.34   20.49
   4  -5  -9   -1.68    3.13
   4   5  -9   -5.38    4.94
   4  -5  -8   75.43    7.88
   4   5  -8   77.95   10.93
   4   5  -7  180.22   15.93
   4  -5  -7  188.92   10.37
   4   5  -6  401.64   22.43
   4  -5  -6  403.26   11.42
  -4  -5   5 1223.20   31.02
   4   5  -5 1312.12   39.79
   4   5  -4 1234.47   37.81
  -4  -5   4 1203.55   30.30
  -4  -5   3   27.69    4.09
   4   5  -3   31.69    6.08
  -4  -5   3   37.07    6.52
  -4   5   2  926.34   33.08
   4   5  -2  860.63   30.11
  -4  -5   2  928.68   31.24
  -4  -5   2  889.41   26.95
   4   5  -1  964.02   32.38
  -4  -5   1  971.02   29.43
  -4   5   1 1077.24   36.48
  -4  -5   1  976.77   32.08
   4   5   0  240.55   14.21
  -4   5   0  280.88   18.33
  -4   5   0  259.55    8.93
  -4   5  -1  173.61   11.88
   4   5   1  163.30   12.90
  -4   5  -1  164.03   14.40
  -4   5  -2  386.98   19.64
  -4   5  -2  372.39   22.95
  -4   5  -3   19.65    6.83
  -4   5  -3   22.77    6.00
  -4   5  -4  197.89   16.20
  -4   5  -4  256.88   21.15
  -4   5  -5  624.94   31.05
  -4   5  -6  137.17   15.63
  -4   5  -7    2.04    4.72
  -4   5  -8   94.79   14.85
   4   6 -11    2.57    5.22
   4   6 -10   23.25    7.55
   4   6  -9  470.45   28.58
   4  -6  -8   59.24    6.55
   4   6  -8   65.63   10.79
   4   6  -7  965.68   38.96
   4  -6  -7  954.44   24.06
   4  -6  -6  208.59    6.58
   4   6  -6  236.80   17.84
   4  -6  -6  229.44    6.92
  -4  -6   5  897.51   24.48
   4   6  -5  899.22   34.19
   4   6  -4  268.58   17.85
  -4  -6   4  267.94   12.59
   4   6  -3  232.74   16.43
  -4  -6   3  220.15   11.77
  -4   6   2  188.05   15.01
  -4  -6   2  164.90   10.89
   4   6  -2  152.92   12.95
  -4   6   1  592.15   26.88
   4   6  -1  512.46   24.07
   4   6   0  287.98   15.40
  -4   6   0  344.06   20.64
  -4   6   0  316.26    8.90
   4   6   1 1121.53   34.94
  -4   6  -1 1175.50   26.81
  -4   6  -1 1225.42   41.21
  -4   6  -2  420.43   17.78
  -4   6  -2  450.66   25.34
  -4   6  -3  502.21   28.19
  -4   6  -3  529.04   25.44
  -4   6  -4   51.48    9.11
  -4   6  -4   79.31   13.10
  -4   6  -5   16.92    6.21
  -4   6  -6  266.33   22.08
  -4   6  -7   43.93    9.90
   4   7 -11    8.76    5.07
   4   7 -10  119.20   15.73
   4   7  -9   51.85   10.80
   4   7  -8    9.53    5.61
   4   7  -7  158.55   15.89
   4  -7  -7  146.25    8.32
  -4  -7   6  100.20    7.39
   4   7  -6  111.95   12.78
  -4  -7   5   26.62    3.93
   4   7  -5   18.44    5.49
   4   7  -4  293.75   19.45
  -4  -7   4  268.01   11.70
   4   7  -3  487.91   24.95
  -4  -7   3  433.85   16.16
  -4   7   2  382.80   21.71
   4   7  -2  378.53   21.44
   4   7  -1   24.23    6.08
  -4   7   1   32.11    6.34
  -4   7   0   26.44    6.28
  -4   7   0   26.01    2.38
   4   7   1  763.01   28.05
  -4   7  -1  804.32   20.49
  -4   7  -1  840.01   34.22
  -4   7  -2    9.78    3.00
  -4   7  -2    0.98    4.56
  -4   7  -3  171.90   16.92
  -4   7  -3  157.66   12.11
  -4   7  -4  189.00   19.28
  -4   7  -4  192.85   14.95
  -4   7  -5   27.64    6.74
  -4   7  -6  106.99   12.92
  -4   7  -7  853.42   39.27
  -4   7  -8   37.24    9.64
   4   8 -10   53.23   11.04
   4   8  -9   11.41    6.67
   4   8  -8  309.36   23.96
   4   8  -7   -6.00    4.92
  -4  -8   6    5.83    1.70
   4   8  -6    5.30    4.59
  -4  -8   5   28.68    3.45
   4   8  -5   32.72    7.38
   4   8  -4  162.61   15.37
   4   8  -3   55.10    9.25
  -4   8   2   17.24    5.06
   4   8  -2   15.70    5.08
   4   8  -1   13.29    4.78
  -4   8   1   13.68    4.92
  -4   8   0    5.16    4.67
  -4   8   0    3.91    1.32
   4   8   1    5.23    3.00
  -4   8  -1    7.14    2.28
   4   8   2 1082.68   36.44
  -4   8  -2 1149.34   29.80
  -4   8  -2 1208.44   43.33
  -4   8  -3   70.30    8.00
  -4   8  -3   53.69    9.85
  -4   8  -4  313.59   23.83
  -4   8  -4  310.62   18.57
  -4   8  -5   11.57    4.54
  -4   8  -6  260.95   19.71
  -4   8  -7   -3.97    4.97
  -4   8  -8  177.24   19.18
   4   9  -9   20.66    7.46
   4   9  -8    1.83    4.45
   4   9  -7  145.01   16.24
   4   9  -6  232.53   20.12
   4   9  -5  199.78   18.42
   4   9  -4  153.73   15.72
   4   9  -3  326.03   22.46
  -4   9   2  335.84   21.10
   4   9  -2  315.75   21.67
   4   9  -1    3.66    3.78
  -4   9   1    5.29    3.67
  -4   9   0  147.34    6.16
  -4   9   0  173.16   15.50
   4  -9   0  131.50   10.79
  -4   9  -1  430.26   14.64
  -4   9  -1  426.60   24.89
  -4   9  -2    0.33    5.23
  -4   9  -2   -2.52    2.83
  -4   9  -3   42.70    9.31
  -4   9  -3   41.59    6.28
  -4   9  -4  122.43   15.83
  -4   9  -4  115.35   11.58
  -4   9  -5   -3.71    4.67
   4  10  -8   -3.37    5.46
   4  10  -7  417.23   28.42
   4  10  -6  459.01   29.27
   4  10  -5  259.33   21.34
   4  10  -4  231.30   19.93
   4  10  -3   15.79    6.22
  -4  10   2   35.73    7.33
   4  10  -2   36.73    8.53
   4  10  -1  323.75   22.63
  -4  10   1  339.20   21.86
  -4  10   0  478.39   26.21
  -4  10  -1  433.96   25.52
  -4  10  -2   21.26    6.65
  -4  10  -3  211.48   19.57
  -4  10  -4  121.57   15.71
   4  11  -7   89.32   13.52
   4  11  -6   -1.15    4.56
   4  11  -5  978.11   43.43
   4  11  -4  330.89   24.65
   4  11  -3  114.97   14.44
  -4  11   2  253.67   19.29
   4  11  -2  244.75   20.63
   4  11  -1  539.71   30.83
  -4  11   1  560.70   28.92
  -4  11   0    4.92    3.95
  -4  11  -1  100.49   12.57
  -4  11  -2   65.40   10.67
  -4  11  -3    4.90    4.71
  -4  11  -4   82.61   14.48
   4  12  -6  421.38   29.99
   4  12  -5   18.49    7.15
   4  12  -4    4.78    4.93
  -4  12   3   22.74    6.53
   4  12  -3   13.74    6.50
   4  12  -2   -4.54    5.00
  -4  12   2   -0.70    3.81
  -4  12   1   49.85    9.25
   4  12  -1   68.22   11.55
  -4  12   0  671.58   33.18
  -4  12  -1   -0.08    4.66
  -4  12  -2   62.81   11.14
  -4  12  -3   69.56   11.72
  -4  12  -4  136.51   17.57
  -4  13   3    1.67    4.89
   4  13  -2   62.33   11.94
  -4  13   2   55.14    9.97
  -4  13   1  156.95   16.54
  -4  13   0  187.89   17.71
  -4  13  -1   11.34    5.45
  -4  13  -2    2.27    5.30
  -4  13  -3   40.75   10.14
  -4  14   3   24.20    6.90
  -4  14   2  101.00   13.23
  -4  14   1    0.98    4.73
  -4  14   0   -5.72    7.37
  -4  14  -1   34.49    8.13
   5   0 -12    5.24    4.66
   5   0 -11   29.86    7.02
   5   0 -10   -4.44    4.05
   5   0  -9  166.57   13.98
   5   0  -8    6.76    3.99
  -5   0   7   16.71    3.63
   5   0  -7   28.47    5.59
  -5   0   6   -2.26    2.14
   5   0  -6    0.09    2.13
   5   0  -5  919.65   26.20
  -5   0   4    0.76    1.82
  -5   0   4    0.67    2.85
   5   0  -4   -1.25    1.85
  -5   0   3  230.76   16.78
  -5   0   3  221.03   11.70
  -5   0   2   -0.39    3.36
  -5   0   2    0.49    1.63
  -5   0   1  413.53   16.66
  -5   0   1  396.60   22.51
  -5   0   0   -6.60    5.47
  -5   0   0    3.12    2.46
  -5   0  -1   36.27    6.07
  -5   0  -1   38.47    8.22
  -5   0  -2    5.19    3.73
  -5   0  -2    9.03    7.30
  -5   0  -2   -3.28    3.61
  -5   0  -3   63.48    9.25
  -5   0  -4   -1.71    3.80
  -5   0  -5 1869.72   58.59
  -5   0  -6    1.47    4.76
  -5   0  -7  197.36   21.11
   5   1 -13   12.37    6.60
   5   1 -12   -9.82    6.70
   5  -1 -11   70.89   10.47
   5   1 -11   56.45    9.98
   5   1 -10  190.80   16.70
   5  -1 -10  199.23   15.90
   5   1  -9  297.59   19.52
   5  -1  -9  324.15   18.78
   5   1  -8   45.63    7.50
   5  -1  -8   51.97    7.10
  -5  -1   7  425.68   18.39
   5   1  -7  476.94   21.64
   5  -1  -7  484.65   19.33
  -5   1   7  392.22   13.02
  -5   1   6  236.85    9.34
   5  -1  -6  236.29   12.07
   5   1  -6  245.62   14.53
   5  -1  -5   51.49    5.39
   5   1  -5   62.67    7.03
  -5  -1   5   58.98    7.47
   5   1  -4   71.77    7.32
  -5  -1   4   83.79    8.07
  -5  -1   4   71.59    9.16
  -5   1   3  370.46   21.75
  -5  -1   3  343.70   19.98
  -5  -1   3  340.85   15.53
  -5   1   3  361.76   13.78
  -5   1   2   53.03    8.32
  -5  -1   2   61.17    8.72
  -5  -1   2   58.06    6.51
  -5   1   2   57.57    5.31
  -5   1   1  794.79   22.21
  -5  -1   1  767.50   24.92
  -5   1   1  810.92   33.17
  -5  -1   1  780.25   31.64
  -5   1   0 1499.79   34.78
  -5  -1   0 1461.03   38.12
  -5   1   0 1483.10   37.95
  -5   1   0 1434.43   45.96
  -5  -1   0 1490.32   46.39
  -5  -1  -1  129.32   14.04
  -5   1  -1  117.87    9.86
  -5  -1  -1  118.32   10.86
  -5   1  -1  131.78   11.23
  -5   1  -1  133.33   14.13
  -5   1  -2   83.78    9.19
  -5   1  -2  102.02   13.58
  -5  -1  -2  111.52   14.81
  -5   1  -2   83.85    9.79
  -5   1  -3  167.56   14.70
  -5   1  -3  193.16   20.23
  -5   1  -4  508.99   27.42
  -5  -1  -4  489.17   27.00
  -5  -1  -5   11.31    6.03
  -5   1  -5    3.24    3.99
  -5   1  -6  180.89   18.54
  -5  -1  -6  207.58   19.64
  -5   1  -7   45.59    9.60
   5   2 -13   75.33   12.84
   5   2 -12  144.78   16.99
   5   2 -11   -3.07    4.10
   5   2 -10   72.50   10.53
   5  -2 -10   81.33    9.74
   5   2  -9  198.44   16.66
   5  -2  -9  189.25   13.69
  -5  -2   8  188.01   13.85
   5   2  -8  225.95   16.90
   5  -2  -8  243.91   14.18
  -5  -2   7  533.63   22.68
   5   2  -7  542.39   24.46
   5  -2  -7  559.69   19.25
   5  -2  -6  916.93   22.95
   5   2  -6  961.15   31.66
  -5  -2   5    7.06    3.03
   5  -2  -5    6.96    2.19
   5   2  -5   11.23    3.74
  -5  -2   4 1180.09   37.50
   5   2  -4 1134.63   32.63
  -5   2   4 1134.60   18.37
  -5  -2   4 1192.83   33.97
   5   2  -3  335.71   16.83
  -5   2   3  361.85   21.66
  -5  -2   3  370.72   20.19
  -5  -2   3  378.27   17.85
  -5   2   3  365.26   11.39
  -5   2   3  369.33   11.65
  -5   2   2  578.76   27.62
  -5  -2   2  603.42   23.04
  -5   2   2  599.27   15.92
  -5   2   2  581.16   17.62
  -5  -2   2  562.32   25.67
  -5   2   1  810.44   20.67
  -5  -2   1  785.81   26.51
  -5   2   1  866.85   34.51
  -5   2   1  807.75   23.94
  -5  -2   1  719.87   29.88
  -5  -2   0  254.15   18.28
  -5   2   0  278.14   12.82
  -5  -2   0  271.85   15.92
  -5   2   0  267.41   14.69
  -5   2   0  258.63   19.26
  -5   2  -1   73.16    7.35
  -5  -2  -1   83.89   11.75
  -5   2  -1   61.57   10.02
  -5   2  -1   75.06    8.60
  -5   2  -2  353.44   24.33
  -5   2  -2  367.65   18.50
  -5   2  -2  387.98   20.88
  -5   2  -3  144.26   17.01
  -5   2  -3  125.14   12.80
  -5   2  -4  617.37   30.65
  -5   2  -5  166.18   16.59
  -5  -2  -5  176.48   17.12
  -5   2  -6  205.61   19.82
  -5  -2  -6  223.49   20.30
  -5   2  -7   49.31   10.42
   5   3 -12   61.66   11.86
   5   3 -11   62.11   10.48
   5   3 -10   37.98    8.19
   5   3  -9  443.46   26.06
   5  -3  -9  429.92   19.86
   5   3  -8  891.50   35.63
   5  -3  -8  969.35   27.55
   5  -3  -7  226.06   10.62
   5   3  -7  239.73   16.84
   5  -3  -6    8.19    1.87
   5   3  -6   14.14    4.71
  -5  -3   5   -0.15    2.67
  -5  -3   5    1.48    2.92
   5   3  -5    3.95    3.57
  -5  -3   4   16.97    5.04
   5   3  -4   13.20    4.43
  -5  -3   4   12.60    4.36
  -5   3   3  450.84    9.69
  -5   3   3  457.62   24.96
   5   3  -3  442.90   20.59
  -5  -3   3  444.47   21.86
  -5  -3   3  461.85   21.05
  -5   3   2 1478.07   46.26
  -5   3   2 1528.53   29.54
  -5  -3   2 1430.16   39.42
  -5   3   2 1439.22   22.56
  -5  -3   2 1379.41   41.28
  -5   3   1  688.36   21.21
  -5  -3   1  668.62   25.69
  -5   3   1  689.84   16.67
  -5   3   1  682.29   30.90
  -5  -3   1  628.78   27.76
  -5  -3   0  288.98   19.06
  -5   3   0  302.62   12.56
  -5   3   0  314.88   15.69
  -5   3   0  309.84   21.04
  -5   3  -1  369.71   15.89
  -5   3  -1  387.60   19.17
  -5  -3  -1  389.06   23.96
  -5   3  -1  379.92   24.00
  -5   3  -2  501.59   29.29
  -5   3  -2  450.29   19.94
  -5   3  -2  470.89   22.99
  -5   3  -3   16.83    8.45
  -5   3  -3    6.13    4.50
  -5   3  -4   51.39    9.65
  -5   3  -5   47.43    9.54
  -5  -3  -6    3.55    4.61
  -5   3  -6    3.84    4.06
  -5   3  -7   58.21   11.24
   5   4 -12   49.42   10.55
   5   4 -11    9.93    5.52
   5   4 -10   42.93    9.31
   5   4  -9   28.00    7.45
   5   4  -8   20.14    6.54
   5  -4  -7  729.42   17.24
   5   4  -7  834.08   33.53
   5   4  -6   53.45    8.32
  -5  -4   5  178.22   13.38
   5   4  -5  184.46   14.44
  -5  -4   4   40.48    6.68
   5   4  -4   48.68    7.50
   5   4  -3 1587.18   43.87
  -5  -4   3 1628.81   43.79
  -5   4   2  122.16   13.42
  -5  -4   2  116.08   11.11
  -5   4   1   50.57    8.55
  -5   4   1   43.78    2.64
  -5   4   1   47.47    5.34
  -5  -4   1   34.32    7.05
  -5  -4   0   26.08    6.79
  -5   4   0   20.46    4.75
  -5   4   0   23.32    3.58
  -5   4   0   23.82    4.73
  -5   4  -1   -0.93    5.02
  -5   4  -1    2.00    2.00
  -5   4  -1    8.62    3.83
  -5   4  -2   74.85   11.76
  -5   4  -2   68.11    8.83
  -5   4  -3  988.72   36.68
  -5   4  -3  994.97   43.41
  -5   4  -4   55.97    9.46
  -5   4  -5  275.14   21.88
  -5  -4  -6   75.59   13.22
  -5   4  -6   70.97   12.25
  -5   4  -7  208.28   21.94
   5   5 -11   37.56   11.37
   5   5 -10    0.22    4.70
   5   5  -9   15.90    5.93
   5   5  -8  393.85   24.79
   5   5  -7   37.53    8.08
  -5  -5   6  169.97   12.63
   5   5  -6  172.84   15.20
   5   5  -5    0.21    3.21
  -5  -5   5    2.48    2.73
   5   5  -4  216.83   16.45
  -5  -5   4  223.66   14.64
  -5   5   3   -1.34    3.35
   5   5  -3    1.30    2.71
  -5  -5   3   -0.73    3.45
  -5  -5   2  550.81   24.23
   5   5  -2  560.13   25.96
  -5   5   2  617.27   30.45
  -5  -5   1  239.30   16.43
  -5   5   1  249.69   19.19
  -5   5   0   18.40    2.54
  -5   5   0    7.72    4.18
  -5   5   0   11.76    3.49
  -5   5   0   12.32    2.27
  -5   5  -1  493.05   21.96
  -5   5  -1  468.43   27.12
  -5   5  -2  718.18   35.44
  -5   5  -2  689.59   28.43
  -5   5  -3  484.90   25.49
  -5   5  -3  476.89   29.83
  -5   5  -4   57.41   13.56
  -5   5  -4   28.44    7.15
  -5   5  -5    8.56    5.14
  -5   5  -6   14.34    6.60
   5   6 -11  141.60   17.58
   5   6 -10   -5.75    5.30
   5   6  -9   59.13   11.30
   5   6  -8  227.98   19.19
  -5  -6   7    0.76    2.77
   5   6  -7    0.49    4.53
   5   6  -6   38.63    8.08
  -5  -6   6   33.73    5.48
   5   6  -5  347.72   21.88
  -5  -6   5  360.46   17.46
   5   6  -4  252.44   18.49
  -5  -6   4  246.59   14.41
  -5   6   3   21.28    5.15
  -5  -6   3   22.01    5.15
   5   6  -3   18.52    5.48
   5   6  -2  382.71   22.42
  -5   6   2  433.65   25.57
  -5  -6   2  352.74   18.92
  -5   6   1    9.21    4.62
  -5   6   0   51.65    9.42
  -5   6  -1  226.74   10.77
  -5   6  -1  205.96   18.52
  -5   6  -2  105.87   11.23
  -5   6  -2  123.57   14.76
  -5   6  -3   84.45   13.68
  -5   6  -3   73.06   10.37
  -5   6  -4  504.59   28.20
  -5   6  -4  552.37   35.10
  -5   6  -5   97.90   13.59
  -5   6  -6  383.40   27.66
   5   7 -10  523.43   33.55
   5   7  -9    8.09    6.31
   5   7  -8  200.21   19.03
   5   7  -7    3.83    4.36
  -5  -7   6   89.03    8.47
   5   7  -6   77.39   11.41
  -5  -7   5   32.27    4.83
   5   7  -5   49.91    9.07
  -5  -7   4  292.62   15.27
   5   7  -4  312.09   21.57
  -5   7   3   -0.06    4.71
   5   7  -3   -2.48    4.07
   5   7  -2  150.22   14.81
  -5   7   2  164.37   16.22
  -5   7   1   85.05   11.52
  -5   7   0 1309.81   47.55
  -5   7  -1  324.44   23.28
  -5   7  -2   -0.52    5.01
  -5   7  -3   65.01   12.39
  -5   7  -4   56.94   12.88
   5   8  -9   91.44   14.13
   5   8  -8  106.40   14.50
   5   8  -7   37.04    8.50
   5   8  -6    0.67    4.83
   5   8  -5 1527.39   52.23
   5   8  -4   27.11    7.12
  -5   8   3  100.01   13.01
   5   8  -3   80.11   11.27
   5   8  -2   18.74    6.11
  -5   8   2   32.92    7.76
  -5   8   1  172.85   16.54
  -5   8   0   25.06    7.54
  -5   8  -1  760.62   36.56
  -5   8  -2    2.66    5.89
  -5   8  -3   72.10   12.66
  -5   8  -4   32.81   10.49
   5   9  -8   27.85    8.59
   5   9  -7   30.51    8.53
   5   9  -6  293.69   23.30
   5   9  -5   12.81    6.58
   5   9  -4  426.12   26.90
  -5   9   3   87.45   12.42
   5   9  -3   78.90   12.03
   5   9  -2   46.42    9.06
  -5   9   2   49.61    9.94
  -5   9   1  235.91   20.05
  -5   9   0  406.53   26.85
  -5   9  -1  433.08   27.81
  -5   9  -2   72.08   12.24
  -5   9  -3   64.37   12.65
  -5   9  -4   40.44   11.92
   5  10  -7   24.29    9.00
   5  10  -6   92.19   13.65
   5  10  -5  200.44   20.07
   5  10  -4  156.27   17.42
  -5  10   3  198.79   18.65
   5  10  -3  185.97   18.77
   5  10  -2  118.55   14.74
  -5  10   2  115.88   14.59
  -5  10   1    1.53    4.61
  -5  10   0    1.17    4.45
  -5  10  -1  136.20   15.93
  -5  10  -2   59.84   11.77
  -5  10  -3   94.34   14.49
   5  11  -5   -3.30    4.76
  -5  11   4   91.26   13.09
   5  11  -4  109.19   15.31
   5  11  -3    5.75    5.09
  -5  11   3    2.37    4.66
   5  11  -2  226.48   21.34
  -5  11   2  209.85   19.57
  -5  11   1   19.34    7.79
  -5  11   0   20.58    6.19
  -5  11  -1   20.59    6.66
  -5  11  -2  354.34   26.77
  -5  12   4   55.32   10.75
  -5  12   3  325.88   25.07
  -5  12   2    0.69    4.79
  -5  12   1   39.54    9.81
  -5  12   0   68.57   11.75
  -5  12  -1   36.84    8.82
  -5  13   2  128.26   15.72
  -5  13   1  239.16   22.12
   6   0  -8  206.38   14.22
   6   0  -7    0.22    2.77
   6   0  -6  484.39   19.52
  -6   0   5   -1.32    3.85
  -6   0   4  354.59   23.27
  -6   0   3    2.11    3.79
  -6   0   2 1335.05   47.03
  -6   0   1    3.16    4.01
  -6   0   0   86.55   12.70
  -6   0  -1    3.85    3.92
  -6   0  -1    9.12    7.46
  -6   0  -2   94.70   15.38
  -6   0  -2   66.67   10.03
  -6   0  -3    1.77    3.81
  -6   0  -4  284.12   22.73
  -6   0  -5   -5.60    5.00
   6   1  -9   24.32    6.38
   6   1  -8   58.79    8.26
   6   1  -7 1075.68   34.20
  -6  -1   6  188.27   16.95
   6  -1  -6  169.03   10.29
   6   1  -6  206.02   13.68
  -6   1   5  127.13   14.03
   6   1  -5  112.75    9.92
  -6  -1   5  109.28   13.00
  -6  -1   4   39.96    8.03
  -6  -1   4   35.28    6.11
  -6   1   4   36.45    8.14
  -6   1   3   25.18    6.85
  -6  -1   3   33.08    8.28
  -6  -1   3   24.32    4.84
  -6   1   2   78.85   12.14
  -6  -1   2   61.92    7.62
  -6  -1   2   52.07    8.85
  -6  -1   1  554.96   23.26
  -6   1   1  544.10   22.10
  -6   1   1  561.81   31.03
  -6  -1   1  520.17   28.80
  -6   1   0   37.57    6.30
  -6   1   0   40.26    9.02
  -6  -1   0   43.10    9.91
  -6   1  -1   51.62   11.01
  -6   1  -1   51.88    8.18
  -6  -1  -1   71.66   12.99
  -6   1  -2  419.14   29.09
  -6   1  -2  425.53   24.38
  -6   1  -3  453.84   26.63
  -6  -1  -3  410.80   25.40
  -6   1  -4  414.27   26.95
  -6  -1  -4  377.58   26.02
  -6  -1  -5   11.40    6.48
  -6   1  -5   -0.78    5.48
   6   2 -10   18.01    6.82
   6   2  -9   56.93    9.28
   6   2  -8  233.20   16.93
   6   2  -7   10.64    4.00
  -6  -2   6  192.26   16.55
   6   2  -6  213.06   15.24
  -6   2   5   50.09    9.57
   6   2  -5   50.72    7.54
  -6  -2   5   47.80    8.75
  -6  -2   4   14.98    4.74
  -6  -2   4   18.31    6.23
  -6   2   4   15.45    5.69
  -6   2   3  585.84   31.02
  -6   2   3  564.90   17.03
  -6  -2   3  555.32   23.58
  -6  -2   3  523.32   27.85
  -6   2   2  291.67   14.00
  -6   2   2  292.46   22.07
  -6  -2   2  267.49   19.77
  -6   2   1  490.24   20.32
  -6   2   1  459.97   28.07
  -6  -2   1  459.41   27.16
  -6  -2   0  375.66   24.87
  -6   2   0  403.98   20.23
  -6   2   0  387.99   26.30
  -6   2  -1  498.28   30.86
  -6  -2  -1  440.98   28.58
  -6   2  -1  480.40   24.08
  -6   2  -2    9.35    7.14
  -6   2  -2    8.59    4.12
  -6   2  -3   30.86   11.72
  -6   2  -3    4.48    3.91
  -6  -2  -4   95.03   13.42
  -6   2  -4   94.99   13.14
  -6   2  -5  225.96   21.20
  -6  -2  -5  219.08   20.93
   6   3 -11   26.49    7.61
   6   3 -10   11.88    5.63
   6   3  -9  265.04   19.88
   6   3  -8   -1.29    3.77
  -6  -3   7    0.34    3.38
   6   3  -7    3.64    4.02
   6   3  -6   37.83    6.91
  -6  -3   6   46.81    8.62
  -6   3   5 1010.79   41.98
   6   3  -5  960.17   33.74
  -6  -3   5  948.48   36.54
   6   3  -4  188.57   14.47
  -6   3   4  217.05   19.07
  -6  -3   4  203.70   16.52
  -6   3   3  153.62   16.25
  -6  -3   3  142.68   14.06
  -6  -3   2   37.95    7.89
  -6   3   2   36.89    7.89
  -6   3   2   38.55    4.89
  -6  -3   1  172.69   16.43
  -6   3   1  183.10   11.96
  -6   3   1  195.12   18.50
  -6  -3   0   24.10    7.66
  -6   3   0   23.15    5.11
  -6   3   0   17.74    5.97
  -6   3  -1  611.73   26.92
  -6   3  -1  631.52   35.19
  -6   3  -2  372.01   27.61
  -6   3  -2  389.63   22.94
  -6   3  -3  130.32   14.38
  -6   3  -3  144.75   19.40
  -6   3  -4  172.48   17.73
  -6   3  -5  353.10   26.44
   6   4 -11   46.65    9.87
   6   4 -10  362.41   25.46
   6   4  -9  133.67   14.86
   6   4  -8   19.52    6.39
  -6  -4   7   12.89    4.79
   6   4  -7   19.02    5.65
   6   4  -6   45.52    8.17
  -6  -4   6   58.80    8.77
   6   4  -5  119.14   12.18
  -6  -4   5  113.34   12.20
   6   4  -4  716.46   30.35
  -6   4   4  805.68   37.60
  -6  -4   4  731.58   31.11
  -6   4   3  167.88   17.41
  -6  -4   3  151.46   14.26
  -6   4   2  268.28   21.72
  -6  -4   2  241.39   18.81
  -6   4   1    1.55    6.13
  -6  -4   1   20.79    6.77
  -6   4   0  934.04   30.36
  -6  -4   0  815.54   37.82
  -6   4   0  919.36   41.42
  -6   4  -1   17.40    6.36
  -6   4  -1   23.73    6.17
  -6   4  -2   19.04    8.17
  -6   4  -2   21.45    6.05
  -6   4  -3   47.80   13.02
  -6   4  -3   25.62    7.09
  -6   4  -4   -2.91    5.25
  -6   4  -5    0.43    4.88
   6   5 -11    9.31    7.34
   6   5 -10   93.51   13.70
   6   5  -9   97.56   13.27
  -6  -5   8  268.10   18.98
   6   5  -8  299.86   22.15
   6   5  -7   16.04    6.21
  -6  -5   7   10.11    4.32
   6   5  -6  515.42   27.64
  -6  -5   6  513.68   25.31
   6   5  -5  374.81   22.86
  -6  -5   5  375.23   21.45
   6   5  -4   64.23    9.70
  -6   5   4   65.87   10.95
  -6  -5   4   58.11    8.38
  -6  -5   3    6.81    4.32
  -6   5   3    5.95    6.04
  -6   5   2   83.07   12.60
  -6  -5   2   89.20   11.46
  -6   5   1   -1.15    5.64
  -6  -5   1   19.73    7.49
  -6   5   0  206.68   19.94
  -6   5  -1  423.82   29.65
  -6   5  -2  370.91   28.45
  -6   5  -2  374.81   22.38
  -6   5  -3   35.37   11.48
  -6   5  -3   15.73    5.90
  -6   5  -4   19.30    7.14
  -6   5  -5  135.84   16.59
   6   6 -10   65.34   12.03
   6   6  -9   59.52   11.42
   6   6  -8    7.46    5.71
   6   6  -7   14.31    6.07
  -6  -6   6   41.79    7.47
   6   6  -6   38.11    8.42
   6   6  -5  295.62   21.23
  -6  -6   5  255.68   17.02
  -6   6   4  169.83   18.00
   6   6  -4  146.35   14.66
  -6  -6   4  146.44   13.26
  -6  -6   3  610.47   27.80
  -6   6   3  788.71   38.32
  -6  -6   2  103.14   12.52
  -6   6   2  117.01   15.39
  -6   6   1  425.39   28.70
  -6   6   0   -9.93    7.99
  -6   6  -1   23.86    7.75
  -6   6  -2  180.35   20.40
   6   7  -9   40.13    9.35
   6   7  -8  149.10   16.95
   6   7  -7  177.41   17.92
   6   7  -6  154.67   16.74
   6   7  -5   20.59    5.98
   6   7  -4   71.86   11.29
  -6   7   4   82.56   13.17
   6   7  -3  273.16   21.26
  -6   7   3  311.38   24.86
  -6  -7   3  259.09   17.94
  -6   7   2   48.36   10.04
  -6   7   1   44.85   10.30
  -6   7   0  119.51   15.80
  -6   7  -1    2.93    5.53
   6   8  -8  107.14   15.06
   6   8  -7    8.16    4.55
   6   8  -6   51.59   10.41
  -6   8   5   -0.50    4.63
   6   8  -5    6.26    5.74
   6   8  -4    2.55    4.73
  -6   8   4   19.10    7.57
   6   8  -3   17.26    6.58
  -6   8   3   11.62    7.07
  -6   8   2  846.00   41.45
  -6   8   1   11.22    5.17
  -6   8   0   55.09   11.63
  -6   8  -1    1.22    6.09
   6   9  -7   60.61   12.29
   6   9  -6  185.91   19.66
   6   9  -5   75.38   12.81
   6   9  -4   94.82   13.82
  -6   9   4   94.30   14.61
   6   9  -3  330.42   25.67
  -6   9   3  357.23   26.94
  -6   9   2   32.33    8.91
  -6   9   1   19.78    8.07
  -7   0   7   -0.51    4.61
  -7   0   6   -9.53    6.41
  -7   0   5  438.46   28.72
  -7   0   4    2.26    4.43
  -7   0   3   15.31    6.45
  -7   0   2  -15.10    8.21
  -7   0   1   66.30   12.06
  -7   0   0    7.26    6.96
  -7   0  -1 1182.36   52.84
  -7   0  -1 1341.80   46.08
  -7   0  -2    6.51    5.36
  -7   0  -3   99.32   14.08
  -7  -1   8   49.18   10.33
  -7   1   7   52.07   10.94
  -7  -1   7   69.95   11.65
  -7   1   6   38.51    9.23
  -7  -1   6   39.01    9.62
  -7   1   5  188.28   19.50
  -7  -1   5  192.34   18.92
  -7   1   4  314.71   24.71
  -7  -1   4  288.46   23.41
  -7   1   3  311.90   25.09
  -7  -1   3  285.21   23.26
  -7  -1   2   71.05   12.03
  -7   1   2   49.28    9.56
  -7   1   1   43.83   10.58
  -7  -1   1   50.50   10.93
  -7   1   0  353.16   27.67
  -7  -1   0  343.84   27.12
  -7  -1  -1    8.95    5.28
  -7  -1  -1   34.63   12.33
  -7  -1  -2   82.42   12.27
  -7  -1  -3  123.76   15.86
  -7  -2   8  560.27   32.31
  -7   2   7  112.06   14.99
  -7  -2   7   92.32   13.06
  -7  -2   6   24.03    7.85
  -7   2   6   -0.61    5.65
  -7  -2   5   97.02   13.31
  -7   2   5  107.03   15.00
  -7   2   4    3.77    5.49
  -7  -2   4  -11.12    7.62
  -7   2   3   17.68    7.84
  -7  -2   3   -0.74    5.36
  -7   2   2  238.67   22.18
  -7  -2   2  222.69   20.68
  -7  -2   1  133.84   16.90
  -7   2   1  143.66   17.67
  -7   2   0  479.31   32.67
  -7  -2   0  442.09   30.18
  -7  -2  -2  139.09   16.24
  -7  -2  -3    1.03    4.03
  -7  -3   9    1.02    4.65
  -7  -3   8    0.33    4.47
  -7  -3   7  143.11   16.17
  -7   3   6  604.69   35.32
  -7  -3   6  560.52   31.20
  -7   3   5  409.49   29.34
  -7  -3   5  414.93   26.87
  -7   3   4   11.59    6.22
  -7  -3   4   -1.95    5.20
  -7  -3   3   89.32   12.84
  -7   3   3  116.59   16.19
  -7  -3   2  431.48   28.16
  -7   3   2  533.00   33.59
  -7  -3   1    1.92    5.65
  -7   3   1    1.65    5.00
  -7  -3   0   68.11   13.39
  -7  -4   7  552.25   30.23
  -7  -4   6   38.37    8.86
  -7   4   6   34.86    8.94
   7   4  -6   39.11    8.34
  -7  -4   5   13.07    5.43
  -7   4   5   30.73    9.50
  -7   4   4  123.90   16.77
  -7  -4   4   93.07   12.51
  -7   4   3   18.22    7.87
  -7  -4   3    8.92    5.35
  -7  -4   2   35.19    9.28
  -7   4   2   29.04    8.53
  -7  -4   1  615.59   34.35
   7   5  -8   49.32   10.08
   7   5  -7   -6.40    4.77
   7   5  -6  138.46   15.19
   7   5  -5   53.84    9.84
  -7  -5   5   39.04    7.89
  -7  -5   4    8.77    5.17
  -7  -5   3  181.90   17.53
  -7  -5   2  273.60   22.13
   7   6  -8   46.12   10.34
   7   6  -7    1.27    4.12
   7   6  -6  111.89   14.21
   7   6  -5   27.18    7.42
   7   7  -8  139.55   18.13
   7   7  -7   -1.43    4.91
   7   7  -6   53.27   10.92
   7   7  -5   39.59    8.97
   7   8  -5   25.15    8.11
  -8  -3   5   36.36    9.49
  -8  -3   4    1.06    5.58
   0   0   0    0.00    0.00


TITL SA2279 in P2(1)/n
REM P2(1)/n (#14 in standard setting)
CELL 0.71073   6.016486  12.713570  10.453466  90.0000 106.6713  90.0000
ZERR   18.00   0.000391   0.000746   0.000705   0.0000   0.0073   0.0000
LATT  1
SYMM -x+1/2, y+1/2,-z+1/2
SFAC C N Cl Cu Br
UNIT 18.00 18.00 18.00 18.00 18.00
TREF
HKLF 4
END
_computing_structure_solution     'SHELXT 2014/5 (Sheldrick, 2014)'
;
_shelx_hkl_checksum              43705
loop_
_space_group_symop_operation_xyz
'x, y, z'
'-x+1/2, y+1/2, -z+1/2'
'-x, -y, -z'
'x-1/2, -y-1/2, z-1/2'
loop_
_atom_site_label
_atom_site_type_symbol
_atom_site_fract_x
_atom_site_fract_y
_atom_site_fract_z
_atom_site_U_iso_or_equiv
_atom_site_adp_type
_atom_site_occupancy
_atom_site_site_symmetry_order
_atom_site_calc_flag
_atom_site_refinement_flags_posn
_atom_site_refinement_flags_adp
_atom_site_refinement_flags_occupancy
_atom_site_disorder_assembly
_atom_site_disorder_group
C1 C 0.6198(4) 0.7039(2) 0.6231(3) 0.0174(6) Uani 1 1 d . . . . .
C2 C 0.6035(5) 0.8096(2) 0.6481(3) 0.0219(6) Uani 1 1 d . . . . .
H2 H 0.7310 0.8476 0.7036 0.026 Uiso 1 1 calc R U . . .
C3 C 0.3931(5) 0.8581(2) 0.5886(3) 0.0232(7) Uani 1 1 d . . . . .
H3 H 0.3750 0.9309 0.6030 0.028 Uiso 1 1 calc R U . . .
C4 C -0.0225(5) 0.8513(2) 0.4424(3) 0.0271(7) Uani 1 1 d . . . . .
H4A H -0.0091 0.8964 0.3690 0.041 Uiso 1 1 calc R U . . .
H4B H -0.0707 0.8938 0.5080 0.041 Uiso 1 1 calc R U . . .
H4C H -0.1382 0.7964 0.4073 0.041 Uiso 1 1 calc R U . . .
C5 C 0.2083(4) 0.8012(2) 0.5082(3) 0.0175(6) Uani 1 1 d . . . . .
C6 C 0.2437(4) 0.6958(2) 0.4901(3) 0.0163(6) Uani 1 1 d . . . . .
H6 H 0.1185 0.6555 0.4364 0.020 Uiso 1 1 calc R U . . .
N1 N 0.4484(4) 0.64738(16) 0.5454(2) 0.0148(5) Uani 1 1 d . . . . .
Cl1 Cl 0.64462(11) 0.55813(5) 0.33528(7) 0.02005(16) Uani 1 1 d . . . . .
Cu1 Cu 0.5000 0.5000 0.5000 0.01422(12) Uani 1 2 d S . P . .
Br1 Br 0.89932(4) 0.62909(2) 0.69777(3) 0.02589(11) Uani 1 1 d . . . . .
loop_
_atom_site_aniso_label
_atom_site_aniso_U_11
_atom_site_aniso_U_22
_atom_site_aniso_U_33
_atom_site_aniso_U_23
_atom_site_aniso_U_13
_atom_site_aniso_U_12
C1 0.0139(12) 0.0236(14) 0.0153(14) 0.0026(12) 0.0051(11) 0.0016(11)
C2 0.0253(14) 0.0209(15) 0.0205(16) -0.0049(13) 0.0084(13) -0.0088(12)
C3 0.0348(17) 0.0141(14) 0.0255(18) -0.0003(13) 0.0164(15) -0.0023(12)
C4 0.0260(15) 0.0205(15) 0.035(2) 0.0049(14) 0.0099(15) 0.0117(12)
C5 0.0198(13) 0.0171(13) 0.0183(15) 0.0015(12) 0.0097(12) 0.0013(11)
C6 0.0144(12) 0.0184(13) 0.0173(15) 0.0023(12) 0.0065(11) 0.0002(11)
N1 0.0139(11) 0.0160(11) 0.0153(12) 0.0007(10) 0.0057(10) -0.0013(9)
Cl1 0.0223(3) 0.0195(3) 0.0207(4) 0.0022(3) 0.0100(3) 0.0013(3)
Cu1 0.0138(2) 0.0127(2) 0.0161(3) 0.0004(2) 0.00422(19) 0.00164(17)
Br1 0.01461(15) 0.03506(19) 0.02480(19) 0.00448(14) 0.00055(12) 0.00006(11)
loop_
_atom_type_symbol
_atom_type_description
_atom_type_scat_dispersion_real
_atom_type_scat_dispersion_imag
_atom_type_scat_source
C C 0.0033 0.0016 'International Tables Vol C Tables 4.2.6.8 and 6.1.1.4'
N N 0.0061 0.0033 'International Tables Vol C Tables 4.2.6.8 and 6.1.1.4'
Cl Cl 0.1484 0.1585 'International Tables Vol C Tables 4.2.6.8 and 6.1.1.4'
Cu Cu 0.3201 1.2651 'International Tables Vol C Tables 4.2.6.8 and 6.1.1.4'
Br Br -0.2901 2.4595 'International Tables Vol C Tables 4.2.6.8 and 6.1.1.4'
H H 0.0000 0.0000 'International Tables Vol C Tables 4.2.6.8 and 6.1.1.4'
loop_
_geom_angle_atom_site_label_1
_geom_angle_atom_site_label_2
_geom_angle_atom_site_label_3
_geom_angle
_geom_angle_site_symmetry_1
_geom_angle_site_symmetry_3
N1 C1 C2 124.0(2) . .
N1 C1 Br1 114.98(19) . .
C2 C1 Br1 121.0(2) . .
C1 C2 C3 117.1(3) . .
C1 C2 H2 121.5 . .
C3 C2 H2 121.5 . .
C2 C3 C5 120.7(3) . .
C2 C3 H3 119.7 . .
C5 C3 H3 119.7 . .
C5 C4 H4A 109.5 . .
C5 C4 H4B 109.5 . .
H4A C4 H4B 109.5 . .
C5 C4 H4C 109.5 . .
H4A C4 H4C 109.5 . .
H4B C4 H4C 109.5 . .
C6 C5 C3 117.4(2) . .
C6 C5 C4 120.5(2) . .
C3 C5 C4 122.1(2) . .
N1 C6 C5 122.9(2) . .
N1 C6 H6 118.6 . .
C5 C6 H6 118.6 . .
C1 N1 C6 117.9(2) . .
C1 N1 Cu1 120.80(18) . .
C6 N1 Cu1 121.06(18) . .
N1 Cu1 N1 180.0 3_666 .
N1 Cu1 Cl1 90.34(6) 3_666 .
N1 Cu1 Cl1 89.66(6) . .
N1 Cu1 Cl1 89.66(6) 3_666 3_666
N1 Cu1 Cl1 90.34(6) . 3_666
Cl1 Cu1 Cl1 179.999(18) . 3_666
loop_
_geom_bond_atom_site_label_1
_geom_bond_atom_site_label_2
_geom_bond_distance
_geom_bond_site_symmetry_2
C1 N1 1.327(3) .
C1 C2 1.378(4) .
C1 Br1 1.894(3) .
C2 C3 1.384(4) .
C2 H2 0.9500 .
C3 C5 1.389(4) .
C3 H3 0.9500 .
C4 C5 1.503(4) .
C4 H4A 0.9800 .
C4 H4B 0.9800 .
C4 H4C 0.9800 .
C5 C6 1.379(4) .
C6 N1 1.350(3) .
C6 H6 0.9500 .
N1 Cu1 1.979(2) .
Cl1 Cu1 2.2645(6) .
Cu1 N1 1.979(2) 3_666
Cu1 Cl1 2.2645(7) 3_666
