#------------------------------------------------------------------------------
#$Date: 2022-02-04 21:07:58 +0200 (Fri, 04 Feb 2022) $
#$Revision: 272564 $
#$URL: file:///home/coder/svn-repositories/cod/cif/1/56/53/1565381.cif $
#------------------------------------------------------------------------------
#
# This file is available in the Crystallography Open Database (COD),
# http://www.crystallography.net/
#
# All data on this site have been placed in the public domain by the
# contributors.
#
data_1565381
loop_
_publ_author_name
'Borys, Andryj M.'
'Clark, Ewan R.'
'Saines, Paul J.'
'Alberola, Antonio'
'Rawson, Jeremy M.'
_publ_section_title
;
 A short, versatile route towards benzothiadiazinyl radicals.
;
_journal_issue                   1
_journal_name_full               'Chemical science'
_journal_page_first              149
_journal_page_last               158
_journal_paper_doi               10.1039/d1sc04248c
_journal_volume                  13
_journal_year                    2021
_chemical_formula_moiety         'Cl, C14 H10 Cl4 N3 S, Cl H'
_chemical_formula_sum            'C14 H11 Cl6 N3 S'
_chemical_formula_weight         466.02
_chemical_properties_physical    Moisture-sensitive
_space_group_crystal_system      triclinic
_space_group_IT_number           2
_space_group_name_Hall           '-P 1'
_space_group_name_H-M_alt        'P -1'
_atom_sites_solution_hydrogens   mixed
_atom_sites_solution_primary     dual
_audit_creation_date             2018-06-25
_audit_creation_method
;
Olex2 1.2
(compiled 2018.05.29 svn.r3508 for OlexSys, GUI svn.r5506)
;
_audit_update_record
;
2021-08-03 deposited with the CCDC.	2021-11-23 downloaded from the CCDC.
;
_cell_angle_alpha                90.608(3)
_cell_angle_beta                 101.838(3)
_cell_angle_gamma                105.699(2)
_cell_formula_units_Z            2
_cell_length_a                   8.1354(2)
_cell_length_b                   9.2414(2)
_cell_length_c                   12.9459(6)
_cell_measurement_reflns_used    11291
_cell_measurement_temperature    100.0(5)
_cell_measurement_theta_max      75.5540
_cell_measurement_theta_min      4.9550
_cell_volume                     914.81(5)
_computing_cell_refinement       'CrysAlisPro 1.171.38.41 (Rigaku OD, 2015)'
_computing_data_collection       'CrysAlisPro 1.171.38.41 (Rigaku OD, 2015)'
_computing_data_reduction        'CrysAlisPro 1.171.38.41 (Rigaku OD, 2015)'
_computing_molecular_graphics    'Olex2 (Dolomanov et al., 2009)'
_computing_publication_material  'Olex2 (Dolomanov et al., 2009)'
_computing_structure_refinement  'ShelXL (Sheldrick, 2015)'
_computing_structure_solution    'ShelXT (Sheldrick, 2015)'
_diffrn_ambient_environment      N~2~
_diffrn_ambient_temperature      100.0(5)
_diffrn_detector                 'CCD plate'
_diffrn_detector_area_resol_mean 5.2887
_diffrn_detector_type            AtlasS2
_diffrn_measured_fraction_theta_full 1.000
_diffrn_measured_fraction_theta_max 1.000
_diffrn_measurement_details
;
List of Runs (angles in degrees, time in seconds):

  # Type    Start    End  Width  t~exp~   \w     \q     \k     \f   Frames
#--------------------------------------------------------------------------
  1  \w    -66.00  32.00   1.00    1.50    --  -41.91  38.00-150.00   98
  2  \w   -116.00 -17.00   1.00    1.50    --  -41.91 -38.00  30.00   99
  3  \w    -96.00  -2.00   1.00    1.50    --  -41.91 125.00 -60.00   94
  4  \w    -32.00  66.00   1.00    1.50    --   41.91 -38.00-120.00   98
  5  \w     23.00  98.00   1.00    1.50    --   41.91-125.00 -90.00   75
  6  \w     37.00 117.00   1.00    3.00    --  112.00-115.00 -46.00   80
  7  \w     84.00 178.00   1.00    3.00    --  112.00  30.00-120.00   94
  8  \w     36.00 145.00   1.00    3.00    --  112.00 -77.00 -90.00  109
  9  \w     29.00 109.00   1.00    3.00    --  112.00 -94.00-150.00   80
 10  \w     36.00 140.00   1.00    3.00    --  112.00 -30.00 -90.00  104
 11  \w     57.00 151.00   1.00    3.00    --  112.00 178.00 -90.00   94
 12  \w     36.00 116.00   1.00    3.00    --  112.00-111.00   0.00   80
 13  \w     29.00 109.00   1.00    3.00    --  112.00 -94.00  60.00   80
 14  \w     29.00 109.00   1.00    3.00    --  112.00 -94.00 120.00   80
 15  \w    100.00 178.00   1.00    3.00    --  112.00 111.00   0.00   78
 16  \w     36.00 116.00   1.00    3.00    --  112.00-111.00  90.00   80
 17  \w     79.00 178.00   1.00    3.00    --  112.00  77.00   0.00   99
 18  \w    100.00 178.00   1.00    3.00    --  112.00 111.00  60.00   78
 19  \w     29.00 109.00   1.00    3.00    --  112.00 -94.00 -90.00   80
 20  \w     86.00 178.00   1.00    3.00    --  112.00  45.00 150.00   92
 21  \w     39.00 138.00   1.00    3.00    --  112.00 -45.00  60.00   99
 22  \w    100.00 178.00   1.00    3.00    --  112.00 111.00-150.00   78
 23  \w     59.00 178.00   1.00    3.00    --  112.00  15.00 -30.00  119
 24  \w   -118.00  -9.00   1.00    1.50    --  -41.91 -77.00-150.00  109
 25  \w   -118.00  -9.00   1.00    1.50    --  -41.91 -77.00  30.00  109
 26  \w   -118.00  -9.00   1.00    1.50    --  -41.91 -77.00 -60.00  109
 27  \w     64.00 124.00   1.00    1.50    --   41.91 170.00-173.00   60
 28  \w      9.00 118.00   1.00    1.50    --   41.91  77.00-150.00  109
 29  \w     14.00 114.00   1.00    1.50    --   41.91  57.00 150.00  100
 30  \w     84.00 178.00   1.00    3.00    --  112.00  30.00  90.00   94
 31  \w     83.00 178.00   1.00    3.00    --  112.00  61.00-120.00   95
 32  \w     79.00 178.00   1.00    3.00    --  112.00  77.00 -90.00   99
 33  \w     79.00 178.00   1.00    3.00    --  112.00  77.00  30.00   99
 34  \w     83.00 178.00   1.00    3.00    --  112.00  61.00 -30.00   95
 35  \w     79.00 178.00   1.00    3.00    --  112.00  77.00  90.00   99
 36  \w     79.00 130.00   1.00    3.00    --  112.00  77.00  60.00   51
 37  \w     83.00 178.00   1.00    3.00    --  112.00  61.00-180.00   95
;
_diffrn_measurement_device       'four-circle diffractometer'
_diffrn_measurement_device_type  'SuperNova, Dual, Cu at zero, AtlasS2'
_diffrn_measurement_method       '\w scans'
_diffrn_orient_matrix_type
'CrysAlisPro convention (1999,Acta A55,543-557)'
_diffrn_orient_matrix_UB_11      -0.0742465000
_diffrn_orient_matrix_UB_12      -0.0127934000
_diffrn_orient_matrix_UB_13      -0.1202340000
_diffrn_orient_matrix_UB_21      -0.0584930000
_diffrn_orient_matrix_UB_22      -0.1729592000
_diffrn_orient_matrix_UB_23      0.0011653000
_diffrn_orient_matrix_UB_31      -0.1779123000
_diffrn_orient_matrix_UB_32      0.0074203000
_diffrn_orient_matrix_UB_33      0.0199692000
_diffrn_radiation_monochromator  mirror
_diffrn_radiation_probe          x-ray
_diffrn_radiation_type           CuK\a
_diffrn_radiation_wavelength     1.54184
_diffrn_reflns_av_R_equivalents  0.0586
_diffrn_reflns_av_unetI/netI     0.0322
_diffrn_reflns_Laue_measured_fraction_full 1.000
_diffrn_reflns_Laue_measured_fraction_max 1.000
_diffrn_reflns_limit_h_max       8
_diffrn_reflns_limit_h_min       -9
_diffrn_reflns_limit_k_max       11
_diffrn_reflns_limit_k_min       -11
_diffrn_reflns_limit_l_max       15
_diffrn_reflns_limit_l_min       -15
_diffrn_reflns_number            17679
_diffrn_reflns_point_group_measured_fraction_full 1.000
_diffrn_reflns_point_group_measured_fraction_max 1.000
_diffrn_reflns_theta_full        67.684
_diffrn_reflns_theta_max         69.505
_diffrn_reflns_theta_min         3.497
_diffrn_source                   'micro-focus sealed X-ray tube'
_diffrn_source_type              'SuperNova (Cu) X-ray Source'
_exptl_absorpt_coefficient_mu    9.662
_exptl_absorpt_correction_T_max  0.694
_exptl_absorpt_correction_T_min  0.174
_exptl_absorpt_correction_type   gaussian
_exptl_absorpt_process_details
;
CrysAlisPro 1.171.38.41 (Rigaku Oxford Diffraction, 2015)
Numerical absorption correction based on gaussian integration over
			a multifaceted crystal model
Empirical absorption correction using spherical harmonics,
 implemented in SCALE3 ABSPACK scaling algorithm.
;
_exptl_crystal_colour            'light yellow'
_exptl_crystal_colour_modifier   light
_exptl_crystal_colour_primary    yellow
_exptl_crystal_density_diffrn    1.692
_exptl_crystal_description       plank
_exptl_crystal_F_000             468
_exptl_crystal_size_max          0.393
_exptl_crystal_size_mid          0.097
_exptl_crystal_size_min          0.043
_refine_diff_density_max         1.328
_refine_diff_density_min         -0.975
_refine_diff_density_rms         0.219
_refine_ls_extinction_method     none
_refine_ls_goodness_of_fit_ref   1.209
_refine_ls_hydrogen_treatment    mixed
_refine_ls_matrix_type           full
_refine_ls_number_parameters     221
_refine_ls_number_reflns         3432
_refine_ls_number_restraints     0
_refine_ls_restrained_S_all      1.209
_refine_ls_R_factor_all          0.1028
_refine_ls_R_factor_gt           0.1019
_refine_ls_shift/su_max          0.000
_refine_ls_shift/su_mean         0.000
_refine_ls_structure_factor_coef Fsqd
_refine_ls_weighting_details
'w=1/[\s^2^(Fo^2^)+36.6427P] where P=(Fo^2^+2Fc^2^)/3'
_refine_ls_weighting_scheme      calc
_refine_ls_wR_factor_gt          0.2915
_refine_ls_wR_factor_ref         0.2917
_reflns_Friedel_coverage         0.000
_reflns_number_gt                3306
_reflns_number_total             3432
_reflns_threshold_expression     'I > 2\s(I)'
_iucr_refine_instructions_details
;
TITL abs-819-twin-r1_twin1_hklf4-rf_a.res in P-1
    abs-819-twin-r1_twin1_hklf4-rf.res
    created by SHELXL-2016/6 at 10:45:43 on 25-Jun-2018
REM Old TITL ABS-819-Twin-R1_twin1_hklf4-rf in P-1
REM SHELXT solution in P-1
REM R1 0.159, Rweak 0.045, Alpha 0.061, Orientation as input
REM Formula found by SHELXT: C15 N2 S Cl6
CELL 1.54184 8.1354 9.2414 12.9459 90.608 101.838 105.699
ZERR 2 0.0002 0.0002 0.0006 0.003 0.003 0.002
LATT 1
SFAC C H Cl N S
UNIT 28 22 12 6 2

L.S. 24
PLAN  20
BOND $H
list 4
fmap 2 53
ACTA
SHEL 1000 0.823
REM <olex2.extras>
REM <HklSrc "%.\\ABS-819-Twin-R1_twin1_hklf4-rf.hkl">
REM </olex2.extras>

WGHT    0.000000   36.642700
FVAR       0.58131
CL6   3    0.148841    0.745936    0.522517    11.00000    0.01470    0.02792 =
         0.03400    0.00049    0.00519    0.00830
CL1   3   -0.021622    0.302197    0.079581    11.00000    0.02701    0.02158 =
         0.03142   -0.00349    0.00381    0.00886
S1    5   -0.040818    0.370422    0.242113    11.00000    0.01527    0.01535 =
         0.02405    0.00370    0.00368    0.00356
CL3   3   -0.358127    0.892743   -0.029825    11.00000    0.03538    0.03754 =
         0.02836    0.00781    0.00633    0.02046
CL4   3   -0.593914    0.575553    0.094239    11.00000    0.01411    0.04409 =
         0.02237   -0.00177    0.00216    0.01126
CL2   3    0.029456    1.044315    0.312054    11.00000    0.05044    0.02240 =
         0.03235   -0.00198    0.00020    0.01137
CL5   3    0.506638    1.150367    0.294026    11.00000    0.04403    0.02893 =
         0.04610    0.00717   -0.00956    0.00131
N2    4    0.164470    0.698091    0.260197    11.00000    0.01656    0.01518 =
         0.01804    0.00321    0.00229    0.00521
N1    4    0.148349    0.443788    0.307973    11.00000    0.01682    0.01679 =
         0.02315    0.00229    0.00448    0.00577
N3    4    0.765354    0.725839    0.450616    11.00000    0.01120    0.03364 =
         0.02627   -0.00057    0.00402    0.00718
AFIX  43
H3    2    0.874943    0.753704    0.479838    11.00000   -1.20000
AFIX   0
C12   1   -0.126029    0.520386    0.207172    11.00000    0.01118    0.01922 =
         0.01643    0.00224    0.00192    0.00237
C9    1   -0.262282    0.760137    0.147537    11.00000    0.01753    0.02475 =
         0.01577   -0.00286    0.00137    0.01167
C11   1   -0.304272    0.492577    0.168588    11.00000    0.01516    0.02036 =
         0.02368    0.00055    0.00708    0.00466
AFIX  43
H11   2   -0.377987    0.394941    0.161385    11.00000   -1.20000
AFIX   0
C2    1    0.419039    0.639055    0.355451    11.00000    0.01171    0.02249 =
         0.02185    0.00353    0.00516    0.00907
C1    1    0.230186    0.593461    0.301903    11.00000    0.01622    0.02130 =
         0.01820    0.00575    0.00735    0.00483
C7    1   -0.009616    0.667559    0.218681    11.00000    0.01430    0.02034 =
         0.01856   -0.00030    0.00119    0.00559
C8    1   -0.079995    0.786389    0.185770    11.00000    0.02050    0.02122 =
         0.01936   -0.00363    0.00407    0.01245
C5    1    0.688752    0.581079    0.423903    11.00000    0.01552    0.02869 =
         0.02408    0.00702    0.00624    0.01488
AFIX  43
H5    2    0.752596    0.511091    0.437029    11.00000   -1.20000
AFIX   0
C6    1    0.513631    0.534894    0.376482    11.00000    0.01854    0.01956 =
         0.01744    0.00472    0.00806    0.00273
AFIX  43
H6    2    0.458602    0.433061    0.358480    11.00000   -1.20000
AFIX   0
C3    1    0.502858    0.791102    0.385517    11.00000    0.02193    0.02270 =
         0.02654    0.00629    0.00768    0.00816
AFIX  43
H3A   2    0.441639    0.863080    0.373191    11.00000   -1.20000
AFIX   0
C4    1    0.677414    0.832402    0.433637    11.00000    0.02216    0.02123 =
         0.02936   -0.00064    0.00255    0.00331
AFIX  43
H4    2    0.735316    0.933004    0.454555    11.00000   -1.20000
AFIX   0
C10   1   -0.369656    0.612116    0.141249    11.00000    0.01816    0.03080 =
         0.01718   -0.00400   -0.00027    0.01150
C14   1   -0.339059    0.886557    0.110379    11.00000    0.02498    0.02664 =
         0.02390   -0.00054    0.00007    0.01475
AFIX  23
H14A  2   -0.264146    0.981604    0.145870    11.00000   -1.20000
H14B  2   -0.453311    0.870005    0.127137    11.00000   -1.20000
AFIX   0
C13   1    0.039495    0.942159    0.194646    11.00000    0.02110    0.02002 =
         0.03394    0.00559    0.00505    0.01026
AFIX  23
H13A  2    0.005368    0.993987    0.132570    11.00000   -1.20000
H13B  2    0.158346    0.937763    0.198408    11.00000   -1.20000
AFIX   0
H5A   2    0.741135    1.233009    0.323306    11.00000    0.01844
HKLF 4




REM  abs-819-twin-r1_twin1_hklf4-rf_a.res in P-1
REM R1 =  0.1019 for    3306 Fo > 4sig(Fo)  and  0.1028 for all    3432 data
REM    221 parameters refined using      0 restraints

END  
     
WGHT      0.0000     35.3155 

REM Highest difference peak  1.328,  deepest hole -0.975,  1-sigma level  0.219
Q1    1   0.8505  0.9571  0.5206  11.00000  0.05    1.33
Q2    1   0.0732  0.3046  0.0394  11.00000  0.05    1.30
Q3    1  -0.3404  0.9155  0.0379  11.00000  0.05    1.28
Q4    1  -0.3144  0.5065  0.0815  11.00000  0.05    1.21
Q5    1  -0.3278  0.5674  0.2550  11.00000  0.05    1.15
Q6    1   0.1240  0.7718  0.0949  11.00000  0.05    1.13
Q7    1   0.3084  0.8408  0.3168  11.00000  0.05    1.11
Q8    1   0.5775  0.4538  0.4820  11.00000  0.05    1.10
Q9    1  -0.5868  0.7054  0.0863  11.00000  0.05    1.03
Q10   1   0.4560  0.8519  0.4806  11.00000  0.05    1.03
Q11   1  -0.3205  0.3704  0.0862  11.00000  0.05    1.01
Q12   1  -0.2266  0.9420  0.2872  11.00000  0.05    1.01
Q13   1   0.2426  1.1666  0.2457  11.00000  0.05    0.99
Q14   1  -0.2541  0.8927 -0.0896  11.00000  0.05    0.98
Q15   1   0.1436  1.0586  0.2972  11.00000  0.05    0.93
Q16   1   0.0640  0.2823 -0.0121  11.00000  0.05    0.89
Q17   1   0.3752  0.7629  0.2575  11.00000  0.05    0.85
Q18   1  -0.1562  0.9741  0.0974  11.00000  0.05    0.83
Q19   1  -0.5495  0.7012  0.0407  11.00000  0.05    0.83
Q20   1  -0.4278  0.2617  0.1451  11.00000  0.05    0.82

  REM The information below was added by Olex2.
  REM
  REM R1 = 0.1019 for 3306 Fo > 4sig(Fo) and 0.1028 for all 18575 data
  REM n/a parameters refined using n/a restraints
  REM Highest difference peak 1.33, deepest hole -0.98
  REM Mean Shift 0, Max Shift 0.000.

  REM +++ Tabular Listing of Refinement Information +++
  REM R1_all = 0.1028
  REM R1_gt = 0.1019
  REM wR_ref = 0.2917
  REM GOOF = 1.209
  REM Shift_max = 0.000
  REM Shift_mean = 0
  REM Reflections_all = 18575
  REM Reflections_gt = 3306
  REM Parameters = n/a
  REM Hole = -0.98
  REM Peak = 1.33
  REM Flack = n/a

  
;
_cod_data_source_file            d1sc04248c2.cif
_cod_data_source_block           abs-819-twin-r1_twin1_hklf4-rf
_cod_depositor_comments
'Adding full bibliography for 1565368--1565385.cif.'
_cod_database_code               1565381
_shelx_shelxl_version_number     2016/6
_chemical_oxdiff_formula         'N3 S1 Cl6 C14 H111'
_shelx_space_group_comment
;
The symmetry employed for this shelxl refinement is uniquely defined
by the following loop, which should always be used as a source of
symmetry information in preference to the above space-group names.
They are only intended as comments.
;
_reflns_odcompleteness_completeness 100.00
_reflns_odcompleteness_iscentric 1
_reflns_odcompleteness_theta     66.97
_olex2_refinement_description
;
1. Fixed Uiso
 At 1.2 times of:
  All C(H) groups, All C(H,H) groups, All N(H) groups
2.a Secondary CH2 refined with riding coordinates:
 C14(H14A,H14B), C13(H13A,H13B)
2.b Aromatic/amide H refined with riding coordinates:
 N3(H3), C11(H11), C5(H5), C6(H6), C3(H3A), C4(H4)
;
_olex2_submission_special_instructions 'No special instructions were received'
_oxdiff_exptl_absorpt_empirical_details
;
Empirical correction (ABSPACK) includes:
- Absorption correction using spherical harmonics
- Frame scaling
;
_oxdiff_exptl_absorpt_empirical_full_max 1.432
_oxdiff_exptl_absorpt_empirical_full_min 0.613
loop_
_space_group_symop_operation_xyz
'x, y, z'
'-x, -y, -z'
loop_
_atom_site_label
_atom_site_type_symbol
_atom_site_fract_x
_atom_site_fract_y
_atom_site_fract_z
_atom_site_U_iso_or_equiv
_atom_site_adp_type
_atom_site_occupancy
_atom_site_site_symmetry_order
_atom_site_calc_flag
_atom_site_refinement_flags_posn
_atom_site_refinement_flags_adp
_atom_site_refinement_flags_occupancy
_atom_site_disorder_assembly
_atom_site_disorder_group
Cl6 Cl 0.1488(3) 0.7459(3) 0.5225(2) 0.0251(6) Uani 1 1 d . . . . .
Cl1 Cl -0.0216(4) 0.3022(3) 0.0796(2) 0.0267(6) Uani 1 1 d . . . . .
S1 S -0.0408(3) 0.3704(3) 0.2421(2) 0.0184(6) Uani 1 1 d . . . . .
Cl3 Cl -0.3581(4) 0.8927(4) -0.0298(2) 0.0317(7) Uani 1 1 d . . . . .
Cl4 Cl -0.5939(3) 0.5756(4) 0.0942(2) 0.0265(7) Uani 1 1 d . . . . .
Cl2 Cl 0.0295(5) 1.0443(3) 0.3121(3) 0.0362(8) Uani 1 1 d . . . . .
Cl5 Cl 0.5066(5) 1.1504(4) 0.2940(3) 0.0443(9) Uani 1 1 d . . . . .
N2 N 0.1645(11) 0.6981(10) 0.2602(7) 0.0166(18) Uani 1 1 d . . . . .
N1 N 0.1483(12) 0.4438(10) 0.3080(7) 0.0187(19) Uani 1 1 d . . . . .
N3 N 0.7654(12) 0.7258(11) 0.4506(8) 0.024(2) Uani 1 1 d . . . . .
H3 H 0.874943 0.753704 0.479838 0.028 Uiso 1 1 calc R . . . .
C12 C -0.1260(13) 0.5204(12) 0.2072(8) 0.016(2) Uani 1 1 d . . . . .
C9 C -0.2623(14) 0.7601(13) 0.1475(8) 0.019(2) Uani 1 1 d . . . . .
C11 C -0.3043(14) 0.4926(13) 0.1686(9) 0.019(2) Uani 1 1 d . . . . .
H11 H -0.377987 0.394941 0.161385 0.023 Uiso 1 1 calc R . . . .
C2 C 0.4190(13) 0.6391(12) 0.3555(9) 0.018(2) Uani 1 1 d . . . . .
C1 C 0.2302(14) 0.5935(12) 0.3019(8) 0.018(2) Uani 1 1 d . . . . .
C7 C -0.0096(14) 0.6676(12) 0.2187(8) 0.018(2) Uani 1 1 d . . . . .
C8 C -0.0800(14) 0.7864(12) 0.1858(9) 0.019(2) Uani 1 1 d . . . . .
C5 C 0.6888(14) 0.5811(13) 0.4239(9) 0.021(2) Uani 1 1 d . . . . .
H5 H 0.752596 0.511091 0.437029 0.025 Uiso 1 1 calc R . . . .
C6 C 0.5136(14) 0.5349(12) 0.3765(8) 0.018(2) Uani 1 1 d . . . . .
H6 H 0.458602 0.433061 0.358480 0.022 Uiso 1 1 calc R . . . .
C3 C 0.5029(15) 0.7911(13) 0.3855(9) 0.023(2) Uani 1 1 d . . . . .
H3A H 0.441639 0.863080 0.373191 0.028 Uiso 1 1 calc R . . . .
C4 C 0.6774(15) 0.8324(13) 0.4336(10) 0.025(2) Uani 1 1 d . . . . .
H4 H 0.735316 0.933004 0.454555 0.030 Uiso 1 1 calc R . . . .
C10 C -0.3697(15) 0.6121(14) 0.1412(9) 0.022(2) Uani 1 1 d . . . . .
C14 C -0.3391(16) 0.8866(14) 0.1104(9) 0.024(2) Uani 1 1 d . . . . .
H14A H -0.264146 0.981604 0.145870 0.029 Uiso 1 1 calc R . . . .
H14B H -0.453311 0.870005 0.127137 0.029 Uiso 1 1 calc R . . . .
C13 C 0.0395(15) 0.9422(13) 0.1946(10) 0.024(2) Uani 1 1 d . . . . .
H13A H 0.005368 0.993987 0.132570 0.029 Uiso 1 1 calc R . . . .
H13B H 0.158346 0.937763 0.198408 0.029 Uiso 1 1 calc R . . . .
H5A H 0.741(16) 1.233(13) 0.323(9) 0.02(3) Uiso 1 1 d . . . . .
loop_
_atom_site_aniso_label
_atom_site_aniso_U_11
_atom_site_aniso_U_22
_atom_site_aniso_U_33
_atom_site_aniso_U_23
_atom_site_aniso_U_13
_atom_site_aniso_U_12
Cl6 0.0147(12) 0.0279(14) 0.0340(15) 0.0005(11) 0.0052(11) 0.0083(10)
Cl1 0.0270(14) 0.0216(14) 0.0314(15) -0.0035(11) 0.0038(12) 0.0089(11)
S1 0.0153(12) 0.0153(12) 0.0241(14) 0.0037(10) 0.0037(10) 0.0036(10)
Cl3 0.0354(17) 0.0375(17) 0.0284(15) 0.0078(12) 0.0063(12) 0.0205(13)
Cl4 0.0141(12) 0.0441(17) 0.0224(13) -0.0018(12) 0.0022(10) 0.0113(11)
Cl2 0.050(2) 0.0224(15) 0.0324(16) -0.0020(12) 0.0002(14) 0.0114(13)
Cl5 0.044(2) 0.0289(17) 0.046(2) 0.0072(14) -0.0096(16) 0.0013(14)
N2 0.017(4) 0.015(4) 0.018(4) 0.003(4) 0.002(4) 0.005(4)
N1 0.017(5) 0.017(5) 0.023(5) 0.002(4) 0.004(4) 0.006(4)
N3 0.011(4) 0.034(6) 0.026(5) -0.001(4) 0.004(4) 0.007(4)
C12 0.011(5) 0.019(5) 0.016(5) 0.002(4) 0.002(4) 0.002(4)
C9 0.018(5) 0.025(6) 0.016(5) -0.003(4) 0.001(4) 0.012(4)
C11 0.015(5) 0.020(6) 0.024(6) 0.001(4) 0.007(4) 0.005(4)
C2 0.012(5) 0.022(6) 0.022(5) 0.004(4) 0.005(4) 0.009(4)
C1 0.016(5) 0.021(6) 0.018(5) 0.006(4) 0.007(4) 0.005(4)
C7 0.014(5) 0.020(5) 0.019(5) 0.000(4) 0.001(4) 0.006(4)
C8 0.021(6) 0.021(6) 0.019(5) -0.004(4) 0.004(4) 0.012(5)
C5 0.016(5) 0.029(6) 0.024(6) 0.007(5) 0.006(4) 0.015(5)
C6 0.019(5) 0.020(5) 0.017(5) 0.005(4) 0.008(4) 0.003(4)
C3 0.022(6) 0.023(6) 0.027(6) 0.006(5) 0.008(5) 0.008(5)
C4 0.022(6) 0.021(6) 0.029(6) -0.001(5) 0.003(5) 0.003(5)
C10 0.018(6) 0.031(6) 0.017(5) -0.004(5) 0.000(4) 0.011(5)
C14 0.025(6) 0.027(6) 0.024(6) -0.001(5) 0.000(5) 0.015(5)
C13 0.021(6) 0.020(6) 0.034(7) 0.006(5) 0.005(5) 0.010(5)
loop_
_atom_type_symbol
_atom_type_description
_atom_type_scat_dispersion_real
_atom_type_scat_dispersion_imag
_atom_type_scat_source
C C 0.0181 0.0091 'International Tables Vol C Tables 4.2.6.8 and 6.1.1.4'
H H 0.0000 0.0000 'International Tables Vol C Tables 4.2.6.8 and 6.1.1.4'
Cl Cl 0.3639 0.7018 'International Tables Vol C Tables 4.2.6.8 and 6.1.1.4'
N N 0.0311 0.0180 'International Tables Vol C Tables 4.2.6.8 and 6.1.1.4'
S S 0.3331 0.5567 'International Tables Vol C Tables 4.2.6.8 and 6.1.1.4'
loop_
_exptl_crystal_face_index_h
_exptl_crystal_face_index_k
_exptl_crystal_face_index_l
_exptl_crystal_face_perp_dist
0 6 0 0.0442
0 -6 0 0.0497
-5 2 2 0.2019
0 0 8 0.0193
5 -2 -2 0.1830
0 0 -8 0.0211
loop_
_geom_angle_atom_site_label_1
_geom_angle_atom_site_label_2
_geom_angle_atom_site_label_3
_geom_angle
_geom_angle_site_symmetry_1
_geom_angle_site_symmetry_3
_geom_angle_publ_flag
N1 S1 Cl1 108.2(4) . . ?
N1 S1 C12 105.1(5) . . ?
C12 S1 Cl1 96.9(4) . . ?
C1 N2 C7 120.4(9) . . ?
C1 N1 S1 120.6(8) . . ?
C5 N3 H3 118.7 . . ?
C5 N3 C4 122.5(10) . . ?
C4 N3 H3 118.7 . . ?
C11 C12 S1 119.2(8) . . ?
C11 C12 C7 122.3(10) . . ?
C7 C12 S1 118.5(8) . . ?
C8 C9 C14 121.2(10) . . ?
C10 C9 C8 118.3(10) . . ?
C10 C9 C14 120.5(10) . . ?
C12 C11 H11 120.7 . . ?
C10 C11 C12 118.5(10) . . ?
C10 C11 H11 120.7 . . ?
C6 C2 C1 121.8(10) . . ?
C6 C2 C3 119.0(10) . . ?
C3 C2 C1 119.2(10) . . ?
N2 C1 N1 129.1(10) . . ?
N2 C1 C2 117.3(10) . . ?
N1 C1 C2 113.6(9) . . ?
N2 C7 C12 123.3(10) . . ?
N2 C7 C8 119.1(10) . . ?
C8 C7 C12 117.6(10) . . ?
C9 C8 C13 120.3(10) . . ?
C7 C8 C9 120.7(10) . . ?
C7 C8 C13 119.0(10) . . ?
N3 C5 H5 120.3 . . ?
N3 C5 C6 119.4(10) . . ?
C6 C5 H5 120.3 . . ?
C2 C6 H6 119.8 . . ?
C5 C6 C2 120.4(10) . . ?
C5 C6 H6 119.8 . . ?
C2 C3 H3A 120.6 . . ?
C4 C3 C2 118.8(11) . . ?
C4 C3 H3A 120.6 . . ?
N3 C4 C3 119.9(11) . . ?
N3 C4 H4 120.1 . . ?
C3 C4 H4 120.1 . . ?
C9 C10 Cl4 119.6(9) . . ?
C11 C10 Cl4 118.0(9) . . ?
C11 C10 C9 122.4(10) . . ?
Cl3 C14 H14A 109.9 . . ?
Cl3 C14 H14B 109.9 . . ?
C9 C14 Cl3 108.8(8) . . ?
C9 C14 H14A 109.9 . . ?
C9 C14 H14B 109.9 . . ?
H14A C14 H14B 108.3 . . ?
Cl2 C13 H13A 109.7 . . ?
Cl2 C13 H13B 109.7 . . ?
C8 C13 Cl2 109.8(8) . . ?
C8 C13 H13A 109.7 . . ?
C8 C13 H13B 109.7 . . ?
H13A C13 H13B 108.2 . . ?
loop_
_geom_bond_atom_site_label_1
_geom_bond_atom_site_label_2
_geom_bond_distance
_geom_bond_site_symmetry_2
_geom_bond_publ_flag
Cl1 S1 2.238(4) . ?
S1 N1 1.562(9) . ?
S1 C12 1.735(11) . ?
Cl3 C14 1.793(12) . ?
Cl4 C10 1.738(11) . ?
Cl2 C13 1.808(13) . ?
Cl5 H5A 1.81(12) . ?
N2 C1 1.298(14) . ?
N2 C7 1.357(14) . ?
N1 C1 1.374(14) . ?
N3 H3 0.8600 . ?
N3 C5 1.322(15) . ?
N3 C4 1.361(15) . ?
C12 C11 1.384(15) . ?
C12 C7 1.418(15) . ?
C9 C8 1.416(15) . ?
C9 C10 1.401(17) . ?
C9 C14 1.507(15) . ?
C11 H11 0.9300 . ?
C11 C10 1.370(16) . ?
C2 C1 1.492(15) . ?
C2 C6 1.383(15) . ?
C2 C3 1.397(16) . ?
C7 C8 1.402(15) . ?
C8 C13 1.491(16) . ?
C5 H5 0.9300 . ?
C5 C6 1.377(15) . ?
C6 H6 0.9300 . ?
C3 H3A 0.9300 . ?
C3 C4 1.374(16) . ?
C4 H4 0.9300 . ?
C14 H14A 0.9700 . ?
C14 H14B 0.9700 . ?
C13 H13A 0.9700 . ?
C13 H13B 0.9700 . ?
loop_
_refln_index_h
_refln_index_k
_refln_index_l
_refln_F_squared_meas
_refln_F_squared_sigma
0 0 1 55.82 3.37
0 0 -1 49.55 2.96
0 0 -2 740.14 16.32
0 0 -2 688.09 15.2
0 0 -2 680.75 14.66
0 0 2 786.66 18.8
0 0 2 796.32 18.76
0 0 2 773.68 17.34
0 0 3 10.9 2.13
0 0 -3 9.21 1.8
0 0 3 9.54 2.37
0 0 3 8.93 2.14
0 0 -3 8.49 2
0 0 4 130.42 8.76
0 0 4 109.5 9.34
0 0 4 108.75 4.76
0 0 4 117.3 9.75
0 0 -4 99.27 7.03
0 0 -4 95.02 7.04
0 0 -4 98.35 6.36
0 0 5 1726.34 42.7
0 0 -5 1400.86 32.89
0 0 -5 1419.95 32.05
0 0 -5 1414.38 29.61
0 0 5 1683.44 38.18
0 0 5 1543.03 22.46
0 0 -6 82.54 7.58
0 0 6 99.6 10.57
0 0 6 108.41 9.88
0 0 -6 83.51 7.8
0 0 -6 85.68 6.84
0 0 7 9.94 3.33
0 0 7 3.55 2.26
0 0 -7 4.84 2.11
0 0 -7 4.73 1.92
0 0 -7 5.66 1.87
0 0 8 196.53 17.47
0 0 -8 147.07 11.98
0 0 -8 159.12 12.69
0 0 -8 166.21 10.63
0 0 8 189.45 15.75
0 0 9 30.44 7.35
0 0 -9 20.23 4.77
0 0 9 24.25 6.72
0 0 -9 22.71 5.09
0 0 10 224.75 21.25
0 0 -10 166.12 14.56
0 0 -10 173.24 10.62
0 0 10 219.73 13.25
0 0 10 211.39 14.21
0 0 -10 180.07 15.93
0 0 -10 204.35 11.6
0 0 10 219.43 18.77
0 0 10 215.8 13.41
0 0 11 5.29 2.27
0 0 -11 1.44 0.72
0 0 11 2.99 1.73
0 0 -11 1.93 0.81
0 0 11 4.05 1.59
0 0 -11 3.28 1.59
0 0 11 1.01 1.09
0 0 -12 0.17 0.51
0 0 -12 0.46 0.48
0 0 12 -0.22 0.87
0 0 13 245.08 14.46
0 0 13 256.39 13.96
0 0 -13 209.51 11.42
0 0 13 257.62 15.31
0 0 -13 190.94 10.86
0 0 13 222.18 12.86
0 0 14 46.87 5.18
0 0 14 53.42 5.7
0 0 -14 40 4.45
0 0 14 47.94 5.95
0 0 -14 42.9 4.67
0 0 14 54.11 6.04
0 0 15 203.91 8.82
0 0 -15 241.51 9.77
0 0 15 270.69 11.16
0 0 15 287.4 12.44
0 0 -15 209.74 8.36
0 -1 15 25.01 2.89
0 -1 15 39.94 4.6
0 1 -15 36.71 3.6
0 -1 15 39.86 4.16
0 1 -15 35.53 3.58
0 -1 15 33.52 3.99
0 -1 14 3.67 1.58
0 -1 14 3.38 1.58
0 -1 14 1.56 1.15
0 1 -14 2.3 0.7
0 -1 14 1.83 0.89
0 1 -14 2.45 1.38
0 -1 13 12.05 3.19
0 -1 13 8.49 3.07
0 1 -13 8.8 2.22
0 -1 13 13.12 3.18
0 -1 13 15.96 4.4
0 1 -13 9.23 2.45
0 1 -12 635.15 20.95
0 -1 12 620.19 22.92
0 -1 12 626.44 23.23
0 -1 12 627.29 25.2
0 1 -12 610.32 21.24
0 1 -11 17.58 3.39
0 -1 11 18.93 4.42
0 -1 11 18.71 3.93
0 -1 11 14.74 3.62
0 -1 11 20.57 6.76
0 1 -11 13.56 4.61
0 1 -11 13.17 3.21
0 1 -10 2.06 1.63
0 -1 10 3.26 2.45
0 -1 10 2.68 1.94
0 1 -10 2.05 2.27
0 -1 10 3.75 2.83
0 1 -10 2.29 1.24
0 -1 10 1.8 1.13
0 -1 10 2.38 1.87
0 1 -9 0.81 1.8
0 -1 9 1.78 1.98
0 -1 9 -1.49 1.16
0 1 -9 2.5 2
0 -1 8 155.89 15.71
0 1 -8 158.19 13
0 1 -8 166.93 12.7
0 -1 8 154.65 14.03
0 1 -7 1175.12 32.76
0 -1 7 1048.58 38.71
0 1 -7 1121.59 33.5
0 -1 7 1048.01 35.25
0 1 -7 1202.72 27.82
0 1 -6 585.71 17.99
0 -1 6 551.4 23.55
0 -1 6 533.85 25.19
0 1 -6 586.08 21.78
0 1 -6 575.96 20.71
0 1 -5 801.84 20.43
0 -1 5 699.99 15.87
0 -1 5 720.76 24.49
0 1 -5 782.9 23.4
0 -1 5 773.05 27.88
0 1 -5 830.1 23.45
0 1 -4 2847.18 46
0 1 -4 2769.38 45.85
0 -1 4 2867.62 51.43
0 1 -4 2768.31 41.88
0 1 -4 2812.76 44.76
0 -1 3 137.93 6.44
0 1 -3 147.89 7.51
0 -1 3 154.96 8.65
0 -1 3 161.65 8.91
0 1 -3 148.37 7.29
0 1 -2 106.83 4.97
0 -1 2 119.09 5.93
0 -1 2 124.12 5.82
0 1 -2 109.55 4.99
0 1 -1 103.83 4.09
0 -1 1 117.2 4.48
0 1 -1 102.18 3.95
0 1 -1 103.68 3.62
0 -1 1 112.11 4.59
0 -1 0 749.08 12.39
0 -1 0 734.59 11.81
0 1 1 62.83 2.77
0 -1 -1 62.28 3.01
0 1 1 52.63 3.05
0 -1 -1 61.12 3
0 -1 -2 203.11 6.49
0 -1 -2 202.34 7.83
0 1 2 220.62 8.49
0 1 3 1266.99 26.99
0 -1 -3 1260.34 25.63
0 -1 -3 1248.66 26.67
0 -1 -4 585.08 18.69
0 1 4 507.01 18.24
0 1 4 537.89 21.13
0 -1 -4 569.49 17.99
0 -1 -4 517.58 17.1
0 1 5 745.3 28.17
0 -1 -5 788.52 23.78
0 1 5 719.05 27.37
0 -1 -5 814.52 22.83
0 1 5 669.36 23.34
0 -1 -5 690.53 22.07
0 1 6 850.94 32.83
0 -1 -6 828.29 26.35
0 -1 -6 948.6 27.87
0 1 6 849.67 28.4
0 1 6 842.23 33.1
0 -1 -6 938.53 25.87
0 -1 -7 23.71 4.9
0 1 7 26.2 6.44
0 -1 -7 24.06 4.28
0 -1 -7 19.57 4.24
0 1 7 22.17 5.21
0 1 7 25.21 6.12
0 -1 -8 64.99 8.12
0 -1 -8 86.34 8.25
0 -1 -8 91.35 9.62
0 1 8 82.39 11.43
0 1 8 66.53 9.15
0 1 9 60.26 9.5
0 1 9 70.61 11.22
0 -1 -9 61.36 8.64
0 -1 -9 72.71 7.91
0 1 10 100.2 9.22
0 1 10 89.46 8.55
0 1 10 97.77 12.61
0 -1 -10 77.2 7.09
0 -1 -10 94.9 11.66
0 1 10 87.63 7.71
0 -1 -10 98.18 8.2
0 1 10 92.34 9.53
0 1 10 100.33 14.12
0 -1 -11 196.83 11.64
0 1 11 208.07 12
0 1 11 219.93 13.72
0 -1 -11 217.58 12.34
0 1 11 208.02 14.47
0 1 11 198.58 13.34
0 -1 -12 3.37 1.74
0 1 12 8.04 2.91
0 1 12 5.29 2.62
0 1 12 5.49 3.07
0 1 12 3.68 1.51
0 1 12 6.55 3.11
0 -1 -12 2.99 1.88
0 -1 -13 253.04 12.55
0 -1 -13 214.03 11.11
0 1 13 239.67 14.42
0 1 13 226.79 12.99
0 1 13 239.51 14.08
0 1 13 218.04 11.08
0 1 13 228.62 13.17
0 -1 -14 42.63 4.69
0 1 14 35.53 4.77
0 1 14 31.81 4.19
0 -1 -14 35.96 3.89
0 1 14 36.35 4.92
0 1 14 45.7 5.23
0 1 15 5.78 1.39
0 1 15 5.97 1.57
0 -1 -15 8.28 1.72
0 1 15 6.76 1.75
0 -1 -15 6.21 1.44
0 2 -15 0.76 0.28
0 -2 15 0.68 0.89
0 2 -15 -0.43 0.26
0 -2 15 0.62 0.63
0 -2 15 0.32 0.65
0 -2 14 -0.53 0.35
0 -2 14 0.12 0.35
0 -2 14 0.68 0.35
0 2 -14 0.78 0.59
0 2 -14 -0.12 0.59
0 -2 13 41.37 5.93
0 2 -13 36.25 4.45
0 -2 13 31.54 4.53
0 -2 13 38.32 5.69
0 -2 13 37.73 5.17
0 2 -13 32.68 4.58
0 -2 12 21.02 4.43
0 2 -12 20.56 3.71
0 -2 12 16.94 3.68
0 -2 12 19.9 3.94
0 -2 12 21.17 4.5
0 2 -12 18.66 3.35
0 2 -11 123.7 9.38
0 -2 11 109.97 10.72
0 -2 11 119.33 9.95
0 -2 11 119.46 9.72
0 -2 10 320.98 15.96
0 2 -10 315.61 21.83
0 -2 10 302.65 25.3
0 2 -10 340.46 15.6
0 -2 10 317.65 17.84
0 2 -10 334.23 21.25
0 -2 10 337.92 16.81
0 -2 9 25.34 6.76
0 2 -9 22.85 5.75
0 2 -9 23.83 5.05
0 -2 8 18.54 5.54
0 -2 8 21.48 6.08
0 2 -8 22.78 5.07
0 2 -8 28.99 5.49
0 -2 7 708.59 32
0 -2 7 525.38 25.45
0 2 -7 705.27 25.66
0 2 -7 581.89 24.78
0 -2 6 4.28 2.36
0 2 -6 2.76 1.5
0 2 -6 2.55 1.04
0 2 -6 4.37 1.76
0 -2 6 5.82 1.5
0 2 -6 4.81 2.02
0 -2 6 5.49 2.37
0 -2 5 11.3 2.61
0 2 -5 13.68 3.29
0 2 -5 10.61 2.66
0 -2 5 9.24 3.02
0 -2 5 12.99 3.31
0 2 -5 9.83 2.45
0 -2 4 197.64 10.85
0 2 -4 206.96 10.32
0 -2 4 198.69 11.63
0 2 -4 183.25 9.75
0 2 -4 189 10.42
0 2 -3 980.08 22.32
0 -2 3 983.83 23.56
0 -2 3 1002.22 24.17
0 2 -3 1028.09 22.24
0 2 -3 959.46 20.68
0 2 -2 2049.28 32.77
0 -2 2 2030.04 34.16
0 2 -2 2007.19 31.6
0 2 -1 1403.88 24.63
0 -2 1 1423.53 25.69
0 2 -1 1382.56 22.42
0 -2 1 1365.61 22.35
0 -2 0 63.24 4.25
0 -2 0 61.77 3.96
0 2 0 66.07 4.48
0 2 1 4.75 1.23
0 -2 -1 5.18 1.1
0 -2 -1 3.52 0.8
0 2 1 3.27 0.7
0 2 2 231.43 9.49
0 -2 -2 214.95 8.43
0 2 2 242.07 8.29
0 -2 -2 220.37 8.55
0 -2 -3 413.03 15.07
0 -2 -3 395.54 14.24
0 -2 -3 383.92 12.59
0 -2 -4 1835.17 39.28
0 2 4 1905.97 40.17
0 -2 -4 1980.22 40.57
0 -2 -5 66.64 6.92
0 2 5 58.67 6.82
0 -2 -5 62.77 6.93
0 2 5 63.96 7.95
0 2 6 339.43 20.97
0 -2 -6 385.79 18.24
0 -2 -6 374.22 18.2
0 2 6 343.09 18.01
0 2 7 72.97 10.58
0 -2 -7 79.61 8.45
0 -2 -7 79.46 8.71
0 2 7 62.38 9.85
0 2 7 60.29 7.94
0 2 8 474.31 24.66
0 2 8 515.47 30.35
0 2 8 504.29 30.07
0 -2 -8 522.15 24.36
0 -2 -8 534.75 23.08
0 2 9 151.09 11.45
0 -2 -9 164.39 12.98
0 2 9 140.53 11.75
0 2 9 141.15 16.66
0 2 9 146.38 10.06
0 2 9 132.32 10.44
0 2 9 138.11 14.19
0 -2 -9 155.65 13.98
0 -2 -9 153.56 10.3
0 -2 -10 21.5 5.54
0 2 10 14.98 5.23
0 -2 -10 17.18 3.7
0 2 10 23.41 4.46
0 -2 -10 21.27 3.78
0 2 10 18.16 3.86
0 2 10 15.82 3.24
0 2 10 11.92 4.87
0 2 10 15.93 4.05
0 2 11 524.12 23.37
0 2 11 504.92 21.6
0 -2 -11 504.26 19.48
0 -2 -11 468.61 18.31
0 2 11 497.22 21.71
0 2 11 518.52 19.96
0 -2 -12 70.29 6.54
0 2 12 80.81 8.78
0 2 12 71.17 7.71
0 2 12 82.67 8.49
0 2 12 73.45 7.84
0 -2 -12 71.04 6.87
0 2 12 74.98 7.11
0 -2 -13 2.7 0.99
0 2 13 1.8 1.06
0 2 13 0.69 0.84
0 -2 -13 2.08 0.88
0 2 13 0.91 0.82
0 2 13 2.52 1.14
0 2 14 87.71 5.91
0 2 14 96.68 7.15
0 -2 -14 106.9 7.11
0 2 14 97.92 7.26
0 2 14 81.28 6.87
0 2 15 146.75 6.76
0 2 15 157.44 7.19
0 -2 -15 180.89 7.35
0 2 15 197.2 8.2
0 -3 15 34.19 3.28
0 3 -15 42.21 3.8
0 -3 15 31.42 3.41
0 -3 15 35.32 3.74
0 3 -14 43.39 3.91
0 -3 14 45.47 5.35
0 -3 14 45.57 4.77
0 3 -14 51.24 5.08
0 -3 14 48.42 5.42
0 -3 13 42.72 5.23
0 3 -13 50.73 5.54
0 -3 13 43.87 5.01
0 3 -13 43.14 4.44
0 -3 13 46.48 6.13
0 -3 13 48.65 6.24
0 3 -12 113.65 9.07
0 -3 12 97.15 8.46
0 -3 12 97.12 8.37
0 3 -12 98.73 7.4
0 -3 12 96.52 9.43
0 -3 12 104.78 9.94
0 -3 11 46.36 6.8
0 -3 11 33.75 5.23
0 -3 11 32.48 5.83
0 3 -11 38.49 5.3
0 -3 11 32.02 4.98
0 -3 10 46.28 6.98
0 3 -10 56.65 6.51
0 3 -10 56.6 8.81
0 -3 10 52.67 6.56
0 -3 10 46.42 5.99
0 -3 10 46.52 6.12
0 -3 10 44.28 10.12
0 3 -9 425.36 23.56
0 3 -9 384.72 17.08
0 -3 9 364.99 27.41
0 3 -9 380.48 23.51
0 -3 9 352.19 16.42
0 -3 9 341.91 16.85
0 -3 9 370.54 19.35
0 -3 9 403.37 18.33
0 3 -9 435.94 17.6
0 3 -8 1127.52 37.08
0 3 -8 1018.09 37.53
0 -3 8 1012.45 43.94
0 -3 7 4 2.69
0 3 -7 0.93 1.15
0 3 -7 2.84 2.12
0 3 -7 2.92 1.5
0 3 -6 29.33 5.28
0 3 -6 18.56 4.06
0 -3 6 25.67 4.02
0 3 -6 22.45 4.51
0 -3 6 26.66 5.55
0 -3 5 37.09 4.91
0 3 -5 40.95 5.81
0 3 -5 50.19 6.08
0 -3 5 44.43 6.55
0 3 -4 338.18 14.88
0 -3 4 351.33 16.59
0 3 -4 330.13 14.88
0 -3 3 1738.04 38.01
0 -3 3 1743.17 37.09
0 3 -3 1831.5 35.9
0 3 -3 1776.67 34.14
0 -3 2 887.3 23.33
0 3 -2 908.67 20.52
0 3 -2 940.65 23.12
0 -3 1 248.73 11.38
0 3 -1 209.56 5.29
0 3 -1 220.77 8.93
0 3 -1 230.4 10.79
0 -3 1 228.67 9.45
0 3 0 24.43 3.4
0 -3 0 22.68 3.16
0 -3 0 20.94 2.19
0 -3 0 23.49 3.07
0 3 0 20.58 3.04
0 3 0 22.92 2.12
0 -3 -1 11.38 1.73
0 3 1 6.23 1.17
0 3 1 6.15 1.68
0 -3 -1 7.65 1.89
0 -3 -1 6.69 1.7
0 -3 -2 123.25 8.28
0 3 2 112.63 7.61
0 3 2 122.89 6.27
0 -3 -2 103.59 6.52
0 -3 -2 105.27 7.18
0 -3 -3 1069.66 26.54
0 -3 -3 1041.46 25.79
0 3 3 1145.97 28.58
0 -3 -3 1184.27 29.93
0 3 3 1196.02 26.09
0 -3 -4 1.41 1.3
0 3 4 3.49 2.04
0 -3 -4 1.13 0.53
0 -3 -4 0.98 0.9
0 3 4 1.03 0.72
0 -3 -5 168.38 12.92
0 3 5 177.79 13.95
0 -3 -5 181.76 12.64
0 3 5 162.03 11.74
0 3 6 458.93 25.55
0 -3 -6 505.28 23.46
0 -3 -6 502.22 21.98
0 3 6 441.77 21
0 -3 -7 886.01 32.59
0 3 7 896.11 40.14
0 3 7 843.5 38.08
0 3 7 817.49 31.54
0 -3 -7 923.91 32
0 3 8 470.75 24.95
0 3 8 499.73 31.49
0 -3 -8 506.86 24.67
0 3 8 464.48 29.81
0 -3 -8 569.46 26.04
0 3 9 4.7 2.81
0 -3 -9 4.23 2.32
0 3 9 3.8 1.85
0 3 9 3.16 2.15
0 3 9 5.12 2.32
0 -3 -9 9.92 3.26
0 3 9 2.92 1.43
0 -3 -9 2.14 1.2
0 3 9 2.22 1.63
0 -3 -10 608.87 22.34
0 3 10 681.22 27.61
0 3 10 631.72 25.46
0 3 10 641.6 23.22
0 3 10 631.8 24.68
0 -3 -11 0.92 1.4
0 3 11 0.5 0.41
0 3 11 0.16 0.47
0 3 11 -0.68 1.19
0 3 11 0.38 0.89
0 3 11 1 1.22
0 3 12 185.37 12.16
0 -3 -12 190.48 11.36
0 3 12 205.35 11.87
0 3 12 188.73 12.52
0 3 12 189.38 11.88
0 3 13 91.11 7.03
0 -3 -13 103.85 7.55
0 3 13 86.7 7.31
0 3 13 86 7.52
0 -3 -13 83.03 6.77
0 3 13 74.92 6.68
0 3 14 16.4 2.66
0 -3 -14 22.13 2.99
0 -3 -14 19.63 2.87
0 3 14 19.54 2.69
0 3 14 16.49 2.48
0 -3 -15 215.88 7.28
0 4 -15 172.13 6.97
0 -4 15 143.43 6.56
0 -4 14 85.39 6.74
0 4 -14 100.92 6.69
0 -4 14 81.9 5.62
0 -4 14 78.1 5.77
0 -4 13 171.64 9.71
0 -4 13 177.34 10.85
0 4 -13 209.26 11.09
0 -4 13 199.06 12.2
0 -4 12 0.34 0.72
0 -4 12 0.41 1.03
0 -4 12 1.5 1.05
0 4 -12 0.31 0.71
0 -4 12 0.83 0.57
0 -4 12 -0.12 0.49
0 -4 11 34.76 5.92
0 4 -11 40.47 5.5
0 -4 11 25.54 4.62
0 -4 11 37.01 5.94
0 -4 11 29.18 4.6
0 -4 11 34.11 5.04
0 -4 10 10.93 3.22
0 -4 10 11.71 2.84
0 4 -10 19.28 3.9
0 -4 10 13.86 3.35
0 -4 10 13.47 3.79
0 4 -10 18.17 3.77
0 -4 9 326 16.64
0 4 -9 353.63 17.48
0 -4 9 316.9 18.44
0 4 -9 349.51 16.46
0 4 -9 354.32 22.24
0 -4 9 285.06 16.16
0 -4 9 330.75 27.04
0 -4 9 321.51 15.8
0 -4 8 224.83 14.95
0 -4 8 203.53 13.12
0 -4 8 205.49 20.21
0 4 -8 236.07 13.03
0 4 -8 244.33 17.57
0 4 -7 119.99 12
0 -4 7 129.26 14.65
0 4 -7 123.26 11.99
0 -4 6 366.2 22.56
0 4 -6 342.7 19.5
0 4 -6 345.6 19.41
0 -4 6 342.59 17.61
0 -4 5 3.66 2.04
0 4 -5 3.02 2.14
0 4 -5 8.05 3.16
0 4 -4 76.45 8.21
0 4 -4 67.94 7.91
0 -4 4 71.92 8.79
0 -4 3 80.68 8.27
0 -4 3 72.17 8.15
0 4 -3 79.58 7.83
0 4 -3 76.11 6.89
0 4 -2 666.78 19.66
0 4 -2 710.47 23.49
0 4 -1 101.36 8.4
0 -4 1 104.53 8.77
0 4 -1 89.64 6.47
0 4 -1 103.9 8.21
0 -4 1 95.78 7.21
0 4 0 57.72 3.83
0 4 0 65.77 6.69
0 -4 0 57.63 4.25
0 -4 0 60.68 6.46
0 -4 0 59.68 5.88
0 4 0 62.4 6.11
0 4 0 57.35 5.06
0 -4 -1 1324.48 31.37
0 -4 -1 1242.86 24.72
0 4 1 1149.18 31.01
0 4 1 1192.55 29.48
0 4 1 1280.14 22.31
0 -4 -1 1217.38 30.71
0 4 2 7.48 2.17
0 -4 -2 7.52 2.48
0 -4 -2 7.29 2.06
0 -4 -2 6.43 1.94
0 4 2 6.66 1.61
0 4 3 3714.74 56.42
0 4 3 3528.22 62
0 -4 -3 3287.78 59.57
0 -4 -3 3270.76 57.3
0 -4 -3 3528.98 64.2
0 -4 -4 430.39 21.47
0 -4 -4 433.07 19.94
0 4 4 505.3 22.6
0 -4 -4 460.25 20.01
0 4 4 426.18 18.67
0 -4 -5 43.46 7.54
0 -4 -5 44.03 6.52
0 4 5 42.79 6.18
0 4 5 43.63 7.59
0 -4 -6 216.48 14.98
0 -4 -6 200.16 16.53
0 4 6 194.72 14.05
0 4 6 189.29 17.28
0 -4 -7 28.75 5.72
0 -4 -7 30.6 6.78
0 4 7 24.54 5.41
0 4 7 19.58 6.23
0 -4 -8 5.61 2.95
0 4 8 5.3 3.29
0 4 8 8.8 5.01
0 -4 -8 2.66 2.48
0 4 8 6.75 3.98
0 4 8 6.24 3.33
0 -4 -8 2.74 1.54
0 -4 -8 2.57 1.9
0 4 8 8.99 3.23
0 4 8 5.54 2.51
0 -4 -9 29.02 6.14
0 -4 -9 30.33 4.54
0 4 9 31.74 5.63
0 -4 -9 23.34 4.37
0 4 9 29.04 5.03
0 4 9 22.38 4.7
0 4 9 32.26 4.61
0 4 9 24.29 7.08
0 4 9 32.17 8.49
0 -4 -10 29.59 4.83
0 4 10 33.02 5.18
0 -4 -10 28.31 4.88
0 4 10 28.99 5.02
0 4 10 31.03 5.19
0 4 10 33.66 5.76
0 -4 -11 27.85 4.52
0 4 11 23.18 4.2
0 -4 -11 20.42 4
0 4 11 25.38 4.4
0 4 11 25.44 4.47
0 4 11 22.2 4.47
0 4 12 8.81 2.8
0 4 12 7.46 2.19
0 -4 -12 9.19 2.74
0 4 12 9.51 2.75
0 -4 -12 6.42 2.1
0 -4 -13 14.42 2.71
0 4 13 9.78 2.28
0 4 13 11.43 2.28
0 -4 -13 15.33 2.62
0 -4 -14 60.23 4.22
0 -4 -14 65.4 4.42
0 4 14 64.09 4.3
0 -5 14 36.32 3.81
0 5 -14 40.41 3.77
0 -5 13 97.04 6.21
0 -5 13 106.18 8.21
0 -5 12 48.82 5.09
0 -5 12 51.39 5.92
0 -5 12 56.71 6.91
0 5 -12 44.51 5.29
0 5 -11 2.69 1.48
0 -5 11 0.9 0.54
0 -5 11 0.25 0.57
0 -5 11 2.07 1.17
0 -5 10 17.92 3.61
0 -5 10 19.57 4.07
0 5 -10 18.48 3.88
0 5 -10 19.27 3.76
0 -5 10 17.44 4.37
0 5 -10 12.68 3.03
0 5 -9 77.32 7.81
0 -5 9 103.19 8.62
0 5 -9 62.31 6.98
0 5 -9 71.34 8.26
0 -5 9 92.94 14.68
0 -5 9 86.59 9.86
0 -5 9 84.77 8.86
0 5 -8 43.63 6.04
0 -5 8 50.49 6.83
0 5 -8 37.81 7.13
0 -5 8 49.73 10.16
0 -5 8 51.4 7.29
0 5 -8 45.35 5.96
0 5 -8 56.75 7.26
0 5 -7 531.05 20.86
0 -5 7 584.64 33.09
0 -5 7 589.34 23.62
0 5 -7 591.81 23.21
0 5 -7 555.67 27.07
0 -5 7 549.24 22.24
0 5 -6 93.18 10.68
0 -5 6 114.86 13.34
0 -5 6 110.75 11.56
0 5 -6 106.14 11.84
0 -5 5 198.6 16.44
0 5 -5 199.12 14.74
0 5 -5 220.6 16.21
0 -5 5 235.39 17.1
0 5 -4 69.13 7.92
0 -5 4 56.95 8.6
0 5 -4 76.98 9.09
0 -5 4 61.89 8.43
0 5 -3 2.56 1.5
0 5 -3 1.54 0.92
0 -5 3 1.65 0.78
0 5 -2 1122.37 33.55
0 5 -2 1113.43 33.96
0 5 -2 1028.13 28.12
0 -5 2 1153.98 37.28
0 5 -1 753.43 25.88
0 5 -1 753.89 27.16
0 -5 1 659.41 23.4
0 5 -1 718.11 21.84
0 -5 1 758.89 28.71
0 -5 0 372.21 19.18
0 5 0 380.45 19.14
0 -5 0 363.16 17.5
0 5 0 382.52 15.25
0 5 0 400.12 18.2
0 -5 -1 538.52 22.49
0 5 1 523.23 21.23
0 -5 -1 522.25 22.7
0 5 1 493.81 17.58
0 5 1 527.78 23.13
0 -5 -2 2.34 1.45
0 5 2 3.2 1.91
0 5 2 1.79 1.36
0 -5 -2 3.07 2.13
0 -5 -3 54.3 7.91
0 5 3 53.17 7.28
0 -5 -3 48.01 6.36
0 -5 -3 51.08 7.35
0 5 4 206.79 15.71
0 -5 -4 188.74 13.43
0 -5 -4 190.79 14.68
0 -5 -4 212.9 16.9
0 -5 -5 69.99 8.45
0 5 5 86.42 10.97
0 -5 -5 82.82 11.16
0 -5 -6 252.69 16.9
0 5 6 417.17 18.22
0 5 6 347.26 17.82
0 -5 -6 278.01 21.8
0 5 6 349.29 24.91
0 -5 -6 369.84 18.68
0 -5 -6 283.99 15.72
0 5 7 78.89 8.56
0 -5 -7 91.35 10.39
0 5 7 79.75 7.93
0 -5 -7 105.05 13.13
0 -5 -7 69.66 7.85
0 -5 -7 82.9 8.39
0 -5 -7 91.34 9.49
0 5 7 90.31 13.47
0 -5 -8 99.56 8.94
0 -5 -8 101.06 10.22
0 5 8 106.58 10.08
0 -5 -8 80.86 8.62
0 5 8 107.73 10.02
0 5 8 110.46 9.12
0 5 9 14.06 3.38
0 -5 -9 10.74 2.93
0 5 9 18.05 3.5
0 -5 -9 8.96 2.79
0 -5 -9 11.04 2.74
0 5 9 19.97 4.31
0 5 9 15.52 3.71
0 -5 -10 2.04 1.49
0 -5 -10 1.79 1.23
0 5 10 0.5 0.19
0 5 10 1.4 0.17
0 5 10 2.44 1.66
0 -5 -10 -0.11 0.98
0 5 10 0.61 1.01
0 5 11 76.7 7.34
0 -5 -11 71.03 7.03
0 -5 -11 70.03 6.66
0 5 11 64.56 6.81
0 5 11 62.84 6.42
0 5 12 141.41 8.89
0 -5 -12 116.9 7.55
0 5 12 117.79 7.52
0 5 12 123.84 8.14
0 -5 -12 134.59 8.39
0 -5 -13 12.59 2.17
0 5 13 18.89 2.69
0 -5 -13 14.48 2.14
0 5 13 15.29 2.04
0 6 -13 36.31 3.58
0 -6 13 31.37 3.81
0 -6 12 19.92 3.35
0 -6 12 21.01 3.82
0 6 -12 23.16 3.29
0 -6 11 26.64 4.5
0 -6 11 26.93 5.27
0 6 -11 29.23 4.04
0 6 -11 30.64 4.37
0 6 -10 36.93 5.19
0 6 -10 36.18 5.45
0 -6 10 31.39 5.3
0 6 -10 31.71 4.86
0 -6 10 31.78 5.64
0 -6 9 0.71 0.62
0 -6 9 1.62 1.74
0 6 -9 5.29 1.94
0 6 -9 5.79 2.5
0 -6 8 121.14 11.53
0 6 -8 140.83 11.9
0 6 -8 142.71 11.04
0 6 -8 129.13 10.12
0 -6 8 109.17 10.4
0 6 -7 195.3 16.22
0 6 -7 200.67 13.14
0 -6 7 189.28 12.5
0 -6 7 187.31 13.33
0 -6 7 208.67 14.39
0 -6 7 218.86 14.5
0 6 -7 211.1 14.38
0 -6 6 170.83 11.46
0 -6 6 146.62 15.08
0 -6 6 158.28 11.94
0 -6 6 154.62 11.63
0 6 -6 163.11 11.84
0 6 -6 132.26 13.25
0 6 -6 166.01 12.19
0 -6 6 163.38 12.17
0 6 -5 188.19 12.36
0 -6 5 158.79 11.22
0 -6 5 158.79 10.76
0 6 -5 144.56 13.4
0 6 -5 165.79 11.65
0 6 -5 169.69 15.52
0 -6 5 135.19 14.68
0 -6 5 154.86 11.13
0 6 -5 175.68 16.81
0 -6 5 167.29 11.39
0 6 -4 52.09 8.24
0 6 -4 45.83 7.82
0 -6 4 44.85 8.96
0 6 -3 112.2 11.82
0 6 -3 96.71 11.07
0 -6 3 87.73 12.09
0 6 -3 95 9.65
0 6 -2 979.82 34.08
0 6 -2 959.62 35.22
0 -6 2 1030.59 40.33
0 6 -1 23.57 5.27
0 -6 1 17.26 4.83
0 -6 0 122.97 11.53
0 6 0 128.43 11.45
0 6 0 126.94 12.44
0 -6 0 127.02 12.8
0 -6 -1 12.15 4.39
0 -6 -1 17 5.57
0 -6 -2 103.76 11.59
0 -6 -2 126.12 12.79
0 6 2 118.36 12.75
0 6 2 128.92 12.04
0 6 3 584.08 27.51
0 6 3 553.77 29.43
0 -6 -3 525.59 27.15
0 -6 -3 610.13 30.2
0 6 4 27.24 4.22
0 6 4 27.48 4.37
0 6 4 26.77 4.8
0 6 4 31.08 7.65
0 -6 -4 25.89 4.73
0 6 4 26.9 4.7
0 -6 -4 30.81 5.28
0 -6 -4 24.9 4.5
0 -6 -4 28.43 6.64
0 6 4 29.1 6.71
0 6 5 29.72 5.03
0 6 5 33.73 7.87
0 -6 -5 25.59 5.09
0 -6 -5 25.95 4.77
0 6 5 28.93 5.19
0 -6 -5 31.58 7.42
0 -6 -5 29.37 5.55
0 6 5 31.4 7.77
0 -6 -6 3.34 1.78
0 6 6 1.28 2.77
0 -6 -6 -1.81 1.63
0 -6 -6 5 2.71
0 -6 -6 1.7 1.78
0 6 6 1.48 0.62
0 6 6 1.89 2.02
0 6 6 1.11 1.96
0 -6 -7 113.09 10.1
0 6 7 112.32 9.79
0 -6 -7 106.39 10.77
0 6 7 102.98 10.05
0 -6 -7 107.18 9.66
0 -6 -7 104.4 9.27
0 6 8 18.18 3.92
0 -6 -8 18.9 3.77
0 6 8 19.36 4.37
0 -6 -8 16.92 3.77
0 -6 -8 17.46 3.55
0 -6 -8 18.52 4.14
0 6 8 17.34 3.59
0 6 9 41.17 6
0 6 9 43.76 5.43
0 -6 -9 40.63 6.02
0 -6 -9 43.71 5.07
0 -6 -9 45.76 5.93
0 6 9 42.65 6.13
0 -6 -9 40.94 5.09
0 -6 -10 152.52 9.84
0 -6 -10 138.28 7.94
0 6 10 134.5 8.65
0 6 10 149.74 10.51
0 6 10 158.65 10.94
0 -6 -10 164.73 10.9
0 -6 -11 16.12 2.82
0 -6 -11 14.05 2.51
0 6 11 17.5 3.21
0 6 11 16.82 3.24
0 -6 -12 6.34 1.52
0 6 12 4.74 1.42
0 6 12 5.87 1.6
0 -6 -12 5.07 1.13
0 -7 12 21.74 2.98
0 -7 12 23.22 3.26
0 7 -12 24.37 2.78
0 7 -11 4.88 1.45
0 -7 11 2.89 1.43
0 -7 11 2.65 1.12
0 7 -11 3.97 1.33
0 7 -10 74.35 7.16
0 7 -10 78.74 6.6
0 7 -10 76.68 6.99
0 -7 10 76.42 7.93
0 -7 10 72.3 7.47
0 7 -9 478.02 17.83
0 7 -9 495.17 19.69
0 -7 9 437.62 21.15
0 -7 9 419.82 19.64
0 7 -9 474.91 20.66
0 7 -8 52.42 6.38
0 7 -8 58.04 6.32
0 -7 8 56.69 7.27
0 7 -8 64.25 7.9
0 -7 8 52.96 7.41
0 7 -8 56.86 6.77
0 -7 7 50.96 7.05
0 7 -7 51.24 7.01
0 -7 7 47.56 6.82
0 -7 7 43.2 5.89
0 7 -7 47.75 6.44
0 -7 6 728.79 26.75
0 -7 6 684.63 24.54
0 -7 6 718.88 27.01
0 7 -6 723.58 26.37
0 7 -6 776.03 28.03
0 -7 6 754.43 27.37
0 -7 5 1649.01 40.86
0 -7 5 1533.43 37.45
0 7 -5 1583.14 40.53
0 -7 5 1605.29 40.26
0 -7 5 1578.06 39.6
0 7 -5 1586.37 40.45
0 -7 4 184.42 11.87
0 7 -4 182.34 12.51
0 -7 4 185.37 12.52
0 -7 4 201.76 13.1
0 7 -4 173.51 16.43
0 7 -4 197.16 13.54
0 7 -4 175.77 11.85
0 -7 4 175.31 19.12
0 -7 4 190.48 12.52
0 -7 3 100.61 8.65
0 -7 3 99.4 8.89
0 7 -3 110.95 9.41
0 -7 3 107.9 15.03
0 7 -3 106.82 9.96
0 7 -3 94.89 12.06
0 -7 3 95.62 8.61
0 7 -3 102.84 8.96
0 7 -3 87.69 10.82
0 -7 3 100.93 8.92
0 -7 2 201.65 12.32
0 -7 2 224.49 20.88
0 7 -2 210.64 12.71
0 7 -2 210.54 16.66
0 -7 2 200.07 12.57
0 7 -2 208.87 13.91
0 7 -2 216.07 17.89
0 -7 2 188.34 11.84
0 7 -2 205.04 12.83
0 -7 2 198.63 12.44
0 7 -1 49.11 6.03
0 7 -1 57.97 6.83
0 -7 1 52.63 6.12
0 -7 1 47.36 5.85
0 -7 1 47.3 5.95
0 7 -1 49.41 6.54
0 7 -1 50.58 7.75
0 -7 1 49.56 6.21
0 -7 1 64.19 10.89
0 7 -1 52.87 8.83
0 7 0 41.45 6.88
0 -7 0 55.51 6.19
0 -7 0 57.32 9.85
0 7 0 51.51 6.77
0 -7 0 63.29 6.82
0 7 0 49.52 5.81
0 -7 0 44.35 5.85
0 7 0 59.57 9.49
0 7 0 49.65 5.99
0 7 0 49.87 6.45
0 7 1 4.53 1.64
0 -7 -1 3.24 2.57
0 -7 -1 3.85 1.68
0 7 1 4.84 2.06
0 -7 -1 7.3 2.4
0 7 1 3.25 1.68
0 7 1 6.51 2.66
0 -7 -1 6.02 2.94
0 -7 -1 5.27 2.07
0 7 1 3.73 2.41
0 -7 -2 143.16 15.44
0 7 2 152.46 11.25
0 7 2 140.42 13.99
0 7 2 140.19 10.44
0 -7 -2 144.04 10.87
0 -7 -2 143.92 15.13
0 -7 -2 137.07 10.98
0 7 2 133.35 11.2
0 7 2 138.39 15.2
0 -7 -2 142.29 11
0 -7 -3 8.69 2.9
0 -7 -3 8.49 3.51
0 7 3 9.08 3.01
0 7 3 6.65 4.19
0 -7 -3 8.53 3.07
0 -7 -3 10.1 4.12
0 7 3 11.26 3.33
0 7 3 6.98 2.75
0 7 3 9.25 3.36
0 -7 -3 5.74 2.35
0 7 4 468.48 21.85
0 -7 -4 440.09 20.62
0 -7 -4 476.96 21.02
0 7 4 470.98 22.68
0 -7 -4 464.46 21.82
0 7 4 440.99 19.27
0 7 4 459.53 20.13
0 -7 -5 42.48 6.68
0 7 5 37.66 5.68
0 -7 -5 38.11 5.95
0 7 5 37.55 5.66
0 7 5 41.86 6.45
0 -7 -5 39.38 6.13
0 7 5 43.38 6.83
0 7 5 46.87 5.77
0 7 6 25.97 4.99
0 -7 -6 19.66 4.18
0 7 6 24.53 4.41
0 -7 -6 26.33 5.21
0 -7 -6 25.48 4.75
0 7 6 24.03 4.76
0 7 6 24.14 4.93
0 7 7 15.25 4.02
0 -7 -7 10.52 2.89
0 -7 -7 10.09 2.81
0 -7 -7 13.76 3.83
0 7 7 12.43 3.31
0 7 7 10.43 2.76
0 7 7 13.92 3.57
0 -7 -8 97.83 9.35
0 -7 -8 89.19 7.63
0 7 8 99.08 9.33
0 -7 -8 83.96 7.3
0 7 8 86.47 8.37
0 7 8 103.06 8.7
0 -7 -9 305.82 12.33
0 7 9 319.64 15.13
0 -7 -9 306.9 12.32
0 -7 -9 327.04 15.45
0 7 9 316.39 13.85
0 7 9 338.42 16.08
0 7 10 54.2 5.41
0 -7 -10 50.96 3.95
0 7 10 58.12 5.79
0 -7 -10 60.67 5.59
0 7 10 54.62 4.81
0 7 11 115.75 6.59
0 7 11 115.16 6.85
0 -7 -11 127.72 6.67
0 8 -11 0.53 0.52
0 -8 11 0.19 0.4
0 -8 11 -0.1 0.16
0 8 -11 0.22 0.04
0 -8 10 314.87 14.1
0 -8 10 312.39 13.74
0 8 -10 322.2 12.71
0 8 -10 325.25 11.1
0 8 -10 325.23 12.58
0 -8 9 77.49 7.45
0 8 -9 83.68 7.35
0 8 -9 81.3 7.05
0 -8 9 73.43 7.61
0 8 -9 87 6.27
0 -8 8 116.96 10.04
0 8 -8 113.05 9.66
0 8 -8 121.69 9.44
0 -8 8 111.34 9.93
0 8 -8 123.25 8.1
0 8 -8 112.11 8.8
0 8 -7 15.46 3.57
0 -8 7 16.78 3.44
0 8 -7 13.43 3.36
0 -8 7 17.3 3.87
0 8 -7 17.89 3.94
0 8 -7 16.83 3.18
0 -8 7 17.74 4.18
0 -8 6 30.46 4.84
0 8 -6 28.38 5.08
0 -8 6 27.9 5.05
0 -8 6 30.68 5.12
0 -8 6 26.77 5.02
0 8 -6 28.28 4.83
0 8 -5 3.74 1.51
0 -8 5 3.54 1.86
0 -8 5 4.57 1.86
0 -8 5 6.09 2.16
0 -8 5 4.15 1.34
0 8 -5 6.08 2.3
0 8 -5 2.7 1.79
0 -8 4 355.1 17.69
0 8 -4 386.88 19.33
0 8 -4 346.43 17.44
0 8 -4 391.15 19.01
0 -8 4 392.31 19.26
0 -8 4 369.83 17.52
0 -8 4 352.72 17.91
0 -8 3 222.23 14.13
0 -8 3 216.95 13.31
0 8 -3 224.77 14.05
0 -8 3 219.08 13.81
0 8 -3 211.09 13.61
0 8 -3 213.25 14.51
0 -8 3 219.09 13.7
0 8 -2 19.6 4.29
0 8 -2 22.16 4.22
0 -8 2 18.66 3.92
0 8 -2 22.22 4.73
0 -8 2 21.47 4.24
0 -8 2 21 4.19
0 -8 2 20.1 3.99
0 -8 1 17.89 3.79
0 -8 1 20.32 4.26
0 8 -1 17.65 4.16
0 8 -1 21.31 4.26
0 -8 1 20.59 4.06
0 8 -1 18.33 3.85
0 -8 1 21.57 4.2
0 8 0 9.16 2.74
0 -8 0 8.36 2.42
0 -8 0 8.24 2.44
0 -8 0 7.36 2.31
0 8 0 9.84 2.82
0 8 0 7.82 2.65
0 -8 0 7.6 2.19
0 8 1 206.7 14.62
0 8 1 220.96 13.65
0 -8 -1 216.38 13.81
0 -8 -1 227.87 14.27
0 8 1 229.97 13.98
0 -8 -2 56.47 7.18
0 8 2 47.79 6.59
0 -8 -2 62.73 7.55
0 8 2 49.97 7.11
0 8 2 55.38 6.94
0 -8 -3 16.97 3.97
0 8 3 13.71 3.38
0 -8 -3 17.57 4.14
0 8 3 18.66 4.36
0 8 3 10.45 3.04
0 8 4 47.41 6.17
0 8 4 53.65 7.04
0 -8 -4 47.2 6.82
0 8 4 44.75 6.16
0 -8 -4 49.13 6.63
0 8 4 48.34 6.86
0 -8 -5 192.91 13.45
0 8 5 185.97 13.56
0 -8 -5 159.64 11.82
0 8 5 188.54 11.52
0 8 5 173.48 11.98
0 -8 -5 179.26 12.5
0 8 5 166.64 12.58
0 -8 -6 75.51 7.49
0 8 6 72.71 7.28
0 -8 -6 83.08 7.88
0 8 6 70.35 7.93
0 8 6 72.17 7.89
0 8 6 68.43 6.77
0 -8 -6 70.72 7.83
0 -8 -7 0.18 0.68
0 8 7 2.03 1.64
0 8 7 1.2 0.82
0 8 7 0.2 0.42
0 8 7 0.06 0.64
0 -8 -7 0.95 0.89
0 -8 -8 274.15 13.2
0 -8 -8 287.29 11.65
0 8 8 267.61 13.53
0 8 8 252.54 12.09
0 -8 -8 261.6 11.06
0 8 8 261.8 12.49
0 8 9 28.6 3.4
0 8 9 25.26 3.24
0 -8 -9 28.38 3.58
0 -8 -9 23.92 2.59
0 8 9 28.46 3.83
0 8 10 30.1 3.21
0 -8 -10 28.59 2.8
0 -9 10 0.87 0.61
0 9 -10 0.5 0.17
0 -9 10 1.29 0.58
0 9 -9 0.05 0.65
0 -9 9 0.97 0.82
0 9 -9 0.41 0.38
0 -9 9 0.34 0.35
0 9 -8 35.24 4.41
0 9 -8 33.43 4.17
0 -9 8 33.81 4.72
0 -9 8 35.41 4.88
0 9 -8 30.19 3.83
0 9 -7 14.24 2.97
0 -9 7 10.45 2.7
0 -9 7 11.34 2.84
0 9 -7 14.14 3.04
0 9 -7 11.22 2.73
0 -9 6 147.46 10.77
0 9 -6 138.34 10.26
0 -9 6 127.42 10.08
0 -9 6 121.9 8.85
0 9 -6 153.03 10.41
0 9 -6 129.19 9.78
0 -9 5 279.7 15.02
0 -9 5 246.29 13.17
0 -9 5 264.54 14.34
0 -9 5 239.82 14.46
0 9 -5 238.87 14.04
0 9 -5 246.16 15.05
0 9 -5 265.49 14.54
0 -9 4 79.72 8.1
0 -9 4 58.29 7.47
0 9 -4 26.5 5.34
0 -9 4 33.58 5.53
0 9 -4 24.68 4.56
0 -9 4 88.6 9.78
0 9 -4 46.02 6.46
0 -9 3 103.2 9.21
0 9 -3 107.11 9.57
0 9 -3 98.42 9.04
0 -9 3 97.47 8.62
0 9 -3 114.54 9.69
0 -9 3 111.8 9.31
0 -9 3 97.18 9.32
0 -9 2 21.52 4.85
0 -9 2 13.12 3.69
0 9 -2 11.77 3.42
0 -9 2 10.31 2.84
0 -9 2 20.79 4.38
0 -9 2 15.12 3.99
0 9 -2 11.79 3.93
0 9 -2 14.36 3.74
0 -9 1 488.31 20.45
0 9 -1 561.13 22.56
0 -9 1 624.37 22.93
0 9 -1 491.73 22.01
0 -9 1 508.86 20.97
0 -9 1 553.76 21.88
0 -9 1 517.57 22.22
0 9 -1 457.17 20.34
0 -9 0 64.89 7.36
0 -9 0 65.23 6.97
0 9 0 67.68 8.07
0 9 0 65.39 6.71
0 9 0 67.52 7.48
0 -9 0 65.96 7.28
0 -9 0 66.63 7.24
0 -9 -1 32.01 5.52
0 9 1 15.87 3.86
0 9 1 20.22 5.37
0 9 1 24.82 5.38
0 -9 -1 27.47 6.22
0 9 1 19.6 4.26
0 -9 -2 297.77 15.89
0 9 2 314.82 15.96
0 9 2 279.74 16.14
0 -9 -2 281.62 15.41
0 9 2 298.98 15.61
0 -9 -2 296.06 16.07
0 9 3 148.5 10.96
0 -9 -3 177.85 12.19
0 9 3 139.47 10.88
0 9 3 153.83 11.34
0 -9 -4 29.34 4.83
0 9 4 32.02 5.32
0 9 4 23.99 4.53
0 9 4 20.3 3.82
0 9 5 2.14 1
0 -9 -5 0.56 0.67
0 -9 -5 2.3 1.71
0 9 5 1.89 1.42
0 9 5 2.08 1.42
0 9 5 1.93 1.03
0 9 6 92.97 7.35
0 9 6 102.5 7.95
0 -9 -6 96.34 7.82
0 -9 -6 106.9 7.75
0 9 6 91.74 6.22
0 -9 -6 115.57 7.78
0 9 7 23.89 3.39
0 9 7 18.3 2.9
0 -9 -7 22.61 3.22
0 -9 -7 23.39 2.91
0 -9 -7 23.06 2.98
0 9 8 15.57 2.25
0 -9 -8 17.8 1.92
0 9 8 19.06 2.51
0 -9 -8 19.85 2.51
0 10 -8 68.04 4.26
0 -10 8 90.72 5.37
0 10 -7 74.98 5.31
0 -10 7 107.8 6.81
0 -10 7 94.36 6.3
0 10 -7 79.76 5.45
0 10 -7 68.7 5.07
0 10 -6 76.66 6.08
0 -10 6 83.45 6.63
0 -10 6 82.54 6.57
0 10 -6 76.86 5.91
0 10 -6 71.67 6.07
0 -10 5 20.12 3.02
0 10 -5 22.98 3.82
0 10 -5 22.46 3.6
0 -10 5 24.57 3.78
0 10 -5 16.93 2.89
0 -10 5 21.07 3.48
0 -10 4 107.21 8.13
0 10 -4 113.06 8.33
0 -10 4 123.64 8.83
0 10 -4 79.3 6.76
0 10 -4 84.81 7.89
0 -10 4 85.86 6.78
0 -10 4 99.36 7.64
0 -10 3 189.01 10.82
0 -10 3 217.74 11.95
0 10 -3 155.17 9.74
0 -10 3 178.53 10.32
0 10 -3 165.91 11.53
0 -10 3 197 11.37
0 10 -3 229.95 12.17
0 -10 2 24.08 3.91
0 -10 2 24.93 3.69
0 10 -2 22.51 3.84
0 10 -2 21.81 4.27
0 -10 2 24.64 3.87
0 -10 2 23.15 3.78
0 10 -2 21.43 3.34
0 -10 2 23 3.88
0 10 -2 26.57 4.06
0 10 -1 161.73 10.97
0 -10 1 143.22 9.12
0 10 -1 145.58 10.67
0 -10 1 149.42 9.82
0 10 -1 167 10.67
0 -10 1 152.97 10.1
0 -10 1 161.75 10.38
0 -10 1 154.06 10.09
0 -10 0 33.21 4.53
0 -10 0 36.05 4.84
0 -10 0 32.72 4.58
0 10 0 35.36 4.79
0 -10 0 29.9 4.61
0 10 0 32.94 4.88
0 10 0 32.81 4.71
0 -10 -1 389.39 15.79
0 10 1 381.23 14.84
0 -10 -1 360.49 15.6
0 10 1 354.79 13.93
0 -10 -1 400.67 16.5
0 10 1 385.49 17.34
0 -10 -1 392.75 17.4
0 10 1 400.53 16.39
0 -10 -2 191.03 10.92
0 -10 -2 190.48 11
0 10 2 179.57 10.42
0 10 2 187.13 10.27
0 10 2 182.72 10.99
0 -10 -2 191.15 10.72
0 -10 -2 185.15 11.65
0 10 3 31 4.03
0 -10 -3 31.42 4.51
0 10 3 29.35 4.01
0 -10 -3 30.1 4.14
0 -10 -3 28.04 3.83
0 10 3 27.18 3.89
0 -10 -3 31.63 4.22
0 10 4 80.79 6.55
0 -10 -4 81.56 6.34
0 10 4 83.16 5.69
0 -10 -4 76.18 6.1
0 -10 -4 84.51 6.41
0 -10 -4 88.95 6.91
0 -10 -5 116.79 6.52
0 10 5 123.23 7.27
0 -10 -5 108.51 6.58
0 -10 -5 121.17 7.02
0 -10 -5 105.95 6.53
0 -10 -6 79.85 4.58
0 -10 -6 83.02 4.73
0 11 -4 50.33 3.93
0 11 -4 47.5 3.96
0 -11 3 11.09 1.95
0 11 -3 10.68 1.96
0 11 -3 9.2 1.92
0 -11 2 147.96 7.03
0 11 -2 146.21 7.53
0 -11 2 152.25 7.18
0 -11 2 159.89 7.6
0 11 -2 156.17 7.74
0 -11 1 14.34 2.24
0 11 -1 10.82 2.06
0 -11 1 12.05 1.98
0 -11 1 12.79 2.11
0 -11 0 32.63 3.54
0 11 0 37.87 3.93
0 -11 -1 5.97 1.45
0 -11 -1 7.7 1.57
0 -11 -1 5.54 1.25
1 -11 -3 10.83 1.95
1 -11 -3 11.89 1.93
1 -11 -3 12.44 2.17
1 -11 -2 27.82 2.94
1 -11 -2 33.47 3.73
1 -11 -2 29.06 3.46
1 -11 -2 26.56 3.12
1 -11 -1 33.46 3.64
1 -11 -1 34.77 3.94
-1 11 1 24.24 2.96
1 -11 -1 31.9 3.6
1 -11 -1 29.01 3.13
1 -11 0 2.09 0.89
1 -11 0 3.33 1.12
1 -11 0 4.07 1.43
-1 11 0 3.57 1.22
1 -11 0 3.48 1.16
-1 11 0 3.42 1.1
-1 11 -1 65.57 5.53
1 -11 1 78.6 6.18
-1 11 -1 64.11 5.27
1 -11 1 65.81 4.83
1 -11 1 67.45 5.08
1 -11 1 57.98 4.49
1 -11 2 0.76 0.21
1 -11 2 1.96 0.69
-1 11 -2 2.53 1.04
-1 11 -2 2.93 1.51
1 -11 2 2.22 1.17
-1 11 -3 95.85 6.89
-1 11 -3 94.13 6.24
1 -11 3 79.12 5.57
1 -11 3 103.49 6.95
-1 11 -4 120.16 7.17
1 -11 4 106.59 6.28
-1 11 -4 115.41 6.61
1 -11 4 119.28 7.15
-1 11 -5 6.1 1.33
-1 11 -5 5.89 1.2
1 -11 5 8.07 1.72
1 -10 -7 2.69 0.83
-1 10 7 2.86 0.93
-1 10 7 2.25 1.03
1 -10 -7 4.22 1.09
-1 10 6 3.04 1.18
1 -10 -6 3.78 1.23
1 -10 -6 5.51 1.57
1 -10 -6 5.42 1.47
1 -10 -6 4.65 1.3
1 -10 -5 85.69 6.56
1 -10 -5 84.65 6.52
1 -10 -5 87.76 6.98
-1 10 5 87.72 6.95
1 -10 -4 63.48 6.35
-1 10 4 54.05 5.92
1 -10 -4 57.6 5.68
1 -10 -4 54.47 5.65
-1 10 3 12.31 2.87
1 -10 -3 14.7 3.12
1 -10 -3 11.07 2.48
-1 10 3 14.21 2.82
1 -10 -3 9.65 2.35
1 -10 -2 14.78 3.44
-1 10 2 15.63 3.06
-1 10 2 11.9 2.78
-1 10 2 15.77 3.25
1 -10 -2 14.24 3.05
1 -10 -2 18.21 4
1 -10 -1 46.82 5.44
-1 10 1 53.86 5.42
1 -10 -1 60.7 6.9
-1 10 1 56.33 6.1
1 -10 -1 56.2 5.54
-1 10 1 50.04 6.4
-1 10 1 53.79 5.99
1 -10 -1 54.6 6.08
1 -10 -1 61.08 6.57
-1 10 1 53.67 5.82
-1 10 0 2.14 0.99
1 -10 0 2.31 1.6
1 -10 0 1.37 1.02
-1 10 0 0.06 0.51
-1 10 0 0.61 0.55
-1 10 0 1.75 0.69
1 -10 0 1.99 1.38
1 -10 0 0.38 0.58
1 -10 0 -0.2 0.41
1 -10 1 6.18 2.19
1 -10 1 4.13 1.36
-1 10 -1 2.55 1.47
1 -10 1 3.86 1.48
1 -10 1 2.32 0.74
-1 10 -1 1.11 0.34
1 -10 1 4.75 1.96
1 -10 2 3.26 1.56
-1 10 -2 0.69 0.98
-1 10 -2 3.65 1.67
1 -10 2 3.25 1.51
-1 10 -2 3.35 2
1 -10 2 7.62 2.72
1 -10 3 65.07 6.3
-1 10 -3 59.98 6.31
1 -10 3 69.01 7.11
1 -10 3 66.43 6.74
-1 10 -3 67.62 7.56
-1 10 -3 60 6.46
1 -10 3 61.73 5.86
-1 10 -4 7.27 2.56
1 -10 4 4.78 1.99
-1 10 -4 2.52 1.29
1 -10 4 3.41 1.38
1 -10 4 7.39 2.28
-1 10 -4 5.57 1.89
1 -10 4 6.71 2.42
-1 10 -5 207.23 11.83
1 -10 5 221.93 12.26
-1 10 -5 214.41 11.08
1 -10 5 200.25 11.6
-1 10 -5 194.73 11.01
1 -10 6 76.34 6.87
-1 10 -6 72.81 5.98
-1 10 -6 68.45 6.05
-1 10 -6 78.64 6.5
1 -10 6 74.36 6.63
-1 10 -7 -0.11 0.53
-1 10 -7 0.36 0.17
-1 10 -7 0.35 0.76
1 -10 7 1.69 1.12
1 -10 7 0.72 0.78
1 -10 8 1.99 0.86
-1 10 -8 4.15 1.05
1 -10 8 3.19 1.15
-1 10 -8 2.68 0.91
-1 9 9 80.97 4.58
-1 9 9 89.53 5.43
1 -9 -9 88.71 4.99
1 -9 -9 94.42 4.56
-1 9 9 74.66 4.78
1 -9 -8 20.54 3.01
-1 9 8 24.34 3.28
1 -9 -8 23.98 3
-1 9 8 32 4.03
1 -9 -8 17.66 2.64
-1 9 8 24.82 3
-1 9 7 33.33 4.03
1 -9 -7 34.31 4.22
-1 9 7 39.78 4.92
-1 9 7 33.61 4.67
1 -9 -7 32.87 4.43
1 -9 -6 9.65 2.61
1 -9 -6 8.15 2.19
-1 9 6 9.76 2.8
-1 9 6 9.68 2.44
-1 9 6 9.4 2.8
1 -9 -5 20.71 3.92
-1 9 5 18.31 3.78
-1 9 5 17.05 3.15
1 -9 -5 18.64 3.69
-1 9 5 20.05 4.19
1 -9 -4 24.63 4.73
-1 9 4 27.1 4.53
-1 9 4 24.45 5.4
-1 9 4 18.46 3.91
1 -9 -4 28.92 4.93
-1 9 3 253.94 15.48
-1 9 3 234.13 13.86
1 -9 -3 263.04 15.05
-1 9 3 234.79 14.71
1 -9 -3 272.99 15.11
1 -9 -2 129.6 10.49
1 -9 -2 81.25 7.51
1 -9 -2 129.64 10.92
1 -9 -2 118.4 9.98
-1 9 2 97.57 10.19
-1 9 2 119.64 10
-1 9 2 106.3 10.04
-1 9 2 63.31 7.59
1 -9 -1 120.27 10.87
1 -9 -1 91.48 8.56
1 -9 -1 138.28 10.49
-1 9 1 74.53 8.83
-1 9 1 118.97 11.54
-1 9 1 112.14 9.9
-1 9 1 123.43 10.2
1 -9 -1 132.8 10.69
1 -9 0 104.38 8.95
-1 9 0 118.02 9.89
-1 9 0 109.36 9.15
-1 9 0 113.15 11.08
1 -9 0 119.8 9.73
1 -9 0 117.17 9.6
1 -9 0 119.62 10.19
-1 9 0 117.79 10.89
1 -9 1 61.62 7.17
-1 9 -1 59.34 8.76
1 -9 1 51.51 6.73
-1 9 -1 57.26 6.39
1 -9 1 70.51 7.49
-1 9 -1 58.66 7.77
1 -9 1 64.36 7.6
-1 9 -1 50.96 6.89
-1 9 -1 78.12 8.13
-1 9 -2 275.5 18.27
-1 9 -2 281.57 15.45
1 -9 2 275.92 15.65
1 -9 2 258.87 14.12
-1 9 -2 256.84 15.56
1 -9 2 305 15.87
-1 9 -2 265.01 15.92
1 -9 2 278.27 14.83
1 -9 3 253.33 13.68
-1 9 -3 250.79 14.69
1 -9 3 264.36 14.4
-1 9 -3 239.04 14.6
1 -9 3 282.3 15.81
-1 9 -3 284.5 17.81
-1 9 -3 261.04 15.4
1 -9 3 259.96 14.89
1 -9 4 265.62 14.38
-1 9 -4 240.31 14.57
-1 9 -4 261.27 16.59
1 -9 4 238.3 13.03
-1 9 -4 266.18 15.28
1 -9 4 278.45 15.88
1 -9 4 268.85 15.35
-1 9 -5 69.07 7.49
1 -9 5 66.9 7.08
-1 9 -5 72.25 7.48
1 -9 5 75.33 7.89
-1 9 -5 70.42 7.85
1 -9 5 79.89 8.36
-1 9 -6 4.51 2.24
1 -9 6 6.66 3
-1 9 -6 6.32 2.66
1 -9 6 8.91 2.97
-1 9 -6 5.63 2.28
1 -9 7 19.38 3.84
1 -9 7 13.56 3.19
-1 9 -7 16.56 3.34
-1 9 -7 18 3.63
-1 9 -7 18.26 3.41
-1 9 -8 50.67 5.21
-1 9 -8 47.36 5.3
1 -9 8 49.87 5.56
-1 9 -8 43.22 4.56
1 -9 8 56.5 6.36
1 -9 9 67.4 5.69
1 -9 9 74.39 6.44
-1 9 -9 71.55 5.52
-1 9 -9 70.39 5.51
-1 9 -10 40.51 3.35
1 -9 10 51.28 4.01
-1 8 11 3.5 1.07
-1 8 10 57.45 5.17
-1 8 10 49.89 4.55
1 -8 -10 49.46 3.74
-1 8 10 42.18 3.58
1 -8 -10 54.29 4.61
-1 8 9 82.47 7.33
-1 8 9 83.44 7.04
1 -8 -9 86.32 7.15
1 -8 -9 76.09 5.85
-1 8 9 80.26 6.4
1 -8 -8 502.41 17.67
-1 8 8 458.63 19.48
1 -8 -8 449.28 18.74
-1 8 8 458.97 17.92
-1 8 8 406.61 17.46
-1 8 7 28.68 5.27
-1 8 7 34.86 5.31
1 -8 -7 36.42 5.62
-1 8 7 34.25 5.27
1 -8 -7 37.77 5.28
-1 8 6 10 3.53
1 -8 -6 6.16 2.5
-1 8 6 5.24 2.4
-1 8 6 3.35 2.43
1 -8 -6 6.58 2.94
-1 8 5 88.97 8.8
-1 8 5 97.81 11.54
1 -8 -5 90.32 9.46
-1 8 5 55.91 9.12
-1 8 5 65.47 7.73
1 -8 -5 114.76 10.74
-1 8 5 67.4 8.08
1 -8 -4 60.05 7.65
-1 8 4 53.72 7.37
-1 8 4 36.9 7
-1 8 4 45.75 6.43
-1 8 4 49.29 6.59
-1 8 4 47.49 8.18
1 -8 -4 61.44 8
1 -8 -3 276.16 15.7
-1 8 3 291.28 17.14
-1 8 3 229.1 15.33
1 -8 -3 275.54 16.15
-1 8 3 286.4 15.61
1 -8 -2 156.67 11.69
1 -8 -2 151.63 11.61
-1 8 2 147.88 12.05
-1 8 2 150.08 11.31
-1 8 2 137.05 12.54
-1 8 2 139.07 11.44
1 -8 -1 807.72 25.55
-1 8 1 830.88 27.06
-1 8 1 815.93 30.6
-1 8 1 772.43 26.59
1 -8 -1 814.02 26.96
1 -8 -1 787.35 26.86
1 -8 0 145.36 10.76
-1 8 0 160.76 11.52
1 -8 0 143.18 10.34
1 -8 0 164.68 12.08
1 -8 0 155.52 11.29
-1 8 0 135.11 10.4
-1 8 0 168.33 13.13
-1 8 -1 55.19 8.54
1 -8 1 91.73 8.76
-1 8 -1 72.95 8.38
1 -8 1 57.21 6.98
-1 8 -1 41.96 6.79
1 -8 1 82.15 8.91
-1 8 -1 64.89 8.66
1 -8 1 73.36 7.54
1 -8 2 507.95 20.32
-1 8 -2 423.36 21.31
1 -8 2 490.75 20.94
1 -8 2 523.76 20.97
-1 8 -2 493.13 22.52
-1 8 -2 431.61 20.18
1 -8 3 85.43 8.17
1 -8 3 87.59 8.93
-1 8 -3 92.54 9.58
1 -8 3 75.36 8.83
-1 8 -3 83.26 8.84
-1 8 -3 94.62 9.34
1 -8 3 108.57 9.52
-1 8 -4 59.97 7.89
-1 8 -4 62.3 8.38
1 -8 4 95.66 9.28
-1 8 -4 66.92 9.7
1 -8 4 65.22 7.93
1 -8 4 62.6 8.94
1 -8 4 102.31 9.55
1 -8 5 132.1 10.72
-1 8 -5 112.06 10.71
1 -8 5 124.86 10.92
1 -8 5 126.67 10.3
-1 8 -5 116.21 10.46
-1 8 -5 114.76 10.11
1 -8 6 249.25 15.14
1 -8 6 289.38 17.06
-1 8 -6 256.73 15.39
-1 8 -6 285.02 15.78
-1 8 -6 260.2 15.78
-1 8 -7 24.09 4.82
1 -8 7 31.64 5.17
-1 8 -7 26.25 4.48
1 -8 7 27.63 5.28
-1 8 -7 23.5 4.26
-1 8 -8 1.79 1.11
-1 8 -8 7.08 2.24
1 -8 8 3.98 2.22
-1 8 -8 4.57 2.66
-1 8 -8 3.48 1.43
-1 8 -9 40.94 5.57
-1 8 -9 36.94 4.11
-1 8 -10 69.87 5.83
1 -8 10 69.5 6.27
-1 8 -10 71.29 4.71
-1 8 -10 73.96 6.15
1 -8 11 3.41 1.25
1 -8 11 4.68 1.6
-1 8 -11 -0.02 0.6
1 -7 -12 1.84 0.61
-1 7 12 1.68 0.7
-1 7 12 0.95 0.43
-1 7 11 5.07 1.61
-1 7 11 3.2 1.04
1 -7 -11 3.77 1.3
1 -7 -11 3.44 1.08
-1 7 10 6.35 1.64
1 -7 -10 6.67 1.66
-1 7 10 4.02 1.58
1 -7 -10 8.26 2.15
-1 7 10 7.48 2.4
-1 7 9 6.49 2.2
-1 7 9 6.57 2.27
1 -7 -9 7.5 2.47
-1 7 9 4.41 1.78
1 -7 -9 4.95 1.49
1 -7 -8 32.37 4.85
-1 7 8 29 4.74
-1 7 8 36.98 5.93
-1 7 8 31.49 5.62
1 -7 -8 29.53 5.4
-1 7 7 336.72 18.88
-1 7 7 314.73 17.16
1 -7 -7 296.5 15.09
1 -7 -7 343.34 19.13
-1 7 7 322.45 19.06
1 -7 -6 5.45 2.31
1 -7 -6 6.83 2.33
-1 7 6 5.38 2.07
-1 7 6 6.24 2.38
-1 7 6 4.7 2.52
1 -7 -6 5.44 2.27
1 -7 -5 10 3.25
-1 7 5 10.71 2.95
-1 7 5 8.63 3.33
-1 7 5 12.48 3.64
1 -7 -5 6.62 2.44
1 -7 -5 7.63 2.69
-1 7 4 337.67 18.72
-1 7 4 319.91 18.7
-1 7 4 321.6 16.07
1 -7 -4 305.53 17.28
-1 7 4 349.78 25.78
1 -7 -4 324.26 16.78
1 -7 -4 304.31 22.71
-1 7 4 286.6 15.85
-1 7 4 270.56 23.46
1 -7 -4 256.48 14.78
-1 7 4 335.14 16.63
1 -7 -3 264.8 14.69
-1 7 3 304.36 22.98
1 -7 -3 282.1 20.4
-1 7 3 275.03 14.5
-1 7 3 318.96 17.19
-1 7 3 298.76 16.59
1 -7 -3 290.99 16.17
1 -7 -3 350.48 16.85
1 -7 -3 290.6 21.18
-1 7 3 264.99 16.16
-1 7 3 289 14.81
1 -7 -2 661.94 30.6
-1 7 2 734.68 34.63
-1 7 2 630.45 26.15
-1 7 2 679.05 24.32
1 -7 -2 645.58 22.81
1 -7 -2 626.86 23.37
-1 7 2 623.8 21.97
1 -7 -2 620.36 30.25
1 -7 -1 48.22 8.24
-1 7 1 41.97 5.39
1 -7 -1 41.17 5.39
-1 7 1 41.19 5.57
-1 7 1 47.03 8.38
1 -7 -1 48.16 7.62
-1 7 1 45.27 6.64
1 -7 -1 38.43 5.41
-1 7 0 160.88 15.39
-1 7 0 166.5 10.88
1 -7 0 155.94 10.75
-1 7 0 185.95 12.98
1 -7 0 170.06 15.89
-1 7 0 157.86 10.65
1 -7 0 158.54 10.51
-1 7 -1 559.76 20.59
-1 7 -1 601.84 22.88
1 -7 1 536.64 19.57
-1 7 -1 528.18 19.6
1 -7 1 545.1 20.42
1 -7 1 583.39 30.81
-1 7 -1 561.68 24.28
-1 7 -1 570.16 29.39
1 -7 1 590.77 22.01
1 -7 2 4.44 2.63
1 -7 2 7.19 2.12
-1 7 -2 6.61 2.48
1 -7 2 5.15 1.99
1 -7 2 5.38 1.8
-1 7 -2 7.48 2.38
1 -7 2 4.91 1.74
-1 7 -2 3.85 1.67
-1 7 -2 4.62 2.97
-1 7 -3 228.52 13.78
1 -7 3 225.11 13.7
-1 7 -3 233.49 14.78
1 -7 3 215.72 19.95
-1 7 -3 227.14 13.49
1 -7 3 232.73 12.69
1 -7 3 225.35 12.99
-1 7 -3 223.95 19.02
1 -7 3 266.23 13.72
-1 7 -4 57.23 7.31
1 -7 4 65.02 7.07
-1 7 -4 55.73 9.65
-1 7 -4 56.41 6.96
1 -7 4 55.46 6.91
-1 7 -4 55.12 6.67
1 -7 4 58.93 6.87
1 -7 4 57.18 6.27
1 -7 4 55.67 10.47
1 -7 5 52.49 6.46
1 -7 5 49 6.3
1 -7 5 38.01 8.32
-1 7 -5 47 6.65
1 -7 5 54.3 7.17
-1 7 -5 44.94 9.12
-1 7 -5 44.38 6.22
1 -7 6 51.7 7.18
1 -7 6 50 6.48
-1 7 -6 51.69 5.77
-1 7 -6 51.6 6.71
1 -7 6 48.22 6.63
-1 7 -6 47.13 6.76
-1 7 -6 49.98 6.69
-1 7 -7 1.31 0.26
-1 7 -7 1.78 1.46
1 -7 7 -0.61 1.18
-1 7 -7 0.67 0.77
1 -7 7 1.89 1.48
-1 7 -7 0.56 1.2
1 -7 8 26.09 5.56
-1 7 -8 25.11 4.47
1 -7 8 24.45 4.99
-1 7 -8 28.6 4.75
-1 7 -8 25.92 5.17
-1 7 -8 29.37 4.21
1 -7 9 88.4 9.61
-1 7 -9 90.01 7.15
-1 7 -9 104.14 9.6
-1 7 -9 89.88 8.22
1 -7 9 85.87 8.56
1 -7 10 9.21 2.47
-1 7 -10 10.75 2.36
-1 7 -10 14.69 2.91
1 -7 10 11.25 3
-1 7 -10 12.05 3.06
-1 7 -11 10.02 1.98
1 -7 11 15.07 3.16
-1 7 -11 9.34 2.05
-1 7 -11 13.37 2.37
1 -7 11 10.08 2.45
1 -7 12 10.57 2.39
-1 7 -12 13.14 1.93
1 -6 -13 0.32 0.31
-1 6 13 0.21 0.5
-1 6 12 94.78 6.93
1 -6 -12 96.59 6.79
-1 6 12 90.12 6.63
1 -6 -12 79.67 5.09
1 -6 -12 77.95 4.7
1 -6 -11 0.97 0.54
-1 6 11 0.4 0.13
-1 6 11 0.26 0.54
1 -6 -11 0.25 0.25
1 -6 -11 1.05 0.81
-1 6 10 285.19 15.62
-1 6 10 292.58 15.88
-1 6 10 239.91 13.88
-1 6 10 258.13 12.62
1 -6 -10 265.19 12.69
1 -6 -10 246.36 12.78
1 -6 -10 292.05 15.6
-1 6 9 1.67 0.82
1 -6 -9 5.33 2.48
-1 6 9 4.05 2.43
-1 6 9 2.32 1.16
-1 6 9 2.15 1.37
1 -6 -8 91.83 9.89
-1 6 8 91.48 9.67
-1 6 8 95.01 10.16
-1 6 8 88.27 8.55
-1 6 8 83.3 9.04
1 -6 -7 90.6 9.89
1 -6 -7 78.84 7.83
-1 6 7 86.29 8.93
-1 6 7 88.47 14.12
-1 6 7 79.97 8.43
-1 6 7 79.91 9.14
-1 6 7 89.19 9.88
-1 6 6 306.1 18.44
-1 6 6 288.49 17.05
1 -6 -6 309.87 23.38
1 -6 -6 303.96 17.61
1 -6 -6 326.32 20.74
-1 6 6 310.76 25.19
1 -6 -6 240.11 14.04
-1 6 6 314.71 16.53
-1 6 6 283.85 16.62
-1 6 5 19.04 4.35
-1 6 5 18.44 3.8
1 -6 -5 20.26 4.27
-1 6 5 16.76 4.29
1 -6 -5 17.59 4.76
-1 6 5 17.2 5.33
1 -6 -5 13.36 2.93
1 -6 -5 18.08 5.13
-1 6 4 704.82 33.67
1 -6 -4 666.27 28.88
1 -6 -4 661.91 27.74
1 -6 -4 680.23 31.52
1 -6 -3 248.14 17.6
1 -6 -3 213.92 15.61
-1 6 3 252.46 16.83
-1 6 3 252.35 18.9
1 -6 -3 245.66 15.27
1 -6 -2 144.28 12.48
-1 6 2 151.71 13.85
-1 6 2 168.34 12.58
1 -6 -2 140.19 12.37
-1 6 1 1.13 0.65
-1 6 1 0.94 1.53
1 -6 -1 1.55 1.86
1 -6 -1 1.24 1.15
1 -6 0 16.37 4.19
-1 6 0 14.12 4.2
1 -6 0 17.8 3.92
-1 6 0 10.21 2.59
-1 6 -1 1649.3 47.05
1 -6 1 1712.19 47.71
-1 6 -1 1750.56 41.22
1 -6 2 78.08 10.01
-1 6 -2 76.81 9.86
-1 6 -2 72.61 8.15
-1 6 -3 1140.89 35.44
1 -6 3 1024.46 39.4
-1 6 -3 1073.79 38.89
-1 6 -4 44.8 7.91
1 -6 4 35.9 7.13
-1 6 -5 22.35 4.16
1 -6 5 22.09 3.92
1 -6 5 18.68 5.04
-1 6 -5 23.44 4.37
1 -6 5 23.25 4.32
-1 6 -5 19.82 5.41
-1 6 -6 93.71 12.61
1 -6 6 79.95 10.45
1 -6 6 100.9 9.79
1 -6 6 95.99 8.71
1 -6 6 99.87 9.14
-1 6 -6 91.87 9.04
-1 6 -6 102.75 9.16
-1 6 -7 15.56 3.51
-1 6 -7 16.24 3.29
-1 6 -7 13.63 4.94
1 -6 7 15.05 4
1 -6 7 19.66 4.05
-1 6 -7 19.9 3.74
-1 6 -7 16.8 4.03
1 -6 8 327.35 19.65
1 -6 8 293.67 15.45
-1 6 -8 331.07 18.62
-1 6 -8 330.28 15.25
-1 6 -8 317.27 16.4
1 -6 8 281.2 16.35
-1 6 -9 25.16 4.08
1 -6 9 27.18 5.53
-1 6 -9 20.68 3.88
-1 6 -9 26.14 4.95
1 -6 9 26.71 4.98
1 -6 9 22.53 3.97
1 -6 10 254.96 13.14
-1 6 -10 281.73 14.32
1 -6 10 277.19 17.27
-1 6 -10 290.9 15.89
-1 6 -10 259.35 12.95
1 -6 10 236.69 14.1
1 -6 11 36.93 4.47
1 -6 11 44.91 6.4
-1 6 -11 38.61 4.72
-1 6 -11 43.02 5.06
-1 6 -11 39.52 4.65
1 -6 11 31.04 4.61
1 -6 12 78.68 5.7
-1 6 -12 87.72 5.8
1 -6 12 96.15 8.07
-1 6 -12 84.77 6.17
1 -6 13 11.41 2.25
1 -6 13 8.49 1.43
-1 6 -13 8.21 1.59
-1 5 14 50.49 3.45
1 -5 -14 53.45 3.82
-1 5 13 15.32 2.55
-1 5 13 12.51 2.31
1 -5 -13 15.66 2.62
1 -5 -13 10.17 1.89
-1 5 13 13.42 2.27
-1 5 12 -0.27 0.58
-1 5 12 1.84 1.16
1 -5 -12 0.73 0.44
1 -5 -12 0.14 0.31
1 -5 -12 1.14 1.01
-1 5 12 1.09 0.99
-1 5 11 538.65 21.13
1 -5 -11 546.51 21.03
-1 5 11 473.64 20.06
-1 5 11 544.11 21.43
-1 5 10 204.87 14.31
-1 5 10 249.22 15.37
-1 5 10 211.1 14.23
1 -5 -10 240.45 13.57
1 -5 -10 241.08 14.78
-1 5 10 222.27 14.27
-1 5 9 11.19 3.48
1 -5 -9 4.74 2.3
1 -5 -9 6.89 2.22
-1 5 9 8.19 3.19
-1 5 9 6.76 2.05
-1 5 9 6.63 2.46
-1 5 9 4.36 2.06
-1 5 8 144.78 12.07
1 -5 -8 135.66 11.87
-1 5 8 149.17 16.94
-1 5 8 129.88 11.35
-1 5 8 147.64 10.83
-1 5 8 141.1 12.24
1 -5 -8 145.43 14.51
-1 5 8 130.27 11.57
-1 5 8 151.15 18.37
1 -5 -8 126.84 10.3
1 -5 -8 150.19 15.28
1 -5 -7 7.48 3.48
-1 5 7 5.61 2.02
-1 5 7 7.03 3.41
1 -5 -7 9.56 3.01
-1 5 7 7 2.65
-1 5 7 9.73 3.05
1 -5 -7 8.97 3.35
-1 5 7 8.24 3.03
-1 5 7 10.39 3.34
-1 5 7 3.57 2.82
-1 5 6 559.92 30.61
1 -5 -6 563.35 29.14
1 -5 -6 535.66 27.36
1 -5 -5 129.13 12.1
-1 5 5 148.98 14.26
1 -5 -5 145.58 13.9
-1 5 4 59.32 8.5
1 -5 -4 51.72 6.81
1 -5 -4 53.08 7.97
-1 5 4 62.09 8.16
1 -5 -4 59.07 7.35
1 -5 -3 181.52 13.39
1 -5 -3 158.33 10.89
1 -5 -3 154.49 11.25
-1 5 3 164.07 13.33
-1 5 3 167.3 12.23
-1 5 2 65.25 6.9
1 -5 -2 64.76 6.35
1 -5 -2 64.32 7.33
-1 5 2 69.73 8.31
1 -5 -2 69.91 7.41
-1 5 1 246.85 12.58
1 -5 -1 255.36 14.12
1 -5 -1 239.04 11.63
1 -5 -1 251.44 13.54
-1 5 1 253.19 15.33
1 -5 0 95.98 7.82
-1 5 0 100.73 9.49
1 -5 0 102.67 9.02
-1 5 0 89.55 7.46
-1 5 0 80.96 7.01
1 -5 0 85.46 6.74
-1 5 -1 31.58 4.54
-1 5 -1 34.03 5.54
1 -5 1 39.48 4.81
1 -5 1 38.5 5.85
1 -5 2 1524.83 41.24
-1 5 -2 1453.4 33.94
-1 5 -2 1498.24 40.58
-1 5 -2 1443.35 35.19
-1 5 -3 259.42 14.59
-1 5 -3 298.08 17.94
1 -5 3 251.11 16.65
-1 5 -4 1072.66 36.64
1 -5 4 1005.95 32.45
-1 5 -5 421.44 20.38
1 -5 5 491.01 24.14
1 -5 5 383.53 20.95
-1 5 -5 448.67 24.66
1 -5 6 9.14 3.63
1 -5 6 9.29 3.27
-1 5 -6 7.87 2.91
-1 5 -6 10.4 3.85
-1 5 -7 825.66 28.06
-1 5 -7 834.75 37.77
1 -5 7 786.84 25.75
-1 5 -7 794.45 24.16
-1 5 -7 812.63 31.3
1 -5 7 848.58 29.77
-1 5 -7 774.35 25.35
-1 5 -8 300.13 15.56
1 -5 8 262.02 15.49
-1 5 -8 309.44 19.66
-1 5 -8 310.45 14.82
-1 5 -8 309.86 17.36
1 -5 8 305.52 18.78
1 -5 8 256.98 14.62
-1 5 -8 317.77 24.31
-1 5 -9 -0.08 0.43
1 -5 9 0.02 0.56
1 -5 9 0.53 1.46
1 -5 9 -0.26 0.81
-1 5 -9 -0.8 0.75
-1 5 -9 2.44 1.33
1 -5 10 35.19 6.23
-1 5 -10 41.79 5.96
-1 5 -10 38.89 5.12
-1 5 -10 36.52 5.13
1 -5 10 34.54 5.44
1 -5 10 31.07 5.01
-1 5 -11 8.93 2.35
1 -5 11 9.35 2.86
1 -5 11 10.03 3.54
-1 5 -11 10.02 2.6
-1 5 -12 75.62 6.15
-1 5 -12 74.11 6.39
1 -5 12 66.99 6.2
1 -5 12 76.08 8.1
1 -5 13 0.45 0.36
1 -5 13 -0.1 0.21
-1 5 -14 9.71 1.69
1 -5 14 8.63 1.83
1 -5 14 5.81 1.21
1 -4 -14 8.47 1.69
-1 4 14 5.95 1.35
-1 4 14 10.82 1.94
-1 4 14 10.79 2.04
1 -4 -14 9.92 1.96
-1 4 13 12.79 2.69
-1 4 13 9.95 2.64
1 -4 -13 11.24 2.35
1 -4 -13 10.53 2.45
-1 4 13 10.28 2.45
-1 4 13 9.3 2.19
-1 4 12 36.62 5.03
1 -4 -12 80.71 7.9
-1 4 12 100.57 9.14
-1 4 12 59.29 6.93
-1 4 12 79.5 8.24
1 -4 -12 62.9 6.66
-1 4 11 22.29 5.49
-1 4 11 21.96 4.68
-1 4 11 16.28 4.29
-1 4 11 20.12 4.91
1 -4 -11 15.76 3.6
1 -4 -10 568.79 21.24
-1 4 10 563.83 24.14
-1 4 10 592.17 23.9
-1 4 10 581.08 24.57
-1 4 10 568.98 23.22
-1 4 9 17.48 4.08
1 -4 -9 16.62 4.83
-1 4 9 19.38 4.15
-1 4 9 19.99 7.36
1 -4 -9 18.48 5.08
-1 4 9 14.42 3.61
1 -4 -9 16.41 3.56
-1 4 9 15.82 4.11
-1 4 8 126.45 11.17
1 -4 -8 147.3 14.32
1 -4 -8 130.24 13.15
-1 4 8 151.64 16.81
-1 4 8 127.04 10.81
-1 4 8 127.32 11.55
1 -4 -8 121.46 9.75
1 -4 -7 1012.31 36.71
-1 4 7 1262.65 49.01
-1 4 7 1161.12 45.69
1 -4 -7 943.26 36.66
-1 4 6 582.24 29.42
1 -4 -6 631.87 27.74
1 -4 -6 573.51 26.94
-1 4 5 1140.24 38.31
1 -4 -5 1161.26 35.21
1 -4 -5 1110.27 36.17
1 -4 -4 373.79 18.55
-1 4 4 412.6 19.47
1 -4 -4 375.64 17.2
1 -4 -4 347.83 15.24
1 -4 -3 146.14 9.79
1 -4 -3 129.88 10.3
-1 4 3 160.75 10.79
1 -4 -2 754.87 20.81
1 -4 -2 689.01 20.67
-1 4 2 713.39 23.54
1 -4 -2 728.88 22.44
-1 4 2 740.8 20.87
1 -4 -1 219.19 11.93
-1 4 1 192.25 9.54
-1 4 1 185.46 14.77
1 -4 -1 251.14 12.09
-1 4 1 252.06 8.48
1 -4 -1 263.62 12.53
-1 4 0 1200.59 21.2
1 -4 0 1119.84 27.67
-1 4 0 1119.21 28.75
1 -4 0 951.61 23.26
-1 4 0 887.6 17.18
-1 4 0 1120.63 24.34
1 -4 1 761.12 23.47
-1 4 -1 722.62 16.82
-1 4 -1 699.17 19.47
-1 4 -1 712.83 22.93
1 -4 1 690.62 17.94
-1 4 -1 723.44 17.54
-1 4 -1 748.53 18.83
-1 4 -2 698.96 21.06
1 -4 2 732.1 24.81
-1 4 -3 227.47 11.79
-1 4 -3 224.57 12.59
1 -4 3 228.27 14
-1 4 -3 240.89 14.3
1 -4 3 229.24 12.52
1 -4 4 214.86 14
-1 4 -4 166.22 11.78
1 -4 4 231.84 14.92
-1 4 -4 197.39 13.22
-1 4 -4 179.62 14.98
-1 4 -5 802.32 30.26
1 -4 5 810.52 28.33
-1 4 -5 742.14 26.55
1 -4 5 870.57 31.05
-1 4 -6 198.38 14.31
-1 4 -6 221.2 18.16
1 -4 6 194.23 13.93
-1 4 -7 1425.07 40.88
-1 4 -7 1399.83 47.03
-1 4 -7 1325.98 47.41
1 -4 7 1461.2 49.28
-1 4 -8 210.7 15.94
-1 4 -8 206.66 18.56
1 -4 8 215.95 15.28
-1 4 -8 213.98 18.71
-1 4 -8 215.77 12.05
-1 4 -8 187.68 11.63
1 -4 8 185.51 12.36
-1 4 -8 197 12.95
1 -4 8 217.01 20.05
-1 4 -9 7.62 3.7
-1 4 -9 10.19 2.82
1 -4 9 14.03 4.3
1 -4 9 13.79 3.54
-1 4 -9 7.92 2.32
-1 4 -9 11.08 3.1
-1 4 -9 6.66 2.59
1 -4 10 230.79 17.49
-1 4 -10 194.07 11.81
1 -4 10 219.45 15
-1 4 -10 178.93 12.6
1 -4 11 86.34 9.59
1 -4 11 78.57 7.68
1 -4 11 99.13 9.14
-1 4 -11 85.25 7.66
-1 4 -11 90.64 7.97
1 -4 12 285.95 14.88
1 -4 12 355.52 18.14
1 -4 12 293.2 14.2
-1 4 -12 297.45 13.25
-1 4 -12 332.93 14.75
-1 4 -13 2.23 1.04
1 -4 13 3.04 2.25
1 -4 13 3.83 1.54
1 -4 13 3.9 1.6
1 -4 14 5.95 1.77
-1 4 -14 3.67 1.26
1 -4 14 4.51 1.26
1 -4 14 3.68 1.18
1 -3 -15 10.57 1.83
-1 3 15 13.02 1.96
1 -3 -15 7.23 1.66
-1 3 15 13.75 2.22
-1 3 14 134.29 8.42
-1 3 14 145.5 8.84
-1 3 14 138.33 7.52
-1 3 14 130.43 7.95
1 -3 -14 155.81 8.77
-1 3 14 137.6 8.75
1 -3 -14 159.31 8.47
-1 3 13 13.76 3.15
-1 3 13 19.19 4.23
1 -3 -13 10.92 3.03
-1 3 13 23.58 4.87
-1 3 13 22.41 4.74
-1 3 12 5.1 2.37
-1 3 12 7.15 2.26
-1 3 12 5.84 2.75
1 -3 -12 2.77 1.55
-1 3 12 6.23 2.18
-1 3 11 68.29 7.58
-1 3 11 48.31 6.3
-1 3 11 71.63 9.36
-1 3 11 66.99 8.76
-1 3 11 67.11 8.81
1 -3 -11 40.08 5.87
-1 3 10 54.72 11.19
1 -3 -10 48.23 6.58
-1 3 10 98.38 10.3
1 -3 -10 36.79 6.95
-1 3 10 53.93 8.37
-1 3 10 61.37 7.32
-1 3 10 101.65 10.97
-1 3 10 58 9.86
-1 3 10 89.84 9.72
1 -3 -10 39.45 7.47
-1 3 10 81.14 8.54
1 -3 -9 14.27 4.4
-1 3 9 11.03 3.64
-1 3 9 9.45 4.1
-1 3 9 19.33 4.6
-1 3 9 17.21 4.63
1 -3 -9 9.65 3.53
1 -3 -9 10.94 2.97
-1 3 9 13.02 4.43
-1 3 9 15.17 3.73
-1 3 9 15.51 3.97
-1 3 9 11.7 3.68
1 -3 -8 58.93 8.07
1 -3 -8 65.49 9.23
-1 3 8 57 10.38
-1 3 8 53.58 8.43
-1 3 7 217.52 18.31
-1 3 7 228.09 19.68
1 -3 -7 215.28 16.35
-1 3 7 211.25 15.87
1 -3 -7 228.35 15.4
-1 3 6 49.96 10.01
1 -3 -6 37.82 7.45
-1 3 5 233.15 16.02
1 -3 -5 172.69 12.02
-1 3 5 244.65 14.93
1 -3 -5 196.47 13.68
1 -3 -4 310.41 16.84
1 -3 -4 291.69 14.21
-1 3 3 773.18 21.97
-1 3 3 701.91 24.61
1 -3 -3 682.16 17.06
1 -3 -3 718.42 20.28
1 -3 -3 731.84 22.27
-1 3 2 12.98 2
1 -3 -2 9.26 1.88
1 -3 -2 10.34 2.22
1 -3 -2 8.75 1.75
-1 3 2 10.56 2.01
-1 3 1 123.64 6.21
-1 3 1 121.23 4.13
1 -3 -1 140.38 7.35
-1 3 1 120.72 5.44
-1 3 1 134.07 7.99
1 -3 -1 132.67 7.02
-1 3 0 6364.7 80.51
1 -3 0 6115.04 72.37
-1 3 0 6298.45 69
-1 3 0 6179.07 71.42
1 -3 1 57.93 3.78
1 -3 1 85.18 6.78
-1 3 -1 74.27 5.18
-1 3 -1 54.8 4.25
-1 3 -1 48.26 3.66
-1 3 -1 70.94 6.38
-1 3 -2 9.55 2.07
1 -3 2 10.64 2.64
-1 3 -2 8.09 1.17
1 -3 2 10.65 2.11
-1 3 -2 10.61 2.16
-1 3 -2 9.22 2.17
-1 3 -3 388.99 15.97
1 -3 3 375.96 13.76
1 -3 3 362.33 15.16
-1 3 -3 403.33 16.74
1 -3 3 407.62 17.68
-1 3 -4 1759.79 37.29
1 -3 4 1690.16 37.27
-1 3 -4 1697.57 38.61
1 -3 4 1507.75 34.11
1 -3 4 1434.19 34.32
-1 3 -5 417.19 18.12
-1 3 -5 392.74 19.49
1 -3 5 360.98 17.58
1 -3 5 406.85 19.51
1 -3 5 356.27 16.02
1 -3 6 350.69 20.43
-1 3 -6 373.95 18.18
1 -3 6 330.93 15.08
1 -3 6 300.61 17.52
-1 3 -6 321.11 18.96
1 -3 7 139.48 13.55
-1 3 -7 155.79 14.35
-1 3 -7 169.39 13.05
-1 3 -7 135.45 13.88
1 -3 7 169.4 16.29
-1 3 -8 45.78 7.16
1 -3 8 37.59 8.21
1 -3 8 37.98 7.37
1 -3 9 36.66 6.14
1 -3 9 33.39 5.19
1 -3 9 30.61 7.51
-1 3 -9 34.4 4.74
-1 3 -9 31.22 4.8
-1 3 -9 29.25 6.18
-1 3 -10 238.96 13.46
-1 3 -10 234.12 20.25
1 -3 10 233.87 13.8
-1 3 -10 253.12 13.45
-1 3 -10 242.37 18.4
1 -3 10 242.74 16.22
1 -3 11 250.4 16.32
-1 3 -11 228.59 12.8
1 -3 11 222.29 13.41
-1 3 -11 244.87 13.23
-1 3 -11 220.71 11.05
1 -3 12 19.98 4.19
-1 3 -12 22.91 3.85
1 -3 12 21.58 4.51
1 -3 12 20.92 3.86
-1 3 -12 21.13 3.45
-1 3 -12 21.58 3.2
-1 3 -13 115.44 8.24
1 -3 13 121.29 9.8
1 -3 13 117.3 8.61
1 -3 13 110.55 8.92
-1 3 -14 25.25 3.46
1 -3 14 19.87 3.52
1 -3 14 24.9 3.61
1 -3 14 15.19 2.82
1 -3 15 119.51 6.52
1 -3 15 110.1 5.72
1 -2 -15 0.57 0.53
-1 2 15 3.35 1.29
-1 2 15 2.36 1.12
1 -2 -15 1.38 0.92
-1 2 15 3.72 1.42
-1 2 15 1.5 0.98
-1 2 14 10.76 2.94
-1 2 14 10.87 2.73
1 -2 -14 9.95 2.37
-1 2 14 9.92 2.65
-1 2 13 48.97 6.59
-1 2 13 56.47 6.66
-1 2 13 54.7 6.5
1 -2 -13 53.93 5.83
-1 2 13 53.07 5.55
-1 2 12 64.86 7.66
1 -2 -12 62.93 6.54
-1 2 12 61.76 6.58
-1 2 12 61.59 7.64
-1 2 12 64.4 7.59
-1 2 12 65.84 7.74
-1 2 11 19.37 3.91
-1 2 11 19.75 4.22
1 -2 -11 20.33 3.78
-1 2 11 22.23 4.96
-1 2 11 22.44 4.55
-1 2 11 18.21 4.16
-1 2 10 15.84 3.66
1 -2 -10 15.8 4.85
-1 2 10 12.83 3.46
1 -2 -10 14.19 4.07
-1 2 10 14.99 3.83
1 -2 -10 13.43 3.11
-1 2 10 13.88 3.36
-1 2 10 14.07 5.23
-1 2 10 11.54 3.62
-1 2 10 11.94 4.39
-1 2 9 79.8 10.77
1 -2 -9 90.04 10.76
-1 2 9 79.47 12.21
1 -2 -9 95.34 9.81
-1 2 8 257.09 21.1
1 -2 -8 255.52 15.56
-1 2 8 230.3 17.45
1 -2 -8 280.05 18
-1 2 7 504.44 27.78
1 -2 -7 552.31 22.03
1 -2 -7 530.74 23.85
-1 2 7 456.98 22.57
1 -2 -7 442.84 19.14
1 -2 -6 0.91 0.8
-1 2 6 0.52 0.93
-1 2 6 1.53 1.02
1 -2 -6 1.38 1.41
-1 2 6 2.48 2.04
1 -2 -6 1.83 1.14
1 -2 -5 549.08 20.52
-1 2 5 499.15 21.09
1 -2 -5 615.61 21.27
1 -2 -5 514.9 17.27
-1 2 5 571.59 24.05
-1 2 5 581.1 25.45
1 -2 -4 1066.77 27.35
-1 2 4 1020.56 29.52
1 -2 -4 1007.42 24.81
1 -2 -4 987.21 17.51
1 -2 -4 1000.37 21.51
1 -2 -3 3623.72 55.52
1 -2 -3 3790.36 51.75
-1 2 3 3871.1 59.79
-1 2 3 3747.51 56.16
1 -2 -3 3505.02 43.74
-1 2 2 158.85 7.22
1 -2 -2 149.28 7.03
1 -2 -2 146.05 5.71
1 -2 -2 142.49 7.55
1 -2 -1 2460.27 34.13
-1 2 1 2548.02 36.5
-1 2 1 2414.23 34.02
-1 2 1 2602.11 31.89
1 -2 -1 2634.22 35.68
-1 2 0 267.92 8.59
1 -2 0 319.65 10.1
-1 2 0 297.14 7.56
1 -2 0 295.83 7.51
-1 2 0 261.61 8.57
-1 2 0 287.82 7.04
-1 2 -1 1832.76 29.49
-1 2 -1 1881.92 27.03
1 -2 1 1974.84 25.03
1 -2 1 2059.85 32.99
-1 2 -1 2014.09 31.53
1 -2 1 1922.09 27.29
1 -2 1 1954.68 23.47
1 -2 2 1467.23 29.55
-1 2 -2 1657.18 22.1
-1 2 -2 1678.1 30.45
-1 2 -2 1575.61 28.82
1 -2 2 1412.37 26.26
1 -2 2 1459.68 25.39
-1 2 -3 106.8 3.85
1 -2 3 90.53 6.49
-1 2 -3 103.91 7.41
1 -2 3 97.58 7.04
-1 2 -3 102.78 7.33
1 -2 3 96.29 6.99
-1 2 -4 328.82 8.29
-1 2 -4 317.22 14.05
-1 2 -4 266.48 13.56
1 -2 4 246.09 12.74
1 -2 4 247.51 11.62
-1 2 -4 256.65 13.36
1 -2 4 275.4 13.61
1 -2 5 693.42 23.91
1 -2 5 711.11 26.27
-1 2 -5 643.53 24.65
-1 2 -5 704.59 24.88
1 -2 5 681.98 20.27
1 -2 6 494.54 21.8
1 -2 6 483.2 16.9
1 -2 6 481.8 23.97
-1 2 -6 447.91 22.79
-1 2 -6 489.72 22.58
1 -2 7 54.97 8.73
-1 2 -7 61.54 8.69
-1 2 -7 72.77 8.3
1 -2 7 55.25 8.18
-1 2 -8 15.06 4.52
1 -2 8 18.86 5.27
1 -2 8 14.4 4.34
-1 2 -8 16.28 4.18
1 -2 9 2.89 1.71
1 -2 9 1.18 1.36
-1 2 -9 -0.6 0.83
1 -2 9 0.3 0.79
1 -2 9 0.15 0.81
-1 2 -9 0.86 0.82
-1 2 -9 -0.61 1.1
-1 2 -9 0.31 1.35
1 -2 10 132.7 11.77
-1 2 -10 120.37 9.15
-1 2 -10 124.39 14.49
-1 2 -10 126.91 13.14
-1 2 -10 126.56 9.38
-1 2 -10 122.15 8.43
1 -2 10 121.16 9.89
1 -2 10 123.48 15.74
1 -2 10 122.17 14.29
-1 2 -11 228.62 12.42
1 -2 11 230.39 15.54
-1 2 -11 214.01 12.46
-1 2 -11 217.14 11.4
1 -2 11 216.43 13.29
1 -2 12 50.33 6.88
1 -2 12 54.8 6.5
-1 2 -12 53.03 6.02
-1 2 -12 47.95 5.27
-1 2 -12 50.99 5.45
-1 2 -13 113.37 8.25
-1 2 -13 104.36 7.08
1 -2 13 108.1 8.66
1 -2 13 118.26 9.78
1 -2 13 122.76 9.81
1 -2 14 323.61 14.23
1 -2 14 311.61 14.01
-1 2 -14 316.54 12.49
1 -2 14 326.98 13.28
1 -2 15 158.52 7.53
-1 2 -15 166.8 7.41
1 -2 15 155.61 7.93
-1 1 16 8.93 1.51
1 -1 -16 11.53 1.67
1 -1 -16 6.78 1.25
-1 1 16 6.99 1.36
1 -1 -15 10.49 2.08
-1 1 15 10.72 2.35
-1 1 15 5.4 1.61
-1 1 15 7.83 2.09
-1 1 14 28.21 4.7
-1 1 14 26.94 4.22
-1 1 14 27.49 4.19
-1 1 14 30.3 4.54
1 -1 -14 27.23 3.82
-1 1 13 109.3 9.38
-1 1 13 99.5 9.09
1 -1 -13 98.55 7.24
-1 1 13 102.13 9.9
1 -1 -13 101.66 7.95
-1 1 13 109.53 9.4
1 -1 -12 23.55 4.09
-1 1 12 27.54 5.24
-1 1 12 27.36 4.96
-1 1 12 26.71 4.98
1 -1 -12 26.08 3.88
-1 1 12 26.04 4.77
1 -1 -11 73.21 7.04
-1 1 11 78.9 8.81
-1 1 11 88.45 13.65
-1 1 11 86.93 8.86
1 -1 -11 79.55 7.03
1 -1 -11 80.67 10.84
-1 1 11 82.87 8.55
-1 1 11 83.96 9.48
1 -1 -10 290.75 17.14
-1 1 10 258.94 15.79
1 -1 -10 287.39 19.64
1 -1 -10 252.98 17.12
-1 1 10 299.33 16.32
-1 1 10 282.38 23.99
1 -1 -10 272.89 12.96
-1 1 10 247.37 20.6
-1 1 10 279.87 15.53
1 -1 -9 205.63 13.77
1 -1 -9 217.86 15.94
-1 1 9 208.19 19.24
-1 1 9 174.78 16.73
1 -1 -9 184.02 13.73
-1 1 8 287.11 21.5
-1 1 8 249.1 18.1
1 -1 -8 241.04 14.58
1 -1 -8 272.61 15.23
1 -1 -8 316.43 17.93
1 -1 -7 2139.43 44.79
1 -1 -7 2060.86 43.34
-1 1 7 2077.99 56.72
1 -1 -7 2222.89 48.46
1 -1 -6 1576.01 35.92
-1 1 6 1560.87 45.08
1 -1 -6 1592.92 38.28
1 -1 -6 1595.17 34.24
1 -1 -5 81.93 7.43
1 -1 -5 103.41 7.23
1 -1 -5 96.26 7.8
-1 1 5 93.34 9.48
1 -1 -4 6319.48 73.91
1 -1 -4 5506.03 75.06
-1 1 4 5383.8 84.03
1 -1 -4 6418.34 81
-1 1 4 5392.07 84.31
-1 1 4 5436.3 85.78
-1 1 3 1988.36 39.92
1 -1 -3 2124.83 32.86
-1 1 3 1869.8 37.9
1 -1 -3 1742.2 22.5
1 -1 -3 2242.97 32.12
-1 1 3 2416.71 37.48
1 -1 -2 202.29 7.11
-1 1 2 200.02 6.72
1 -1 -2 200.03 6.32
1 -1 -2 208.23 4.9
1 -1 -1 38.22 1.37
-1 1 1 37.59 2.37
-1 1 1 40.01 2.97
1 -1 -1 38.55 2.55
1 -1 -1 35 3.18
-1 1 1 42.52 2.44
1 -1 0 20.52 1.3
1 -1 0 18.84 1.69
1 -1 0 21.91 2.3
-1 1 0 22.29 1.94
-1 1 0 23.66 2.25
-1 1 0 19.83 1.97
-1 1 -1 362.6 10.27
-1 1 -1 353.49 9.24
1 -1 1 343.87 7.41
-1 1 -1 348.95 8.65
1 -1 1 371.62 8.2
-1 1 -2 118.34 2.82
-1 1 -2 115.16 6.64
1 -1 2 121.5 6.15
1 -1 2 119.17 7.37
1 -1 2 124.87 6.49
-1 1 -2 117.62 6.49
-1 1 -3 1171.63 18.86
1 -1 3 1258.45 28.76
1 -1 3 1249.48 30.24
1 -1 3 1206.19 25.83
-1 1 -3 1254 27.25
1 -1 3 1176.52 27.19
-1 1 -4 438.19 13.18
1 -1 4 478.79 19.46
1 -1 4 456.68 15.32
-1 1 -4 454.58 18.08
1 -1 4 446.21 17.49
-1 1 -5 72.93 7.26
1 -1 5 60.33 5.43
1 -1 5 56.77 6.65
1 -1 5 61.18 7.58
-1 1 -5 75.91 5.54
-1 1 -5 58.87 7.16
1 -1 6 17.05 4.59
1 -1 6 16.65 2.82
-1 1 -6 22.02 3.09
1 -1 6 15.23 3.8
-1 1 -6 15.72 3.87
-1 1 -6 17.79 3.91
-1 1 -7 184.62 14.52
1 -1 7 189.49 16.26
1 -1 7 190.39 14.49
-1 1 -7 202.68 13.95
-1 1 -8 2132.66 51.64
1 -1 8 2026.45 54.16
1 -1 8 2046.62 60.22
-1 1 -8 2042.32 54.36
1 -1 9 2.59 1.62
1 -1 9 1.14 0.69
1 -1 9 1.85 0.8
-1 1 -9 3.2 2.14
1 -1 9 4.04 2.18
-1 1 -9 1.2 0.95
-1 1 -9 1.69 1.52
1 -1 10 95.52 7.51
1 -1 10 107.2 10.33
-1 1 -10 107.56 13.09
-1 1 -10 91.27 7.52
1 -1 10 98.8 8.81
1 -1 10 92.26 13.7
1 -1 10 88.48 7.91
1 -1 10 79.26 12.09
-1 1 -10 91.33 7.77
-1 1 -10 99.07 8.25
1 -1 11 49.34 5.89
-1 1 -11 50.73 5.64
1 -1 11 56.47 7.6
-1 1 -11 51.17 5.98
-1 1 -11 56.88 5.96
1 -1 11 51.31 6.56
1 -1 12 101.57 9.02
-1 1 -12 97.82 7.44
-1 1 -12 95.54 8.05
1 -1 12 79.23 7.24
-1 1 -12 98.55 7.7
1 -1 12 103.03 9.8
1 -1 13 47.05 6.15
1 -1 13 44.18 6.09
-1 1 -13 37.06 4.4
1 -1 13 41.08 4.66
-1 1 -13 42.26 4.99
1 -1 13 41.82 5.42
1 -1 14 14.02 2.9
-1 1 -14 16.01 2.72
1 -1 14 18.05 3.2
1 -1 14 15.22 3.27
-1 1 -14 16.49 2.62
1 -1 15 2.09 0.93
-1 1 -15 3.51 1.06
-1 1 -15 2.64 0.71
1 -1 15 2.89 1.03
1 -1 15 5.64 1.46
-1 0 16 110.29 6.06
1 0 -16 120.66 5.62
-1 0 16 103.59 5.35
-1 0 15 37.4 4.16
-1 0 15 43.39 5.17
1 0 -15 42.54 4.24
-1 0 15 36.57 4.12
-1 0 15 41.96 4.5
1 0 -15 39.72 3.47
-1 0 14 16 3.28
-1 0 14 17.61 3.44
1 0 -14 15.38 2.71
-1 0 14 18.77 4.17
1 0 -14 18.08 3.25
-1 0 14 17 3.31
-1 0 13 259.79 16.31
1 0 -13 252.76 12.77
1 0 -13 219.61 11.44
-1 0 13 223.04 13.7
-1 0 13 230.96 13.85
-1 0 13 246.83 14.08
-1 0 12 379.21 19.1
-1 0 12 406.79 19.53
1 0 -12 371.09 16.2
-1 0 12 382.48 18.37
1 0 -12 373.88 15.69
-1 0 11 8.26 5.07
1 0 -11 7.83 3.41
-1 0 11 2.86 1.77
1 0 -11 5.98 1.8
-1 0 11 4.06 1.87
-1 0 11 6.57 2.52
-1 0 11 4.19 1.46
1 0 -11 8.55 3.45
1 0 -10 22.68 4.65
-1 0 10 18.02 3.95
1 0 -10 15.29 4.26
1 0 -10 21.59 4.96
1 0 -10 16.73 3.05
-1 0 10 17.62 3.73
-1 0 10 19.92 4.1
-1 0 10 20.91 6.62
1 0 -9 0.28 0.64
1 0 -9 0.2 0.5
-1 0 9 0.76 1.33
1 0 -9 0.47 1.2
-1 0 9 1.27 1.94
-1 0 8 14.92 5.07
-1 0 8 12.62 4.6
-1 0 8 16.05 4.13
1 0 -8 15.29 3.75
1 0 -8 14.92 3.63
1 0 -8 16.18 3.57
1 0 -7 592.14 21.62
1 0 -7 640.83 23.15
1 0 -7 608 21.98
-1 0 7 612.14 29.13
-1 0 7 542.12 25.66
1 0 -6 138.46 9.86
1 0 -6 148.21 10.31
-1 0 6 107.42 10.56
-1 0 6 132.57 12.21
1 0 -6 141.16 9.62
1 0 -5 76.38 6.72
-1 0 5 69.04 8.3
1 0 -5 63.52 6.06
1 0 -5 61.47 6.22
-1 0 5 56.59 7.61
1 0 -4 9999 119.57
-1 0 4 9935.94 108.27
1 0 -4 9946.45 117.21
1 0 -4 9695.23 114.39
-1 0 4 9731.15 126.88
-1 0 3 2784.45 38.55
1 0 -3 2442.28 36.63
-1 0 3 2492.47 37.23
1 0 -3 2437.78 35.92
-1 0 3 2645.61 43.21
-1 0 3 2610.92 39.15
1 0 -2 1814.17 24.54
1 0 -2 1786.68 25.33
-1 0 2 1944.35 27.14
-1 0 2 1901.62 29.06
-1 0 2 1678.26 29.75
-1 0 1 200.06 5.88
-1 0 1 212.11 6.73
-1 0 1 215 8.98
1 0 0 303 6.95
-1 0 0 307.55 8.09
-1 0 0 283.3 8.03
-1 0 -1 14.64 2.26
1 0 1 14.97 1.7
-1 0 -1 13.9 1.75
-1 0 -1 15.02 1.41
-1 0 -1 13.06 1.61
1 0 1 14.61 1.62
1 0 2 714.08 15.16
1 0 2 693.67 17.31
-1 0 -2 639.83 16.38
-1 0 -2 741.15 13.78
-1 0 -2 791.42 17.32
-1 0 -3 49.64 4.05
-1 0 -3 39.4 3.35
-1 0 -3 47.16 5.36
1 0 3 49.13 4.58
1 0 3 43.81 5.28
1 0 4 246.53 12.52
-1 0 -4 244.78 13.37
-1 0 -4 199.59 9.96
-1 0 -4 229.02 12.38
1 0 4 244.84 14.27
1 0 4 247.43 14.54
1 0 5 15.81 3.6
-1 0 -5 18.23 3.91
1 0 5 18.79 4.48
-1 0 -5 19.6 3.9
1 0 5 18.25 4.62
-1 0 -5 18.38 3.36
1 0 6 289.22 16.83
-1 0 -6 324.45 17.2
-1 0 -6 363.3 15.07
1 0 6 310.15 20.1
1 0 6 318.46 19.42
1 0 6 289.56 12.51
-1 0 -6 303.05 16.54
-1 0 -7 319.14 14.46
1 0 7 278.5 17.67
-1 0 -7 289.88 17.46
1 0 7 285.51 20.07
-1 0 -7 269.52 16.7
1 0 8 378.04 22.27
1 0 8 374.79 24.89
-1 0 -8 387.61 21.63
-1 0 -9 175.59 10.53
1 0 9 173.23 11.28
-1 0 -9 163.32 14.95
1 0 9 182.71 18.31
1 0 9 172.68 12.81
1 0 9 170.23 15.65
-1 0 -9 161.78 10.32
1 0 10 64.65 10.75
1 0 10 63.62 11.33
-1 0 -10 71.74 7.07
-1 0 -10 66.61 6.61
1 0 10 65.6 6.98
1 0 10 78.76 8.85
-1 0 -10 73.27 7.08
1 0 10 72.46 7.58
1 0 10 72.33 6.71
-1 0 -10 75.99 10.73
1 0 11 245.53 12.51
-1 0 -11 242.96 12.52
-1 0 -11 241.08 13.18
1 0 11 204.4 12.51
1 0 11 257.52 16.3
-1 0 -11 254.21 13.1
1 0 11 240.82 14.2
-1 0 -12 14.39 2.84
1 0 12 16 3.08
1 0 12 15.73 3.73
1 0 12 12.26 2.94
-1 0 -12 16.13 3.12
-1 0 -12 11.75 2.79
1 0 12 16.1 3.52
1 0 13 43.79 5.48
-1 0 -13 41.22 4.88
1 0 13 37.47 4.63
1 0 13 47.88 6.16
-1 0 -13 48.83 5.22
1 0 13 44.28 4.58
1 0 13 55.96 6.62
-1 0 -14 76.78 5.88
1 0 14 54.14 4.68
1 0 14 70.22 6.13
1 0 14 59.87 6.09
1 0 14 66.08 6.3
-1 0 -14 66.65 5.4
-1 0 -15 82.51 4.8
-1 0 -15 84.2 4.79
1 0 15 75.1 5.51
1 0 15 83.85 5.42
-1 -1 16 6.63 1.27
-1 -1 16 5.17 1.13
1 1 -16 7.22 1.25
-1 -1 16 6.74 1.48
1 1 -15 22.54 2.84
-1 -1 15 18.31 2.9
-1 -1 15 22.43 3.14
-1 -1 15 24.53 3.32
-1 -1 15 26.2 4.2
1 1 -15 30.94 3.47
1 1 -14 5.68 1.63
-1 -1 14 2.01 1.27
-1 -1 14 4.56 2.47
-1 -1 14 1.86 1.38
1 1 -14 2.68 1.18
-1 -1 14 4.7 1.87
1 1 -13 242.25 12.44
-1 -1 13 244.34 14.01
-1 -1 13 220.13 13.53
-1 -1 13 207.82 13.36
-1 -1 13 240.42 15.78
1 1 -13 200.59 11.31
-1 -1 12 105.09 9.7
-1 -1 12 90.94 9.27
-1 -1 12 117.06 11.51
1 1 -12 79.14 7.57
-1 -1 12 77.25 8.88
-1 -1 11 65.19 8.4
1 1 -11 21.34 6.09
-1 -1 11 64.12 7.81
1 1 -11 22.57 5.67
-1 -1 11 61.81 7.75
1 1 -11 39.47 5.45
-1 -1 11 36.08 6.62
-1 -1 11 81.14 14.75
1 1 -10 113.73 12.01
1 1 -10 117.2 8.67
-1 -1 10 140.66 17.75
-1 -1 10 112.59 10.11
1 1 -10 116.17 12.2
-1 -1 10 161.46 13.19
-1 -1 10 132.51 10.76
-1 -1 10 123.81 9.96
-1 -1 10 131.26 10.28
1 1 -9 93.77 9.07
1 1 -9 78.74 9.45
-1 -1 9 114.48 14.53
1 1 -9 81.96 9.71
1 1 -8 99.56 9.27
1 1 -8 99.69 10.14
1 1 -8 97.63 9.77
-1 -1 8 124.85 14.6
1 1 -7 583.56 22.36
1 1 -7 656.39 23.19
1 1 -7 618.59 23.6
-1 -1 7 588.83 29.02
-1 -1 6 618.13 29.1
1 1 -6 746.57 25.3
1 1 -6 702.89 22.89
1 1 -6 581.11 22.28
-1 -1 6 807.83 22.69
-1 -1 6 810.37 33.7
1 1 -5 198.22 11.38
1 1 -5 222.9 10.84
-1 -1 5 174.89 7.16
-1 -1 5 215.33 14.03
-1 -1 5 213.87 9.61
-1 -1 5 184.22 8.82
-1 -1 4 996.23 21.53
1 1 -4 1137.93 24.29
-1 -1 4 1174.32 31.95
-1 -1 4 1127.92 25.53
1 1 -4 1033.51 21.45
1 1 -4 994.08 24.48
-1 -1 4 1269.94 22.56
-1 -1 3 1031.32 24.14
1 1 -3 1006.01 17.25
-1 -1 3 978.42 17.66
-1 -1 2 52.1 9.06
-1 -1 2 35.18 2.66
1 1 -2 31.41 2.11
-1 -1 1 49.2 4.06
-1 -1 1 46.47 2.8
-1 -1 1 51.99 3.95
1 1 0 24.68 2.66
-1 -1 0 23.49 1.41
-1 -1 0 27.11 3.08
-1 -1 0 22.6 1.9
-1 -1 -1 1232.1 19.84
-1 -1 -1 1180.98 20.54
1 1 1 1180.97 21.88
1 1 2 315.43 12.86
1 1 2 246.37 10.3
-1 -1 -2 427.15 14.91
-1 -1 -2 420.77 15.55
-1 -1 -3 1530.17 30.6
1 1 3 1650.57 30.1
-1 -1 -3 1626.77 35.13
1 1 3 1488.14 34.46
-1 -1 -4 152.44 10.08
-1 -1 -4 138.69 10.12
1 1 4 158.99 11.34
-1 -1 -4 121.68 7.16
1 1 4 140.63 9.89
1 1 5 1337.2 36.48
-1 -1 -5 1518.91 36.16
1 1 5 1377.03 40.42
-1 -1 -5 1197.26 33.94
-1 -1 -6 116.47 10.48
-1 -1 -6 140.84 11.77
1 1 6 232.85 17.93
1 1 6 319.51 19.04
1 1 6 317.9 21.76
-1 -1 -7 167.21 11.77
1 1 7 156.18 13.65
1 1 7 143.01 15.34
-1 -1 -7 155.42 12.72
1 1 7 153.14 15.97
1 1 8 180.09 18.07
-1 -1 -8 183.03 14.68
1 1 8 187.29 18.63
1 1 8 179.45 15.69
-1 -1 -8 189.1 12.75
1 1 9 152.85 11.02
1 1 9 169.44 10.74
1 1 9 175.91 16.45
-1 -1 -9 155.23 14.89
-1 -1 -9 157.67 10.41
1 1 9 165.53 18.39
1 1 9 193.3 14.14
-1 -1 -9 161.3 10.85
1 1 9 189.61 12.18
-1 -1 -9 170.53 11.21
-1 -1 -10 176.11 16.42
1 1 10 197.47 12.71
-1 -1 -10 193.67 11.98
1 1 10 208.78 14.74
-1 -1 -10 204.01 11.72
1 1 10 179.56 12.1
1 1 10 210.84 21.14
-1 -1 -10 189.61 11.74
1 1 10 178.05 17.05
1 1 10 202.88 11.68
1 1 11 345.72 15.4
1 1 11 357.35 17.5
1 1 11 362.12 19.23
-1 -1 -11 384.61 16.72
-1 -1 -11 360.13 15.36
1 1 11 327.96 16.34
-1 -1 -11 371.78 16.45
1 1 12 323.47 14.32
-1 -1 -12 328.57 14.99
-1 -1 -12 306.49 14.42
-1 -1 -12 302.88 13.18
1 1 12 326.02 16.27
1 1 12 284.06 14.65
-1 -1 -13 28.61 3.92
1 1 13 29.27 4.68
-1 -1 -13 25.12 3.88
1 1 13 24.06 3.71
1 1 13 27.09 4.41
1 1 13 25.62 3.62
1 1 13 30.18 4.36
-1 -1 -14 27.4 3.16
1 1 14 32.44 3.98
1 1 14 32.48 4.21
1 1 14 29.78 3.21
-1 -1 -14 30.78 3.52
-1 -1 -14 34.48 3.86
1 1 15 2.94 1.08
-1 -1 -15 1.12 0.6
1 1 15 1.15 0.6
1 2 -15 21.13 2.77
-1 -2 15 22.47 3.21
-1 -2 15 23.07 3.13
-1 -2 15 29.42 4.11
-1 -2 15 20.85 2.88
1 2 -15 17.61 2.61
-1 -2 14 3.89 1.9
-1 -2 14 2.64 1.29
1 2 -14 1.66 1.02
-1 -2 14 4.65 2.14
-1 -2 14 1.82 1.16
1 2 -14 2.36 0.8
1 2 -13 0.68 0.51
-1 -2 13 1.06 0.87
-1 -2 13 1.75 1.19
-1 -2 13 -1.17 1.53
-1 -2 13 2.16 1.32
1 2 -13 0.34 0.79
-1 -2 12 410.7 19.63
-1 -2 12 392.91 18.54
-1 -2 12 341.35 17.17
-1 -2 12 471.95 20.94
-1 -2 12 484.74 23.11
1 2 -12 406.45 17.52
-1 -2 11 29.2 4.73
-1 -2 11 30.34 5.96
-1 -2 11 34.3 5.56
-1 -2 11 29.54 5.62
1 2 -11 29.57 4.66
-1 -2 11 31.79 5.29
-1 -2 10 21.04 6.81
1 2 -10 23.84 4.05
1 2 -10 24.07 5.56
-1 -2 10 20.33 4.99
-1 -2 10 22.36 4.37
-1 -2 10 22.93 4.58
-1 -2 10 27.17 4.64
1 2 -10 22.48 5.38
-1 -2 10 17.73 4.04
1 2 -9 4.88 2.8
-1 -2 9 4.19 3.82
1 2 -9 3.29 2.43
-1 -2 8 358.87 25.1
1 2 -8 364.31 19.35
1 2 -8 367.73 20.6
1 2 -8 389.87 19.27
1 2 -7 1461.02 39.79
1 2 -7 1455.37 41.9
1 2 -7 1583.56 39.08
1 2 -6 78.21 8.81
1 2 -6 29.93 5.08
1 2 -6 46.73 6.04
-1 -2 6 93.77 11.7
-1 -2 5 7.44 3.38
-1 -2 5 16.37 4.19
1 2 -5 13.4 2.97
-1 -2 5 26.83 6.32
1 2 -5 5.23 3.5
1 2 -5 27.83 5.26
1 2 -4 502.14 14.29
1 2 -4 516.04 17.53
-1 -2 4 521.63 19.56
1 2 -3 488 11.31
-1 -2 3 528.39 18.49
1 2 -3 511.13 13.5
1 2 -2 3650.27 53.36
1 2 -2 4029.52 50.41
-1 -2 2 3519.58 55.47
-1 -2 2 4057.52 60.01
-1 -2 1 4152.01 59.81
1 2 -1 4155.26 53.09
-1 -2 1 3977.48 58.65
1 2 0 2368.62 38.81
-1 -2 0 2326.99 39.91
-1 -2 0 2289.27 28.42
1 2 1 98.7 8.26
-1 -2 -1 108.76 4.6
-1 -2 -2 333.65 14.09
-1 -2 -2 385.36 15.53
-1 -2 -2 252.93 9.46
1 2 2 244.2 11.55
1 2 2 310.67 11.17
-1 -2 -3 117.05 10.2
-1 -2 -3 48.18 7.34
1 2 3 77.63 6.91
1 2 4 150.06 9.62
1 2 4 142.52 11.04
-1 -2 -4 118.52 9.72
-1 -2 -4 156.47 10.39
-1 -2 -4 143.3 9.72
-1 -2 -5 393.29 17.88
1 2 5 369.74 20.06
1 2 5 334.31 17.16
-1 -2 -6 1321.34 39.79
1 2 6 1335.3 46.27
-1 -2 -6 1471.34 38.76
1 2 6 1454.8 42.63
-1 -2 -7 37.28 6.85
-1 -2 -7 28 5.74
-1 -2 -8 28.39 5.45
1 2 8 26.22 6.04
1 2 8 21.53 6.43
-1 -2 -8 20.46 5.1
1 2 8 22.85 6.83
1 2 9 2.28 2.67
1 2 9 0.89 1.43
-1 -2 -9 3.55 1.55
1 2 9 7.49 5.03
-1 -2 -9 1.24 1.01
-1 -2 -9 2.79 1.79
1 2 9 3.57 2.07
1 2 9 8.16 2.75
-1 -2 -9 2.51 1.98
1 2 9 1.58 1.4
-1 -2 -10 3.45 1.91
-1 -2 -10 4.16 2.53
1 2 10 1.87 1.82
1 2 10 3.6 2.29
1 2 10 3.69 2
-1 -2 -10 1.28 1.13
1 2 10 4.84 2.49
-1 -2 -11 505.32 18.4
1 2 11 454.47 19.96
1 2 11 475.61 22.55
-1 -2 -11 498.02 19.2
1 2 11 494.39 19.38
1 2 11 475.2 20.31
1 2 12 -0.44 0.48
1 2 12 1.82 1.16
-1 -2 -12 0.38 0.52
-1 -2 -12 -0.06 0.49
-1 -2 -12 0.15 0.51
1 2 12 -0.36 0.76
-1 -2 -13 14.53 2.75
-1 -2 -13 17.92 3.09
1 2 13 13.13 2.7
1 2 13 16.8 2.92
1 2 13 13.1 2.72
-1 -2 -13 15.42 2.62
-1 -2 -14 77.54 4.95
-1 -2 -14 84.8 4.88
1 2 14 76.64 5.54
-1 -2 -14 92.25 6.04
1 2 14 65.4 5.25
1 2 14 75.76 5.09
1 3 -15 202.69 7.31
-1 -3 15 184.78 8.2
-1 -3 15 182.23 7.39
-1 -3 15 198.69 8.99
-1 -3 15 173.62 7.07
-1 -3 14 13.54 2.68
1 3 -14 14.15 2.38
-1 -3 14 11.92 2.61
-1 -3 14 15.55 3.49
-1 -3 14 9.99 2.1
1 3 -14 13.98 2.66
-1 -3 13 274.66 13.48
-1 -3 13 289.53 14.62
-1 -3 13 268.95 13.15
-1 -3 13 266.16 14.32
1 3 -13 332.65 14.69
1 3 -13 314.33 13.2
-1 -3 13 303.41 16.36
-1 -3 12 63.8 6.8
-1 -3 12 68.04 7.79
-1 -3 12 55.49 6.71
1 3 -12 66.39 6.94
-1 -3 12 67.48 7.57
-1 -3 12 73.7 8.66
-1 -3 11 15.56 3.87
-1 -3 11 15.75 3.8
-1 -3 11 11.25 2.86
-1 -3 11 17.71 4.27
-1 -3 11 18.19 4.22
1 3 -11 19.34 3.84
1 3 -10 103.88 12.49
-1 -3 10 97.42 8.49
-1 -3 10 84.34 8.69
-1 -3 10 106.37 15.71
-1 -3 10 84.59 9.01
-1 -3 10 95.94 10.23
-1 -3 10 82.06 8.97
1 3 -10 101.75 8.93
1 3 -9 68.4 9.85
-1 -3 9 65.02 8.27
-1 -3 9 66.9 7.54
-1 -3 9 75.44 8.28
1 3 -9 68.9 7.23
-1 -3 9 64.61 7.7
-1 -3 9 65.59 11.79
1 3 -8 138.94 13.47
-1 -3 8 126.58 15.66
-1 -3 7 306.1 21.86
1 3 -7 309.87 19.38
-1 -3 6 1238 40.81
1 3 -6 1187.19 36.12
1 3 -6 1136.04 29.86
-1 -3 6 1157.68 32.02
1 3 -5 870.06 27.85
1 3 -5 779.92 22.92
-1 -3 5 896.01 31.24
-1 -3 5 724.68 26.2
-1 -3 4 33.14 6.15
1 3 -4 45.38 4.91
-1 -3 4 45.5 6.14
1 3 -4 41.04 5.3
-1 -3 3 21.59 4.41
1 3 -3 16.68 2.86
-1 -3 3 14.28 3.05
1 3 -3 19.83 3.52
1 3 -2 1238.35 28.91
-1 -3 2 1286.95 31.9
1 3 -2 1242.38 27.48
1 3 -1 1563.68 35.11
1 3 -1 1614.54 32.18
1 3 0 1784.9 36.25
1 3 0 1754.61 29.73
-1 -3 0 1743.57 37.29
-1 -3 -1 293.29 14.29
1 3 1 288.61 10.99
-1 -3 -1 323.34 14.5
1 3 1 295.24 13.9
1 3 2 569.83 16.71
1 3 2 536.91 19.98
-1 -3 -2 557.18 20.66
-1 -3 -3 488.99 20.74
1 3 3 488.53 20.11
1 3 3 493.6 16.7
-1 -3 -4 22.58 4.18
1 3 4 21.25 3.9
1 3 4 23.23 4.71
-1 -3 -4 20.78 4.78
1 3 5 1.42 1.24
-1 -3 -5 1.86 2.25
1 3 5 0.02 0.82
-1 -3 -5 2.31 1.63
1 3 6 126.11 13.78
-1 -3 -6 135.65 11.62
1 3 6 111.02 11.55
-1 -3 -6 120.26 12.79
-1 -3 -7 116.94 11.53
-1 -3 -7 122.64 12.67
1 3 7 114.41 14.62
1 3 7 106.42 11.83
1 3 8 3.08 1.22
1 3 8 4.87 3.17
1 3 8 7.3 2.47
1 3 8 5 1.89
-1 -3 -8 1.62 1.24
-1 -3 -8 5.75 2.61
1 3 8 5.11 2.3
1 3 8 5.17 2.27
-1 -3 -8 4.02 1.18
-1 -3 -8 7.55 2.69
-1 -3 -8 6.2 2.15
1 3 8 6.67 2.53
1 3 8 5.11 1.71
-1 -3 -9 111.81 9.24
-1 -3 -9 102.48 9.21
1 3 9 96.44 9.48
1 3 9 115.74 13.18
-1 -3 -9 111.19 9.83
-1 -3 -9 102.56 12.02
1 3 9 108.56 10.97
1 3 9 105.25 9.59
1 3 9 114.57 8.23
1 3 9 104.25 15.54
1 3 9 105 9.03
1 3 9 133.1 17.59
-1 -3 -10 -0.38 0.8
1 3 10 -0.67 0.96
1 3 10 0.97 0.81
-1 -3 -10 0.14 1.1
1 3 10 0.17 0.43
-1 -3 -10 -0.16 0.34
-1 -3 -11 171.79 11.28
1 3 11 152.92 11.06
1 3 11 138.52 10.8
1 3 11 166.41 10.92
-1 -3 -11 165.09 10.11
-1 -3 -11 155.56 10.67
-1 -3 -11 161.46 10.39
1 3 12 3.18 1.54
1 3 12 0.53 0.7
-1 -3 -12 4.27 1.46
1 3 12 1.81 0.85
-1 -3 -12 3.23 1.38
-1 -3 -12 1.81 0.85
-1 -3 -12 3.95 1.12
1 3 12 4.45 1.62
-1 -3 -13 138.67 7.74
1 3 13 143.27 8.26
-1 -3 -13 155.83 8.62
1 3 14 19.51 2.4
-1 -3 -14 22.27 2.69
-1 -3 -14 16.04 1.89
1 4 -15 0 0.34
-1 -4 14 36.73 3.73
-1 -4 14 36.1 4.13
1 4 -14 39.73 4.21
1 4 -14 35.39 3.15
1 4 -13 122.69 7.25
1 4 -13 134.48 8.97
-1 -4 13 123.27 9.17
-1 -4 13 119.8 8.57
-1 -4 13 122.37 8.59
-1 -4 13 111.79 8.63
-1 -4 12 175.11 10.38
-1 -4 12 161.38 11.27
-1 -4 12 188.89 12.82
-1 -4 12 162.72 11.73
1 4 -12 198.84 12.01
-1 -4 12 185.69 12.03
-1 -4 11 93.95 9.25
-1 -4 11 109.04 9.93
-1 -4 11 97.71 9.66
-1 -4 11 100.76 9.98
1 4 -11 103.36 9.01
-1 -4 10 72.1 8.31
-1 -4 10 80.75 8.8
1 4 -10 93.72 8.9
-1 -4 10 70.61 8.41
-1 -4 9 409.4 20.52
-1 -4 9 430.56 20.35
-1 -4 9 429.65 20.66
1 4 -9 485.19 27.42
-1 -4 9 396.43 19.77
1 4 -9 509.46 21.1
-1 -4 9 433.13 32.17
-1 -4 8 172.47 12.37
-1 -4 8 161.81 12.18
-1 -4 8 186.09 19.76
-1 -4 8 159.74 12.2
1 4 -8 170.15 16.22
1 4 -7 1.73 1.78
-1 -4 7 -0.6 1.32
1 4 -6 2.56 1.34
-1 -4 6 0.74 1.52
-1 -4 6 4.04 2.61
1 4 -5 353.12 16.9
1 4 -5 367.43 19.23
-1 -4 5 379.42 21.76
-1 -4 4 437.75 21.96
-1 -4 4 342.87 22.3
1 4 -4 427.13 19.29
1 4 -4 521.87 20.1
-1 -4 3 273.79 16.33
-1 -4 3 312.21 20.42
1 4 -3 270.96 14.39
1 4 -3 293.79 14.76
1 4 -2 3.29 1.7
1 4 -2 0.76 0.75
1 4 -2 1.19 1.01
-1 -4 2 2.37 1.53
-1 -4 1 74.44 7.51
1 4 -1 80.43 7.6
-1 -4 1 89.23 9.28
1 4 -1 80.15 8.07
1 4 -1 70.84 6.83
-1 -4 0 951.23 28.65
1 4 0 949.74 22.58
1 4 0 901.85 28.07
1 4 0 869.99 26.72
-1 -4 0 943.51 30.67
1 4 1 36.31 4.11
-1 -4 -1 38.69 5.94
-1 -4 -1 46.43 6.17
1 4 1 38.13 5.57
1 4 2 83.83 8.57
1 4 2 85.08 6.67
-1 -4 -2 84.12 8.9
-1 -4 -2 89.03 9.2
1 4 3 318.44 18.09
1 4 3 320.14 14.39
-1 -4 -3 363.05 16.57
-1 -4 -3 292.8 18.08
-1 -4 -4 420.86 23.45
1 4 4 419.97 22.58
1 4 4 478.86 20.3
-1 -4 -4 488.8 20.6
1 4 5 46.68 8
-1 -4 -5 51.4 6.93
1 4 5 44.93 7.04
-1 -4 -5 41.94 8.01
1 4 6 430.23 27.5
-1 -4 -6 418.09 26.23
-1 -4 -6 454.48 22.08
1 4 6 392.09 22.36
-1 -4 -7 118.76 7.91
1 4 7 137.88 16.84
-1 -4 -7 131.18 10.65
-1 -4 -7 138.53 11.57
1 4 7 138.6 13.54
-1 -4 -7 138.72 11.01
1 4 7 132.25 10.38
-1 -4 -7 154.9 15.53
1 4 7 136.76 9.7
1 4 7 120.51 10.91
-1 -4 -7 138.82 12.73
-1 -4 -7 134.76 11.56
1 4 8 172.79 12.01
1 4 8 166.43 10.76
-1 -4 -8 162.59 14.55
1 4 8 164.24 19.46
-1 -4 -8 165.51 12.66
-1 -4 -8 184.75 13.32
-1 -4 -8 191.81 12.64
1 4 8 139.35 11.83
-1 -4 -8 178.81 16.57
-1 -4 -8 171.96 12.2
1 4 8 176.55 20.4
-1 -4 -9 113.35 9.59
-1 -4 -9 112.47 10.05
-1 -4 -9 121.02 9.63
1 4 9 108.36 9.46
-1 -4 -9 110.33 9.96
1 4 9 105.92 8.35
-1 -4 -10 19.49 4.08
-1 -4 -10 16.39 3.31
1 4 10 16.38 3.03
-1 -4 -10 18.98 3.9
1 4 10 18.35 3.77
-1 -4 -10 11.4 2.56
1 4 10 18.59 3.73
1 4 11 102.55 8.19
-1 -4 -11 117.16 9.02
-1 -4 -11 103.4 8.33
-1 -4 -11 110.83 7.77
1 4 11 120 9.1
1 4 11 106.71 8.51
-1 -4 -12 10.1 2.28
-1 -4 -12 8 1.97
1 4 12 8.95 2.19
1 4 12 7.22 1.69
1 4 12 9.67 2.23
1 4 13 0.46 0.7
-1 -4 -13 -0.12 0.14
-1 -5 14 6.33 1.36
1 5 -14 6.26 1.51
-1 -5 13 56.33 5.55
-1 -5 13 58.67 5.06
-1 -5 13 55.23 5.32
1 5 -13 64.15 5.62
-1 -5 12 141.28 10.11
-1 -5 12 151.11 10.63
1 5 -12 182.1 10.97
-1 -5 12 154 9.98
-1 -5 11 134.45 11
1 5 -11 171.89 11.42
-1 -5 11 130.63 10.8
-1 -5 11 151.33 11.06
-1 -5 10 165.42 12.47
-1 -5 10 150.57 12.07
-1 -5 10 156.08 12.42
1 5 -10 170.37 11.43
-1 -5 9 463.86 22.01
-1 -5 9 491.67 22.85
-1 -5 9 526.64 23.07
-1 -5 9 483.37 22.07
1 5 -9 573.13 23.01
1 5 -9 537.52 21.29
1 5 -8 0.47 1.75
-1 -5 8 5.31 4.33
-1 -5 8 3.27 2.03
1 5 -8 3.23 1.36
-1 -5 8 2.73 1.62
1 5 -8 -0.48 0.52
-1 -5 8 0.89 1.43
-1 -5 8 3.12 1.84
1 5 -7 217.34 13.39
1 5 -7 212.56 17.98
-1 -5 7 210.05 13.76
-1 -5 7 205.15 13.4
-1 -5 7 223.69 21.09
-1 -5 7 231.3 13.74
-1 -5 7 219.08 14.7
1 5 -7 229.06 14.06
-1 -5 7 216.74 13.49
1 5 -6 173.45 15.26
-1 -5 6 190.26 18.12
-1 -5 6 178.78 16
1 5 -5 7.34 2.97
-1 -5 5 4.84 2.48
-1 -5 5 9.83 4.11
1 5 -4 1648.89 42.21
1 5 -4 1441.46 40.25
1 5 -3 13.89 3.42
1 5 -3 14.78 3.72
1 5 -3 16.01 4.62
-1 -5 3 17.59 5.4
1 5 -2 29.57 4.9
1 5 -2 32.84 5.55
1 5 -2 29.19 5.68
-1 -5 2 33.55 6.77
-1 -5 1 88.82 10.7
1 5 -1 76.13 8.45
1 5 -1 80.75 8.13
1 5 -1 85.29 9.38
-1 -5 0 54.48 7.63
-1 -5 0 67.83 9.29
1 5 0 64.58 8.04
1 5 0 59 7.03
1 5 0 65.41 7.99
-1 -5 -1 226.57 16.14
1 5 1 216.05 15.29
1 5 1 230.28 15.66
-1 -5 -1 238.08 17.02
-1 -5 -2 286.35 19.3
1 5 2 313.26 18.73
-1 -5 -2 269.41 18.49
-1 -5 -3 90.81 11.28
1 5 3 84.65 10.13
1 5 4 38.71 7.35
-1 -5 -4 37.96 7.65
-1 -5 -5 124.75 15.03
1 5 5 138.72 10.46
-1 -5 -5 154.41 11.88
-1 -5 -5 125.87 10.37
1 5 5 147.6 15.78
-1 -5 -5 140.11 11.21
-1 -5 -5 118.84 9.73
1 5 5 137.82 10.36
1 5 6 1209.89 49.61
-1 -5 -6 1051.82 31.2
-1 -5 -6 1162.23 34.96
1 5 6 1098.17 32.54
1 5 6 1138.28 31.55
-1 -5 -6 1144.5 35.13
-1 -5 -6 1197.03 35.24
-1 -5 -6 1157.91 48.24
1 5 7 32.12 5.39
-1 -5 -7 36.04 5.2
-1 -5 -7 37.46 6.45
1 5 7 35.96 9.41
1 5 7 33.52 5.29
-1 -5 -7 38.96 6.27
-1 -5 -7 36.96 5.9
1 5 8 225.93 12.99
-1 -5 -8 264.81 16.28
-1 -5 -8 236.78 15.41
1 5 8 227.11 14.32
-1 -5 -8 247.38 14.57
-1 -5 -9 356.15 16.33
1 5 9 317.04 14.67
-1 -5 -9 338.82 17.42
-1 -5 -9 347.24 17.56
1 5 9 332.63 16.8
1 5 10 29.32 4.89
-1 -5 -10 27.79 4.42
-1 -5 -10 25.77 4.49
-1 -5 -10 29.89 4.16
1 5 10 26.59 3.83
1 5 10 29.53 4.78
-1 -5 -11 393.17 15.18
-1 -5 -11 402.78 15.13
-1 -5 -11 376.29 13.01
1 5 11 406.55 15.95
1 5 11 377.52 15.28
1 5 12 14.39 2.4
-1 -5 -12 16.42 2.44
-1 -5 -12 18.34 2.64
1 5 12 18.32 2.94
1 5 13 42.58 3.28
1 6 -14 40.92 2.94
-1 -6 13 3.5 1.14
-1 -6 13 3.91 1.25
1 6 -13 2.75 1.03
-1 -6 12 102.16 7.86
1 6 -12 115.69 7.65
-1 -6 12 102.82 7.7
-1 -6 11 21.19 4.2
-1 -6 11 23.99 3.89
-1 -6 11 20.56 3.97
1 6 -11 20.66 3.58
1 6 -11 14.28 2.83
-1 -6 10 36.55 5.84
-1 -6 10 42.39 5.84
1 6 -10 45.3 5.76
1 6 -10 39.02 5.24
-1 -6 10 40.94 6.03
1 6 -10 40.91 5.43
-1 -6 9 906.16 29.84
-1 -6 9 842.69 29.92
1 6 -9 913.4 28.35
1 6 -9 982.9 29.55
1 6 -9 916.42 29.54
-1 -6 9 896.03 29.5
-1 -6 9 823.84 29.64
-1 -6 8 59.77 7.75
-1 -6 8 54.96 7.14
-1 -6 8 60.5 7.31
1 6 -8 62.76 7.36
1 6 -8 66.63 7.94
-1 -6 8 56.93 7.73
1 6 -7 35.58 7.36
-1 -6 7 34.2 6.04
-1 -6 7 41.87 6.34
-1 -6 7 41.44 5.96
-1 -6 7 40.75 6.2
1 6 -7 39.75 6.11
1 6 -7 42.01 5.96
-1 -6 7 30.68 5.19
1 6 -6 498.9 21.13
-1 -6 6 522.12 21.74
-1 -6 6 540.99 21.61
-1 -6 6 477.33 22.2
-1 -6 6 466.94 29.39
1 6 -6 503.09 32.21
-1 -6 6 484.51 20.69
1 6 -6 441.23 26.11
1 6 -6 535.33 22.04
-1 -6 5 343.84 17.92
1 6 -5 374.39 22.71
1 6 -5 353.08 25.49
1 6 -5 338.25 16.97
-1 -6 5 328.84 16.25
-1 -6 5 275.96 15.24
-1 -6 5 331.79 16.72
1 6 -5 338.49 15.54
-1 -6 5 275.58 23.65
1 6 -5 361.12 17.61
-1 -6 4 250.83 14.76
-1 -6 4 283.57 15
-1 -6 4 311.47 15.19
1 6 -4 329.11 24.23
-1 -6 4 184.4 20.79
-1 -6 4 233.18 13.62
1 6 -4 292.34 14.45
1 6 -4 295.12 15.92
1 6 -4 351.66 20.69
1 6 -4 258.68 15.11
1 6 -3 237.9 17.03
-1 -6 3 224.19 21.67
1 6 -3 248.92 19.06
1 6 -3 228.5 15.89
1 6 -2 184.8 13.7
1 6 -2 160.1 14.77
1 6 -2 171.67 14.32
-1 -6 2 187.5 18.8
-1 -6 1 1122.69 46.02
1 6 -1 1073.85 38.01
1 6 -1 1182.86 35.87
1 6 -1 1229.5 40.9
1 6 0 92.06 11.4
1 6 0 65.08 10.07
-1 -6 0 74.91 11.18
-1 -6 -1 135.65 14.67
1 6 1 140.38 14.5
1 6 1 157.93 14.31
-1 -6 -1 116.61 13.91
1 6 2 769.18 33.1
1 6 2 708.24 24.6
-1 -6 -2 754.37 25.73
1 6 2 727.12 23.97
1 6 2 700.31 33.13
-1 -6 -2 728.8 34.49
-1 -6 -2 700.31 24.17
1 6 2 724.59 23.93
-1 -6 -2 654.1 32.98
-1 -6 -2 701.18 24.74
-1 -6 -3 489.15 20.78
1 6 3 432.08 25.95
-1 -6 -3 501.25 29.94
-1 -6 -3 568.23 21.13
-1 -6 -3 526.08 21.99
1 6 3 492.37 29.73
1 6 3 459.14 19.37
1 6 3 488.08 20.74
-1 -6 -3 480.24 21.24
1 6 4 239.13 15.84
-1 -6 -4 170.98 19.54
-1 -6 -4 190.99 14.12
-1 -6 -4 198.04 13.45
-1 -6 -4 210.1 15.28
1 6 4 179.82 19.34
-1 -6 -4 193.68 14.63
1 6 4 244.65 13.96
-1 -6 -5 23.58 4.74
-1 -6 -5 31.55 5.91
-1 -6 -5 23.53 5.17
1 6 5 27.06 4.49
-1 -6 -5 27.56 5.26
1 6 5 25.3 4.8
1 6 5 29.93 5.27
1 6 5 19.78 6.54
1 6 6 41.46 5.89
-1 -6 -6 19.72 4.68
-1 -6 -6 20.67 4.4
-1 -6 -6 25.92 5.18
-1 -6 -6 26.42 5.64
1 6 6 31.27 5.81
-1 -6 -7 270.51 14.78
-1 -6 -7 351.67 18.27
-1 -6 -7 407.65 21.44
-1 -6 -7 368.71 19.47
1 6 7 469.83 21.47
1 6 7 548.17 21.75
-1 -6 -8 11.67 2.53
-1 -6 -8 15.04 3.84
-1 -6 -8 17.26 3.86
-1 -6 -8 15.86 4
1 6 8 23.69 4.67
1 6 8 21.68 4.23
1 6 9 46.47 5.94
-1 -6 -9 43.81 5.61
-1 -6 -9 41.84 5.04
1 6 9 50.97 6.35
-1 -6 -9 46.21 5.8
1 6 9 45.99 5.33
1 6 9 42.83 4.96
1 6 10 113.12 8.5
1 6 10 89.07 6.46
-1 -6 -10 93.24 7.1
-1 -6 -10 105.11 7.69
-1 -6 -10 82.49 6.15
1 6 10 117.56 8.49
1 6 11 3.47 1.37
1 6 11 3.54 1.19
-1 -6 -11 4.08 1.25
-1 -6 -11 2.58 0.8
-1 -6 -11 3.12 1.1
1 6 11 3.28 0.94
1 6 12 100.82 5.14
1 7 -12 11.28 2.13
-1 -7 12 13.22 2.5
-1 -7 12 13.24 2.15
-1 -7 11 14.4 2.79
-1 -7 11 12.68 2.68
1 7 -11 13.23 2.5
1 7 -11 16.22 2.76
-1 -7 10 79.45 7.56
-1 -7 10 87.98 7.09
1 7 -10 102.91 7.72
1 7 -10 103.62 7.99
1 7 -10 96.86 7.32
-1 -7 10 94.48 8.64
-1 -7 9 189.45 12.99
1 7 -9 220.51 12.8
-1 -7 9 212.78 12.5
-1 -7 9 177.02 11.76
-1 -7 9 183.79 12.66
1 7 -9 212.92 12.05
1 7 -9 188.74 12
-1 -7 8 130.84 10.62
1 7 -8 141.7 10.76
-1 -7 8 124.41 10.97
-1 -7 8 111.62 10.21
-1 -7 8 122.62 10.01
1 7 -8 131.28 10.66
-1 -7 7 88.13 9.69
1 7 -7 60.85 7.87
1 7 -7 52.45 7.36
-1 -7 7 92.5 9.29
-1 -7 7 69.55 8.38
-1 -7 7 66.11 7.65
-1 -7 7 83.19 8.26
1 7 -6 276.48 16.73
-1 -7 6 303.05 18.62
-1 -7 6 214.11 16.51
-1 -7 6 359.73 18.12
1 7 -6 216.51 15.56
-1 -7 6 201.82 14.53
-1 -7 6 268.23 16.12
-1 -7 5 8.65 2.61
1 7 -5 8.45 2.51
-1 -7 5 7.24 2.43
-1 -7 5 8.34 2.93
-1 -7 5 12.87 3.54
1 7 -5 10.52 3.16
1 7 -5 8.09 2.78
1 7 -4 86.14 8.91
-1 -7 4 90.97 8.48
-1 -7 4 60.6 13.06
1 7 -4 120.95 15.03
-1 -7 4 56.39 7.51
-1 -7 4 77.1 9.1
1 7 -4 39.8 6.86
1 7 -4 73.62 9.1
-1 -7 4 71.05 8.18
1 7 -3 83.47 8.9
-1 -7 3 71.38 13.29
1 7 -3 83.76 8.22
1 7 -3 86.87 8.23
-1 -7 3 78.33 8.12
-1 -7 3 71.05 7.79
-1 -7 3 68.85 7.81
-1 -7 3 81.16 8.72
-1 -7 3 83.21 8.27
1 7 -3 87.05 11.72
-1 -7 2 430.89 19.92
-1 -7 2 456.61 19.8
1 7 -2 446.39 25.7
-1 -7 2 431.41 19.18
-1 -7 2 458.31 32.93
-1 -7 2 478.82 21.91
-1 -7 2 438.04 18.76
1 7 -2 478.08 21.37
1 7 -2 481.6 19.76
1 7 -2 473.23 27.32
1 7 -2 476.2 19.96
-1 -7 1 403.83 18.52
1 7 -1 368.86 18.7
1 7 -1 399.31 24.94
1 7 -1 385.13 24.11
-1 -7 1 387.04 18.02
-1 -7 1 375.07 17.38
-1 -7 1 389.1 29.34
1 7 -1 412.83 18.44
1 7 -1 394.13 18.17
-1 -7 0 398.48 18.4
1 7 0 335.71 17.12
-1 -7 0 290.29 25.07
1 7 0 305.05 22.07
1 7 0 359.39 23.78
1 7 0 381.86 18.45
1 7 0 303.79 15
1 7 0 289.55 16.82
-1 -7 0 383.47 18.34
1 7 1 67.54 10.05
-1 -7 -1 68.03 7.88
-1 -7 -1 73.06 12.24
1 7 1 81.57 8.51
-1 -7 -1 80.16 8.56
-1 -7 -1 81.95 8.6
1 7 1 83.31 11.66
1 7 1 75.19 7.96
1 7 1 64.54 7.22
-1 -7 -2 230.69 14.52
-1 -7 -2 207.48 14
1 7 2 226.52 14.49
1 7 2 215.38 18.58
1 7 2 223.66 13.87
-1 -7 -2 222.89 14.24
1 7 2 220.39 13.68
1 7 3 6.63 2.71
-1 -7 -3 6.76 2.74
1 7 3 6.39 2.42
1 7 3 4.28 1.81
-1 -7 -3 3.1 1.87
-1 -7 -3 6.41 2.38
1 7 4 819.62 26.46
-1 -7 -4 850.93 29.19
1 7 4 894.68 30.46
1 7 4 918 29.94
-1 -7 -4 914.31 31.01
-1 -7 -4 840.38 29.85
1 7 5 171.85 11.01
-1 -7 -5 182.88 13.4
1 7 5 166.11 12.43
-1 -7 -5 177.87 13.37
1 7 5 180.4 12.97
-1 -7 -5 178.8 12.06
-1 -7 -5 166.03 12.33
1 7 6 32.08 5.42
-1 -7 -6 33.58 5.6
-1 -7 -6 40.1 6.22
1 7 6 21.23 4.5
-1 -7 -6 37.27 6.39
-1 -7 -6 14.3 3.54
1 7 6 30.76 5.72
1 7 6 21.6 4.57
-1 -7 -7 27.48 4.29
1 7 7 82.72 8.8
1 7 7 40.3 6.39
-1 -7 -7 49.92 6.93
-1 -7 -7 44.87 6.1
-1 -7 -7 32.44 4.54
-1 -7 -7 57.93 6.69
1 7 7 61.3 7.36
1 7 7 51.67 6.18
1 7 8 9.08 2.56
1 7 8 16.7 3.76
-1 -7 -8 7.81 1.94
1 7 8 17.7 3.16
1 7 8 15.17 4.39
-1 -7 -8 17.74 3.39
-1 -7 -8 18.15 3.72
-1 -7 -8 15.99 3.15
-1 -7 -9 9.34 2.23
1 7 9 10.94 2.63
-1 -7 -9 9.89 2.01
1 7 9 9 2.25
-1 -7 -9 8.55 1.94
1 7 9 8.54 1.98
1 7 9 8.79 1.76
1 7 10 94.03 6.43
-1 -7 -10 86.84 5.47
1 7 10 78.61 5.4
1 7 10 82.37 5.15
-1 -7 -10 78.52 4.35
-1 -8 11 10.29 2.02
1 8 -11 10.12 1.6
1 8 -10 56.81 4.9
-1 -8 10 48.44 4.8
-1 -8 10 44.65 5.06
1 8 -10 50.65 4.33
1 8 -10 42.72 3.8
1 8 -9 24.24 3.58
-1 -8 9 21.79 3.51
1 8 -9 26.16 3.5
-1 -8 9 23.57 3.82
1 8 -9 29.4 3.69
-1 -8 9 24.76 4.06
1 8 -9 25.82 3.78
-1 -8 8 160.28 10.5
-1 -8 8 139.61 10.4
1 8 -8 143.77 9.06
1 8 -8 148.54 10.13
-1 -8 8 156.78 11.21
1 8 -8 145.69 10.05
1 8 -8 133.36 9.53
1 8 -7 -0.48 1.4
-1 -8 7 -0.37 0.51
-1 -8 7 -0.15 0.12
-1 -8 7 1.08 0.81
1 8 -7 -0.91 1.05
-1 -8 7 0.09 0.85
-1 -8 6 29.76 5.07
-1 -8 6 18.83 3.73
-1 -8 6 24.1 4.81
-1 -8 6 18.81 3.94
1 8 -6 24.84 4.54
-1 -8 6 27.18 4.44
1 8 -6 23.8 4.4
-1 -8 5 19.55 4.01
-1 -8 5 20.32 4.1
1 8 -5 20.84 4.39
-1 -8 5 19.32 4.1
1 8 -5 20.2 4.14
-1 -8 5 17.08 4.01
1 8 -5 19.71 3.71
1 8 -4 168.81 12.06
-1 -8 4 163.7 12.76
-1 -8 4 177.55 12.18
1 8 -4 159.5 11.33
-1 -8 4 180 12.42
-1 -8 4 155.27 11.21
1 8 -4 181.95 13.19
1 8 -3 3.13 1.79
-1 -8 3 2.59 1.16
1 8 -3 2.83 1.34
-1 -8 3 2.98 1.68
-1 -8 3 6.13 2.5
-1 -8 3 3.08 1.46
-1 -8 3 4.89 2.26
1 8 -3 3.15 1.56
-1 -8 2 54.11 6.71
1 8 -2 64.54 7.35
1 8 -2 56.21 6.9
-1 -8 2 58.39 7.02
1 8 -2 53.35 7.08
-1 -8 2 51.08 7.05
-1 -8 2 52.38 6.43
-1 -8 2 47.92 6.64
-1 -8 1 72.68 7.99
-1 -8 1 61.93 7.03
-1 -8 1 84.07 9.31
1 8 -1 65.22 7.9
1 8 -1 77.16 8.34
-1 -8 1 71.76 7.79
1 8 -1 70.06 7.69
-1 -8 0 1.22 0.42
1 8 0 2.21 0.94
-1 -8 0 2.99 2.94
-1 -8 0 3.61 1.94
-1 -8 0 1.82 1.26
1 8 0 3.29 1.62
1 8 0 0.16 0.42
1 8 0 0.73 0.11
1 8 1 52.06 6.86
1 8 1 51.16 6.59
1 8 1 45.58 5.93
-1 -8 -1 46.23 6.47
-1 -8 -1 43.89 6.25
-1 -8 -2 28.33 5.67
1 8 2 28.99 5.05
1 8 2 28.75 5.03
-1 -8 -2 32.16 5.48
1 8 2 32.79 5.24
1 8 3 244.57 14.7
1 8 3 230.34 13.89
-1 -8 -3 211.36 13.97
-1 -8 -3 253.24 15.19
-1 -8 -3 223.99 14.48
1 8 3 260.81 15.16
1 8 4 16.62 3.82
1 8 4 15.38 3.56
-1 -8 -4 10.25 2.84
-1 -8 -4 16.81 3.85
1 8 4 15.99 3.7
1 8 4 15.17 3.69
-1 -8 -4 17.37 3.94
-1 -8 -5 -0.12 0.65
1 8 5 0.86 1.38
1 8 5 -0.94 0.52
-1 -8 -5 0.76 0.85
-1 -8 -5 -0.68 1.27
-1 -8 -5 -0.01 1.19
1 8 5 1.01 1.01
1 8 5 2.05 1.43
1 8 6 153.32 9.93
1 8 6 152.6 10.67
-1 -8 -6 178.06 10.58
-1 -8 -6 164.93 11.27
-1 -8 -6 177.49 10.22
-1 -8 -6 164.48 10.63
1 8 6 176.43 11.4
1 8 7 82.04 7.13
1 8 7 71.55 5.85
-1 -8 -7 74.36 6.73
-1 -8 -7 84.49 6.24
-1 -8 -7 80.81 5.79
1 8 7 88.07 7.21
1 8 8 132.71 6.31
1 8 8 157.8 8.85
1 8 8 156.07 8.42
-1 -8 -8 151.28 8.14
1 8 9 58.85 4.49
-1 -8 -9 58.44 3.93
1 8 9 54.83 3.93
1 9 -9 171.81 7.76
-1 -9 9 163.65 8.48
-1 -9 8 0.15 0.64
1 9 -8 -0.71 0.37
1 9 -8 0.78 0.4
1 9 -8 0.39 0.7
1 9 -8 0.29 0.17
-1 -9 8 0.06 0.73
-1 -9 8 -0.67 0.74
-1 -9 7 58.92 5.68
1 9 -7 60.49 5.82
1 9 -7 71.37 6.41
-1 -9 7 67.25 6.34
1 9 -7 62.34 4.83
1 9 -7 78.8 6.67
-1 -9 7 61.95 6.33
-1 -9 6 72.15 6.88
-1 -9 6 79.4 7.1
-1 -9 6 64.34 6.8
1 9 -6 72.64 5.64
1 9 -6 82.02 7.33
1 9 -6 67.84 6.56
-1 -9 5 51.74 6.29
-1 -9 5 59.25 6.47
-1 -9 5 58.2 6.29
-1 -9 5 54.99 5.53
1 9 -5 62.41 6.71
-1 -9 5 54.77 6.09
1 9 -5 56.86 6.27
1 9 -4 27.96 4.55
-1 -9 4 29.8 4.67
-1 -9 4 23.66 4.3
-1 -9 4 23.88 4.23
1 9 -4 30.4 5.01
-1 -9 4 25.61 4.41
1 9 -4 25.72 4.17
1 9 -3 140.4 10.46
-1 -9 3 121.61 10.02
-1 -9 3 138.96 10.03
-1 -9 3 141.28 10.04
-1 -9 3 141.94 10.36
1 9 -3 145.99 10.44
-1 -9 3 135.77 10.27
1 9 -3 135.54 10.48
-1 -9 2 18.97 3.87
-1 -9 2 16.09 3.25
1 9 -2 18.21 3.64
1 9 -2 18.04 3.92
-1 -9 2 14.55 3.28
1 9 -2 17.91 3.65
-1 -9 2 18.61 3.95
-1 -9 2 18.62 3.96
1 9 -1 12.6 2.87
-1 -9 1 16.68 3.57
-1 -9 1 18.08 3.4
1 9 -1 16.12 3.4
-1 -9 1 14.9 3.53
-1 -9 1 15.46 3.3
1 9 -1 20.86 4.11
1 9 0 67.34 7.32
-1 -9 0 68.13 7.26
-1 -9 0 58.65 6.74
-1 -9 0 55.01 6.28
-1 -9 0 57.94 7.39
1 9 0 62.67 7.38
-1 -9 -1 136.75 10.5
-1 -9 -1 117.88 10.85
1 9 1 131.68 10.15
1 9 1 126.42 10.41
-1 -9 -1 125.74 9.86
-1 -9 -1 125.74 9.58
1 9 1 122.82 9.39
1 9 1 132.44 9.33
1 9 2 97.06 8.74
-1 -9 -2 104.28 8.94
1 9 2 108.52 8.63
-1 -9 -2 111.96 10.26
-1 -9 -2 97.76 8.3
-1 -9 -2 98.63 8.75
1 9 2 102.88 8.8
-1 -9 -3 -0.12 0.94
-1 -9 -3 0.9 1.16
1 9 3 0.45 0.41
1 9 3 0.59 0.33
-1 -9 -3 1.33 1.35
1 9 3 1.56 0.84
-1 -9 -4 83.17 7.37
-1 -9 -4 84.85 7.26
1 9 4 87.5 7.47
1 9 4 92.38 7.18
-1 -9 -4 93.63 7.64
1 9 4 89.07 7.78
-1 -9 -4 107.35 8.7
-1 -9 -5 0.58 0.43
1 9 5 1.07 0.51
1 9 5 0.17 0.77
-1 -9 -5 1.17 0.96
1 9 5 -0.03 0.37
-1 -9 -5 -0.39 0.48
-1 -9 -5 0.7 0.94
1 9 6 7.73 1.66
-1 -9 -6 7.82 1.76
-1 -9 -6 8.87 1.82
-1 -9 -6 8.41 1.87
-1 -9 -6 9.31 1.67
1 9 6 12.3 2.44
1 9 6 8.71 1.78
-1 -9 -7 11.08 1.81
-1 -9 -7 9.56 1.54
1 9 7 13.82 2.15
1 10 -7 11.56 1.81
-1 -10 6 154.65 7.5
1 10 -6 186.34 9.03
-1 -10 6 141.25 6.86
-1 -10 6 163.93 7.83
1 10 -6 203.36 8.84
1 10 -6 175.16 8.11
-1 -10 5 9.62 1.94
1 10 -5 10.03 2.15
-1 -10 5 8.44 1.93
1 10 -5 9.01 1.92
1 10 -5 11.69 2.55
-1 -10 5 10.04 2.18
-1 -10 4 3.32 1.28
1 10 -4 2.78 1.29
1 10 -4 2.95 1.47
-1 -10 4 4.16 1.55
-1 -10 4 2.62 1.16
-1 -10 4 4.78 1.81
1 10 -4 3.72 1.39
1 10 -3 63.09 5.8
-1 -10 3 63.76 5.96
1 10 -3 59.3 6.22
1 10 -3 58.41 5.37
-1 -10 3 59.46 5.41
-1 -10 3 55.97 5.49
1 10 -2 0.73 1
-1 -10 2 1.38 0.83
1 10 -2 -0.47 0.78
-1 -10 2 0.15 0.66
-1 -10 2 1.29 0.55
1 10 -2 -0.29 0.93
1 10 -2 0.45 0.67
-1 -10 2 -0.72 0.73
1 10 -1 -0.45 0.93
-1 -10 1 -0.14 0.5
1 10 -1 0.22 0.55
-1 -10 1 0.58 0.71
-1 -10 1 1.74 1.04
-1 -10 1 0.92 0.96
1 10 -1 -0.26 0.58
-1 -10 0 20.65 3.55
-1 -10 0 25.11 4.49
1 10 0 19.66 3.5
-1 -10 0 18.85 3.49
-1 -10 0 17.28 3.35
1 10 0 16.22 2.76
1 10 0 20.74 3.61
-1 -10 -1 39.68 4.71
-1 -10 -1 39.26 4.23
-1 -10 -1 45.77 4.86
1 10 1 49.33 5.36
1 10 1 44.8 4.91
-1 -10 -1 44.64 5.2
-1 -10 -2 2.67 1.34
1 10 2 2.55 1.2
-1 -10 -2 1.71 0.57
-1 -10 -2 3.43 1.29
1 10 2 2.25 0.88
1 10 2 1.53 0.7
-1 -10 -2 3.42 1.64
1 10 3 30.46 3.6
-1 -10 -3 27.77 3.73
-1 -10 -3 35.05 4.12
1 10 3 27.24 3.32
-1 -10 -3 33.97 3.56
1 10 3 28.19 3.24
-1 -10 -3 27.32 3.36
-1 -10 -4 64.96 4.26
1 10 4 58.71 4.06
-1 -10 -4 57.11 4.38
-1 -10 -4 74.31 5.13
1 10 4 62.11 4.42
2 -11 -4 5.47 1.57
-2 11 4 5.81 1.59
2 -11 -4 8.72 1.9
-2 11 3 64.1 5.05
2 -11 -3 67.69 5.4
2 -11 -3 74.15 5.55
2 -11 -3 75.53 5.23
2 -11 -2 28.69 3.46
-2 11 2 19.08 3.48
-2 11 2 24.3 3.1
2 -11 -2 22.65 3.25
2 -11 -1 194.12 8.65
-2 11 1 197.82 8.74
2 -11 -1 202.39 9.39
2 -11 -1 214.41 10.5
2 -11 -1 208.21 9.16
2 -11 0 55.66 4.91
-2 11 0 60.68 5
2 -11 0 58.44 4.59
-2 11 0 61.31 5.39
-2 11 -1 9.37 2.33
-2 11 -1 10.95 2.41
2 -11 1 13.18 2.61
-2 11 -1 9.88 1.94
-2 11 -2 21.03 3.54
2 -11 2 18.12 3.61
-2 11 -2 13.26 3.01
-2 11 -2 14.49 3.05
-2 11 -3 172.44 8.52
2 -11 3 206.46 10.26
-2 11 -3 182.74 9.9
2 -11 3 178.86 9.27
2 -11 4 24.63 3.33
2 -11 4 20.62 3.11
-2 11 -4 21.34 3.17
-2 11 -4 17.26 2.57
2 -11 5 290.28 10.45
-2 11 -5 288.9 10.15
2 -11 5 278.31 10.69
-2 11 -5 275.04 9.22
2 -10 -7 231.29 9.25
2 -10 -7 220.47 7.87
-2 10 7 242.74 10.11
-2 10 7 235.87 9.66
-2 10 6 108.45 6.48
2 -10 -6 123.3 7.59
2 -10 -6 112.77 6.72
2 -10 -6 108.99 7.49
-2 10 6 116.79 8.01
-2 10 6 124.41 8.05
2 -10 -5 21.69 3.58
-2 10 5 21.21 3.83
2 -10 -5 18.88 2.99
2 -10 -5 21.29 3.43
-2 10 5 23.27 3.84
2 -10 -4 211.66 11.97
-2 10 4 212.76 12.57
2 -10 -4 202.06 10.59
-2 10 4 213.44 12.51
2 -10 -4 225.65 11.9
2 -10 -3 239.48 13.12
2 -10 -3 254.97 13.06
2 -10 -3 235.31 11.72
-2 10 3 248.36 13.61
-2 10 3 246.53 13.48
2 -10 -3 254.57 11.17
-2 10 2 128.66 9.03
2 -10 -2 140.68 10.16
-2 10 2 133.43 9.8
2 -10 -2 132.52 8.78
-2 10 2 123.46 8.94
-2 10 2 122.09 9.17
2 -10 -2 122.63 9.01
2 -10 -2 121.84 8.38
2 -10 -1 34.91 4.76
-2 10 1 29.45 4.4
2 -10 -1 36.56 5.51
2 -10 -1 34.35 4.44
2 -10 -1 36.56 4.75
-2 10 1 32.58 4.59
-2 10 1 35.84 4.61
-2 10 1 38.43 5.52
2 -10 0 6.59 2.05
-2 10 0 6.25 1.85
-2 10 0 4.43 1.93
2 -10 0 5.33 1.73
-2 10 0 5.8 2.55
2 -10 0 5.16 1.65
2 -10 0 5.11 1.69
2 -10 1 5.47 1.69
2 -10 1 7.58 2.08
2 -10 1 4.54 1.5
2 -10 1 6.55 2.06
-2 10 -1 6.55 2.17
-2 10 -1 6.45 2.51
-2 10 -1 5.54 1.94
-2 10 -2 113.03 9.01
2 -10 2 139.01 9.8
2 -10 2 130.93 9.88
2 -10 2 127.04 8.3
-2 10 -2 107.1 8.48
-2 10 -2 117.42 10.72
2 -10 3 58.86 6.63
-2 10 -3 47.71 6.61
2 -10 3 55.67 6.18
-2 10 -3 41.04 5.34
-2 10 -3 45 5.62
2 -10 4 27.23 4.59
2 -10 4 23.37 3.85
-2 10 -4 21.12 3.78
-2 10 -4 25.99 4.63
-2 10 -4 24.91 3.94
2 -10 5 98.82 8.24
-2 10 -5 87.37 6.95
2 -10 5 92.27 7.62
-2 10 -5 93.96 7.89
-2 10 -5 73.17 6.34
-2 10 -5 82.98 7.14
2 -10 6 34.12 4.43
-2 10 -6 34.76 4.25
2 -10 6 33.94 4.7
-2 10 -6 36.2 4.16
-2 10 -6 34.16 4.21
-2 10 -7 1.79 0.74
2 -10 7 2.12 1.07
2 -10 7 2.32 1.47
-2 10 -7 2.12 0.8
-2 10 -7 2.75 1.21
2 -10 8 156.36 7.76
-2 10 -8 154.75 6.76
-2 10 -8 153.04 6.72
2 -10 8 137.69 6.66
2 -9 -9 6.56 1.45
-2 9 9 7.51 1.73
-2 9 9 6.31 1.54
2 -9 -9 5.32 1.24
-2 9 9 5.88 1.41
-2 9 9 5.54 1.36
-2 9 8 124.38 8.61
2 -9 -8 149.71 8.44
-2 9 8 129.16 8.07
2 -9 -8 121.12 7.68
-2 9 8 118.91 7.79
2 -9 -7 19.53 3.27
-2 9 7 16.4 3.22
2 -9 -7 16.42 3.23
-2 9 7 16.81 3.28
-2 9 7 15.29 3.36
2 -9 -6 2.25 1.43
-2 9 6 0.84 1.22
2 -9 -6 -1.18 1.14
-2 9 6 -1.4 1.06
-2 9 6 2.24 1.12
-2 9 5 160.44 12.6
2 -9 -5 149.09 10.64
-2 9 5 143.89 10.08
-2 9 5 144.46 11.09
2 -9 -5 159.56 11.23
2 -9 -4 67.89 7.4
-2 9 4 59.71 6.89
2 -9 -4 54.16 6.49
-2 9 4 57.38 6.12
-2 9 4 56.02 7.41
-2 9 3 105.81 9.98
-2 9 3 82.48 8.76
2 -9 -3 94.35 8.59
2 -9 -3 104.39 9.15
2 -9 -2 6.12 2.25
-2 9 2 0.66 0.42
-2 9 2 5.24 2.23
2 -9 -2 7.64 2.77
-2 9 2 4.6 1.8
2 -9 -2 3.54 1.47
-2 9 2 8.15 2.68
2 -9 -2 6.76 2.26
2 -9 -1 119.25 9.35
-2 9 1 103.3 10.87
-2 9 1 121.38 10.04
2 -9 -1 118.95 10.35
-2 9 1 129.1 11.9
2 -9 -1 115.48 9.23
-2 9 1 125.24 10.34
2 -9 -1 127.89 9.98
-2 9 0 83.23 7.89
-2 9 0 86.08 8.33
2 -9 0 83.77 7.73
2 -9 0 88.07 8.65
-2 9 0 79.67 9.89
-2 9 0 89.03 8.63
-2 9 0 95.85 10.18
2 -9 0 93.83 8.35
2 -9 0 94.84 8.4
2 -9 1 96.33 8.29
2 -9 1 105.23 9.62
-2 9 -1 96.62 8.97
-2 9 -1 94.38 8.31
2 -9 1 94.28 8.12
2 -9 1 98.39 8.63
-2 9 -1 95.65 9.24
-2 9 -1 93.1 11
2 -9 2 12.67 2.8
-2 9 -2 6.96 2.34
2 -9 2 8.15 2.63
2 -9 2 9.85 2.53
-2 9 -2 11.04 3.88
-2 9 -2 9.84 2.99
-2 9 -2 9.87 2.41
2 -9 2 11.77 2.92
-2 9 -3 56.45 7.2
2 -9 3 60.79 7.2
-2 9 -3 59.21 8.09
-2 9 -3 57.68 6.95
2 -9 3 61.67 6.85
-2 9 -4 10.67 2.91
-2 9 -4 11.81 3.46
2 -9 4 12.24 3.27
2 -9 4 12.68 2.88
-2 9 -4 14.28 3.17
-2 9 -5 190.52 13
2 -9 5 186.86 12.17
-2 9 -5 177.31 12.06
2 -9 5 202.71 13.48
-2 9 -5 183.49 12.05
2 -9 6 1.18 1.24
2 -9 6 0.16 1.11
-2 9 -6 -0.14 0.47
-2 9 -6 -0.21 0.47
-2 9 -6 0.78 1.41
2 -9 7 42.57 6.1
-2 9 -7 46.99 5.63
2 -9 7 38.95 5.09
-2 9 -7 43.07 5.14
-2 9 -7 37.89 4.79
2 -9 8 61.63 5.9
-2 9 -8 59.96 5.63
-2 9 -8 60.13 5.74
2 -9 8 67.44 6.92
-2 9 -8 55.05 4.91
-2 9 -9 1.87 0.71
2 -9 9 1.39 1.07
2 -9 9 2.49 1.06
-2 9 -9 1 0.58
2 -9 10 25.35 2.94
-2 9 -10 24.84 2.44
2 -8 -11 109.5 5.13
-2 8 11 113.73 6.2
2 -8 -11 117.32 5.77
-2 8 11 109.23 6.31
2 -8 -10 41.32 4
2 -8 -10 42.61 4.39
-2 8 10 36.76 3.94
-2 8 10 47.33 5.15
-2 8 10 38.89 4.44
-2 8 10 37.36 3.56
-2 8 9 11.22 2.43
2 -8 -9 12.81 2.65
-2 8 9 9.92 2.63
2 -8 -9 10.73 2.6
-2 8 9 6.32 2.09
-2 8 8 82.52 8.9
2 -8 -8 70.6 7.63
-2 8 8 72.52 7.87
2 -8 -8 81.44 7.51
-2 8 8 58.86 6.66
-2 8 7 121.77 11.57
-2 8 7 139.44 12.21
-2 8 7 110.9 10.02
2 -8 -7 129.57 11.06
2 -8 -7 132.81 10.56
-2 8 6 14.86 3.99
-2 8 6 11.17 3.78
-2 8 6 9.25 3.87
2 -8 -6 23.7 4.91
2 -8 -6 13.69 3.83
-2 8 5 86.25 9.15
2 -8 -5 84.69 9.18
-2 8 5 67.73 8.81
-2 8 5 74.14 9.32
-2 8 4 13.59 3.79
2 -8 -4 44.78 7.21
-2 8 4 17.15 4.44
-2 8 4 26.47 6.45
-2 8 4 35.92 7.21
2 -8 -3 287.41 15.69
-2 8 3 236.33 16.23
-2 8 3 296.5 17.61
2 -8 -3 287.47 15.64
-2 8 3 282.27 15.85
-2 8 3 283.65 14.82
-2 8 2 449.03 19.51
-2 8 2 294.58 19.55
2 -8 -2 421.49 19.34
-2 8 2 313.22 18.72
-2 8 2 376.59 19.49
-2 8 1 551.92 21.8
2 -8 -1 464.89 27.78
2 -8 -1 531.88 20.74
2 -8 -1 563.75 21.07
-2 8 1 508.68 21.58
-2 8 1 505.51 24.95
-2 8 1 503.82 24.79
-2 8 0 83.57 10.47
2 -8 0 88.01 7.98
2 -8 0 80.81 11.73
-2 8 0 75.82 9.15
-2 8 0 91.28 8.62
2 -8 0 100.78 8.57
2 -8 0 99.12 9.92
-2 8 0 73.11 7.92
-2 8 -1 545.3 28.66
2 -8 1 659 22.44
2 -8 1 630.17 34.1
2 -8 1 673.41 22.83
-2 8 -1 560.91 25.55
2 -8 1 767.94 26.33
-2 8 -1 628.41 25.85
2 -8 1 596.64 21.39
-2 8 -1 636.17 23.71
-2 8 -1 558 21.57
-2 8 -2 699.46 31.68
2 -8 2 774.67 24.86
2 -8 2 689.78 22.73
-2 8 -2 713.85 27.06
2 -8 2 807.49 27.6
-2 8 -2 727.46 25.63
-2 8 -2 705.54 28.29
-2 8 -2 653.79 23.06
2 -8 3 30.36 5.14
-2 8 -3 20.17 5.58
-2 8 -3 26.27 5.45
-2 8 -3 20.23 4.97
2 -8 4 361.76 17.06
-2 8 -4 344.2 19.66
-2 8 -4 291.44 16.44
2 -8 4 349.68 18.39
-2 8 -4 329.4 17.91
2 -8 5 227.04 13.68
-2 8 -5 205.98 13.93
-2 8 -5 218.26 14.87
2 -8 5 215.32 14.65
-2 8 -5 221.03 14.08
-2 8 -6 92.84 9.28
2 -8 6 95.64 8.81
2 -8 6 98.37 10
-2 8 -6 84.07 8.64
-2 8 -6 90.86 8.68
2 -8 7 426.75 19.26
-2 8 -7 454.06 19.2
-2 8 -7 411.59 18.29
2 -8 7 482.52 22.47
2 -8 7 418.29 17.38
-2 8 -7 433.61 20
-2 8 -8 261.87 14.53
-2 8 -8 245.39 12.41
2 -8 8 256.51 15.79
2 -8 8 233.98 11.67
-2 8 -8 255.06 13.48
2 -8 8 217.48 12.93
2 -8 9 7.78 2.14
-2 8 -9 10.09 2.46
-2 8 -9 9.09 2.5
2 -8 9 6.5 2.11
2 -8 9 8.59 1.93
-2 8 -10 13.84 2.41
-2 8 -10 13.42 2.43
2 -8 10 13.65 2.37
2 -8 10 19.02 3.43
-2 8 -11 18.39 2.14
2 -8 11 23.39 3.14
-2 8 -11 18.88 2.17
-2 7 12 15.13 2.43
2 -7 -12 6.36 1.29
2 -7 -12 9.52 1.82
-2 7 12 16.39 2.56
-2 7 11 30.04 4.19
2 -7 -11 24.61 3.2
2 -7 -11 27.84 3.94
-2 7 11 28.58 3.93
2 -7 -10 156.69 9.32
-2 7 10 168.16 11.58
-2 7 10 154.35 9.04
-2 7 10 175.34 11.53
2 -7 -10 178.06 11.27
-2 7 9 261.71 16.09
2 -7 -9 167.23 12.29
-2 7 9 235.94 13.07
2 -7 -9 159.54 10.75
-2 7 9 253.75 15.4
-2 7 8 49.11 7.44
2 -7 -8 36.84 6.14
-2 7 8 42.08 6.88
-2 7 8 49.52 6.52
-2 7 7 100.61 11.46
2 -7 -7 94.59 9.9
-2 7 7 91.33 10.1
-2 7 7 113.88 10.72
-2 7 6 350.53 21.39
2 -7 -6 362.66 19.2
-2 7 6 388.26 20.17
-2 7 6 330.15 19.21
-2 7 5 352.84 28.86
-2 7 5 367.32 21.8
2 -7 -5 302.29 22.72
-2 7 5 392.96 27.91
2 -7 -5 400.71 19.69
-2 7 5 354.21 20.89
-2 7 5 383.32 19.05
-2 7 4 516.81 24.08
2 -7 -4 539.38 29.04
2 -7 -4 561.21 22.66
-2 7 4 603.98 24.34
-2 7 4 489.5 31.12
-2 7 4 519.25 30.81
-2 7 4 488.44 20.84
2 -7 -4 564.46 22.1
-2 7 4 557.34 24.94
2 -7 -3 480.07 19.37
-2 7 3 463.14 22.63
-2 7 3 447 20.35
-2 7 3 439.25 18.67
2 -7 -3 417.63 23.71
-2 7 3 452.39 27.55
2 -7 -3 460.07 19.56
-2 7 3 476.25 21.49
2 -7 -3 432.38 24.42
-2 7 2 237.94 19.21
2 -7 -2 223.34 12.71
2 -7 -2 224.3 16.53
2 -7 -2 213.51 16.74
-2 7 2 227.37 13.92
2 -7 -2 212.44 12.6
-2 7 2 229.22 15.94
-2 7 2 209.25 12.11
-2 7 2 228.15 16.93
2 -7 -1 283.94 13.93
-2 7 1 313.04 18.62
2 -7 -1 306.87 20
-2 7 1 290.22 20.78
-2 7 1 326.67 19.4
-2 7 1 288.16 14.99
2 -7 0 357.49 15.48
-2 7 0 370.01 16.41
-2 7 0 377.7 23.94
-2 7 0 394.22 22.74
-2 7 0 417.31 20.33
-2 7 0 382.23 16.96
2 -7 0 383.98 23.23
-2 7 -1 175.52 11.37
-2 7 -1 179.71 12.82
-2 7 -1 170.93 15.99
2 -7 1 190.54 16.81
-2 7 -1 191.59 16.97
2 -7 1 158.72 11.11
-2 7 -1 170.12 11.24
2 -7 2 418.06 25.66
2 -7 2 426.51 18.65
-2 7 -2 401.93 25.35
-2 7 -2 407.1 19.06
-2 7 -2 425.94 21.47
-2 7 -2 415.12 23.62
-2 7 -2 391.17 17.48
-2 7 -2 380.76 16.89
-2 7 -3 457.15 20.3
2 -7 3 513.57 21.15
-2 7 -3 524.87 24.88
-2 7 -3 480.54 22.18
2 -7 3 509.33 18.76
-2 7 -3 496.91 20.47
2 -7 3 492.82 29.23
-2 7 -3 551.89 30.75
2 -7 4 612.12 24.16
-2 7 -4 677.26 35.42
-2 7 -4 608.93 25.86
-2 7 -4 609.76 24.61
2 -7 4 604.76 32.27
-2 7 -4 617.39 23.7
2 -7 4 614.82 21.57
2 -7 5 360.39 24.46
-2 7 -5 392.68 27.9
2 -7 5 354.5 16.62
2 -7 5 373.3 19.43
-2 7 -5 338.28 18.38
-2 7 -5 350.06 18.11
-2 7 -5 338.77 17.69
2 -7 6 142.83 10.91
2 -7 6 176.57 13.8
-2 7 -6 117.36 10.42
-2 7 -6 123.62 10.61
-2 7 -6 170.57 12.97
2 -7 7 126.71 10.48
-2 7 -7 143.5 11.99
-2 7 -7 146.36 11.1
2 -7 7 153.01 13.04
-2 7 -7 128.69 10.29
-2 7 -8 73.02 7.55
2 -7 8 60.53 6.79
2 -7 8 69.78 8.91
-2 7 -8 69.18 6.1
2 -7 8 63.17 7.26
-2 7 -8 66.76 7.93
2 -7 9 314.32 15.65
-2 7 -9 337.21 16.8
2 -7 9 299.08 14.22
-2 7 -9 322.29 15.45
-2 7 -9 315.42 12.72
2 -7 9 361.18 19.29
2 -7 10 97.87 7.62
2 -7 10 89.21 7.01
2 -7 10 112.83 9.76
-2 7 -10 47.24 4.52
-2 7 -10 58.98 6.39
-2 7 -10 54.77 5.7
-2 7 -11 10.81 2.17
2 -7 11 17.33 2.64
-2 7 -11 12.5 2
-2 7 -11 12.94 2.39
2 -7 12 27.32 2.54
2 -7 12 30.56 3.64
-2 7 -12 29.43 2.64
-2 6 13 20.21 2.45
2 -6 -13 21.43 2.17
-2 6 13 25.29 3.01
2 -6 -13 27.41 3.09
-2 6 12 22.56 3.59
-2 6 12 22.41 3.73
2 -6 -12 18.2 2.71
2 -6 -12 18.39 3.35
-2 6 11 16.4 3.69
-2 6 11 12.45 3.19
2 -6 -11 14.83 3.28
-2 6 11 13.93 3.16
-2 6 10 322.24 17.64
-2 6 10 273.34 15.92
2 -6 -10 356.83 17.71
-2 6 10 309.55 16.95
2 -6 -9 35.21 5.9
-2 6 9 39.81 5.48
-2 6 9 37.84 6.34
-2 6 9 33.06 5.82
-2 6 9 39.15 6.2
-2 6 8 93.82 10.46
-2 6 8 92.93 9.67
2 -6 -8 92.98 9.87
-2 6 8 93.59 9.06
-2 6 8 96.77 10.33
2 -6 -7 13.38 4.03
-2 6 7 15.06 4.32
2 -6 -7 13.47 3.72
-2 6 7 9.64 4.11
2 -6 -7 15.11 4.73
-2 6 7 15.01 4.11
-2 6 7 18.59 4.01
-2 6 7 17.2 6.03
-2 6 7 13.94 5.58
-2 6 7 19.11 4.28
-2 6 6 4.99 2.72
-2 6 6 3.73 2.34
-2 6 6 1.96 0.84
-2 6 6 1.81 2.43
-2 6 6 5.68 2.77
-2 6 6 3.7 2.16
2 -6 -6 1.93 2.54
2 -6 -6 3.65 1.25
2 -6 -6 -1.62 2
-2 6 6 0.53 0.89
-2 6 5 30.6 6.45
2 -6 -5 29.04 6.62
-2 6 5 30.4 8.41
2 -6 -5 40.05 6.23
-2 6 5 34.12 8.08
-2 6 5 34.94 6.35
2 -6 -5 34.11 6.73
-2 6 5 34.02 5.63
-2 6 4 51.38 9.55
2 -6 -4 52.56 8.2
2 -6 -4 42.64 6.74
-2 6 4 50.14 8.48
2 -6 -3 1455.55 42.46
2 -6 -3 1505.16 40.56
2 -6 -3 1511.1 40.21
-2 6 3 1463.22 47.59
-2 6 2 335.43 19.51
2 -6 -2 392.89 19.48
2 -6 -2 354.78 18.67
2 -6 -2 385.76 18.37
-2 6 2 400.68 22.26
2 -6 -1 24.5 4.35
2 -6 -1 22.41 4.31
2 -6 -1 28 5.09
-2 6 1 30.8 5.95
-2 6 1 21.79 4.59
-2 6 0 624.3 27.73
2 -6 0 677.02 26.95
2 -6 1 12.72 3.72
-2 6 -1 11.96 3.93
-2 6 -2 19.28 5.02
2 -6 2 25.74 5.81
-2 6 -3 171.87 15.65
2 -6 3 147.73 14.49
2 -6 4 40.36 7.28
-2 6 -4 44.49 8.44
2 -6 5 345.74 21.72
-2 6 -5 400.52 26.8
2 -6 5 405.67 16.64
2 -6 5 434.77 19.95
-2 6 -5 356.42 17.63
-2 6 -5 417.78 18.94
-2 6 -5 402.41 19.15
-2 6 -6 64.85 7.39
-2 6 -6 62.26 7.59
-2 6 -6 66.11 11.18
2 -6 6 63.92 7.96
-2 6 -6 60.56 7.17
2 -6 6 60.61 9.21
2 -6 6 61.17 6.76
-2 6 -7 1.33 1.24
2 -6 7 -0.02 1.15
-2 6 -7 -0.56 0.77
-2 6 -7 -0.12 0.5
2 -6 7 -1.23 1.29
2 -6 8 2.48 1.37
-2 6 -8 2.78 1.89
2 -6 8 1.24 1
2 -6 8 2.16 1.3
-2 6 -8 4.28 1.73
-2 6 -8 2.35 1.66
2 -6 9 7.43 2.31
-2 6 -9 8.2 2.91
-2 6 -9 11.46 3.02
2 -6 9 9.37 3.08
2 -6 9 10.12 2.66
-2 6 -9 9.17 2.33
-2 6 -10 307.63 14.71
2 -6 10 333.23 18.42
-2 6 -10 298.53 13.07
2 -6 10 299.54 14.56
-2 6 -10 348.4 16.62
2 -6 11 60.86 7.09
2 -6 11 60.97 5.93
-2 6 -11 59.82 5.29
-2 6 -11 64.93 6.33
-2 6 -11 57.49 5.49
-2 6 -12 273.69 10.69
2 -6 12 252.02 10.55
-2 6 -12 249.15 9.77
2 -6 13 15.86 2.48
-2 6 -13 14.21 1.74
2 -6 13 13.23 1.82
2 -5 -14 161.3 7.36
-2 5 14 143.76 6.28
-2 5 13 3.69 1.12
-2 5 13 8.25 1.94
2 -5 -13 6.86 1.57
-2 5 13 8.2 2.05
2 -5 -13 8.55 2.22
-2 5 13 8.13 1.99
-2 5 12 1.31 0.89
2 -5 -12 1.44 0.7
-2 5 12 1 1.05
2 -5 -12 0.69 0.31
-2 5 12 1.8 1.08
-2 5 12 -0.63 0.66
-2 5 12 1.28 1.13
-2 5 11 22.44 4.4
2 -5 -11 22.81 4.23
2 -5 -11 24.53 3.81
-2 5 11 20.72 4.3
-2 5 11 25.43 4.75
-2 5 11 21.28 4.47
-2 5 11 20.22 4
-2 5 10 0.41 0.07
-2 5 10 0.75 0.78
-2 5 10 1.72 0.77
-2 5 10 0.4 0.98
-2 5 10 1.35 0.32
2 -5 -10 2.36 1.38
2 -5 -10 2.32 1.12
-2 5 9 252.07 16.53
-2 5 9 201.32 14.29
-2 5 9 223.73 15.04
-2 5 9 230.28 15.69
-2 5 9 217.87 15.38
-2 5 8 135.76 12.1
-2 5 8 132.12 17.38
-2 5 8 148.51 12.83
2 -5 -8 166.46 15.6
-2 5 8 131.39 11.67
-2 5 8 138.78 17.08
2 -5 -8 128.15 14.91
-2 5 8 123.22 10.93
-2 5 8 137 11.64
-2 5 8 135.27 10.56
-2 5 8 131.61 15.94
-2 5 7 158.56 18.85
2 -5 -7 200.6 16.78
-2 5 7 181.42 18.96
-2 5 7 174.49 14.54
2 -5 -7 197.53 17.99
-2 5 7 183.78 18.57
-2 5 7 185.39 13.13
-2 5 7 187.47 13.04
-2 5 7 174.59 13.85
-2 5 7 160.7 11.92
2 -5 -6 2.82 2.24
2 -5 -6 3.3 2.21
-2 5 6 3.54 2.12
-2 5 6 1.93 1.01
2 -5 -5 323.13 19.86
2 -5 -5 345.49 19.53
-2 5 5 387.4 22.66
2 -5 -4 10.79 3.11
2 -5 -4 14.73 3.11
-2 5 4 14.77 5.4
2 -5 -4 14.82 3.87
-2 5 4 14.85 3.96
-2 5 3 85.46 10.11
2 -5 -3 76.75 8.16
2 -5 -3 66.16 6.78
-2 5 3 80.27 8.97
2 -5 -3 81.39 7.94
2 -5 -2 409.32 17.58
2 -5 -2 401.41 17.09
2 -5 -2 421.62 17.96
-2 5 2 441.23 20.38
-2 5 2 404.78 19.78
-2 5 1 215.44 13.97
-2 5 1 213.8 13.02
2 -5 -1 199.8 11.18
2 -5 -1 244.19 13.45
-2 5 0 226.77 12.34
2 -5 0 217.38 10.74
2 -5 0 236.64 13.92
-2 5 0 221.51 14.3
-2 5 -1 51.59 7.03
2 -5 1 53.69 7.07
2 -5 2 299.69 17.53
-2 5 -2 294.06 17.62
2 -5 3 10.34 3.47
-2 5 -3 10.59 3.05
-2 5 -3 6.85 2.78
2 -5 4 1.77 1.21
-2 5 -4 1.26 1.87
-2 5 -4 -1.03 0.76
-2 5 -4 0.71 1.24
-2 5 -5 167.99 13.2
2 -5 5 149.07 12.92
-2 5 -5 157.82 15.48
-2 5 -5 151.61 14.15
2 -5 6 148.16 13.2
-2 5 -6 150.41 15.44
-2 5 -6 176.88 13.98
-2 5 -6 178.61 17.34
-2 5 -7 8.86 2.73
-2 5 -7 8.98 3.57
2 -5 7 9.48 2.99
2 -5 7 9.38 3.17
-2 5 -7 8.85 4.27
-2 5 -7 8.83 2.34
2 -5 7 6.1 2.12
-2 5 -7 7.23 2.4
-2 5 -7 12.87 3.95
2 -5 8 33.75 5.47
-2 5 -8 34.92 5.25
-2 5 -8 35.76 6.71
2 -5 8 33.75 6.28
-2 5 -8 45.3 9.78
-2 5 -8 35.28 4.8
-2 5 -8 41.1 6.19
2 -5 9 4.38 1.91
-2 5 -9 4.92 1.9
2 -5 9 4.69 2.07
-2 5 -9 5.23 1.88
-2 5 -9 6.07 1.99
2 -5 10 0.94 1.3
-2 5 -10 2.62 1.43
2 -5 10 2.24 0.74
-2 5 -10 1.07 0.45
-2 5 -10 2.22 1.18
-2 5 -11 133.77 9.64
2 -5 11 114.22 8.89
2 -5 11 139.1 11.45
-2 5 -11 118.68 8.32
-2 5 -12 4.08 1.54
2 -5 12 4.39 1.52
-2 5 -12 6.07 1.7
2 -5 12 3.26 1.24
2 -5 13 3.34 1.52
-2 5 -13 2.16 0.7
-2 5 -13 3.68 1.02
2 -5 13 3.04 1.2
2 -5 14 171.49 7.13
2 -4 -15 12.8 1.84
-2 4 14 40.28 4.22
-2 4 14 45.01 4.63
-2 4 14 41.74 3.82
2 -4 -14 51.19 4.79
-2 4 14 46.17 4.66
2 -4 -14 42.75 3.88
2 -4 -13 22.42 3.31
2 -4 -13 24.24 4.04
-2 4 13 21.82 3.84
-2 4 13 18.55 3.61
-2 4 13 21.94 3.76
-2 4 13 23.74 3.66
-2 4 12 28.83 4.83
-2 4 12 34.3 5.39
-2 4 12 26.34 4.37
2 -4 -12 29.37 4.2
-2 4 12 26.82 4.47
-2 4 12 30.03 5.06
-2 4 11 107.94 9.84
-2 4 11 86.85 9.25
-2 4 11 102.43 9.72
2 -4 -11 98.07 8.11
-2 4 11 96.51 9.24
-2 4 10 308.01 18.1
-2 4 10 316.53 17.87
-2 4 10 314.73 17.67
2 -4 -10 304.19 14.74
-2 4 10 321.86 17.74
2 -4 -9 96.93 11.29
-2 4 9 80.46 13.05
-2 4 9 81.21 9.2
-2 4 9 80.35 12.83
2 -4 -9 85.7 7.64
-2 4 9 78.61 8.83
-2 4 9 83.82 8.95
-2 4 9 92.33 9.72
2 -4 -9 98.53 12.6
2 -4 -8 122.21 12.32
-2 4 8 111.06 14.58
-2 4 8 103.33 14.72
-2 4 8 107.38 10.34
-2 4 8 103.32 10.43
2 -4 -8 123.73 14.37
-2 4 8 88.73 9.4
-2 4 8 97.5 9.42
2 -4 -7 92.42 10.51
2 -4 -7 88.76 11.33
-2 4 7 89.1 12.28
2 -4 -6 811.85 30.64
-2 4 6 757.78 34.71
2 -4 -6 792.78 31.06
-2 4 6 834.54 33.8
2 -4 -5 117.52 11.01
2 -4 -5 127.33 10.76
-2 4 5 103.73 10.3
-2 4 5 111.43 11.16
2 -4 -4 273.16 14.65
2 -4 -4 262.64 11.57
-2 4 4 270.49 15.28
-2 4 4 251.22 15.28
2 -4 -4 260.13 15.1
2 -4 -3 43.18 5.32
-2 4 3 49.68 7.23
-2 4 3 44.86 5.74
-2 4 3 45.72 5.79
2 -4 -3 42.94 5.45
2 -4 -3 43.47 4.57
-2 4 2 91.33 6.57
-2 4 2 74.93 7.11
2 -4 -2 87.43 6.71
2 -4 -2 86.66 7.44
-2 4 2 90.41 6.38
-2 4 2 83.22 8.01
2 -4 -2 95.85 7.35
2 -4 -1 595.14 19.01
-2 4 1 563.46 20.2
2 -4 -1 618.09 17.58
-2 4 1 586.5 20.15
-2 4 1 608.02 17.95
2 -4 0 1802.1 37.44
-2 4 0 1706.16 37.66
2 -4 0 1582.68 28.49
-2 4 0 1765.62 26.45
-2 4 0 1656.45 33.01
-2 4 0 1621.04 33.92
-2 4 -1 136.58 8.32
-2 4 -1 139.53 10.11
2 -4 1 133.51 6.15
-2 4 -1 161.23 7.17
2 -4 1 153.81 10.87
-2 4 -1 138.19 9.04
-2 4 -1 154.58 7.65
-2 4 -2 361.11 17.32
-2 4 -2 371.92 12.67
-2 4 -2 373.39 16.39
2 -4 2 388.94 18.24
-2 4 -3 1405.24 38.26
2 -4 3 1309.99 36.88
2 -4 3 1429.86 29.66
-2 4 -3 1363.13 36.34
2 -4 4 429.86 20.28
-2 4 -4 446.1 21.87
-2 4 -4 440.43 22.17
-2 4 -5 56.4 8.54
2 -4 5 58.24 7.49
-2 4 -5 62.68 7.76
-2 4 -5 56.33 8.65
-2 4 -6 59.89 7.96
-2 4 -6 63.26 9.56
2 -4 6 58.9 7.39
-2 4 -6 44.93 8.59
-2 4 -7 8.04 4.18
-2 4 -7 8.85 3.03
-2 4 -7 6.14 3.35
2 -4 7 9.55 2.93
-2 4 -8 641.8 21.17
-2 4 -8 653.38 29.2
-2 4 -8 675.41 37.66
2 -4 8 673.2 27.54
-2 4 -8 650.48 22.44
2 -4 8 650.59 24.42
-2 4 -8 683.68 24.43
-2 4 -9 107.38 9.58
-2 4 -9 97.65 11.44
-2 4 -9 105.46 8.7
2 -4 9 106.91 9.65
-2 4 -9 100.34 14.2
2 -4 9 111.32 11.12
-2 4 -9 95.73 8.04
2 -4 10 200.25 14.79
-2 4 -10 181.4 11.12
-2 4 -10 213.84 13.26
2 -4 10 200.99 13
2 -4 11 48.44 6.88
2 -4 11 50.83 6.13
-2 4 -11 42.92 5.25
-2 4 -11 49.97 5.94
-2 4 -12 198.85 10.74
-2 4 -12 171.26 10
2 -4 12 203.41 13.18
2 -4 12 197.19 11.31
2 -4 12 198.83 11.57
2 -4 13 0.65 0.63
2 -4 13 -0.63 0.88
2 -4 13 1.19 0.53
-2 4 -13 -0.15 0.4
-2 4 -13 0.52 0.4
2 -4 14 1.03 0.07
-2 4 -14 0.8 0.31
-2 3 15 19.72 2.69
2 -3 -15 28.92 2.98
-2 3 15 25.58 3.15
2 -3 -15 24.15 2.94
-2 3 15 20.83 2.83
-2 3 14 2.61 1.48
-2 3 14 1.11 0.82
2 -3 -14 2.2 1
-2 3 14 2.06 1.31
-2 3 14 3.06 1.48
-2 3 13 115.21 9.45
-2 3 13 118.21 8.45
-2 3 13 124.44 9.68
-2 3 13 120.55 9.79
2 -3 -13 118.63 8.24
-2 3 12 737.63 26.97
2 -3 -12 743.03 22.88
-2 3 12 795.19 27.1
-2 3 12 717.29 27.12
-2 3 12 694.64 23.88
-2 3 11 26.98 4.79
-2 3 11 31.11 5.35
-2 3 11 29.4 5.73
2 -3 -11 29.63 4.45
-2 3 11 34.84 5.85
-2 3 10 6.11 2.52
2 -3 -10 5.49 2.99
-2 3 10 4.75 2.33
-2 3 10 5.73 2.11
-2 3 10 7.91 4.56
-2 3 10 4.57 2.57
-2 3 10 6.05 2.41
2 -3 -10 12.07 4.45
-2 3 10 8.83 2.73
-2 3 10 10.22 3.53
2 -3 -10 5.53 1.95
-2 3 9 83.35 12.65
-2 3 9 87.88 8.94
2 -3 -9 99.22 10.85
2 -3 -9 87.86 7.41
-2 3 9 83.08 8.93
2 -3 -9 110.78 13
-2 3 9 114.73 14.88
-2 3 9 83.08 8.76
-2 3 9 85.87 10.07
-2 3 9 82.17 8.62
-2 3 9 80.07 8.97
2 -3 -8 54.53 7.76
2 -3 -8 44.42 9.11
-2 3 8 36.7 8.43
-2 3 8 50.52 9.84
-2 3 7 528.81 29.18
2 -3 -7 480.7 25.42
2 -3 -6 15.66 4.19
2 -3 -6 12.6 4.97
-2 3 6 26.34 10.09
-2 3 5 1100.96 34.94
-2 3 5 1096.14 37.07
2 -3 -5 1194.85 33.43
2 -3 -5 1137.38 31.69
2 -3 -4 17.85 4.64
2 -3 -4 6.69 3.32
-2 3 4 15.87 5.43
-2 3 4 20.36 4.7
2 -3 -4 4.03 1.01
-2 3 3 31.35 7.18
2 -3 -3 22.51 4.54
-2 3 3 5.42 5
2 -3 -3 4.27 1.31
2 -3 -3 3.97 1.87
-2 3 3 9.59 3.73
2 -3 -2 1059.44 22.11
2 -3 -2 1059.9 24.6
-2 3 2 1023.31 24.27
-2 3 2 1015.94 26.9
-2 3 2 1081.12 24.56
-2 3 1 87.96 4.1
2 -3 -1 99.46 5.99
-2 3 1 89.58 6.52
-2 3 1 83.92 6.44
2 -3 -1 103 6.84
-2 3 1 81.98 6.6
-2 3 0 874.56 22.53
2 -3 0 931.7 16.79
-2 3 0 862.44 21.65
-2 3 0 870.59 22.21
-2 3 0 872.89 12.62
-2 3 -1 65.8 4.52
-2 3 -1 63.58 5.28
2 -3 1 62.83 2.94
2 -3 1 61.35 3.41
-2 3 -1 63.2 6.27
-2 3 -1 59.66 5.82
2 -3 2 1051 29.32
-2 3 -2 1021.06 25.76
-2 3 -2 1096.07 28.49
2 -3 2 1045.52 19.57
2 -3 2 1030.3 22.14
-2 3 -2 1117.23 28.57
2 -3 3 800.32 25.94
2 -3 3 904.55 20.78
-2 3 -3 933.77 27.77
2 -3 3 802.89 22.07
-2 3 -3 907.15 28.17
-2 3 -3 757.8 27.13
2 -3 4 5.91 3.18
-2 3 -4 10.47 4.15
-2 3 -4 36.42 7.17
2 -3 4 24.28 5.65
-2 3 -4 29.55 8.67
2 -3 4 10.19 3.67
-2 3 -5 754.5 32.26
2 -3 5 787.11 26.59
-2 3 -5 873.36 29.19
2 -3 5 645.26 24.21
2 -3 5 746.85 25.37
-2 3 -5 743.73 29.5
-2 3 -6 471.99 22.29
-2 3 -6 457.45 24.98
2 -3 6 452.26 19.64
2 -3 6 468.52 23.06
-2 3 -6 402.62 27.15
2 -3 6 441.82 21.5
2 -3 7 781.74 26.15
2 -3 7 635.22 28.07
-2 3 -7 723.5 33.48
-2 3 -7 716.85 29.12
-2 3 -7 703.7 37.8
2 -3 8 44.44 7.66
2 -3 8 50.81 7.15
-2 3 -8 57.36 8.42
-2 3 -8 59.27 10.95
-2 3 -8 51.46 5.71
2 -3 8 48.3 6.35
-2 3 -8 44.05 5.69
-2 3 -9 78.52 10.25
2 -3 9 84.49 8.36
2 -3 9 76.29 10.77
-2 3 -9 78.38 12.37
2 -3 9 94.26 10.03
-2 3 -9 87.65 7.66
-2 3 -9 85.21 8.16
2 -3 10 65.41 7.42
2 -3 10 71.99 8.85
-2 3 -10 67.25 6.81
-2 3 -10 68.36 7.34
2 -3 11 25.21 6.24
2 -3 11 31.85 5.62
-2 3 -11 6.46 2.79
-2 3 -11 8.41 3.58
-2 3 -12 32.92 4.45
2 -3 12 37.09 5.28
2 -3 12 31.32 5.3
-2 3 -12 27.95 4.05
2 -3 13 172.33 10.9
-2 3 -13 177.64 9.55
2 -3 13 159.36 9.7
-2 3 -13 161.79 8.44
2 -3 13 151.53 9.73
2 -3 14 1.86 1.08
2 -3 14 2.73 1.03
-2 3 -14 1.53 0.57
2 -3 14 1.79 1.02
2 -2 -16 56.5 3.68
2 -2 -15 23.94 3.13
-2 2 15 24 3.41
-2 2 15 26.85 3.52
-2 2 15 26.02 3.46
-2 2 15 23.65 3.33
-2 2 14 16.91 3.36
-2 2 14 20.94 3.72
2 -2 -14 15.31 2.64
-2 2 14 17.16 3.57
-2 2 13 340.11 17.03
-2 2 13 330.62 16.4
-2 2 13 313.13 17.86
-2 2 12 124.09 10.42
-2 2 12 130.81 11.06
2 -2 -12 121.18 9.01
-2 2 12 116.44 10.22
-2 2 12 128.03 11.81
-2 2 11 273.16 14.88
-2 2 11 262.78 17.71
-2 2 11 238.63 15.03
-2 2 11 256.96 15.92
-2 2 11 261.09 15.8
2 -2 -11 245.57 12.95
-2 2 10 418.56 27.79
2 -2 -10 378.85 21.41
-2 2 10 425.65 18.89
-2 2 10 441.29 22.66
2 -2 -10 465.99 26.11
-2 2 10 387.89 19.25
-2 2 10 450.76 20.55
-2 2 10 420.75 29.95
-2 2 10 417.12 20.53
-2 2 9 177.54 18.71
-2 2 9 145.69 16.3
2 -2 -9 139.64 13.99
2 -2 -9 145.62 12.65
-2 2 8 5.16 3.36
2 -2 -8 5.31 1.9
2 -2 -8 5.27 2.57
2 -2 -8 4.63 2.7
-2 2 8 4.87 2.35
2 -2 -7 495.05 18.58
2 -2 -7 529.98 22.59
2 -2 -7 491.84 24.14
-2 2 7 520 28.01
2 -2 -6 239.79 11.51
2 -2 -6 250.38 14.8
2 -2 -6 274.41 16.25
2 -2 -5 342.83 12.58
2 -2 -5 363.79 17.42
-2 2 5 391.63 23.35
2 -2 -4 194.69 11.97
2 -2 -4 223.58 6.47
-2 2 4 287.16 16.05
2 -2 -4 255.93 12.02
-2 2 4 227.78 14.63
2 -2 -4 182.32 7.71
2 -2 -3 314.57 14.63
-2 2 3 420.29 14.87
-2 2 3 357.39 16.02
2 -2 -3 295.1 8.18
2 -2 -3 402.85 10.37
-2 2 3 518.01 19.21
-2 2 3 359.25 11.78
2 -2 -3 435.58 14.67
-2 2 2 1788.01 33.62
-2 2 2 1765.93 32.2
-2 2 2 1604.07 32.6
2 -2 -2 1748.31 27.84
-2 2 2 1575.3 27.21
2 -2 -2 1432.03 32.35
2 -2 -1 1196.51 24.16
-2 2 1 1102.3 24.27
2 -2 -1 1105.62 23.3
-2 2 1 1138.78 18.46
-2 2 1 1099.79 21.62
-2 2 1 1134.26 24.71
-2 2 0 671.89 17.06
2 -2 0 760.14 14.55
2 -2 0 623.55 11.86
2 -2 0 769.61 20.57
-2 2 0 697.49 18.1
-2 2 0 718.36 19.27
-2 2 -1 2546.56 36.46
-2 2 -1 2457.75 37.93
-2 2 -1 2520.14 40.81
2 -2 1 2540.93 43.52
2 -2 2 683.86 17.07
2 -2 2 613.04 21.3
-2 2 -2 649.57 19.95
-2 2 -2 738.5 18.22
-2 2 -2 648.35 18.4
-2 2 -2 685.61 21.38
2 -2 2 661.14 13.66
-2 2 -3 352.42 16.84
-2 2 -3 290.99 14.42
2 -2 3 317.43 15.29
2 -2 3 303.37 13.63
-2 2 -3 317.95 15.17
2 -2 3 321.6 12.07
2 -2 4 843.77 26.22
-2 2 -4 776.83 27.76
-2 2 -4 784.72 26.94
-2 2 -4 802.14 27.91
-2 2 -4 860.57 30.57
2 -2 4 841.96 24.79
2 -2 4 753.07 24.44
-2 2 -5 367.75 19.03
2 -2 5 371.25 17.08
2 -2 5 346.91 17.64
2 -2 5 363.26 18.48
-2 2 -5 342.3 22.5
-2 2 -5 313.43 19.15
-2 2 -5 357.97 19.54
2 -2 6 319.5 15.74
-2 2 -6 136.17 12.29
2 -2 6 349.81 18.85
-2 2 -6 192.67 17.08
-2 2 -6 205.9 21.61
2 -2 6 301.44 18.77
-2 2 -7 4.77 2.37
2 -2 7 2.06 0.96
2 -2 7 6.46 2.59
-2 2 -7 1.97 1.99
-2 2 -7 3.5 2.83
2 -2 8 185.76 15.73
-2 2 -8 155.23 16.28
-2 2 -8 147.86 13.61
-2 2 -8 166.03 17.72
2 -2 8 170.56 16.46
-2 2 -9 224.82 20.13
2 -2 9 339.47 16.55
2 -2 9 307.41 21.57
2 -2 9 342.55 18.72
-2 2 -9 228.26 20.85
-2 2 -9 236.14 12.87
-2 2 -9 225.56 13.04
2 -2 10 166.86 11.6
-2 2 -10 90.45 8.13
2 -2 10 167.62 13.25
-2 2 -10 94.68 7.6
-2 2 -10 87.4 7.9
2 -2 10 141.78 9.25
2 -2 11 80.3 7.95
-2 2 -11 48.67 5.88
2 -2 11 89.39 9.25
2 -2 11 60.15 5.68
-2 2 -11 39.05 5.14
-2 2 -11 39.75 4.72
2 -2 12 266.21 14.12
-2 2 -12 213.89 11.48
2 -2 12 274.53 15.56
-2 2 -12 224.96 12.16
-2 2 -12 206.25 10.33
2 -2 13 15.43 3.4
-2 2 -13 12.2 2.33
-2 2 -13 10.37 2.17
2 -2 13 15.5 3.41
2 -2 13 14.56 2.86
2 -2 14 17.08 2.89
2 -2 14 15.94 2.89
-2 2 -14 18.74 2.8
2 -2 14 25.39 3.33
-2 1 16 4.17 1.1
-2 1 16 5.17 1.28
2 -1 -16 6.72 1.37
-2 1 16 4.86 1.21
-2 1 16 5.06 1.09
-2 1 15 1.06 0.94
2 -1 -15 0.42 0.36
-2 1 15 1.54 1.09
-2 1 15 1.02 0.66
-2 1 15 2.77 1.48
2 -1 -14 10.56 2.39
-2 1 14 11.32 2.59
-2 1 14 12.88 3.57
-2 1 14 10.62 2.75
-2 1 14 10.3 2.69
-2 1 13 27.56 4.67
-2 1 13 27.14 4.84
-2 1 13 24.65 5.29
2 -1 -13 27.85 4.27
-2 1 13 37.81 5.5
-2 1 12 -0.64 1.74
-2 1 12 0.85 1.26
2 -1 -12 0.51 0.52
-2 1 12 1.72 1.13
-2 1 12 3.85 2.11
-2 1 11 163.84 12.36
-2 1 11 140.92 17.64
2 -1 -11 155.82 13.52
-2 1 11 140.36 11.47
-2 1 11 136.67 11.17
2 -1 -11 145.76 14.4
-2 1 11 164.31 13.95
-2 1 11 133.72 10.51
2 -1 -10 187.18 15.7
2 -1 -10 201.13 14.67
-2 1 10 167.04 11.8
-2 1 10 185.44 12.94
-2 1 10 169.31 12.15
-2 1 10 214.16 13.89
-2 1 10 157.3 14.26
2 -1 -10 205.17 15.27
-2 1 10 182.88 19.42
-2 1 9 48.01 8.34
2 -1 -9 39.89 6.18
2 -1 -9 47.91 7.06
2 -1 -9 51.12 7.8
-2 1 9 43.92 8.83
2 -1 -8 3980.27 71.36
2 -1 -8 3922.63 73.84
-2 1 7 12.27 4.54
-2 1 7 10.7 3.78
2 -1 -7 8.93 2.78
2 -1 -7 8.95 2.83
2 -1 -7 10.32 2.77
-2 1 6 1558.89 46.38
2 -1 -6 1807.22 36.38
2 -1 -6 1901.37 43.74
-2 1 6 1675.93 48.16
2 -1 -6 1719.05 40.84
2 -1 -5 657.5 19.49
-2 1 5 682.57 27.13
2 -1 -5 700.49 24.47
2 -1 -5 696.91 21.58
2 -1 -4 1322.97 25.81
2 -1 -4 1453.55 28.71
-2 1 4 1462.18 35.72
2 -1 -4 1449.79 35.24
2 -1 -4 1365.41 16.98
-2 1 4 1588.48 35.37
-2 1 3 677.83 18.83
2 -1 -3 609.58 15.9
2 -1 -3 600.11 13.46
2 -1 -3 570.98 12.5
-2 1 3 639.1 18.95
-2 1 3 578.79 11.31
-2 1 3 643.39 18.58
-2 1 2 1331.37 19.53
2 -1 -2 1366.48 20.91
-2 1 2 1340.25 22.93
-2 1 2 1394.15 34.4
-2 1 1 855.22 20.19
-2 1 1 811.02 12.89
2 -1 -1 862.27 12.89
2 -1 0 639.53 10.93
-2 1 0 624.56 15.27
-2 1 0 637.71 17.42
2 -1 1 2.67 0.77
-2 1 -1 1.6 0.98
-2 1 -1 4.77 2.2
2 -1 1 1.91 0.88
-2 1 -1 1.63 1.08
-2 1 -1 1.48 0.8
-2 1 -2 2090.8 40.01
2 -1 2 1919.09 34.14
2 -1 2 2011.95 37.69
2 -1 2 2133 32.77
-2 1 -2 2234.8 41.18
-2 1 -3 271.97 14.37
2 -1 3 244.6 12.37
-2 1 -3 250.36 13.27
2 -1 3 248.25 13.65
-2 1 -3 278.62 14.88
2 -1 3 277.02 11.56
2 -1 4 10.36 3.3
-2 1 -4 8.41 1.46
2 -1 4 10.79 2.97
-2 1 -4 11.25 4.24
-2 1 -4 10.43 3.26
2 -1 4 11.88 3.1
-2 1 -4 14.15 4.31
-2 1 -5 45.82 10.04
2 -1 5 52.93 7.25
-2 1 -5 48.12 8.16
2 -1 5 51.54 7.39
2 -1 5 37.28 5.44
-2 1 -5 44.95 7.02
2 -1 5 46.32 7.65
2 -1 6 34.08 4.94
-2 1 -6 33.56 9.18
-2 1 -6 29.59 6.22
2 -1 6 40.02 6.77
2 -1 6 36.1 6.2
2 -1 7 936.64 37.23
2 -1 7 835.06 32.79
-2 1 -7 920.66 37.42
-2 1 -8 13.33 4.73
2 -1 8 11.75 3.92
2 -1 8 12.84 4.54
-2 1 -8 14.43 5.53
2 -1 9 0.33 0.93
2 -1 9 3.5 1.99
-2 1 -9 2.52 2.25
2 -1 9 1.86 1.52
-2 1 -9 2.54 1.39
-2 1 -9 3.41 1.75
-2 1 -9 1.63 1.38
2 -1 9 0.8 1.06
2 -1 10 440.05 16.86
-2 1 -10 428.13 17.83
-2 1 -10 425.67 18.12
-2 1 -10 428.06 17.21
2 -1 10 454.07 19.34
2 -1 10 440.17 21.49
-2 1 -11 57.87 6.18
2 -1 11 62.48 7.84
-2 1 -11 58.8 6.06
-2 1 -11 66.56 6.92
2 -1 11 63.67 7.04
2 -1 11 65.21 6.14
-2 1 -12 105.6 7.73
2 -1 12 117.74 9.19
2 -1 12 120.14 10.15
-2 1 -12 112.2 8.66
2 -1 12 105.66 7.44
-2 1 -12 108.83 8.05
2 -1 13 1.2 0.71
2 -1 13 0.83 0.45
-2 1 -13 1.76 0.87
2 -1 13 2.88 1.6
-2 1 -13 2.11 1.03
-2 1 -13 2.27 0.98
-2 1 -14 49.88 3.77
2 -1 14 59.5 5.45
2 -1 14 58.72 5.11
2 -1 14 59.68 5.51
-2 1 -14 62.91 5.08
-2 0 16 20.78 2.31
2 0 -16 28.04 2.8
-2 0 16 20.37 2.41
-2 0 16 22.16 2.53
-2 0 16 26.83 3.04
-2 0 15 138.86 8.48
-2 0 15 144.46 9.52
2 0 -15 156.91 8.37
-2 0 15 131.83 7.99
-2 0 14 6.41 1.95
-2 0 14 6.13 2.1
2 0 -14 6.76 2.04
-2 0 14 6.61 2.14
-2 0 14 7.57 2.8
-2 0 13 0.59 0.79
2 0 -13 0.27 0.74
-2 0 13 1.99 1.53
-2 0 13 0.45 0.79
2 0 -13 1.22 0.83
-2 0 13 1.39 1.13
-2 0 12 2.35 1.53
-2 0 12 1.29 1.12
-2 0 12 3.41 1.87
-2 0 12 1.53 0.75
-2 0 12 1.04 1.1
2 0 -12 1.53 0.88
2 0 -11 68.97 9.4
-2 0 11 59.81 7.12
2 0 -11 60.85 8.95
-2 0 11 61.05 7.28
-2 0 11 61.53 7.32
-2 0 11 76.32 9.8
2 0 -11 67.7 6.38
-2 0 11 79.35 8.6
-2 0 11 60.17 11.5
2 0 -10 417.05 22.07
2 0 -10 395.94 21.71
-2 0 10 383.35 18.27
-2 0 10 425.69 29.95
2 0 -10 419.9 22.76
-2 0 10 376.49 18.19
-2 0 10 487.59 21.2
-2 0 10 448.45 23.38
-2 0 10 352.08 17.7
2 0 -9 178.31 13.53
2 0 -9 181.64 14.1
2 0 -9 185.68 14.17
-2 0 9 167.3 17.72
2 0 -8 444.45 21.96
-2 0 8 365.03 20.76
2 0 -8 389.91 19.27
-2 0 8 398.47 25.99
2 0 -8 454.08 20.72
2 0 -7 828.86 27.33
2 0 -7 949.97 28.82
-2 0 7 806.96 34.89
2 0 -7 875.98 30.57
-2 0 7 738.16 28.86
-2 0 6 1317.18 36.44
-2 0 6 1367.8 42.67
2 0 -6 1263.61 32.44
2 0 -6 1340.3 37.75
2 0 -5 1575.06 33
2 0 -5 1507.03 32.93
-2 0 5 1631.73 40.81
-2 0 4 105.46 7.59
-2 0 4 98.79 8.23
2 0 -4 98.8 6.37
2 0 -4 101.47 6.61
-2 0 4 95.43 7.9
-2 0 3 47.24 5.69
2 0 -3 57.83 4.57
-2 0 3 54.21 4.9
2 0 -3 54.89 3.91
-2 0 3 67.86 5.63
-2 0 3 48.98 4.69
-2 0 2 3063.04 47.33
-2 0 2 3184.82 57.81
-2 0 1 298.51 11.03
-2 0 1 324.94 10
2 0 0 1994.58 30.03
-2 0 0 2060.54 34.4
2 0 1 185.67 8.07
2 0 1 200.44 8.24
-2 0 -1 200.21 9.66
-2 0 -2 354.72 15.39
2 0 2 319.39 11.29
-2 0 -2 306.76 12.52
2 0 2 337.61 12.8
-2 0 -2 321.84 10.64
-2 0 -2 335.07 13.98
-2 0 -3 2258.21 42.59
2 0 3 2189 38.11
-2 0 -3 2272.92 36.45
-2 0 -3 2227.16 45.05
2 0 3 2196.08 43.83
2 0 4 0.76 0.58
2 0 4 1.54 1.28
-2 0 -4 1.27 0.78
-2 0 -4 1.96 1.32
-2 0 -4 1.23 1.61
-2 0 -4 0.3 0.64
-2 0 -5 100.32 9.19
2 0 5 133.69 12.14
-2 0 -5 98.77 12.66
2 0 5 121.09 10.16
-2 0 -5 105.62 11.52
2 0 5 113.72 11.6
-2 0 -6 2.42 1.8
2 0 6 5.78 2.81
2 0 6 4.34 2.61
-2 0 -6 4.15 2.29
2 0 6 5.14 2.4
2 0 7 304.64 22.66
2 0 7 262.46 18.44
2 0 7 291.72 21.07
-2 0 -7 315.13 20.78
-2 0 -7 336.8 24.92
2 0 8 469.37 26.15
2 0 8 491.95 29.29
-2 0 -8 515.76 30.73
-2 0 -8 491.92 27.03
2 0 9 111.61 8.54
2 0 9 113.18 13.2
-2 0 -9 123.37 14.02
2 0 9 107.66 10.29
2 0 9 113.16 14.42
-2 0 -9 126.98 9.73
2 0 9 110.52 9.16
-2 0 -9 115.6 14.34
-2 0 -9 126.49 9.6
-2 0 -9 104.9 8.66
2 0 10 43.66 5.89
2 0 10 47.23 6.9
-2 0 -10 45.71 5.67
-2 0 -10 49.49 6.08
-2 0 -10 44.6 5.6
2 0 10 42.51 5.22
2 0 11 101.06 8.78
2 0 11 95.89 9.6
-2 0 -11 85.43 7.54
2 0 11 95.04 7.72
-2 0 -11 101.95 8.59
-2 0 -11 105.12 8.39
2 0 12 47.1 5.74
2 0 12 52.67 5.4
2 0 12 52.75 6.58
-2 0 -12 48.71 5.6
-2 0 -12 48.19 5.31
-2 0 -12 47.01 5.13
-2 0 -13 525.41 15.7
2 0 13 525.44 19.37
2 0 13 489.91 15.27
-2 0 -13 453.27 15.27
2 0 13 509.85 17.66
-2 0 -13 500.02 16.91
-2 0 -14 3.27 0.95
2 0 14 1.54 0.57
-2 0 -14 3.79 1.09
2 0 14 2.8 1.13
2 0 14 2.97 0.87
-2 -1 16 4.75 1.28
-2 -1 16 4.89 1.12
2 1 -16 4.51 1.09
2 1 -15 2.99 1.04
-2 -1 15 2.26 0.73
-2 -1 15 3.04 1.28
-2 -1 15 2.84 1.09
-2 -1 15 2.94 1.38
2 1 -15 0.92 0.26
-2 -1 14 35.15 4.47
-2 -1 14 41.05 5.27
2 1 -14 40.87 4.36
2 1 -14 50.04 5.26
-2 -1 14 35.57 4.66
-2 -1 14 42.11 6.3
-2 -1 13 -0.51 0.73
-2 -1 13 -0.54 1.09
-2 -1 13 -1.25 1.72
2 1 -13 0.76 0.69
-2 -1 13 -0.14 1.15
-2 -1 13 -0.12 0.45
-2 -1 12 77.59 8.51
-2 -1 12 64.6 7.32
-2 -1 12 60.51 7.02
-2 -1 12 61.01 7.09
-2 -1 12 77.77 9.84
2 1 -12 72.8 6.83
-2 -1 11 590.17 37.34
-2 -1 11 613.89 24.71
-2 -1 11 563.76 22.75
-2 -1 11 637.85 28.37
-2 -1 11 538.77 21.86
-2 -1 11 533.22 22.47
2 1 -11 564.95 20.01
-2 -1 10 3.62 2.71
2 1 -10 7.36 2.87
2 1 -10 1.58 1.65
-2 -1 10 4.04 1.92
-2 -1 10 4.37 1.85
-2 -1 10 2.9 2.12
-2 -1 10 3.8 1.49
2 1 -10 2.87 1.31
-2 -1 10 3.94 1.75
2 1 -10 3.7 1.75
2 1 -9 720.09 30.08
2 1 -9 761.89 30.92
2 1 -9 740.83 28.16
-2 -1 9 703.73 37.72
2 1 -8 1027.32 35.21
2 1 -8 977.47 35.29
2 1 -8 1102.44 32.22
-2 -1 8 988.65 42.56
-2 -1 7 12.51 4.17
2 1 -7 13.66 3.18
2 1 -7 11.88 3.7
2 1 -7 11.42 3.36
-2 -1 6 51.26 5.64
2 1 -6 50.45 6.31
-2 -1 6 45.57 5.63
2 1 -6 58.37 5.87
-2 -1 6 49.58 7.55
-2 -1 5 20.77 3.14
2 1 -5 21.06 3.68
2 1 -5 24.15 3.39
-2 -1 5 15.44 3.38
-2 -1 5 21.27 4.22
2 1 -4 1975.54 37.96
-2 -1 4 1851.99 42.99
-2 -1 4 1912.98 40.6
-2 -1 4 1934.26 34.61
2 1 -3 1.1 1.03
-2 -1 3 0.95 0.81
-2 -1 3 1.35 0.95
2 1 -3 1.04 0.21
-2 -1 3 0.77 1.43
-2 -1 2 191.82 8.64
2 1 -2 166.06 4.81
2 1 -2 176.07 5
-2 -1 2 179.03 9.32
-2 -1 2 161.48 8.32
-2 -1 2 171.19 12.79
2 1 -1 343.2 12.92
-2 -1 1 332.49 12.73
-2 -1 1 319.23 11.05
-2 -1 0 1244.62 24.55
2 1 0 1303.03 26.65
-2 -1 0 1294.17 36.8
-2 -1 -1 3515.44 51.83
-2 -1 -1 3793.56 53.85
2 1 1 3728.01 51.99
-2 -1 -1 3939.66 67.42
2 1 1 3561.38 53.04
-2 -1 -1 3554.18 48.37
-2 -1 -2 144.5 8.67
-2 -1 -2 148.2 10.91
-2 -1 -2 125.9 7.98
2 1 2 136.86 8.68
-2 -1 -2 131.1 8.52
2 1 2 129.45 7.72
-2 -1 -3 8.19 2.21
-2 -1 -3 10.44 2.67
2 1 3 8.17 2.37
-2 -1 -3 9.7 2.72
2 1 3 7.59 2.11
-2 -1 -3 7.87 2.44
2 1 4 24.59 4.64
-2 -1 -4 24.44 4.41
-2 -1 -4 24.73 4.15
-2 -1 -4 18.08 4.13
2 1 4 26.13 4.11
-2 -1 -4 22.39 4.84
-2 -1 -5 690.39 29.28
2 1 5 964.28 29.98
-2 -1 -5 897.82 34.49
-2 -1 -5 718.25 32.07
2 1 5 812.9 32.45
-2 -1 -6 1819.73 50.66
2 1 6 1592.83 50.33
2 1 6 1468.42 44.27
-2 -1 -6 1739.11 48.59
2 1 6 1529.58 50.97
-2 -1 -7 1446.57 45.43
-2 -1 -7 1479.9 52.29
2 1 7 1362.14 49.48
2 1 7 1339.73 50.09
-2 -1 -8 69.51 6.99
2 1 8 70.92 7.2
2 1 8 90.49 13.57
2 1 8 66.54 10.03
-2 -1 -8 72.14 10.26
2 1 8 60.75 7.61
2 1 8 71.59 11.76
2 1 8 47.71 5.86
-2 -1 -8 76.53 11.37
-2 -1 -8 69.24 7.27
-2 -1 -8 75.27 7.76
2 1 8 70.63 6.82
2 1 9 83.38 11.55
-2 -1 -9 88.29 8.07
-2 -1 -9 81.5 11.56
2 1 9 95.08 9.75
2 1 9 57.83 6.39
-2 -1 -9 83.23 12.04
2 1 9 85.93 13.14
-2 -1 -9 88.39 8.35
-2 -1 -9 94 8.84
2 1 9 88.07 8.34
2 1 9 86.83 7.65
2 1 10 42.29 5.75
2 1 10 42.81 6.65
-2 -1 -10 49.89 6.15
2 1 10 30.34 4.63
-2 -1 -10 52.79 6.42
-2 -1 -10 40.8 5.34
2 1 10 37.36 5.09
2 1 11 3.07 1.38
2 1 11 2.57 1.02
-2 -1 -11 5.02 2
2 1 11 0.58 0.28
-2 -1 -11 4.69 1.9
-2 -1 -11 3.71 1.51
2 1 11 4.19 1.77
2 1 12 4.84 2.07
2 1 12 4.58 1.54
-2 -1 -12 5.16 1.51
-2 -1 -12 3.6 1.6
-2 -1 -12 4.6 1.82
-2 -1 -12 5.04 1.63
2 1 12 5.35 1.68
2 1 13 1.75 0.86
-2 -1 -13 -0.16 0.28
2 1 13 0.1 0.82
-2 -1 -13 1.54 0.66
2 1 13 0.25 0.41
-2 -1 -13 0.86 0.22
-2 -1 -14 107.56 5.74
-2 -1 -14 102.78 5.64
2 1 14 85.52 5.11
2 1 14 92.93 5.01
2 2 -15 21.01 2.72
-2 -2 15 14.51 2.23
-2 -2 15 14.99 2.26
-2 -2 15 20.12 2.94
-2 -2 15 14.94 2.81
2 2 -15 18.05 2.4
-2 -2 14 102.83 7.32
2 2 -14 120.16 7.87
-2 -2 14 102.54 7.51
-2 -2 14 125.49 8.97
-2 -2 14 113.16 9.41
2 2 -14 108.42 7.31
-2 -2 14 100.96 7.25
-2 -2 13 122.87 9.11
-2 -2 13 123.9 9.44
-2 -2 13 151.37 12.51
2 2 -13 129.31 8.94
-2 -2 13 113.27 9.14
-2 -2 13 143.54 10.84
-2 -2 12 302.44 16.31
-2 -2 12 329.78 16.06
-2 -2 12 304.06 16.03
-2 -2 12 333.03 17.79
-2 -2 12 343.75 20.02
2 2 -12 358.75 16.06
2 2 -11 272.66 14.49
-2 -2 11 261.7 15.29
-2 -2 11 255.12 15.65
-2 -2 11 268.59 14.74
-2 -2 11 290.28 16.98
-2 -2 11 256.49 17.97
-2 -2 10 11.55 5.13
-2 -2 10 12.22 3.38
2 2 -10 8.91 3.49
-2 -2 10 8.88 2.69
-2 -2 10 11.29 3.26
-2 -2 10 9.91 3.22
2 2 -10 14.13 3.28
-2 -2 9 18.37 4.2
2 2 -9 21.48 6
2 2 -9 22.7 5.59
-2 -2 9 18.54 4.3
-2 -2 9 26.76 8.27
2 2 -8 6.09 2.88
-2 -2 8 31.89 10.99
2 2 -8 19.56 6.64
-2 -2 7 879.88 37.51
2 2 -7 835.33 31.66
-2 -2 6 105.06 11.45
2 2 -6 110.48 10.23
-2 -2 6 102.66 9.87
2 2 -5 626.9 22.83
-2 -2 5 558.13 23.77
-2 -2 5 579.33 25.47
-2 -2 4 7.58 4.11
2 2 -4 10.52 3.63
-2 -2 4 11.44 4.09
-2 -2 4 13.76 5.37
2 2 -3 39.93 3.14
-2 -2 3 36.81 6.26
2 2 -3 39.99 5.06
-2 -2 3 45.33 7.73
-2 -2 3 40.03 5.31
-2 -2 2 2.46 2.71
2 2 -2 0.02 0.37
-2 -2 2 1.39 0.96
-2 -2 1 129.58 6.38
2 2 -1 129.95 9.45
-2 -2 1 135.4 10.47
-2 -2 0 294.65 13.58
2 2 0 314.82 12.9
-2 -2 0 300.7 10.14
2 2 0 311.66 14.12
-2 -2 -1 67.99 6.68
-2 -2 -1 68.27 8.8
2 2 1 56.9 5.25
2 2 1 61.9 6.16
-2 -2 -1 62 4.86
-2 -2 -1 63.82 4.44
-2 -2 -2 1987.14 47.88
-2 -2 -2 1917.8 40.79
2 2 2 1717.9 34.33
-2 -2 -2 1697.85 34.75
2 2 2 1850.29 39.44
-2 -2 -2 1838.77 34.72
-2 -2 -3 47.79 6.99
2 2 3 52.41 6.01
-2 -2 -3 36.96 6.09
-2 -2 -3 64.5 7.96
2 2 3 46.54 6.13
-2 -2 -3 45.5 5.65
-2 -2 -4 49.71 7.57
2 2 4 61.03 6.65
-2 -2 -4 43.02 8.27
2 2 4 57.52 7.63
-2 -2 -4 54.77 6.97
-2 -2 -4 55.43 7.16
-2 -2 -5 111.38 12.81
-2 -2 -5 123.29 13.1
2 2 5 148.59 11.83
-2 -2 -5 98.44 10.97
2 2 5 122.13 13.43
-2 -2 -6 1100.67 41.58
2 2 6 1051 37.74
-2 -2 -6 1221.28 41.01
-2 -2 -6 967.61 39.71
2 2 6 1178.06 45.09
-2 -2 -7 532.66 26.45
-2 -2 -7 470.45 25.68
2 2 7 443.46 29.48
-2 -2 -7 478.99 28.17
2 2 7 451.43 29.91
2 2 7 404.54 24.83
2 2 8 0.77 1.32
2 2 8 0.8 1.51
2 2 8 1.42 1.11
-2 -2 -8 0.21 1.82
2 2 8 -1.43 1.56
2 2 8 2.1 0.63
2 2 8 1.2 0.53
-2 -2 -8 -0.95 0.91
-2 -2 -8 1.78 1.15
-2 -2 -8 1.67 1.32
2 2 9 300.87 13.53
-2 -2 -9 324.11 16
2 2 9 314.57 26.68
2 2 9 300.48 15.86
-2 -2 -9 265.1 20.46
2 2 9 311.09 18.22
-2 -2 -9 295.85 16.29
-2 -2 -9 306.66 16.28
2 2 9 310.42 15.24
2 2 10 90.05 8.18
2 2 10 94.38 10.02
-2 -2 -10 87.27 7.95
-2 -2 -10 89.33 8.45
2 2 10 63.59 7.09
-2 -2 -10 99.01 9.06
2 2 10 89.18 8.44
2 2 11 141.59 9.7
-2 -2 -11 140.56 9.41
-2 -2 -11 141.92 10.08
-2 -2 -11 129.84 8.94
2 2 11 123.34 9.38
-2 -2 -11 141.96 10.01
2 2 12 5.79 2.03
-2 -2 -12 2.5 1.27
-2 -2 -12 2.67 1.27
-2 -2 -12 2.99 1.42
2 2 12 3.93 1.98
-2 -2 -12 4.9 1.82
-2 -2 -13 4.76 1.2
-2 -2 -13 5.61 1.48
2 2 13 4.13 1.44
2 2 13 2.27 0.97
-2 -2 -13 3.69 1.12
2 2 13 5.72 1.48
-2 -2 -14 27.47 2.69
2 2 14 25.2 2.43
2 3 -15 63.68 4.21
-2 -3 15 57.71 4.55
-2 -3 15 64.05 4.71
2 3 -15 61.45 4.25
-2 -3 14 78.95 6.36
-2 -3 14 82.01 6.24
2 3 -14 74.8 5.81
-2 -3 14 106.28 7.72
-2 -3 14 98.75 8.03
2 3 -14 70.8 5.87
-2 -3 13 225.27 12.36
-2 -3 13 255.02 14.13
-2 -3 13 217.06 13.99
-2 -3 13 216.15 12.59
-2 -3 12 301.36 15.69
-2 -3 12 354.35 18.04
-2 -3 12 332.77 19.3
-2 -3 12 282.42 15.95
-2 -3 11 61.03 7.34
-2 -3 11 59.93 7.73
-2 -3 11 60.81 8.74
2 3 -11 32.18 5.23
-2 -3 11 50.23 7.06
2 3 -10 69.42 11.04
-2 -3 10 88.79 14.85
-2 -3 10 86.13 8.86
-2 -3 10 91.42 9.65
-2 -3 10 92.66 10.83
-2 -3 10 89.96 9.56
2 3 -10 70.74 7.87
-2 -3 9 88.99 8.83
2 3 -9 98.31 13.16
-2 -3 9 95.21 14.95
-2 -3 9 94.52 10.65
-2 -3 9 88.32 9.27
-2 -3 9 112.65 10.42
-2 -3 9 116.66 10.8
-2 -3 8 47.54 9.7
2 3 -8 50.89 8.75
2 3 -7 368.01 22.73
-2 -3 7 324.26 23.48
-2 -3 6 81.25 10.32
-2 -3 6 84.31 10.64
2 3 -6 81.04 9.47
-2 -3 5 1168.37 41.78
-2 -3 5 1063.24 37.44
-2 -3 5 1131.87 37.54
2 3 -4 87.94 8.68
-2 -3 4 68.41 10.57
-2 -3 4 81.12 8.9
2 3 -3 937.95 28.64
-2 -3 3 925.09 30.05
2 3 -3 1011.31 23.26
-2 -3 3 912.78 39.69
2 3 -2 314.96 15.7
2 3 -2 349.82 17.72
-2 -3 2 338.64 20.6
2 3 -2 307.69 12.75
-2 -3 1 2022.73 50.46
2 3 -1 2118.4 39.79
2 3 0 176.95 12.27
2 3 0 162.02 9.79
-2 -3 0 175.96 13.36
-2 -3 0 180.93 12.08
2 3 1 790.12 26.51
-2 -3 -1 783.63 26.89
-2 -3 -2 87.04 9.17
2 3 2 94.2 9.1
2 3 2 84.93 7.23
-2 -3 -3 901.97 32.8
2 3 3 859.21 25.6
-2 -3 -3 892.1 30.88
2 3 3 953.66 32.02
-2 -3 -4 39.68 7.37
-2 -3 -4 32.02 6.11
-2 -3 -4 21.49 5.64
2 3 4 36.85 6.86
2 3 4 37.89 5.53
2 3 5 688.11 27.64
-2 -3 -5 682.57 30.79
2 3 5 632.06 31.44
-2 -3 -6 15.75 5.1
2 3 6 18.43 5.08
-2 -3 -6 12.38 4.14
-2 -3 -7 96.69 7.28
-2 -3 -7 100.12 9.56
-2 -3 -7 108.16 12.85
2 3 7 106.22 12.73
-2 -3 -7 112.94 12.47
2 3 7 118.37 16.05
2 3 7 110.04 8.54
-2 -3 -7 97.16 9.51
-2 -3 -7 114.54 9.83
-2 -3 -7 101.3 10.31
2 3 7 116.7 9.23
-2 -3 -8 103.06 7.41
2 3 8 123.29 16.96
-2 -3 -8 110.26 10.54
2 3 8 105.57 12.97
-2 -3 -8 97.1 11.84
-2 -3 -8 100.18 9.38
-2 -3 -8 119.73 10.01
-2 -3 -8 112.77 10.16
2 3 8 116.93 8.81
2 3 8 122.86 16.98
2 3 8 121.33 9.55
2 3 9 68.67 6.55
2 3 9 71.98 7.38
-2 -3 -9 80.92 7.92
-2 -3 -9 82.15 8.12
-2 -3 -9 80.66 8.21
-2 -3 -9 67.13 7.96
2 3 10 489.92 16.81
-2 -3 -10 529.96 19.77
-2 -3 -10 558.1 21.95
-2 -3 -10 510.5 19.55
-2 -3 -10 490.74 19.82
2 3 10 530.39 20.02
-2 -3 -11 390.36 15.23
-2 -3 -11 418.07 17.46
2 3 11 421.71 16.82
-2 -3 -11 406.51 15.6
-2 -3 -11 396.72 16.01
-2 -3 -12 124.35 7.5
2 3 12 121.33 7.27
-2 -3 -12 126.26 8.1
-2 -3 -12 112.01 6.62
-2 -3 -12 126.61 7.33
2 3 12 140.14 8.48
-2 -3 -13 34.45 3.47
2 3 13 45.81 4.05
2 4 -15 34.04 2.79
-2 -4 14 57.73 4.99
2 4 -14 62.37 4.43
-2 -4 14 63.08 5.25
2 4 -14 71.75 5.48
-2 -4 13 39.05 4.63
-2 -4 13 46.82 5.51
-2 -4 13 47.03 5.5
2 4 -13 49.45 5.28
-2 -4 12 10.39 2.97
-2 -4 12 11.2 3.3
-2 -4 12 9.74 2.99
2 4 -12 14.18 3.29
-2 -4 12 9.18 3.08
-2 -4 11 4.72 1.77
-2 -4 11 8.78 2.8
-2 -4 11 4.19 1.98
2 4 -11 4.8 1.7
-2 -4 10 206.43 14.61
-2 -4 10 199.98 14.34
-2 -4 10 189.32 13.21
2 4 -10 241.42 14.77
-2 -4 9 5.94 2.47
-2 -4 9 5.1 2.23
-2 -4 9 6.01 2.66
-2 -4 9 7.33 2.81
2 4 -9 7.89 3.49
-2 -4 9 6.87 4.83
-2 -4 8 37.6 6.08
2 4 -8 41.79 8.71
-2 -4 8 38.65 5.93
-2 -4 8 40.1 6.1
2 4 -8 43.94 5.85
-2 -4 8 42.59 6.11
-2 -4 8 54.06 10.88
2 4 -7 317.35 21.86
-2 -4 7 347.9 25.56
2 4 -6 181.68 15.88
-2 -4 6 169.84 15.53
-2 -4 6 171.03 18.31
-2 -4 6 174.82 17.42
-2 -4 5 1.76 1.67
-2 -4 5 1.62 2.33
-2 -4 5 1.65 0.8
2 4 -5 6.5 2.6
2 4 -4 376.67 19.79
-2 -4 4 375.31 21.69
2 4 -3 324.25 19.82
-2 -4 3 323.5 26.29
2 4 -3 309.48 14.59
2 4 -3 293.87 16.95
2 4 -2 334.13 19.32
-2 -4 2 353.45 24.19
2 4 -2 364.97 16.39
2 4 -1 1188.82 36.6
-2 -4 1 1217.35 42.66
2 4 -1 1153.63 30.34
-2 -4 0 10.05 3.75
2 4 0 9.09 2.5
2 4 0 12.19 3.19
2 4 0 12.92 3.64
-2 -4 -1 83.69 9.72
2 4 1 71 8.63
2 4 1 68.92 6.79
-2 -4 -2 43.28 7.46
2 4 2 36.29 6.48
2 4 2 35.52 5.07
-2 -4 -3 1.92 2.29
2 4 3 0.96 0.98
2 4 3 1.91 2.14
-2 -4 -3 1.45 1.27
-2 -4 -4 1336.42 48.51
-2 -4 -4 1438.77 48.06
2 4 4 1483.54 40.1
2 4 4 1505.22 48.97
-2 -4 -5 38.6 4.96
-2 -4 -5 34.44 7.82
2 4 5 29.38 6.08
2 4 5 37.06 5.12
-2 -4 -5 41.82 6.29
-2 -4 -5 37.37 5.67
2 4 5 45.23 8.85
-2 -4 -6 215.79 20.42
2 4 6 187.72 12.02
-2 -4 -6 218.39 14.43
2 4 6 182.17 16.63
-2 -4 -6 186.99 13.36
-2 -4 -6 211.67 11.54
-2 -4 -6 202.54 13.93
2 4 6 238.96 22.03
-2 -4 -6 206.84 14.61
2 4 6 205.1 12.26
2 4 7 2.19 2.4
-2 -4 -7 2.84 1.43
-2 -4 -7 0.22 0.76
2 4 7 0.95 0.16
2 4 7 3 2.04
2 4 7 2.56 1.85
-2 -4 -7 -0.72 1.32
-2 -4 -7 1.26 1.26
-2 -4 -7 1.62 1.47
-2 -4 -7 1.26 1.37
-2 -4 -8 16.82 3.05
2 4 8 17.61 3.86
2 4 8 19.85 3.63
-2 -4 -8 20.59 4.65
-2 -4 -8 20.56 4.36
-2 -4 -8 18.6 4.16
-2 -4 -8 21.31 4.38
2 4 9 8.63 2.63
-2 -4 -9 8.53 2.51
-2 -4 -9 10.72 2.86
-2 -4 -9 9.81 2.78
-2 -4 -9 11.25 2.98
2 4 9 6.14 2.04
-2 -4 -10 134.71 10.15
2 4 10 117.72 7.83
-2 -4 -10 121.9 8.88
-2 -4 -10 133.55 9.27
-2 -4 -10 131.99 9.18
2 4 10 132.27 9.53
2 4 11 190.63 10.34
-2 -4 -11 217.98 11.38
-2 -4 -11 175.63 9.13
-2 -4 -11 193.51 9.67
2 4 11 201.5 10.74
2 4 11 167.65 8.07
2 4 12 1.19 0.68
2 4 12 0.29 0.36
-2 -4 -12 1.79 1.08
-2 -4 -12 0.7 0.34
-2 -4 -12 0.25 0.31
-2 -4 -13 126.75 5.41
2 4 13 128.46 5.71
-2 -5 14 32.27 3.22
-2 -5 14 27.21 2.61
2 5 -14 34.34 3.24
2 5 -13 152.1 8.54
-2 -5 13 142.44 8.37
-2 -5 12 41.21 5.44
-2 -5 12 40.77 4.89
-2 -5 12 40.36 5.26
2 5 -12 55.31 5.88
-2 -5 11 17.46 3.95
-2 -5 11 20.37 3.86
-2 -5 11 18.15 3.95
2 5 -11 25.3 4.22
-2 -5 10 61.43 7.8
-2 -5 10 54.83 6.81
-2 -5 10 55.29 7.28
2 5 -10 75.06 7.99
-2 -5 10 48.59 6.88
-2 -5 9 9.4 2.98
-2 -5 9 6.64 2.26
2 5 -9 9.04 2.87
-2 -5 9 8.7 2.88
-2 -5 9 9.18 3.31
-2 -5 8 390.06 20.69
-2 -5 8 378.24 19.41
-2 -5 8 389.07 19.02
2 5 -8 449.2 19.86
-2 -5 8 395.52 19.38
-2 -5 8 442.4 20.53
-2 -5 8 445.16 32.75
-2 -5 7 383.48 20.42
2 5 -7 407.3 26.15
-2 -5 7 426.2 29.87
-2 -5 7 387.63 18.37
-2 -5 7 429.96 19.92
-2 -5 7 402.38 18.8
-2 -5 7 391.88 19
2 5 -7 381.02 17.99
-2 -5 6 222.3 13.75
2 5 -6 257.77 13.91
2 5 -6 235.74 18.7
-2 -5 6 238.41 21.3
-2 -5 6 205.08 19.2
-2 -5 6 242.61 14.11
2 5 -6 242.86 13.7
-2 -5 6 211.56 14.61
-2 -5 6 208.94 21.32
-2 -5 5 8.27 3.48
-2 -5 5 13.2 5.97
2 5 -5 9.51 3.09
2 5 -5 16.9 5.29
2 5 -4 103.85 11.23
2 5 -4 122.18 14.02
-2 -5 4 83.26 14.11
2 5 -3 7.87 3.54
-2 -5 3 14.17 6.25
2 5 -3 9.66 3.18
-2 -5 2 2.74 1.52
2 5 -2 0.65 1.49
2 5 -2 3.75 2.43
2 5 -2 4.61 2.3
2 5 -1 823.87 30.94
-2 -5 1 917.21 40.69
2 5 -1 876.22 34.59
2 5 -1 828.1 26.44
2 5 -1 846.83 30.02
2 5 0 19.27 3.75
2 5 0 21.81 4.83
2 5 0 20.86 4.66
2 5 0 23.14 5.22
2 5 1 27.95 4.58
-2 -5 -1 32.56 6.92
2 5 1 29.27 5.87
2 5 1 25.86 5.72
2 5 2 84.82 10.85
-2 -5 -2 78.49 11.37
-2 -5 -3 366.54 27.14
-2 -5 -3 379.52 25.88
-2 -5 -3 337.76 15.83
-2 -5 -3 339.55 17.07
2 5 3 410.61 25.27
-2 -5 -3 365.4 18.04
-2 -5 -3 378.55 17.75
2 5 3 356.08 16.75
-2 -5 -4 58.39 7.05
2 5 4 67.27 7.3
-2 -5 -4 59.41 10.69
-2 -5 -4 72.01 8.06
-2 -5 -4 74.05 8.18
2 5 4 79.56 11.79
-2 -5 -4 68.17 8.05
-2 -5 -4 70.02 7.01
2 5 5 136.22 10.6
-2 -5 -5 132.2 16.88
-2 -5 -5 130.46 11.35
2 5 5 149.68 17.27
-2 -5 -5 159.43 12.61
-2 -5 -5 161 12.56
-2 -5 -5 154.57 10.24
2 5 5 143.64 10.82
-2 -5 -6 46.84 6.87
2 5 6 44.49 6.07
-2 -5 -6 42.92 6.72
-2 -5 -6 47.41 6.88
2 5 6 48 6.08
2 5 7 357.31 16.53
-2 -5 -7 343.1 19.33
-2 -5 -7 321.58 18.21
-2 -5 -7 370.71 18.76
2 5 7 318.47 16.46
-2 -5 -8 33.37 5.63
-2 -5 -8 27.32 4.88
-2 -5 -8 30.68 4.98
2 5 8 25.31 4.01
2 5 8 26.03 4.53
2 5 9 27.66 4.35
-2 -5 -9 33.67 4.83
-2 -5 -9 31.6 4.57
-2 -5 -9 30.64 4.91
2 5 9 27.44 4.11
2 5 10 353.35 15.06
-2 -5 -10 370.83 15.27
-2 -5 -10 340.1 13.4
-2 -5 -10 337.47 13.48
2 5 10 332.08 14.3
2 5 10 312.4 12.24
2 5 11 1.3 0.96
-2 -5 -11 1.56 0.75
2 5 11 0.96 0.6
-2 -5 -11 0.88 0.22
2 5 11 -0.08 0.32
-2 -5 -11 0.46 0.39
2 5 11 0.97 0.48
-2 -5 -12 6.4 1.24
2 5 12 7.75 1.49
-2 -6 13 404.83 13.02
-2 -6 13 375.66 10.54
-2 -6 12 49.17 4.84
-2 -6 12 48.37 5.28
2 6 -12 57.58 5.24
-2 -6 11 5.18 1.92
-2 -6 11 3.47 1.26
-2 -6 11 2.98 1.43
2 6 -11 3.96 1.53
-2 -6 10 50.04 6.62
-2 -6 10 39.01 5.69
-2 -6 10 49 5.94
-2 -6 10 45.36 6.05
2 6 -10 49.8 6
2 6 -10 47.03 5.64
-2 -6 9 221.81 14.88
-2 -6 9 206.26 13.28
-2 -6 9 214.76 14.36
-2 -6 9 224.21 14.44
2 6 -9 236.79 13.97
-2 -6 8 5.03 2.37
-2 -6 8 4.75 1.99
-2 -6 8 3.16 1.65
2 6 -8 2.92 1.48
-2 -6 8 3.49 1.59
-2 -6 8 4.62 2.14
2 6 -8 4.38 1.74
-2 -6 7 65.27 8.36
-2 -6 7 60.69 7.82
-2 -6 7 54.71 7.14
-2 -6 7 55.49 6.85
-2 -6 7 54.19 6.82
2 6 -7 56.62 7.09
2 6 -7 59.12 6.96
2 6 -6 86.22 8.61
-2 -6 6 89.31 9.86
-2 -6 6 107.58 9.77
2 6 -6 82.94 11.61
2 6 -6 98.7 14.58
-2 -6 6 88.1 8.94
2 6 -6 94.24 8.79
-2 -6 6 100.04 8.95
-2 -6 5 -2.05 1.8
2 6 -5 3.22 2.75
-2 -6 5 3 2.2
-2 -6 5 2.92 1.67
2 6 -5 2.28 1.31
-2 -6 5 2.54 1.35
-2 -6 5 1.98 1.6
2 6 -5 4.81 2.6
-2 -6 5 2.66 1.57
2 6 -5 3.25 2.06
-2 -6 4 35.84 5.9
-2 -6 4 41.83 11.23
2 6 -4 31.89 6.61
-2 -6 4 38.52 5.6
-2 -6 4 33.07 9.11
-2 -6 4 38.88 5.4
2 6 -4 37.53 4.91
2 6 -4 37.73 5.28
-2 -6 4 34.69 4.95
-2 -6 4 38.97 5.83
2 6 -4 42.98 8.93
-2 -6 3 29.65 5.16
-2 -6 3 29.86 4.95
2 6 -3 22.96 5.35
-2 -6 3 26.79 8.83
2 6 -3 25.87 4.01
-2 -6 3 24.93 4.33
-2 -6 3 24.39 4
-2 -6 3 31.22 5.44
2 6 -3 31.65 4.78
2 6 -3 27.81 6.88
-2 -6 2 178.54 12
2 6 -2 182.52 11.46
2 6 -2 177.63 14.96
-2 -6 2 178.99 20.36
-2 -6 2 168.12 11.19
2 6 -2 174.57 10.97
-2 -6 2 157.97 10.3
-2 -6 2 177.03 13.29
2 6 -2 164.58 16.25
2 6 -1 3.08 1.54
2 6 -1 2 1.92
-2 -6 1 3.16 1.5
2 6 -1 3.19 2.25
-2 -6 1 2.79 0.7
-2 -6 1 10.03 3.04
-2 -6 1 4.21 2.09
2 6 -1 4 1.93
-2 -6 1 1.78 1
2 6 0 101.82 8.77
2 6 0 104.96 8.85
2 6 0 107.17 11.67
-2 -6 0 91.97 7.77
2 6 0 105.42 12.78
-2 -6 0 99.14 8.72
2 6 0 103.22 11.8
-2 -6 0 99.42 8.82
-2 -6 0 108.68 9.55
2 6 0 108.87 8.27
-2 -6 -1 109.63 9.66
2 6 1 127.37 9.94
2 6 1 127.42 10.11
2 6 1 125.57 14.05
-2 -6 -1 113.31 9.7
2 6 1 115.01 13.1
-2 -6 -1 118.24 9.3
-2 -6 -1 119.14 9.99
2 6 1 133.57 9.77
-2 -6 -2 46.49 6.36
2 6 2 63.64 7.17
-2 -6 -2 61.72 12.6
-2 -6 -2 56.97 6.67
-2 -6 -2 50 6.62
2 6 2 57.43 9.53
2 6 2 56.85 9.55
-2 -6 -2 57.59 7.18
2 6 2 53.93 6.74
2 6 2 56.52 6.56
2 6 3 2.3 2.17
-2 -6 -3 3.23 2.51
-2 -6 -3 -0.47 0.86
2 6 3 1.42 0.39
-2 -6 -3 0.73 0.91
2 6 3 4.16 3.81
-2 -6 -3 0.41 1.54
2 6 3 2.91 1.83
-2 -6 -3 0.74 0.91
-2 -6 -3 1.72 1.03
-2 -6 -4 21.31 4.38
-2 -6 -4 17.8 4.18
-2 -6 -4 17.41 4.28
2 6 4 15.64 3.23
-2 -6 -4 15.61 3.9
2 6 4 19.16 4.02
2 6 5 113.42 8.7
2 6 5 112.04 9.77
-2 -6 -5 119.99 10.73
-2 -6 -5 105.83 10.27
-2 -6 -5 123.68 10.51
-2 -6 -5 112.55 10.68
-2 -6 -5 116.59 10.03
2 6 6 1.88 1.38
-2 -6 -6 1.71 1.46
2 6 6 2.47 1.63
-2 -6 -6 3.69 2.12
-2 -6 -6 2.52 1.04
-2 -6 -6 2.81 1.92
2 6 6 0.88 0.31
2 6 7 6.05 2.37
-2 -6 -7 6.18 2.24
-2 -6 -7 2.64 0.39
2 6 7 4.55 1.9
-2 -6 -7 5.46 2.31
2 6 8 7.31 2.32
-2 -6 -8 8.31 2.3
-2 -6 -8 7.67 2.14
-2 -6 -8 10.32 2.6
2 6 8 10.54 2.59
2 6 9 65.85 5.79
2 6 9 70.19 6.29
2 6 9 82.84 7.11
-2 -6 -9 78.75 6.56
-2 -6 -9 69.78 5.94
-2 -6 -9 77.79 6.33
2 6 9 65.06 5.73
2 6 10 9.79 1.93
2 6 10 9.33 1.77
2 6 10 15.51 2.8
2 6 10 12.01 2.04
-2 -6 -10 13.41 2.25
-2 -6 -10 10.65 1.94
-2 -6 -10 10.34 1.84
2 6 11 44.47 3.49
-2 -7 12 13.56 2.31
2 7 -12 12.96 1.94
-2 -7 11 108.64 6.77
2 7 -11 133.8 7.58
-2 -7 11 130.44 8.54
2 7 -11 115.36 6.36
2 7 -10 50.36 5.2
-2 -7 10 46.81 5.32
2 7 -10 55.29 5.57
-2 -7 10 47.09 5.76
-2 -7 9 90.08 8.71
-2 -7 9 80.77 7.36
2 7 -9 93.45 7.95
-2 -7 9 76.01 7.76
-2 -7 9 77.66 7.64
2 7 -9 88.39 7.64
-2 -7 8 24.9 4.95
-2 -7 8 20.71 4.52
-2 -7 8 17.06 3.61
2 7 -8 19.58 3.83
-2 -7 8 24.08 4.48
-2 -7 8 18.92 3.9
2 7 -8 19.31 4.13
-2 -7 7 94.67 10.58
-2 -7 7 86.67 10.1
-2 -7 7 65.62 8.17
2 7 -7 69.93 7.88
-2 -7 7 66.64 7.39
2 7 -7 101.18 9.71
-2 -7 7 78.82 8.53
-2 -7 6 105.84 10.75
-2 -7 6 113.64 10.16
-2 -7 6 120.73 10.61
-2 -7 6 115.96 9.72
2 7 -6 114.58 9.58
2 7 -6 130.1 10.87
-2 -7 5 28.61 5.3
2 7 -5 29.62 4.98
2 7 -5 43.82 6.87
-2 -7 5 29.91 5.09
2 7 -5 33.44 4.98
-2 -7 5 31.61 6.37
-2 -7 4 49.07 7.29
-2 -7 4 50.36 6.74
2 7 -4 54.3 7.24
2 7 -4 52.62 6.62
2 7 -4 50.15 6.17
-2 -7 4 52.38 7
-2 -7 4 46.71 5.91
-2 -7 4 47.64 6.58
-2 -7 3 21.82 5.9
2 7 -3 21.28 6.79
-2 -7 3 13.38 5.17
2 7 -3 22.92 4.75
2 7 -3 60.8 8.06
-2 -7 3 57.96 6.94
-2 -7 3 74.76 9.16
-2 -7 3 34.76 7.42
2 7 -2 71.86 8.19
-2 -7 2 64.76 8.34
2 7 -2 71.31 8.36
-2 -7 2 88.22 8.16
-2 -7 2 44.19 7.7
2 7 -2 63.21 7.23
-2 -7 2 82.45 8.75
-2 -7 1 205.65 13.86
2 7 -1 198.87 12.88
-2 -7 1 189.45 12.67
-2 -7 1 195.87 12.17
-2 -7 1 189.94 14.99
2 7 -1 217.13 13.47
2 7 0 325.89 16.64
2 7 0 347.13 17.41
-2 -7 0 309.91 16.52
-2 -7 0 302.3 16.93
-2 -7 0 264.05 14.46
-2 -7 0 326.48 20.17
-2 -7 0 288.22 15.96
-2 -7 0 295.41 14.4
2 7 0 308.4 14.89
2 7 1 35.11 5.83
-2 -7 -1 46.34 6.05
-2 -7 -1 41.91 6.37
-2 -7 -1 34.22 6.94
-2 -7 -1 31.71 5.55
-2 -7 -1 40.66 6.55
2 7 1 45.44 6.45
2 7 1 40.54 5.86
2 7 2 122.31 10.51
-2 -7 -2 103.61 10.05
2 7 2 110.49 9.98
-2 -7 -2 119.2 9.47
2 7 2 113.53 9.73
-2 -7 -2 107.71 12.03
-2 -7 -2 120.58 10.57
-2 -7 -2 109.21 10.19
-2 -7 -3 60.17 7.84
-2 -7 -3 77.82 7.97
2 7 3 72.86 8.87
-2 -7 -3 73.3 8.88
-2 -7 -3 61.23 8.74
-2 -7 -3 62.85 8.05
2 7 3 62.2 7.56
2 7 3 63.41 7.54
-2 -7 -4 414.76 19.54
-2 -7 -4 420.41 20.25
-2 -7 -4 504.34 22.23
-2 -7 -4 416.06 20.33
2 7 4 414.04 17.66
2 7 4 466.22 20.98
-2 -7 -4 374.83 17.65
2 7 4 439.99 19.92
2 7 5 106.99 8.16
-2 -7 -5 125.45 9.58
2 7 5 103.82 9.73
-2 -7 -5 109.26 9.89
2 7 5 105.07 9.31
-2 -7 -5 126.99 10.09
-2 -7 -5 107.07 9.97
-2 -7 -5 107.49 9.1
-2 -7 -6 24.32 3.62
-2 -7 -6 20.9 3.68
-2 -7 -6 32.09 5.09
2 7 6 25.31 3.56
-2 -7 -6 29.55 5.28
-2 -7 -6 29.36 4.91
2 7 6 28.93 5.07
2 7 6 35.05 5.57
2 7 7 34.59 5.08
-2 -7 -7 34.02 4.48
-2 -7 -7 34.81 4.72
-2 -7 -7 36.74 4.78
2 7 7 32.64 4.54
2 7 7 29.32 4.4
2 7 8 62.87 5.44
2 7 8 69.73 6.34
-2 -7 -8 65.31 5.47
-2 -7 -8 59.75 5.08
-2 -7 -8 74.2 5.88
2 7 8 60.18 4.99
2 7 8 71.75 5.95
-2 -7 -9 1.69 0.84
2 7 9 1.14 0.37
2 7 9 1.81 0.84
-2 -7 -9 1.97 0.54
-2 -7 -9 2.21 0.78
2 7 9 0.86 0.73
-2 -8 11 5.21 1.27
2 8 -11 2.58 0.81
-2 -8 10 111.78 7.32
2 8 -10 110.27 6.02
2 8 -10 101.19 5.87
-2 -8 9 199.4 11.11
2 8 -9 197.08 9.23
2 8 -9 210.48 10.24
-2 -8 9 177.13 9.19
2 8 -9 217.76 9.8
-2 -8 9 176.51 9.8
2 8 -8 163.92 9.18
-2 -8 8 185.17 11.28
2 8 -8 192.45 10.89
-2 -8 8 189.09 10.83
-2 -8 8 195.51 10.7
-2 -8 7 5.54 1.94
-2 -8 7 4.49 2.02
-2 -8 7 6.08 2.02
-2 -8 7 4.54 1.6
2 8 -7 3.32 0.93
-2 -8 7 8.21 2.47
2 8 -7 6.21 2.32
-2 -8 6 114.39 10
-2 -8 6 104.15 9.17
-2 -8 6 118.98 9.78
2 8 -6 111.9 9.5
2 8 -6 112.11 8.81
-2 -8 6 105.39 8.54
-2 -8 6 111.3 8.87
-2 -8 5 74.4 8.28
2 8 -5 55.08 7.19
2 8 -5 62.37 6.83
-2 -8 5 54.99 6.74
-2 -8 5 57.12 6.33
2 8 -5 55.48 6.17
-2 -8 5 52.76 6.69
-2 -8 4 482.88 21.53
-2 -8 4 458.42 19.73
-2 -8 4 467.06 18.74
-2 -8 4 455.34 19.76
-2 -8 4 472.1 20.5
2 8 -4 492.31 21.34
2 8 -4 461.34 18.74
2 8 -4 469.31 19.47
-2 -8 3 32.95 5.21
2 8 -3 27.96 4.65
2 8 -3 33.19 5.45
-2 -8 3 27.9 4.72
-2 -8 3 29.14 5.27
-2 -8 3 22.13 3.89
2 8 -3 26.84 4.75
-2 -8 2 123.12 10.38
-2 -8 2 124.23 10.08
-2 -8 2 126.34 9.5
2 8 -2 122.72 10.59
-2 -8 2 125.47 11.24
2 8 -2 136.71 10.63
2 8 -2 124.43 9.93
2 8 -1 71.85 7.76
-2 -8 1 67.39 7.88
2 8 -1 73.04 7.67
2 8 -1 70.88 7.91
-2 -8 1 67.26 7.37
-2 -8 1 58.97 6.5
-2 -8 1 72.12 9.07
-2 -8 0 59.77 7.36
2 8 0 54.5 6.78
2 8 0 48.33 6.22
-2 -8 0 48.08 6.19
-2 -8 0 46.53 5.77
-2 -8 0 46.31 7.22
2 8 0 52.99 6.62
2 8 1 528.57 21.3
-2 -8 -1 457.2 20.78
-2 -8 -1 461.99 20.04
-2 -8 -1 391.42 17.41
-2 -8 -1 418.59 22.78
2 8 1 485.35 20.95
2 8 1 424.18 17.71
-2 -8 -2 109.81 9.73
2 8 2 124.15 10.15
-2 -8 -2 115.41 9.76
-2 -8 -2 104.4 8.72
-2 -8 -2 111.91 11.35
2 8 2 111.65 9.52
2 8 2 109.94 9.03
-2 -8 -3 92.6 8.73
2 8 3 116.84 9.76
-2 -8 -3 101.24 8.95
-2 -8 -3 107.7 10.1
2 8 3 112.47 8.93
2 8 3 104.51 9
-2 -8 -4 7.49 2.15
2 8 4 10.34 2.66
2 8 4 10.06 2.43
2 8 4 9.48 2.54
-2 -8 -4 11.94 3.21
-2 -8 -4 8.62 2.45
2 8 4 11.01 2.99
-2 -8 -4 9.77 2.63
-2 -8 -5 230.53 10.77
2 8 5 236.8 12.73
2 8 5 224.15 11.96
2 8 5 243.61 11.06
-2 -8 -5 204.82 11.74
-2 -8 -5 234.75 12.08
-2 -8 -5 241.97 12.9
2 8 5 259.34 13.17
2 8 6 114.22 7.71
2 8 6 103.41 7.47
-2 -8 -6 61.33 5.57
-2 -8 -6 58.29 5.02
2 8 6 114.32 8.13
2 8 7 68.27 4.91
2 8 7 77.17 5.69
2 8 8 8.39 1.55
-2 -9 8 15.44 2.41
2 9 -8 14.82 1.9
2 9 -8 17.1 2.48
2 9 -8 14.77 2.2
-2 -9 8 13.96 2.31
-2 -9 7 90.68 6.8
2 9 -7 81.14 5.48
-2 -9 7 90.91 6.04
2 9 -7 101.24 5.85
-2 -9 7 84.93 6.47
2 9 -7 112.83 7.29
-2 -9 7 94.94 6.51
2 9 -7 93.69 6.8
-2 -9 6 50.55 5.42
2 9 -6 49.3 4.81
-2 -9 6 47.57 5.36
-2 -9 6 43.25 4.85
-2 -9 6 44.41 4.57
2 9 -6 56.7 5.68
-2 -9 5 16.47 3.19
2 9 -5 18.44 3.37
-2 -9 5 22.45 4.2
2 9 -5 21.49 3.75
-2 -9 5 25.11 4.39
2 9 -5 9.96 2.26
2 9 -4 2.43 1.52
2 9 -4 2.76 1.21
-2 -9 4 15.12 3.15
-2 -9 4 1.85 1.15
-2 -9 4 12.96 3.22
-2 -9 4 2.83 1.35
-2 -9 4 3.12 2.04
2 9 -4 1.69 1.52
-2 -9 3 588.38 20.98
-2 -9 3 604.5 19.1
2 9 -3 632.68 20.78
2 9 -3 618.78 20.75
2 9 -3 614.52 21.52
-2 -9 2 25.24 3.74
2 9 -2 22.58 4.09
-2 -9 2 20.79 3.98
-2 -9 2 23.61 3.86
-2 -9 2 26.6 4.46
2 9 -2 22.59 3.96
2 9 -2 21.14 3.66
-2 -9 1 4.72 2.07
-2 -9 1 8.05 2.24
-2 -9 1 1.05 1.37
2 9 -1 3.92 1.98
-2 -9 1 4.56 1.97
2 9 -1 4.47 2.21
2 9 -1 2.56 1.49
-2 -9 0 28.42 5.97
2 9 0 30.83 5.45
-2 -9 0 20.7 4.68
-2 -9 -1 47.88 5.77
2 9 1 58.27 6.27
-2 -9 -1 53.2 6.73
-2 -9 -1 48.69 4.98
-2 -9 -1 53.33 5.79
2 9 1 54.43 6.28
-2 -9 -2 218.52 11.79
2 9 2 263.98 13.12
-2 -9 -2 199.02 10.05
-2 -9 -2 250.25 14.05
2 9 2 246.52 12.52
-2 -9 -2 232.18 11.95
2 9 2 232.95 11.17
-2 -9 -3 2.91 1.08
2 9 3 1.87 1.13
-2 -9 -3 2.43 1.44
2 9 3 3.44 1.75
-2 -9 -3 1.79 1.18
-2 -9 -3 1.88 1.17
2 9 3 2.12 1.48
-2 -9 -4 1.37 0.66
2 9 4 0.82 0.72
-2 -9 -4 0.81 0.83
-2 -9 -4 2.34 0.99
2 9 4 1.83 1.05
-2 -9 -4 1 0.58
-2 -9 -4 1.47 0.91
2 9 4 0.74 0.47
2 9 5 3.97 1.13
-2 -9 -5 3.4 0.99
-2 -9 -5 3.1 0.93
-2 -9 -5 2.54 0.83
2 9 5 4.62 1.39
2 10 -5 0.85 0.56
2 10 -5 1.13 0.64
-2 -10 4 67.79 5.47
2 10 -4 56.76 4.39
-2 -10 4 63.11 5.09
2 10 -4 64.11 5.3
2 10 -4 60.22 4.47
2 10 -3 0.61 0.42
-2 -10 3 1.96 1.44
-2 -10 3 0.7 0.61
2 10 -3 0.16 0.45
2 10 -3 2.22 0.99
-2 -10 2 105.96 5.9
-2 -10 2 119.53 7.3
-2 -10 2 131.93 7.86
-2 -10 2 118.3 6.85
2 10 -2 115.79 7.07
2 10 -2 105.6 6.86
2 10 -2 125.74 7.3
2 10 -1 0.09 0.59
-2 -10 1 1.08 1.31
2 10 -1 0.68 0.67
-2 -10 1 0.63 0.6
2 10 -1 0.28 0.39
-2 -10 0 92.46 6.2
2 10 0 101.93 6.58
-2 -10 0 92.71 6.14
-2 -10 0 83.98 6.31
2 10 0 94.99 6.56
-2 -10 -1 39.84 3.79
-2 -10 -1 39 3.71
-2 -10 -1 53.06 4.81
2 10 1 49.44 4.45
2 10 1 50.67 4.44
2 10 2 234.7 8.97
2 10 2 209.12 8.19
-2 -10 -2 237.79 9.32
3 -11 -5 95.9 5.53
-3 11 5 136.09 6.53
-3 11 4 9.06 1.94
3 -11 -4 11.79 1.95
3 -11 -3 7.72 1.53
3 -11 -3 8.89 1.58
3 -11 -3 8.94 1.81
-3 11 3 10.7 2.21
-3 11 3 3.35 1.44
-3 11 3 5.47 1.49
3 -11 -2 0.62 0.28
3 -11 -2 0.04 0.13
3 -11 -2 0.53 0.61
3 -11 -2 0.77 0.22
-3 11 2 0.36 0.37
-3 11 2 0.37 1.01
3 -11 -1 320.03 12.17
-3 11 1 320.9 12.98
3 -11 -1 353.46 13.25
-3 11 1 303.98 11.54
-3 11 1 342.46 12.35
-3 11 0 15.69 2.66
3 -11 0 17.48 2.9
-3 11 0 15.54 3.2
-3 11 0 14.16 2.79
-3 11 0 16.5 2.49
3 -11 0 16.46 2.86
-3 11 -1 419.15 17.59
-3 11 -1 440.6 13.68
-3 11 -1 453.12 16.79
3 -11 2 -0.71 0.75
-3 11 -2 -0.06 0.64
3 -11 2 -0.79 0.8
-3 11 -2 2.43 1.34
-3 11 -2 2.04 1.05
-3 11 -3 14.22 2.18
-3 11 -3 16.83 2.9
3 -11 3 20.07 3.07
3 -11 3 18.52 2.84
-3 11 -3 9.89 2.21
3 -11 4 43.71 4.25
-3 11 -4 38.72 3.26
3 -11 4 38.43 3.95
-3 11 -4 48.24 4.45
3 -11 5 219.31 8.48
3 -10 -8 9.07 1.46
-3 10 8 7.51 1.39
-3 10 7 125.58 7.68
-3 10 7 116.92 6.93
3 -10 -7 106.62 5.94
3 -10 -7 130.7 7.04
-3 10 6 35.49 3.99
3 -10 -6 39.78 4.35
-3 10 6 37.39 4.51
3 -10 -6 32.7 3.89
-3 10 6 33.85 4.5
-3 10 5 43.24 6
-3 10 5 18.1 3.46
3 -10 -5 33.42 4.77
3 -10 -5 41.94 5.41
-3 10 5 38.34 5.19
3 -10 -5 14.25 2.3
-3 10 4 45.38 7.13
3 -10 -4 33.2 4.34
3 -10 -4 52.75 5.95
-3 10 4 43.46 6.63
-3 10 4 56.94 7.27
-3 10 3 24.06 5.02
3 -10 -3 36.29 5.01
-3 10 3 22.93 4.36
3 -10 -3 23.67 3.93
3 -10 -3 28.27 4.02
-3 10 3 23.28 4.31
-3 10 2 101.34 8.68
-3 10 2 84.86 7.72
3 -10 -2 97.78 8.23
3 -10 -2 106.39 8.07
3 -10 -2 99.54 7.76
-3 10 2 83.4 7.7
3 -10 -1 0.55 0.09
3 -10 -1 1.38 1.28
3 -10 -1 1.88 0.74
-3 10 1 -0.07 0.88
-3 10 1 0.29 0.61
-3 10 1 2.09 1.68
-3 10 0 223.27 12.31
3 -10 0 270.94 14.04
3 -10 0 273.92 13.84
-3 10 0 226.33 12.74
-3 10 0 207.32 14.4
3 -10 1 2.44 1.38
-3 10 -1 0.18 0.33
3 -10 1 1.26 1
-3 10 -1 2.2 0.99
-3 10 -1 1.94 0.55
-3 10 -2 41.15 5.51
3 -10 2 50.13 6.32
-3 10 -2 36.94 6.64
-3 10 -2 36.25 4.84
-3 10 -2 30.22 4.52
-3 10 -2 29.61 3.97
3 -10 3 46.31 5.47
-3 10 -3 40.76 5.17
-3 10 -3 50.69 6.68
3 -10 3 49.83 5.96
-3 10 -3 35.17 4.83
-3 10 -3 40.51 5.69
-3 10 -3 37.27 4.31
-3 10 -4 223.64 11.73
-3 10 -4 247.23 12.36
3 -10 4 258.27 13.38
-3 10 -4 217.4 12.33
3 -10 4 267.38 13
-3 10 -4 258.2 14
3 -10 5 138.79 9.11
-3 10 -5 132.43 8.4
-3 10 -5 143.14 9.38
3 -10 5 139.47 9.51
-3 10 -5 142.67 8.69
3 -10 6 10.7 2.52
-3 10 -6 10.09 2.24
3 -10 6 11.26 2.97
-3 10 -6 8.51 2.24
-3 10 -6 6.99 1.74
3 -10 7 79.2 5.41
-3 10 -7 78.68 5.3
-3 10 -7 73.68 5.04
-3 10 -7 62.03 4.27
-3 9 10 0.43 0.35
3 -9 -10 0.88 0.49
3 -9 -9 48.45 4.31
-3 9 9 42.75 4.49
3 -9 -9 36.44 3.12
-3 9 9 34.7 3.85
-3 9 9 35.73 3.94
-3 9 9 38.61 3.57
-3 9 8 8.14 2.22
3 -9 -8 8.16 2.05
-3 9 8 6.77 1.89
-3 9 8 7.96 2.08
3 -9 -8 9.78 2.02
-3 9 8 9.93 2.48
3 -9 -7 21.11 3.73
-3 9 7 20.02 4.01
3 -9 -7 22.39 3.48
-3 9 7 21.98 4.11
-3 9 7 19.09 3.64
-3 9 7 20.24 3.65
-3 9 6 74.18 8.21
3 -9 -6 80.02 6.93
3 -9 -6 91.59 8.22
-3 9 6 75.72 8.17
-3 9 6 82.84 7.83
-3 9 5 30.21 5.07
3 -9 -5 28.13 4.58
3 -9 -5 28.45 4.21
-3 9 5 25.17 5.08
-3 9 5 30.06 5.53
-3 9 5 31.54 4.78
-3 9 4 76.25 8.89
3 -9 -4 71.41 7.4
-3 9 4 70.79 7.08
-3 9 4 74.65 7.63
3 -9 -3 100.81 9.09
-3 9 3 111.19 10.48
-3 9 3 112.26 8.79
3 -9 -3 111.02 9.15
3 -9 -2 324.86 15.65
3 -9 -2 320.68 16.43
-3 9 2 389.09 19.93
-3 9 2 338.62 17.85
-3 9 2 336.13 17.81
3 -9 -1 147.65 11.25
-3 9 1 142.97 10.9
3 -9 -1 151.15 10.28
-3 9 1 145.6 12.96
-3 9 1 146.06 11.28
-3 9 0 3.23 1.33
3 -9 0 7 2.16
-3 9 0 6.26 2.14
3 -9 0 1.68 0.8
-3 9 0 4.56 2.01
-3 9 0 3.14 2.06
-3 9 -1 104.35 9.29
3 -9 1 113.07 9.08
3 -9 1 108.06 9.47
-3 9 -1 89.48 8.35
-3 9 -1 96.1 11.47
-3 9 -2 29.2 4.91
-3 9 -2 24.79 5.03
3 -9 2 26.44 4.74
-3 9 -2 26 4.31
3 -9 2 34.72 5.22
-3 9 -2 32.2 6.46
-3 9 -3 46.12 6.06
3 -9 3 54.87 6.22
3 -9 3 47.9 6.38
-3 9 -3 46.34 5.69
-3 9 -3 48.84 7.2
-3 9 -3 48.56 6.72
3 -9 4 150.66 10.62
-3 9 -4 134.83 10.41
3 -9 4 144.25 11.27
-3 9 -4 158.94 11.7
-3 9 -4 145.69 11.85
3 -9 5 157.4 10.7
-3 9 -5 126.92 9.73
3 -9 5 149.96 11.44
-3 9 -5 154.82 10.95
-3 9 -5 134.97 10.78
-3 9 -5 139.19 10.32
3 -9 6 1.29 0.87
3 -9 6 3.24 1.25
-3 9 -6 2.21 0.97
-3 9 -6 2.6 1.48
-3 9 -6 2.82 1.37
3 -9 7 2.07 0.89
-3 9 -7 1.25 1.02
-3 9 -7 1.32 0.63
3 -9 7 0.35 0.54
3 -9 7 1.61 1.3
-3 9 -7 2.87 1.25
3 -9 8 16.13 2.69
-3 9 -8 17.78 2.85
-3 9 -8 16.46 2.71
3 -9 8 14.49 2.85
3 -9 8 14.72 2.28
-3 9 -9 11.58 1.95
3 -9 9 10.66 1.99
-3 9 -9 13.18 2.06
-3 8 11 56.63 4.77
3 -8 -11 52.89 3.99
3 -8 -11 46.92 3.42
-3 8 11 51.15 4.36
3 -8 -10 195.18 9.47
-3 8 10 171.67 10.39
3 -8 -10 172.34 8.62
-3 8 10 164.58 9.7
-3 8 10 142.54 8.13
-3 8 9 53.9 6.5
3 -8 -9 57.5 5.79
3 -8 -9 53.45 5.61
-3 8 9 52.13 5.84
-3 8 9 45.25 5.77
-3 8 9 47.84 5.24
-3 8 8 615.31 22.07
3 -8 -8 580.52 21.31
-3 8 8 567.87 23.14
-3 8 8 577.44 24.38
3 -8 -7 312.38 16.27
-3 8 7 263.38 17.34
3 -8 -7 262.42 14.57
-3 8 7 265.51 15.76
-3 8 7 275.73 16.45
3 -8 -6 171.78 12.09
-3 8 6 135.19 12.1
-3 8 6 136.03 12.9
3 -8 -6 147.66 10.86
-3 8 6 141.6 11.69
-3 8 5 31.9 6.06
-3 8 5 36.71 5.69
-3 8 5 32.44 6.21
3 -8 -5 39.8 5.52
3 -8 -5 37.06 5.58
-3 8 4 17.36 4.01
-3 8 4 15.82 3.91
3 -8 -4 16.55 3.51
-3 8 4 16.92 3.64
3 -8 -3 358.52 16.99
-3 8 3 344.53 17.54
-3 8 3 314.7 16.1
-3 8 3 362.9 19.73
3 -8 -2 452.41 18.56
-3 8 2 419.49 21.97
-3 8 2 422.02 20.37
-3 8 2 385.72 17.27
3 -8 -1 12.85 2.81
3 -8 -1 14.33 3.33
-3 8 1 12.38 2.83
-3 8 1 15.46 4.24
-3 8 1 14.9 3.39
-3 8 0 114.91 9.76
-3 8 0 108.5 9.38
3 -8 0 107.55 9.31
-3 8 0 110.77 12.64
-3 8 0 113.51 9.83
-3 8 -1 37.31 5.3
-3 8 -1 40.82 5.72
3 -8 1 45.19 6.04
-3 8 -1 38.52 7.83
-3 8 -1 40.5 6.74
-3 8 -1 42.16 5.93
-3 8 -2 151.92 11.43
3 -8 2 176.68 12.25
-3 8 -2 166.08 14.39
3 -8 2 186.94 11.57
-3 8 -2 187.83 16.7
-3 8 -2 166.71 11.51
-3 8 -3 1.61 1.49
-3 8 -3 2.8 0.77
3 -8 3 3.41 1.84
3 -8 3 3.1 1.7
-3 8 -3 2.88 1.68
-3 8 -3 1.37 0.98
-3 8 -4 31.47 5.29
-3 8 -4 34.83 5.12
3 -8 4 39.02 6.03
-3 8 -4 31.82 5.33
-3 8 -4 35.59 6.19
3 -8 4 41.18 5.58
3 -8 5 66.46 7
-3 8 -5 62.07 7.46
3 -8 5 64.04 8.03
-3 8 -5 71.8 8
-3 8 -5 70.78 8.19
3 -8 6 38.78 5.47
-3 8 -6 27.03 4.78
3 -8 6 32.65 5.69
-3 8 -6 31.59 5.06
-3 8 -6 27.74 4.71
-3 8 -7 5.31 2.19
3 -8 7 6.82 2.75
-3 8 -7 8.47 2.56
3 -8 7 5.54 2.13
3 -8 7 4.78 1.99
-3 8 -7 8.04 2.4
3 -8 8 6.3 2.4
3 -8 8 3.94 1.76
-3 8 -8 3.5 1.55
3 -8 8 2.15 0.9
-3 8 -8 6.17 2.21
3 -8 9 57.36 6.15
-3 8 -9 64.45 5.93
3 -8 9 54.53 5.11
-3 8 -9 54.99 5.29
3 -8 10 79.48 6.24
3 -8 10 72.81 4.91
-3 8 -10 73.34 5.23
-3 8 -10 81.1 5.62
-3 8 -11 123.11 5.64
3 -7 -12 200.41 8.08
-3 7 12 201.21 9.16
3 -7 -12 185.94 7.9
-3 7 12 203.61 9.17
-3 7 11 4.16 1.75
3 -7 -11 3.28 1.33
3 -7 -11 4.21 1.5
-3 7 11 4.98 2.06
-3 7 10 218.37 13.58
3 -7 -10 193.6 11.55
-3 7 10 205.84 12.84
-3 7 10 183.91 10.88
-3 7 9 38.72 6.1
3 -7 -9 40.72 5.9
-3 7 9 39.93 5.29
-3 7 9 42.84 6.34
-3 7 8 10.28 3
-3 7 8 17.33 4.54
3 -7 -8 15.66 3.73
-3 7 8 21.22 4.29
-3 7 7 207.29 16.79
3 -7 -7 241.57 14.91
-3 7 7 238.32 16.52
-3 7 7 224.5 15.44
-3 7 6 15.11 3.99
-3 7 6 11.45 4.3
3 -7 -6 15.33 3.86
-3 7 6 13.19 3.95
-3 7 5 200.32 15.99
3 -7 -5 198.92 17.59
3 -7 -5 207.48 17.73
-3 7 5 215.46 20.37
3 -7 -5 177.65 12.15
-3 7 5 201.67 13.8
-3 7 5 185.31 15.8
-3 7 5 195.48 21.24
-3 7 4 333.41 19.82
-3 7 4 291.15 23.42
-3 7 4 308.89 18.11
3 -7 -4 305.37 20.7
3 -7 -4 298.17 19.85
-3 7 4 290.25 22.54
-3 7 4 285.08 15.7
-3 7 3 229.17 14.32
3 -7 -3 236.55 13.21
3 -7 -3 230.79 16.5
-3 7 3 237.03 19.63
-3 7 3 225.89 13.31
-3 7 3 258.41 15.9
-3 7 3 256.79 16.06
3 -7 -3 240.05 16.91
-3 7 2 335.73 16.19
3 -7 -2 329.94 20.03
3 -7 -2 327.95 19.53
-3 7 2 335.71 22.77
-3 7 2 292.17 22.34
3 -7 -2 332.78 15.15
-3 7 2 358.1 20.1
-3 7 2 312.2 15.26
-3 7 2 371.18 18.13
-3 7 1 6.12 2.71
-3 7 1 5.76 1.86
-3 7 1 6.63 2.39
3 -7 -1 6.81 2.83
3 -7 -1 0.65 1.17
-3 7 1 4.19 1.49
-3 7 0 12.5 2.89
3 -7 0 11.44 3.77
-3 7 0 12.67 3.11
3 -7 0 6.86 2.6
3 -7 0 12.75 3.04
-3 7 0 7.87 3.06
-3 7 0 8.68 3.29
-3 7 0 11.15 2.93
-3 7 -1 2.49 1.41
-3 7 -1 2.98 1.37
3 -7 1 1.35 2.31
-3 7 -1 4.89 3.68
3 -7 1 5.26 2.21
-3 7 -1 2.17 0.8
-3 7 -1 0.34 0.64
-3 7 -1 3.66 2.18
-3 7 -2 38.59 5.66
3 -7 2 37.58 7.82
-3 7 -2 41.02 8.35
3 -7 2 38.26 5.74
-3 7 -2 37.75 5.43
-3 7 -2 43.76 7.46
-3 7 -2 51.45 8.84
3 -7 3 6.56 3.77
3 -7 3 2.99 1.75
-3 7 -3 1.87 3.23
3 -7 3 1.7 1.59
-3 7 -3 2.82 1.92
-3 7 -3 0.31 1.33
-3 7 -3 3.28 2.07
-3 7 -3 0.94 0.8
-3 7 -4 68.05 7.75
-3 7 -4 78.48 7.85
3 -7 4 58.45 9.73
-3 7 -4 84.23 12.64
3 -7 4 85.77 8.86
3 -7 4 85.11 7.58
-3 7 -4 90.03 9.33
-3 7 -4 84.91 9.48
-3 7 -5 114.85 10.28
3 -7 5 124.87 9.51
3 -7 5 123.73 10.99
-3 7 -5 127.31 11.1
-3 7 -5 135.14 11.22
3 -7 6 287.51 15.11
-3 7 -6 284.99 16.06
3 -7 6 292.57 17.73
-3 7 -6 286.19 15.99
-3 7 -6 270.85 16.02
-3 7 -7 12.03 3.24
3 -7 7 11.96 3.78
3 -7 7 10.67 2.87
-3 7 -7 13.23 3.38
-3 7 -7 15.25 3.43
3 -7 8 14.89 3.32
3 -7 8 16.69 4.1
-3 7 -8 19.22 3.89
3 -7 8 15.2 3.43
-3 7 -8 16.46 3.59
3 -7 9 2.54 1.8
-3 7 -9 0.91 1.09
3 -7 9 1.27 1.63
-3 7 -10 171.36 9.8
3 -7 10 159.84 10.52
3 -7 10 146.23 8.88
-3 7 -10 136.36 8.46
-3 7 -11 13.39 2.13
3 -7 11 13.48 2.65
3 -7 11 16.66 2.5
-3 7 -11 16.25 2.49
3 -6 -13 17.18 2.22
-3 6 13 12.48 1.96
3 -6 -13 16.08 2.32
-3 6 13 17.73 2.58
-3 6 12 69.59 5.68
-3 6 12 84.34 7.03
3 -6 -12 85.5 6.71
-3 6 12 87.63 7.08
-3 6 11 49.32 5.82
-3 6 11 64.59 7.25
-3 6 11 70.8 7.34
3 -6 -11 41.69 5.33
-3 6 10 35.2 5.48
-3 6 10 48.61 7.16
3 -6 -10 31.91 5.27
-3 6 10 43.65 6.7
-3 6 10 39.79 6.15
-3 6 9 130 11.15
-3 6 9 168.01 14.1
3 -6 -9 129.58 11.06
-3 6 9 131.9 12.22
-3 6 9 154.85 13.06
-3 6 8 87.34 9.01
-3 6 8 124.42 12.86
3 -6 -8 98.72 9.73
-3 6 8 87.68 9.84
-3 6 8 97.66 11.16
-3 6 8 110.59 10.19
-3 6 7 45.75 6.28
3 -6 -7 53.1 10.46
-3 6 7 48.3 6.99
-3 6 7 61.19 9.57
3 -6 -7 36.65 7.83
-3 6 7 55.84 13.16
3 -6 -7 59.6 7.25
-3 6 7 44.1 7.27
-3 6 7 52.53 7.54
-3 6 6 268.03 14.71
-3 6 6 266.3 28.75
-3 6 6 300.47 22.75
3 -6 -6 284.18 20.98
3 -6 -6 320.03 22.22
-3 6 6 290.53 23.49
3 -6 -6 318.56 16.56
-3 6 6 247.71 17.94
-3 6 6 293.25 17.29
-3 6 5 314.64 20.02
3 -6 -5 254.66 18.72
3 -6 -5 279.56 19.26
-3 6 5 282.04 21.34
-3 6 5 263.23 15.17
-3 6 5 295.39 26
-3 6 5 265.81 19.16
-3 6 4 316.47 24
3 -6 -4 347.64 20.71
3 -6 -4 400.03 21.63
-3 6 4 351.3 22.53
-3 6 3 44.25 7.66
3 -6 -3 47.23 6.77
3 -6 -3 40.1 6.18
3 -6 -3 51.24 7.3
-3 6 3 44.45 7.61
-3 6 2 303.5 19.15
3 -6 -2 323.87 17.7
3 -6 -2 336.31 18.61
-3 6 2 316.68 19.77
-3 6 1 725.64 27.99
3 -6 -1 765.09 28.58
-3 6 1 748.79 30.74
3 -6 0 316.24 19.48
-3 6 0 317.29 20.06
3 -6 1 175.04 14.67
-3 6 -1 174.17 14.99
3 -6 2 44.54 7.98
-3 6 -2 48.56 8.31
3 -6 3 608.17 30.13
-3 6 -3 671.27 32.92
3 -6 4 109.93 8.2
-3 6 -4 109.35 9.77
3 -6 4 154.77 15.27
-3 6 -4 145.95 16.05
3 -6 4 126.32 10.26
-3 6 -4 92.47 9.81
-3 6 -4 84.43 9.65
-3 6 -5 254.04 15.32
-3 6 -5 320.6 25.04
3 -6 5 293.26 20.82
3 -6 5 296.38 16.79
3 -6 5 288.28 13.88
-3 6 -5 252.58 15.43
-3 6 -5 277.77 16.16
3 -6 6 93.97 11.39
-3 6 -6 113.11 10.07
-3 6 -6 122.45 15.99
3 -6 6 113.02 10.86
3 -6 6 117.8 9.16
-3 6 -6 112.51 9.92
-3 6 -6 103.53 9.43
-3 6 -7 160.79 12.18
-3 6 -7 176.39 12.23
3 -6 7 168.92 13.94
-3 6 -8 209.76 13.69
3 -6 8 218.21 15.53
-3 6 -8 199.76 12.69
3 -6 8 206.67 13.89
3 -6 9 70.44 8.6
-3 6 -9 71.55 7.24
-3 6 -9 73.27 6.23
3 -6 9 72.67 7.68
3 -6 10 130.52 10.53
-3 6 -10 124.77 8.75
3 -6 10 130.36 9.43
-3 6 -10 119.68 7.49
-3 6 -10 140.43 9.79
3 -6 11 97.18 7.99
-3 6 -11 83.35 6.62
-3 6 -11 64.98 4.92
3 -6 11 94.33 7.3
-3 6 -11 58.34 5.1
-3 6 -12 4.86 1.34
3 -6 12 8.07 2.01
-3 6 -12 4.96 1.47
-3 6 -12 3.53 1.02
3 -6 12 7.49 1.73
-3 5 14 18.29 2.3
3 -5 -14 15.82 2.26
-3 5 13 76.03 6.26
-3 5 13 88.62 6.52
-3 5 13 86.46 6.05
3 -5 -13 89.88 6.71
-3 5 13 87.75 7.16
-3 5 12 2.35 1.48
-3 5 12 3.34 1.54
-3 5 12 2.06 1.26
-3 5 12 1.73 1.49
3 -5 -12 0.62 0.88
-3 5 12 0.18 0.64
-3 5 11 119.45 10.41
3 -5 -11 118.96 9.82
-3 5 11 113.69 9.51
-3 5 11 113.33 10.11
-3 5 11 120.1 10.76
-3 5 11 120.37 10.3
-3 5 10 255.3 16.36
-3 5 10 317.93 18.53
3 -5 -10 281.84 15.95
-3 5 10 277.79 15.92
-3 5 10 285.41 17.53
-3 5 10 289.25 17.19
-3 5 9 106.01 11.66
-3 5 9 108.9 11.79
-3 5 9 89.54 9.42
-3 5 8 154.72 20.54
-3 5 8 196.37 15.99
3 -5 -8 202.43 16.99
3 -5 -8 184.84 18.78
-3 5 8 229.54 16.1
-3 5 8 162.76 12.28
-3 5 8 171.39 13.57
-3 5 8 204.16 16.37
-3 5 7 14.4 5.13
-3 5 7 15.79 5.63
3 -5 -7 19.22 5.08
3 -5 -7 21.54 5.97
-3 5 7 16.82 4.17
-3 5 7 20.46 4.37
-3 5 7 19.31 4.19
-3 5 6 2.84 1.57
3 -5 -6 2.32 2.39
3 -5 -6 4.58 2.96
-3 5 6 1.98 1.65
-3 5 5 237.99 23.14
3 -5 -5 246.77 17.82
-3 5 5 231.53 17.5
3 -5 -5 192.2 15.13
-3 5 4 117.66 13.69
3 -5 -4 96.97 9.98
3 -5 -4 99.24 8.12
3 -5 -4 132.38 11.56
-3 5 4 116.72 11.36
-3 5 3 713.18 33
3 -5 -3 616.62 24.1
3 -5 -3 549.83 20.58
3 -5 -3 867.47 29.45
-3 5 3 837.75 31.63
-3 5 2 475.72 18.79
-3 5 2 420.22 21.16
3 -5 -2 455.51 17.84
3 -5 -2 449.37 18.67
-3 5 2 446.69 21.04
-3 5 1 1326.09 36.83
3 -5 -1 1480.79 36.98
-3 5 1 1361.05 38.34
-3 5 1 1483.94 35.24
-3 5 0 62.92 7.61
-3 5 0 67.61 7.5
3 -5 1 309.21 18.21
-3 5 -1 336.19 19.37
-3 5 -1 313.25 17.21
3 -5 2 2304.4 56.03
-3 5 -2 2231.34 54.67
-3 5 -2 2239.04 52.27
3 -5 3 120.32 12.19
-3 5 -3 116.01 11.9
-3 5 -3 117.8 12.63
3 -5 4 163.38 14.28
-3 5 -4 193.53 17.58
-3 5 -4 196.66 16.93
-3 5 -5 13.16 4.65
3 -5 5 18.37 4.76
-3 5 -5 19.21 5.69
-3 5 -6 1.9 0.47
-3 5 -6 5.14 2.05
3 -5 6 6.23 2.33
-3 5 -6 3.91 2.28
3 -5 6 5.06 2.83
-3 5 -6 6.05 2.24
-3 5 -7 234.21 14.35
-3 5 -7 250.49 22.88
3 -5 7 211.23 16.17
3 -5 7 225.17 15.74
-3 5 -7 241.44 12.71
-3 5 -7 204.48 22.12
-3 5 -7 213.1 13.37
3 -5 8 531.59 24.51
-3 5 -8 525.1 19.02
3 -5 8 506.47 22.47
-3 5 -8 549.51 22.35
-3 5 -8 516.81 20.74
-3 5 -9 6.31 2.74
3 -5 9 9.1 3.93
-3 5 -9 9.53 3.06
3 -5 9 11.41 5.59
-3 5 -9 3.08 2.65
-3 5 -10 1.96 1.49
3 -5 10 5.42 2.85
-3 5 -10 3.6 1.71
-3 5 -10 3.19 1.92
3 -5 10 4.69 2.95
3 -5 11 2.49 1.2
3 -5 11 2.79 1.47
-3 5 -11 0.4 0.35
-3 5 -11 0.41 0.15
3 -5 12 3.37 1.43
-3 5 -12 3.94 1.31
-3 5 -12 4.03 1.34
3 -5 13 61.55 4.54
3 -5 13 61 4.56
-3 5 -13 53.87 3.6
-3 5 -13 60.36 3.84
-3 4 15 77.67 4.5
3 -4 -15 71.87 4.26
-3 4 14 1.71 1.1
-3 4 14 1.19 0.72
3 -4 -14 1.25 1.02
-3 4 14 0.71 1.06
3 -4 -14 0.72 0.39
3 -4 -13 8.11 1.92
-3 4 13 7.12 2.34
-3 4 13 7.03 2.11
-3 4 13 5.39 1.58
-3 4 13 5.94 2.06
-3 4 12 6.8 2.28
-3 4 12 4.9 2.17
-3 4 12 4.15 1.81
-3 4 12 6.67 2.37
3 -4 -12 8.63 2.25
-3 4 12 4.46 2.09
-3 4 11 5.52 2.26
-3 4 11 2.85 1.82
-3 4 11 3.79 1.83
3 -4 -11 4.81 1.52
-3 4 11 5.05 2.32
-3 4 11 6.34 2.25
-3 4 10 244.67 15.93
-3 4 10 200.85 15.23
3 -4 -10 194.47 11.2
-3 4 10 219 14.22
-3 4 10 190.27 14.65
-3 4 10 203.97 14.37
-3 4 9 157.07 13.79
-3 4 9 179.87 14.2
3 -4 -9 202.1 16.41
-3 4 9 173.48 20.27
3 -4 -9 192.55 19.05
-3 4 9 175.78 19.1
-3 4 9 155.02 11.94
-3 4 9 168.84 13.98
-3 4 9 143.02 12.8
-3 4 8 128.83 11.76
-3 4 8 129.95 18.28
-3 4 8 122.15 12.13
-3 4 8 169.11 11.44
3 -4 -8 144.84 16.02
-3 4 8 155.45 16.9
-3 4 8 138.61 11.93
-3 4 8 131.75 10.65
-3 4 8 126.01 12.79
3 -4 -8 164.67 14.56
3 -4 -7 5.56 3.07
-3 4 7 5.8 3.16
-3 4 7 -1.05 1.92
3 -4 -7 5.52 2.52
-3 4 6 8.3 2.98
3 -4 -6 8.21 2.67
3 -4 -6 9.29 3.38
-3 4 6 10.78 3.64
-3 4 6 7.71 2.76
-3 4 5 1300.36 43.1
3 -4 -5 1349.73 38.81
-3 4 5 1307.48 37.41
3 -4 -5 1231.21 37.94
-3 4 4 2894.58 67.34
3 -4 -4 2479.89 53.41
3 -4 -4 2653.64 43.7
-3 4 4 2460.28 58.29
-3 4 4 2688.84 52.84
3 -4 -4 2874.77 56.57
-3 4 3 2.47 1.34
3 -4 -3 5.36 2.08
-3 4 3 2.11 1.16
3 -4 -3 2.22 1.18
3 -4 -3 2.77 1.65
-3 4 3 2.85 1.51
-3 4 2 114.35 10.06
3 -4 -2 125.7 8.51
3 -4 -2 126.85 8.84
-3 4 2 116.95 9.19
-3 4 2 122.58 9.24
-3 4 1 0.22 0.41
-3 4 1 1.23 0.55
3 -4 -1 0.55 0.32
-3 4 0 704.97 23.75
-3 4 0 725.53 24.49
-3 4 0 758.99 25.02
-3 4 -1 355.74 17.6
-3 4 -1 363.11 16.1
-3 4 -1 339.6 17.36
3 -4 1 365.16 18.74
-3 4 -2 213.87 11.88
-3 4 -2 193.35 13.68
-3 4 -2 187.21 13.73
3 -4 2 197.12 14.51
-3 4 -3 1254.31 38.72
-3 4 -3 1317.3 40.74
3 -4 3 1200.5 37.69
3 -4 4 98.69 10.59
-3 4 -4 121.73 13.09
-3 4 -4 101.27 11.38
-3 4 -5 56 9.73
3 -4 5 53.59 7.73
-3 4 -5 56.4 9.23
-3 4 -5 60.42 10.25
-3 4 -6 12.79 4.85
3 -4 6 19.36 4.65
-3 4 -6 14.81 4.81
-3 4 -7 461.97 19.49
-3 4 -7 492.34 30.63
3 -4 7 421.34 22.16
3 -4 7 445.66 21.42
-3 4 -7 420.98 33.39
-3 4 -7 455.22 17.92
-3 4 -7 437.56 18.66
3 -4 8 195.54 13.4
3 -4 8 202.58 14.5
-3 4 -8 204.25 22.65
-3 4 -8 186.27 11.31
-3 4 -8 185.48 11.91
3 -4 9 181.16 13.66
-3 4 -9 168.59 10.75
-3 4 -9 173.93 11.3
3 -4 9 181.81 12.72
-3 4 -9 198.07 12.75
-3 4 -10 115.43 8.63
3 -4 10 132.61 10.47
3 -4 10 120.62 10.79
-3 4 -10 125.71 9.81
-3 4 -10 107.37 8.34
3 -4 11 44.87 5.6
3 -4 11 41.78 5.95
-3 4 -11 43.11 5.32
-3 4 -11 42.68 4.99
3 -4 12 97.59 7.89
3 -4 12 95.74 7.21
-3 4 -12 86.6 6.41
-3 4 -12 94.94 6.96
3 -4 12 98.95 7.66
-3 4 -13 66.27 4.66
3 -4 13 61.74 5.14
3 -4 13 68.8 5.36
3 -4 13 53.59 4.35
-3 4 -13 61.66 4.6
-3 3 15 5.6 1.49
3 -3 -15 6.3 1.31
-3 3 15 6.41 1.52
3 -3 -15 5.02 1.3
-3 3 15 7.04 1.44
-3 3 15 7.95 1.83
-3 3 14 12.49 2.82
3 -3 -14 10.39 2.07
-3 3 14 12.91 2.73
-3 3 14 11.26 2.67
-3 3 14 11.38 2.6
-3 3 13 34.37 5.43
-3 3 13 33.34 4.76
-3 3 13 36.62 5.44
3 -3 -13 33.06 4.13
-3 3 13 35.11 5.45
-3 3 12 3.78 2.6
-3 3 12 2.52 1.35
-3 3 12 0.51 0.56
-3 3 12 2.62 1.55
3 -3 -12 0.7 0.77
-3 3 11 272.87 16.99
-3 3 11 307.03 16.7
-3 3 11 292.24 18.56
3 -3 -11 305.51 14.1
-3 3 11 277.73 15.74
-3 3 10 0.58 1.44
-3 3 10 0.96 0.71
-3 3 10 -1.45 3.1
3 -3 -10 1.6 0.92
3 -3 -10 -0.59 0.6
3 -3 -10 0.88 1.25
-3 3 10 1.28 2.79
-3 3 10 1.23 1.18
-3 3 10 0.15 1
-3 3 10 -1.8 1.54
-3 3 9 675.34 38.62
-3 3 9 712.09 27.46
3 -3 -9 824.78 32.73
3 -3 -9 791.5 37.64
-3 3 9 734.4 26.34
-3 3 9 652.54 30.18
-3 3 9 708.66 37.98
-3 3 9 654.62 27.51
-3 3 9 870.54 25.76
-3 3 9 581.62 26.28
-3 3 8 121.12 16.41
3 -3 -8 170.05 14.31
-3 3 8 146.49 16.24
3 -3 -8 151.25 15.42
-3 3 7 45.33 10.37
3 -3 -7 71.77 8.96
3 -3 -7 67.21 9.26
-3 3 7 70.57 10.6
-3 3 6 30.04 8.4
3 -3 -6 35.28 5.95
3 -3 -6 37.34 6.1
-3 3 6 25.1 5.68
-3 3 5 1496.23 49.56
3 -3 -5 1400.64 38.75
3 -3 -5 1405.52 36.95
-3 3 5 1426.23 33.83
3 -3 -4 40.71 5.55
-3 3 4 37.52 6.62
3 -3 -4 34.97 3.52
-3 3 4 38.57 6.34
-3 3 4 38.79 4.65
3 -3 -4 36.84 5.7
-3 3 3 564.65 22.86
-3 3 3 547.57 17.58
3 -3 -3 577.39 21.69
3 -3 -3 551.25 16.29
3 -3 -3 541.32 20.32
-3 3 3 614.92 20.07
-3 3 3 582.15 20.99
-3 3 2 388.06 17.58
3 -3 -2 409.51 16.09
3 -3 -2 452.81 15.88
-3 3 2 397.33 14.85
-3 3 2 418.54 17.26
-3 3 1 49.97 5.89
3 -3 -1 49.28 4.58
3 -3 -1 55.96 5.92
3 -3 -1 49.51 3.04
-3 3 1 51.38 5.88
-3 3 1 49.5 5.2
-3 3 0 1163.48 30.03
3 -3 0 1284.38 21.4
3 -3 0 1345.46 20.83
3 -3 0 1280 33.25
-3 3 0 1204.52 31.95
-3 3 0 1142 29.08
-3 3 -1 130.88 9.21
-3 3 -1 125.63 10.25
3 -3 1 131.04 11.14
-3 3 -1 131.82 9.68
3 -3 1 160.06 7.49
3 -3 2 130.23 11.5
-3 3 -2 137.22 10.65
3 -3 2 136.06 8.64
-3 3 -2 162.1 10.3
-3 3 -2 138.84 11.64
3 -3 3 141.93 12.11
-3 3 -3 147.41 11.99
3 -3 3 133 9.86
-3 3 -4 37.98 6.62
3 -3 4 41.66 6.53
3 -3 4 37.08 5.57
-3 3 -4 36.31 7.14
-3 3 -5 4.85 2.41
3 -3 5 4 1.96
3 -3 5 5.8 2.51
-3 3 -5 6.37 2.71
-3 3 -6 256.07 19.94
3 -3 6 259.79 16.5
3 -3 6 252.2 16.72
-3 3 -6 210.57 22.35
3 -3 7 162.05 12.99
3 -3 7 146.83 13.76
-3 3 -7 141.46 20.07
3 -3 7 154.43 11.41
-3 3 -8 104.11 8.64
3 -3 8 91.29 11.44
3 -3 8 103.16 10.11
3 -3 8 95.91 9.15
-3 3 -8 117.38 17.16
-3 3 -8 98.23 8.33
-3 3 -8 103.45 8.97
3 -3 9 244.45 15.66
-3 3 -9 235.2 13.09
3 -3 9 242.75 14.54
-3 3 -9 247.5 14.05
-3 3 -9 228.41 12.61
3 -3 10 123.43 8.55
3 -3 10 136.07 11.38
-3 3 -10 133.96 10.05
-3 3 -10 115.88 9
3 -3 10 127.84 10.25
3 -3 11 107.01 8.88
3 -3 11 104.43 9.38
3 -3 11 99.41 6.79
-3 3 -11 101.15 7.97
-3 3 -11 106.05 8.41
-3 3 -12 341.32 13.79
3 -3 12 313.76 14.87
3 -3 12 345.71 14.77
-3 3 -12 326.27 13.48
3 -3 13 671.38 19.12
3 -3 13 772.43 19.98
3 -3 13 700.76 19.44
-3 3 -13 759.43 18.79
-3 3 -13 774.76 18.25
3 -3 14 88.49 4.92
-3 3 -14 88.03 4.69
-3 2 15 81.08 6.33
-3 2 15 81.22 5.94
3 -2 -15 72.28 5.08
-3 2 15 82.58 6.01
-3 2 15 76.79 6.11
-3 2 14 169.33 10.28
-3 2 14 178.89 11.71
-3 2 14 164.89 10.94
3 -2 -14 164.79 9.03
-3 2 14 162.22 10.3
-3 2 13 25.18 4.21
-3 2 13 29.89 5.27
3 -2 -13 27.72 3.99
-3 2 13 32.18 5.04
-3 2 12 66.09 7.84
-3 2 12 59.74 7.11
-3 2 12 64.73 9.18
3 -2 -12 57.94 6.07
-3 2 11 8.85 3.12
-3 2 11 11 3.15
-3 2 11 10.21 4.05
-3 2 10 301.6 24.43
3 -2 -10 348.56 21.34
3 -2 -10 379.13 24.04
-3 2 10 333.85 17.46
-3 2 10 298.49 20.43
-3 2 10 311.91 25.82
-3 2 10 292.3 17.61
3 -2 -9 153.19 13.82
3 -2 -9 166.39 15.65
-3 2 9 154.34 11.35
-3 2 9 111.55 13.22
-3 2 9 145.82 11.46
-3 2 9 149.45 17.11
-3 2 9 122.97 11.26
-3 2 9 145.1 16.93
3 -2 -8 61.38 8.38
3 -2 -8 49.43 8.43
-3 2 8 44.83 8.84
-3 2 8 48.62 9.52
3 -2 -7 256.9 16.9
3 -2 -7 233.06 16.36
-3 2 6 105.79 12.95
3 -2 -6 118.08 10.98
3 -2 -6 112.28 10.11
-3 2 6 88.09 10.82
3 -2 -5 3.41 1.05
-3 2 5 1.22 1.23
3 -2 -5 2.77 1.44
-3 2 5 3.73 1.93
-3 2 4 765.1 25.13
-3 2 4 731.4 17.32
-3 2 4 703.86 26.49
3 -2 -4 649.52 16.07
3 -2 -4 724.29 26.47
3 -2 -4 730.75 22.41
3 -2 -4 724.97 16.13
-3 2 4 679.59 22.62
-3 2 3 93.67 8.56
3 -2 -3 101.89 4.8
3 -2 -3 93.62 6.31
3 -2 -3 102.04 9.21
-3 2 3 85.76 5.55
-3 2 3 101.07 8.43
-3 2 3 96.69 6.26
-3 2 2 531.04 11.29
-3 2 2 553.71 19.76
-3 2 2 547.49 19.59
3 -2 -2 499.99 19.99
3 -2 -2 549.41 17.98
3 -2 -2 533.43 11.39
-3 2 2 531.23 15.02
-3 2 1 432.62 16.83
3 -2 -1 438.58 17.4
3 -2 -1 465.59 18.27
3 -2 -1 444.15 12.86
-3 2 1 465.83 14.93
-3 2 1 469.09 18.02
-3 2 0 2340.88 40.92
-3 2 0 2326.72 45.69
-3 2 0 2309.6 42.58
3 -2 0 2234.29 33.92
-3 2 -1 1129.66 28.18
-3 2 -1 1145.14 31.48
-3 2 -1 1064.23 28.08
3 -2 1 1105.3 22.12
-3 2 -2 2.25 2.2
3 -2 2 3.95 2.94
3 -2 2 1.12 0.91
-3 2 -2 0.51 1.18
3 -2 3 28.51 5.26
-3 2 -3 29.14 5.29
-3 2 -3 34.3 6.11
3 -2 3 30.7 4.31
-3 2 -4 2.94 1.8
3 -2 4 1.71 1.27
3 -2 4 3.06 1.39
-3 2 -4 2.1 0.48
3 -2 5 504.32 23.62
3 -2 5 453.85 22.4
-3 2 -5 524.42 31.1
3 -2 6 159.46 13.05
3 -2 6 157.88 13.75
-3 2 -6 138.71 19.15
3 -2 7 154.85 12.5
3 -2 7 137.23 13.42
-3 2 -7 151.98 21.58
3 -2 8 297.63 20.94
3 -2 8 303.58 15.77
3 -2 8 306 17.09
-3 2 -8 354.92 29.82
-3 2 -8 309.64 15.38
-3 2 -8 319.7 15.55
3 -2 9 271.1 20.76
3 -2 9 257.07 15.87
-3 2 -9 277.4 14.43
-3 2 -9 285.24 14.93
3 -2 9 276.97 15.22
-3 2 -10 245.15 13.49
3 -2 10 243.42 15.14
-3 2 -10 239.82 13.3
3 -2 10 241.22 12.46
3 -2 10 242.61 14.1
3 -2 11 21.94 3.55
-3 2 -11 19.69 3.57
3 -2 11 23.76 4.35
3 -2 11 21.33 3.93
-3 2 -11 18.82 3.51
-3 2 -12 29.13 4.14
-3 2 -12 30.19 4.06
3 -2 12 29.77 4.46
3 -2 12 35.15 4.68
3 -2 12 28.79 3.52
3 -2 13 40.32 4.45
-3 2 -13 52.7 4.8
-3 2 -13 45.31 4.23
3 -2 13 49.4 4.81
3 -2 14 167.99 7.68
3 -2 14 188.19 7.39
-3 1 16 0.34 0.34
3 -1 -16 1.18 0.5
-3 1 16 1.79 0.75
-3 1 16 1.23 0.56
3 -1 -15 2.2 0.61
-3 1 15 3.45 1.15
-3 1 15 3.38 1.25
-3 1 15 2.36 1.26
-3 1 15 1.82 1.17
-3 1 14 265.35 14.18
3 -1 -14 270.05 12.01
-3 1 14 248.74 12.88
-3 1 14 283.49 15.76
-3 1 14 238.58 12.71
-3 1 13 522.65 20.78
3 -1 -13 472.42 17.57
-3 1 13 457.43 19.89
-3 1 12 889.67 29.04
-3 1 12 967.79 35.61
-3 1 11 14.74 3.84
3 -1 -11 11.43 3.81
-3 1 11 14.05 3.67
-3 1 11 16.25 5.12
-3 1 11 14.5 3.63
-3 1 10 431.81 21.14
3 -1 -10 450.32 24.61
-3 1 10 425.3 20.24
3 -1 -10 441.45 24.43
-3 1 10 476.13 21.03
-3 1 10 439.53 25.87
-3 1 9 88.62 12.44
3 -1 -9 49.1 6.83
-3 1 9 78.68 12.48
3 -1 -9 46.16 8.2
3 -1 -9 42.23 7.53
-3 1 8 968.26 39.82
3 -1 -8 621.64 23.81
3 -1 -8 629.19 28.27
3 -1 -8 507.46 26.5
-3 1 8 1044.4 43.38
-3 1 7 988.68 40.19
3 -1 -7 993.29 29.05
3 -1 -7 1046.59 34.11
3 -1 -7 1056.04 36.43
-3 1 6 337.31 20.55
3 -1 -6 327.26 15.16
3 -1 -6 351.17 20.05
-3 1 6 364.03 21.36
3 -1 -5 916.82 25.51
-3 1 5 897.57 30.31
-3 1 4 387.25 17.2
3 -1 -4 326.67 12
-3 1 4 385.5 20.59
3 -1 -4 329.74 13.4
-3 1 4 312.46 14.09
-3 1 4 322.94 16.31
-3 1 3 75.09 5.62
3 -1 -3 73.5 5.33
3 -1 -3 77.47 6.03
-3 1 3 77.09 9.33
-3 1 3 84.26 7.48
-3 1 3 63.38 3.31
-3 1 3 68.85 6.96
-3 1 2 428.41 16.84
-3 1 2 408.09 12.19
-3 1 2 452.8 23.24
-3 1 2 396.6 11.75
-3 1 2 435.41 16.88
-3 1 1 131.51 9.1
-3 1 1 133.23 9.66
-3 1 1 122.88 7.82
3 -1 -1 119.5 5.58
-3 1 1 135.58 13.05
-3 1 0 273.15 14.11
3 -1 0 299.85 11.9
-3 1 0 302.45 13.87
3 -1 0 295.03 10.05
-3 1 0 265.42 15.09
-3 1 -1 40.89 5.32
-3 1 -1 49.16 6.19
-3 1 -1 44.52 7.57
-3 1 -1 48.29 6.68
3 -1 1 57.76 4.96
3 -1 1 51.81 4.72
3 -1 2 314.41 12.8
-3 1 -2 244.6 15.13
3 -1 2 240.31 11.39
3 -1 2 294.7 14.07
-3 1 -2 314.75 16.87
-3 1 -2 275.24 17.87
3 -1 3 2352.06 45.55
3 -1 3 2427 43.66
-3 1 -3 2482.61 56.29
3 -1 3 2350.65 50.72
3 -1 4 582.75 22.79
3 -1 4 528.93 20.56
-3 1 -4 570.14 28.45
3 -1 4 550.17 25.21
3 -1 5 516.34 24.25
3 -1 5 779.71 33.52
-3 1 -5 595.75 31.24
3 -1 5 736.1 29.2
-3 1 -5 722.33 38.6
3 -1 6 1681.93 45.44
3 -1 6 1598 47.74
-3 1 -6 1634.77 58.63
3 -1 7 136.18 14.03
-3 1 -7 135.28 16.02
-3 1 -7 155.21 21.98
3 -1 8 339.04 23.31
3 -1 8 379.39 18.99
-3 1 -8 314.96 15.62
-3 1 -8 298.12 27.38
-3 1 -8 295.95 15.88
-3 1 -8 329.11 16.81
3 -1 8 379.15 17.39
3 -1 9 15.45 3.83
-3 1 -9 13.43 3.23
-3 1 -9 15.13 3.35
3 -1 9 15.64 5.48
-3 1 -9 12.81 3.26
3 -1 9 18.24 3.96
3 -1 10 447.46 17.73
3 -1 10 457.45 19.31
3 -1 10 471.37 21.4
-3 1 -10 271.59 14.94
-3 1 -10 302.54 15.01
-3 1 -10 230.47 13.3
3 -1 11 570.68 22.51
-3 1 -11 534.61 19.98
-3 1 -11 526.61 18.22
-3 1 -11 536.08 19.35
3 -1 11 617.6 19.45
3 -1 11 589.86 21.21
-3 1 -12 59 5.32
3 -1 12 123.8 8.79
3 -1 12 130.78 9.45
-3 1 -12 76.56 7.09
-3 1 -12 77.63 6.62
3 -1 12 131.16 7.97
3 -1 13 2.51 0.95
3 -1 13 1.4 0.7
3 -1 13 0.52 0.34
-3 1 -13 3.12 1.33
-3 1 -13 0.47 0.12
3 -1 14 0.84 0.31
-3 1 -14 1.7 0.47
3 0 -16 2.86 0.96
-3 0 16 3.34 1.07
-3 0 15 22.53 3.36
-3 0 15 34.64 4.12
-3 0 15 33.56 4.54
-3 0 15 26.81 3.29
3 0 -15 31.75 3.63
-3 0 14 13.15 3.11
-3 0 14 11.36 2.65
3 0 -14 14.76 2.98
-3 0 14 12.61 2.78
-3 0 14 15.97 3.77
-3 0 13 10.3 3.2
-3 0 13 9.94 3.77
-3 0 13 7.79 2.73
-3 0 12 621.22 24.36
-3 0 12 646.61 29.38
-3 0 12 551.16 22.64
-3 0 12 540.9 22.16
-3 0 11 43.27 6.97
-3 0 11 56.5 7.93
-3 0 11 55.62 7.89
-3 0 11 69.07 10.24
3 0 -10 5.83 2.84
-3 0 10 7.34 2.74
3 0 -10 6.44 2.97
-3 0 10 7.2 2.9
3 0 -10 7.08 3.01
-3 0 10 4.03 3.96
-3 0 10 8.19 3.34
-3 0 10 6.06 3.91
3 0 -9 79.94 9.47
3 0 -9 87.05 11.06
3 0 -9 92.96 9.85
-3 0 9 80.44 12.79
3 0 -8 73.29 8.9
3 0 -8 74.47 10.18
3 0 -8 91.93 9.29
-3 0 8 66.91 11.31
-3 0 7 36.97 7
3 0 -7 42.41 7.16
3 0 -7 45.97 8.71
3 0 -7 43.01 6.44
-3 0 7 42.6 8.85
-3 0 6 543.62 25.42
-3 0 6 480.95 22.23
3 0 -6 498.84 20.22
3 0 -6 451.99 19.15
-3 0 6 583.88 24.2
-3 0 5 51.97 8.29
-3 0 5 48.11 8.63
3 0 -5 58.84 7.72
-3 0 5 39.87 7.29
3 0 -5 28.27 4.44
-3 0 4 2.87 1.23
3 0 -4 1.19 0.84
3 0 -4 1.24 0.95
-3 0 4 1.7 2.51
-3 0 3 633.87 20.81
3 0 -3 628.45 19.37
-3 0 3 578.57 18.1
3 0 -3 587.73 15.23
-3 0 3 648.11 28.75
-3 0 2 67.79 8.69
-3 0 2 60.6 9.47
-3 0 2 25.62 3.46
-3 0 2 23.52 3.71
-3 0 1 2751.1 48.23
-3 0 1 2808.75 66.14
3 0 -1 2873.54 43.81
-3 0 1 2823.16 49.28
-3 0 0 451.04 23.15
3 0 0 408.33 15.22
3 0 0 425.76 14.03
-3 0 0 442.91 17.23
-3 0 0 474.98 17.81
3 0 1 1926.16 36.57
3 0 1 1876.5 35.73
-3 0 -2 68.22 8.3
3 0 2 61.54 5.82
3 0 2 63.35 6.32
-3 0 -2 60.49 7.25
-3 0 -3 862.25 29.67
3 0 3 820.76 23.72
-3 0 -3 763.71 27.03
3 0 3 777.3 27.04
-3 0 -3 832.82 30.21
-3 0 -4 417.44 20.17
3 0 4 436.71 18.65
-3 0 -4 420.64 23.18
-3 0 -4 483.67 27.33
3 0 4 405.33 21.73
3 0 5 319.13 19.84
3 0 5 348.49 18.78
-3 0 -5 246.4 20.7
-3 0 -5 294.07 22.64
3 0 5 290.04 20.5
-3 0 -6 35.76 9.84
3 0 6 41.17 8.12
3 0 6 37.99 7.35
-3 0 -6 39.14 9.08
3 0 6 37.59 8.06
-3 0 -7 79.41 7.55
3 0 7 89.69 13.09
3 0 7 62.86 10.11
3 0 7 82.89 11.28
-3 0 -7 81.22 12.29
-3 0 -7 74.5 13.64
-3 0 -7 80.88 8.13
-3 0 -8 55.46 11.09
3 0 8 46.47 9.09
-3 0 -8 44.31 9.35
3 0 8 44.45 6.36
-3 0 -8 52.93 6.78
3 0 8 48.82 5.96
-3 0 -8 50.94 6.19
-3 0 -8 53.08 6.98
3 0 9 340.54 15.59
3 0 9 306.14 17.26
-3 0 -9 346.99 17.11
-3 0 -9 324.95 16.68
-3 0 -9 325.93 15.86
3 0 9 307.89 15.61
3 0 10 111.14 10.14
3 0 10 147.04 9.99
-3 0 -10 125.71 9.58
-3 0 -10 153.97 11.2
-3 0 -10 136.57 10.18
3 0 10 139.49 10.21
3 0 11 51.39 6.43
-3 0 -11 56.68 5.97
-3 0 -11 59.66 6.45
-3 0 -11 51.59 5.63
3 0 11 58.44 6.21
3 0 11 58.57 5.9
3 0 12 4.93 1.47
-3 0 -12 7.87 1.92
3 0 12 6.13 1.95
-3 0 -12 8.19 2.21
3 0 12 5.77 1.71
-3 0 -12 4.32 1.47
3 0 13 4.69 1.28
-3 0 -13 5.13 1.23
-3 0 -13 5.78 1.44
-3 0 -13 5.48 1.5
3 0 13 6.1 1.43
-3 0 -14 55.66 3.61
-3 -1 16 66.61 4.21
-3 -1 16 65.17 4.45
3 1 -16 76.19 4.23
-3 -1 15 110.16 7.26
-3 -1 15 105.85 7.91
3 1 -15 123.39 7.06
-3 -1 14 5.09 1.64
-3 -1 14 5.98 1.78
-3 -1 14 8.95 2.52
-3 -1 14 8.29 2.46
3 1 -14 9.72 2.31
-3 -1 13 10.43 2.69
-3 -1 13 11.92 2.78
-3 -1 13 12.94 3.17
-3 -1 13 11.44 3.41
3 1 -13 11.46 2.28
-3 -1 12 77.11 8.26
-3 -1 12 83.05 8.67
-3 -1 12 72.99 9.83
3 1 -12 63.75 6.14
-3 -1 12 78 7.86
-3 -1 11 64.59 7.89
-3 -1 11 56.83 9.26
-3 -1 11 50.55 7.01
3 1 -11 54.58 5.96
3 1 -10 75.96 10.28
3 1 -10 88 11.6
-3 -1 10 69.75 12.88
-3 -1 10 70.43 8.43
-3 -1 10 71.83 8.25
-3 -1 10 74.72 10.28
3 1 -10 71.2 6.87
-3 -1 9 195.78 20.81
3 1 -9 217.79 17.39
-3 -1 9 262.61 15.77
-3 -1 9 224.74 14.7
-3 -1 9 178.73 16.89
-3 -1 9 237.85 14.73
3 1 -9 224.09 18.96
-3 -1 8 101.76 14.04
3 1 -8 98.38 11.14
3 1 -8 105.14 12.89
3 1 -7 77.77 9.19
-3 -1 7 82.58 11.27
3 1 -6 923.62 30.1
-3 -1 6 906.57 33.91
-3 -1 6 929.71 32.72
-3 -1 6 844.54 27.13
-3 -1 5 22.33 3.98
3 1 -5 18.75 3.81
-3 -1 5 15.99 4.26
-3 -1 5 20.04 4.43
-3 -1 4 254.23 18.13
-3 -1 4 235.47 12.82
3 1 -4 276.75 14.42
3 1 -4 254.9 10.37
-3 -1 4 244.58 13.79
-3 -1 3 61.71 6.16
3 1 -3 66.99 6.86
-3 -1 3 72.03 6.71
3 1 -3 63.98 3.96
-3 -1 3 57.38 6.13
-3 -1 3 57.98 8.93
-3 -1 2 264.69 12.94
3 1 -2 258.24 13.11
3 1 -2 230.14 6.67
-3 -1 2 235.47 18.48
-3 -1 2 247.51 11.98
-3 -1 2 263.69 13.22
3 1 -1 37.37 4.83
-3 -1 1 29.21 6.9
-3 -1 1 33.78 4.29
3 1 0 829.94 24.06
3 1 0 853.68 24.1
-3 -1 0 801.16 23.2
3 1 1 327.82 14.55
3 1 1 320.09 14.59
-3 -1 -1 336.29 15.43
-3 -1 -2 59.29 8.29
3 1 2 61.24 6.25
3 1 2 53.63 6.39
-3 -1 -2 57.67 6.91
-3 -1 -3 415.32 19.55
-3 -1 -3 502.14 23.68
-3 -1 -3 457.94 20.82
3 1 3 488.08 21.71
-3 -1 -3 487.22 22.39
3 1 3 503.49 19.14
-3 -1 -4 148.19 12.86
-3 -1 -4 167.37 13.12
3 1 4 162.74 11.74
-3 -1 -4 140.75 13.84
3 1 4 160.43 13.83
-3 -1 -4 159.57 14.2
3 1 5 340.56 19.18
-3 -1 -5 290.26 21.47
3 1 5 313.07 22.06
3 1 6 452.51 29.16
3 1 6 465.29 25.35
-3 -1 -6 509.92 33.41
3 1 6 479.25 28.34
-3 -1 -7 2.68 0.27
-3 -1 -7 5.56 3.85
3 1 7 2.52 2.01
-3 -1 -7 1.54 1.29
3 1 7 3.28 3.07
-3 -1 -7 3.2 1.64
3 1 7 3.43 2.13
3 1 7 3.48 2.14
-3 -1 -7 1.49 1.24
-3 -1 -7 4.2 1.91
3 1 8 76.64 7.56
-3 -1 -8 80.86 6.56
3 1 8 80.29 11.74
-3 -1 -8 74.29 11.7
3 1 8 76.3 8.46
-3 -1 -8 93.95 9.58
-3 -1 -8 90.1 8.28
-3 -1 -8 82.33 8.63
-3 -1 -8 78.24 12.95
3 1 8 79.69 13.29
-3 -1 -9 0.5 0.72
3 1 9 -0.84 0.67
3 1 9 -0.52 0.81
-3 -1 -9 -0.73 0.79
-3 -1 -9 0.48 1.01
3 1 10 62.66 7.42
-3 -1 -10 73.84 7.6
-3 -1 -10 71.29 7.33
-3 -1 -10 72.07 7.08
3 1 10 70.93 7.01
3 1 10 68.2 6.74
-3 -1 -11 90.27 7.35
-3 -1 -11 88.15 7.49
-3 -1 -11 86.84 7.7
3 1 11 76.94 6.84
3 1 11 86.9 7.27
-3 -1 -12 10.42 2.18
3 1 12 12.6 2.52
-3 -1 -12 11.13 2.38
-3 -1 -12 11.91 2.31
3 1 12 9.9 2.04
3 1 13 -0.46 0.81
-3 -1 -13 1.07 0.76
3 1 13 -1.08 0.79
-3 -1 -13 -0.72 0.56
-3 -1 -13 0.15 0.21
-3 -2 15 69.65 5.77
-3 -2 15 70.6 5.43
3 2 -15 84.96 5.45
-3 -2 14 3.06 1.37
-3 -2 14 2.53 1.12
3 2 -14 2.61 0.96
-3 -2 14 -0.35 0.98
-3 -2 13 65.64 7.21
-3 -2 13 82.59 8.91
-3 -2 13 74.24 7.71
3 2 -13 78.34 6.47
-3 -2 12 66.45 8.72
-3 -2 12 63.17 7.63
-3 -2 12 55.28 7.11
3 2 -12 68.24 6.64
-3 -2 11 18.9 4.17
-3 -2 11 20.66 4.33
-3 -2 11 24.89 5.79
3 2 -11 21.22 3.88
3 2 -10 98.29 12.77
3 2 -10 90.67 12.49
-3 -2 10 92.36 15.07
-3 -2 10 66.58 9.95
-3 -2 10 84.19 9.15
-3 -2 10 84.76 9.2
3 2 -10 90.58 8.46
3 2 -9 218.97 19.16
3 2 -9 218.64 19.99
-3 -2 9 216.91 14.1
-3 -2 9 198.9 21.56
-3 -2 9 193.4 12.94
-3 -2 9 189.1 16.53
-3 -2 9 219.09 14.43
-3 -2 9 210 14.51
3 2 -8 0.46 1.8
-3 -2 8 1.18 1.78
3 2 -7 1321.71 42.74
-3 -2 7 1331.4 47.89
3 2 -6 1288.15 38.99
-3 -2 6 1174.99 41.05
3 2 -5 102.47 9.98
-3 -2 5 91.84 11.66
-3 -2 5 99.38 10.41
3 2 -4 430.38 19.92
-3 -2 4 416.21 25.85
-3 -2 4 394.12 19.58
-3 -2 3 52.33 6.67
3 2 -3 59.58 7.11
-3 -2 3 49.14 9.21
-3 -2 2 26.22 3.8
-3 -2 2 26.73 7.07
3 2 -2 22.21 4.22
3 2 -1 902.98 28.6
-3 -2 1 923.86 23.4
3 2 0 25.23 4.41
-3 -2 0 29.09 7.15
3 2 0 22.15 3.87
-3 -2 0 23.66 3.58
3 2 1 589.3 21.11
3 2 1 588.03 23.08
-3 -2 -1 562.36 19.48
-3 -2 -2 70.09 9.76
-3 -2 -2 66.66 8.35
3 2 2 61.53 6.76
3 2 2 57.65 7.3
-3 -2 -2 57.25 6.58
-3 -2 -3 522.13 25.79
-3 -2 -3 577.39 23.64
3 2 3 529.38 21.08
-3 -2 -3 500.27 21.61
3 2 3 535.13 24.72
-3 -2 -3 548.32 27.07
-3 -2 -4 8.29 3.17
-3 -2 -4 8.96 4.33
-3 -2 -4 10.58 3.38
3 2 4 9.48 3.09
-3 -2 -4 8.22 3.37
3 2 4 11.54 3.82
3 2 5 7.8 3.82
-3 -2 -5 5.66 3.13
3 2 5 7.22 2.97
-3 -2 -5 7.72 4.39
-3 -2 -6 295.45 13.29
3 2 6 249.92 13.18
3 2 6 271.04 20
-3 -2 -6 314.36 26.01
-3 -2 -6 242.33 15.44
-3 -2 -6 262.71 16.61
3 2 6 298.1 24.34
-3 -2 -6 290.13 15.68
-3 -2 -7 8.41 2.08
3 2 7 7.7 3.17
3 2 7 8.46 4.05
-3 -2 -7 2.95 3.34
-3 -2 -7 7.15 2.95
-3 -2 -7 5.47 2.56
3 2 7 9.66 2.85
-3 -2 -7 6.65 2.36
3 2 7 7.05 3.77
3 2 8 -0.97 1.06
-3 -2 -8 0.43 1.26
-3 -2 -8 1.67 1.36
-3 -2 -8 -0.12 1.41
-3 -2 -8 -0.62 1.31
-3 -2 -9 28.08 3.7
-3 -2 -9 28.72 4.71
-3 -2 -9 27.83 4.98
-3 -2 -9 29.15 5.05
3 2 9 26.04 3.95
3 2 9 28.45 4.52
3 2 10 5.35 1.81
-3 -2 -10 6.06 2.15
-3 -2 -10 4.65 1.74
3 2 10 5.87 1.71
-3 -2 -10 4.6 1.9
-3 -2 -11 192.58 10.99
3 2 11 213.83 11.19
-3 -2 -11 211.88 11.41
-3 -2 -11 201.85 10.71
-3 -2 -12 67.32 5.42
-3 -2 -12 66.41 5.33
-3 -2 -12 66.35 5.12
3 2 12 67.87 5.57
-3 -2 -13 105.42 5.23
3 2 13 118.64 5.93
-3 -3 15 16.51 2.33
3 3 -15 18.9 2.21
-3 -3 14 1.94 1.08
-3 -3 14 0.89 0.81
-3 -3 14 2.29 0.86
3 3 -14 1.31 0.73
-3 -3 13 99.69 8.43
-3 -3 13 94.11 8.61
-3 -3 13 104.21 8.71
3 3 -13 100.77 7.46
-3 -3 12 15.05 3.68
-3 -3 12 16.56 3.87
-3 -3 12 12.59 3.28
3 3 -12 14.36 2.96
-3 -3 11 312.07 17.74
-3 -3 11 321.36 17.94
3 3 -11 357.16 16.94
-3 -3 10 230.08 15.79
-3 -3 10 203.39 16.37
-3 -3 10 241.78 15.83
-3 -3 9 274.26 16.8
3 3 -9 315.13 24.45
3 3 -9 305.28 24.35
-3 -3 9 271.09 15.86
-3 -3 9 295.95 19.45
-3 -3 9 342.4 29.06
-3 -3 9 305.9 17.45
-3 -3 9 303.95 18.15
-3 -3 8 1.06 1.17
3 3 -8 3.76 2.13
-3 -3 8 1.91 1.78
-3 -3 8 1.98 1.39
-3 -3 8 2.61 1.7
-3 -3 8 2.11 1.8
3 3 -7 18.82 5.26
-3 -3 7 11.52 4.52
3 3 -6 279.03 18.92
-3 -3 6 263.38 21.49
-3 -3 6 264.04 20.24
3 3 -5 51.25 7.61
-3 -3 5 45.94 9.3
-3 -3 5 45.8 7.76
-3 -3 4 87.99 10.27
3 3 -4 90.36 9.83
-3 -3 4 75.92 12.07
3 3 -3 20.68 4.63
-3 -3 3 20.54 6.95
3 3 -3 19.36 5.65
3 3 -2 1676.27 44.76
-3 -3 2 1339.2 62.47
3 3 -1 28.39 5.74
3 3 -1 28.16 5.41
-3 -3 1 37.04 10.99
3 3 0 434.05 19.29
3 3 0 478.52 22.65
-3 -3 -1 113.74 14.46
3 3 1 106.19 10.71
3 3 1 98.02 8.9
3 3 2 69.52 7.65
3 3 2 73.68 9.33
-3 -3 -2 77.44 11.16
-3 -3 -3 142.4 14.81
-3 -3 -3 147.4 15.12
3 3 3 161.54 12.08
3 3 3 156.07 14.44
-3 -3 -4 1.71 2.44
3 3 4 1.18 1.76
-3 -3 -4 0.44 1.33
3 3 4 2.2 1.88
-3 -3 -5 27.14 8.12
-3 -3 -5 28.01 5.17
3 3 5 38.54 6.98
-3 -3 -5 33.92 5.6
3 3 5 28.74 4.3
-3 -3 -5 33.53 5.51
-3 -3 -5 38.38 4.95
3 3 5 41.95 8.78
-3 -3 -6 439.33 20.4
-3 -3 -6 448.09 17.08
-3 -3 -6 489.08 31.06
3 3 6 421.27 26.1
-3 -3 -6 365.41 20.55
-3 -3 -6 394.09 20.3
3 3 6 446.45 31.36
3 3 6 396.25 17.32
-3 -3 -7 1042.83 27.03
3 3 7 1125.68 52.37
-3 -3 -7 1150.64 33.4
-3 -3 -7 1034.55 34.1
-3 -3 -7 1044.83 36.23
3 3 7 1018.71 29.25
3 3 8 0.93 1.43
-3 -3 -8 0.73 0.84
-3 -3 -8 2.03 1.57
-3 -3 -8 3.57 2.41
-3 -3 -8 3.75 2.22
3 3 8 1.55 1.29
3 3 9 32.53 4.37
-3 -3 -9 39.28 5.49
3 3 9 36.62 5.05
-3 -3 -9 40.07 5.7
-3 -3 -9 42.07 6.15
-3 -3 -9 35.48 4.1
3 3 10 78.34 7.08
-3 -3 -10 73.74 6.99
-3 -3 -10 84.26 7.23
-3 -3 -10 88.42 7.92
3 3 10 71.31 5.86
-3 -3 -11 33.76 4.26
-3 -3 -11 31 3.84
-3 -3 -11 38.31 4.23
3 3 11 34.81 4.16
-3 -3 -12 51.42 4.2
-3 -3 -12 49.13 3.86
3 3 12 51.54 4.37
3 4 -14 332.22 10.37
-3 -4 14 336.71 12.11
3 4 -14 333.1 10.7
-3 -4 14 319.37 11.87
-3 -4 13 31.54 4.4
-3 -4 13 27.77 4.03
3 4 -13 32.54 4.04
-3 -4 12 70.33 7.57
-3 -4 12 83.44 8.09
3 4 -12 78.52 7.11
-3 -4 11 272.33 16.76
-3 -4 11 248.74 15.8
-3 -4 10 120.1 11.23
-3 -4 10 116.36 10.94
-3 -4 9 523.56 23.74
-3 -4 9 528.3 23.8
-3 -4 8 125.26 17.18
3 4 -8 132 15.61
-3 -4 8 101.95 10.19
-3 -4 8 99.59 10.18
3 4 -8 123.5 9.79
-3 -4 8 120.11 11.58
-3 -4 8 122.63 10.57
-3 -4 7 249.96 16.23
-3 -4 7 382.86 20.4
-3 -4 7 297.68 25.17
3 4 -7 380.26 25.1
-3 -4 7 298.48 16.53
-3 -4 7 265.34 15.43
-3 -4 6 256.05 16.49
3 4 -6 283.16 20.5
-3 -4 6 270.95 24.46
-3 -4 6 226.78 13.72
-3 -4 6 248.41 21.15
-3 -4 6 288.61 15.86
3 4 -5 206.47 16.57
3 4 -5 208.68 18.87
-3 -4 5 188.41 21.19
-3 -4 5 176.96 16.61
-3 -4 4 341.3 30.39
3 4 -4 334.77 20.56
3 4 -4 313.64 22.59
3 4 -3 158.82 13.84
3 4 -3 190.28 16.33
3 4 -2 569.66 26.26
-3 -4 2 495.74 45.81
3 4 -2 563.92 28.58
3 4 -2 568.24 24.82
-3 -4 1 650.34 54.79
3 4 -1 704.98 30.63
3 4 -1 578.45 24.53
3 4 0 335.52 17.83
3 4 0 378.71 22.3
3 4 0 379.99 19.05
-3 -4 -1 616.18 38.26
3 4 1 537.29 22.77
3 4 1 554.39 27.85
-3 -4 -2 250.25 22.77
3 4 2 235.1 15.06
3 4 2 261.06 19.49
-3 -4 -3 234.54 21.49
-3 -4 -3 246.04 13.49
3 4 3 256.46 16.44
3 4 3 276.16 21.66
-3 -4 -3 264.68 15.71
-3 -4 -3 265.07 15.34
-3 -4 -4 642.73 21.87
-3 -4 -4 445.25 31.44
3 4 4 607.43 27.62
-3 -4 -4 597.98 23.24
-3 -4 -4 670.3 25.84
3 4 4 692.14 36
-3 -4 -4 548.89 23.21
-3 -4 -4 541.66 23.74
3 4 4 588.21 21.84
-3 -4 -5 128.35 9.44
-3 -4 -5 98.87 15.87
3 4 5 129.15 10.18
3 4 5 136.28 13.93
-3 -4 -5 119.48 10.59
3 4 5 141.64 17.16
-3 -4 -5 128.01 11.39
-3 -4 -5 125.71 11.33
-3 -4 -5 127.46 11.83
3 4 5 124.39 9.68
-3 -4 -6 769.96 23.4
-3 -4 -6 767.71 28.02
3 4 6 754.9 25.23
-3 -4 -6 764.38 30.33
-3 -4 -6 723.59 28.26
-3 -4 -6 760.93 28.34
3 4 6 818.7 25.79
-3 -4 -7 42.27 5.2
-3 -4 -7 60.24 8.4
-3 -4 -7 52.24 7.1
3 4 7 68.39 7.46
-3 -4 -7 57.04 7.53
-3 -4 -7 50.17 7.03
3 4 7 76.96 7.52
-3 -4 -8 387.04 14.79
-3 -4 -8 518.01 22.6
-3 -4 -8 457.82 18.64
-3 -4 -8 469.63 19.9
3 4 8 435.7 17.11
3 4 8 464.4 18.69
3 4 9 37.13 5.24
-3 -4 -9 23.94 4.26
-3 -4 -9 20.88 4.51
3 4 9 34.34 4.6
-3 -4 -10 16.08 3.14
-3 -4 -10 16.67 2.98
3 4 10 18.25 2.87
3 4 10 21.6 3.47
-3 -4 -11 245.23 10.12
3 4 11 247.03 9.99
-3 -4 -11 196.85 8.58
3 4 11 210.84 7.62
3 4 11 274.18 10.86
-3 -4 -12 20.37 2.09
3 4 12 20.17 2.15
3 5 -14 25.94 2.32
-3 -5 14 29.53 2.89
-3 -5 13 139.1 8.35
-3 -5 13 144.13 8.05
3 5 -13 147.22 7.59
-3 -5 12 65.75 7.05
-3 -5 12 72.53 6.99
3 5 -12 78.21 6.74
-3 -5 11 35.71 5.54
-3 -5 11 31.38 5.04
3 5 -11 34.04 4.9
-3 -5 10 21.57 4.83
-3 -5 10 12.79 3.69
-3 -5 10 24.24 5.17
-3 -5 9 234.21 15.89
-3 -5 9 217.32 15.12
3 5 -9 251.66 14.36
-3 -5 9 224.54 14.84
-3 -5 9 216.97 14.27
-3 -5 8 46.28 7.27
-3 -5 8 30.46 5.61
-3 -5 8 29.33 5.62
3 5 -8 29.62 5.02
-3 -5 8 44.46 6.67
-3 -5 7 28.76 7.07
-3 -5 7 28.14 5.86
-3 -5 7 22.14 5
3 5 -7 16.75 5.07
-3 -5 7 35.17 6.02
-3 -5 6 131.34 12.49
-3 -5 6 125.53 11.48
3 5 -6 197.52 18.38
3 5 -6 180.1 19.75
-3 -5 6 84.44 15.26
-3 -5 6 127.9 11.4
-3 -5 6 94.68 9.25
-3 -5 5 132.23 12.1
-3 -5 5 200.01 13.43
3 5 -5 172.74 16.25
3 5 -5 186.1 18.76
-3 -5 5 145.71 20.17
-3 -5 5 150.56 11.06
-3 -5 5 162.11 12.31
-3 -5 4 294.62 16.35
3 5 -4 233.93 12.98
3 5 -4 269.49 19.61
-3 -5 4 245.92 27.77
-3 -5 4 290.82 14.98
3 5 -4 251.78 12.24
-3 -5 4 263.47 16.08
3 5 -3 147.26 9.5
3 5 -3 168.83 16.62
-3 -5 3 148 11.22
3 5 -3 146.56 9.8
3 5 -3 159.94 14.8
-3 -5 3 123.18 21.07
3 5 -3 142.74 13.05
-3 -5 3 137.75 10.02
-3 -5 3 166.8 12.94
-3 -5 2 4.72 2.51
3 5 -2 3.3 1.73
3 5 -2 8.44 3.49
3 5 -2 -0.39 1.64
-3 -5 2 5.5 2.16
-3 -5 2 2.13 1.72
-3 -5 2 6.64 2.63
-3 -5 2 -0.22 3.87
3 5 -2 4.82 3.7
3 5 -1 19.53 5.37
3 5 -1 16.14 3.23
3 5 -1 16.13 4.62
-3 -5 1 12.51 6.66
-3 -5 1 21.02 3.76
3 5 -1 17.24 4.01
-3 -5 1 20.93 4.05
-3 -5 1 19.77 4.76
-3 -5 1 16.4 3.25
-3 -5 0 45.6 6.55
-3 -5 0 52.58 6.32
3 5 0 39.52 6.15
-3 -5 0 39.05 11.91
3 5 0 38.05 6.02
3 5 0 58.22 10.15
-3 -5 0 78.03 7.57
-3 -5 0 76.74 7.91
-3 -5 0 41.09 7.46
-3 -5 0 39.4 6.97
3 5 0 59.38 9.38
-3 -5 -1 194.31 13.24
-3 -5 -1 173.56 11.39
-3 -5 -1 247.82 14.19
-3 -5 -1 175.5 22.14
3 5 1 257.64 16.27
3 5 1 273.66 21.89
-3 -5 -1 256.65 14.16
3 5 1 195.02 16.11
-3 -5 -1 160.76 15.62
-3 -5 -1 241.11 14.14
3 5 1 183.17 11.53
-3 -5 -2 59.25 7.39
-3 -5 -2 58.65 6.87
-3 -5 -2 55.94 11.43
3 5 2 54.03 8.06
-3 -5 -2 108.78 9.58
3 5 2 121.66 14.51
3 5 2 56.52 9.42
-3 -5 -2 47.48 9.44
-3 -5 -2 67.16 8.01
-3 -5 -2 95.49 9.49
3 5 2 56.35 6.77
-3 -5 -3 407.93 19.88
-3 -5 -3 409.04 18.26
-3 -5 -3 411.97 30.15
-3 -5 -3 401.56 19.14
-3 -5 -3 493.52 25.1
3 5 3 490.23 30.45
-3 -5 -3 442.15 20.88
3 5 3 414.13 18.84
-3 -5 -4 214.43 12.63
-3 -5 -4 215.34 14.74
-3 -5 -4 197.71 13.57
-3 -5 -4 214.6 14.75
-3 -5 -4 200.98 14.18
3 5 4 194.43 12.82
-3 -5 -5 77.63 9.06
-3 -5 -5 79.07 7.37
-3 -5 -5 64.83 7.78
-3 -5 -5 85.2 8.27
-3 -5 -5 83.45 9.27
3 5 5 74.12 7.81
3 5 6 14.87 3.84
-3 -5 -6 28.28 4.57
-3 -5 -6 54.42 8.64
-3 -5 -6 35.12 5.93
-3 -5 -6 52.02 7.6
3 5 6 12.96 2.99
3 5 6 30.72 5.59
-3 -5 -7 56.94 7.43
-3 -5 -7 63.55 7.01
-3 -5 -7 62.62 7.18
3 5 7 69.25 6.89
3 5 7 62.16 6.74
-3 -5 -8 32.87 4.35
-3 -5 -8 37.76 5.28
-3 -5 -8 39.4 5.58
3 5 8 32.39 4.6
3 5 8 35.07 4.45
-3 -5 -9 464.83 16.99
-3 -5 -9 445.71 15.91
3 5 9 418.38 14.58
3 5 9 426.16 15.61
3 5 10 11.96 2.29
3 5 10 5.23 1.44
3 5 10 10.68 2.1
3 5 10 9.85 2.33
-3 -5 -10 12.39 2.22
-3 -5 -10 12.06 2.28
-3 -5 -11 1.38 0.61
-3 -5 -11 3.14 0.9
-3 -6 13 5.77 1.34
3 6 -13 7.89 1.36
-3 -6 12 41.73 4.49
-3 -6 12 38.33 4.03
3 6 -12 41.6 3.98
-3 -6 11 0.66 0.61
3 6 -11 -0.25 0.62
-3 -6 10 31.38 5.1
-3 -6 10 29.26 4.75
3 6 -10 38.19 5.15
3 6 -10 41.07 4.84
-3 -6 9 10.34 2.97
-3 -6 9 13.02 3.56
-3 -6 9 10 3.07
-3 -6 9 12.67 3.18
3 6 -9 14.41 3.11
-3 -6 8 128.17 11.54
-3 -6 8 123.31 10.9
-3 -6 8 121.36 10.78
3 6 -8 137.9 10.58
-3 -6 8 133.18 10.7
-3 -6 7 44.17 6.8
-3 -6 7 51.22 7.04
3 6 -7 55.09 6.82
-3 -6 7 53.51 7.09
-3 -6 7 53.33 6.77
-3 -6 6 119.47 11.41
-3 -6 6 159.14 12.42
3 6 -6 131.74 10.6
-3 -6 6 124.08 10.66
-3 -6 6 136.69 10.88
-3 -6 5 3.83 2.53
3 6 -5 1.97 1.39
-3 -6 5 1.4 1.58
-3 -6 5 4.38 2.28
-3 -6 5 2.61 1.62
-3 -6 4 78.17 8.57
3 6 -4 66.91 6.89
-3 -6 4 64.66 7.41
3 6 -4 64.66 6.59
-3 -6 4 72.44 8.7
-3 -6 3 868.47 29.51
3 6 -3 831.8 36.24
3 6 -3 943.89 42.5
3 6 -3 831.28 25.81
-3 -6 3 775.43 26.28
-3 -6 3 925.6 32.54
3 6 -3 866.7 25.62
-3 -6 2 291.62 16.63
3 6 -2 282.95 14.57
3 6 -2 284.75 20.85
3 6 -2 291.73 14.82
3 6 -2 281.27 22.69
-3 -6 2 268.91 14.86
-3 -6 2 297.79 18.69
3 6 -1 4.31 2.34
-3 -6 1 12.9 3.44
3 6 -1 7.28 3.82
-3 -6 1 8.74 2.51
-3 -6 1 18.56 4.87
-3 -6 1 13.2 3.91
3 6 -1 11.16 2.8
3 6 -1 14.51 3.58
-3 -6 1 10.18 2.92
-3 -6 0 5.07 2.48
-3 -6 0 4.46 1.98
-3 -6 0 2.25 2.84
3 6 0 7.36 3.02
3 6 0 5.34 3.38
3 6 0 2.75 2.02
-3 -6 0 1.93 2.04
-3 -6 0 5.64 3.04
-3 -6 -1 79.44 8.68
-3 -6 -1 70.92 7.54
-3 -6 -1 68.72 7.7
-3 -6 -1 73.8 10.23
3 6 1 77.77 8.11
-3 -6 -1 74.97 8.04
3 6 1 83.06 7.82
3 6 1 77.78 8.04
3 6 2 456.14 20.13
-3 -6 -2 427.04 20.75
-3 -6 -2 464.12 20.37
3 6 2 483.13 21.07
3 6 2 450.16 19.5
-3 -6 -2 443.97 20.15
-3 -6 -2 456.72 26.13
-3 -6 -2 460.83 20.97
-3 -6 -3 34.17 5.82
-3 -6 -3 40.14 6.19
-3 -6 -3 40.71 6.11
-3 -6 -3 42.29 7.03
3 6 3 36.41 5.32
-3 -6 -3 40.15 6.19
3 6 3 44.38 6.36
3 6 3 38.16 5.56
-3 -6 -4 73.23 8.22
3 6 4 71.48 7.17
-3 -6 -4 65.28 7.67
-3 -6 -4 68.93 8.09
-3 -6 -4 74.56 8.42
3 6 4 74.75 7.88
-3 -6 -5 155.13 11.86
-3 -6 -5 140.34 11.13
-3 -6 -5 178.32 11.61
-3 -6 -5 166.28 12.53
3 6 5 167.31 10.24
3 6 5 163.93 11.31
-3 -6 -6 79.69 8.39
3 6 6 85.13 6.55
-3 -6 -6 81.48 7.82
-3 -6 -6 95.74 8.85
3 6 6 80.94 7.65
3 6 7 184.37 11.62
-3 -6 -7 187.98 11.55
-3 -6 -7 170.08 9.85
3 6 7 198.48 11.11
-3 -6 -8 21.35 2.75
3 6 8 29.53 4.09
-3 -6 -8 28.69 3.81
-3 -6 -8 32.59 4.06
3 6 8 25.13 3.3
3 6 8 28.37 3.6
3 6 9 0.49 0.59
3 6 9 -0.31 0.24
3 6 9 0.51 0.71
-3 -6 -9 1.4 0.73
-3 -6 -9 0.75 0.48
-3 -6 -9 0.39 0.37
3 6 9 -0.73 0.6
3 7 -12 7.39 1.21
-3 -7 11 16.43 2.72
-3 -7 11 12.84 2.12
3 7 -11 14.26 2.08
-3 -7 10 18.32 3.39
-3 -7 10 17.75 3.06
3 7 -10 21.55 3.13
3 7 -10 21.76 2.99
-3 -7 9 6.91 1.98
-3 -7 9 9.45 2.65
-3 -7 9 9.11 2.24
-3 -7 9 13.61 3.04
3 7 -9 10.33 2.42
-3 -7 8 169.81 11.84
-3 -7 8 167.1 11.41
3 7 -8 208.41 12.08
-3 -7 8 188.68 12.55
-3 -7 8 178.39 11.46
-3 -7 7 106.29 9.71
-3 -7 7 120.37 10.3
-3 -7 7 112.2 10.04
-3 -7 7 107.92 9.1
3 7 -7 122.26 9.79
-3 -7 6 121.09 10.72
-3 -7 6 138.03 11.17
3 7 -6 121.53 8.84
-3 -7 6 127.8 10.71
-3 -7 6 129.92 10.15
3 7 -6 126.65 10.38
-3 -7 5 49.23 6.85
-3 -7 5 70.16 7.96
3 7 -5 61.2 6.48
-3 -7 5 61.33 7.18
-3 -7 5 61.07 7.25
3 7 -5 60.53 6.17
3 7 -5 72.24 7.97
-3 -7 4 270.28 16.18
3 7 -4 230.68 13.01
3 7 -4 291.03 16.14
-3 -7 4 255.33 14.85
-3 -7 4 260.36 16.02
3 7 -4 305.09 14.58
3 7 -3 59.79 6.67
-3 -7 3 66.98 8.03
3 7 -3 56.17 6.46
3 7 -3 66.29 7.71
-3 -7 3 55.34 6.75
-3 -7 3 67.74 8.55
3 7 -2 553.4 21.18
3 7 -2 500.38 19.95
-3 -7 2 498.64 20.77
-3 -7 2 574.08 26.32
-3 -7 2 536.54 23.25
-3 -7 1 249.56 15.63
3 7 -1 240.98 13.93
-3 -7 1 241.03 14.26
-3 -7 1 258.67 17.94
3 7 -1 276.66 15.11
-3 -7 0 184.57 13.37
-3 -7 0 168.96 12.01
-3 -7 0 180.91 15.45
3 7 0 199.83 13.06
3 7 0 182.25 12.19
-3 -7 -1 14.2 3.45
-3 -7 -1 18.43 4.1
3 7 1 16.85 3.79
-3 -7 -1 14.66 3.13
-3 -7 -1 13.61 4.36
-3 -7 -1 18.39 3.93
3 7 1 20.02 3.68
3 7 1 21.39 4.56
-3 -7 -2 180.84 12.9
-3 -7 -2 195.34 13.06
3 7 2 223.39 13.9
-3 -7 -2 207.69 16.07
3 7 2 209.66 13.15
-3 -7 -2 207.61 13.38
-3 -7 -2 204.29 12.35
3 7 2 221.17 12.98
-3 -7 -3 58.04 6.79
3 7 3 73.16 7.93
-3 -7 -3 50.93 6.45
-3 -7 -3 70.85 8.43
-3 -7 -3 57.26 6.46
-3 -7 -3 58.7 7.02
3 7 3 59.34 6.63
3 7 3 62.15 6.93
3 7 4 114.16 9.84
-3 -7 -4 102.94 8.54
-3 -7 -4 82.95 7.97
-3 -7 -4 110.64 9.3
3 7 4 100.09 7.9
-3 -7 -4 100.01 8.99
3 7 4 107.37 8.99
-3 -7 -5 12.76 2.92
-3 -7 -5 10.11 2.59
3 7 5 10.67 2.71
-3 -7 -5 14.7 2.86
-3 -7 -5 12.29 2.91
3 7 5 12.39 2.53
3 7 5 13.33 2.97
3 7 6 -0.24 0.6
3 7 6 0.65 0.79
-3 -7 -6 0.22 0.36
-3 -7 -6 0.73 0.74
-3 -7 -6 -0.62 0.89
3 7 6 -0.13 0.56
-3 -7 -6 0.14 0.07
3 7 6 0.54 0.43
3 7 7 0.92 0.63
-3 -7 -7 0.89 0.47
-3 -7 -7 1.26 0.66
-3 -7 -7 1.2 0.76
3 7 7 -0.2 0.44
-3 -7 -7 0.58 0.36
3 7 7 0.14 0.4
3 7 8 59.48 4.12
3 7 8 56.57 4.33
-3 -7 -8 56.39 3.58
-3 -7 -8 66.49 4.33
3 7 8 64.64 4.5
3 8 -10 36.08 2.87
-3 -8 9 11.46 2.26
-3 -8 9 10.85 2.12
3 8 -9 10.03 1.88
3 8 -9 9.1 1.83
3 8 -9 7.28 1.48
-3 -8 8 19.87 3.16
-3 -8 8 17.06 2.91
3 8 -8 20.55 3.1
-3 -8 8 17.54 3.01
-3 -8 8 17 3.18
-3 -8 7 19.39 3.37
-3 -8 7 18.98 3.53
-3 -8 7 21.47 3.7
3 8 -7 25.15 3.79
-3 -8 7 23.3 3.69
-3 -8 6 9.38 2.33
3 8 -6 14.39 2.6
-3 -8 6 14.69 3.26
-3 -8 6 18.24 3.39
3 8 -6 19.62 3.57
-3 -8 6 16.45 3.49
3 8 -5 10.29 2.59
-3 -8 5 30.56 5.08
3 8 -5 14.34 2.75
-3 -8 5 11.32 2.66
-3 -8 5 10.71 2.94
-3 -8 5 29.16 4.95
3 8 -5 20.75 4.67
3 8 -4 18.76 3.4
-3 -8 4 20.22 3.99
3 8 -4 19.9 3.36
-3 -8 4 18.62 3.78
3 8 -4 22.08 4.09
-3 -8 4 18.29 3.62
-3 -8 3 9.75 3.03
3 8 -3 7.74 2.37
3 8 -3 8.76 2.5
-3 -8 3 7.37 2.53
-3 -8 3 7.04 2.29
3 8 -3 6.62 2.15
-3 -8 2 0.01 0.24
3 8 -2 -0.43 0.84
3 8 -2 0.32 1.19
-3 -8 2 1.69 1.29
-3 -8 2 1.2 1.39
3 8 -2 -0.13 1.32
3 8 -1 1.28 0.89
-3 -8 1 1.81 1.14
3 8 -1 1.7 1.19
-3 -8 1 -0.22 1.35
-3 -8 1 -0.1 1.02
3 8 -1 1.26 0.8
-3 -8 0 1.32 1.17
3 8 0 1.15 0.74
3 8 0 0.25 0.77
-3 -8 0 1.15 1.14
-3 -8 0 1.35 2.13
3 8 0 2.44 1.5
-3 -8 -1 235.92 13.61
3 8 1 283.77 14.39
-3 -8 -1 261.48 13.66
-3 -8 -1 236.38 15.72
3 8 1 295.85 15.02
-3 -8 -1 247 11.88
-3 -8 -2 30.64 4.43
-3 -8 -2 24.12 3.64
3 8 2 41.52 5.39
-3 -8 -2 29.28 4.42
-3 -8 -2 36.95 5.63
3 8 2 30.84 4.43
3 8 2 32.27 4.39
3 8 3 19.73 3.3
-3 -8 -3 18.09 2.96
-3 -8 -3 23.98 4
-3 -8 -3 16.28 3.11
3 8 3 20.07 3.81
3 8 3 17.43 3.17
3 8 4 4.43 1.8
3 8 4 3.43 1.3
-3 -8 -4 4.88 1.71
-3 -8 -4 3.83 1.44
3 8 4 3.96 1.41
-3 -8 -5 186.85 9.02
3 8 5 205.04 9.91
-3 -8 -5 183.56 8.05
3 8 5 174.99 7.58
3 8 5 181.49 9.14
-3 -8 -6 33.48 3.16
3 8 6 42.65 3.73
3 8 6 41.68 3.73
3 9 -7 26.93 2.94
-3 -9 7 22.57 2.81
3 9 -7 23.25 2.74
-3 -9 6 56.65 5.2
-3 -9 6 53.71 4.99
3 9 -6 70.63 5.36
-3 -9 6 58.43 4.71
3 9 -5 5.76 1.43
-3 -9 5 3.72 1.41
-3 -9 5 5.55 1.55
-3 -9 5 5.41 1.68
3 9 -5 6.89 1.85
-3 -9 4 61.98 5.93
3 9 -4 52.19 4.56
3 9 -4 59.82 5.57
-3 -9 4 60.76 6.25
-3 -9 4 60.58 5.64
-3 -9 4 53.19 4.85
-3 -9 4 57.15 5.21
3 9 -4 52.05 4.47
-3 -9 3 21.69 3.55
-3 -9 3 25.36 3.7
-3 -9 3 20.67 3.39
3 9 -3 20.72 3.03
3 9 -3 21.79 3.11
3 9 -3 17.13 2.95
-3 -9 2 4.32 1.73
3 9 -2 6.17 1.77
3 9 -2 4.22 1.63
-3 -9 2 4.05 1.58
-3 -9 2 5.01 1.64
3 9 -2 5.61 1.65
-3 -9 1 10.95 2.74
3 9 -1 9.69 2.31
3 9 -1 9.31 2.47
-3 -9 1 9.43 3
-3 -9 1 12.46 2.52
3 9 -1 9.23 2.1
-3 -9 0 20.88 3.42
3 9 0 26.52 3.81
-3 -9 0 26.23 3.74
-3 -9 0 16.32 3.66
3 9 0 30 4.32
-3 -9 -1 6.67 1.67
3 9 1 10.69 2.31
3 9 1 8.04 1.99
-3 -9 -1 9.72 2.42
-3 -9 -1 8.22 1.94
-3 -9 -2 14.09 2.05
-3 -9 -2 22.98 2.97
-3 -9 -2 17.05 3.37
3 9 2 35.75 4.02
3 9 2 35.43 4.09
3 9 3 23.51 3.04
-3 -9 -3 15.23 2.32
3 9 3 20.3 2.53
-4 11 5 41.99 3.59
-4 11 4 10.42 2.1
-4 11 4 10.44 2.1
-4 11 4 9.01 1.68
4 -11 -3 30.66 3.15
-4 11 3 24.55 3.33
-4 11 3 24.22 3.27
-4 11 3 22.27 2.76
-4 11 3 17.46 2.88
4 -11 -2 11.8 2.11
-4 11 2 9.57 2.05
-4 11 2 11.49 2.3
4 -11 -2 10.91 2.04
-4 11 2 10.48 1.89
-4 11 2 11.89 2.6
4 -11 -1 37.04 3.98
-4 11 1 36.4 4.14
-4 11 1 38.58 3.96
-4 11 1 34.45 4.64
4 -11 -1 39.99 4.21
-4 11 1 35.71 3.82
-4 11 0 157.79 8.29
4 -11 0 142.06 7.37
-4 11 0 157.83 10.31
-4 11 0 162.41 9.11
-4 11 -1 94.04 5.89
4 -11 1 91.9 5.82
-4 11 -1 107.49 7.9
-4 11 -1 98.06 7.37
4 -11 2 2.45 0.96
-4 11 -2 1 0.63
4 -11 2 3.37 1.32
-4 11 -2 -0.06 0.32
4 -11 3 137.74 7.3
-4 11 -3 149.9 8.11
-4 11 -4 12.45 1.96
-4 10 8 50.22 3.7
-4 10 7 152.52 7.69
-4 10 7 156.96 8.47
-4 10 7 145.33 7.59
4 -10 -7 156.88 7.36
4 -10 -6 3.85 1.17
4 -10 -6 0.95 0.68
-4 10 6 2.65 1.5
4 -10 -6 2.73 1
-4 10 6 2.48 1.46
-4 10 6 3.08 1.59
4 -10 -5 13.22 2.32
4 -10 -5 10.43 2.15
-4 10 5 8.91 2.4
-4 10 5 9.32 1.88
4 -10 -5 6.9 1.63
-4 10 5 7.89 2.36
-4 10 5 6.34 2.02
4 -10 -4 28.85 3.74
4 -10 -4 27.5 3.61
4 -10 -4 20.74 3.19
-4 10 4 30.68 4.7
-4 10 4 28.82 4.71
-4 10 4 29.99 4.6
-4 10 3 224.56 13.24
4 -10 -3 251.17 11.91
4 -10 -3 242.36 10.82
-4 10 3 229.64 12.96
-4 10 3 220.54 14.59
4 -10 -2 15.37 2.97
-4 10 2 7.85 2.14
-4 10 2 13.1 3.04
4 -10 -2 10.05 2.33
-4 10 2 9.82 2.64
-4 10 2 8.75 2.73
4 -10 -1 24.8 4.12
-4 10 1 18.8 3.95
4 -10 -1 23.67 3.9
-4 10 1 14.92 3.14
-4 10 1 17.38 4.05
-4 10 1 14.74 4.53
-4 10 0 32.08 4.86
-4 10 0 32.83 5.58
4 -10 0 39.35 4.89
4 -10 0 46.8 5.32
-4 10 0 32.17 4.12
-4 10 0 37.04 4.95
-4 10 0 36.2 6.66
4 -10 1 10.62 2.58
-4 10 -1 8.48 2.55
-4 10 -1 9.61 2.42
4 -10 1 11.15 2.59
-4 10 -1 5.42 2.38
-4 10 -1 9.11 3.08
-4 10 -2 44.37 5.58
-4 10 -2 34.86 5.93
-4 10 -2 33.68 4.99
-4 10 -2 50.2 7.55
4 -10 3 2.38 1.68
-4 10 -3 3.19 1.87
-4 10 -3 1.56 0.99
4 -10 3 7.32 2.52
-4 10 -3 1.81 1.02
-4 10 -3 2.92 1.87
-4 10 -3 0.9 1.3
4 -10 4 5.2 1.78
-4 10 -4 3.21 1.18
-4 10 -4 5.42 1.49
4 -10 4 7.87 2.27
-4 10 -4 4.96 2.07
-4 10 -4 2.72 0.98
4 -10 5 17.62 2.81
-4 10 -5 18.3 2.68
4 -10 5 16.48 2.7
-4 10 -5 20.78 2.98
4 -10 5 18.71 2.73
-4 10 -5 20.24 3.12
4 -10 6 305.55 10.55
4 -10 6 328.92 9.97
-4 10 -6 333.45 11.31
4 -10 6 303.67 10.66
-4 10 -6 310.15 10.8
-4 10 -7 37.78 3.14
-4 10 -7 41.92 3.26
4 -9 -10 136.98 5.81
-4 9 10 143.62 6.74
-4 9 10 140.27 6.44
-4 9 9 29.13 3.81
4 -9 -9 24.15 3.07
-4 9 9 34.26 3.73
-4 9 9 34.92 4
-4 9 9 23.84 2.54
-4 9 8 1.88 0.75
4 -9 -8 2.27 0.9
-4 9 8 1.29 1.11
-4 9 8 2.7 0.88
-4 9 8 3.97 1.47
4 -9 -7 138.77 9.23
-4 9 7 121.42 9.83
4 -9 -7 105.02 7.19
-4 9 7 129.77 9.9
-4 9 7 125.15 9.56
-4 9 7 128.04 9.29
4 -9 -6 99.1 8.08
-4 9 6 87.31 8.86
4 -9 -6 77.04 6.73
-4 9 6 95.13 9.67
-4 9 6 92.52 8.23
-4 9 6 95.88 8.66
-4 9 6 98.7 9.25
-4 9 5 67.28 7.53
-4 9 5 77.48 9.35
4 -9 -5 78.18 7.23
4 -9 -5 63.92 6.3
-4 9 5 79.83 8.76
-4 9 5 78.86 7.7
-4 9 5 70.71 8.49
4 -9 -4 332.2 15.57
-4 9 4 320.04 16.27
-4 9 4 317.4 19.25
4 -9 -4 335.37 15.1
-4 9 4 308.91 16.06
-4 9 4 355.71 19.82
4 -9 -3 49.31 5.57
-4 9 3 46.75 5.72
-4 9 3 46.27 6.81
4 -9 -3 44.46 5.44
-4 9 3 45.78 6.21
-4 9 3 57.45 7.26
-4 9 3 50.45 8.14
-4 9 2 316.53 17.21
4 -9 -2 252.56 13.32
-4 9 2 292.59 16.31
-4 9 2 279.18 20.71
-4 9 2 341.29 18.88
-4 9 1 336.06 20.16
4 -9 -1 287.99 14.34
-4 9 1 292.37 15.88
-4 9 1 321.51 16.84
-4 9 0 294.42 15.7
4 -9 0 279.92 14.23
-4 9 0 298.53 20.19
-4 9 0 293.96 15.12
-4 9 -1 109.9 13.65
4 -9 1 138.5 9.99
-4 9 -1 119.54 13.16
-4 9 -1 120.91 9.28
4 -9 1 132.66 9.88
-4 9 -1 117.9 9.73
4 -9 2 22.78 4.32
-4 9 -2 24.7 5.37
-4 9 -2 22.81 4.37
-4 9 -2 20.38 4.11
-4 9 -2 15.36 4.14
4 -9 2 22.96 4.2
-4 9 -2 19.11 5.08
-4 9 -2 23.7 5.39
4 -9 3 649.17 21.5
-4 9 -3 537.99 23.32
-4 9 -3 516.59 20.23
-4 9 -3 553.55 20.36
4 -9 3 539.86 20.63
-4 9 -3 515.65 22.74
-4 9 -3 614.93 25.94
4 -9 4 41.23 5.16
-4 9 -4 38.5 5.2
-4 9 -4 43.62 5.19
-4 9 -4 39.91 6.24
4 -9 4 41.52 5.5
-4 9 -4 41.84 5.51
-4 9 -4 37.9 5.47
-4 9 -4 44.57 6.08
4 -9 5 76.65 6.98
-4 9 -5 71.87 6.61
4 -9 5 76.69 7.51
-4 9 -5 61.61 6.66
-4 9 -5 72.41 7.09
-4 9 -5 68.31 7.12
4 -9 6 53.57 5.66
-4 9 -6 51.15 5.36
-4 9 -6 44.3 5.17
-4 9 -6 48.08 5.45
-4 9 -6 39 5.06
4 -9 7 0.44 0.54
4 -9 7 0.14 0.53
-4 9 -7 0.23 0.58
-4 9 -7 1.74 1.11
4 -9 7 0.78 0.77
-4 9 -8 55.64 4.51
4 -9 8 46.16 4
-4 9 -8 46.27 4.07
-4 9 -8 52.56 4.44
4 -9 8 52.41 4.16
-4 9 -9 130.53 5.63
-4 9 -9 152.73 6.02
-4 8 11 0.31 0.59
4 -8 -11 0.02 0.2
-4 8 10 48.15 5.35
-4 8 10 40.77 4.09
-4 8 10 46.76 5
4 -8 -10 53.95 4.96
-4 8 9 4.55 1.87
-4 8 9 6.57 1.82
4 -8 -9 4.29 1.41
-4 8 9 5.61 2.08
-4 8 9 4.38 1.37
-4 8 8 24.89 4.86
4 -8 -8 30.8 4.61
-4 8 8 29.02 4.87
-4 8 8 33.25 5.55
-4 8 8 27.91 4.41
4 -8 -7 186.17 12.13
-4 8 7 158.93 13.75
-4 8 7 183.09 13.36
-4 8 7 176.44 13.48
-4 8 7 162.46 12.22
-4 8 6 132.26 13.03
-4 8 6 162.61 12.61
-4 8 6 131.33 12.86
4 -8 -6 135.2 10.44
-4 8 6 149.8 11.9
-4 8 6 123.35 11.86
-4 8 5 2.57 1.7
4 -8 -5 2.3 1.66
-4 8 5 3.24 1.89
-4 8 5 0.4 1.99
-4 8 5 2.49 1.61
-4 8 5 1.48 1.78
4 -8 -4 104.91 8.85
-4 8 4 110.38 10.3
-4 8 4 116.78 12.17
-4 8 4 111.68 12.5
-4 8 4 109.52 11.29
-4 8 4 109.82 9.76
4 -8 -3 107.93 8.77
-4 8 3 98.67 9.29
-4 8 3 118.34 11.34
4 -8 -3 135.93 9.91
-4 8 3 127.15 11.47
-4 8 3 109.03 11.11
-4 8 3 106.32 9.3
-4 8 2 225.99 13.27
4 -8 -2 208.46 12.18
-4 8 2 229.41 14.98
-4 8 2 253.69 17.42
-4 8 2 224.75 13.29
-4 8 2 243.28 15.53
-4 8 1 437.74 20.37
4 -8 -1 390.52 16.82
-4 8 1 410.37 19.43
-4 8 1 408.44 23.93
-4 8 0 13.4 4.64
-4 8 0 9.46 2.66
-4 8 0 9.96 3.31
-4 8 -1 54.1 10.38
4 -8 1 63.82 6.86
-4 8 -1 57.2 6.61
-4 8 -1 55.93 7.91
-4 8 -1 58.17 7.03
4 -8 2 373.53 16.25
-4 8 -2 353.2 17.84
-4 8 -2 331.55 16.64
-4 8 -2 328.74 16.99
-4 8 -2 390.98 24.52
4 -8 2 316.62 15.87
-4 8 -2 291.33 20.36
-4 8 -3 36.17 6.67
-4 8 -3 29.81 5.24
4 -8 3 39 5.12
-4 8 -3 36.3 5.51
-4 8 -3 38.59 6.33
4 -8 3 37.32 5.46
-4 8 -3 30.11 6.06
-4 8 -3 31.52 4.94
4 -8 4 122.92 9.23
-4 8 -4 110.71 9.61
-4 8 -4 116.34 9.55
4 -8 4 110.96 9.65
-4 8 -4 116.42 10.48
-4 8 -4 129.24 11.38
-4 8 -4 132.17 11.75
-4 8 -5 70.48 7.45
4 -8 5 70.42 7
4 -8 5 60.83 7.3
-4 8 -5 68.74 7.87
-4 8 -5 71.1 8.01
-4 8 -6 32.02 4.77
4 -8 6 26.13 4.66
4 -8 6 23.47 3.85
-4 8 -6 29.3 4.7
-4 8 -6 24.84 4.35
-4 8 -7 71.76 6.69
4 -8 7 60.11 6.52
4 -8 7 72.2 7.11
-4 8 -7 80.98 7.28
-4 8 -7 69.1 6.31
-4 8 -8 76.18 6.41
4 -8 8 65.67 6.2
-4 8 -8 81.17 6.67
4 -8 8 77.31 6.63
4 -8 9 9.84 2
4 -8 9 8.06 1.82
-4 8 -9 9.75 2.11
-4 8 -9 9.25 1.93
-4 8 -9 7.09 1.71
-4 8 -10 22.61 2.49
-4 8 -10 24.63 2.51
-4 8 -10 29.14 2.8
4 -8 10 26.05 2.62
4 -7 -12 1.23 0.69
-4 7 12 -0.04 0.24
-4 7 12 0.38 0.49
-4 7 11 53.86 5.72
-4 7 11 52.11 5.41
-4 7 11 45.36 4.21
-4 7 10 -0.11 0.32
-4 7 10 5.17 2.29
-4 7 10 3.77 1.44
-4 7 10 2.79 1.59
4 -7 -10 3.41 1.36
-4 7 9 132.51 11.46
-4 7 9 157.02 12.76
-4 7 9 145.21 10.84
-4 7 9 132.35 9.7
-4 7 8 47.53 7.7
-4 7 8 49.35 6.98
-4 7 8 54.97 6.83
-4 7 8 48.8 7.42
-4 7 8 47.57 6.12
-4 7 7 46.7 8.53
-4 7 7 58.04 6.66
-4 7 7 63.63 8.38
-4 7 7 59.44 7.93
-4 7 6 75.4 10.55
-4 7 6 85.26 9.36
-4 7 6 92.13 10.08
-4 7 6 50.99 8.16
-4 7 6 81.59 7.79
-4 7 5 139.39 13.13
-4 7 5 118.75 12.5
-4 7 5 134.92 11.29
-4 7 5 126.78 14.1
-4 7 5 132.33 9.74
-4 7 4 185.07 18.71
-4 7 4 220.42 15.23
-4 7 4 209.64 13.43
4 -7 -4 214.01 17.33
-4 7 4 234.78 20.65
-4 7 4 213.42 17.55
-4 7 4 240.06 17.51
4 -7 -3 104.02 8.36
-4 7 3 93.56 9.15
-4 7 3 86.78 8.43
4 -7 -3 96.51 11.34
-4 7 3 86.11 11.96
-4 7 3 87.86 9.64
-4 7 3 108.88 11.13
-4 7 3 96.47 10.07
-4 7 2 155.15 11.2
4 -7 -2 164.9 14.1
-4 7 2 184.67 15.27
-4 7 2 155.47 15.74
4 -7 -2 167.5 14.78
-4 7 2 162.32 12.51
-4 7 2 156.36 11
-4 7 2 181.36 13.06
-4 7 1 94.23 8.42
4 -7 -1 97.73 11.3
-4 7 1 93.96 12.1
4 -7 -1 92.36 10.86
-4 7 1 105.94 12.22
-4 7 1 87.7 8.8
-4 7 1 96.43 9.12
-4 7 0 41.87 8.51
4 -7 0 51.16 8.5
-4 7 0 54.29 9.33
-4 7 0 51.93 6.47
-4 7 0 54.79 6.75
4 -7 1 3.99 3.16
-4 7 -1 -1.06 2.78
4 -7 1 4.18 1.52
-4 7 -1 4.57 1.88
-4 7 -1 2.62 1.56
-4 7 -1 1.15 1
-4 7 -1 3.85 1.64
-4 7 -2 100.7 8.7
-4 7 -2 99.68 9.51
-4 7 -2 99.36 9.26
4 -7 2 109.39 13.72
-4 7 -2 104.63 13.52
4 -7 2 95.03 8.35
-4 7 -2 132.56 15.15
-4 7 -2 74.87 11.71
-4 7 -2 100.99 9.31
4 -7 3 605.29 20.34
-4 7 -3 555.24 22.88
-4 7 -3 560.02 22.48
4 -7 3 570.34 31.64
-4 7 -3 576.51 26.11
-4 7 -3 697.12 30.36
4 -7 3 542.6 21.4
-4 7 -3 576.33 22.43
-4 7 -3 692.68 30.69
-4 7 -4 382.02 18.77
-4 7 -4 438.31 19.5
4 -7 4 432.51 17.34
-4 7 -4 474.23 22.89
-4 7 -4 446.95 22.39
4 -7 4 379.48 18.4
-4 7 -4 401.24 20.33
-4 7 -5 57.05 7.03
-4 7 -5 58.77 6.79
4 -7 5 67.93 6.85
-4 7 -5 65.72 8.02
-4 7 -5 69.37 8.14
4 -7 5 59.26 7.41
-4 7 -6 94.87 8.79
4 -7 6 88.29 9.05
-4 7 -6 101.98 9.47
-4 7 -6 95.68 8.93
-4 7 -7 443.43 18.73
4 -7 7 415.14 19.41
-4 7 -7 473.95 19.62
4 -7 8 41.37 5.57
-4 7 -8 45.59 5.52
-4 7 -8 41.03 5.24
4 -7 8 37.16 5.41
-4 7 -9 123.08 8.17
4 -7 9 111.98 8.26
-4 7 -9 130.08 8.68
4 -7 9 130.34 8.97
-4 7 -10 2.63 1.18
-4 7 -10 2.35 0.88
4 -7 10 1.71 0.42
-4 7 -10 3.39 1.35
4 -7 10 2.74 1.08
-4 7 -11 66.36 4.26
4 -7 11 64.15 4.36
-4 6 13 7.66 1.55
-4 6 13 5.51 1.21
-4 6 13 5.86 1.31
4 -6 -13 7.26 1.33
-4 6 12 16.14 2.84
-4 6 12 20.08 3.27
4 -6 -12 13.96 2.41
-4 6 12 20.07 3.25
-4 6 11 0.7 0.46
-4 6 11 3.08 1.36
4 -6 -11 2.31 0.82
-4 6 10 9.17 2.87
-4 6 10 6.55 2.34
-4 6 10 13.34 3.87
4 -6 -10 10.11 2.81
-4 6 9 467.53 21.89
-4 6 9 545.62 25.72
-4 6 9 519.07 22.05
-4 6 9 460.71 23.33
-4 6 8 224.26 14.85
-4 6 8 202.71 16.85
-4 6 8 215.44 15.4
-4 6 8 183.43 16.32
-4 6 7 583.08 23.33
-4 6 7 518.4 30.95
-4 6 7 541.22 25.49
-4 6 6 8.05 2.6
-4 6 6 9.56 4.4
-4 6 6 10.46 5.17
4 -6 -6 8.8 3.76
4 -6 -6 7.19 3.08
-4 6 6 7.2 2.65
-4 6 6 7.49 3.54
-4 6 5 474.23 19.25
-4 6 5 526.33 34.65
-4 6 5 613.45 28.11
4 -6 -5 503.75 26.11
4 -6 -5 567.98 28.47
-4 6 5 512.64 21.88
-4 6 5 602.86 27.29
-4 6 5 533.9 30.81
-4 6 4 5.29 1.88
-4 6 4 7.88 2.81
-4 6 4 11.01 4.5
4 -6 -4 4.11 2.13
-4 6 4 9.28 3.58
-4 6 4 6.33 2.13
-4 6 4 7.93 2.76
-4 6 4 8.8 3.69
-4 6 3 168.73 16
4 -6 -3 174.06 12.82
4 -6 -3 173.12 14.55
-4 6 3 172.39 15.45
-4 6 3 205.87 14.6
-4 6 3 168.46 11.12
-4 6 3 193.65 13.72
-4 6 2 501.26 25.92
4 -6 -2 570.86 24.77
4 -6 -2 572.79 26.69
-4 6 2 542.42 27.23
-4 6 1 5.34 2.69
4 -6 -1 3.75 2.11
-4 6 1 5.01 2.75
4 -6 0 419.49 22.96
-4 6 0 389.01 23.24
4 -6 1 26.25 6.24
-4 6 -1 26.96 6.31
-4 6 -1 21.07 7.51
-4 6 -2 -0.03 0.15
4 -6 2 1.85 2.23
-4 6 -2 1.24 0.38
-4 6 -2 0.38 1.29
-4 6 -2 0.32 0.73
-4 6 -2 0.97 2.18
-4 6 -2 2.56 3.14
-4 6 -2 1.87 1.06
-4 6 -3 2.28 1.27
-4 6 -3 0.84 0.96
4 -6 3 1.4 1.9
-4 6 -3 0.24 0.95
-4 6 -3 1.44 1.69
-4 6 -3 3.07 2.47
-4 6 -3 0.45 0.38
-4 6 -3 1.1 0.45
-4 6 -4 168.82 12.07
-4 6 -4 167.16 11.83
-4 6 -4 170.49 17.95
4 -6 4 164.75 16.02
4 -6 4 166.93 11.73
-4 6 -4 185.9 13.8
-4 6 -4 197.97 14.6
-4 6 -5 150.68 12.07
-4 6 -5 112.8 9.8
-4 6 -5 125.43 10.18
4 -6 5 116.43 13.46
4 -6 5 110.07 10.01
-4 6 -5 119.83 10.59
-4 6 -6 183.15 12.44
4 -6 6 163.74 12.6
-4 6 -6 214.47 13.94
-4 6 -6 180.82 12.22
-4 6 -7 188.31 12.53
4 -6 7 172.96 12.69
-4 6 -7 204.1 13.09
4 -6 8 50.95 6.6
4 -6 8 43.06 6.02
-4 6 -8 51.35 6.2
-4 6 -8 54.36 6.3
4 -6 9 231.51 13.13
4 -6 9 267.2 14.37
-4 6 -9 269.09 13.66
-4 6 -9 240.49 12.53
4 -6 10 352.15 14.42
-4 6 -10 388.5 14.92
-4 6 -10 352.91 13.58
4 -6 10 405.98 15.79
-4 6 -11 5.22 1.19
4 -6 11 4.45 1.27
-4 6 -11 6.35 1.54
4 -6 11 6.94 1.7
-4 6 -11 8.13 1.81
4 -6 12 30.68 2.85
-4 6 -12 26.27 2.42
-4 5 14 193.85 7.83
4 -5 -14 128.53 5.44
-4 5 13 21.6 3.44
4 -5 -13 26.98 3.3
-4 5 13 17.85 2.6
-4 5 12 81.86 7.81
-4 5 12 77.04 7.08
4 -5 -12 85.76 7.09
-4 5 12 74.75 6.56
-4 5 12 86.04 8.28
-4 5 12 83.96 7.26
-4 5 11 201.13 13.69
-4 5 11 237 14.53
-4 5 11 225.93 13.81
4 -5 -11 205.49 12.09
-4 5 11 206.29 12.09
-4 5 11 217.35 14.46
-4 5 10 181.63 14.1
-4 5 10 236.72 16.3
4 -5 -10 206.07 12.89
-4 5 10 232.71 13.56
-4 5 10 211.73 15.32
-4 5 10 210.54 14.78
-4 5 9 64.68 8.8
-4 5 9 76.79 9.9
4 -5 -9 74.97 8.12
-4 5 9 74.47 9.21
-4 5 9 69.93 9.11
-4 5 8 186.61 14.3
-4 5 8 144.26 22.74
-4 5 8 169.19 16.63
4 -5 -8 171.39 15.87
-4 5 8 149.75 12.4
-4 5 8 190.26 14.44
-4 5 8 163.6 16.06
-4 5 7 43.47 6.31
-4 5 7 22.57 6.41
-4 5 7 27.04 10.78
-4 5 7 54.84 7.08
4 -5 -7 49.33 8.25
4 -5 -7 49.5 8.87
-4 5 7 38.73 6.03
-4 5 7 49.69 7.52
-4 5 6 142.55 10.79
-4 5 6 112.04 20.97
-4 5 6 101.4 13.93
-4 5 6 114.5 10.45
4 -5 -6 81.74 10.68
-4 5 6 126.25 10.97
-4 5 6 105.97 10.25
-4 5 5 12.98 6.09
4 -5 -5 5.05 2.69
4 -5 -5 11.74 3.89
-4 5 4 432.23 26.62
4 -5 -4 423.57 21.18
4 -5 -4 457.07 23.36
-4 5 4 470.1 23.93
-4 5 3 41.78 6.59
-4 5 3 26.69 6.65
4 -5 -3 29.57 5.11
4 -5 -3 26.75 4.52
4 -5 -3 36.2 6.23
-4 5 3 37.78 6.86
-4 5 2 156.33 13.85
4 -5 -2 165.4 12.23
-4 5 2 183.66 14.43
-4 5 2 176.12 13.1
-4 5 1 0.24 0.91
-4 5 1 -0.11 0.56
-4 5 1 0.13 0.95
-4 5 0 155.24 12.71
4 -5 0 189.61 14.57
-4 5 0 161.95 13.7
-4 5 0 155.46 13.96
-4 5 -1 66.27 7.9
4 -5 1 70.67 9.55
-4 5 -1 57.87 8.44
-4 5 -1 80.73 9.78
4 -5 2 31.63 8.48
-4 5 -2 30.59 8.58
4 -5 3 63.41 9.52
-4 5 -3 70.19 10.29
-4 5 -3 72.22 10.62
-4 5 -4 487.84 20.19
-4 5 -4 514.1 20.49
-4 5 -4 495.31 29.31
4 -5 4 507.37 27.46
-4 5 -4 518.71 22.31
-4 5 -4 525.53 31.52
-4 5 -4 597.63 24.62
-4 5 -5 4.16 1.66
-4 5 -5 3.31 4.98
-4 5 -5 3.13 1.73
4 -5 5 8.53 3.69
-4 5 -5 1.29 1.48
-4 5 -5 4.92 3.36
-4 5 -5 1.55 1.26
-4 5 -6 298.16 16.35
-4 5 -6 331.68 26.42
4 -5 6 272.49 19.58
-4 5 -6 270.85 26.21
4 -5 6 278.99 16.19
-4 5 -6 283.11 15.4
4 -5 7 17.84 4.54
-4 5 -7 15.28 3.56
4 -5 8 44.41 7.08
-4 5 -8 46.76 6.11
-4 5 -8 46.73 6.42
-4 5 -9 21.3 3.86
4 -5 9 32.01 5.57
-4 5 -9 25.91 4.14
-4 5 -9 31.94 5.17
-4 5 -10 166.85 10.31
4 -5 10 140.6 9.57
-4 5 -10 143.05 8.33
-4 5 -10 146.29 8.92
4 -5 10 161.93 10.7
4 -5 11 168.07 9.54
4 -5 11 139.4 8.19
-4 5 -11 176.48 9.31
-4 5 -11 132.79 7.65
-4 5 -11 138 7.15
4 -5 12 45.65 3.49
-4 5 -12 46.01 3.16
-4 5 -12 55.41 4.25
-4 4 15 3.42 0.89
-4 4 14 64.54 5.58
-4 4 14 53.6 4.51
-4 4 13 67.77 6.88
-4 4 13 64.13 6.06
-4 4 13 69.51 7.06
-4 4 12 117.4 10.45
-4 4 12 101.16 8.45
-4 4 12 108.57 9.51
-4 4 12 98.71 8.25
-4 4 12 129.2 10.89
-4 4 11 25.1 4.61
-4 4 11 30.6 5.42
-4 4 11 24.7 4.74
-4 4 11 29.72 5.64
-4 4 11 32.06 5.97
-4 4 11 36.18 6.45
-4 4 10 159.15 14.68
-4 4 10 147.54 13.08
-4 4 10 166.11 11.47
-4 4 10 158.54 11.65
-4 4 10 164.95 13.98
-4 4 10 192.69 14.65
-4 4 9 136.82 13.84
-4 4 9 128.65 19.08
-4 4 9 183.15 14.86
-4 4 9 186.7 12.44
4 -4 -9 119.18 13
4 -4 -9 134.95 16.74
-4 4 9 166.67 11.85
-4 4 9 141.24 13.12
-4 4 9 157.55 15.13
-4 4 8 232.11 28.74
-4 4 8 276.77 20.11
4 -4 -8 214.02 17.52
4 -4 -8 297.91 23
-4 4 8 249.95 16.98
-4 4 8 235.54 16.06
-4 4 8 229.59 20.6
-4 4 7 65.41 7.75
-4 4 7 42.37 8.28
-4 4 7 59.49 16.22
4 -4 -7 69.48 9.72
-4 4 7 84.6 8.52
4 -4 -7 76.02 10.87
-4 4 7 71.41 7.72
-4 4 6 105.19 16.27
4 -4 -6 108.19 11.52
4 -4 -6 110.83 11.72
-4 4 5 619.27 34.29
4 -4 -5 567.15 26.67
4 -4 -5 657.62 28.45
-4 4 4 932.7 37.48
4 -4 -4 905.14 31.63
4 -4 -4 1005.72 33.28
-4 4 4 977.74 30.66
-4 4 4 999.39 33.27
-4 4 3 452.85 21.16
-4 4 3 411.15 22.37
4 -4 -3 434.21 19.38
4 -4 -3 464.85 18.19
-4 4 3 450.69 19.77
-4 4 2 42 6.65
4 -4 -2 45.44 5.36
4 -4 -2 42.69 5.92
-4 4 2 47.97 6.24
-4 4 2 43.55 6.48
-4 4 1 456.02 21.58
4 -4 -1 533.17 22.93
-4 4 1 486.1 21.2
-4 4 1 483.55 22.54
-4 4 0 27.32 5.46
-4 4 0 18.95 4.65
4 -4 0 31.24 5.91
-4 4 0 27.08 5.01
-4 4 -1 210.03 14.12
4 -4 1 242.68 17.81
-4 4 -1 217.11 15.27
-4 4 -1 224.41 16.47
4 -4 2 518.91 27.05
-4 4 -2 559.37 23.43
-4 4 -2 416.55 22.91
-4 4 -2 456.71 26.09
-4 4 -3 603 29.1
4 -4 3 670.61 30.69
-4 4 -3 683.52 33.4
-4 4 -4 39.87 7.97
4 -4 4 55 9.01
-4 4 -4 52.43 9.83
-4 4 -5 49.36 6.13
-4 4 -5 53.55 9.65
4 -4 5 55.4 8.81
-4 4 -5 63.7 12.33
-4 4 -5 56.67 6.98
-4 4 -6 391.86 17.91
4 -4 6 419.18 23.87
-4 4 -6 393.59 33
-4 4 -6 431.94 19.48
4 -4 7 193.62 15.8
4 -4 7 195.25 13.29
-4 4 -7 214.41 13.08
-4 4 -7 173.36 24.01
-4 4 -7 204.79 13.01
-4 4 -7 192.33 12.65
4 -4 8 258.69 15.21
-4 4 -8 299.82 14.91
-4 4 -8 266.98 14.45
-4 4 -8 274.21 15
4 -4 8 286.15 16.37
-4 4 -9 61.04 6.62
-4 4 -9 62.56 6.55
4 -4 9 58.17 6.9
-4 4 -9 60.5 6.27
4 -4 9 66.04 7.37
4 -4 10 192.65 9.79
-4 4 -10 215.68 11.88
4 -4 10 183.59 11.31
-4 4 -10 159.23 9.91
-4 4 -10 184.83 10.25
-4 4 -10 188.57 10.5
4 -4 10 223.35 12.75
4 -4 11 103.17 7.41
-4 4 -11 97.27 6.48
-4 4 -11 107.17 7.07
-4 4 -11 119.12 8.02
4 -4 12 63.12 4.66
4 -4 12 52.24 4.52
-4 4 -12 67.81 4.76
4 -4 12 81.35 5.91
-4 4 -12 77.34 5.49
-4 3 15 107.6 6.29
-4 3 15 89.94 5.19
-4 3 14 -0.46 0.77
-4 3 14 0.97 0.7
-4 3 14 1.07 0.75
4 -3 -14 2.28 0.94
-4 3 14 1.57 1.21
-4 3 13 2.26 1.05
4 -3 -13 0.61 0.35
-4 3 13 0.42 0.56
-4 3 13 1.69 1.12
-4 3 12 178.37 13.61
4 -3 -12 182.41 10.02
-4 3 12 173.04 11.49
-4 3 12 177.2 13.74
-4 3 12 168.55 12.46
-4 3 11 14.21 3.36
-4 3 11 10.48 3.13
-4 3 11 13.09 4.19
4 -3 -11 9.08 2.43
-4 3 11 15.04 5.03
-4 3 11 14.35 4.67
-4 3 10 212.23 17.4
-4 3 10 276.64 14.75
-4 3 10 243.54 14.56
-4 3 10 210.48 17.53
-4 3 10 223.64 16.36
-4 3 9 13.34 4.62
-4 3 9 11.95 3.59
-4 3 9 12.03 5.55
4 -3 -9 19.42 5.22
-4 3 9 15.29 3.61
4 -3 -9 9.85 4.31
-4 3 9 13.55 3.4
-4 3 9 6.73 4.22
-4 3 9 10.93 4.04
-4 3 8 0.92 1.67
-4 3 8 -0.68 2.44
4 -3 -8 3.47 2.7
-4 3 8 1.56 1.22
4 -3 -8 1.38 2.22
-4 3 8 1.36 1.15
-4 3 8 4.81 2.77
-4 3 7 104.66 16.81
4 -3 -7 137.43 13.26
4 -3 -7 139.62 13.45
-4 3 6 16.08 5.77
4 -3 -6 16.89 4.33
4 -3 -6 16.57 4.74
-4 3 5 378.52 24.25
4 -3 -5 395.91 21.66
4 -3 -5 391.71 19.69
-4 3 4 46.62 6.74
-4 3 4 39.5 6.97
4 -3 -4 48.22 7.16
4 -3 -4 40.86 4.6
4 -3 -4 43.21 6.19
4 -3 -3 137.18 11.79
4 -3 -3 134.61 9.4
-4 3 3 158.24 10.18
-4 3 3 133.98 12.21
-4 3 3 143.81 11.57
-4 3 2 197.79 13.88
4 -3 -2 227.49 13.61
4 -3 -2 228.87 13.6
-4 3 2 228.4 12.76
-4 3 2 218.82 14.27
-4 3 1 153.31 11.65
4 -3 -1 181.23 10.32
4 -3 -1 172.65 12.81
-4 3 1 166.33 11.24
-4 3 1 178.47 13.06
4 -3 0 516.44 24.35
-4 3 0 465.89 20.66
-4 3 0 496.24 20.96
4 -3 0 532.73 15.32
-4 3 0 531.69 23.68
-4 3 -1 1829.86 43.87
4 -3 1 1699.69 49.64
-4 3 -1 1732.94 44.2
-4 3 -1 1840.01 49.06
-4 3 -2 228.33 15.92
4 -3 2 251.94 18.23
4 -3 2 276.95 13.45
-4 3 -2 260.61 18.67
-4 3 -3 65.34 9.01
4 -3 3 61.26 9.27
4 -3 3 66.36 7.57
-4 3 -3 68.18 10.23
-4 3 -4 150.25 14.69
4 -3 4 145.46 13.98
4 -3 4 139.11 12.1
-4 3 -4 150.31 16.63
-4 3 -5 2.77 3.63
4 -3 5 -1.12 1.7
4 -3 5 2.13 1.61
4 -3 6 490.99 25.7
-4 3 -6 552.84 21.11
4 -3 6 506.95 25.75
-4 3 -6 518.12 20.86
-4 3 -6 507.52 22.06
-4 3 -6 459.09 37.84
-4 3 -6 506.9 20.11
4 -3 7 555.03 26.66
-4 3 -7 584.67 22.7
-4 3 -7 512.04 44.06
-4 3 -7 538.39 21.17
-4 3 -7 547.21 21.16
4 -3 7 508.99 21.71
4 -3 8 731.97 25.63
-4 3 -8 784.51 25.83
-4 3 -8 742.06 24.57
-4 3 -8 809.47 25.92
4 -3 8 761.95 26.56
-4 3 -9 640.44 21.39
4 -3 9 645.78 23.37
-4 3 -9 652.37 22.43
-4 3 -9 660.79 22.68
4 -3 9 692.66 24.37
4 -3 10 4.03 1.75
-4 3 -10 4.51 1.85
4 -3 10 7.09 2.35
4 -3 10 5.73 2.11
-4 3 -10 4.52 1.73
4 -3 11 13.45 2.31
-4 3 -11 14 2.78
4 -3 11 13.02 2.7
-4 3 -11 11.79 2.6
4 -3 11 13.06 2.67
4 -3 12 5.68 1.19
4 -3 12 5.01 1.34
-4 3 -12 8.3 1.87
-4 3 -12 6.64 1.68
4 -3 12 7.9 1.97
4 -3 13 5.54 1.18
-4 3 -13 8.05 1.38
-4 3 -13 12.4 1.76
4 -3 13 10.35 1.69
-4 2 15 -0.13 0.5
-4 2 15 -0.05 0.47
-4 2 15 -0.86 0.69
4 -2 -15 0.54 0.35
-4 2 15 1.26 0.93
-4 2 14 60.46 6.26
-4 2 14 53.71 5.51
-4 2 14 57.95 6.43
4 -2 -14 54.7 4.78
-4 2 14 54.85 5.58
-4 2 13 38.48 5.81
-4 2 13 41.42 5.29
-4 2 13 46.9 6.72
4 -2 -13 40.04 4.67
-4 2 13 37.69 5.3
-4 2 12 42.37 6.7
-4 2 12 40.18 5.66
-4 2 12 38.33 6.97
-4 2 12 34 5.6
-4 2 11 423.45 23.53
-4 2 11 381.43 20.44
-4 2 11 442.37 19.89
-4 2 11 409.6 24.51
-4 2 10 12.17 4.64
-4 2 10 7.19 1.96
4 -2 -10 18.81 5.34
-4 2 10 12.1 2.85
4 -2 -10 13.46 4.59
-4 2 10 16.74 6.24
-4 2 10 11.97 3.13
-4 2 10 5.76 3.52
-4 2 9 21.18 5.77
-4 2 9 25.65 7.59
4 -2 -9 21.97 5.58
-4 2 9 25.03 4.5
4 -2 -9 24.47 6.04
-4 2 9 15.21 5.87
-4 2 9 24.71 4.44
-4 2 9 19.11 6.14
-4 2 9 25.23 5.15
-4 2 9 12.69 3.82
-4 2 8 21 6.57
4 -2 -8 40.11 7.43
4 -2 -8 45.3 8.1
-4 2 8 43.16 9.64
-4 2 7 48.81 9.9
4 -2 -7 45.45 7.96
4 -2 -7 45.98 7.33
-4 2 7 47.06 8.6
-4 2 6 1763.06 56.01
4 -2 -6 1716.48 49.72
4 -2 -6 1758.24 43.77
-4 2 6 1737.08 47.48
-4 2 5 111.73 9.27
-4 2 5 105.72 11.93
4 -2 -5 93.96 10.79
4 -2 -5 107.48 9.29
-4 2 4 1190.52 35.23
-4 2 4 1073.79 35.69
4 -2 -4 1088.93 37.26
4 -2 -4 1063.67 26.17
4 -2 -4 1121.17 30.38
-4 2 3 219.46 14.1
-4 2 3 183.38 13.32
4 -2 -3 213.18 15.33
4 -2 -3 193.35 11.91
-4 2 2 370.12 18.41
4 -2 -2 397.64 12.94
4 -2 -2 385.52 19.61
-4 2 2 391.16 15.99
-4 2 2 391.35 18.88
-4 2 1 146.59 11.14
-4 2 1 167.69 11.06
4 -2 -1 160.21 9.21
-4 2 1 170.09 12.54
-4 2 0 5.12 1.67
-4 2 0 7.34 2.61
4 -2 0 8.43 1.97
-4 2 0 10.65 3.09
-4 2 -1 706.45 25.96
-4 2 -1 660.82 26.25
4 -2 1 666.42 19.91
-4 2 -1 709.69 28.77
-4 2 -2 811.62 31.12
4 -2 2 785.78 23.21
-4 2 -2 818.43 33.3
4 -2 3 51.72 8.53
4 -2 3 56.37 6.53
-4 2 -3 61.8 9.62
4 -2 4 177.93 16.03
4 -2 4 203.63 14.41
-4 2 -4 202.51 19.37
-4 2 -5 51.73 11.34
4 -2 5 52.64 8.8
4 -2 5 48.29 8.08
-4 2 -6 112.02 8.9
4 -2 6 102.67 11.84
-4 2 -6 111.01 9.17
4 -2 6 87.89 11.37
-4 2 -6 88.28 9.15
-4 2 -6 72.52 16.09
-4 2 -6 114.61 9.1
4 -2 6 90.64 8.39
-4 2 -7 168.13 10.69
4 -2 7 140.54 14.61
-4 2 -7 152.79 11.76
-4 2 -7 161.85 27.21
-4 2 -7 158.79 10.99
-4 2 -7 148.48 10.62
4 -2 7 142.08 10.77
-4 2 -8 24.43 4.24
-4 2 -8 21.54 3.78
-4 2 -8 25.26 4.59
4 -2 8 21.14 4.23
4 -2 9 104.15 8.97
-4 2 -9 119.72 9.67
-4 2 -9 130.49 9.73
4 -2 9 118.34 9.51
4 -2 10 80.22 7.49
-4 2 -10 85.7 7.68
4 -2 10 85.17 7.25
-4 2 -10 97.27 8.05
4 -2 10 94.74 8.09
4 -2 11 -0.23 0.21
4 -2 11 0 0.13
-4 2 -11 0.29 0.19
4 -2 12 32.31 3.76
4 -2 12 28.6 3.25
-4 2 -12 35.81 3.99
-4 2 -12 36.85 3.9
4 -2 12 34.18 3.43
-4 2 -13 19.85 2.35
4 -2 13 14.38 2.24
-4 2 -13 22.53 2.4
-4 1 15 2.16 1
-4 1 15 1.71 0.8
-4 1 15 3.85 1.36
4 -1 -15 2.2 0.74
-4 1 14 27.12 4.27
-4 1 14 23.17 3.63
-4 1 14 28.17 4.81
-4 1 14 26.17 3.75
4 -1 -14 27.89 3.61
-4 1 13 14.51 3.89
-4 1 13 18.27 3.64
-4 1 13 15.19 4.11
-4 1 13 17.78 3.62
-4 1 12 50.13 7.41
-4 1 12 63.89 7.2
-4 1 12 58.79 9.16
-4 1 12 54.38 6.96
-4 1 11 152.85 14.23
-4 1 11 180.11 11.48
-4 1 11 165.05 13
-4 1 11 191.11 12.99
-4 1 11 184.64 17.23
-4 1 11 171.99 12.98
-4 1 10 357.66 24.32
-4 1 10 477.57 22.37
-4 1 10 419.77 31.45
4 -1 -10 515.42 28.36
-4 1 10 465.1 19.93
-4 1 10 342.96 26.55
-4 1 10 485.98 21.03
-4 1 10 371.39 21.28
-4 1 9 220.32 15.05
-4 1 9 170.39 19.39
-4 1 9 189.65 13.96
4 -1 -9 204.22 17.83
-4 1 9 173.92 12.14
-4 1 9 199.8 14.26
4 -1 -9 192.08 15.73
-4 1 9 187.27 22.08
-4 1 9 194.21 12.95
-4 1 8 53.19 10.25
-4 1 8 42.14 8.79
4 -1 -8 51.2 8.76
4 -1 -8 50.22 8
-4 1 7 817.17 35.54
-4 1 7 758.24 36.18
4 -1 -7 773.7 27.29
4 -1 -7 799.38 34.93
4 -1 -7 762.81 29.19
-4 1 6 256.35 18.9
-4 1 6 264.94 17.1
4 -1 -6 242.36 13.58
4 -1 -6 250.47 18.88
4 -1 -6 248.31 14.48
-4 1 5 215.4 15.81
4 -1 -5 221.29 11.81
-4 1 5 207.06 13.08
4 -1 -5 216.89 12.21
-4 1 4 387.57 19.09
-4 1 4 321.93 18.11
4 -1 -4 348.32 14.3
-4 1 4 360.45 23.47
4 -1 -4 340.8 14.52
-4 1 4 354.72 14.85
-4 1 3 5.72 1.85
-4 1 3 4.62 1.42
4 -1 -3 4.83 1.58
-4 1 3 6.98 1.77
-4 1 3 2.05 2.7
4 -1 -3 5.09 1.35
-4 1 2 277.2 15.29
-4 1 2 303.74 22.08
4 -1 -2 265.85 10.08
-4 1 2 284.98 15.69
-4 1 1 27.96 4.77
-4 1 1 33.52 5.25
-4 1 1 31.88 7.2
4 -1 -1 30.29 4.31
4 -1 -1 33 3.41
-4 1 0 696.96 25.56
-4 1 0 742.34 34.53
4 -1 0 689.5 21.79
4 -1 0 781.9 19.74
-4 1 0 712.92 26.93
-4 1 -1 872.96 36.51
4 -1 1 816.22 23.37
-4 1 -1 794.86 30.04
-4 1 -2 2.3 2.13
4 -1 2 0.64 0.49
-4 1 -2 2.45 2.38
4 -1 2 2.43 1.43
4 -1 3 79.88 7.91
-4 1 -3 81.02 10.91
4 -1 3 71.46 8.68
-4 1 -4 1.6 2.66
4 -1 4 -0.4 0.82
4 -1 4 2.41 1.95
4 -1 5 731.07 30.89
-4 1 -5 697.28 40.94
4 -1 5 715.49 33.17
-4 1 -6 87.32 7.61
4 -1 6 75.78 10.45
4 -1 6 68.16 10.58
-4 1 -6 52.8 13.22
-4 1 -6 71.09 7.23
-4 1 -6 63.16 7.8
-4 1 -6 82.66 7.78
-4 1 -7 35.82 11.08
-4 1 -7 41.08 5.18
4 -1 7 32.38 7.39
-4 1 -7 34.13 5.7
-4 1 -7 39.54 5.28
-4 1 -7 39.44 5.44
4 -1 7 41.43 5.45
-4 1 -8 97.86 7.59
-4 1 -8 87.05 8.7
-4 1 -8 79.56 7.69
4 -1 8 80.49 7.73
-4 1 -9 80.45 8.08
4 -1 9 65.59 6.82
-4 1 -9 74.15 7.21
-4 1 -10 90.03 7.72
4 -1 10 74.1 7.07
-4 1 -10 84.78 7.79
4 -1 10 88.98 7.63
4 -1 10 93.09 7.56
4 -1 11 14.63 2.69
4 -1 11 18.06 3.08
-4 1 -11 18.54 3.37
-4 1 -11 21.9 3.44
4 -1 11 22.99 3.47
4 -1 12 0.1 0.56
-4 1 -12 0.81 0.78
-4 1 -12 0.14 0.51
4 -1 12 -0.29 0.54
-4 1 -13 90.69 5.03
-4 1 -13 79.36 4.44
-4 0 15 0.62 0.31
-4 0 15 0.19 0.44
4 0 -15 0.69 0.53
-4 0 14 4.24 1.97
4 0 -14 3.04 1.7
-4 0 14 4.94 2.2
-4 0 13 127.83 10.38
-4 0 13 143.95 12.42
-4 0 13 151.02 10.51
-4 0 12 25.26 5.25
-4 0 12 31.13 5.2
-4 0 12 38.99 7.17
-4 0 12 28.34 5.26
-4 0 11 189.14 15.53
-4 0 11 222.84 15.07
-4 0 11 191.32 12.27
-4 0 11 245.22 19.23
-4 0 11 219.27 14.22
-4 0 10 8.05 4.95
4 0 -10 5.6 3.46
-4 0 10 5.03 2.36
-4 0 10 15.05 7.9
-4 0 10 8.28 3.84
-4 0 10 12.1 3.94
-4 0 9 10.8 3.33
4 0 -9 9.33 3.5
-4 0 9 9.77 4.7
4 0 -9 7.81 3.5
-4 0 9 8.53 2.6
-4 0 9 16.77 3.99
-4 0 9 12.29 3.7
-4 0 9 10.93 3.1
-4 0 9 17.19 6.08
4 0 -8 8.7 3.24
4 0 -8 10.81 3.71
-4 0 8 6.87 3.68
-4 0 7 651.96 30.44
-4 0 7 762.8 34.24
4 0 -7 743.22 28.57
4 0 -7 740.79 34.42
-4 0 6 179.09 14.95
4 0 -6 192.68 13.53
-4 0 6 139.96 14.17
-4 0 6 191.65 15.27
-4 0 5 52.63 7.5
4 0 -5 67.51 7.57
-4 0 5 57.38 9.26
4 0 -5 65.71 6.34
-4 0 5 62.93 8.12
-4 0 4 52.28 7.22
-4 0 4 60.53 7.48
4 0 -4 44.93 6.29
-4 0 4 52.62 9.87
4 0 -4 74.26 6.73
-4 0 4 46.32 5.85
-4 0 3 98.94 9.23
4 0 -3 98.49 8.69
4 0 -3 97.96 7.86
-4 0 3 97.2 7.92
-4 0 3 85.09 12.01
4 0 -3 95.42 6.42
-4 0 3 103.04 9.31
-4 0 2 1998.03 45.38
-4 0 2 1943.55 61.31
4 0 -2 1873.09 38.22
-4 0 1 1520.72 54.26
4 0 -1 1389.48 35.17
4 0 -1 1323.86 33
-4 0 1 1591.88 39.95
-4 0 1 1462.77 37.43
-4 0 0 73.72 11.29
4 0 0 71.44 7.56
4 0 0 78.34 7.02
-4 0 0 86.99 9.24
-4 0 -1 210.75 17.85
4 0 1 198.83 12.18
4 0 1 200.33 11.91
-4 0 -1 201.18 14.55
-4 0 -2 118.88 13
4 0 2 110.64 9.27
4 0 2 126.04 10.58
-4 0 -2 121.67 12.34
-4 0 -3 317.34 21.01
4 0 3 339.84 17.38
-4 0 -3 327.82 22.11
4 0 3 308.33 18.85
-4 0 -4 26.94 6.42
4 0 4 31.4 10.78
-4 0 -5 6.11 2.79
4 0 5 1.36 1.06
4 0 5 5.01 2.58
-4 0 -6 24.89 8.37
-4 0 -6 54.67 5.9
4 0 6 40.49 8.62
4 0 6 37.77 7.76
-4 0 -6 45.53 6.87
-4 0 -6 35.41 6.3
-4 0 -6 51.17 6.3
-4 0 -7 258.06 12.74
4 0 7 198.95 19.1
-4 0 -7 221.62 15.01
-4 0 -7 206.99 24.74
-4 0 -7 221.4 16.94
-4 0 -7 231.03 13.59
-4 0 -8 329.24 14.06
-4 0 -8 328 17.68
-4 0 -8 360.78 19.09
-4 0 -8 305.29 15.68
4 0 9 65.3 6.81
-4 0 -9 78.6 7.84
-4 0 -9 74.46 7.29
-4 0 -9 78.55 8.09
4 0 10 8.07 3.33
-4 0 -10 2.82 2.43
-4 0 -10 3.23 1.75
-4 0 -10 3.7 1.93
-4 0 -11 204.44 9.74
-4 0 -11 239.74 11.8
-4 0 -11 224.22 11.06
4 0 11 227.96 10.89
4 0 12 21.7 2.85
-4 0 -12 21.54 3
-4 0 -12 20.69 2.8
-4 0 -13 263.28 8.31
-4 -1 15 10.83 2.05
-4 -1 15 8.3 2.01
4 1 -15 11.3 1.92
-4 -1 14 208.39 12.76
-4 -1 14 218.84 11.34
-4 -1 13 267.6 13.61
-4 -1 13 265.42 16.7
-4 -1 13 309.25 15.08
-4 -1 13 267.28 14.52
-4 -1 12 278.6 16.86
-4 -1 12 305.01 16.58
-4 -1 12 317.4 20.32
-4 -1 12 329.87 17.35
-4 -1 11 193.9 14.13
-4 -1 11 186.62 12.15
-4 -1 11 172.13 15.94
-4 -1 11 202.41 13.74
-4 -1 10 106.65 11.21
-4 -1 10 106.64 9.89
-4 -1 10 128.4 11.37
-4 -1 10 105.01 17.01
-4 -1 10 87.22 12.74
-4 -1 10 117.01 10.73
-4 -1 9 274 17.27
4 1 -9 251.88 20.07
4 1 -9 253.01 22.08
-4 -1 9 230.96 14.68
-4 -1 9 247.04 24.39
-4 -1 9 256.01 20.62
-4 -1 9 244.61 15.19
-4 -1 8 268.53 17.3
4 1 -8 251.24 19.12
-4 -1 8 236.94 15.08
-4 -1 8 293.84 15.09
-4 -1 8 221.9 21.43
-4 -1 8 266.8 18.58
-4 -1 8 249.63 15.12
4 1 -7 813.28 33.33
-4 -1 7 729.63 35.03
-4 -1 6 136.39 12.17
4 1 -6 156.89 12.98
-4 -1 6 125.35 14.16
-4 -1 6 127.41 12.63
-4 -1 5 522.75 23.85
4 1 -5 614.57 25.26
-4 -1 5 565.83 31.61
-4 -1 5 478.5 23.91
-4 -1 4 998.02 32.47
4 1 -4 995.87 32.79
-4 -1 4 1017.6 44.49
-4 -1 4 992.62 31.22
-4 -1 3 88.56 8.65
4 1 -3 86.03 8.7
4 1 -3 84.41 8.39
-4 -1 3 93.93 13.64
-4 -1 3 85.47 8.43
-4 -1 3 85.24 9.08
4 1 -2 765.8 25.62
-4 -1 2 786.6 43.03
-4 -1 2 785.83 25.88
-4 -1 1 1517.19 57.7
4 1 -1 1540.76 39.57
4 1 -1 1542.67 37.42
-4 -1 1 1608.57 38.62
-4 -1 0 81.49 12.7
4 1 0 84.81 8.48
4 1 0 81.35 8.05
-4 -1 0 80.74 8.35
-4 -1 -1 1269.86 47.89
4 1 1 1203.3 34.96
4 1 1 1249.06 35.18
-4 -1 -1 1310.24 37.76
-4 -1 -2 1097.75 42.46
4 1 2 1130.7 33.56
4 1 2 1090.31 34.68
-4 -1 -2 1093.08 36.81
-4 -1 -3 169.77 15.31
-4 -1 -3 133.81 13.93
4 1 3 146.39 11.96
4 1 3 155.68 13.93
-4 -1 -4 1398.21 49.72
4 1 4 1436.22 41.64
4 1 4 1326.36 46.53
-4 -1 -5 259.89 14.77
-4 -1 -5 303.54 14.31
4 1 5 291.14 20.25
-4 -1 -5 282.93 16.76
4 1 5 291.15 23.41
-4 -1 -5 298.74 24.3
-4 -1 -6 82.17 7.44
4 1 6 103.57 13.49
-4 -1 -6 108.4 11.06
-4 -1 -6 129.51 17.42
4 1 6 128.73 16.83
-4 -1 -6 106.29 12.06
-4 -1 -6 83.11 8.56
-4 -1 -7 166.42 10.18
-4 -1 -7 125.53 12.6
4 1 7 151.11 10.68
-4 -1 -7 155.32 12.76
-4 -1 -7 173.16 11.96
4 1 7 146.74 18.28
-4 -1 -8 54.99 7.54
-4 -1 -8 60.97 5.92
-4 -1 -8 72.55 8.37
-4 -1 -8 77.4 7.84
-4 -1 -9 459.29 15.48
-4 -1 -9 496.33 20.71
-4 -1 -9 467.68 19.87
-4 -1 -9 487.03 19.09
4 1 9 486.91 18.47
-4 -1 -10 108.31 8.36
4 1 10 123.45 7.57
-4 -1 -10 120.31 9.32
-4 -1 -10 118.59 8.63
-4 -1 -11 94.79 6.86
-4 -1 -11 118.06 8
-4 -1 -11 83.86 6.14
4 1 11 123.26 7.92
4 1 12 3.43 1.09
-4 -1 -12 2.72 0.8
-4 -1 -12 2.36 1.11
-4 -1 -12 2.87 0.99
-4 -2 15 4.94 1.3
-4 -2 15 3.59 1.02
4 2 -15 7.53 1.43
-4 -2 14 1.84 1.17
-4 -2 14 1.95 1.07
-4 -2 14 1.22 0.69
-4 -2 13 361.77 16.46
-4 -2 13 386.34 18.64
-4 -2 13 376.78 16.53
4 2 -13 362.86 12.65
-4 -2 12 36.39 5.72
-4 -2 12 40.4 5.87
-4 -2 12 33.35 6
4 2 -12 42.06 4.83
-4 -2 11 48.94 6.96
-4 -2 11 47.57 6.05
-4 -2 11 39.8 7.04
-4 -2 11 46.96 6.58
4 2 -11 50.72 5.86
-4 -2 10 30.45 5.18
-4 -2 10 32.63 5.59
-4 -2 10 31.23 6.1
-4 -2 10 32.97 5.67
-4 -2 10 31.47 6.7
-4 -2 9 411.89 21.49
4 2 -9 378.71 26.02
4 2 -9 405.94 28.93
-4 -2 9 348.67 18.66
-4 -2 9 365.21 22.77
-4 -2 9 414.39 20.47
-4 -2 9 393.21 31.17
-4 -2 8 109.54 10.84
-4 -2 8 103.63 10.38
4 2 -8 121.5 13.95
-4 -2 8 116.87 10.81
-4 -2 8 155.59 10.83
-4 -2 8 130.99 12.18
-4 -2 8 115.31 10.19
-4 -2 8 119.91 15.75
4 2 -7 66.56 9.68
-4 -2 7 54.28 7.44
-4 -2 7 59.63 7.52
-4 -2 7 56.19 9.81
4 2 -6 80.9 10.07
-4 -2 6 61.44 10.73
-4 -2 6 76.03 10.42
4 2 -5 168.85 14.09
-4 -2 5 155.45 17.75
-4 -2 5 166.32 14.54
4 2 -4 12.17 3.74
-4 -2 4 14.23 5.97
-4 -2 4 14.6 4.48
4 2 -4 10.79 5.2
4 2 -3 815.86 30.35
4 2 -3 840.77 30.85
-4 -2 2 238.95 13.56
4 2 -2 215.38 14.97
-4 -2 1 211.47 23.86
4 2 -1 225.26 15.14
4 2 -1 235.88 15.56
-4 -2 1 257.41 13.83
-4 -2 0 311.59 26.73
4 2 0 297.99 17.22
4 2 0 288.52 17.67
-4 -2 -1 632.54 35.66
4 2 1 650.44 25.82
4 2 1 635.7 27.13
-4 -2 -2 662.61 34.71
4 2 2 646.12 26.12
4 2 2 634.07 28.55
-4 -2 -3 229.88 19.87
4 2 3 286.66 17.62
4 2 3 269.4 19.77
-4 -2 -4 70.49 6.89
4 2 4 58.44 8.4
4 2 4 57.84 9.84
-4 -2 -4 69.8 8
-4 -2 -4 63.26 7.63
-4 -2 -4 48.01 6.27
-4 -2 -5 60.48 6.32
4 2 5 56.34 9.09
4 2 5 55.08 6.23
-4 -2 -5 47.96 7.28
-4 -2 -5 52.2 7.23
4 2 5 48.88 9.91
-4 -2 -5 42.8 6.29
-4 -2 -6 518.22 18.64
4 2 6 464.22 28.76
-4 -2 -6 450.79 22.7
-4 -2 -6 410.68 22.93
-4 -2 -6 479.94 21.09
4 2 6 463.56 33.09
4 2 6 458.34 18.73
-4 -2 -7 98.68 7.73
-4 -2 -7 94.79 10.51
-4 -2 -7 90.69 9.82
-4 -2 -7 96.21 9.2
4 2 7 94.92 8.35
4 2 8 18.56 3.67
-4 -2 -8 18.66 3.14
-4 -2 -8 23.37 4.74
-4 -2 -8 23.15 4.8
-4 -2 -8 17.76 3.82
-4 -2 -9 83.6 6.19
-4 -2 -9 105.85 9.03
-4 -2 -9 94.31 8.79
-4 -2 -9 96.22 8.24
4 2 9 93.1 7.29
4 2 9 90.21 7.71
4 2 10 1.29 1.08
-4 -2 -10 2.27 1.37
4 2 10 1.5 0.67
-4 -2 -10 0.69 1.37
-4 -2 -10 1.44 0.99
4 2 11 2.36 0.96
-4 -2 -11 1.92 0.86
-4 -2 -11 2.81 1.03
-4 -2 -11 1.88 0.69
4 2 12 13.14 1.87
-4 -2 -12 16.26 1.95
-4 -3 15 5.5 1.25
4 3 -15 7.04 1.19
-4 -3 14 23.57 3
-4 -3 14 31.3 3.74
4 3 -14 29 2.57
-4 -3 14 31.19 3.73
-4 -3 13 25 4
-4 -3 13 28.2 4.25
-4 -3 13 27.86 4.24
4 3 -13 29.29 3.47
-4 -3 12 1.06 1.4
-4 -3 12 -0.34 0.56
-4 -3 12 1.81 1.62
4 3 -12 2.15 0.85
-4 -3 11 3.02 2.26
-4 -3 11 -0.02 0.44
-4 -3 11 1.19 0.92
-4 -3 11 0.81 1.32
4 3 -11 0.14 0.36
-4 -3 10 61.37 8.06
-4 -3 10 58.27 7.28
-4 -3 10 55.69 8.11
-4 -3 10 59.79 7.68
-4 -3 9 0.84 1.23
-4 -3 9 2.33 1.25
-4 -3 9 0.08 0.88
-4 -3 9 1.15 1.04
-4 -3 9 -0.74 0.95
-4 -3 9 0.22 0.48
-4 -3 8 52.73 7.65
-4 -3 8 54.64 7.69
4 3 -8 66.65 10.93
-4 -3 8 63.1 8.2
-4 -3 8 76.96 7.48
-4 -3 8 58.12 7.62
-4 -3 8 68.47 7.87
-4 -3 8 65.68 12.17
-4 -3 7 38.79 6.55
-4 -3 7 37.99 6.19
4 3 -7 52.43 9.2
-4 -3 7 36.92 6.37
-4 -3 7 37.81 8.56
-4 -3 7 46.83 5.45
-4 -3 7 41.7 6.07
-4 -3 7 44.59 6.17
-4 -3 6 514.98 22.47
-4 -3 6 428.22 22.78
4 3 -6 484.7 28.4
4 3 -6 583.52 29.75
-4 -3 6 517.33 29.75
-4 -3 6 542.91 35.2
-4 -3 6 507.14 23.82
-4 -3 6 540.89 18.26
-4 -3 6 522.78 22.02
-4 -3 5 2.02 1.36
4 3 -5 1.23 0.61
4 3 -4 19.74 4.87
-4 -3 4 22.65 7.86
4 3 -4 19.88 5.18
4 3 -3 44.03 7.38
4 3 -3 40.5 7.19
-4 -3 3 31.89 8.93
4 3 -2 63.34 8.81
-4 -3 2 51.02 14.76
4 3 -2 58.66 8.56
4 3 -2 59.98 8.13
-4 -3 1 40.87 12.05
4 3 -1 55.87 7.72
4 3 -1 51.54 7.99
-4 -3 0 53.91 11.82
4 3 0 46.02 6.97
4 3 0 43.93 7.7
4 3 1 8.53 3.59
-4 -3 -1 13.51 5.33
4 3 1 11.18 3.72
4 3 2 10.19 4.1
-4 -3 -2 7.09 3.75
-4 -3 -2 12.76 3.17
4 3 2 11.01 3.41
-4 -3 -2 10.52 3.15
-4 -3 -3 443.59 19.72
-4 -3 -3 552.42 20.32
-4 -3 -3 483.54 21.59
-4 -3 -3 458.29 29.98
4 3 3 489.07 24.53
4 3 3 486.08 29.02
-4 -3 -4 863.9 25.71
4 3 4 837.2 34.14
-4 -3 -4 678.98 25.9
4 3 4 794.54 39.69
-4 -3 -4 750.75 28.44
-4 -3 -4 765.61 29.22
-4 -3 -5 306.16 18.78
-4 -3 -5 388.32 16.38
4 3 5 358.33 23.84
-4 -3 -5 306.6 18.31
4 3 5 336.61 27.14
-4 -3 -5 303.43 17.35
4 3 5 288.14 14.62
-4 -3 -6 342.58 18.08
-4 -3 -6 359.51 15.41
-4 -3 -6 285.09 18.62
-4 -3 -6 319.03 19.01
4 3 6 330.41 15.65
-4 -3 -7 340.42 19.55
-4 -3 -7 363.73 17.7
-4 -3 -7 328.78 14.14
4 3 7 334.69 15.39
-4 -3 -7 355.61 19.07
4 3 7 319.94 15.27
-4 -3 -8 65.13 5.73
-4 -3 -8 79.17 8.44
-4 -3 -8 74.3 7.33
-4 -3 -8 75.1 7.88
4 3 8 69.98 6.62
4 3 8 67.33 6.59
-4 -3 -9 59.95 4.95
4 3 9 76.76 6.65
-4 -3 -9 75.53 7.17
-4 -3 -9 81.26 7
4 3 9 69.42 5.91
-4 -3 -10 22.62 3.22
-4 -3 -10 23.12 3.25
4 3 10 19.72 2.63
4 3 10 19.63 3.02
-4 -3 -11 78.56 4.85
-4 -3 -11 80.24 4.96
4 3 11 87.05 5.41
-4 -4 14 18.33 2.39
-4 -4 14 22.18 2.75
-4 -4 13 -1.05 0.83
-4 -4 13 0.7 0.73
4 4 -13 1.75 0.97
-4 -4 12 63.73 6.8
-4 -4 12 58.76 6.35
4 4 -12 58.15 5.47
-4 -4 11 4.35 1.94
-4 -4 11 2.54 1.03
-4 -4 11 3.05 1.7
4 4 -11 1.84 1.16
-4 -4 10 9.28 3.29
-4 -4 10 6.86 2.55
-4 -4 10 3.24 1.47
-4 -4 9 25.41 5.45
-4 -4 9 23.23 4.96
-4 -4 9 23.3 4.81
-4 -4 9 24.23 4.66
-4 -4 8 240.61 16.69
-4 -4 8 233.16 16.08
-4 -4 8 212.75 15.53
4 4 -8 257.4 13.99
-4 -4 8 251.12 15.33
-4 -4 7 79.79 9.78
-4 -4 7 74.99 8.91
4 4 -7 55.06 10.72
-4 -4 7 79.3 9.49
-4 -4 7 73.26 8.12
-4 -4 7 68.62 7.66
-4 -4 6 175.73 14.96
-4 -4 6 204.9 14.59
4 4 -6 218.76 18.86
4 4 -6 181.42 18.71
-4 -4 6 193.08 22.78
-4 -4 6 202.05 15.53
-4 -4 6 184.95 12.9
-4 -4 6 209.61 14.24
4 4 -5 82.53 11.23
4 4 -5 79.54 11.7
-4 -4 5 83.51 15.77
-4 -4 5 69.87 7.59
-4 -4 5 74.19 8.45
-4 -4 5 88 9.51
-4 -4 4 312.76 17.11
4 4 -4 282.9 20.43
-4 -4 4 289.52 30.53
4 4 -4 255.72 20.61
-4 -4 4 224.85 11.44
-4 -4 4 265.54 14.12
-4 -4 4 283.72 17.26
4 4 -3 5.96 3.45
-4 -4 3 7.13 2.69
-4 -4 3 8.38 2.52
4 4 -3 6.28 3.59
-4 -4 3 9.12 8.58
4 4 -3 1.08 1.16
-4 -4 3 3.58 1.21
-4 -4 3 7.37 2.91
4 4 -2 24.27 6.05
-4 -4 2 17.3 3.91
-4 -4 2 16.46 3.47
4 4 -2 14.39 4.15
-4 -4 2 18.02 9.21
4 4 -2 16.95 4.51
-4 -4 2 18.69 3.26
-4 -4 2 29.04 5.88
-4 -4 2 21.97 3.83
-4 -4 1 890.66 26.43
4 4 -1 834.95 23.86
4 4 -1 895.74 36.61
4 4 -1 856.96 33.29
4 4 -1 904.2 37.93
-4 -4 1 761.75 23.54
-4 -4 1 900.87 35.17
4 4 0 10.71 3.6
-4 -4 0 17.15 3.48
-4 -4 0 18.72 7.72
-4 -4 0 19.96 3.71
4 4 0 16.54 4.37
-4 -4 0 11.67 2.9
-4 -4 0 23.58 6.15
-4 -4 -1 63.59 6.82
-4 -4 -1 81.96 14.79
4 4 1 65.88 8.65
-4 -4 -1 57.42 6.72
4 4 1 69.04 10.6
-4 -4 -1 51.58 10.52
-4 -4 -1 70.82 7.31
-4 -4 -1 68.27 7.56
-4 -4 -2 858.9 29.14
-4 -4 -2 903.03 27.93
-4 -4 -2 854.23 45.65
4 4 2 910.41 34.31
4 4 2 978.85 42.25
-4 -4 -2 1037.99 42.92
-4 -4 -2 856.46 28.11
4 4 3 15 5.59
-4 -4 -3 20.03 4.03
-4 -4 -3 14.28 4.03
4 4 3 15.64 4.52
-4 -4 -3 18.33 4.71
-4 -4 -3 17.85 4.13
-4 -4 -4 746.69 23.98
-4 -4 -4 670.04 27.34
-4 -4 -4 659.76 25.97
4 4 4 653.14 23.83
-4 -4 -5 6.2 2.12
4 4 5 8.58 2.74
-4 -4 -5 4.53 2.51
-4 -4 -5 6.09 2.71
-4 -4 -6 29.81 4.22
4 4 6 28 4.33
-4 -4 -6 31.32 5.35
-4 -4 -6 28.95 5.57
4 4 6 29.31 4.69
-4 -4 -7 25.52 3.57
-4 -4 -7 30.76 4.89
-4 -4 -7 27.33 4.94
4 4 7 26.12 4.04
4 4 7 27.35 4.29
-4 -4 -8 26.48 4.5
-4 -4 -8 24.97 3.97
4 4 8 23.27 3.57
4 4 8 22.44 3.55
4 4 9 0.65 0.16
-4 -4 -9 -0.55 0.85
4 4 9 0.06 0.49
4 4 10 2.75 0.9
-4 -4 -10 2.63 0.85
-4 -4 -10 2.41 0.89
4 4 10 2.44 0.87
-4 -5 13 62.4 4.88
-4 -5 13 55.28 4.34
4 5 -13 51.98 3.55
-4 -5 12 60.17 5.8
-4 -5 12 58.87 5.51
4 5 -12 56.82 4.75
-4 -5 11 48.71 5
-4 -5 11 55.6 6.35
-4 -5 11 54.21 6.34
4 5 -11 57.42 5.57
-4 -5 10 -1.59 1.47
-4 -5 10 -0.39 0.48
-4 -5 10 0.27 1.4
-4 -5 9 243.67 15.78
-4 -5 9 250.8 16.14
-4 -5 9 167.1 12.4
-4 -5 9 213.33 14.52
4 5 -9 201.85 12.14
-4 -5 8 1.7 1.52
-4 -5 8 -0.69 0.77
-4 -5 8 2.89 1.52
4 5 -8 1.37 1.04
-4 -5 8 0.73 0.84
-4 -5 7 35.08 6.65
-4 -5 7 31 6.24
4 5 -7 42.33 5.95
-4 -5 7 35.14 5.64
-4 -5 7 44.68 6.98
-4 -5 7 35.33 5.61
-4 -5 6 297.92 17.05
-4 -5 6 279.68 16.72
-4 -5 5 38.18 7.11
-4 -5 5 49.11 6.61
-4 -5 5 28.28 5.88
-4 -5 4 159.77 12.83
4 5 -4 120.77 13.4
-4 -5 4 137.93 10.77
-4 -5 4 144.14 12.77
4 5 -4 130.25 9
4 5 -3 162.73 10.58
-4 -5 3 171.46 13.46
-4 -5 3 121.92 9.63
4 5 -3 135 9.82
4 5 -3 208.61 18.29
4 5 -3 179.94 16.81
4 5 -3 213.08 19.58
-4 -5 3 195.11 12.95
-4 -5 3 190.1 15.63
-4 -5 2 61.01 7.81
-4 -5 2 79.4 7.66
4 5 -2 50.39 8.88
-4 -5 2 23.75 12.01
4 5 -2 51.92 8.14
4 5 -2 52.64 9.35
-4 -5 2 58.89 6.72
-4 -5 2 57.31 8.74
4 5 -2 45.25 5.47
-4 -5 1 261.68 16.4
-4 -5 1 235.7 14.34
4 5 -1 237.97 13.2
4 5 -1 260.19 20.6
-4 -5 1 295.25 37.36
4 5 -1 266.32 18.39
-4 -5 1 215.31 12.19
-4 -5 1 246.9 13.93
4 5 -1 289.03 23.16
-4 -5 1 266.73 14.43
-4 -5 1 282.54 20.05
-4 -5 0 83.51 9.4
-4 -5 0 66.9 6.94
4 5 0 70.49 7.58
4 5 0 98.83 11.39
-4 -5 0 92.43 8.48
-4 -5 0 111.65 9.7
-4 -5 0 115.7 9.55
4 5 0 85.17 13.49
-4 -5 0 89.08 12.41
-4 -5 0 67.98 6.99
-4 -5 -1 75.61 8.07
-4 -5 -1 60.08 6.75
-4 -5 -1 63.23 7.13
-4 -5 -1 70.17 11.2
-4 -5 -1 62.17 7.13
4 5 1 61.47 6.83
-4 -5 -2 168.45 11.81
-4 -5 -2 216.22 14.48
-4 -5 -2 185.23 13.05
-4 -5 -2 201.7 17.35
-4 -5 -2 166.26 12.36
4 5 2 178.05 12.33
-4 -5 -3 50.6 6.14
-4 -5 -3 69.55 8.34
-4 -5 -3 45.85 6.58
-4 -5 -3 52.36 7.58
-4 -5 -3 48.9 6.76
4 5 3 45.99 6.19
-4 -5 -4 2.02 1.5
-4 -5 -4 3.93 1.52
-4 -5 -4 0.23 1.03
4 5 4 1.7 0.84
-4 -5 -4 0.92 1.16
-4 -5 -5 439.77 17.06
-4 -5 -5 416.04 19.77
-4 -5 -5 380.37 19.96
4 5 5 453.61 18.89
-4 -5 -6 2.28 1.53
-4 -5 -6 2.57 1.34
4 5 6 1.28 0.91
4 5 6 -0.44 0.94
-4 -5 -7 88.55 7.99
-4 -5 -7 88.97 7.54
4 5 7 92.01 7.24
4 5 8 13.59 2.42
-4 -5 -8 17.02 2.95
-4 -5 -8 15.17 2.95
-4 -5 -8 14.54 2.7
4 5 8 16.96 2.81
-4 -5 -9 18.32 2.18
4 5 9 23.94 3.02
-4 -5 -9 20.05 2.55
-4 -5 -9 25.25 2.86
-4 -5 -9 24.05 2.87
4 5 9 25.15 2.8
-4 -6 12 22.79 2.89
-4 -6 12 25.38 2.82
4 6 -12 16.23 1.98
-4 -6 11 6.68 1.95
-4 -6 11 7.26 1.91
4 6 -11 4.21 1.24
-4 -6 10 128.67 9.2
-4 -6 10 109.46 7.72
-4 -6 10 124.06 9
4 6 -10 125.1 8.22
4 6 -10 114.85 6.93
-4 -6 9 9.01 2.32
-4 -6 9 13.61 3.35
-4 -6 9 7.93 2.33
-4 -6 9 11.85 3.01
4 6 -9 10.05 2.33
-4 -6 8 245.2 14.89
-4 -6 8 236.87 14.85
-4 -6 8 252.51 15.36
-4 -6 8 261.87 14.44
4 6 -8 240.81 13.25
-4 -6 7 8.08 2.77
-4 -6 7 9.19 2.89
-4 -6 7 7.63 2.75
-4 -6 7 10.3 2.9
-4 -6 7 11 2.94
4 6 -7 9.86 2.96
-4 -6 6 94.03 9.82
-4 -6 6 107.78 10.4
-4 -6 6 127.51 12.23
4 6 -6 130.31 10.29
-4 -6 6 105.95 9.6
-4 -6 6 99.7 9.36
-4 -6 6 121.52 9.99
-4 -6 5 77.08 8.77
-4 -6 5 61.62 7.3
-4 -6 5 67.88 8.28
-4 -6 4 404.64 20.6
4 6 -4 345.87 15.05
-4 -6 4 383.4 18.39
4 6 -4 390.7 16.15
-4 -6 4 396.05 21.14
-4 -6 3 60.39 7.77
4 6 -3 51.77 5.82
-4 -6 3 58.75 6.88
-4 -6 3 68.18 8.84
4 6 -3 62.34 6.52
-4 -6 2 10.41 3.42
-4 -6 2 11.46 2.76
4 6 -2 10.83 2.79
4 6 -2 10.32 2.71
-4 -6 2 11.96 3.76
-4 -6 2 11.73 2.91
-4 -6 1 48.21 7.14
-4 -6 1 35 5.37
-4 -6 1 41.96 5.84
-4 -6 1 44.25 7.82
4 6 -1 44.71 6
4 6 -1 40.07 5.32
-4 -6 0 349.71 19.2
-4 -6 0 347.89 17.99
4 6 0 377.02 17.16
-4 -6 0 403.43 18.24
-4 -6 0 386.08 17.83
-4 -6 0 365.76 23.38
-4 -6 0 369.49 17.02
4 6 0 424.65 19.02
-4 -6 -1 40.18 6.32
4 6 1 40.4 5.61
4 6 1 51.62 6.55
-4 -6 -1 47.81 5.68
-4 -6 -1 42.99 5.82
-4 -6 -1 31.95 6.88
-4 -6 -1 43.81 5.94
-4 -6 -1 43.64 5.89
4 6 1 49.16 5.83
4 6 2 71.15 7.84
-4 -6 -2 66.32 6.87
-4 -6 -2 84.63 8.16
-4 -6 -2 56.24 8.23
-4 -6 -2 76.13 7.92
-4 -6 -2 80.61 8.17
4 6 2 82.15 8.1
4 6 2 68.41 7.29
4 6 3 4.46 1.57
-4 -6 -3 6.41 2.05
-4 -6 -3 2.71 1.09
-4 -6 -3 3.56 1.71
-4 -6 -3 2.87 1.19
4 6 3 6.62 2.17
-4 -6 -3 5.72 2.15
4 6 3 6.77 2.32
4 6 4 172.32 11.93
-4 -6 -4 136.47 9.95
4 6 4 184.54 10.66
-4 -6 -4 162 11.43
-4 -6 -4 155.24 11.18
4 6 4 169.07 11.18
4 6 5 8.07 2.62
-4 -6 -5 7.53 2.5
-4 -6 -5 5.7 1.96
4 6 5 6.36 1.83
-4 -6 -5 6.02 2.14
4 6 5 4.39 1.84
4 6 6 100.41 8.07
-4 -6 -6 90.37 7.36
-4 -6 -6 78.16 6.52
-4 -6 -6 98.52 7.53
4 6 6 84.44 5.64
4 6 6 114.43 7.89
-4 -6 -7 14.52 2.54
4 6 7 14.73 2.71
-4 -6 -7 10.82 1.95
-4 -6 -7 14.19 2.45
4 6 7 15.71 2.5
-4 -6 -8 36.3 3.02
-4 -6 -8 43.69 3.41
4 6 8 38.19 3.49
4 6 8 35.91 3.36
-4 -6 -8 32.38 2.7
-4 -6 -8 43.38 3.45
4 6 8 45.82 3.66
-4 -7 10 7.23 1.54
-4 -7 10 10.68 2.02
4 7 -10 9.79 1.81
-4 -7 9 3.57 1.26
-4 -7 9 6.47 1.94
-4 -7 9 4.49 1.66
4 7 -9 3.77 1.31
-4 -7 8 22.4 3.68
-4 -7 8 30.26 4.51
-4 -7 8 27.12 4.29
-4 -7 8 28.78 4.25
4 7 -8 27.2 3.79
-4 -7 7 136.05 10.45
-4 -7 7 139.69 10.71
4 7 -7 136.86 9.36
-4 -7 7 132.4 9.39
-4 -7 6 21.99 4.41
-4 -7 6 27.72 5.25
-4 -7 6 17.6 3.39
-4 -7 6 29.63 4.58
4 7 -6 19.23 3.69
-4 -7 5 -0.54 0.61
-4 -7 5 0.37 0.55
-4 -7 5 2.12 1.27
4 7 -5 1.89 0.99
-4 -7 4 10.55 3.03
4 7 -4 6.54 1.56
-4 -7 4 7.37 2.78
-4 -7 4 10.25 2.94
4 7 -4 8.51 1.89
4 7 -4 9.41 2.64
4 7 -3 23.92 3.7
4 7 -3 19.66 3.45
-4 -7 3 24.7 4.61
-4 -7 3 19.23 4.38
4 7 -3 21.75 4.33
-4 -7 3 20.54 4.23
-4 -7 2 43.27 6.28
4 7 -2 43.28 5.11
-4 -7 2 48.74 6.15
-4 -7 2 52.7 7.41
4 7 -2 48.09 5.77
-4 -7 1 47.42 6.54
-4 -7 1 42.26 4.92
4 7 -1 46.54 5.46
4 7 -1 55.55 6.36
-4 -7 1 50.07 6.16
-4 -7 1 50.18 7.44
-4 -7 0 2.53 1.77
-4 -7 0 2.31 1.51
4 7 0 0.99 0.69
4 7 0 4 1.85
-4 -7 0 0.28 0.58
-4 -7 0 0.8 1.15
-4 -7 -1 8.05 2.49
-4 -7 -1 5.39 1.8
4 7 1 5.8 2.02
-4 -7 -1 7.38 3.2
-4 -7 -1 6.38 2.06
4 7 1 7.16 2.21
-4 -7 -2 87.58 7.85
4 7 2 111.33 8.85
-4 -7 -2 89.04 7.44
-4 -7 -2 110.45 9.83
4 7 2 110.01 8.66
4 7 2 97.71 7.63
-4 -7 -3 22.63 3.87
-4 -7 -3 11.91 2.88
4 7 3 16.15 3.33
4 7 3 17.01 3.04
-4 -7 -3 17.36 3.57
-4 -7 -3 11.83 2.51
-4 -7 -3 18.31 3.74
4 7 3 10.57 2.65
-4 -7 -4 3.75 1.3
4 7 4 3.03 1.63
4 7 4 1.79 0.62
4 7 4 2.98 1.15
-4 -7 -4 7.35 1.93
-4 -7 -4 5.5 1.71
-4 -7 -4 7.49 2.18
4 7 4 4.6 1.67
-4 -7 -5 72.94 5.89
4 7 5 76.28 6.2
-4 -7 -5 75.18 5.58
-4 -7 -5 76.5 5.87
4 7 5 71.64 4.93
4 7 5 79.4 5.98
-4 -7 -6 28.61 3.09
4 7 6 28.84 3.28
4 7 6 17.67 2.32
4 7 6 27.73 3.04
-4 -8 8 25.72 2.92
-4 -8 8 29.22 3.21
4 8 -8 33.84 3.15
4 8 -8 33.46 3.14
-4 -8 7 9.97 2.2
-4 -8 7 13.57 2.71
-4 -8 7 9.95 2.1
4 8 -7 11.54 2.18
-4 -8 6 53.64 5.58
-4 -8 6 47.75 5.42
-4 -8 6 55.51 5.25
4 8 -6 51.26 5.02
-4 -8 5 53.81 5.88
-4 -8 5 64.14 6.79
-4 -8 5 51.14 5.11
-4 -8 5 63.19 5.75
4 8 -5 68.32 6.18
4 8 -4 97.13 6.05
-4 -8 4 113.25 8.72
-4 -8 4 112.5 9.46
-4 -8 4 115.93 8.16
-4 -8 4 119.06 8.72
-4 -8 4 134.29 8.63
4 8 -4 109.65 6.79
4 8 -4 135.78 9.06
-4 -8 3 102.28 8.38
4 8 -3 89.9 6.21
4 8 -3 105.85 7.3
-4 -8 3 107.76 9.59
-4 -8 3 112.86 8.07
-4 -8 3 88.52 7.99
4 8 -3 104.01 8.03
-4 -8 2 23.87 4.05
4 8 -2 27.91 3.59
4 8 -2 29.57 4.25
-4 -8 2 25.89 3.78
-4 -8 2 29.29 4.81
4 8 -2 31.41 4.24
-4 -8 1 45.58 5.28
4 8 -1 51.16 5.01
-4 -8 1 50.45 5.22
-4 -8 1 52.71 6.66
4 8 -1 57.89 5.77
4 8 -1 51.08 5.46
-4 -8 0 62.7 5.88
4 8 0 72.66 5.84
4 8 0 77.08 6.21
-4 -8 0 78.57 6.91
-4 -8 0 66.61 5.74
-4 -8 0 80.28 8.1
4 8 0 83.13 6.86
-4 -8 -1 -0.1 0.4
4 8 1 0.23 0.54
-4 -8 -1 1.37 0.91
-4 -8 -1 1.36 1.44
-4 -8 -1 0.87 0.71
4 8 1 -0.58 0.36
-4 -8 -2 17.05 2.42
4 8 2 18.38 2.91
-4 -8 -2 20.19 3.23
4 8 2 20.48 3.05
-4 -8 -3 96.95 5.66
4 8 3 105.87 6.7
-4 -8 -3 104.25 6.19
4 8 3 108.45 6.26
4 8 4 104.47 5.78
-4 -9 4 0.86 0.55
-4 -9 3 280.31 10.81
-4 -9 3 309.86 10.2
-4 -9 2 61.58 4.71
-4 -9 2 77.05 5.12
-4 -9 1 14.67 2.31
-4 -9 1 15.85 2.18
5 -11 -3 15.2 2.13
-5 11 3 12.3 2.26
-5 11 3 10.72 2.04
-5 11 2 61.34 5.07
-5 11 2 54.39 5.27
5 -11 -1 438.9 13.02
-5 11 1 407.91 13.24
-5 11 1 392.39 15.22
5 -11 0 116.02 6.52
-5 11 0 103.51 6.17
-5 11 0 102.49 7.3
-5 11 0 100.2 6.45
-5 11 -1 74.79 4.74
-5 11 -1 78.2 5.78
-5 11 -1 67.48 5.47
5 -11 2 56.66 4.09
-5 11 -2 49.85 4.36
5 -10 -7 167.47 5.95
-5 10 7 160.73 7.85
-5 10 6 48.98 4.97
-5 10 6 52.89 4.66
-5 10 6 50.38 4.5
-5 10 6 54.5 5.16
-5 10 5 35.95 4.61
-5 10 5 34.73 3.79
-5 10 5 29.75 4.07
-5 10 5 34.45 4.21
-5 10 5 32.55 4.4
-5 10 4 3.39 1.56
-5 10 4 1.93 0.88
-5 10 4 2.62 1.28
-5 10 4 1.74 1.24
-5 10 3 38.19 5.52
-5 10 3 41.03 5.19
-5 10 3 39.04 5.9
-5 10 3 43.75 5.57
5 -10 -2 26.06 3.73
-5 10 2 20.82 3.98
-5 10 2 21.64 3.61
-5 10 2 22.37 3.67
-5 10 2 15.96 3.82
-5 10 2 21.55 3.7
5 -10 -1 13.82 2.73
-5 10 1 11.94 2.89
-5 10 1 13.28 2.91
-5 10 1 11.4 2.41
-5 10 1 12.23 3.04
-5 10 1 10.03 3.39
5 -10 0 43.3 4.79
-5 10 0 34.99 4.83
-5 10 0 39.9 6.41
-5 10 0 36.58 5.86
-5 10 0 38.2 4.2
5 -10 1 29.66 3.83
-5 10 -1 28.46 4.1
-5 10 -1 32.72 5.3
-5 10 -1 27.95 4.94
5 -10 2 122.41 7.67
-5 10 -2 93.62 6.85
-5 10 -2 100.93 8.3
-5 10 -2 112.6 9.36
5 -10 3 48.75 4.62
-5 10 -3 42.55 4.17
-5 10 -3 40.97 4.55
-5 10 -3 37.13 4.09
-5 10 -3 48.34 5.58
5 -10 4 37.3 3.72
-5 10 -4 39.29 3.93
-5 10 -4 44.7 4.65
-5 10 -5 0.19 0.32
5 -10 5 0.64 0.74
-5 10 -5 -0.21 0.15
-5 10 -5 0.38 0.3
5 -9 -9 3.64 1.14
-5 9 9 5.07 1.47
-5 9 9 3.1 0.97
5 -9 -8 88.17 5.95
-5 9 8 79.65 6.91
-5 9 8 79.02 6.48
-5 9 8 88.81 5.95
5 -9 -7 110.57 7.29
-5 9 7 100.47 8.69
-5 9 7 90.84 6.83
-5 9 7 99.6 8.37
-5 9 7 105.97 7.89
5 -9 -6 19.88 3.19
-5 9 6 21.15 4.06
-5 9 6 15.05 3.41
-5 9 6 16.13 3.44
-5 9 6 15.04 3.15
-5 9 6 23.7 3.87
5 -9 -5 25.62 3.61
-5 9 5 28.83 4.69
-5 9 5 25.35 5.09
-5 9 5 29.33 4.99
-5 9 5 23.12 4.71
-5 9 4 17.46 3.54
-5 9 4 22.28 5.08
-5 9 4 20.47 4.73
-5 9 4 20.48 4.92
-5 9 3 1.83 0.92
-5 9 3 -0.05 0.56
-5 9 3 1.98 1.43
-5 9 3 1.72 2.14
-5 9 3 -0.1 0.6
-5 9 2 232.94 15.32
-5 9 2 175.85 16.55
-5 9 2 215.01 13.52
-5 9 2 217.96 14.87
-5 9 2 237.38 14.65
-5 9 1 23.38 4.51
-5 9 1 20 3.81
-5 9 1 21.26 4.97
-5 9 1 26.03 6.28
-5 9 1 23.82 4.4
-5 9 0 47.73 6.56
-5 9 0 50.46 6.3
-5 9 0 38.32 5.11
-5 9 0 52.95 8.77
-5 9 0 36.7 6.93
5 -9 1 34.51 4.46
-5 9 -1 35.27 5.35
-5 9 -1 34.51 4.97
-5 9 -1 32.12 4.38
-5 9 -1 34.62 6.86
-5 9 -1 36.33 6.61
5 -9 2 256.16 12.4
-5 9 -2 218.16 12.62
-5 9 -2 239.3 15.31
-5 9 -2 263.11 17.4
5 -9 3 8.49 2
-5 9 -3 4.4 1.62
-5 9 -3 6.59 2.19
-5 9 -3 8.53 2.74
-5 9 -3 6.26 2.14
5 -9 4 3.24 1.15
-5 9 -4 3.58 1.32
-5 9 -4 4.33 1.65
-5 9 -4 2.91 1.35
-5 9 -4 2.11 1.29
-5 9 -4 2.24 1.18
5 -9 5 119.86 7.26
-5 9 -5 98.95 7.89
-5 9 -5 127.78 8.63
-5 9 -5 116.85 8.26
-5 9 -6 39.12 4.41
-5 9 -6 48.57 4.79
-5 9 -6 44.66 4.27
-5 9 -6 40.38 4.11
5 -9 6 52.29 5.12
-5 9 -7 77.94 5.27
-5 9 -7 91.24 5.38
-5 9 -7 89.72 5.68
5 -9 7 87.94 5.72
-5 9 -8 15.96 1.91
5 -8 -11 13.13 1.81
-5 8 11 19.71 2.61
5 -8 -10 527.07 14.8
-5 8 10 535.69 17.55
-5 8 10 511 16.35
-5 8 9 16.11 3.34
5 -8 -9 11.16 2.36
-5 8 9 16.38 3.62
-5 8 9 9.37 2.25
5 -8 -8 86.04 7.32
-5 8 8 143.36 11.77
-5 8 8 131.22 10.07
-5 8 8 111.44 9.9
-5 8 8 133.48 9.08
-5 8 8 108.13 7.6
5 -8 -7 84.57 7.55
-5 8 7 101.63 10.89
-5 8 7 114.57 10.67
-5 8 7 95.89 9.51
-5 8 7 112.74 9.74
-5 8 7 98.58 7.69
-5 8 6 56.05 7.93
5 -8 -6 42.48 5.38
-5 8 6 36.49 6.49
-5 8 6 51.1 7.96
-5 8 6 45.87 6.83
-5 8 6 40.22 6.19
-5 8 6 40.36 4.98
5 -8 -5 66.2 6.5
-5 8 5 73.86 8.85
-5 8 5 65.22 9.71
-5 8 5 77.37 9.36
-5 8 5 60.36 9.25
-5 8 5 78.59 8.27
-5 8 5 72.77 6.79
-5 8 4 152.42 12.05
-5 8 4 171.27 15.55
-5 8 4 170.93 14.77
-5 8 4 154.79 11.74
-5 8 4 160.66 11.68
-5 8 4 161.45 14.21
-5 8 4 168.41 10.39
-5 8 3 237.48 14.17
-5 8 3 249.4 16.61
-5 8 3 267.54 21.08
-5 8 3 234.11 15.88
-5 8 3 239.78 16.24
-5 8 3 253.83 12.7
-5 8 2 11.83 2.65
-5 8 2 14.49 3.96
-5 8 2 14.5 3
-5 8 2 14.3 5.57
-5 8 2 11.39 3.64
-5 8 2 16.32 3.98
-5 8 1 82.66 7.13
-5 8 1 66.94 7.64
-5 8 1 76.87 10.49
-5 8 1 70.91 8.14
-5 8 1 68.23 13.03
-5 8 0 12.19 2.67
-5 8 0 12.51 3.34
-5 8 0 10.44 2.98
-5 8 0 11.16 3.38
-5 8 0 11.29 4.01
-5 8 0 9.06 3.68
-5 8 -1 169.23 12.35
-5 8 -1 165.21 11.18
-5 8 -1 176.96 15.93
-5 8 -1 188.57 14.11
-5 8 -1 155.95 17.82
-5 8 -1 168.96 12.1
5 -8 2 67.32 6.5
-5 8 -2 69.76 7.68
-5 8 -2 78.52 8.12
-5 8 -2 58.4 8.77
-5 8 -2 69.59 6.95
-5 8 -2 59.24 8.47
-5 8 -2 49.53 8.75
5 -8 3 36.43 4.62
-5 8 -3 26.93 4.51
-5 8 -3 35.11 5.35
-5 8 -3 24.75 5.25
-5 8 -3 35.36 5.73
-5 8 -3 25.22 5.58
-5 8 -3 29.12 5.23
5 -8 4 92.09 7.33
-5 8 -4 87.53 7.7
-5 8 -4 75.51 7.38
-5 8 -4 89.87 9.25
-5 8 -4 67.88 8.33
-5 8 -4 87.17 8.33
-5 8 -4 77.9 8.58
-5 8 -5 159.11 10.07
-5 8 -5 142.79 12.09
-5 8 -5 161.71 11.08
-5 8 -6 206.3 12.97
-5 8 -6 223.31 12.22
-5 8 -6 203.61 11.05
-5 8 -7 14.23 2.97
-5 8 -7 17.42 2.87
-5 8 -7 18.42 3.08
5 -8 7 20.97 3.56
-5 8 -8 250.77 10.44
-5 8 -8 237.88 10.54
-5 8 -8 271.99 10.42
-5 8 -9 23.83 2.5
-5 8 -9 23.66 2.46
-5 8 -9 24.96 2.66
5 -8 9 30.32 2.99
5 -7 -12 18.01 2.32
-5 7 12 19.07 2.44
-5 7 12 19.03 2.34
-5 7 11 7.48 1.78
-5 7 11 6.86 2.16
-5 7 11 4 1.33
-5 7 10 83.45 7.95
-5 7 10 74.06 7.11
-5 7 10 62.08 6
-5 7 9 178.98 13.44
-5 7 9 187.84 11.82
-5 7 9 165.73 12.55
-5 7 9 168.92 11.23
-5 7 8 39.38 7.19
-5 7 8 48.61 7.01
-5 7 8 43.85 7.84
-5 7 8 38.83 5.51
-5 7 8 38.55 6.01
-5 7 7 30.34 7.02
-5 7 7 44.8 7.18
-5 7 7 37.41 6.76
-5 7 7 35.14 5.85
-5 7 7 36.34 5.51
-5 7 6 17.55 4.42
-5 7 6 19.11 3.92
-5 7 6 21.8 5.55
-5 7 6 17.38 5.31
-5 7 6 22.11 5.16
-5 7 6 14.99 4.43
-5 7 5 56.12 9.13
-5 7 5 63.6 13.38
-5 7 5 56.97 9.42
-5 7 5 124.61 11.2
-5 7 5 63.28 12.58
-5 7 5 137.1 10.72
-5 7 4 338.94 18.87
-5 7 4 414.01 24.33
-5 7 4 337.76 22.77
-5 7 4 388.09 19.86
-5 7 4 351.37 17.66
-5 7 4 402.44 24.09
-5 7 4 322.21 15.62
-5 7 3 20.3 6.93
-5 7 3 28.72 7.87
-5 7 3 31.75 10.08
-5 7 3 21.16 6.76
-5 7 2 5.23 3.03
5 -7 -2 3.79 2.08
-5 7 2 9.08 4.28
-5 7 2 6.74 4.26
-5 7 2 18.78 4.11
-5 7 2 12.48 4.29
-5 7 2 10.76 6.23
-5 7 1 378.27 36.39
-5 7 1 342.96 16.85
5 -7 -1 359.64 22.9
-5 7 1 351.3 25.34
5 -7 -1 477.13 26.79
-5 7 1 338.42 17.9
-5 7 1 344.85 24.15
-5 7 1 396.06 19.64
-5 7 1 479.73 18.3
-5 7 0 105 9.45
-5 7 0 115.12 8.82
-5 7 0 106.94 10.17
5 -7 0 108.65 12.99
-5 7 0 75.62 12.53
-5 7 0 106.85 9.8
-5 7 -1 580.34 23.7
-5 7 -1 517.52 26.34
-5 7 -1 608.81 23.66
-5 7 -1 528.43 21.54
-5 7 -1 682.51 32.5
-5 7 -1 620.59 41.05
-5 7 -1 648.78 21.86
-5 7 -1 564.94 22.84
-5 7 -2 31.88 6.1
-5 7 -2 29.91 7.38
-5 7 -2 15.21 3.7
-5 7 -2 30.49 8.22
-5 7 -2 18.51 6.42
-5 7 -2 21.55 5.54
5 -7 3 363.43 14.96
-5 7 -3 348.25 17.45
-5 7 -3 310.76 16.75
-5 7 -3 302.54 18.79
-5 7 -3 327.8 18.78
-5 7 -3 378.41 24.35
-5 7 -3 377.96 21.89
-5 7 -4 21.93 4.34
-5 7 -4 21.42 4.13
-5 7 -4 22.28 4.92
-5 7 -4 18.64 4.48
-5 7 -4 17.3 3.96
-5 7 -5 16.05 3.91
-5 7 -5 14.61 3.59
-5 7 -5 11.75 3.19
-5 7 -6 106.6 8.49
-5 7 -6 108.66 9.43
-5 7 -6 107.47 10.58
-5 7 -6 98.26 8.29
-5 7 -7 16.96 4
-5 7 -7 22.62 3.81
-5 7 -7 18.42 3.67
-5 7 -8 -0.07 0.17
-5 7 -8 0.62 0.61
-5 7 -9 72.91 5.61
-5 7 -9 77.22 5.53
-5 7 -9 70.37 5.36
5 -7 9 77.38 6.02
-5 7 -10 22.34 2.44
-5 7 -10 26.4 2.65
-5 7 -10 21.52 2.26
5 -7 10 30.39 3.02
-5 6 13 58.29 4.11
-5 6 12 25.13 3.51
-5 6 12 29.63 3.69
-5 6 12 28.37 3.42
-5 6 11 104.94 8.41
-5 6 11 123.97 9.4
-5 6 11 125.1 8.93
-5 6 10 86.47 8.58
-5 6 10 107.27 9.6
-5 6 9 4.73 2
-5 6 9 3.59 1.5
-5 6 9 4.35 2.48
-5 6 9 2.23 1.77
-5 6 8 17.1 5.15
-5 6 8 13.74 3.69
-5 6 8 8.58 4.22
-5 6 8 14.17 3.82
-5 6 7 3.05 2.11
-5 6 7 1.03 0.86
-5 6 7 2.35 2.9
-5 6 7 1.9 1.98
-5 6 7 3.8 2.14
-5 6 6 481.97 20.3
-5 6 6 599.05 32.11
-5 6 6 302.11 24.01
-5 6 6 547.65 25.47
-5 6 6 542.74 24.18
-5 6 6 336.26 22.34
-5 6 5 12.19 3.04
-5 6 5 16.47 4.68
-5 6 5 9.29 3.97
5 -6 -5 16.08 4.84
-5 6 5 12.18 3.17
-5 6 5 14.35 5.48
-5 6 5 11.97 4.15
-5 6 5 8.28 3.65
-5 6 4 5.13 2.08
-5 6 4 4.39 1.21
-5 6 4 3.89 2.37
-5 6 4 2.65 3.79
5 -6 -4 5.31 2.9
-5 6 4 5.65 3.45
-5 6 4 5.42 2.31
-5 6 4 4.99 2.61
-5 6 4 6.01 3.05
-5 6 3 338.31 23.49
-5 6 3 382.5 18.82
5 -6 -3 404.34 23.64
-5 6 3 425.89 21.93
-5 6 3 412.36 26.74
-5 6 3 395.61 21.33
-5 6 3 382.92 17.65
-5 6 3 428.12 21.8
-5 6 3 368.42 16.28
-5 6 2 253.08 19.28
-5 6 2 280.17 15.29
5 -6 -2 309.15 19.1
-5 6 2 293.84 21.57
5 -6 -2 301.91 20.31
-5 6 2 318.79 17.58
-5 6 2 234.58 22.2
-5 6 2 301.45 19.72
-5 6 2 318.11 17.53
-5 6 2 290.26 14.2
-5 6 1 9.94 2.3
-5 6 1 9.75 3.43
-5 6 1 13.67 3.17
5 -6 -1 10.2 3.6
-5 6 1 8.28 3.59
-5 6 1 10.35 2.94
-5 6 1 13.88 4.59
-5 6 1 9.3 4.37
-5 6 1 12.2 3.18
-5 6 0 16.64 3.49
-5 6 0 16.98 3.51
-5 6 0 13.58 3.43
5 -6 0 14.57 4.73
-5 6 0 15.06 3.9
-5 6 0 17.45 3.82
-5 6 0 15.58 5.16
-5 6 0 19.06 4.16
-5 6 0 11.52 4.93
-5 6 0 24.82 6.8
-5 6 0 15.66 3.54
-5 6 -1 319.55 17
5 -6 1 337.47 23.46
-5 6 -1 295 22.35
-5 6 -1 323.6 17.63
-5 6 -1 325.86 25.97
-5 6 -1 295.01 15.66
-5 6 -1 354.56 22.55
-5 6 -1 276.98 19.1
-5 6 -1 347.13 15.7
-5 6 -1 311.52 16.43
-5 6 -2 7.34 2.36
5 -6 2 7.16 3.99
-5 6 -2 8.03 2.54
-5 6 -2 9.03 3.13
-5 6 -2 8.3 3.91
-5 6 -2 7.01 2.24
-5 6 -2 0.76 1.85
-5 6 -2 12.54 4.1
-5 6 -2 4.36 2.36
-5 6 -3 2.51 1.89
5 -6 3 3.59 2.05
-5 6 -3 2.83 1.68
-5 6 -3 3.95 3
-5 6 -3 0.27 0.76
-5 6 -3 3.29 1.94
-5 6 -3 4.1 2.33
-5 6 -3 2.27 1.78
-5 6 -4 41.29 5.85
-5 6 -4 42.12 5.98
-5 6 -4 54.95 7.99
-5 6 -4 37.95 6.13
-5 6 -5 20.9 4.33
-5 6 -5 25.27 4.81
-5 6 -5 31.3 5.48
-5 6 -6 62.6 7.21
-5 6 -6 60.87 7.28
-5 6 -6 64.4 7.02
-5 6 -6 62.78 6.77
-5 6 -7 10.3 2.56
-5 6 -7 9.29 2.49
5 -6 7 11.62 3.29
-5 6 -8 173.11 11.21
-5 6 -8 177.79 10.73
-5 6 -8 174.07 10.41
5 -6 8 167.93 11.3
-5 6 -9 18.76 3.1
-5 6 -9 23.09 3.59
-5 6 -9 18.56 3.08
5 -6 9 21.89 3.75
-5 6 -10 3.97 1.12
-5 6 -10 7.58 1.53
-5 6 -10 7.26 1.67
5 -6 10 8 1.98
-5 6 -11 4.66 1.06
5 -6 11 3.78 0.94
-5 5 14 1.8 0.71
-5 5 13 111.84 7.42
-5 5 12 77.78 7.28
-5 5 12 75.22 6.42
-5 5 11 38.61 5.93
-5 5 11 43.72 5.87
-5 5 11 44.45 5.68
-5 5 10 28.1 5.19
-5 5 10 24.42 5.38
-5 5 10 29 5.29
-5 5 9 12.62 3.93
-5 5 9 14.9 4.37
-5 5 9 8.81 3.55
-5 5 9 15.16 3.59
-5 5 8 121.3 11.42
-5 5 8 91.41 12.17
-5 5 8 149.99 11.73
-5 5 8 127.53 11.19
-5 5 8 116.86 14.27
-5 5 7 2.41 1.44
-5 5 7 3.18 1.88
-5 5 7 -0.63 1.44
-5 5 7 2.53 2.1
5 -5 -7 2 2.64
-5 5 7 3.73 2.17
5 -5 -7 3.83 2.04
-5 5 7 0.98 1.13
-5 5 6 65.39 7.4
-5 5 6 88.7 16.53
-5 5 6 81.18 11.5
-5 5 6 86.8 9.1
5 -5 -6 68.94 9.87
5 -5 -6 73.04 10.31
-5 5 6 68.27 8.72
-5 5 6 50.48 8.83
-5 5 6 72.63 8.45
-5 5 5 1.52 0.58
-5 5 5 3.12 1.7
-5 5 5 1.74 2.29
-5 5 5 4.05 1.94
-5 5 5 0.04 1.24
5 -5 -5 -0.34 1.32
-5 5 5 1.2 1.06
5 -5 -5 1.37 1.78
-5 5 5 2.04 1.27
-5 5 5 2 1.86
-5 5 5 2.4 1.75
-5 5 4 226.25 19.99
-5 5 4 259.2 15.91
-5 5 4 307.41 16.38
5 -5 -4 254.46 18.1
-5 5 4 261.46 17.41
-5 5 4 242.07 18.3
-5 5 4 240.97 13.7
-5 5 4 270.93 17.54
-5 5 4 223.84 12.55
-5 5 3 226.99 16.85
-5 5 3 212.33 18.01
5 -5 -3 244.87 15.34
5 -5 -3 248.11 17.63
-5 5 2 104.35 11.99
5 -5 -2 137.12 12.33
-5 5 2 133.58 13.22
-5 5 2 114.91 11.92
-5 5 1 173.63 14.95
5 -5 -1 225.18 16.81
-5 5 1 210.18 16.74
-5 5 1 202.04 16.24
-5 5 0 463.66 24.29
5 -5 0 515.71 27.07
-5 5 0 458.71 25.63
-5 5 0 444.08 25.41
-5 5 -1 8 2.26
-5 5 -1 11.41 4.02
5 -5 1 10.59 4.29
-5 5 -1 12.52 3.18
-5 5 -1 10.44 3.66
-5 5 -1 7.9 2.29
-5 5 -1 11.74 3.66
-5 5 -1 13.43 4.03
-5 5 -1 10.25 2.76
-5 5 -2 237.12 14.25
-5 5 -2 242.57 19.94
5 -5 2 272.8 21.37
-5 5 -2 277.25 17.24
-5 5 -2 246.94 13.94
-5 5 -2 263.26 16.97
-5 5 -2 217.57 17.75
-5 5 -2 271.42 22.1
-5 5 -2 321.82 20.38
-5 5 -2 302.15 14.9
-5 5 -3 845.57 34.43
-5 5 -3 683.11 25
-5 5 -3 688.14 35.32
5 -5 3 760.24 36.24
-5 5 -3 757.28 25.46
-5 5 -3 743.77 27.64
-5 5 -3 757.18 39.56
-5 5 -3 829.56 30.79
-5 5 -4 5.09 2.79
5 -5 4 5.24 3.3
-5 5 -4 7.73 2.55
-5 5 -4 6.5 3.39
-5 5 -4 7.13 2.27
-5 5 -4 6.92 2.75
-5 5 -4 7.22 2.74
-5 5 -5 591.32 23.29
-5 5 -5 557.63 22.46
-5 5 -6 15.36 3.64
-5 5 -6 15.08 3.59
-5 5 -6 14.79 3.42
5 -5 7 0.71 0.74
-5 5 -7 1.51 1.13
-5 5 -7 2.6 1.65
-5 5 -7 3.64 1.38
-5 5 -7 2.24 1.56
-5 5 -8 103.02 8.95
-5 5 -8 105.74 8.35
-5 5 -8 96.03 8.13
5 -5 8 93.39 8.64
-5 5 -9 -0.65 0.88
-5 5 -9 -0.44 0.41
-5 5 -9 1.19 0.77
5 -5 9 -0.92 0.92
-5 5 -10 13.39 2.4
-5 5 -10 19.44 2.99
5 -5 10 22.77 3.34
-5 5 -10 20.54 2.84
5 -5 10 19.08 2.35
-5 5 -11 1.28 0.38
5 -5 11 0.31 0.42
-5 4 14 57.07 4.83
-5 4 13 29.82 4.22
-5 4 12 34.56 5.48
-5 4 12 38.97 5.32
-5 4 11 2.23 2.8
-5 4 11 0.55 1.09
-5 4 11 4.7 1.93
-5 4 11 0.96 1.03
-5 4 11 3.41 2.11
-5 4 10 118.52 12.61
-5 4 10 130.79 11.5
-5 4 10 129.71 12.1
-5 4 10 117.06 11.95
-5 4 9 766.73 32.38
-5 4 9 704.14 29.67
-5 4 9 996.31 30.07
-5 4 9 791.57 30.82
-5 4 9 735.66 30.46
-5 4 9 501.93 26.55
-5 4 8 72.4 9.22
-5 4 8 37.42 7.61
-5 4 8 56.33 14.46
5 -4 -8 64.67 9.73
-5 4 8 67.69 8.17
5 -4 -8 63.66 10.94
-5 4 8 69.16 8.5
-5 4 8 67.85 8.43
-5 4 8 56.49 9.45
-5 4 7 722.34 26.86
-5 4 7 826.62 53.27
-5 4 7 609.86 32.98
5 -4 -7 823.8 35.09
-5 4 7 942.08 30.57
-5 4 7 808.09 31.26
5 -4 -7 812.79 36.01
-5 4 7 801.29 31.28
-5 4 6 289.74 15.57
-5 4 6 367.6 20.54
-5 4 6 358.83 29.82
-5 4 6 340 21.3
5 -4 -6 320.1 21.15
-5 4 6 366.01 18.78
5 -4 -6 352.84 22.04
-5 4 6 307.27 16.85
-5 4 5 5.62 3.04
5 -4 -5 7.3 3.03
5 -4 -5 10.27 3.41
-5 4 4 314.71 20.02
-5 4 4 296.34 21.82
5 -4 -4 325.33 19.45
5 -4 -4 314.43 19.25
-5 4 3 99.2 11.64
5 -4 -3 100.66 9.53
-5 4 3 103.94 11.19
-5 4 2 515.58 25.94
5 -4 -2 602.41 25.81
-5 4 2 591.59 27.65
5 -4 -1 510.57 25.51
-5 4 1 500.14 24.8
-5 4 1 552.24 27.55
-5 4 0 7.85 3.5
-5 4 0 8.72 2.97
5 -4 0 12 4.23
-5 4 0 8.9 3.13
-5 4 -1 412.18 22.83
-5 4 -1 375.16 22.87
5 -4 1 411.39 25.93
-5 4 -1 435.08 26.95
-5 4 -2 48.46 8.43
5 -4 2 49.42 8.9
-5 4 -2 45.88 9.26
-5 4 -3 642.97 23.69
-5 4 -3 633.8 33.18
5 -4 3 706.14 34.63
-5 4 -3 735.22 39.4
-5 4 -3 661.87 28.47
-5 4 -3 684.57 23.82
-5 4 -3 757.43 30.48
-5 4 -3 756.18 27.97
-5 4 -4 822.84 39.08
-5 4 -4 767.68 26.64
5 -4 4 879.76 38.7
-5 4 -4 879.88 27.76
-5 4 -4 907.02 46.94
-5 4 -4 1016.42 33.67
-5 4 -4 893.02 27.59
-5 4 -4 865.49 28.75
-5 4 -5 1138.4 33.07
5 -4 5 1159.55 44.15
-5 4 -5 1148.99 57.66
-5 4 -5 1294.54 37.09
-5 4 -5 1182.05 32.43
-5 4 -6 293.32 16.12
-5 4 -6 313 19.35
-5 4 -6 310.27 16.88
-5 4 -6 283.59 15.12
-5 4 -7 78.44 7.7
-5 4 -7 71.78 8.29
5 -4 7 62.47 7.59
-5 4 -7 70.43 7.58
-5 4 -7 70.39 7.31
-5 4 -8 193.44 12.26
-5 4 -8 190.22 11.53
-5 4 -8 189.02 11.6
5 -4 8 186.9 12.31
-5 4 -9 280.87 12.93
-5 4 -9 247.25 12.41
-5 4 -9 298.62 13.14
-5 4 -9 277.37 13.25
5 -4 9 281.48 13.95
5 -4 10 1.19 1
-5 4 -10 1.5 0.79
-5 4 -10 0 0.38
-5 4 -10 1.26 0.67
5 -4 10 0.49 0.52
-5 4 -11 56.83 3.88
5 -4 11 60.43 4.74
5 -4 11 56.4 3.72
-5 4 -12 -0.05 0.4
-5 3 15 34.63 3.08
-5 3 14 143.24 8.6
-5 3 14 139.85 8.15
-5 3 14 127.43 6.74
-5 3 13 187.23 11.77
-5 3 13 180.69 11.56
-5 3 13 160.53 9.05
-5 3 12 54.02 7.59
-5 3 12 55.82 5.56
-5 3 12 52.08 7.1
-5 3 12 50.51 5.55
-5 3 12 50.88 6.46
-5 3 11 344.65 20.88
-5 3 11 343.82 20.91
-5 3 11 338.53 15.96
-5 3 11 325.26 18.67
-5 3 10 44.19 8.02
-5 3 10 53.48 6.65
-5 3 10 37.62 7.59
-5 3 10 41.36 7.4
-5 3 9 169.24 15.63
-5 3 9 144.42 12.4
-5 3 9 171.21 12.3
5 -3 -9 146.35 16.63
-5 3 9 164.05 14.18
-5 3 9 156.03 15.23
-5 3 8 213.61 15.62
-5 3 8 243.85 17
-5 3 8 193.32 23.63
-5 3 8 179.55 14.86
5 -3 -8 206.97 17.67
-5 3 8 257.18 15.56
5 -3 -8 222.4 18.9
-5 3 8 213.95 16.08
-5 3 8 208.78 14.25
-5 3 7 347.44 17.98
-5 3 7 465.83 22.46
-5 3 7 320.5 29.24
-5 3 7 300.01 20.08
5 -3 -7 268.09 20.33
-5 3 7 644.11 25.12
-5 3 7 486.22 21.62
5 -3 -7 512.38 26.5
-5 3 7 351.33 18.65
-5 3 7 338.04 16.71
-5 3 6 165.8 18.51
5 -3 -6 161.27 15.3
5 -3 -6 164.62 13.91
-5 3 5 727.97 35.44
5 -3 -5 635.11 30.3
5 -3 -5 729.61 28.35
-5 3 4 11.84 3.92
-5 3 4 13.82 4.32
5 -3 -4 9.43 3.63
5 -3 -4 12.83 3.52
-5 3 3 656.38 29.54
5 -3 -3 727.37 30.28
5 -3 -3 724.46 26.76
-5 3 3 696.41 29.44
-5 3 2 129.36 12.4
5 -3 -2 149.2 13
-5 3 2 147.81 13.36
5 -3 -1 79.78 10.35
-5 3 1 84.79 10.3
-5 3 0 295.33 19.39
-5 3 0 307.97 20.03
-5 3 0 336.26 22.21
-5 3 -1 17.13 5.34
5 -3 1 17.04 5.56
-5 3 -1 13.3 4.35
-5 3 -2 792.85 35.1
5 -3 2 880.64 39.25
-5 3 -2 919.12 40.87
5 -3 3 102.21 13.44
-5 3 -3 71.89 12.02
-5 3 -4 800.65 26.63
5 -3 4 807.91 37.61
-5 3 -4 898.96 47.35
-5 3 -4 699.92 30.17
-5 3 -4 850.42 27.28
-5 3 -4 1005.32 32.38
-5 3 -4 856.79 26.8
-5 3 -5 193.24 12.97
5 -3 5 222.53 19.02
-5 3 -5 233.25 14.42
-5 3 -5 164.77 14.5
-5 3 -5 238.65 26.7
-5 3 -5 182.07 12.05
-5 3 -5 192.16 13.46
-5 3 -6 98.96 19.71
-5 3 -6 67.77 7.64
5 -3 6 113.19 13.37
-5 3 -6 43 6.82
-5 3 -6 55.22 6.6
-5 3 -6 48.96 6.65
5 -3 6 80.69 8.72
-5 3 -7 92.59 8.3
-5 3 -7 75.97 8.11
-5 3 -7 90.78 9.34
-5 3 -7 80.22 7.78
-5 3 -7 81.15 8.04
5 -3 7 75.9 7.91
-5 3 -8 315.39 15.13
-5 3 -8 376.81 15.3
-5 3 -8 298.72 14.8
-5 3 -8 279.43 14.54
-5 3 -8 343.51 16.71
5 -3 8 370.07 16.81
-5 3 -9 32.93 4.25
-5 3 -9 45.51 5.37
-5 3 -9 44.57 5.35
5 -3 9 53.19 5.92
-5 3 -10 198.4 10.19
-5 3 -10 225.55 11.06
5 -3 10 232.42 11.15
5 -3 10 235.74 10.83
-5 3 -11 102.19 6.4
5 -3 11 107.33 6.33
5 -3 11 119.8 6.35
5 -3 12 24.36 2.55
-5 3 -12 16.27 2.05
-5 2 15 24.1 2.68
-5 2 15 27.46 3.09
-5 2 15 22.21 2.29
-5 2 14 0.92 0.85
-5 2 14 0.19 0.27
5 -2 -14 -0.08 0.47
-5 2 13 10.09 2.84
-5 2 13 8.87 2.27
-5 2 13 8.88 2.88
5 -2 -13 11 2.2
-5 2 13 9.85 2.3
-5 2 12 43.86 7.84
-5 2 12 41.79 5.02
-5 2 12 48.29 8.06
-5 2 12 40.34 5.37
-5 2 12 55.55 7.04
-5 2 11 216.88 17.1
-5 2 11 309.46 15.28
-5 2 11 211.83 18.13
-5 2 11 293.54 15.19
-5 2 11 228.85 15.79
-5 2 10 17.57 5.87
-5 2 10 24.34 4.58
-5 2 10 22.52 4.22
-5 2 10 24.18 6.79
-5 2 9 83.93 11.55
-5 2 9 96.7 10.45
-5 2 9 63.8 12.13
5 -2 -9 122.33 13.81
-5 2 9 100.06 9.4
-5 2 9 88.74 9.54
-5 2 9 97.07 13.33
-5 2 8 65.94 9.45
-5 2 8 95.49 10.14
-5 2 8 39.59 9.79
5 -2 -8 58.52 9.88
-5 2 8 76.32 8.62
-5 2 8 75.85 9.09
5 -2 -8 65.32 9.78
-5 2 8 79.84 11.37
-5 2 7 22.87 5.28
-5 2 7 25.83 4.93
-5 2 7 14.02 5.35
5 -2 -7 18.48 5.5
-5 2 7 17.09 4.47
-5 2 7 23.15 4.24
5 -2 -7 16.48 4.55
-5 2 7 20.86 6.31
-5 2 6 8.58 5.72
5 -2 -6 5.75 4.16
5 -2 -6 5.63 2.68
-5 2 5 336.35 23.72
5 -2 -5 282.41 21.19
5 -2 -5 293.28 16.82
-5 2 4 28.71 6.3
-5 2 4 27.51 7.84
5 -2 -4 14.67 4.92
5 -2 -4 9.93 2.81
5 -2 -4 8.99 2.53
-5 2 3 147.55 13.76
5 -2 -3 146.41 14.29
5 -2 -3 137.1 11.96
-5 2 3 147.1 12.87
-5 2 2 239.22 16.78
5 -2 -2 238.36 17.42
5 -2 -2 240.17 13.6
-5 2 2 276.85 18.17
-5 2 1 53.82 10.67
5 -2 -1 66.18 8.25
-5 2 1 39.05 6.71
-5 2 0 105.88 11.29
5 -2 0 119.89 9.56
-5 2 0 143.1 15.33
5 -2 1 244.4 13.75
-5 2 -1 255.43 19.63
-5 2 -2 583.29 32.33
5 -2 2 530.49 21.71
5 -2 3 241.93 20.54
5 -2 3 266.16 16.59
-5 2 -3 269.88 23.39
-5 2 -4 83.33 8.3
5 -2 4 84.17 12.03
5 -2 4 94.56 11.06
-5 2 -4 70.67 8.61
-5 2 -4 97.55 9.14
-5 2 -4 121.15 17.29
-5 2 -4 106.58 9.99
-5 2 -5 334.58 17.89
-5 2 -5 287.13 15.23
-5 2 -5 272.43 14.76
5 -2 5 258.8 21.08
5 -2 5 266.63 20.78
-5 2 -5 255.13 16.64
-5 2 -5 216.78 15.09
-5 2 -5 305.3 16.75
-5 2 -5 287.26 29.88
-5 2 -6 8.2 6.71
5 -2 6 8.55 3.77
-5 2 -6 6.7 2.13
5 -2 6 9.7 4.52
-5 2 -6 6.55 2.39
-5 2 -6 4.13 2.37
-5 2 -6 7.31 2.41
-5 2 -6 6.69 2.42
-5 2 -7 14.69 3.14
-5 2 -7 13.49 3.19
-5 2 -7 11.29 2.9
-5 2 -7 13.14 3.59
-5 2 -7 11.52 2.96
5 -2 7 10.6 2.75
-5 2 -8 90.73 7.34
-5 2 -8 83.15 8.47
-5 2 -8 78.98 7.56
5 -2 8 80 7.39
-5 2 -9 287.62 14.42
-5 2 -9 276.98 13.55
5 -2 9 265.51 12.68
-5 2 -10 36.81 4.41
5 -2 10 34.51 3.97
5 -2 10 36.05 4.2
-5 2 -10 36.5 4.49
5 -2 11 6.53 1.59
-5 2 -11 4.54 1.37
-5 2 -11 7.48 1.67
-5 2 -12 47.95 3.29
-5 2 -12 60.78 3.95
-5 1 15 11.46 1.64
-5 1 15 10.63 1.73
-5 1 15 13.64 2.34
5 -1 -15 11.33 1.58
-5 1 14 0.34 0.69
-5 1 14 0.02 0.1
-5 1 14 -0.67 0.77
5 -1 -14 0.52 0.46
-5 1 13 2.99 0.98
-5 1 13 5.31 1.71
-5 1 13 5.05 2.03
-5 1 12 103.54 10.18
-5 1 12 131.22 9.04
-5 1 12 115.48 12.19
-5 1 12 118 9.26
-5 1 11 16.61 4.51
-5 1 11 24.37 4.28
-5 1 11 30.95 4.93
-5 1 11 23.95 6.29
-5 1 10 5.86 2.15
-5 1 10 9.34 3.35
-5 1 10 8.31 3.13
-5 1 10 8.62 2.56
-5 1 10 9.99 3
-5 1 10 2.9 3.06
-5 1 9 155.44 15.45
-5 1 9 154.63 12.64
5 -1 -9 157.76 16.44
-5 1 9 144.99 11.6
-5 1 9 174.38 13.55
-5 1 9 180.12 18.78
-5 1 9 143.44 11.1
-5 1 9 137.31 12.34
-5 1 8 147.8 12.25
-5 1 8 143.7 11.13
-5 1 8 93.25 13.67
5 -1 -8 145.01 15.96
-5 1 8 142.88 11.86
-5 1 8 174.69 12.23
-5 1 8 215.82 13.04
-5 1 8 151.44 14.32
-5 1 8 113.08 11.1
-5 1 7 2.47 1.88
-5 1 7 3.4 2.18
5 -1 -7 0.52 1.08
-5 1 7 0.79 0.45
-5 1 7 0.06 0.59
-5 1 7 0.02 1.21
-5 1 6 143.1 15.09
5 -1 -6 146.8 15.66
-5 1 5 112.89 12.62
-5 1 4 202.07 15.33
-5 1 4 181.51 15.28
5 -1 -4 195.78 12.13
-5 1 4 201.75 20.62
5 -1 -4 190.25 11.42
-5 1 3 1206.11 39.6
5 -1 -3 1309.55 33.11
-5 1 3 1302.58 54.53
5 -1 -3 1208.75 30.67
-5 1 3 1354.29 40.48
-5 1 2 22.4 4.88
-5 1 2 14.96 4.04
-5 1 2 13.55 5.65
5 -1 -2 14.38 3.3
-5 1 1 293.06 25.86
5 -1 -1 282.55 15.73
-5 1 1 303.22 19.09
-5 1 1 314.83 19.29
-5 1 0 274.73 24.16
5 -1 0 247.32 14.73
-5 1 0 259.63 18.5
5 -1 1 1730.45 42.36
-5 1 -1 1728.92 52.96
5 -1 2 258.09 15.63
-5 1 -2 246.77 20.34
-5 1 -3 38.07 8.67
5 -1 3 42.66 6.65
-5 1 -4 2.28 2.03
-5 1 -4 0.93 0.87
5 -1 4 1.9 0.88
-5 1 -4 -1.1 0.96
-5 1 -4 1.46 1.63
-5 1 -4 0.69 0.49
-5 1 -4 2.7 1.25
-5 1 -5 125.77 9.73
5 -1 5 93.08 12.6
5 -1 5 112.59 13.38
-5 1 -5 103.14 9.68
-5 1 -5 96.47 10.2
-5 1 -5 132.69 11.86
-5 1 -5 100.47 16.83
-5 1 -5 106.35 9.25
-5 1 -6 1495.18 34.71
5 -1 6 1220.32 46.91
5 -1 6 1110.67 46.96
-5 1 -6 1045.86 37.5
-5 1 -6 1017.34 62.37
-5 1 -6 1367.29 35.07
-5 1 -7 62.2 6.39
-5 1 -7 52.54 7.37
-5 1 -7 55.45 6.55
-5 1 -8 27.83 3.97
-5 1 -8 23.07 4.06
-5 1 -8 25.81 4.79
5 -1 9 1.98 0.84
-5 1 -9 2.27 1.06
-5 1 -9 2.74 1.69
-5 1 -9 0.79 0.17
5 -1 10 16.34 2.79
-5 1 -10 17.96 3.05
-5 1 -10 15.98 2.81
-5 1 -11 32.95 3.6
-5 1 -11 33.14 3.59
5 -1 11 29.33 3.29
5 -1 12 0.59 0.42
-5 1 -12 0.41 0.27
-5 1 -12 -0.06 0.23
-5 0 15 1.58 0.76
-5 0 15 1.65 0.55
5 0 -15 1.49 0.54
-5 0 14 124.74 9.29
-5 0 14 114.94 7.41
-5 0 13 10.21 2.44
-5 0 13 15.23 3.18
-5 0 13 11.73 3.18
-5 0 12 14.91 3.59
-5 0 12 15.98 3.57
-5 0 12 15.59 3.04
-5 0 12 14.03 3.29
-5 0 12 12.14 4.04
-5 0 11 143.6 12.51
-5 0 11 185.26 12.17
-5 0 11 157.21 15.81
-5 0 11 216.36 13.56
-5 0 11 190.26 13.91
-5 0 10 19.62 4.67
-5 0 10 13.34 4
-5 0 10 18.46 4.5
-5 0 10 20.47 4.36
-5 0 10 20.11 4.62
-5 0 10 21.47 4.37
-5 0 10 15.29 5.55
-5 0 9 3.66 1.9
-5 0 9 7.5 2.87
5 0 -9 5.41 3.24
-5 0 9 4.01 1.93
-5 0 9 8.59 3.01
-5 0 9 3.79 1.56
-5 0 9 5.44 2.13
-5 0 8 102.05 10.84
-5 0 8 122.64 9.88
5 0 -8 98.75 13.81
-5 0 8 110.15 10.51
-5 0 8 107.09 11.18
-5 0 8 136.33 13.06
-5 0 8 94.18 9
-5 0 7 10.53 3.63
-5 0 7 21.29 3.93
-5 0 7 13.41 4.6
5 0 -7 17.41 4.36
-5 0 7 14.27 4.04
-5 0 7 21.09 3.77
-5 0 7 28.53 4.61
-5 0 7 16.19 4.34
-5 0 7 21.72 4.69
-5 0 6 644.85 31.69
5 0 -6 733.32 28.3
-5 0 6 727.72 38.28
-5 0 5 1183.23 41.74
5 0 -5 1195.62 35.79
-5 0 5 1086.93 48.7
-5 0 4 85.57 10.53
-5 0 4 96.09 10.49
5 0 -4 82.95 8.85
-5 0 4 74.48 12.89
-5 0 3 93.21 10.62
-5 0 3 100.01 10.33
5 0 -3 86.43 8.88
-5 0 3 99.4 15.22
-5 0 2 13.97 3.64
-5 0 2 10.55 5.1
5 0 -2 15.19 3.87
-5 0 1 154.95 19.07
5 0 -1 128.28 11.16
-5 0 1 131.57 12.18
-5 0 0 160.14 18.76
5 0 0 146.96 11.97
-5 0 0 147.26 13.43
-5 0 -1 617.44 35.7
5 0 1 616 25.42
-5 0 -1 601.37 29.37
-5 0 -2 211.9 19.98
5 0 2 213.77 15.01
-5 0 -2 215.28 18.51
-5 0 -3 20.91 5.87
-5 0 -3 33.65 5.03
-5 0 -3 35.41 8.04
5 0 3 31.48 6.18
-5 0 -3 35.78 5.9
-5 0 -4 31.43 8.37
-5 0 -4 29.4 4.58
5 0 4 22.68 5.6
-5 0 -4 24.29 4.68
-5 0 -4 20.96 4.2
-5 0 -5 -1.72 2.88
-5 0 -5 1.99 1.45
5 0 5 1.74 2.56
-5 0 -5 0.43 0.98
-5 0 -5 -0.15 0.4
-5 0 -6 6.21 2.17
-5 0 -6 2.85 1.67
-5 0 -6 5.89 1.06
-5 0 -6 4.05 1.72
-5 0 -7 504.09 18.14
-5 0 -7 441.91 21.93
-5 0 -7 517.29 25.32
-5 0 -7 463.92 19.58
5 0 8 88.7 7.85
-5 0 -8 92.01 7.05
-5 0 -8 98.65 9.44
-5 0 -8 107.78 9.27
-5 0 -8 89.8 7.93
-5 0 -9 287.46 11.33
-5 0 -9 288.66 14.57
-5 0 -9 266.57 13.07
5 0 9 288.65 13.33
5 0 10 8.51 1.93
-5 0 -10 8.73 2.17
-5 0 -10 8.73 2.18
5 0 10 8.01 1.7
-5 0 -11 42.2 3.98
-5 0 -11 40.46 3.83
5 0 11 42.77 3.91
-5 -1 15 154.33 7.26
-5 -1 15 150.87 6.48
5 1 -15 172.49 6.39
-5 -1 14 1.83 0.64
-5 -1 14 1.54 1.19
-5 -1 13 9.61 2.32
-5 -1 13 12.2 3.14
-5 -1 12 61.61 6.18
-5 -1 12 58.99 8.01
-5 -1 12 61.13 6.74
-5 -1 12 69.31 7.74
-5 -1 11 350.52 18.84
-5 -1 11 303.66 15.85
-5 -1 11 286.83 19.81
-5 -1 11 310.95 16.47
-5 -1 10 28.07 5.42
-5 -1 10 27.07 5.07
-5 -1 10 27.84 5.33
-5 -1 10 22.28 4.42
-5 -1 10 12.86 4.78
-5 -1 9 41.99 6.82
-5 -1 9 43.19 5.86
-5 -1 9 35.47 5.95
-5 -1 9 49.29 6.7
-5 -1 9 36.53 6.24
-5 -1 9 46.63 8.41
-5 -1 9 33.53 5.66
-5 -1 8 101.24 10.96
-5 -1 8 129.9 9.83
5 1 -8 107.71 12.73
-5 -1 8 102.78 10.6
-5 -1 8 144.57 10.59
-5 -1 8 107.71 10.87
-5 -1 8 112.94 11.63
-5 -1 8 108.8 10.03
-5 -1 8 104.13 14.31
-5 -1 7 17.91 4.69
-5 -1 7 20.96 3.82
5 1 -7 23.9 5.75
-5 -1 7 18.91 4.88
-5 -1 7 22.13 3.9
-5 -1 7 25.42 4.99
-5 -1 7 18.43 4.44
-5 -1 7 18.99 4.14
-5 -1 7 26.06 6.68
-5 -1 7 24.26 5.25
-5 -1 6 5.83 2.15
5 1 -6 7.54 2.81
-5 -1 6 4.62 4.04
-5 -1 6 14.71 4.2
-5 -1 6 9.07 2.36
-5 -1 6 11.82 2.86
-5 -1 6 7.95 3.44
-5 -1 6 8.76 2.97
-5 -1 6 7.84 2.76
5 1 -6 5.51 2.37
5 1 -5 438.12 22.85
5 1 -5 377.34 20.3
-5 -1 5 397.46 30.37
-5 -1 5 449.71 23.35
5 1 -4 17.55 4.28
-5 -1 4 19.74 7.38
5 1 -4 14.39 3.68
5 1 -3 197.48 14.64
-5 -1 3 177.33 21.89
5 1 -3 198.11 13.72
-5 -1 2 111.36 10.74
-5 -1 2 81.27 15.84
5 1 -2 107.06 11.08
5 1 -2 99.92 9.49
-5 -1 1 325.15 29.9
5 1 -1 318.03 19.28
5 1 -1 325.15 17.67
-5 -1 1 336.88 19.25
5 1 0 25.68 4.94
-5 -1 0 29.98 5.9
-5 -1 0 26.84 7.6
5 1 0 29.23 5.77
5 1 1 14.79 4.07
-5 -1 -1 21.98 6.15
-5 -1 -1 21.22 6.82
5 1 1 24.08 5.13
5 1 2 22.35 5.24
-5 -1 -2 22.32 5.69
-5 -1 -2 16.26 5.56
-5 -1 -2 23.79 4.1
5 1 2 20.31 5
-5 -1 -3 231.29 13.27
-5 -1 -3 191.63 19.03
5 1 3 212.42 16.48
5 1 3 180.15 16.74
-5 -1 -3 186.21 13.17
-5 -1 -3 191.97 13.13
-5 -1 -3 170.74 11.67
-5 -1 -4 5.25 1.96
5 1 4 7.91 3.56
-5 -1 -4 3.45 2.22
-5 -1 -4 3.13 2.43
-5 -1 -4 5.35 2.58
-5 -1 -5 140.64 12.87
-5 -1 -5 187.15 11.44
5 1 5 178.75 17.29
-5 -1 -5 150.94 12.94
-5 -1 -5 157.66 11.98
5 1 6 19.06 3.79
-5 -1 -6 22.88 3.77
-5 -1 -6 13.39 3.92
-5 -1 -6 9.61 2.96
-5 -1 -6 15.08 3.68
-5 -1 -7 41.75 4.97
-5 -1 -7 43.49 6.73
-5 -1 -7 38.05 5.53
-5 -1 -7 42.68 6.95
5 1 7 42.28 5.57
5 1 8 8.08 2.32
-5 -1 -8 9.07 2.14
-5 -1 -8 8.34 2.73
-5 -1 -8 8.68 2.51
-5 -1 -8 9.32 2.5
5 1 9 13.3 2.68
-5 -1 -9 13.8 2.26
-5 -1 -9 12.3 2.8
-5 -1 -9 19.16 3.3
-5 -1 -9 15.21 2.87
5 1 9 15.07 2.8
-5 -1 -10 21.58 2.72
-5 -1 -10 22.48 3.13
-5 -1 -10 17.35 2.44
-5 -1 -10 22.66 3.29
5 1 10 19.64 2.55
5 1 10 24.34 3.17
5 1 11 4.9 1.27
-5 -1 -11 4.71 1.25
-5 -2 14 0.49 0.43
-5 -2 14 2.13 1.08
-5 -2 13 128.45 9.44
-5 -2 13 134.88 8.75
-5 -2 13 151.8 9.72
-5 -2 12 10.5 2.93
-5 -2 12 10.23 2.43
-5 -2 12 13.85 3.06
-5 -2 12 14.07 3.45
-5 -2 11 105.68 10.05
-5 -2 11 94.69 8.66
-5 -2 11 84.47 9.89
-5 -2 11 96.52 9.02
-5 -2 10 177.7 13.82
-5 -2 10 169.15 12.6
-5 -2 10 162.03 12.48
-5 -2 10 150.19 14.2
-5 -2 10 172.3 12.72
-5 -2 9 155.67 13.44
-5 -2 9 147 12.68
-5 -2 9 190.44 12.87
-5 -2 9 171.67 12.97
-5 -2 9 136.96 13.06
-5 -2 9 140.8 11.72
-5 -2 8 31.27 6.12
-5 -2 8 24.57 5.17
-5 -2 8 34.49 5.04
-5 -2 8 27.95 5.31
-5 -2 8 26.57 5.02
-5 -2 8 31.99 5.89
-5 -2 8 23.6 7.45
5 2 -8 17.23 5.39
-5 -2 7 18.04 4.98
-5 -2 7 22.63 3.85
-5 -2 7 23.36 5.06
5 2 -7 19.78 5.55
-5 -2 7 21.38 5.22
-5 -2 7 19.79 3.72
-5 -2 7 24.16 6.49
-5 -2 7 20.86 4.94
-5 -2 7 20.25 4.18
-5 -2 7 20.16 4.29
5 2 -7 13.94 4.98
-5 -2 6 119.48 13.17
-5 -2 6 133.03 11.82
-5 -2 6 131.04 9.31
5 2 -6 148.54 14.46
5 2 -6 123.65 12.95
-5 -2 6 132.33 17.8
-5 -2 6 141.92 12.99
-5 -2 6 165.18 10.25
-5 -2 6 156.36 12.76
-5 -2 6 140.26 11.13
-5 -2 6 154.15 11.04
-5 -2 5 104.12 10.57
-5 -2 5 78.95 7.34
5 2 -5 99.02 11.49
5 2 -5 98.03 11.23
-5 -2 5 103.96 16.74
-5 -2 5 111.24 11.77
-5 -2 5 86.35 7.24
-5 -2 5 121.56 9.96
-5 -2 5 112.68 10.76
-5 -2 5 95.02 8.52
-5 -2 4 27.27 4.34
5 2 -4 30.41 6.11
-5 -2 4 39.23 10.96
-5 -2 4 35.55 6.84
-5 -2 4 31.32 4.33
-5 -2 4 35.62 5.19
-5 -2 4 34.2 5.99
5 2 -4 28.19 5.71
5 2 -3 184.01 15.23
5 2 -3 165.86 14.12
5 2 -3 178.25 15.32
-5 -2 2 822.6 57.57
5 2 -2 945.9 35.61
5 2 -2 893.04 33.25
-5 -2 1 284.88 30.71
5 2 -1 264.34 18.27
5 2 -1 254.32 17.61
-5 -2 0 41.16 5.99
-5 -2 0 50.41 11.86
5 2 0 43.48 7.19
-5 -2 0 36.32 5.2
5 2 0 36.79 6.68
-5 -2 -1 162.08 11.32
-5 -2 -1 137.47 18.03
5 2 1 144.51 13.53
-5 -2 -1 130.08 10.41
5 2 1 142.56 13.87
-5 -2 -1 141.55 13.79
-5 -2 -1 140.91 10.56
-5 -2 -2 84.85 8.78
-5 -2 -2 53.34 6.79
-5 -2 -2 58.9 11.84
5 2 2 65.09 9.81
5 2 2 65.64 10.45
-5 -2 -2 80.32 7.89
5 2 3 5.58 3.36
-5 -2 -3 5.87 2.16
5 2 3 7.3 2.73
-5 -2 -3 11.58 3.46
-5 -2 -3 10.67 3.14
5 2 4 26.26 4.41
5 2 4 28.56 7.78
-5 -2 -4 25.71 4.31
-5 -2 -4 20.68 4.71
-5 -2 -4 21.03 4.72
-5 -2 -4 22.49 4.75
-5 -2 -5 116.97 11.85
-5 -2 -5 93.86 8.03
-5 -2 -5 113.6 11.16
-5 -2 -5 93.03 9.36
5 2 5 129.56 9.64
-5 -2 -6 93.52 7.61
-5 -2 -6 83.2 8.47
-5 -2 -6 87.22 9.96
-5 -2 -6 71.38 9.48
-5 -2 -7 143.96 9.47
-5 -2 -7 166.64 11.35
-5 -2 -7 163.58 9.52
-5 -2 -7 179.48 13.35
-5 -2 -7 171.39 12.73
5 2 7 160.49 10.14
5 2 8 10.58 2.54
-5 -2 -8 5.86 1.77
5 2 8 10.92 2.52
-5 -2 -8 6.11 1.94
-5 -2 -8 10.16 2.42
-5 -2 -9 72.4 5.92
-5 -2 -9 62.9 4.57
-5 -2 -9 78.56 6.35
5 2 9 112.73 6.94
5 2 9 112.84 7.35
5 2 10 2.57 0.8
-5 -2 -10 1.35 0.58
-5 -2 -10 1.64 0.67
-5 -2 -10 0.89 0.62
5 2 10 0.86 0.38
-5 -3 14 38.02 3.37
-5 -3 13 0.51 0.7
-5 -3 13 1.23 0.9
-5 -3 13 0.35 0.09
-5 -3 12 34.73 5.22
-5 -3 12 25.92 3.56
-5 -3 12 31.4 4.57
-5 -3 12 42.63 5.39
5 3 -12 32.36 3.49
-5 -3 11 59.26 7.33
-5 -3 11 49.46 6.12
-5 -3 11 50.06 6.75
-5 -3 11 66.85 7.88
5 3 -11 49.65 5.26
-5 -3 10 48.12 6.54
-5 -3 10 56.18 6.57
-5 -3 10 67.93 8.28
-5 -3 10 46.99 6.81
-5 -3 10 51.84 6.86
-5 -3 9 17.31 4.1
-5 -3 9 22.03 4.1
-5 -3 9 19.67 4.62
-5 -3 9 19.99 4.36
-5 -3 9 17.16 4.2
-5 -3 8 187.48 15.25
-5 -3 8 200.18 15.05
-5 -3 8 201.56 15.55
-5 -3 8 248.63 13.55
-5 -3 8 223.21 14.89
-5 -3 8 244.42 15.69
-5 -3 8 220.29 14.82
-5 -3 7 277.58 17.87
-5 -3 7 263.59 17.98
-5 -3 7 313.72 14.68
-5 -3 7 301.87 17.84
-5 -3 7 336.23 17.22
-5 -3 7 282.43 16.04
-5 -3 6 4.06 2.49
-5 -3 6 2.61 2.07
5 3 -6 0.43 4.58
-5 -3 6 6.15 4.55
-5 -3 6 6.26 2.8
-5 -3 6 6.92 2.06
-5 -3 6 2.53 2.37
-5 -3 6 7.7 4.13
-5 -3 5 132.91 11.91
-5 -3 5 99.26 8.25
5 3 -5 124.05 13.6
-5 -3 5 102.95 17.68
5 3 -5 104.77 12.51
-5 -3 5 127.18 12.79
-5 -3 5 122.35 8.76
-5 -3 5 104.57 10.65
-5 -3 4 294.02 18.6
-5 -3 4 158.59 12.27
5 3 -4 198.86 18.05
-5 -3 4 208.16 27.51
-5 -3 4 318.54 21.36
5 3 -4 919.83 38.65
5 3 -4 449.09 33.26
-5 -3 4 597.78 20
-5 -3 4 609.9 26.69
-5 -3 4 219.54 17.49
-5 -3 3 128.47 9.96
5 3 -3 145.68 14.45
-5 -3 3 120.75 21.86
-5 -3 3 138.6 14.27
5 3 -3 165.43 15.34
5 3 -3 163.42 15.28
-5 -3 3 131.03 9.36
-5 -3 3 207.45 13.63
-5 -3 3 170.53 14.37
-5 -3 2 531.03 21.42
5 3 -2 556.76 28.83
-5 -3 2 546.86 54.69
-5 -3 2 433.47 27.47
5 3 -2 710.9 31.88
-5 -3 2 537.99 20.09
5 3 -2 701.96 31.81
-5 -3 2 765.02 25.69
-5 -3 2 720.22 24.84
-5 -3 2 584.27 28.17
-5 -3 1 172.45 12.5
-5 -3 1 173.8 10.85
-5 -3 1 195.28 28.36
5 3 -1 187.24 15.98
-5 -3 1 172.32 11.71
5 3 -1 170.43 15.76
-5 -3 1 148.32 14.87
-5 -3 1 178.03 11.78
-5 -3 0 2357.64 52.41
-5 -3 0 2522.83 50.67
-5 -3 0 2530.93 48.75
-5 -3 0 2842.33 96.74
5 3 0 2592.22 63.2
-5 -3 0 2318.42 48.87
5 3 0 2482.25 64.65
-5 -3 0 1992.63 64.36
-5 -3 -1 52.99 7.15
-5 -3 -1 25.17 5.07
-5 -3 -1 26.82 8.42
5 3 1 35.81 6.98
-5 -3 -1 43.42 6.95
5 3 1 54.09 9.67
-5 -3 -1 22.44 6.19
-5 -3 -2 94.53 8.67
-5 -3 -2 71.43 12.62
5 3 2 84.41 10.74
-5 -3 -2 79.58 8.8
-5 -3 -2 89.76 10.27
5 3 2 87.03 12.43
-5 -3 -2 84.34 8.26
-5 -3 -2 87.31 9.22
-5 -3 -3 11.12 3.69
-5 -3 -3 21.67 5.21
-5 -3 -4 190.05 11.68
-5 -3 -4 172.13 12.49
-5 -3 -4 208 15.13
5 3 5 8.95 2.47
-5 -3 -5 11.68 2.7
-5 -3 -5 12.87 3.69
-5 -3 -5 10.94 3.17
5 3 6 2.89 1.66
-5 -3 -6 2.39 1.4
-5 -3 -6 3.1 2.54
-5 -3 -6 3.18 2.14
5 3 6 1.86 1.88
-5 -3 -7 180.01 10.4
-5 -3 -7 190.12 9.74
-5 -3 -7 202.01 11.77
-5 -3 -7 204.61 12.98
5 3 7 199.65 11.08
5 3 7 189.72 10.36
-5 -3 -8 72.66 5.37
-5 -3 -8 76.95 5.43
-5 -3 -8 86.4 7.04
-5 -3 -8 94.75 7.17
5 3 8 88.85 6.54
5 3 8 88.43 6.5
-5 -3 -9 38.66 3.79
-5 -3 -9 35.07 3.7
-5 -3 -9 44.31 4.17
5 3 9 38.31 3.61
5 3 9 34.44 3.52
-5 -3 -10 36.09 2.79
-5 -3 -10 42.38 3.19
-5 -4 13 106.53 6.13
-5 -4 13 105.08 6.36
-5 -4 12 28.6 3.98
-5 -4 12 33.45 4.14
5 4 -12 27.99 2.93
-5 -4 11 75.03 7.29
-5 -4 11 74.45 6.59
-5 -4 11 80.45 7.27
5 4 -11 70.44 5.69
-5 -4 10 1.26 1.5
-5 -4 10 1.51 0.99
-5 -4 10 0.65 0.49
-5 -4 9 3.49 1.95
-5 -4 9 3.74 2.13
-5 -4 9 4.5 2.09
-5 -4 8 91.46 10.33
-5 -4 8 92.45 10.08
-5 -4 8 104.77 10.77
-5 -4 8 101.03 9.49
-5 -4 8 108.75 9.88
5 4 -8 113.13 8.77
-5 -4 7 12.71 4.47
-5 -4 7 8.2 3.02
-5 -4 7 13.49 4.42
-5 -4 7 11.88 2.78
-5 -4 7 7.79 2.51
-5 -4 7 7.33 2.3
-5 -4 6 79.66 9.45
-5 -4 6 71.68 9.73
-5 -4 6 81.57 7.02
-5 -4 6 83.85 9.57
-5 -4 6 80.78 8.4
-5 -4 5 240.72 16.31
-5 -4 5 182.64 11.09
-5 -4 5 235.56 18.08
-5 -4 5 240.49 12.27
-5 -4 5 237.89 16.68
-5 -4 4 250.44 13.64
-5 -4 4 281.02 20.37
-5 -4 4 252.51 12.71
-5 -4 4 292.88 19.16
-5 -4 3 2.22 1.49
-5 -4 3 1.06 0.9
-5 -4 3 1.27 1.11
-5 -4 2 210.76 13.38
-5 -4 2 237.85 12.98
5 4 -2 207.95 18.3
-5 -4 2 245.34 18.69
-5 -4 1 196.05 13.37
-5 -4 1 182.88 11.72
-5 -4 1 224.28 19.53
-5 -4 1 207.41 13.01
-5 -4 0 63.79 7.92
-5 -4 0 72.46 7.22
5 4 0 68.32 6.65
-5 -4 0 73.78 7.76
-5 -4 0 60.15 11.09
-5 -4 0 68.96 7.87
-5 -4 -1 36.59 6.13
-5 -4 -1 38.68 5.42
-5 -4 -1 46.32 7
-5 -4 -1 38.36 5.8
-5 -4 -1 42.76 9.53
-5 -4 -1 40.54 5.43
5 4 1 39.63 5.58
-5 -4 -2 -0.42 1.09
-5 -4 -2 1.43 1.77
-5 -4 -2 -0.32 0.25
-5 -4 -2 1.59 2.06
-5 -4 -2 0.76 1.37
5 4 2 1.28 0.83
-5 -4 -3 24.95 4.17
-5 -4 -3 19.12 4.35
-5 -4 -3 25.85 4.63
-5 -4 -3 26.8 4.75
-5 -4 -3 20.25 4.43
5 4 3 25.93 4.53
-5 -4 -4 281.09 13.75
-5 -4 -4 241.71 15.73
-5 -4 -4 248.86 14.73
5 4 4 263.01 14.15
-5 -4 -5 238.43 11.93
-5 -4 -5 218.07 13.41
-5 -4 -5 202.18 14.05
5 4 5 231 12.77
-5 -4 -6 3.46 1.22
-5 -4 -6 6.29 2.48
-5 -4 -6 4.84 1.87
-5 -4 -6 5.98 1.98
5 4 6 4.4 1.66
-5 -4 -7 7.07 1.92
5 4 7 11.4 2.29
-5 -4 -7 10.21 2.4
-5 -4 -7 9.94 2.55
5 4 7 8.79 1.75
-5 -4 -7 9.11 2.09
-5 -4 -8 10.44 1.76
-5 -4 -8 16.88 2.62
-5 -4 -8 12.89 2.3
-5 -4 -8 14.63 2.38
5 4 8 15.25 2.39
5 4 9 3.44 1.02
-5 -4 -9 2.51 0.81
-5 -4 -9 1.98 0.62
-5 -4 -9 2.12 0.68
5 4 9 2.31 0.72
-5 -5 12 5.67 1.45
-5 -5 12 4.76 1.25
5 5 -12 5.23 1.03
-5 -5 11 52.28 5.09
-5 -5 11 46.89 4.3
-5 -5 11 53.05 5.19
5 5 -11 51.47 4.19
-5 -5 10 58.35 6.02
-5 -5 10 45.24 5.22
-5 -5 10 55.69 6.02
-5 -5 9 3.22 1.81
-5 -5 9 2.6 1.64
-5 -5 9 2.02 1.26
5 5 -9 1.56 1.07
-5 -5 8 33.34 5.51
-5 -5 8 37.53 5.93
-5 -5 8 36.67 6.01
-5 -5 8 43.65 5.62
-5 -5 8 44.14 5.92
5 5 -8 38.15 5.01
-5 -5 7 112.31 10.68
-5 -5 7 108.69 11.06
-5 -5 7 97.61 9.17
-5 -5 7 108.14 9.43
5 5 -7 106.79 8.59
-5 -5 6 3.13 1.64
-5 -5 6 1.18 1.83
-5 -5 6 2.32 2.59
-5 -5 6 2.37 1.61
-5 -5 5 0.06 0.94
-5 -5 5 -0.63 1.95
-5 -5 5 1.04 1.58
-5 -5 4 5.83 2.87
-5 -5 4 6.26 2.11
-5 -5 4 7.63 3.63
-5 -5 4 6.41 2.04
-5 -5 4 5.09 2.67
5 5 -4 4.54 1.54
-5 -5 3 13.34 3.8
-5 -5 3 11.87 2.82
-5 -5 3 14.67 4.82
-5 -5 3 13.93 2.92
-5 -5 3 21.43 5.12
5 5 -3 15.48 3.14
-5 -5 2 218.33 15.48
-5 -5 2 210.52 12.96
-5 -5 2 180.42 10.67
-5 -5 2 226.31 17.78
-5 -5 1 208.05 13.53
5 5 -1 244.28 12.38
-5 -5 1 230.64 19.03
-5 -5 0 244.97 15.22
5 5 0 264.41 13.33
-5 -5 0 307.33 15.03
-5 -5 0 314.76 16.23
-5 -5 0 235.69 20.74
-5 -5 -1 1.28 1.6
5 5 1 1.38 1.02
-5 -5 -1 0.86 0.43
-5 -5 -1 -0.08 0.25
-5 -5 -1 0.87 1.45
-5 -5 -1 1.72 2.73
-5 -5 -1 0.89 0.44
5 5 1 -0.75 1.13
-5 -5 -2 3.03 1.72
5 5 2 6 2.36
-5 -5 -2 4.41 1.72
-5 -5 -2 4.71 1.97
-5 -5 -2 9.38 2.59
-5 -5 -2 5.27 2.34
-5 -5 -2 6.69 2.63
5 5 2 4.01 1.77
-5 -5 -3 -0.21 1.03
5 5 3 0.09 0.69
-5 -5 -3 1.83 1.12
-5 -5 -3 0.65 1.03
-5 -5 -3 0.52 0.87
-5 -5 -3 1.08 0.31
-5 -5 -3 2.63 1.54
5 5 3 -0.67 0.85
-5 -5 -4 373.8 19.11
-5 -5 -4 345.98 17.22
-5 -5 -4 348.94 16.08
5 5 4 355.23 15.37
-5 -5 -5 13.61 3.05
5 5 5 11.51 2.95
-5 -5 -5 7.52 2.05
-5 -5 -5 10.77 3.02
5 5 5 10.04 2.12
-5 -5 -5 9.76 2.33
5 5 5 10.38 2.33
-5 -5 -6 13.87 2.83
-5 -5 -6 13.75 2.59
5 5 6 11.73 2.6
-5 -5 -6 10.57 2.41
5 5 6 11.14 2.06
-5 -5 -6 12.82 2.61
5 5 6 9.28 1.95
-5 -5 -7 45.84 3.87
5 5 7 37.84 3.99
-5 -5 -7 43.96 3.96
-5 -5 -7 52.97 4.34
-5 -5 -7 55.57 4.57
5 5 7 54.44 4.39
5 5 8 53.28 3.7
5 5 8 49.4 3.57
-5 -6 11 10.4 1.75
-5 -6 10 28.59 3.21
-5 -6 10 28.64 3.29
-5 -6 10 40.51 4.33
5 6 -10 37.21 3.4
-5 -6 9 1.26 1.03
-5 -6 9 -0.48 0.67
-5 -6 9 -0.35 0.63
5 6 -9 0.69 0.45
-5 -6 8 464.55 18.83
-5 -6 8 445.66 18.65
-5 -6 8 464.23 17.88
5 6 -8 450.38 15.78
-5 -6 7 10.22 3.04
-5 -6 7 7.09 2.37
-5 -6 7 10.68 2.69
-5 -6 7 12.41 3.06
5 6 -7 10.02 2.46
-5 -6 6 34.3 5.52
-5 -6 6 32.53 5.72
-5 -6 6 33.87 5.11
-5 -6 6 38.08 5.24
5 6 -6 37.03 5.07
-5 -6 5 70.6 8.32
-5 -6 5 70.94 8.98
-5 -6 5 65.6 7.91
-5 -6 4 45.98 6.6
-5 -6 4 57.2 8.3
-5 -6 4 48.02 6.11
-5 -6 4 44.71 6.91
5 6 -4 48.89 5.02
-5 -6 3 221.32 14.65
-5 -6 3 244.04 11.8
-5 -6 3 227.73 16.06
5 6 -3 222.18 11.64
-5 -6 2 62.89 7.7
-5 -6 2 61.14 6.41
5 6 -2 62 5.76
5 6 -2 89.71 7.77
-5 -6 2 60.89 9.14
-5 -6 2 85.63 10.26
-5 -6 1 22.23 4.08
5 6 -1 27.88 3.97
-5 -6 1 25.31 5.42
-5 -6 1 23.19 5.33
5 6 -1 30.96 4.73
-5 -6 0 70 7.33
5 6 0 69.68 6.42
-5 -6 0 86.88 8.69
-5 -6 0 85.3 6.82
-5 -6 0 59.16 9.13
5 6 0 86.94 7.99
-5 -6 -1 71.42 7.41
5 6 1 68.17 6.46
5 6 1 74.51 7.36
-5 -6 -1 65.24 5.97
-5 -6 -1 68.51 8.55
-5 -6 -2 0.12 0.83
5 6 2 -0.47 0.94
-5 -6 -2 1.74 1.19
-5 -6 -2 -0.15 0.4
5 6 2 -0.41 0.79
-5 -6 -2 0.11 0.99
5 6 2 0.53 0.52
-5 -6 -3 9.66 3.41
5 6 3 11.75 3.6
-5 -6 -3 18.56 3.66
-5 -6 -3 4.15 1.8
5 6 3 15.51 3.75
-5 -6 -3 6.31 2.25
5 6 3 11.11 3.05
-5 -6 -4 38.49 4.84
5 6 4 34.6 4.45
-5 -6 -4 35.92 4.07
5 6 4 39.44 4.2
-5 -6 -4 33.52 4.31
-5 -6 -4 34.02 4.16
5 6 4 38.42 4.29
-5 -6 -5 196.25 9.39
5 6 5 147.4 8.27
-5 -6 -5 150.1 7.4
5 6 5 150.54 7.01
-5 -6 -5 160.96 8
-5 -6 -5 183.36 9
5 6 5 163.95 8.12
-5 -6 -6 17.74 2.21
5 6 6 14.78 2.15
5 6 6 9.35 1.61
-5 -6 -6 16.3 2.02
5 6 6 15.62 2.18
-5 -7 9 12.59 1.98
5 7 -9 6.84 1.23
-5 -7 8 135.29 7.82
5 7 -8 117.58 6.18
-5 -7 7 234.57 11.57
-5 -7 7 228.41 11.8
-5 -7 7 230.36 10.92
5 7 -7 236.31 10.3
-5 -7 6 2.44 1.36
-5 -7 6 0.1 0.94
-5 -7 6 1.74 0.93
-5 -7 6 0.61 0.39
5 7 -6 1.43 0.65
-5 -7 5 3.89 1.24
-5 -7 5 3.73 0.48
-5 -7 5 2.13 1.09
-5 -7 5 3.85 1.36
5 7 -5 5.37 1.99
-5 -7 4 56.99 6.31
-5 -7 4 70.23 7.78
-5 -7 4 79.67 7.68
-5 -7 4 83.77 7.05
5 7 -4 66.94 5.1
5 7 -4 83.15 7.11
-5 -7 3 199.22 11.88
-5 -7 3 190.87 13.17
-5 -7 3 214.37 13.36
5 7 -3 194.91 9.67
-5 -7 2 186.18 11.21
5 7 -2 192.08 8.7
-5 -7 2 180.19 12.85
-5 -7 2 230.83 14.36
5 7 -2 225.65 10.87
5 7 -2 252.74 12.66
-5 -7 1 35.19 4.01
5 7 -1 36.81 3.98
-5 -7 1 30.56 4.76
-5 -7 1 34.3 5.65
5 7 -1 46.07 5.06
5 7 -1 45.83 5.34
-5 -7 0 2 1.09
5 7 0 1.95 1
-5 -7 0 2.64 1.91
5 7 0 4.54 1.61
5 7 0 1.84 0.89
-5 -7 -1 0.44 0.4
5 7 1 1.89 0.86
-5 -7 -1 -0.86 1.09
5 7 1 0.1 0.99
5 7 1 1.8 1.09
-5 -7 -2 173.82 9.18
-5 -7 -2 196.31 9.89
-5 -7 -3 198.02 9.02
-5 -7 -3 191.78 7.59
-5 -7 -4 16.22 2.12
5 7 4 15.5 2.06
-5 -8 5 16.59 2.75
5 8 -5 13.37 2.14
-5 -8 4 20.69 2.81
5 8 -4 26.31 3.22
-5 -8 3 25.02 3.26
-5 -8 3 27.78 3.5
-5 -8 3 32.22 3.41
5 8 -3 25.9 3.1
-5 -8 2 2.26 1.14
5 8 -2 1.26 0.7
5 8 -2 0.3 0.39
-5 -8 1 92.44 6.62
5 8 -1 97.96 5.57
-5 -8 0 36.1 3.66
5 8 0 40.22 3.51
-6 10 6 6.04 1.53
-6 10 5 98.86 6.35
-6 10 5 123.04 7.06
-6 10 5 115.47 7.84
-6 10 4 22.34 3.49
-6 10 4 25.5 3.74
-6 10 4 23.27 3.63
6 -10 -3 15.06 2.76
-6 10 3 8.1 2.39
-6 10 3 8.89 2.33
-6 10 3 9.59 2.02
-6 10 3 7.82 2.36
6 -10 -2 44.79 4.33
-6 10 2 50.09 5.6
-6 10 2 38.95 4.35
-6 10 2 41.65 5.78
-6 10 2 44.02 4.78
6 -10 -1 29.87 3.54
-6 10 1 35.53 4.55
-6 10 1 28.18 3.47
-6 10 1 30.7 4.41
-6 10 1 28.25 4.81
6 -10 0 13.55 2.27
-6 10 0 12.28 2.52
-6 10 0 12.44 2.11
-6 10 0 12.39 2.68
-6 10 0 9.76 2.53
6 -10 1 247.41 9.71
-6 10 -1 232.25 10.59
-6 10 -1 257.62 12.57
-6 10 -1 238.36 12.98
6 -10 2 2.04 0.72
-6 10 -2 1.44 0.56
-6 10 -2 2.36 1.19
-6 10 -2 3.66 1.21
-6 10 -3 55.51 4.01
-6 10 -3 68.36 5.44
-6 10 -4 53.09 3.98
6 -10 4 50.86 3.96
-6 9 9 0.86 0.42
-6 9 8 31.75 4
-6 9 8 37.04 3.74
-6 9 7 119.2 8.79
-6 9 7 122.96 8.37
-6 9 6 94.06 8.15
-6 9 6 78.69 6.56
-6 9 6 103.51 7.63
-6 9 6 79.3 7.74
-6 9 6 82.22 7.17
-6 9 5 0.96 0.05
-6 9 5 1.99 1.43
-6 9 5 2.46 1.34
-6 9 5 -0.31 0.62
-6 9 5 1.07 0.32
-6 9 4 14.52 2.98
-6 9 4 15.61 4.18
-6 9 4 16.68 3.66
-6 9 4 19.57 4.32
-6 9 4 15.69 4.05
-6 9 3 219.16 11.51
-6 9 3 229.46 15.51
-6 9 3 240.26 14.18
-6 9 3 212.74 15.85
-6 9 3 239.61 13.5
-6 9 3 232.92 14.62
-6 9 2 734.88 26.94
-6 9 2 683.79 23.44
-6 9 2 714.67 26.19
-6 9 2 735.2 25.29
-6 9 1 22.47 4.19
-6 9 1 21.06 3.74
-6 9 1 23.58 5
-6 9 1 26.8 6.52
6 -9 0 24.71 3.58
-6 9 0 21.01 4.15
-6 9 0 17.38 3.24
-6 9 0 15.9 4.61
-6 9 0 22.99 5.27
6 -9 1 19.34 3.03
-6 9 -1 17.46 3.42
-6 9 -1 15.54 3.02
-6 9 -1 14.33 4.03
-6 9 -1 20.44 4.36
6 -9 2 15.67 2.54
-6 9 -2 11.29 2.63
-6 9 -2 14.94 3.07
-6 9 -2 18.78 4.11
-6 9 -2 15.09 3.55
-6 9 -3 43.44 4.72
-6 9 -3 41.47 4.43
-6 9 -3 48.27 5.19
-6 9 -3 40.96 5.22
-6 9 -3 50.54 5.88
-6 9 -4 70.95 5.52
-6 9 -4 61.28 5.44
-6 9 -4 79.72 6.51
-6 9 -4 79.09 5.26
-6 9 -4 81.39 6.62
-6 9 -5 116.91 5.8
-6 9 -5 131.24 7.39
-6 9 -5 112.54 6.6
6 -9 5 126.9 7.69
-6 9 -6 58.18 4.05
-6 9 -6 64.62 4.41
6 -9 6 64.4 4.6
6 -8 -10 0.74 0.4
-6 8 10 2.36 0.9
6 -8 -9 49.83 4.21
-6 8 9 64.17 6.31
-6 8 9 62.67 5.13
-6 8 9 54.13 4.5
6 -8 -8 128.4 7.65
-6 8 8 131.85 10.57
-6 8 8 138.5 9.42
-6 8 8 136.92 8.4
-6 8 7 118.82 11.46
-6 8 7 126.05 10.38
-6 8 7 130.69 9.4
-6 8 7 135.57 8.92
-6 8 6 194.96 14.52
-6 8 6 143.17 10.88
-6 8 6 205.72 13.4
-6 8 6 136.52 12.66
-6 8 6 151.21 11.86
-6 8 6 195.21 11.04
-6 8 5 23.47 4.79
-6 8 5 16.47 4.14
-6 8 5 17.15 4.68
-6 8 5 20.26 4.49
-6 8 5 23.17 3.84
-6 8 5 15.64 4.13
-6 8 4 0.1 1.44
-6 8 4 -0.56 1.22
-6 8 4 1.5 0.8
-6 8 4 0.16 0.86
-6 8 4 0.07 0.64
-6 8 4 -0.44 1.47
-6 8 4 1.36 1.87
-6 8 3 0.38 0.55
-6 8 3 0.75 0.7
-6 8 3 -0.32 1.99
-6 8 3 1.16 0.94
-6 8 3 1.4 1.22
-6 8 3 0.21 0.49
-6 8 3 0.75 1.8
-6 8 2 7.26 2.49
-6 8 2 11.75 4
-6 8 2 13.18 3.55
-6 8 2 12.27 4.37
-6 8 2 3.11 3.91
-6 8 2 12.26 3.53
-6 8 1 345.75 15.59
-6 8 1 369.96 19.58
-6 8 1 326.23 16.78
-6 8 1 372.25 29.11
-6 8 1 311.46 21.32
-6 8 1 382.78 15.77
-6 8 1 352.61 18.12
-6 8 0 2.5 0.92
-6 8 0 1.25 1.37
-6 8 0 0.59 0.91
-6 8 0 1.51 2.71
-6 8 0 1.87 1.89
6 -8 1 33.15 4.25
-6 8 -1 31.79 5.1
-6 8 -1 33.35 4.69
-6 8 -1 29.56 4.61
-6 8 -1 26.86 4.75
-6 8 -1 35.16 7.77
-6 8 -1 34.28 6.22
6 -8 2 28.54 3.74
-6 8 -2 27.49 4.6
-6 8 -2 20.95 3.85
-6 8 -2 28.56 4.22
-6 8 -2 21.29 4.89
-6 8 -2 36.2 6.72
-6 8 -2 29.86 5.26
-6 8 -3 170.82 11.07
-6 8 -3 168.85 12.09
-6 8 -3 177.35 11.84
-6 8 -3 169.66 13.71
-6 8 -3 207.72 11.41
-6 8 -3 190.49 13.41
-6 8 -4 63.35 6.25
-6 8 -4 59.23 7.22
-6 8 -4 84.01 8.2
-6 8 -4 74.77 6.38
-6 8 -4 76.93 7.5
-6 8 -5 36.77 4.33
-6 8 -5 28.96 4.89
-6 8 -5 38.57 4.91
-6 8 -5 34.7 3.96
-6 8 -5 33.77 4.34
-6 8 -6 2.71 1.17
-6 8 -6 5.62 1.63
-6 8 -6 3.27 1.08
-6 8 -6 4.48 1.21
6 -8 6 1.85 1.3
-6 8 -7 119.91 6.9
-6 8 -7 107.33 5.56
-6 8 -7 122 6.77
6 -8 7 112.26 6.68
-6 8 -8 5.63 1.12
-6 8 -8 6.96 1.28
6 -8 8 6.4 1.2
-6 7 11 1.05 0.56
-6 7 11 1.03 0.74
-6 7 10 21.81 4.14
-6 7 10 26.79 3.78
-6 7 9 245.68 12.21
-6 7 9 216.88 13.18
-6 7 9 222.84 12.47
-6 7 8 93.64 11.77
-6 7 8 94.09 10.15
-6 7 8 99.06 9.1
-6 7 7 48.21 10.06
-6 7 7 50.21 7.96
-6 7 7 49.65 7.68
-6 7 7 39.41 5.89
-6 7 7 59.21 6.94
-6 7 6 16.81 4.92
-6 7 6 11.05 4.39
-6 7 6 14.62 3.73
-6 7 6 16.75 5.88
-6 7 6 9.72 3.44
-6 7 6 21.35 4.22
-6 7 6 11.94 4.46
-6 7 5 158.38 13.87
-6 7 5 101.47 12.48
-6 7 5 145.85 14.16
-6 7 5 158.38 18.26
-6 7 5 78.26 12.96
-6 7 5 171.05 11.57
-6 7 4 74.64 8.79
-6 7 4 82.95 11.32
-6 7 4 79.43 11.41
-6 7 4 66.48 8.41
-6 7 4 64.84 10.63
-6 7 4 91.64 8.18
-6 7 3 15.97 3.22
-6 7 3 15.07 3.6
-6 7 3 16.04 5.45
-6 7 3 21.61 5.22
-6 7 3 16.79 4.36
-6 7 3 22.12 6.92
-6 7 3 22.99 5.53
-6 7 2 517.46 21.39
-6 7 2 610.27 28.29
-6 7 2 555.44 24.28
-6 7 2 571.26 28.33
-6 7 2 599.11 25.8
-6 7 2 580.16 20.71
-6 7 1 94.86 9.63
-6 7 1 152.78 14.78
-6 7 1 164.92 13.4
-6 7 1 113.38 18
-6 7 1 174.71 18.33
-6 7 1 154 13.66
-6 7 0 9.08 2.57
-6 7 0 4.2 1.73
-6 7 0 8.27 3.06
-6 7 0 7.81 2.52
-6 7 0 6.94 2.82
-6 7 0 4.85 3.37
-6 7 0 7.25 3.15
-6 7 -1 122.13 10.85
-6 7 -1 126.36 12.24
-6 7 -1 127.13 10.74
-6 7 -1 127.61 10.3
-6 7 -1 146.92 13.99
-6 7 -1 131.26 16.71
-6 7 -1 154.89 10.65
-6 7 -2 254.05 15.11
-6 7 -2 238.79 15.7
-6 7 -2 252.57 14.19
-6 7 -2 268.76 17.23
-6 7 -3 58.82 6.98
-6 7 -3 52.14 7.78
-6 7 -3 59.21 6.47
-6 7 -3 56.5 7.17
-6 7 -3 64.1 9.83
-6 7 -3 67.46 7.09
-6 7 -3 62.28 8.13
-6 7 -4 127.81 10.08
-6 7 -4 150.23 12.69
-6 7 -4 137.57 9.64
-6 7 -4 135.56 10.86
-6 7 -5 256.35 13.3
-6 7 -5 262.05 17.45
-6 7 -5 291.29 15.68
-6 7 -5 257.18 12.52
-6 7 -5 248.92 13.23
-6 7 -6 22.26 3.51
-6 7 -6 37.54 6.12
-6 7 -6 50.8 5.37
-6 7 -6 40.02 5.98
-6 7 -6 8.35 2.3
-6 7 -7 117.81 8.18
-6 7 -7 105.38 6.59
-6 7 -7 120.41 7.87
6 -7 7 104.55 7.58
-6 7 -8 12.03 2.1
-6 7 -8 12.19 1.98
-6 7 -8 11.04 1.98
6 -7 8 12.48 2.14
-6 7 -9 227.03 7.52
6 -7 9 251.1 7.92
-6 6 12 12.54 2.04
-6 6 12 14.34 2.41
-6 6 11 133.57 8.92
-6 6 11 157.59 9.8
-6 6 10 107.89 9.4
-6 6 10 98.4 8.32
-6 6 10 90.68 8.34
-6 6 9 15.47 4.07
-6 6 9 14.26 3.74
-6 6 9 17.01 4.61
-6 6 8 235.02 19.87
-6 6 8 232.13 14.62
-6 6 8 178.53 17.17
-6 6 8 209.59 14.18
-6 6 7 130.76 19.43
-6 6 7 145.32 14.18
-6 6 7 166.29 12.38
-6 6 6 79.43 11.44
-6 6 6 71.85 9.15
-6 6 6 44.37 8.7
-6 6 6 76.18 9.02
-6 6 6 57.76 8.27
-6 6 6 62.63 7.2
-6 6 5 331.73 20.79
-6 6 5 257.31 19.07
-6 6 5 297.36 20.39
-6 6 5 268.57 22.66
-6 6 5 321.79 17.56
-6 6 5 306.77 17.34
-6 6 5 218.05 19.6
-6 6 5 267.53 14.79
-6 6 4 461.63 22.69
-6 6 4 501.93 26.76
-6 6 4 448.99 26.99
-6 6 4 438.97 22.26
-6 6 4 458.06 26.33
-6 6 4 416.95 18.25
-6 6 3 50.08 6.97
-6 6 3 53.33 8.83
-6 6 3 55.71 8.2
-6 6 3 52.83 10.23
-6 6 3 52.2 8.08
-6 6 3 49.35 7.82
-6 6 3 57.94 6.55
-6 6 2 51.08 6.8
-6 6 2 57.02 8.35
-6 6 2 51.99 7.19
-6 6 2 57.25 8.74
-6 6 2 48.08 7.1
-6 6 2 39.93 9.9
-6 6 2 48.69 5.83
-6 6 1 25.43 5.04
-6 6 1 29.92 6.35
6 -6 -1 29.45 6.62
-6 6 1 28.62 5.44
-6 6 1 33.1 5.7
-6 6 1 31.67 7.97
-6 6 1 38.93 6.17
-6 6 1 28.81 8.13
-6 6 1 39.76 5.37
-6 6 0 45.95 6.25
-6 6 0 48.6 7.08
-6 6 0 52.16 6.95
-6 6 0 51.7 7.3
-6 6 0 48.16 6.49
-6 6 0 47.29 9.07
-6 6 0 36.76 8.92
-6 6 0 49.51 6.06
-6 6 -1 258.52 16.33
-6 6 -1 324.74 18.64
-6 6 -1 231.21 15
-6 6 -1 244.98 18.74
-6 6 -1 351.68 21.35
-6 6 -1 219.67 20.54
-6 6 -1 369.62 17.32
-6 6 -2 165.84 12.91
-6 6 -2 197.76 15.98
-6 6 -2 177.33 12.6
-6 6 -2 148.06 13.47
-6 6 -2 159.79 16.66
-6 6 -2 137.86 14.25
-6 6 -3 21.34 5.16
-6 6 -3 17.47 4.33
-6 6 -3 13.22 5.01
-6 6 -3 13.22 4.31
-6 6 -3 12.81 4.64
-6 6 -4 417.94 19.21
-6 6 -4 314.3 24.54
-6 6 -4 507.39 19.96
-6 6 -4 549.99 25.45
-6 6 -4 455.93 18.69
-6 6 -4 399.46 19.4
-6 6 -5 290.99 15.4
-6 6 -5 329.25 22.61
-6 6 -5 323.32 17.56
-6 6 -5 266.98 13.67
-6 6 -5 274.62 14.5
-6 6 -6 21.22 3.77
-6 6 -6 25.08 4.89
-6 6 -6 20.14 3.45
-6 6 -6 24.01 4.24
6 -6 6 25.21 4.38
-6 6 -7 24.36 3.5
-6 6 -7 22.87 4.39
-6 6 -7 25.41 3.65
-6 6 -7 23.93 4.16
-6 6 -8 283.37 12.24
-6 6 -8 276.17 10.91
-6 6 -8 309.76 12.34
6 -6 8 291.05 12.12
-6 6 -9 24.09 2.75
-6 6 -9 28.69 2.95
6 -6 9 28.5 3.05
-6 5 13 10.38 1.98
-6 5 12 19.49 3.33
-6 5 11 232.04 13.79
-6 5 11 248.26 12.89
-6 5 10 183.63 13.87
-6 5 10 195.69 13.27
-6 5 10 188.21 12.05
-6 5 9 97.84 10.49
-6 5 9 98.5 10.63
-6 5 9 74.78 9.06
-6 5 8 31.63 5.9
-6 5 8 25.4 6.75
-6 5 8 18.85 5.31
-6 5 8 37.85 5.72
-6 5 8 35.49 5.54
-6 5 7 16.23 4.72
-6 5 7 12.86 3.31
-6 5 7 7.3 3.87
-6 5 7 15.07 3.91
-6 5 7 6.96 2.74
-6 5 6 60.22 9.32
-6 5 6 57.37 7.58
-6 5 6 53.27 7.87
-6 5 6 30.01 6.52
-6 5 6 54.22 7.47
-6 5 6 49.85 6.48
-6 5 5 12.24 3.53
-6 5 5 9.7 2.89
-6 5 5 12.42 3.86
-6 5 5 5.81 2.45
-6 5 5 11.83 3.32
6 -5 -5 5.49 2.47
-6 5 5 7.1 3.49
-6 5 5 9.87 3.29
-6 5 5 9.5 3.42
-6 5 5 3.82 2.18
-6 5 4 551.56 26.39
-6 5 4 455.66 29.77
-6 5 4 498.66 28.23
-6 5 4 514.03 23.35
-6 5 4 571.72 22.96
-6 5 4 381.63 23.96
6 -5 -4 490.24 26.21
-6 5 4 488.25 27.3
-6 5 4 528.11 26.11
-6 5 4 503.34 23.5
-6 5 4 463.82 24.81
-6 5 4 495.03 20.29
-6 5 3 3.77 2
-6 5 3 -0.52 4.17
-6 5 3 0.93 0.84
-6 5 3 1.39 0.44
-6 5 3 2.63 1.97
-6 5 3 1.44 0.48
6 -5 -3 2.22 1.19
-6 5 3 3.3 2.39
-6 5 3 1.45 1.01
-6 5 3 0.18 2.53
-6 5 3 3.76 3.15
-6 5 2 118.96 13.71
-6 5 2 134.63 10.96
-6 5 2 136.7 12.69
6 -5 -2 137.67 13.52
-6 5 2 131.56 10.06
-6 5 2 140.11 11.85
-6 5 2 114.09 15.05
-6 5 2 135.24 13.48
-6 5 2 126.1 11.43
-6 5 2 144.16 10.23
-6 5 2 137.14 14.7
-6 5 1 1091.82 42.04
-6 5 1 1159.95 33.45
-6 5 1 1235.15 37.48
6 -5 -1 1256.4 44.8
-6 5 1 1130.43 32.72
-6 5 1 1146.53 34.05
-6 5 1 1269.51 49.62
-6 5 1 1123.75 42.23
-6 5 1 1164.64 45.13
-6 5 1 1246.55 32.02
-6 5 0 205.06 17.83
-6 5 0 199.3 13.12
-6 5 0 192.16 13.78
6 -5 0 199.97 18.52
-6 5 0 209.98 14.05
-6 5 0 183.26 12.78
-6 5 0 233.02 18.69
-6 5 0 207.95 14.31
-6 5 0 177.97 17.39
-6 5 0 190.84 18.44
-6 5 0 218.65 12.64
-6 5 -1 329.74 17.88
6 -5 1 324.69 24.83
-6 5 -1 345.9 19.18
-6 5 -1 318.9 16.91
-6 5 -1 364.38 21.66
-6 5 -1 301.32 19.12
-6 5 -1 380.23 24.7
-6 5 -1 352.13 26.22
-6 5 -1 422.14 18.19
-6 5 -2 34.69 8.56
-6 5 -2 37.02 5.72
6 -5 2 37 8.3
-6 5 -2 33.32 6.35
-6 5 -2 34.52 5.36
-6 5 -2 34.74 6.27
-6 5 -2 46.93 7.76
-6 5 -2 26.75 6.07
-6 5 -2 45.31 6.03
-6 5 -3 8.86 2.58
-6 5 -3 9.74 3.35
-6 5 -3 12 3.07
-6 5 -3 12.77 4.43
-6 5 -3 11.38 3.61
-6 5 -3 14.11 3.82
-6 5 -4 1.31 1.59
-6 5 -4 -0.02 1.5
-6 5 -4 0.5 1.18
-6 5 -4 2.26 1.36
-6 5 -4 2.89 1.97
-6 5 -4 2.98 1.52
-6 5 -5 51.15 6.45
-6 5 -5 64.78 9.91
-6 5 -5 61.7 7.06
-6 5 -5 55.31 6.31
-6 5 -5 61.76 7.67
-6 5 -5 48.05 6
-6 5 -6 8.1 2.43
-6 5 -6 9.82 3.39
-6 5 -6 9.31 2.8
-6 5 -6 9.59 2.54
6 -5 6 8.08 2.49
-6 5 -7 132.43 8.77
-6 5 -7 160.59 9.6
-6 5 -7 133.59 10.13
-6 5 -7 141.89 9.78
6 -5 7 130.3 9.36
-6 5 -8 1.32 1.15
-6 5 -8 3 1.31
-6 5 -8 2.38 1.2
6 -5 8 2.47 1.32
-6 5 -9 149.3 7.49
-6 5 -9 173.26 8.07
6 -5 9 160.22 7.91
-6 5 -10 2.43 0.71
-6 4 14 28.53 2.86
-6 4 13 79.84 6.3
-6 4 12 37.22 5.17
-6 4 12 37.48 4.72
-6 4 11 -1.96 1.36
-6 4 11 -1.32 0.91
-6 4 11 -0.36 0.13
-6 4 10 10.52 4.01
-6 4 10 12.2 3.19
-6 4 10 19.14 3.81
-6 4 10 12.77 3.93
-6 4 9 24.45 5.52
-6 4 9 23.04 4.94
-6 4 9 37.03 5.62
-6 4 9 26.61 5.5
-6 4 8 67.88 8.54
-6 4 8 78.5 9.44
-6 4 8 90.56 9.2
-6 4 8 68.3 8.34
-6 4 7 208.55 14.04
-6 4 7 237.7 16.92
-6 4 7 203.22 18.17
-6 4 7 268.11 16.53
-6 4 7 231 14.66
-6 4 7 230.5 16.13
-6 4 6 13.91 3.65
-6 4 6 8.49 2.68
-6 4 6 19.25 4.42
-6 4 6 11.42 3.72
-6 4 6 14 6.01
-6 4 6 15.96 3.93
6 -4 -6 13.37 4.18
-6 4 6 8.22 2.57
-6 4 6 9.09 3.11
-6 4 6 16.54 4.48
-6 4 5 205.24 14.92
-6 4 5 171.02 18.7
-6 4 5 164.27 13.57
-6 4 5 195.18 14.19
6 -4 -5 161.75 14.36
-6 4 5 161.92 11.42
-6 4 5 161.09 14.44
-6 4 5 131.82 12.88
-6 4 5 182.38 13.05
-6 4 5 153.64 10.83
-6 4 4 74.34 10.63
-6 4 4 106.64 10.27
-6 4 4 73.01 11.26
-6 4 4 84.94 9.08
-6 4 4 85.5 8.83
6 -4 -4 65.3 8.85
-6 4 4 78.08 7.03
-6 4 4 71.15 7.23
-6 4 4 80.76 10.65
-6 4 4 73.28 9.21
-6 4 4 78.98 9.16
-6 4 4 66.89 6.94
-6 4 3 293.66 21.34
-6 4 3 267.17 20.91
-6 4 3 387.58 18.87
-6 4 3 302.44 16.6
-6 4 3 356.66 16.99
-6 4 3 276.17 18.01
6 -4 -3 239.04 17.04
-6 4 3 272.29 13.86
-6 4 3 284.83 14.81
-6 4 3 250.42 19.85
-6 4 3 321.55 18.11
-6 4 3 319.84 19.12
-6 4 3 273.29 13.87
-6 4 2 134.62 14.38
-6 4 2 161.97 11.81
-6 4 2 167.98 13.35
6 -4 -2 166.04 14.95
-6 4 2 168.68 11.24
-6 4 2 178.62 11.62
-6 4 2 155.34 16.11
-6 4 2 165.47 12.37
-6 4 2 163.5 14.15
-6 4 2 169.83 16.3
-6 4 2 178.19 11.03
-6 4 1 10.61 2.48
-6 4 1 9.74 2.92
-6 4 1 7.97 3.88
-6 4 1 9.78 4.22
-6 4 1 11.45 3.08
6 -4 -1 10.83 3.89
-6 4 1 10.52 2.97
-6 4 1 8.74 3.07
-6 4 1 13.08 3.46
-6 4 1 7.96 1.95
-6 4 1 9.29 3.28
-6 4 1 7.74 3.33
-6 4 0 98.29 9.63
6 -4 0 94.57 12.96
-6 4 0 99.39 9.48
-6 4 0 108.26 12.17
-6 4 0 100.79 9.28
-6 4 0 92.91 9.33
-6 4 0 92.8 11.46
-6 4 0 91.63 12.77
-6 4 0 104.58 8.55
-6 4 0 92.42 11.85
-6 4 -1 1023.07 32.38
6 -4 1 1044.29 45.78
-6 4 -1 1127.35 35.55
-6 4 -1 1113.98 37.95
-6 4 -1 1091.65 32.04
-6 4 -1 1011.29 35.04
-6 4 -1 1175.99 41.19
-6 4 -1 1186.44 49.53
-6 4 -1 1191.19 31.28
-6 4 -2 22.52 6.88
-6 4 -2 28.5 5.1
6 -4 2 30.52 7.45
-6 4 -2 24.47 5.25
-6 4 -2 26.12 4.74
-6 4 -2 33.31 6.32
-6 4 -2 26.54 5.97
-6 4 -2 24.51 5.29
-6 4 -2 33.69 5.15
-6 4 -3 566.6 23.25
6 -4 3 565.29 32.9
-6 4 -3 504.51 26.35
-6 4 -3 579.03 24.05
-6 4 -3 605.41 23.46
-6 4 -3 588.1 28.28
-6 4 -3 572.28 24.86
-6 4 -3 609.95 39.03
-6 4 -4 24.94 4.72
-6 4 -4 16 4.61
-6 4 -4 26.79 4.98
-6 4 -4 26.9 4.53
-6 4 -4 25.87 5.42
-6 4 -4 22.73 4.54
-6 4 -5 17.07 3.65
-6 4 -5 24.54 5.68
-6 4 -5 28.61 5
-6 4 -5 25.06 4.31
-6 4 -5 28.47 5.33
-6 4 -6 197.77 11.74
-6 4 -6 210.35 12.64
-6 4 -6 205.98 14.21
-6 4 -6 216.97 13.5
6 -4 6 182.23 11.84
-6 4 -7 3.41 1.53
-6 4 -7 3.27 1.59
-6 4 -7 4.13 1.98
-6 4 -7 3.1 1.23
6 -4 7 2.86 1.29
-6 4 -8 91.84 7.2
-6 4 -8 99.35 7.21
6 -4 8 100.28 7.31
-6 4 -9 1.91 1.06
-6 4 -9 1.91 0.82
6 -4 9 2.13 0.85
-6 4 -10 38.97 3.41
6 -4 10 35.75 3.06
-6 3 14 67.3 4.69
-6 3 14 75.5 5.14
-6 3 13 4.93 1.6
-6 3 13 4.58 1.4
-6 3 12 4.56 2.02
-6 3 12 5.88 1.64
-6 3 12 7.45 3.03
-6 3 11 5.64 2.81
-6 3 11 4.24 1.76
-6 3 11 4.62 2.72
-6 3 10 15.92 5.9
-6 3 10 30.15 6.88
-6 3 9 0.86 1.65
-6 3 9 -1.89 1.78
-6 3 9 1.64 1.73
-6 3 9 0.75 1.17
-6 3 8 64.83 8.25
-6 3 8 75.68 9.26
-6 3 8 52.01 7.89
-6 3 8 64.07 7.98
-6 3 8 67.15 8.23
-6 3 8 54.74 8.18
-6 3 7 90.2 8.98
-6 3 7 114.08 11.04
-6 3 7 114.58 17.48
-6 3 7 77.14 10.05
6 -3 -7 106.42 13.06
-6 3 7 111.11 10.62
-6 3 7 122.15 10.5
6 -3 -7 93.96 11.3
-6 3 7 96.32 9.9
-6 3 6 91.45 8.59
-6 3 6 114.32 10.46
-6 3 6 107.83 15.4
-6 3 6 106.03 11.12
6 -3 -6 100.91 12.77
-6 3 6 105.81 10.51
-6 3 6 128.93 10.14
6 -3 -6 88.24 10.34
-6 3 6 110.22 8.14
-6 3 6 89.25 8.93
-6 3 6 101.41 10.8
-6 3 5 136.32 15.98
-6 3 5 157.46 11.79
-6 3 5 134.37 11.85
6 -3 -5 145.42 15.18
-6 3 5 134.62 11.87
-6 3 5 158.77 10.44
6 -3 -5 125.05 11.88
-6 3 5 145.13 13.41
-6 3 5 133.8 9.16
-6 3 5 114.71 9.9
-6 3 5 110.21 11.21
-6 3 5 135.69 11.38
-6 3 5 126.67 9.96
-6 3 4 480.97 27.24
-6 3 4 446.93 27.63
-6 3 4 548.02 21.64
-6 3 4 474.33 21.43
-6 3 4 477.64 21.9
6 -3 -4 406.13 21.17
-6 3 4 447.79 17.54
-6 3 4 424.66 18.85
-6 3 4 463.54 25.2
-6 3 4 465.17 22.25
-6 3 4 482.12 22.5
-6 3 4 401.77 16.85
-6 3 3 44.9 5.87
-6 3 3 42.92 6.16
-6 3 3 37.89 7.45
-6 3 3 37.14 7.4
6 -3 -3 38.95 6.85
6 -3 -3 26.78 5.11
-6 3 3 33.3 4.74
-6 3 3 38.95 5.5
-6 3 3 38.31 5.98
-6 3 3 44.26 6.82
-6 3 3 30.5 6.32
-6 3 3 36.16 4.66
-6 3 2 45.01 8.19
-6 3 2 48.39 6.29
-6 3 2 42.01 7.94
6 -3 -2 43.01 7.78
-6 3 2 46.23 5.69
-6 3 2 39.72 7.87
-6 3 2 47 6.43
-6 3 2 45.41 7.33
-6 3 2 45.45 5.28
-6 3 1 11.33 2.56
-6 3 1 15.16 5.11
-6 3 1 15.32 4.96
6 -3 -1 14.09 4.84
-6 3 1 17.52 3.96
-6 3 1 14.62 3.35
-6 3 1 13.69 3.11
-6 3 1 16.28 3.72
-6 3 1 14.82 4.54
-6 3 1 18.9 5.17
-6 3 0 96.47 9.49
6 -3 0 80.59 12.44
-6 3 0 97.14 9.28
-6 3 0 107.09 11.61
-6 3 0 94.43 8.92
-6 3 0 93.41 9.26
-6 3 0 92.56 10.93
-6 3 0 99.15 13.77
-6 3 0 95.18 7.86
-6 3 -1 1473.83 42.93
-6 3 -1 1353.03 37.65
6 -3 1 1283.47 51.84
-6 3 -1 1436.23 39.94
-6 3 -1 1421.19 37.22
-6 3 -1 1292.93 39.21
-6 3 -1 1500.67 44.81
-6 3 -1 1517.33 56.5
-6 3 -1 1716.08 36.85
-6 3 -2 146.42 11.61
6 -3 2 139.87 16.58
-6 3 -2 153.48 13
-6 3 -2 150.15 12.4
-6 3 -2 162.62 12
-6 3 -2 144.06 13.04
-6 3 -2 175.66 13.86
-6 3 -2 187.5 20.4
-6 3 -2 196.43 12.15
-6 3 -3 1.11 0.44
6 -3 3 2.78 3.43
-6 3 -3 3.54 1.79
-6 3 -3 -1.36 1.77
-6 3 -3 0.17 0.53
-6 3 -3 0.48 0.66
-6 3 -3 0.18 0.22
-6 3 -3 1.92 1.17
-6 3 -4 127.43 10.61
-6 3 -4 94.42 11.27
-6 3 -4 144.99 11.55
-6 3 -4 131.29 10.27
-6 3 -4 133.98 12.06
-6 3 -4 136.71 10.68
-6 3 -5 67.2 7.47
-6 3 -5 63.21 8.44
-6 3 -5 72.54 8.52
-6 3 -5 62.25 6.87
-6 3 -5 70.1 8.17
-6 3 -6 91.08 8.06
-6 3 -6 84.8 8.78
-6 3 -6 86.74 7.87
-6 3 -6 91.35 8.72
-6 3 -7 125.16 9.29
-6 3 -7 134.73 9.34
-6 3 -8 2.59 1.02
-6 3 -8 1.29 0.97
-6 3 -8 1.06 0.47
6 -3 9 5.99 1.71
-6 3 -9 5.35 1.5
6 -3 10 3.12 1.02
-6 3 -10 2.61 0.97
-6 2 14 5.14 1.3
-6 2 14 5.58 1.59
-6 2 13 41.04 4.97
-6 2 13 27.56 3.27
-6 2 12 45.16 6.25
-6 2 12 40.92 4.8
-6 2 11 194.42 11.94
-6 2 11 207.25 17.27
-6 2 10 77.31 9.08
-6 2 10 50.61 9.57
-6 2 10 74.66 7.93
-6 2 10 51.68 10.48
-6 2 9 262.65 19.81
-6 2 9 292.42 18.22
-6 2 9 254.59 15.88
-6 2 9 244.33 16.17
-6 2 9 301.84 22.35
-6 2 8 476.99 22.88
-6 2 8 572.74 24.28
-6 2 8 457.48 22.25
-6 2 8 554.77 23.12
-6 2 8 634.7 21.96
-6 2 8 476.33 25.08
-6 2 7 9.39 2.86
-6 2 7 11.33 3.28
-6 2 7 8.29 3.38
-6 2 7 5.86 4.74
6 -2 -7 10.03 4.15
-6 2 7 9.22 3.25
-6 2 7 9.99 2.96
-6 2 7 9.32 2.55
-6 2 7 8.45 3.02
-6 2 6 183.68 12.05
-6 2 6 84.83 15.33
-6 2 6 121.85 10.54
-6 2 6 91.76 10.37
6 -2 -6 47.6 10.09
-6 2 6 125.06 13.67
-6 2 6 113.27 9.78
-6 2 6 148.53 10.11
-6 2 6 200.81 13.57
-6 2 6 69.66 9.58
-6 2 5 40.42 5.57
-6 2 5 30.2 5.39
-6 2 5 31.84 7.34
6 -2 -5 27.66 6.46
-6 2 5 32.46 5.83
-6 2 5 33.06 4.57
-6 2 5 30.71 4.35
-6 2 5 32.01 6.85
-6 2 5 24.61 4.66
-6 2 5 32.25 6.26
-6 2 5 28.35 4.19
-6 2 4 236.71 19.79
-6 2 4 259.96 20.67
-6 2 4 254.35 14.19
-6 2 4 273.19 16.09
6 -2 -4 196.79 18.5
-6 2 4 218.23 15.91
6 -2 -4 224.26 15.11
-6 2 4 225.22 12.58
-6 2 4 254.34 18.94
-6 2 4 248.94 14.38
-6 2 4 247.36 18.36
-6 2 4 265.44 17.03
-6 2 3 1158.44 43.53
6 -2 -3 1136.19 40.98
6 -2 -3 1130.43 34.45
6 -2 -3 1095.93 33.07
-6 2 3 1218.8 32.76
-6 2 3 1127.6 41.18
-6 2 2 1.38 1.45
-6 2 2 0.53 1.89
6 -2 -2 0.46 1.59
6 -2 -2 -0.16 1.47
6 -2 -1 467.84 31.22
6 -2 -1 737.99 28.3
-6 2 1 731.64 25.96
-6 2 1 744.22 28.63
-6 2 1 562.82 28.18
-6 2 1 642.17 28.7
-6 2 1 797.63 36.29
-6 2 0 194.16 14.24
6 -2 0 154.63 18.54
6 -2 0 247.49 15.52
-6 2 0 221.23 14.28
-6 2 0 292.84 16.31
-6 2 0 220.75 16.72
-6 2 0 202.82 13.81
-6 2 0 196.58 15.74
-6 2 0 259.57 22.86
-6 2 -1 22.4 6.24
6 -2 1 5.74 4.37
-6 2 -1 14.01 4.2
6 -2 1 16.41 4.11
-6 2 -1 16.77 4.12
-6 2 -1 12.09 3.93
-6 2 -1 13.12 3.93
-6 2 -1 11.69 4.86
-6 2 -1 20.95 4.13
-6 2 -2 595.5 24.13
6 -2 2 518.71 32.81
6 -2 2 632.65 27.09
-6 2 -2 534.33 23.9
-6 2 -2 596.5 25.31
-6 2 -2 620.07 24.29
-6 2 -2 556.5 25.27
-6 2 -2 587.67 25.14
-6 2 -2 641.94 37.66
-6 2 -3 8.81 4.96
6 -2 3 1.89 0.56
-6 2 -3 7.14 2.64
-6 2 -3 4.7 2.23
-6 2 -3 6.87 2.69
-6 2 -3 1.2 1.54
-6 2 -3 5.36 2.7
-6 2 -4 54.44 7.72
-6 2 -4 59.8 8.89
-6 2 -4 46.1 8.19
-6 2 -4 50.43 6.76
-6 2 -5 101.27 8.92
-6 2 -5 100.06 9.92
-6 2 -5 122.1 11.7
-6 2 -5 100.12 9.1
-6 2 -6 4.78 2.47
-6 2 -6 3.78 2.17
-6 2 -6 4.64 4.06
-6 2 -6 5.5 2.62
-6 2 -7 240.3 12.01
-6 2 -7 199.8 10.93
-6 2 -7 247.58 15.39
-6 2 -7 219.34 12.15
-6 2 -8 129.98 7.83
-6 2 -8 135.52 9.52
-6 2 -8 119.67 8.24
-6 2 -9 253.16 11.01
-6 2 -9 239.09 10.62
6 -2 9 272.96 11.47
6 -2 10 2.85 1.11
-6 2 -10 2.54 0.97
-6 1 14 37.66 4.41
-6 1 14 35.75 3.03
6 -1 -14 34.3 2.7
-6 1 13 60.74 5.32
-6 1 13 75.88 5.44
-6 1 13 68.15 7.31
-6 1 13 68.84 5.45
-6 1 12 168.77 10.96
-6 1 12 199.62 10.85
-6 1 12 187.55 14.46
-6 1 12 192.45 10.44
-6 1 11 94.59 9.78
-6 1 11 86.58 8.69
-6 1 11 93.87 13.14
-6 1 11 92.13 8.22
-6 1 10 491.74 22.63
-6 1 10 512.27 21.8
-6 1 10 536.2 23.12
-6 1 10 453.87 33.29
-6 1 9 148.03 12.92
-6 1 9 169.86 13.38
-6 1 9 185.68 14.07
-6 1 9 186.98 13.92
-6 1 9 159.52 16.37
-6 1 8 104.7 9.73
-6 1 8 118.97 10.42
-6 1 8 106.74 10.62
-6 1 8 126.57 10.55
-6 1 8 136.03 10.69
-6 1 8 107.65 11.85
-6 1 7 133.91 10.71
-6 1 7 144.75 17.92
-6 1 7 121.81 11.55
6 -1 -7 107.21 15.23
-6 1 7 149.75 11.87
-6 1 7 150.5 10.63
-6 1 7 157.42 14.49
-6 1 7 128.16 12.96
-6 1 6 591.39 34.46
-6 1 6 629.62 23.28
-6 1 6 660 27.08
6 -1 -6 556.67 33.4
-6 1 6 629.95 27.5
-6 1 6 703.39 22.71
-6 1 6 684.49 22.7
-6 1 6 751.12 31.03
-6 1 6 637.48 25.47
-6 1 6 783.86 31.81
-6 1 5 95.92 12.94
-6 1 5 96.03 8.5
6 -1 -5 76.91 11.82
-6 1 5 76.63 9.36
-6 1 5 83.22 7.29
-6 1 5 92.28 7.8
-6 1 5 95.7 10.94
-6 1 5 87.76 8.56
-6 1 5 110.95 11.77
-6 1 4 31.97 5.24
-6 1 4 25.55 7.03
-6 1 4 32.56 7.31
-6 1 4 29.55 6.37
6 -1 -4 29.97 5.96
-6 1 4 33.4 4.52
-6 1 4 30.74 4.89
-6 1 4 39.12 7.73
-6 1 4 43.62 5.81
-6 1 4 45.21 8.56
-6 1 3 131.07 14.24
-6 1 3 132.44 13.68
-6 1 3 132.15 9.91
6 -1 -3 112.78 11.04
-6 1 3 138.67 9.87
-6 1 3 136.1 13.03
-6 1 3 135.35 10.41
-6 1 3 127.42 13.24
6 -1 -2 46.1 7.05
-6 1 2 53.87 6.37
-6 1 2 62.31 7.05
-6 1 2 49.84 8.63
-6 1 2 60.26 9.6
6 -1 -1 39.51 7.49
-6 1 1 52.76 6.86
-6 1 1 46.82 7.17
-6 1 1 46.22 7.64
-6 1 1 26.99 7.53
-6 1 1 60.14 10.34
-6 1 0 70.73 7.5
-6 1 0 94.35 9.49
6 -1 0 78.05 9.16
-6 1 0 80.57 7.39
-6 1 0 83.79 8.29
-6 1 0 98.75 9.69
-6 1 0 91.13 10.42
-6 1 0 91.98 9.05
-6 1 0 75.33 11.31
-6 1 -1 30.41 5.18
-6 1 -1 39.13 8.69
-6 1 -1 22.86 5.25
6 -1 1 30.18 6
-6 1 -1 37.81 5.23
-6 1 -1 29.64 5.14
-6 1 -1 29.97 6
-6 1 -1 25.31 5.96
-6 1 -2 466.91 21.14
6 -1 2 488.89 24.78
-6 1 -2 473.46 19.86
-6 1 -2 426.83 20.62
-6 1 -2 458.72 22.48
-6 1 -2 480.52 22.56
-6 1 -3 460.68 20.17
6 -1 3 421.86 23.88
-6 1 -3 335.58 17.46
-6 1 -3 335.76 18.48
-6 1 -3 456.94 22.19
-6 1 -3 414.63 31.6
-6 1 -4 46.31 6.26
-6 1 -4 53.99 7.46
-6 1 -4 43.06 6.36
-6 1 -4 60.74 7.97
-6 1 -4 65.94 8.64
-6 1 -4 35.89 5.68
-6 1 -5 181.5 11.73
-6 1 -5 133.38 12.33
-6 1 -5 144.88 10.68
-6 1 -5 149.01 13.29
-6 1 -5 152.85 11.32
-6 1 -6 98.77 8.73
-6 1 -6 136.6 13.39
-6 1 -6 121.51 9.8
-6 1 -7 184.52 10.23
-6 1 -7 184.32 13.09
-6 1 -7 155.47 10.31
-6 1 -8 108.12 7.02
-6 1 -8 108.34 8.66
-6 1 -8 104.66 7.76
-6 1 -9 32.84 3.17
-6 1 -9 34.11 4.07
-6 1 -9 34.97 3.94
-6 1 -10 32.24 3.19
6 -1 10 36.78 3.51
-6 0 14 6.73 1.32
-6 0 14 9.02 2.1
6 0 -14 6.96 1.29
-6 0 13 28.17 3.26
-6 0 13 23.44 3.17
-6 0 13 24.3 4.14
-6 0 12 -0.01 1
-6 0 12 0.62 0.73
-6 0 12 1.55 1.53
-6 0 11 64.67 7.04
-6 0 11 44.82 8
-6 0 11 65.24 6.67
-6 0 10 4.96 2.51
-6 0 10 5.72 2.7
-6 0 10 6 2.65
-6 0 10 5.54 2.21
-6 0 10 3.01 1.45
-6 0 9 168.49 12.24
-6 0 9 122.92 11.3
-6 0 9 156.93 11.95
-6 0 9 131.54 14.05
-6 0 9 125.09 10.15
-6 0 9 108.68 11.44
-6 0 8 23.52 5.3
-6 0 8 28.47 4.89
-6 0 8 31.3 5.63
-6 0 8 33.54 5.32
-6 0 8 28.72 5.77
-6 0 8 32.81 6.35
-6 0 7 497.67 20.45
6 0 -7 355.25 26.82
-6 0 7 384.71 21.49
-6 0 7 450.21 18.79
-6 0 7 548.03 21.43
-6 0 7 488.18 24.4
-6 0 7 401.63 20.79
-6 0 7 457.42 23.76
-6 0 7 371.04 21.46
-6 0 6 8.93 3.36
-6 0 6 2.66 1.35
-6 0 6 6.82 3.85
-6 0 6 5.05 2.26
-6 0 6 7.03 2.23
-6 0 6 6.46 2.51
-6 0 6 5.52 2.83
-6 0 6 3.61 2.43
-6 0 6 6.17 3.25
-6 0 5 45.08 5.88
-6 0 5 39.07 10.73
-6 0 5 33.98 6.38
-6 0 5 46.28 5.5
-6 0 5 51.55 6.23
-6 0 5 50.98 7.8
-6 0 5 40.91 6.12
-6 0 5 57.15 8.76
-6 0 4 182.67 11.84
6 0 -4 176.81 13.88
-6 0 4 177.3 23.04
-6 0 4 158.29 14.15
6 0 -4 152.83 14.41
-6 0 4 197.6 11.4
-6 0 4 205.49 12.23
-6 0 4 202.09 15.67
-6 0 4 201.14 12.89
-6 0 4 203.14 17.03
-6 0 3 205.67 16.83
-6 0 3 194.9 12.24
6 0 -3 157.8 13.16
-6 0 3 165.02 23.08
-6 0 3 162.97 14.37
6 0 -3 150.95 13.58
-6 0 3 190.54 11.27
-6 0 3 214.56 12.48
-6 0 3 199.31 15.95
-6 0 3 210.14 13.06
-6 0 3 226.54 18.52
-6 0 2 15.97 3.44
-6 0 2 10.96 3.49
6 0 -2 19.28 4.51
-6 0 2 9.64 4.32
6 0 -2 12.37 3.82
-6 0 2 12.7 2.85
-6 0 2 16.33 3.36
-6 0 2 14.4 3.89
-6 0 2 17.53 3.36
-6 0 2 17.47 4.17
-6 0 2 20.08 5.3
-6 0 1 42.44 6.02
-6 0 1 34.75 6.91
-6 0 1 38.41 5.78
-6 0 1 38.38 11.15
6 0 -1 35.42 6.51
-6 0 1 40.46 5.48
-6 0 1 49.26 7.22
-6 0 1 42.55 5.55
-6 0 1 40.43 5.78
-6 0 1 38.39 7.07
-6 0 1 42.97 7.43
-6 0 0 424 19.74
-6 0 0 550.16 24.73
-6 0 0 515.24 21.88
-6 0 0 536.13 38.67
6 0 0 452.18 23.79
-6 0 0 454.5 18.98
-6 0 0 443.26 19.31
-6 0 0 466.54 23.77
-6 0 0 564.4 27.54
-6 0 0 483.94 28.27
-6 0 -1 102.83 9.84
-6 0 -1 150.16 11.47
-6 0 -1 111.64 16.51
6 0 1 131.48 12.82
-6 0 -1 144.9 12.52
-6 0 -1 103.32 9.29
-6 0 -1 97.67 9.08
-6 0 -1 140.66 13.35
-6 0 -1 135.31 15.42
-6 0 -2 17.98 4.12
-6 0 -2 20.17 6
-6 0 -2 28.51 4.94
6 0 2 21.12 5.39
-6 0 -2 17.68 3.77
-6 0 -2 18.91 4
-6 0 -2 31.79 6.35
-6 0 -2 24.96 5.4
-6 0 -3 0.41 0.59
-6 0 -3 2.67 1.4
6 0 3 3.23 2.54
-6 0 -3 2.56 2.94
-6 0 -3 0.14 1.33
-6 0 -4 105.78 9.53
-6 0 -4 88.19 10.46
-6 0 -4 109.23 10.62
-6 0 -4 103.86 9.57
-6 0 -5 2.2 1.24
-6 0 -5 0.55 1.23
-6 0 -5 0.46 1.52
-6 0 -5 2.46 1.55
-6 0 -6 37 4.75
-6 0 -6 35.51 6.2
-6 0 -6 29.44 5.66
-6 0 -6 31.46 4.9
6 0 7 130.83 8.95
-6 0 -7 141.55 8.56
-6 0 -7 130 9.52
-6 0 -7 139.72 11.04
-6 0 -7 127.86 9.12
-6 0 -8 41.02 4
-6 0 -8 32.49 3.81
-6 0 -8 39.41 5.04
-6 0 -8 40.09 4.63
6 0 8 40.84 4.52
6 0 9 2.9 0.92
-6 0 -9 2.76 0.93
-6 0 -9 2.52 1.01
6 0 9 5.32 1.32
6 0 10 6.71 1.41
-6 0 -10 8.22 1.5
-6 -1 14 10.03 1.57
-6 -1 14 14.08 2.27
-6 -1 13 69.1 4.77
-6 -1 13 58.05 5.98
-6 -1 13 69.86 5.41
-6 -1 12 -0.05 0.7
-6 -1 12 1.67 1.07
-6 -1 12 2.03 1.31
-6 -1 11 54.34 6.38
-6 -1 11 56.83 6.29
-6 -1 11 37.56 6.52
-6 -1 11 57.06 7.16
-6 -1 10 13.99 3.75
-6 -1 10 14.02 3.61
-6 -1 10 15.9 3.71
-6 -1 10 14.12 3.73
-6 -1 10 13.5 3.25
-6 -1 10 8.17 2.96
-6 -1 9 125.68 9.99
-6 -1 9 117.81 10.98
-6 -1 9 123.24 11.6
-6 -1 9 116.51 12.15
-6 -1 9 102.21 9.38
-6 -1 9 103.33 10.84
-6 -1 8 25.4 5.53
-6 -1 8 34.19 5.24
-6 -1 8 26.44 5.52
-6 -1 8 34.46 5.19
-6 -1 8 33.56 6.07
-6 -1 8 26.68 4.85
-6 -1 8 30.31 5.88
-6 -1 7 162.9 11.35
-6 -1 7 133.5 12.94
-6 -1 7 171.4 11.27
-6 -1 7 150.98 13.23
-6 -1 7 132.83 11.64
-6 -1 7 134.34 13.46
-6 -1 6 516.36 20.72
6 1 -6 534.27 27.21
-6 -1 6 507.47 37.61
-6 -1 6 511.09 25.9
-6 -1 6 607.64 21.51
-6 -1 6 774.01 26.25
-6 -1 6 639.12 28.06
-6 -1 6 546.28 23.11
-6 -1 6 740.02 33.82
-6 -1 5 2.96 1.15
6 1 -5 3.26 1.64
-6 -1 5 2.51 2.68
-6 -1 5 2.75 2.42
-6 -1 5 4.19 1.97
-6 -1 5 5.96 2.37
-6 -1 5 1.95 1.1
-6 -1 5 2.45 1.65
-6 -1 5 1.43 3.22
-6 -1 4 70.86 7.37
6 1 -4 69.77 9.21
-6 -1 4 63.05 9.37
-6 -1 4 71.73 14.98
6 1 -4 60.05 9.03
-6 -1 4 70.3 6.89
-6 -1 4 93.37 8.74
-6 -1 4 87.34 10.55
-6 -1 4 70.68 7.75
-6 -1 4 85.03 12.26
-6 -1 3 78.88 8.05
6 1 -3 64.15 8.83
-6 -1 3 58.14 9.28
-6 -1 3 60.54 14.73
6 1 -3 60.12 9.06
-6 -1 3 73.4 7.13
-6 -1 3 87.72 8.19
-6 -1 3 79.56 10.14
-6 -1 3 74.16 7.77
-6 -1 3 89.55 12.58
-6 -1 2 10.02 3.12
6 1 -2 8.91 3.25
-6 -1 2 2.38 3.13
-6 -1 2 11.66 3.17
6 1 -2 6.33 2.76
-6 -1 2 9.35 2.44
-6 -1 2 12.08 3.07
-6 -1 2 9.06 3.64
-6 -1 2 11.96 2.59
-6 -1 2 13.26 3.99
-6 -1 2 13.68 4.88
-6 -1 1 915.63 29.82
-6 -1 1 1009.02 29.49
-6 -1 1 969.34 58
6 1 -1 902.93 35.62
-6 -1 1 901.26 27.77
-6 -1 1 941.81 28.19
-6 -1 1 754.77 34.43
-6 -1 1 1051.44 31.73
-6 -1 1 1116.51 43.68
-6 -1 1 841.57 25.84
-6 -1 0 139.79 11.62
-6 -1 0 175 12.29
-6 -1 0 161.28 21.53
6 1 0 162.68 14.76
-6 -1 0 144.68 11.05
-6 -1 0 136.84 10.4
-6 -1 0 148.44 14.19
-6 -1 0 151.35 10.66
-6 -1 -1 33.19 5.83
-6 -1 -1 42.98 6.11
-6 -1 -1 31.28 9.16
6 1 1 40.85 7.74
-6 -1 -1 32.7 5.41
-6 -1 -1 36.18 5.31
-6 -1 -1 40.43 5.72
-6 -1 -1 38.19 7.74
-6 -1 -2 47.06 7.6
-6 -1 -2 71.39 7.64
-6 -1 -2 69.25 12.59
6 1 2 54.63 8.77
-6 -1 -2 54.4 7.29
-6 -1 -2 57.34 6.98
-6 -1 -3 20.97 5.34
-6 -1 -3 31.43 4.84
-6 -1 -3 22.24 5.06
-6 -1 -3 17.59 3.79
-6 -1 -4 321.85 18.77
-6 -1 -4 286.09 19.94
-6 -1 -4 305.84 18.34
-6 -1 -4 321.78 16.94
6 1 5 307.74 14.34
-6 -1 -5 304.9 15.39
-6 -1 -5 361.11 15.28
-6 -1 -5 214.92 19.35
-6 -1 -5 220.71 16.91
-6 -1 -5 286.4 15.6
-6 -1 -6 35.8 4.52
-6 -1 -6 37.99 6.57
-6 -1 -6 30.1 4.7
-6 -1 -6 33.21 5.72
6 1 6 33.95 4.58
-6 -1 -7 233.75 10.61
-6 -1 -7 221.89 12.41
-6 -1 -7 224.97 11.84
-6 -1 -7 236.69 12.23
6 1 7 214.63 10.9
6 1 8 1.21 0.99
-6 -1 -8 0.48 0.61
-6 -1 -8 0.82 0.59
-6 -1 -8 0.49 0.84
6 1 8 1.79 0.97
-6 -1 -9 15 1.8
-6 -1 -9 11.93 1.68
-6 -1 -9 17.14 2.39
6 1 9 15.73 2.14
6 1 9 17.33 2.35
-6 -2 13 51.38 4.71
-6 -2 13 51.37 4.32
-6 -2 12 37.16 4.17
-6 -2 12 33.05 4.67
-6 -2 12 35.37 4.24
-6 -2 11 0.23 0.89
-6 -2 11 1.29 1.37
-6 -2 11 1.16 0.96
-6 -2 11 -0.31 0.55
-6 -2 10 4.69 2.14
-6 -2 10 3.07 1.5
-6 -2 10 2.52 1.29
-6 -2 10 2.62 1.24
-6 -2 10 1.99 1.55
-6 -2 9 31.38 5.98
-6 -2 9 33.38 5.88
-6 -2 9 50.27 6.24
-6 -2 9 37.46 6.22
-6 -2 9 36.89 6.21
-6 -2 9 32.28 5.24
-6 -2 8 20.15 4.98
-6 -2 8 36.09 4.94
-6 -2 8 40.82 6.82
-6 -2 8 35.31 5.13
-6 -2 8 37.1 6.46
-6 -2 8 36.49 5.97
-6 -2 8 35.03 5.68
-6 -2 7 303.41 15.09
-6 -2 7 288.09 19.12
-6 -2 7 343.69 15.81
-6 -2 7 323.43 19.32
-6 -2 7 277.24 16.43
-6 -2 7 260.17 15.48
-6 -2 6 676.15 23.45
-6 -2 6 608.28 28.93
-6 -2 6 685.69 22.75
-6 -2 6 717.54 30.37
-6 -2 6 685.86 25.45
-6 -2 6 684.87 24.93
-6 -2 5 286.36 15.15
-6 -2 5 291.65 20.38
-6 -2 5 300.01 14.54
-6 -2 5 311.21 19.7
-6 -2 5 275.74 15.66
-6 -2 4 118.47 9.9
-6 -2 4 104.11 12.53
6 2 -4 103.3 12.3
-6 -2 4 103.23 8.53
-6 -2 4 158.69 11.76
-6 -2 4 140.05 13.26
-6 -2 4 118.76 9.91
-6 -2 3 270.34 15.41
6 2 -3 247.57 18.6
-6 -2 3 251.5 33.23
-6 -2 3 208.65 19.12
6 2 -3 248.84 19.35
-6 -2 3 266.37 14.15
-6 -2 3 299.94 20.2
-6 -2 3 280.88 15.35
-6 -2 2 14.49 3.75
6 2 -2 13.58 4.42
-6 -2 2 7.49 5.49
-6 -2 2 16.06 4.93
6 2 -2 14.02 5.6
-6 -2 2 16.15 4.14
-6 -2 2 23.51 4.48
-6 -2 2 14.43 5.2
-6 -2 2 12.34 3.09
-6 -2 1 22.56 4.75
-6 -2 1 26.03 4.27
6 2 -1 21.69 5.13
-6 -2 1 27.76 4.84
-6 -2 1 26.77 4.53
-6 -2 1 17.56 5.81
-6 -2 1 22.08 4.35
-6 -2 0 655.1 26.8
-6 -2 0 680.24 24.01
-6 -2 0 686.23 24.63
-6 -2 0 686.75 25.15
-6 -2 0 727.41 24.27
-6 -2 0 664.8 33.81
-6 -2 -1 192.19 15.26
-6 -2 -1 231.49 13.8
-6 -2 -1 209.02 13.8
-6 -2 -1 211.14 14.51
-6 -2 -1 235.8 16.97
-6 -2 -2 3.92 2.45
-6 -2 -2 3.54 1.76
-6 -2 -2 4.21 2.63
-6 -2 -2 4.71 3.12
-6 -2 -3 25.85 6.88
-6 -2 -3 47.83 5.86
-6 -2 -3 30.95 5.89
-6 -2 -3 40.81 5.71
-6 -2 -3 38.65 6.2
-6 -2 -4 202.77 15.8
-6 -2 -4 226.71 12.26
-6 -2 -4 154.73 13.84
-6 -2 -4 189.63 12.61
-6 -2 -4 152.37 12.84
-6 -2 -5 139 10.47
-6 -2 -5 156.86 9.57
-6 -2 -5 94.75 11.38
-6 -2 -5 137.32 10.41
-6 -2 -5 94.04 10.22
6 2 5 125.69 8.46
-6 -2 -6 89.98 7
-6 -2 -6 98.59 6.98
-6 -2 -6 98.12 9.36
-6 -2 -6 102.22 8.22
-6 -2 -6 93.19 8.7
6 2 6 89.69 6.77
6 2 7 1.74 0.91
-6 -2 -7 1.21 0.68
-6 -2 -7 -0.09 0.47
-6 -2 -7 3.83 1.35
-6 -2 -7 2.63 1.34
6 2 7 2.71 1.27
-6 -2 -8 125.94 6.02
-6 -2 -8 124.39 6.84
-6 -2 -8 145.3 7.54
-6 -2 -8 130.31 6.41
6 2 8 142.67 7.29
6 2 8 129.21 6.65
-6 -2 -9 17.02 2
6 2 9 15.04 1.79
-6 -3 13 8.87 1.51
-6 -3 12 117.92 6.6
-6 -3 12 144.65 7.91
-6 -3 11 68.51 6.3
-6 -3 11 74.69 6.48
-6 -3 11 68.36 6.31
-6 -3 11 69.41 6.6
-6 -3 10 47.03 6.06
-6 -3 10 39.05 5.27
-6 -3 10 55.85 6.42
-6 -3 10 49.87 6.47
-6 -3 9 28.48 5.76
-6 -3 9 23.21 5.29
-6 -3 9 31.97 4.65
-6 -3 9 25.33 4.84
-6 -3 9 31.04 5.17
-6 -3 9 26.41 4.59
-6 -3 8 69.3 9.78
-6 -3 8 96.28 10.41
-6 -3 8 124.85 9.35
-6 -3 8 87.02 9.52
-6 -3 8 110.55 9.73
-6 -3 8 99.79 9.47
-6 -3 7 121.29 8.94
-6 -3 7 87.04 10.32
-6 -3 7 100.44 8.08
-6 -3 7 93.07 10.21
-6 -3 7 108.87 9.48
-6 -3 7 89.04 8.93
-6 -3 6 133.99 12.34
-6 -3 6 171.31 11.04
-6 -3 6 181.43 15.56
-6 -3 6 185.91 11.07
-6 -3 6 173.29 14.45
-6 -3 6 195.47 12.47
-6 -3 6 169.02 12.14
-6 -3 5 141.35 12.79
-6 -3 5 121.19 9.52
-6 -3 5 126.67 13.7
-6 -3 5 157.8 10.3
-6 -3 5 158.34 14.1
-6 -3 5 148.4 11.23
-6 -3 4 657.24 23.64
-6 -3 4 609.62 21.19
-6 -3 4 695.21 30.95
-6 -3 3 365.88 18.03
-6 -3 3 346.92 16.2
-6 -3 3 399.8 24.11
-6 -3 2 231.18 14.7
-6 -3 2 184.52 12.72
-6 -3 2 187.23 13.54
-6 -3 2 208.14 19.03
-6 -3 1 206.71 15.62
-6 -3 1 203.87 21.24
-6 -3 0 66.6 8.76
-6 -3 0 22.96 4.42
-6 -3 0 65.68 7.66
-6 -3 0 31.72 8.47
-6 -3 0 54.64 7.66
-6 -3 -1 69.23 9.66
-6 -3 -1 21.31 4.42
-6 -3 -1 72.57 8.07
-6 -3 -1 26 6.97
-6 -3 -1 67.67 8.64
-6 -3 -2 39.8 7.98
-6 -3 -2 33.8 5.01
-6 -3 -2 56.69 7.75
-6 -3 -2 34.29 5.58
-6 -3 -2 66.85 7.87
-6 -3 -3 96.91 12.78
-6 -3 -3 125.26 9.04
-6 -3 -3 133.26 11.78
-6 -3 -3 109.85 9.2
-6 -3 -3 137.53 11.44
-6 -3 -4 68.59 8.44
-6 -3 -4 57.89 7.35
-6 -3 -4 71.74 6.51
-6 -3 -4 53.8 7.5
-6 -3 -4 54.31 6.42
-6 -3 -5 73.39 7.23
-6 -3 -5 74.71 6.13
-6 -3 -5 57.24 7.31
-6 -3 -5 68.61 6.81
-6 -3 -5 65.4 7.64
6 3 5 86.9 7.34
-6 -3 -6 22.86 3.34
-6 -3 -6 27.85 3.49
-6 -3 -6 31.37 4.75
-6 -3 -6 24.9 3.76
-6 -3 -6 36.1 4.85
6 3 6 43.04 4.95
-6 -3 -7 104.74 5.53
-6 -3 -7 123.05 6.18
-6 -3 -7 122.47 7.4
-6 -3 -7 135.23 7.38
-6 -3 -7 140.66 7.47
6 3 7 164.2 8.06
-6 -3 -8 0.37 0.32
-6 -3 -8 0.82 0.41
-6 -3 -8 0.78 0.48
6 3 8 1.08 0.44
-6 -4 12 55.48 4.03
-6 -4 11 11.89 2.34
-6 -4 11 13.73 2.54
-6 -4 10 4.96 1.6
-6 -4 10 6.9 2.19
-6 -4 10 6.26 1.79
6 4 -10 4.23 1.2
-6 -4 9 55.6 6.92
-6 -4 9 37.94 5.12
-6 -4 9 59.54 6.8
-6 -4 9 42.17 5.77
-6 -4 8 18.65 4.5
-6 -4 8 12.11 2.45
-6 -4 8 10.7 2.95
-6 -4 8 13.94 3.49
6 4 -8 12.52 2.67
-6 -4 7 224.94 15.95
-6 -4 7 256.97 12.1
-6 -4 7 210.09 14.28
-6 -4 7 208.82 13.18
-6 -4 6 22.68 5.1
-6 -4 6 15.78 3.03
-6 -4 6 18.48 4.71
-6 -4 6 15.09 3.06
-6 -4 6 17.93 4.4
-6 -4 6 19.14 4.08
-6 -4 5 7.56 3.29
-6 -4 5 8.14 2.55
-6 -4 5 8.75 3.79
-6 -4 5 7.9 2.27
-6 -4 5 8.9 3.55
-6 -4 5 5.03 2.14
-6 -4 4 148.55 10.33
-6 -4 4 151.99 15.69
-6 -4 4 166.99 10.18
-6 -4 3 39.48 5.44
-6 -4 3 33.35 8.29
-6 -4 3 44.57 5.37
-6 -4 3 43.21 7.75
-6 -4 2 15.49 3.82
-6 -4 2 10.18 5.81
-6 -4 2 16.49 3.36
-6 -4 2 17.65 5.6
-6 -4 1 74.53 8.51
-6 -4 1 76.65 7.67
-6 -4 1 76.15 12.68
-6 -4 0 13.86 3.75
-6 -4 0 13.02 2.83
-6 -4 0 13.72 3.19
-6 -4 0 19.69 6.1
-6 -4 -1 22.65 3.84
-6 -4 -1 25.11 5.25
6 4 1 22.23 3.52
-6 -4 -1 21.61 4.2
-6 -4 -1 22.13 5.04
-6 -4 -1 27.99 4.86
6 4 1 23.97 3.86
-6 -4 -2 129.32 12.25
-6 -4 -2 127.81 9.06
6 4 2 117.66 8.51
-6 -4 -2 147.92 11.26
-6 -4 -2 110.61 9.53
-6 -4 -2 162.85 11.71
6 4 2 134.71 9.53
-6 -4 -3 33.18 4.27
-6 -4 -3 23.99 5.33
6 4 3 29.26 4.27
-6 -4 -3 27.9 4.79
-6 -4 -3 27.07 4.01
-6 -4 -3 27.12 4.65
6 4 3 29.88 4.27
-6 -4 -4 72.4 7.42
-6 -4 -4 73.34 5.91
-6 -4 -4 57.97 6.64
-6 -4 -4 65.66 6.21
-6 -4 -4 61.92 6.84
6 4 4 76.86 6.51
-6 -4 -5 5.42 1.74
-6 -4 -5 3.81 1.12
-6 -4 -5 4.99 1.69
-6 -4 -5 5.8 1.93
-6 -4 -5 6.64 1.81
6 4 5 5.98 1.62
-6 -4 -6 25.51 2.96
6 4 6 24.22 3.11
-6 -4 -6 31.56 3.72
-6 -4 -6 27.73 3.12
-6 -4 -6 30.71 3.46
6 4 6 24.28 2.52
6 4 6 30.2 3.32
-6 -4 -7 94.01 4.91
-6 -4 -7 88.98 4.53
6 4 7 95 4.98
-6 -5 10 2.05 1.09
-6 -5 10 2.52 0.81
6 5 -10 0.88 0.4
-6 -5 9 109.84 7.97
-6 -5 9 102.44 7.38
-6 -5 8 179.81 11.66
-6 -5 8 169.25 10.21
-6 -5 8 180.45 10.83
6 5 -8 175.9 8.76
-6 -5 7 58.58 7.18
-6 -5 7 68.08 7.03
-6 -5 7 66.36 6.73
6 5 -7 56.71 5.42
-6 -5 6 50.91 6.47
-6 -5 6 54.35 7.48
-6 -5 6 62.33 7.34
-6 -5 6 56.16 6.28
-6 -5 5 113.84 10.11
-6 -5 5 120.51 11.64
-6 -5 5 137.07 7.93
-6 -5 5 131.48 11.46
-6 -5 4 31.57 5.51
-6 -5 4 39.22 4.68
-6 -5 4 36.53 6.56
-6 -5 4 40.98 4.37
-6 -5 4 37.45 6.27
-6 -5 4 46.82 5.76
6 5 -4 37.78 4.09
-6 -5 3 177.87 10.79
-6 -5 3 179.79 9.66
-6 -5 3 213.4 15.77
6 5 -3 189.48 10.08
-6 -5 2 16.11 3.41
-6 -5 2 19.81 5.03
-6 -5 2 24.3 4.33
-6 -5 2 14.44 4.08
6 5 -2 17.36 3.21
-6 -5 1 15.7 3.42
-6 -5 1 23.63 3.72
6 5 -1 21.13 3.62
-6 -5 0 208.98 12.87
-6 -5 0 220.19 11.52
-6 -5 0 208.63 15.93
-6 -5 -1 7.1 2.4
6 5 1 6.49 1.76
-6 -5 -1 5.64 1.95
-6 -5 -1 6.24 2.49
-6 -5 -2 8.92 2.73
6 5 2 8.27 2.02
-6 -5 -2 10.79 2.71
-6 -5 -2 8.56 2.06
6 5 2 7.56 2.1
-6 -5 -3 85.93 7.82
6 5 3 69.75 5.7
-6 -5 -3 67.49 6.08
6 5 3 88.77 6.5
6 5 3 79.05 5.93
-6 -5 -4 34.37 4.15
6 5 4 25.32 3.25
6 5 4 33.48 3.48
-6 -5 -4 26.21 3.5
-6 -5 -4 25.28 3.03
6 5 4 29.32 3.34
-6 -5 -5 26.79 2.9
6 5 5 20.57 2.49
-6 -5 -5 26.14 2.87
6 5 5 23.83 2.44
6 5 5 24.95 2.68
-6 -6 9 4.03 1.09
-6 -6 9 5.18 1.12
-6 -6 8 33.73 3.87
-6 -6 8 32.99 3.62
6 6 -8 24.24 2.46
-6 -6 7 2.72 1.23
-6 -6 7 2.34 1.33
-6 -6 7 0.98 0.74
6 6 -7 0.83 0.49
-6 -6 6 50.49 5.82
-6 -6 6 50.66 5.49
-6 -6 6 48.87 5.16
6 6 -6 53.98 4.95
-6 -6 5 32.09 4.94
-6 -6 5 32.88 4.7
-6 -6 5 37.48 4.6
6 6 -5 34.5 4.25
-6 -6 4 -0.4 0.64
-6 -6 4 0.89 0.95
-6 -6 4 -0.13 0.53
-6 -6 3 78.08 5.6
-6 -6 3 69.04 7.68
-6 -6 3 80.73 6.83
6 6 -3 79.29 5.61
-6 -6 2 131.39 7.87
-6 -6 2 133.57 9.58
-6 -6 2 118.18 10.32
6 6 -2 131.53 7.74
-6 -6 1 10.26 2.2
-6 -6 1 11.25 1.91
-6 -6 1 5.54 1.52
6 6 -1 8.93 2.04
-6 -6 0 52.2 5.16
-6 -6 0 51.46 4.17
-6 -6 0 63.02 6.73
6 6 0 64.59 5.67
-6 -6 -1 32.19 4.04
6 6 1 28.23 2.89
-6 -6 -1 30.1 3.06
-6 -6 -1 32.05 4.04
6 6 1 34.6 3.95
-6 -6 -2 25.98 3.47
6 6 2 22.97 2.57
-6 -6 -2 21.29 2.43
-6 -6 -2 28.22 3.03
6 6 2 31.94 3.46
-6 -6 -3 30.02 3.23
6 6 3 33.82 3.12
-6 -7 5 -0.47 0.22
6 7 -5 -0.19 0.76
-6 -7 4 30.56 3.36
-6 -7 4 40.55 4.16
-6 -7 4 36.31 3.52
6 7 -4 41.3 3.79
-6 -7 3 29.24 3.8
-6 -7 3 28.12 3.07
6 7 -3 30.58 3.37
-6 -7 2 26.08 3.56
6 7 -2 29.75 3.25
-6 -7 1 0.29 0.44
7 -10 -4 67.53 4.06
-7 10 4 76.59 5.46
7 -10 -3 7.77 1.39
-7 10 3 7.29 1.88
-7 10 3 7.75 1.73
-7 10 3 7.75 1.94
7 -10 -2 98.03 4.97
-7 10 2 110.69 7.02
-7 10 2 107.74 7.76
-7 10 2 115.78 6.38
-7 10 1 51.05 4.61
-7 10 1 50.07 5.13
-7 10 1 54.84 3.99
-7 10 1 58.71 4.96
-7 10 0 8.44 1.71
-7 10 0 6.22 1.55
-7 10 0 9.68 2.06
-7 10 -1 69.99 4.56
-7 10 -1 73.11 5.35
-7 9 7 12.91 2.5
-7 9 7 16.4 2.48
-7 9 6 23.12 3.68
-7 9 6 22.85 2.98
-7 9 6 23.77 3.77
-7 9 5 43.45 4.86
-7 9 5 35.47 4.09
-7 9 5 51.18 5.5
-7 9 5 37 5.29
-7 9 5 50.41 4.25
-7 9 4 17.23 3.5
-7 9 4 14.24 3.2
-7 9 4 16.53 2.65
-7 9 4 20.53 4
-7 9 3 7.1 2.88
-7 9 3 8.48 2.58
-7 9 3 5.19 1.76
-7 9 3 3.24 2.01
-7 9 2 13.67 3.22
-7 9 2 16.05 3.07
-7 9 2 12.39 2.8
-7 9 2 9.96 2.84
7 -9 -1 1.97 1.03
-7 9 1 0.36 0.97
-7 9 1 2.73 1.49
-7 9 1 1.05 1.11
-7 9 1 0.2 0.28
7 -9 0 49.49 3.88
-7 9 0 55.08 5.76
-7 9 0 62.01 7.06
-7 9 0 53.96 5.08
-7 9 0 47.3 6.62
-7 9 -1 23.45 3.5
-7 9 -1 24.51 3.89
-7 9 -1 24.77 3.09
-7 9 -1 25.41 4.5
-7 9 -2 32.5 3.87
-7 9 -2 28.3 3.68
-7 9 -2 33.48 4.36
-7 9 -3 98.53 5.96
-7 9 -3 110.42 6.95
-7 9 -4 33.08 3.05
7 -9 4 35.78 3.38
-7 8 9 150.14 8.26
-7 8 9 130.95 6.12
-7 8 8 2.95 1.18
-7 8 8 1.39 1.14
-7 8 8 2.97 1.2
-7 8 7 61.31 7.35
-7 8 7 64.91 6.47
-7 8 7 57.75 5.34
-7 8 6 46.37 6.65
-7 8 6 41.63 5.37
-7 8 6 31.48 5.42
-7 8 6 45.92 5.01
-7 8 5 18.93 3.16
-7 8 5 18.34 3.8
-7 8 5 16.34 3.5
-7 8 5 15.67 4.56
-7 8 5 19.89 4.35
-7 8 4 11.64 2.66
-7 8 4 7.83 2.51
-7 8 4 3.8 0.69
-7 8 4 10.75 3.04
-7 8 4 10.18 2.64
-7 8 4 6.94 2.95
-7 8 3 30.84 4.66
-7 8 3 30.49 6.57
-7 8 3 35.08 5.55
-7 8 3 32.88 5.33
-7 8 3 27.47 6.16
-7 8 3 29.53 4.05
-7 8 2 17.11 4.23
-7 8 2 13.58 3.37
-7 8 2 15.31 4.14
-7 8 2 12.51 4.86
-7 8 1 325.38 17.39
-7 8 1 289.41 14.84
-7 8 1 337.43 23.57
-7 8 1 337.54 14.05
-7 8 0 5.57 1.9
-7 8 0 3.9 1.72
-7 8 -1 41.82 5.39
-7 8 -1 40.53 4.75
-7 8 -1 39.84 6.01
-7 8 -1 39.47 4.89
-7 8 -1 52.27 8.07
-7 8 -2 13.42 2.85
-7 8 -2 11.12 2.56
-7 8 -2 15.04 2.71
-7 8 -2 10.27 2.97
-7 8 -2 14.29 3.34
-7 8 -2 12.72 2.92
-7 8 -3 371.4 14.58
-7 8 -3 311.41 14.68
-7 8 -3 361.61 14.1
-7 8 -3 313.11 15.85
-7 8 -3 404.03 16.44
-7 8 -4 2.28 1.08
-7 8 -4 0.8 0.84
-7 8 -4 2.08 1.36
-7 8 -4 2.46 1.22
-7 8 -5 65.61 4.4
-7 8 -5 70.68 5.52
-7 8 -5 77.98 5.59
-7 8 -5 59.22 4.24
7 -8 5 64.62 4.86
-7 8 -6 135.34 6.2
7 -8 6 120.84 5.5
-7 7 10 7.63 1.71
-7 7 10 6.27 1.68
-7 7 9 263.45 13.56
-7 7 9 223.81 11.35
-7 7 8 0.48 0.83
-7 7 8 0.28 1.45
-7 7 8 0.88 1.09
-7 7 7 3.6 1.9
-7 7 7 1.27 2.57
-7 7 7 0.35 1.06
-7 7 7 3.6 1.51
-7 7 6 67.77 9.38
-7 7 6 64.55 7.9
-7 7 6 39.8 7.25
-7 7 6 54.14 6.07
-7 7 5 -0.83 1.16
-7 7 5 -0.08 1.54
-7 7 5 -0.72 1.6
-7 7 5 -1.17 3.74
-7 7 5 1 1
-7 7 5 1.76 0.9
-7 7 4 234.84 14.87
-7 7 4 212.84 17.46
-7 7 4 229.63 14.86
-7 7 4 216.92 12.36
-7 7 3 384.91 18.4
-7 7 3 348.85 24.26
-7 7 3 313.16 23.87
-7 7 3 424.73 22.08
-7 7 3 386.32 21.05
-7 7 3 371.72 16.01
-7 7 2 59.18 6.94
-7 7 2 67.96 9.19
-7 7 2 57.83 7.46
-7 7 2 51.35 8.08
-7 7 2 39.65 10.15
-7 7 2 53.59 5.91
-7 7 1 40.77 6.49
-7 7 1 42.79 5.26
-7 7 1 44.74 6.19
-7 7 1 34.02 7.63
-7 7 1 45.69 6.59
-7 7 1 52.49 10.04
-7 7 0 78.11 8.7
-7 7 0 85.92 7.87
-7 7 0 88.76 11.03
-7 7 0 76.42 8.02
-7 7 0 56.74 11.24
-7 7 0 91.65 7.92
-7 7 -1 1.35 0.97
-7 7 -1 0.86 0.64
-7 7 -1 -1.18 0.71
-7 7 -1 1.11 1.35
-7 7 -1 -1.51 1.04
-7 7 -1 1.66 1.09
-7 7 -2 100.51 8.92
-7 7 -2 95.45 9.34
-7 7 -2 104.91 9.65
-7 7 -2 98.74 8.16
-7 7 -2 117.12 11.14
-7 7 -3 161.43 10.7
-7 7 -3 140.77 12.11
-7 7 -3 176.21 11.02
-7 7 -3 179.2 10.46
-7 7 -3 169.23 14.45
-7 7 -3 179.94 12.12
-7 7 -4 235.16 12.03
-7 7 -4 250.94 12.54
-7 7 -5 5.59 1.73
-7 7 -5 6.67 1.96
-7 7 -5 2.91 1.38
-7 7 -5 3.5 0.99
7 -7 5 4.83 1.66
-7 7 -6 14.93 2.06
-7 7 -6 14.49 2.58
-7 7 -6 14.57 2.49
7 -7 6 12.47 2.14
-7 7 -7 2.14 0.82
7 -7 7 0.36 0.07
-7 6 12 5.67 1.27
-7 6 11 1.53 0.87
-7 6 11 1.64 0.61
-7 6 10 32.26 4.52
-7 6 10 33.9 4.65
-7 6 9 18.52 3.85
-7 6 9 16.42 3.78
-7 6 8 633.24 21.83
-7 6 8 653.14 23.8
-7 6 7 58.09 11.17
-7 6 7 62.92 7.46
-7 6 7 56.7 7.35
-7 6 7 65.77 7.35
-7 6 6 8.77 2.71
-7 6 6 5.62 3.1
-7 6 6 2.94 1.86
-7 6 5 46.22 7.89
-7 6 5 26.96 5.43
-7 6 5 39.61 8.33
-7 6 5 48.72 6.72
-7 6 5 35.27 6.88
-7 6 4 1.51 1.38
-7 6 4 3.03 1.43
-7 6 4 -0.87 0.45
-7 6 4 1.29 1.6
-7 6 4 -0.22 0.98
-7 6 4 1.79 2.39
-7 6 3 411.97 20.31
-7 6 3 395.67 25.15
-7 6 3 338.87 25.38
-7 6 3 463.4 23.39
-7 6 3 442.25 23.53
-7 6 3 392.9 17.25
-7 6 2 1.13 0.74
-7 6 2 4.55 2.17
-7 6 2 6.54 3.31
-7 6 2 0.49 0.58
-7 6 2 1.58 0.67
-7 6 2 2.14 1.68
-7 6 2 0.09 1.7
-7 6 1 26.95 5.84
-7 6 1 17.19 4
-7 6 1 33.01 7.36
-7 6 1 20.26 5.99
-7 6 1 19.42 6.61
-7 6 0 1.33 0.27
-7 6 0 4.65 2.17
-7 6 0 4.41 2.19
-7 6 0 3.11 1.99
-7 6 0 2.34 1.38
-7 6 0 1.03 2.96
-7 6 0 4.21 2.22
-7 6 -1 145.6 11.69
-7 6 -1 151.59 12.39
-7 6 -1 157.5 13.58
-7 6 -1 148.01 11.21
-7 6 -1 142.56 12.77
-7 6 -1 185.74 16.68
-7 6 -2 2.4 1.74
-7 6 -2 2.51 1.91
-7 6 -2 0.75 0.99
-7 6 -2 4.47 2.91
-7 6 -2 1.8 0.97
-7 6 -2 2.36 1.48
-7 6 -3 18.2 3.92
-7 6 -3 15 4.87
-7 6 -3 21.17 3.97
-7 6 -3 18.83 5.38
-7 6 -3 21.42 4.43
-7 6 -3 15.33 3.41
-7 6 -4 29.08 5.21
-7 6 -4 26.9 7.63
-7 6 -4 29.18 4.65
-7 6 -4 29.19 5.7
-7 6 -4 19.43 3.72
-7 6 -5 15.51 3.03
-7 6 -5 15.66 3.78
-7 6 -5 13.22 3.04
-7 6 -5 11.64 2.37
7 -6 5 11.55 2.51
-7 6 -6 56.12 4.85
-7 6 -6 60.02 6.03
-7 6 -6 54.78 4.52
-7 6 -6 63.38 5.81
7 -6 6 49.3 4.59
-7 6 -7 78.19 4.32
-7 6 -7 76.41 5.53
-7 6 -7 74.94 4.51
7 -6 7 65.62 4.37
-7 6 -8 3.92 1
-7 5 12 10.35 2.04
-7 5 11 99.24 6.81
-7 5 11 114.96 8.46
-7 5 10 57.57 6.3
-7 5 10 54.64 6.83
-7 5 9 11.36 3.3
-7 5 9 15.33 3.61
-7 5 9 13.88 3.21
-7 5 8 45.3 7.64
-7 5 8 70.27 7.46
-7 5 8 54.01 7.12
-7 5 7 22.88 4.59
-7 5 7 16.31 4.47
-7 5 7 46.77 6.64
-7 5 7 31.38 5.48
-7 5 7 34.08 5.63
-7 5 6 196.24 14.72
-7 5 6 92.83 11.67
-7 5 6 158.29 12.44
-7 5 6 140.36 12.86
-7 5 6 136.06 13.01
-7 5 6 119.24 10.14
-7 5 6 99.02 9.23
-7 5 5 734.33 30
-7 5 5 635.11 28.34
-7 5 5 749.65 26.74
-7 5 5 698.61 31.51
-7 5 5 508.09 28.53
-7 5 5 679.53 26.7
-7 5 5 525.31 21.01
-7 5 4 47.19 7.65
-7 5 4 37.99 6.47
-7 5 4 44.69 6.03
-7 5 4 32.88 6.35
-7 5 4 41.13 5.08
-7 5 4 30.77 6.34
-7 5 4 45.14 7.1
-7 5 4 41.47 7.73
-7 5 4 30.23 4.53
-7 5 3 798.52 29.14
-7 5 3 946.03 26.8
-7 5 3 653.83 31.54
-7 5 3 757.35 24.14
-7 5 3 637.45 34.67
-7 5 3 774.99 30.68
-7 5 3 807.41 32.65
-7 5 3 695.03 23.54
-7 5 2 606.13 24.54
-7 5 2 522.8 26.28
-7 5 2 564.45 21.79
-7 5 2 482.8 32.72
-7 5 2 584.82 25.22
-7 5 2 579.37 29.07
-7 5 2 556 20.67
-7 5 1 363.47 20.76
-7 5 1 425.59 19.73
-7 5 1 399 20.09
-7 5 1 434.47 26.62
-7 5 1 441.69 18.35
-7 5 0 43 6.51
-7 5 0 47.21 6.75
-7 5 0 51.41 8.59
-7 5 0 48.06 6.66
-7 5 0 47.13 6.85
-7 5 0 38.71 8.38
-7 5 0 46.33 5.84
-7 5 -1 611.78 24.89
-7 5 -1 666.8 27.21
-7 5 -1 612.31 27.58
-7 5 -1 631.11 24.48
-7 5 -1 622.98 27.69
-7 5 -1 620.48 30.32
-7 5 -1 727.4 24.57
-7 5 -2 227.94 14.49
-7 5 -2 209.39 16.16
-7 5 -2 224.01 15.13
-7 5 -2 207.36 13.44
-7 5 -2 250.53 16.88
-7 5 -3 51.58 6.7
-7 5 -3 40.39 7.83
-7 5 -3 50.21 6.61
-7 5 -3 54.47 6.66
-7 5 -3 57.07 8.54
-7 5 -3 57.45 7.2
-7 5 -4 24.87 4.33
-7 5 -4 17.01 5.13
-7 5 -4 34.45 5.2
-7 5 -4 21.79 4.81
-7 5 -4 18.33 3.64
-7 5 -5 17.97 3.34
-7 5 -5 18.46 4.15
-7 5 -5 19.7 3.74
-7 5 -5 23.28 4.26
-7 5 -5 17.53 3
7 -5 5 16.2 2.95
-7 5 -6 110.72 7.47
-7 5 -6 111.06 8.61
-7 5 -6 96.69 6.59
7 -5 6 84.89 6.08
-7 5 -7 95.83 5.74
-7 5 -7 84.66 6.22
-7 5 -7 76.51 5.2
-7 5 -8 4.54 1.01
-7 5 -8 4.62 1.06
-7 4 13 5.2 1.33
-7 4 12 57.23 4.83
-7 4 12 51.91 5.14
-7 4 11 174.98 10.85
-7 4 11 166.78 11.36
-7 4 10 88.23 7.96
-7 4 10 107.72 8.67
-7 4 10 83.51 8.94
-7 4 10 77.82 9.92
-7 4 9 19.83 5.57
-7 4 9 15.12 3.84
-7 4 9 22.65 4.45
-7 4 9 14.29 4.08
-7 4 8 100.92 10.95
-7 4 8 88.6 11.35
-7 4 8 87.3 9.08
-7 4 8 86.55 9.92
-7 4 8 101.87 11.22
-7 4 7 80.16 9.95
-7 4 7 60.16 10.12
-7 4 7 74.92 8.66
-7 4 7 83.36 9.42
-7 4 7 64.42 8.4
-7 4 7 79.39 8.91
-7 4 6 1014.95 35.58
-7 4 6 993.83 37.68
-7 4 6 905.95 31.28
-7 4 6 814.16 27.99
-7 4 6 888.61 33.96
-7 4 6 679.09 28.65
-7 4 6 788.11 26.36
-7 4 5 7.32 5.32
-7 4 5 15.97 7.24
-7 4 5 5.52 2.9
-7 4 5 1.55 1.99
-7 4 5 8.79 5.06
-7 4 5 4.22 3.07
-7 4 5 10.3 4.65
-7 4 4 188.44 14.31
-7 4 4 195.99 13.15
-7 4 4 168.73 10.88
-7 4 4 183.43 12.48
-7 4 4 166.38 16.11
-7 4 4 178.69 15.11
-7 4 4 182.89 14.62
-7 4 4 158.89 10.85
-7 4 3 229.08 15.22
-7 4 3 206.45 14.66
-7 4 3 209.37 12.54
-7 4 3 149.76 14.39
-7 4 3 184.39 11.91
-7 4 3 244.13 14.7
-7 4 3 160.7 16.77
-7 4 3 194.53 15.03
-7 4 3 195.36 15.95
-7 4 3 206.7 12.38
-7 4 2 112.59 10.39
-7 4 2 95.52 11.06
-7 4 2 96.94 9.08
-7 4 2 123.21 10.55
-7 4 2 82.29 12.52
-7 4 2 98.9 10.23
-7 4 2 94.53 11.49
-7 4 2 111.69 8.99
-7 4 1 128.54 12.33
-7 4 1 125 11.17
-7 4 1 138.55 15.08
-7 4 1 139.23 12.03
-7 4 1 102.74 12.7
-7 4 1 125.3 9.45
-7 4 0 26.58 5.72
-7 4 0 26.39 5.63
-7 4 0 32.9 6.09
-7 4 0 28.39 6.88
-7 4 0 30.71 6.78
-7 4 -1 279.23 16.87
-7 4 -1 271.48 17.44
-7 4 -1 271.04 18.08
-7 4 -1 281.64 16.21
-7 4 -1 312.58 20.5
-7 4 -1 316.7 15.69
-7 4 -2 19.3 5.64
-7 4 -2 18.19 5.36
-7 4 -2 15.54 4.45
-7 4 -2 9.54 3.65
-7 4 -3 183.39 12.72
-7 4 -3 138.18 13.84
-7 4 -3 177.67 12.65
-7 4 -3 191.82 13.12
-7 4 -3 193.16 15.82
-7 4 -3 189.53 13.27
-7 4 -4 362.31 17.09
-7 4 -4 348.86 21.58
-7 4 -4 396.35 18.97
-7 4 -4 380.13 17.12
-7 4 -5 53.2 6.04
-7 4 -5 62.08 7.53
-7 4 -5 66.41 7.52
-7 4 -5 62.96 6.16
-7 4 -6 194.67 10.36
-7 4 -6 183.33 11.03
-7 4 -6 179.7 9.65
-7 4 -7 125.71 7.05
-7 4 -7 103.25 6.84
-7 4 -7 107 6.59
-7 4 -8 6.62 1.24
-7 4 -8 4.74 1.11
-7 4 -8 4.99 1.26
7 -4 9 107.35 4.77
-7 3 13 86.68 5.74
-7 3 13 90.3 5.36
-7 3 12 52.53 4.69
-7 3 12 49.44 5.57
-7 3 12 44.81 4.96
-7 3 11 236.62 14.89
-7 3 11 214.38 13.78
-7 3 10 17.67 5.09
-7 3 10 32.06 4.75
-7 3 10 21.16 5.33
-7 3 9 14.13 4.52
-7 3 9 9.61 3.56
-7 3 9 12.28 3.32
-7 3 9 17.57 4.04
-7 3 9 12.56 4.25
-7 3 8 54.94 7.76
-7 3 8 41.79 6.61
-7 3 8 53.69 7.1
-7 3 8 53.04 7.17
-7 3 8 55.28 7.79
-7 3 8 52.48 7.41
-7 3 7 57.88 7.86
-7 3 7 50.1 8.38
-7 3 7 59.83 7.92
-7 3 7 62.69 7.62
-7 3 7 66.62 6.45
-7 3 7 54.68 7.32
-7 3 7 62.52 8.2
-7 3 7 52.66 6.78
-7 3 6 98.22 10
-7 3 6 87.63 10.6
-7 3 6 83.03 9.45
-7 3 6 93.16 8.75
-7 3 6 87.7 7.47
-7 3 6 79.86 8.78
-7 3 6 90.41 10.56
-7 3 6 72.8 7.65
-7 3 5 108.7 10.2
-7 3 5 95.77 10.53
-7 3 5 89.12 9.79
-7 3 5 98.84 8.51
-7 3 5 88.61 7.76
-7 3 5 81.55 8.55
-7 3 5 98.97 11.76
-7 3 5 69.29 9.06
-7 3 5 75.5 7.49
-7 3 4 146.87 11.75
-7 3 4 130.72 12.02
-7 3 4 124.5 10.83
-7 3 4 150.63 10.16
-7 3 4 124.63 9.57
-7 3 4 121.74 10.58
-7 3 4 129.19 14.13
-7 3 4 122.86 12.23
-7 3 4 151.78 13.49
-7 3 4 119.43 9.16
-7 3 3 671.66 35.33
-7 3 3 732.75 26.65
-7 3 3 503.75 25.01
-7 3 3 647.15 23.25
-7 3 3 670.31 24.98
-7 3 3 556.76 30.94
-7 3 3 641.35 27.29
-7 3 3 671.92 29.76
-7 3 3 565.46 20.22
-7 3 2 74.62 8.06
-7 3 2 59.84 8.51
7 -3 -2 63.37 10.23
-7 3 2 65.49 7.46
-7 3 2 68.65 7.77
-7 3 2 63.68 10.5
-7 3 2 68.33 8.47
-7 3 2 63.3 9.26
-7 3 2 61.88 6.33
-7 3 2 59.34 10.33
-7 3 1 22.87 3.84
-7 3 1 31.54 5.16
7 -3 -1 26.04 7.33
-7 3 1 26.5 5.53
-7 3 1 29.12 5.22
-7 3 1 29.34 5.42
-7 3 1 30.95 6.87
-7 3 1 30.71 6.73
-7 3 0 801.11 30.36
-7 3 0 774.96 28.75
-7 3 0 882.29 35.28
-7 3 0 833.44 29.25
-7 3 0 829.71 35.63
-7 3 0 791.11 24.47
-7 3 -1 2.21 1.01
-7 3 -1 0.79 1.27
-7 3 -1 1.26 1.11
-7 3 -1 2.03 2.53
-7 3 -1 0.84 1.09
-7 3 -2 130.48 11.06
-7 3 -2 121.18 12.07
-7 3 -2 138.16 12.02
-7 3 -2 138.46 11.44
-7 3 -2 155.1 12.91
-7 3 -3 23.93 4.56
-7 3 -3 15.64 4.39
-7 3 -3 24.59 4.96
-7 3 -3 28.76 4.99
-7 3 -3 25.36 4.78
-7 3 -4 55.31 6.45
-7 3 -4 57.51 7.8
-7 3 -4 71.39 8.37
-7 3 -5 599.76 20.67
-7 3 -5 551.82 21.71
-7 3 -5 560.25 19.84
-7 3 -6 4.83 1.64
-7 3 -6 3.6 1.46
-7 3 -6 2.82 1.24
-7 3 -7 89.48 5.98
-7 3 -7 91.61 6.3
7 -3 8 45.15 4.13
-7 3 -8 42.72 3.35
-7 3 -8 37.97 3.48
7 -3 9 5.36 1.1
-7 2 13 -1.05 0.74
-7 2 13 0.72 1
-7 2 12 14.98 2.6
-7 2 12 18.33 2.88
-7 2 12 17.18 3.61
-7 2 11 3.65 1.01
-7 2 11 5.39 2.03
-7 2 10 6.51 2.53
-7 2 10 8.48 2.94
-7 2 10 8.49 2.48
-7 2 10 0.64 2.36
-7 2 9 7.61 3.03
-7 2 9 7.52 2.59
-7 2 9 8.85 2.66
-7 2 9 9.29 2.92
-7 2 9 5.21 1.86
-7 2 8 35.31 5.87
-7 2 8 26.96 4.85
-7 2 8 25.4 5.08
-7 2 8 32.57 5.51
-7 2 8 35.31 5.19
-7 2 8 29.27 6.09
-7 2 7 686.78 26.08
-7 2 7 515.12 24.56
-7 2 7 657.92 23.97
-7 2 7 637.33 21.8
-7 2 7 561.51 25.31
-7 2 7 596.64 26.61
-7 2 7 525.73 20.93
-7 2 6 71.72 7.99
-7 2 6 51.29 7.62
-7 2 6 64.98 7.03
-7 2 6 60.04 6.49
-7 2 6 55.52 7.42
-7 2 6 52.26 8.11
-7 2 6 48.42 5.83
-7 2 5 149.33 11.66
-7 2 5 123.37 12.03
-7 2 5 140.36 10.02
-7 2 5 141.78 10.07
-7 2 5 123.53 10.74
-7 2 5 140.83 13.93
-7 2 5 111.6 8.6
-7 2 4 230.37 14.41
-7 2 4 203.72 14.75
-7 2 4 211.31 12.14
-7 2 4 201.18 12.41
-7 2 4 208.6 18
-7 2 4 197.75 13.36
-7 2 4 198.96 17.4
-7 2 4 177.22 14.59
-7 2 4 171.16 10.44
-7 2 3 6.01 1.84
-7 2 3 6.44 2.49
-7 2 3 6.02 2.64
-7 2 3 6.22 2.25
-7 2 3 6.45 2.26
-7 2 3 6.86 3.67
-7 2 3 6.65 2.48
-7 2 3 8.17 3.05
-7 2 3 0.72 1.79
-7 2 2 435.2 19.91
-7 2 2 403.06 21.93
7 -2 -2 351.68 25.59
-7 2 2 426.61 17.37
-7 2 2 438.61 19.63
-7 2 2 429.84 25.94
-7 2 2 511.2 22.11
-7 2 2 406.57 26.3
-7 2 2 445.8 22.25
-7 2 2 414.47 16.2
-7 2 2 407.27 27.4
-7 2 1 29.86 5.24
-7 2 1 37.67 8.43
7 -2 -1 28.37 7.84
-7 2 1 26.16 5.43
-7 2 1 26.02 4.14
-7 2 1 25.72 4.8
-7 2 1 34.05 6.73
-7 2 1 33.78 5.93
-7 2 1 35.35 7.25
-7 2 1 26.41 3.83
-7 2 0 2.37 1.15
-7 2 0 1.62 0.42
-7 2 0 2.33 1.36
-7 2 0 2.38 1.27
-7 2 0 1.84 1.69
-7 2 0 -1.09 1.3
-7 2 0 1.99 2.22
-7 2 -1 1.72 0.87
-7 2 -1 0.25 1.47
-7 2 -1 -0.78 0.13
-7 2 -2 122.16 10.43
-7 2 -2 131.21 11.74
-7 2 -2 122.6 11.16
-7 2 -3 43.09 5.88
-7 2 -3 31.74 5.63
-7 2 -3 47.34 6.57
-7 2 -3 42.13 6.61
-7 2 -4 123.56 9.44
-7 2 -4 100.39 9.46
-7 2 -5 0.91 0.47
-7 2 -5 0.55 0.27
-7 2 -6 16.22 2.8
-7 2 -6 13.96 2.56
-7 2 -6 11.76 2.45
-7 2 -7 97.15 6.23
-7 2 -7 84.79 6.11
-7 2 -8 88.69 4.89
-7 2 -8 88.24 5.35
7 -2 8 99.9 6.01
7 -2 9 38.47 3.04
-7 1 13 12.55 1.83
-7 1 13 13.42 2.69
-7 1 12 6.01 1.6
-7 1 12 8.93 2.84
-7 1 11 94.19 7.75
-7 1 11 61.03 8.53
-7 1 10 140.34 11.08
-7 1 10 151.05 11.04
-7 1 9 13.89 4.32
-7 1 9 10.29 3.77
-7 1 9 11.21 3.4
-7 1 8 4.34 2.32
-7 1 8 3.75 2.84
-7 1 8 5.6 2.48
-7 1 8 7.79 2.56
-7 1 7 12.63 3.36
-7 1 7 8.51 3
-7 1 7 9.48 2.92
-7 1 7 11.34 3.2
-7 1 7 12.99 4.08
-7 1 7 11.66 3.69
-7 1 6 212 13.81
-7 1 6 167.19 14.83
-7 1 6 230.29 13.89
-7 1 6 188.45 12.27
-7 1 6 201.34 17.43
-7 1 6 223.34 15.6
-7 1 6 168.65 15.17
-7 1 5 46.05 7.23
-7 1 5 32.79 7.13
-7 1 5 45 6.99
-7 1 5 44.98 6.17
-7 1 5 46.73 8.98
-7 1 5 35.34 7.33
-7 1 4 6.54 2.54
-7 1 4 5.38 2.04
-7 1 4 7.39 2.77
-7 1 4 9.45 2.94
-7 1 4 10.16 4.16
-7 1 4 12.5 3.39
-7 1 4 7.75 2.76
-7 1 4 6.11 2.57
-7 1 3 16.03 3.84
-7 1 3 23.42 6.57
-7 1 3 15.9 3.97
7 -1 -3 16.49 4.65
-7 1 3 17.07 3.66
-7 1 3 16.56 3.72
-7 1 3 12.42 4.76
-7 1 3 21.94 4.39
-7 1 3 12.36 3.64
-7 1 3 12.19 3.85
-7 1 2 22.72 4.58
-7 1 2 22.91 6.48
-7 1 2 17.63 4.01
-7 1 2 21.92 4.02
7 -1 -2 17.49 4.89
-7 1 2 22.79 4.4
-7 1 2 21.95 5.59
-7 1 2 28.27 4.99
-7 1 2 25.46 5.42
-7 1 2 25.69 6.15
-7 1 1 23.42 4.75
-7 1 1 26.15 4.95
7 -1 -1 29.76 5.92
-7 1 1 22.76 4.06
-7 1 1 26.37 4.76
-7 1 1 26.71 5.82
-7 1 1 34.22 6.17
-7 1 1 26.79 6.4
-7 1 0 495.39 22.29
-7 1 0 600.96 24.51
-7 1 0 472.47 19.81
-7 1 0 518.62 22.51
-7 1 0 638.26 30.15
-7 1 0 639.88 27.07
-7 1 -1 468.92 22.06
-7 1 -1 673.51 25.47
-7 1 -1 536.51 21.67
-7 1 -1 524.29 22.89
-7 1 -1 688.77 29.58
-7 1 -1 678.39 28.24
-7 1 -2 11.83 3.28
-7 1 -2 21.31 4.29
-7 1 -2 14.82 3.64
-7 1 -2 13.09 3.67
-7 1 -2 21.31 5.3
-7 1 -2 19.7 4.45
-7 1 -3 65.09 7.67
-7 1 -3 63.96 7.58
-7 1 -4 527.23 19.51
-7 1 -4 460.6 18.35
-7 1 -5 0.41 0.92
-7 1 -5 1.06 1
-7 1 -6 1.34 1.29
-7 1 -6 1.65 1
-7 1 -7 96.73 5.99
-7 1 -7 86.27 6.07
7 -1 7 93.89 6.35
7 -1 8 0.97 0.51
-7 1 -8 1.12 0.64
-7 1 -8 0.97 0.64
7 -1 9 48.8 3.16
-7 0 13 49.27 3.53
-7 0 13 52.89 5.07
-7 0 12 338.34 12.63
-7 0 12 402.51 17.2
-7 0 11 65.96 6.4
-7 0 11 54.12 7.37
-7 0 10 63.34 7.12
-7 0 10 75.12 7.72
-7 0 10 66.59 7.56
-7 0 10 50.95 8.85
-7 0 9 43.48 6.02
-7 0 9 40.24 5.98
-7 0 9 42.14 6.02
-7 0 9 37.19 6.88
-7 0 8 77.41 8.02
-7 0 8 74.93 8.93
-7 0 8 81.23 8
-7 0 8 68.6 8.74
-7 0 7 88.84 8.63
-7 0 7 132.95 12.59
-7 0 7 90.42 8.33
-7 0 7 93.93 9.05
-7 0 7 110.81 12.31
-7 0 7 93.37 9.79
-7 0 7 109.97 12.6
-7 0 6 22.95 4.29
-7 0 6 19.46 4.78
-7 0 6 20.54 3.82
-7 0 6 20.55 4.06
-7 0 6 16.69 4.83
-7 0 6 17.02 4.12
-7 0 6 23.6 6.09
-7 0 5 670.93 24.61
-7 0 5 608.38 21.85
-7 0 5 709.21 24.6
-7 0 5 631.2 30.45
-7 0 5 659.47 25.36
-7 0 5 702.43 34.28
-7 0 4 113.43 9.99
-7 0 4 119.71 13.01
-7 0 4 111.46 9.03
-7 0 4 125.68 10.07
-7 0 4 149.92 14.74
-7 0 4 125.8 10.63
-7 0 4 158.82 16.4
-7 0 3 502.12 21.6
-7 0 3 460.74 23.12
-7 0 3 445.79 18.57
-7 0 3 533.67 21.44
-7 0 3 434.37 26.05
-7 0 3 541.8 22.55
-7 0 3 504.43 30.67
-7 0 3 464.87 24.68
-7 0 2 253.27 15.65
-7 0 2 227.03 13.33
-7 0 2 240.31 14.39
-7 0 2 244.16 18.31
-7 0 2 226.14 19.21
-7 0 2 282.23 16.34
-7 0 2 271.51 22.31
-7 0 1 185.35 13.38
-7 0 1 185.21 12.96
-7 0 1 173.3 11.85
-7 0 1 170.18 12.22
-7 0 1 186.69 16.39
-7 0 1 229.15 19.32
-7 0 1 220.9 17.13
-7 0 0 303.13 17.85
-7 0 0 251.3 15.34
-7 0 0 296.68 15.92
-7 0 0 308.26 16.63
-7 0 0 268.9 17.79
-7 0 0 318.62 22.45
-7 0 0 305.99 20.51
-7 0 -1 18.09 4.31
-7 0 -1 28.3 4.88
-7 0 -1 20.78 4.21
-7 0 -1 21.71 4.22
-7 0 -1 32.74 6.76
-7 0 -2 144.84 13.05
-7 0 -2 207.64 12.76
-7 0 -2 149.2 12.15
-7 0 -2 161.02 11.59
-7 0 -2 203.51 16.52
-7 0 -3 21.69 4.29
-7 0 -3 33.05 4.86
-7 0 -3 24.43 3.92
-7 0 -4 21.87 3.81
-7 0 -4 15.53 4.78
-7 0 -5 27.33 3.9
-7 0 -5 20.51 4.21
-7 0 -5 25.3 4.14
-7 0 -6 22.39 3.18
-7 0 -6 16.63 2.88
-7 0 -6 20.43 3.16
-7 0 -7 550.1 14.16
-7 0 -7 524.41 14.78
-7 0 -8 59.7 3.56
-7 0 -8 60.52 3.8
7 0 8 68.4 4.26
7 0 8 61.53 3.96
-7 -1 13 216.88 8.67
-7 -1 12 18.01 2.66
-7 -1 12 21.25 3.41
-7 -1 11 4.31 1.7
-7 -1 11 2.64 1.54
-7 -1 10 433.5 17.35
-7 -1 10 420.33 18.11
-7 -1 10 425.46 18.2
-7 -1 9 110.4 8.98
-7 -1 9 101.68 9.73
-7 -1 9 124.59 9.8
-7 -1 9 113.82 11.35
-7 -1 8 46.53 5.92
-7 -1 8 52.43 7.75
-7 -1 8 58.32 6.77
-7 -1 8 37.99 7.01
-7 -1 8 62.31 8.76
-7 -1 7 4.52 2.51
-7 -1 7 5.44 3.15
-7 -1 7 7.68 2.73
-7 -1 7 0.98 1.93
-7 -1 6 79.94 8.33
-7 -1 6 60.02 9.27
-7 -1 6 91.54 8.23
-7 -1 6 120.16 11.07
-7 -1 6 75.11 10.08
-7 -1 6 101.04 10.77
-7 -1 5 9.03 2.72
-7 -1 5 7.74 3.39
-7 -1 5 10.53 2.89
-7 -1 5 10.06 3.04
-7 -1 5 9.78 4.28
-7 -1 5 10.64 3.07
-7 -1 4 31.97 5.33
-7 -1 4 28.01 6.75
-7 -1 4 31.71 4.74
-7 -1 4 38.22 5.72
-7 -1 4 33.9 5.74
-7 -1 4 36.15 7.35
-7 -1 3 5.81 2.07
-7 -1 3 5.92 2.47
-7 -1 3 9.98 2.92
-7 -1 3 6.35 2.34
-7 -1 3 6.18 2.73
-7 -1 3 9.97 2.8
-7 -1 3 12.83 5.73
-7 -1 2 15.82 3.74
-7 -1 2 9.66 2.85
-7 -1 2 8.75 2.81
-7 -1 2 3.71 1.94
-7 -1 2 20.11 7.12
-7 -1 1 21.23 4.63
-7 -1 1 24.26 4.15
-7 -1 1 26.82 5.12
-7 -1 1 22.8 4.42
-7 -1 1 20.25 5.5
-7 -1 0 5.69 2.75
-7 -1 0 5.49 2.03
-7 -1 0 7.1 3.05
-7 -1 0 4.19 1.78
-7 -1 0 5.66 2.74
-7 -1 -1 227.67 13.35
-7 -1 -1 193.7 13.6
-7 -1 -1 195.35 12.28
-7 -1 -2 41.04 7.26
-7 -1 -2 67.28 6.81
-7 -1 -2 44.97 6.71
-7 -1 -2 51.49 6.59
-7 -1 -3 226.18 15.02
-7 -1 -3 258.49 12.87
-7 -1 -3 163.4 13.9
-7 -1 -3 175.17 13.14
-7 -1 -4 73.54 6.93
-7 -1 -4 80.41 6.69
7 1 5 5.52 1.69
-7 -1 -5 6.2 1.89
-7 -1 -5 4.39 2.21
-7 -1 -5 2.28 1.37
7 1 6 4.89 1.27
-7 -1 -6 2.39 0.85
-7 -1 -6 6.04 1.82
-7 -1 -6 4.16 1.41
7 1 7 0.78 0.31
-7 -1 -7 1.56 0.6
-7 -1 -7 1.42 0.79
-7 -1 -7 1.28 0.74
7 1 7 1.44 0.75
7 1 8 214.77 6.74
-7 -2 12 40.95 3.49
-7 -2 12 33.02 3.2
-7 -2 11 14.41 2.72
-7 -2 11 9.54 2.39
-7 -2 11 11.57 2.04
-7 -2 10 134.78 9.58
-7 -2 10 110.11 8.13
-7 -2 10 112.27 9.02
-7 -2 10 148.84 8.55
-7 -2 9 16.03 2.88
-7 -2 9 15.37 3.58
-7 -2 9 18.92 3.51
-7 -2 9 13.97 3.52
-7 -2 9 13.17 2.74
-7 -2 8 637.58 20.75
-7 -2 8 554.47 23.97
-7 -2 8 648.75 21.54
-7 -2 8 623.83 25.98
-7 -2 8 533.48 22.1
-7 -2 7 1.46 0.9
-7 -2 7 1.27 1.89
-7 -2 7 1.38 1.1
-7 -2 7 0.11 1.17
-7 -2 7 2.2 1.25
-7 -2 6 68.37 7.06
-7 -2 6 56.23 8.27
-7 -2 6 70.96 6.93
-7 -2 6 68.22 9.28
-7 -2 6 73.19 7.74
-7 -2 5 8.49 2.59
-7 -2 5 6.22 2.88
-7 -2 5 8.34 2.41
-7 -2 5 5.67 2.56
-7 -2 5 9.12 2.6
-7 -2 4 262.13 14.95
-7 -2 4 255.17 13.58
-7 -2 4 268.02 19.42
-7 -2 4 260.08 14.96
-7 -2 3 8.7 2.66
-7 -2 3 9.83 3.96
-7 -2 3 7.98 2.4
-7 -2 3 11.24 3.21
-7 -2 3 5.25 2.94
-7 -2 2 27.9 4.96
-7 -2 2 31.3 4.8
-7 -2 2 36.28 5.5
-7 -2 2 18.37 5.55
-7 -2 1 25 5.27
-7 -2 1 26.98 4.02
-7 -2 1 29.29 5.05
-7 -2 1 26.77 4.61
-7 -2 1 20.01 5.34
-7 -2 0 43.39 6.79
-7 -2 0 50.12 5.75
-7 -2 0 42.73 5.88
-7 -2 0 55.24 6.25
-7 -2 0 52.4 7.95
-7 -2 -1 10.64 3.7
-7 -2 -1 8.36 2.42
-7 -2 -1 7.97 2.65
-7 -2 -1 8.69 2.43
-7 -2 -2 3.92 3.07
-7 -2 -2 7.46 2.2
-7 -2 -2 8.44 3.03
-7 -2 -3 53.44 7.42
-7 -2 -3 56.84 5.66
-7 -2 -3 40.93 6.4
-7 -2 -3 43.75 6.19
-7 -2 -4 50.82 5.65
-7 -2 -4 50.79 4.9
-7 -2 -4 38.66 6.16
-7 -2 -4 41.49 5.65
-7 -2 -5 1.56 0.85
-7 -2 -5 3.28 1.21
-7 -2 -5 2.19 1.46
-7 -2 -5 2.03 0.87
7 2 5 3.14 1.29
-7 -2 -6 4.91 1.15
-7 -2 -6 4.52 1.35
7 2 6 6.1 1.42
7 2 7 55.47 3.62
-7 -3 11 12.63 2.18
-7 -3 10 -0.32 0.69
-7 -3 10 0.18 0.23
-7 -3 9 98.39 8.27
-7 -3 9 89.04 6.9
-7 -3 9 79.12 6.38
-7 -3 8 380.83 13.68
-7 -3 8 292.88 16.09
-7 -3 8 346.2 14.16
-7 -3 8 322.6 16.7
-7 -3 8 260.6 12.87
-7 -3 7 0.31 0.32
-7 -3 7 0.69 1.4
-7 -3 7 0.72 0.74
-7 -3 7 0.22 0.37
-7 -3 6 60.8 6.12
-7 -3 6 52.33 7.73
-7 -3 6 67.93 6.22
-7 -3 6 70.07 8.89
-7 -3 5 44.5 5.54
-7 -3 5 37.02 7.07
-7 -3 5 41.08 4.98
-7 -3 5 44.5 7.15
-7 -3 4 64.03 6.88
-7 -3 4 51.52 9.61
-7 -3 4 75.71 6.93
-7 -3 4 73.92 9.69
-7 -3 3 0.54 0.97
-7 -3 3 1.61 2.62
-7 -3 3 0.69 0.91
-7 -3 3 1.72 2.01
-7 -3 2 195.96 13.02
-7 -3 2 186.65 11.4
-7 -3 1 19.33 4.16
-7 -3 1 21.48 4.02
-7 -3 1 26 6.95
-7 -3 0 3.48 2.24
-7 -3 0 1.57 0.65
-7 -3 0 1.28 0.51
-7 -3 0 2.59 1.88
-7 -3 -1 10.71 3.32
-7 -3 -1 9.11 2.27
-7 -3 -1 9.48 2.6
-7 -3 -1 7.49 2.18
7 3 1 9.04 2.36
-7 -3 -2 0.92 0.43
-7 -3 -2 0.4 0.76
-7 -3 -2 1.71 1.93
7 3 2 3.29 1.66
-7 -3 -3 119.97 9.52
-7 -3 -3 108.98 6.94
-7 -3 -3 87.75 8.2
7 3 3 97.4 6.86
-7 -3 -4 27.92 3.6
-7 -3 -4 28.41 3.2
7 3 4 18.42 2.54
-7 -3 -4 27.13 4.04
7 3 4 23.91 3.19
-7 -3 -5 319.83 9.94
-7 -3 -5 333.57 10
7 3 5 335.24 10.73
-7 -3 -6 42.08 3.07
7 3 6 48.05 3.29
-7 -4 10 23.31 2.78
-7 -4 9 40.96 4.53
-7 -4 9 30.02 3.21
-7 -4 8 49.33 5.62
-7 -4 8 42.58 4.05
-7 -4 8 50.83 5.71
-7 -4 8 46.68 4.63
-7 -4 7 37.77 5.34
-7 -4 7 44.92 4.4
-7 -4 7 35.07 5.12
-7 -4 7 40.08 4.67
7 4 -7 33.72 3.63
-7 -4 6 142.69 8.26
-7 -4 6 142.32 11.47
-7 -4 6 148.65 11.62
-7 -4 6 174.06 10.57
-7 -4 5 5.44 1.98
-7 -4 5 4.56 2.67
-7 -4 5 35.34 4.32
-7 -4 5 10.95 4.02
-7 -4 5 45.1 5.76
-7 -4 4 113.82 8.23
-7 -4 4 107.28 7.52
-7 -4 4 123.24 11.48
-7 -4 3 35.63 4.8
-7 -4 3 37.69 6.29
-7 -4 3 42.81 4.82
-7 -4 3 34.89 6.39
7 4 -3 34.37 3.8
-7 -4 2 92.12 8.06
-7 -4 2 108.89 8
-7 -4 2 75.89 10.36
-7 -4 1 179.62 11.43
-7 -4 1 178.85 10.18
-7 -4 1 182.47 15.23
-7 -4 0 402.84 15.68
-7 -4 0 424.28 19.07
-7 -4 -1 30.37 4.86
-7 -4 -1 43.25 5.08
-7 -4 -1 39 4.69
-7 -4 -2 10.09 2.84
-7 -4 -2 12.95 2.88
7 4 2 8.57 1.75
-7 -4 -3 6.75 1.67
-7 -4 -3 4.56 1.77
7 4 3 5.25 1.27
-7 -4 -4 1.99 0.81
-7 -4 -4 2.06 0.79
7 4 4 2.42 0.87
7 4 4 2.09 0.79
-7 -5 8 148.54 7.67
-7 -5 7 165.55 9.06
-7 -5 7 169.2 9.17
-7 -5 7 135.88 6.67
7 5 -7 129.64 5.92
-7 -5 6 49.35 5.39
-7 -5 6 48.25 5.52
-7 -5 6 42.16 4.05
7 5 -6 44.1 3.95
-7 -5 5 12 2.82
-7 -5 5 11.73 2.85
-7 -5 5 12.51 2.32
-7 -5 4 20.78 2.78
-7 -5 4 21.22 3.86
-7 -5 4 22.87 2.7
-7 -5 4 28.26 4.69
-7 -5 3 1.89 0.88
-7 -5 3 1.87 1.06
-7 -5 3 1.98 0.74
-7 -5 3 0.84 0.93
7 5 -3 -0.85 0.74
-7 -5 2 40.63 4.35
-7 -5 2 43.55 3.93
-7 -5 2 38.5 5.84
7 5 -2 43.78 3.84
-7 -5 1 12.3 2.41
-7 -5 1 14.58 2.29
-7 -5 1 13.83 3.1
7 5 -1 15.45 2.49
-7 -5 0 58.54 5.39
-7 -5 0 55.47 4.43
-7 -5 0 62.88 5.57
7 5 0 64.75 5
-7 -5 -1 73.98 5.88
-7 -5 -1 76.78 5.02
-7 -5 -2 193.98 8.34
7 5 2 189.7 7.33
7 6 -4 11.11 1.75
-7 -6 3 10.11 1.97
7 6 -3 8.67 1.55
-8 9 5 46.59 4.24
-8 9 4 80.09 6.12
-8 9 4 77.42 6.16
-8 9 3 212.63 11.57
-8 9 3 190.78 9.63
-8 9 2 100.91 7.18
-8 9 2 106.21 8.7
-8 9 2 119.52 7.09
-8 9 2 104.44 6.98
-8 9 1 383.02 13.37
-8 9 1 370.73 14.77
-8 9 1 366.67 11.75
-8 9 0 50.06 4.39
-8 9 0 44.19 4.43
-8 9 0 41.29 4.8
-8 9 -1 82.46 4.98
-8 9 -1 95.51 6.06
-8 8 7 74.75 5.1
-8 8 7 70.95 5.04
-8 8 6 214.35 10.11
-8 8 6 220.27 9.62
-8 8 5 30.61 4.77
-8 8 5 52.68 7.27
-8 8 4 58.67 6.06
-8 8 4 74.57 7.9
-8 8 4 84.26 8.4
-8 8 4 76.23 6.33
-8 8 4 86.77 6.2
-8 8 3 171.8 13.26
-8 8 3 160.78 14.36
-8 8 3 182.26 11.41
-8 8 2 14.33 3.37
-8 8 2 18.08 3.49
-8 8 2 14.66 3.44
-8 8 2 8.43 3.99
-8 8 1 372.7 16.58
-8 8 1 365.49 19.34
-8 8 1 353.69 14.34
-8 8 0 27.9 4.56
-8 8 0 33.35 4.14
-8 8 0 23.49 5.56
-8 8 0 20.55 4.07
-8 8 -1 160.21 8.96
-8 8 -1 140.24 7.14
-8 8 -1 144.81 9.08
-8 8 -1 147.68 7.88
-8 8 -2 51.43 5.08
-8 8 -2 51.51 4.82
-8 8 -2 22.7 2.93
-8 8 -2 57.72 4.43
-8 8 -2 32.02 4.31
-8 8 -3 8.01 1.87
-8 8 -3 6.8 1.79
-8 8 -3 5.25 1.42
-8 7 9 72.35 5.11
-8 7 8 5.21 1.76
-8 7 7 61.75 5.45
-8 7 7 44.82 4.94
-8 7 7 52.53 5.41
-8 7 6 98.77 8.43
-8 7 6 77.01 8.04
-8 7 6 102.42 7.55
-8 7 5 2.4 1.61
-8 7 5 0.36 1.06
-8 7 5 3.09 1.38
-8 7 4 102.56 11.03
-8 7 4 133.43 13.27
-8 7 4 110.3 9.33
-8 7 3 -0.5 0.85
-8 7 3 -2.65 2.12
-8 7 3 0.49 0.74
-8 7 3 0.71 1.36
-8 7 3 1.55 2.08
-8 7 2 11.23 2.55
-8 7 2 7.19 2.92
-8 7 2 10.87 3.23
-8 7 2 9.52 3.26
-8 7 2 9.06 4.53
-8 7 1 3.19 1.68
-8 7 1 1.26 1.02
-8 7 1 -0.21 0.64
-8 7 1 0.51 1.69
-8 7 1 2.23 2.32
-8 7 0 288.44 15.17
-8 7 0 284.35 12.99
-8 7 0 303.62 17.39
-8 7 0 273.71 13.61
-8 7 0 326.46 22.62
-8 7 -1 14.27 3.05
-8 7 -1 11.86 2.66
-8 7 -1 11.86 2.56
-8 7 -1 13.23 3.38
-8 7 -1 12.85 2.96
-8 7 -2 6.36 1.9
-8 7 -2 4.31 1.77
-8 7 -2 5.58 1.67
-8 7 -2 5.48 1.46
-8 7 -2 5.41 2.09
-8 7 -3 2.77 1.13
-8 7 -3 3 1.66
-8 7 -3 1.95 0.88
-8 7 -3 2.02 1
8 -7 3 1.97 0.84
-8 7 -4 142.88 6.99
-8 7 -4 150.37 8.53
-8 7 -5 231.91 8.38
-8 6 10 87.48 5.9
-8 6 9 224.47 11.69
-8 6 8 8.27 2.39
-8 6 7 14.38 3.1
-8 6 7 6.7 3
-8 6 7 7.94 2.13
-8 6 7 14.45 3.08
-8 6 6 100.52 9.61
-8 6 6 76.18 8.58
-8 6 6 106.03 8.36
-8 6 5 1.17 0.69
-8 6 5 1.11 0.83
-8 6 4 13.9 2.8
-8 6 4 13.09 3.61
-8 6 4 17.44 4.84
-8 6 4 14.31 3.64
-8 6 4 15.34 4.44
-8 6 3 18.49 4.83
-8 6 3 30.95 4.1
-8 6 3 33.67 6.12
-8 6 3 37.17 6.48
-8 6 3 18.13 5.39
-8 6 3 27.3 4.06
-8 6 2 0.38 0.25
-8 6 2 3.54 2.02
-8 6 2 1.42 1.33
-8 6 2 0.31 1.28
-8 6 2 1.48 1.87
-8 6 2 -0.05 1.8
-8 6 1 57.07 7.5
-8 6 1 49 5.82
-8 6 1 66.67 9.79
-8 6 1 53.67 7.46
-8 6 1 40.99 8.06
-8 6 1 51.13 5.56
-8 6 0 24.31 4.7
-8 6 0 21.69 4.06
-8 6 0 18.69 3.81
-8 6 0 19.07 5.01
-8 6 0 26.45 5.53
-8 6 -1 16.91 3.44
-8 6 -1 11.19 3.05
-8 6 -1 11.76 2.7
-8 6 -1 15.85 4.24
-8 6 -1 12.96 3.44
-8 6 -2 138.58 9.73
-8 6 -2 114.26 10.75
-8 6 -2 135.77 9.77
-8 6 -2 141.63 9.56
-8 6 -2 156.9 11.1
-8 6 -3 76.3 6.45
-8 6 -3 62.5 8.73
-8 6 -3 74.72 6.53
-8 6 -3 71.55 6.47
-8 6 -4 44.41 4.38
-8 6 -4 51.63 5.93
-8 6 -5 204.29 8.1
-8 6 -5 223.17 9.9
-8 6 -6 2.94 0.84
-8 5 11 33.6 3.39
-8 5 10 82.73 6.84
-8 5 9 63.88 7.54
-8 5 8 9.61 2.78
-8 5 7 306.31 15.1
-8 5 7 323.92 16.62
-8 5 7 321.12 15.88
-8 5 6 81.76 7.89
-8 5 6 82.97 9.15
-8 5 6 71.38 8.4
-8 5 6 77.66 7.45
-8 5 5 7.31 2.79
-8 5 5 6 1.74
-8 5 5 4.42 2.19
-8 5 5 10.28 3.44
-8 5 4 23.96 5.16
-8 5 4 18.5 4.11
-8 5 4 22.53 3.57
-8 5 4 26.19 5.8
-8 5 4 26.12 5.41
-8 5 4 30.88 6.88
-8 5 4 23.64 4.03
-8 5 3 542.34 27.21
-8 5 3 804.9 24.25
-8 5 3 617.76 33.86
-8 5 3 914.42 33.06
-8 5 3 839.03 32.71
-8 5 3 774.97 23.38
-8 5 2 106.52 11.82
-8 5 2 117.38 9.48
-8 5 2 120.72 15.22
-8 5 2 116.93 10.82
-8 5 2 106.83 12.14
-8 5 1 16.71 3.3
-8 5 1 11.72 3.45
-8 5 1 10.49 2.96
-8 5 1 10.04 3.07
-8 5 1 12.91 4.47
-8 5 1 12.03 4.23
-8 5 0 78.6 8.64
-8 5 0 71.01 7.9
-8 5 0 82.04 9.81
-8 5 0 74.85 7.89
-8 5 0 91.26 11.54
-8 5 -1 9.75 2.91
-8 5 -1 8.39 2.51
-8 5 -1 9.32 2.81
-8 5 -1 8.09 3.08
-8 5 -1 6.43 2.2
-8 5 -2 513.94 20.04
-8 5 -2 498.78 20.17
-8 5 -2 528.34 20.29
-8 5 -2 544.88 21.81
-8 5 -3 44.13 5.16
-8 5 -3 34.97 6.45
-8 5 -3 50.1 5.8
-8 5 -4 234.75 11.01
-8 5 -4 266.05 14.52
-8 5 -5 0.83 0.7
-8 5 -5 0.27 0.66
-8 5 -6 3.7 0.9
-8 5 -6 3.55 1.02
-8 4 11 29.11 3.2
-8 4 11 25.25 3.32
-8 4 10 268.79 12.96
-8 4 10 206.85 12.44
-8 4 9 75.19 6.97
-8 4 9 63.53 7.45
-8 4 9 49.06 7.71
-8 4 8 192.98 11.93
-8 4 8 179.23 12.65
-8 4 8 209.88 14.13
-8 4 7 59.62 8.17
-8 4 7 62.15 7.22
-8 4 7 73.47 8.07
-8 4 7 54.86 7.24
-8 4 7 57.24 6.82
-8 4 6 38.46 7.5
-8 4 6 46.73 6.61
-8 4 6 36.82 4.58
-8 4 6 45.95 6.19
-8 4 6 40.05 7.07
-8 4 6 45.93 6.76
-8 4 6 41.81 5.62
-8 4 5 35.32 6.23
-8 4 5 39.98 5.54
-8 4 5 40.57 4.96
-8 4 5 39.37 5.65
-8 4 5 23.88 5.2
-8 4 5 36.58 6.5
-8 4 5 39.94 5.18
-8 4 4 129.59 11.8
-8 4 4 142.83 9.85
-8 4 4 137.87 9.79
-8 4 4 142.16 10.99
-8 4 4 130.17 14.18
-8 4 4 115.28 12.02
-8 4 4 129.96 9.26
-8 4 3 597.11 25.03
-8 4 3 396.69 21.8
-8 4 3 480.14 19.26
-8 4 3 416.26 27.32
-8 4 3 551.18 25.72
-8 4 3 459.92 17.7
-8 4 2 145.35 14.21
-8 4 2 221.62 14.02
-8 4 2 163.8 18.01
-8 4 2 220.65 15.77
-8 4 2 243.41 19.17
-8 4 2 256.38 13.34
-8 4 1 59.47 8.51
-8 4 1 85.86 8.67
-8 4 1 75.3 10.55
-8 4 1 73.86 8.84
-8 4 1 55.97 9.79
-8 4 1 89.38 7.68
-8 4 0 12.01 3.66
-8 4 0 11.18 3.83
-8 4 0 9.74 3.64
-8 4 0 11.42 4.1
-8 4 0 11.74 4.65
-8 4 -1 107.94 9.61
-8 4 -1 104.68 10.35
-8 4 -1 111.92 10.67
-8 4 -1 109.3 9.81
-8 4 -2 70.09 7.33
-8 4 -2 57.88 8.22
-8 4 -2 61.55 7.18
-8 4 -2 77.76 8.05
-8 4 -3 102.82 8.42
-8 4 -3 87.83 10.07
-8 4 -3 102.43 9.35
-8 4 -4 37.86 4.57
-8 4 -4 36.68 5.16
-8 4 -5 99.16 6.56
-8 4 -5 94.39 6.8
-8 4 -6 69.75 4.47
-8 4 -6 58.17 4.11
8 -4 7 52.98 3.38
-8 3 12 0.46 0.2
-8 3 11 17.61 3.12
-8 3 11 21.48 3.9
-8 3 11 27.48 3.26
-8 3 10 0.8 0.27
-8 3 10 1.07 0.84
-8 3 10 1.9 0.95
-8 3 9 5.07 2.12
-8 3 9 4.91 2.44
-8 3 9 8.73 3.96
-8 3 8 220.83 14.6
-8 3 8 193.98 12.46
-8 3 8 214.06 15.15
-8 3 8 199.92 13.09
-8 3 7 88.97 9.74
-8 3 7 74.99 8.45
-8 3 7 74.64 8.15
-8 3 7 76.49 6.86
-8 3 7 85.51 9
-8 3 7 69.35 8.83
-8 3 7 75.05 7.47
-8 3 6 122.13 10.96
-8 3 6 99.09 10.05
-8 3 6 124.36 10.06
-8 3 6 102.78 8.29
-8 3 6 111.56 10.45
-8 3 6 93.86 11.05
-8 3 6 104.56 8.5
-8 3 5 254.87 15.73
-8 3 5 244.91 14.78
-8 3 5 274.08 14.38
-8 3 5 245.48 12.92
-8 3 5 250.32 15.01
-8 3 5 234.13 18.11
-8 3 5 215.67 15.24
-8 3 5 202.84 11.57
-8 3 4 148.78 12.9
-8 3 4 174.96 11.09
-8 3 4 133.67 11.1
-8 3 4 209.06 13.73
-8 3 4 167.29 17.58
-8 3 4 175.31 15.89
-8 3 4 146.56 10.14
-8 3 3 240.33 15.05
-8 3 3 226.85 13.43
-8 3 3 199.84 18.66
-8 3 3 220.41 16.21
-8 3 3 201.4 11.29
-8 3 2 82.11 9.41
-8 3 2 61.24 9.11
-8 3 2 88.85 9.97
-8 3 2 61.48 12.03
-8 3 2 88.14 10.67
-8 3 2 113.58 8.28
-8 3 1 438.86 20.06
-8 3 1 396.57 20.77
-8 3 1 407.64 19.44
-8 3 1 452.99 25.7
-8 3 1 441.24 21.66
-8 3 1 388.14 15.91
-8 3 0 68.2 8.74
-8 3 0 101.99 10.46
-8 3 0 57.61 9.91
-8 3 0 105.16 11.12
-8 3 -1 126.19 10.44
-8 3 -1 112.54 10.86
-8 3 -1 124.22 11.55
-8 3 -1 127.46 11.35
-8 3 -2 82.55 7.88
-8 3 -2 71.25 8.72
-8 3 -2 85.48 8.8
-8 3 -2 92.04 9.45
-8 3 -3 34.5 5.64
-8 3 -3 36.97 5.97
-8 3 -4 24.41 3.61
-8 3 -4 25.76 3.86
-8 3 -5 2.69 1.1
-8 3 -5 0.43 0.35
-8 3 -6 91.9 5.26
-8 3 -6 69.76 4.04
8 -3 7 2.68 0.76
-8 2 12 0.27 0.36
-8 2 12 0.76 0.73
-8 2 11 27.63 3.47
-8 2 11 17.78 3.59
-8 2 10 153.59 9.52
-8 2 10 84.74 10.41
-8 2 9 5.98 2.03
-8 2 9 6.57 2.55
-8 2 9 9.17 3.36
-8 2 8 101.47 9.72
-8 2 8 95.5 8.97
-8 2 8 99.45 9.06
-8 2 8 121.55 11.86
-8 2 7 111.26 10.08
-8 2 7 72.9 8.21
-8 2 7 101.28 8.97
-8 2 7 104.49 8.51
-8 2 7 101.56 10.15
-8 2 7 96.74 10.14
-8 2 6 461.47 20.62
-8 2 6 347.12 19.44
-8 2 6 436.89 18.45
-8 2 6 406.1 16.96
-8 2 6 355.65 18.79
-8 2 6 392.95 22.47
-8 2 5 93.89 9.15
-8 2 5 69.14 8.24
-8 2 5 71.89 7.17
-8 2 5 88.41 7.9
-8 2 5 78.21 8.89
-8 2 5 73.09 10.04
-8 2 4 22.86 4.6
-8 2 4 21.9 4.03
-8 2 4 21.89 3.81
-8 2 4 23.16 4.23
-8 2 4 27.44 4.9
-8 2 4 14.84 3.97
-8 2 4 15.2 4.13
-8 2 3 348.11 18.02
-8 2 3 334.15 15.35
-8 2 3 340.87 16.71
-8 2 3 326.04 23.86
-8 2 3 314.73 19.8
-8 2 2 73.83 8.32
-8 2 2 70.35 8.01
-8 2 2 88.92 8.05
-8 2 2 74.72 8.01
-8 2 2 78.33 11.35
-8 2 2 81.81 9.91
-8 2 1 1.12 0.36
-8 2 1 1.4 0.71
-8 2 1 5.33 1.83
-8 2 1 4.48 2.09
-8 2 1 6.87 2.92
-8 2 1 6 2.77
-8 2 0 38.54 5.86
-8 2 0 47.7 6.52
-8 2 0 36.56 4.95
-8 2 0 37.74 5.93
-8 2 0 46.22 7.71
-8 2 0 50.85 7.21
-8 2 -1 24.66 4.47
-8 2 -1 21.99 4.85
-8 2 -1 22.24 4.98
-8 2 -1 26.32 5.16
-8 2 -2 141.96 10.01
-8 2 -2 123.71 10.94
-8 2 -3 114.44 8.28
-8 2 -3 88.13 7.85
-8 2 -4 30.98 3.99
-8 2 -4 24.89 3.54
-8 2 -5 15.4 2.48
-8 2 -5 10.61 1.84
-8 2 -6 40.49 3.38
8 -2 6 33.72 3.14
8 -2 7 12.39 1.51
-8 1 12 164.19 6.89
-8 1 12 155.1 8.33
-8 1 11 161.69 8.48
-8 1 11 112.76 9.07
-8 1 10 16.69 3.26
-8 1 10 12.93 2.51
-8 1 10 11.57 3.61
-8 1 9 1.08 0.45
-8 1 9 2.03 0.32
-8 1 9 -0.55 1.22
-8 1 9 1.67 1.77
-8 1 8 8.86 2.57
-8 1 8 12.42 3.2
-8 1 8 9.96 3.05
-8 1 8 11.96 3.49
-8 1 7 166.75 11.85
-8 1 7 110.37 10.34
-8 1 7 144.58 10.39
-8 1 7 160.89 11.02
-8 1 7 143.61 12.1
-8 1 7 131.41 12.4
-8 1 6 85.61 8.6
-8 1 6 56.07 7.83
-8 1 6 81.61 7.73
-8 1 6 81.5 7.74
-8 1 6 74.39 8.22
-8 1 6 75.85 10.04
-8 1 5 7.18 2.35
-8 1 5 8.59 2.9
-8 1 5 6.36 2.45
-8 1 5 9.18 2.59
-8 1 5 13.05 3.27
-8 1 5 8.26 4.12
-8 1 4 167.87 12.19
-8 1 4 156.51 11.91
-8 1 4 151.27 10.4
-8 1 4 176.69 11.75
-8 1 4 131.69 14.37
-8 1 4 165.54 12.12
-8 1 4 152.64 15.95
-8 1 4 135.32 12.32
-8 1 3 9.56 2.56
-8 1 3 12.82 3
-8 1 3 16.65 3.61
-8 1 3 14.42 4.8
-8 1 3 15.67 3.56
-8 1 3 6.96 3.19
-8 1 3 12.05 4.9
-8 1 2 157.1 12.09
-8 1 2 160.4 10.96
-8 1 2 146.26 10.34
-8 1 2 165.37 11.63
-8 1 2 162.44 15.36
-8 1 2 183.08 17.68
-8 1 2 175.75 15.05
-8 1 1 3.61 1.46
-8 1 1 4.16 2.1
-8 1 1 2.81 1.35
-8 1 1 5.93 2.19
-8 1 1 9.17 3.68
-8 1 1 5.09 3.41
-8 1 0 308.36 17.58
-8 1 0 303.95 15.27
-8 1 0 308.01 16.41
-8 1 -1 20.58 4.26
-8 1 -1 29.01 4.48
-8 1 -1 23.38 4.16
-8 1 -1 20.03 3.76
-8 1 -1 33.83 6.37
-8 1 -2 46.07 5.41
-8 1 -2 28.54 4.74
-8 1 -2 36.01 4.97
-8 1 -3 679.75 20.06
-8 1 -3 634.81 19.05
8 -1 4 53.9 4.59
-8 1 -4 76.68 5.87
-8 1 -5 44.47 3.96
8 -1 5 37.69 3.41
-8 1 -6 21.76 2.34
8 -1 6 17.4 1.95
-8 0 12 3.14 0.82
-8 0 12 2.47 0.89
-8 0 11 2 0.7
-8 0 11 0.26 0.99
-8 0 10 28.77 3.96
-8 0 10 38.92 4.7
-8 0 10 26.79 4.83
-8 0 9 261.4 13.6
-8 0 9 279.57 14.23
-8 0 9 254.72 13.62
-8 0 9 251.36 16.54
-8 0 8 2.45 1.03
-8 0 8 4.13 2.14
-8 0 8 1.37 0.64
-8 0 8 3.78 2.27
-8 0 7 24.51 4.32
-8 0 7 20.93 4.37
-8 0 7 24.59 4.16
-8 0 7 30.56 5.2
-8 0 6 2.51 1.99
-8 0 6 1.56 1.45
-8 0 6 3.96 1.88
-8 0 6 5.64 2.66
-8 0 6 1.98 2.56
-8 0 6 3.54 2.63
-8 0 5 424.82 19.06
-8 0 5 436 17.75
-8 0 5 468.22 19.59
-8 0 5 389.48 23.92
-8 0 5 402.42 19.16
-8 0 4 45.76 6.19
-8 0 4 34.92 5.74
-8 0 4 42.99 5.5
-8 0 4 49.08 6.19
-8 0 4 41.72 6.08
-8 0 4 34.54 7.25
-8 0 4 45.1 9.33
-8 0 3 40.15 5.83
-8 0 3 47.19 6.01
-8 0 3 46.78 6.14
-8 0 3 34.89 8.24
-8 0 3 44.53 9.61
-8 0 2 3.92 2.13
-8 0 2 4.53 2.09
-8 0 2 4.89 2.04
-8 0 2 3.01 2.85
-8 0 2 9.37 3.42
-8 0 1 30.56 5.7
-8 0 1 28.24 4.3
-8 0 1 36.76 6.76
-8 0 1 39.5 5.56
-8 0 1 36.97 6.61
-8 0 0 92.78 9.9
-8 0 0 124.83 9.4
-8 0 0 103.42 8.99
-8 0 0 110.38 9.18
-8 0 -1 6.8 2.71
-8 0 -1 8.26 2.28
-8 0 -1 5 2.01
-8 0 -1 5.99 2.19
-8 0 -2 22.71 3.88
-8 0 -2 27.09 3.84
-8 0 -2 17.39 3.92
-8 0 -2 23.51 3.35
-8 0 -3 2.52 0.97
-8 0 -3 0.76 0.6
-8 0 -4 28.8 3.37
-8 0 -4 22.04 3.17
-8 0 -5 16.64 2.21
-8 0 -6 71.64 3.88
8 0 6 68.45 4.1
-8 -1 11 35.04 3.52
-8 -1 11 35.43 3.72
-8 -1 10 54.75 5.23
-8 -1 10 44.74 5.21
-8 -1 9 37.39 4.49
-8 -1 9 43.72 5.24
-8 -1 9 38.03 4.96
-8 -1 9 35.31 5.43
-8 -1 8 100.36 8.94
-8 -1 8 97.12 7.83
-8 -1 8 96.34 8.99
-8 -1 7 7.39 2.57
-8 -1 7 10.54 3.05
-8 -1 7 8.72 2.48
-8 -1 7 8.3 3.4
-8 -1 7 11.09 3.01
-8 -1 6 316.38 15.41
-8 -1 6 343.24 19.83
-8 -1 6 273.18 14.07
-8 -1 6 316.16 21.01
-8 -1 6 305.69 16.11
-8 -1 5 11.19 3.41
-8 -1 5 17.56 5.25
-8 -1 5 16.19 3.32
-8 -1 5 15.68 4.22
-8 -1 5 17.29 5.57
-8 -1 5 22.91 4.26
-8 -1 4 115.01 9.71
-8 -1 4 107.99 10.47
-8 -1 4 107.61 8.48
-8 -1 4 135.47 10.61
-8 -1 4 98.36 12.02
-8 -1 3 172.08 12.29
-8 -1 3 167.44 10.8
-8 -1 3 186.6 12.2
-8 -1 2 48.67 7.16
-8 -1 2 53.72 6.41
-8 -1 2 54.03 6.56
-8 -1 1 35.22 5.67
-8 -1 1 39.4 5.35
-8 -1 1 43.61 5.52
-8 -1 1 49.94 7.32
-8 -1 0 353.64 19.9
-8 -1 0 406.04 15.69
-8 -1 0 438.83 18.57
-8 -1 0 486.09 17.8
-8 -1 -1 16.34 4.43
-8 -1 -1 18.93 3.19
-8 -1 -1 14.75 3.44
-8 -1 -2 144.89 10.15
-8 -1 -2 143.94 8.25
-8 -1 -3 25.34 3.29
-8 -1 -3 25.06 3.24
-8 -1 -3 17.06 3.69
-8 -1 -4 35.07 3.34
-8 -1 -4 32.08 3.68
-8 -1 -5 72.66 4.12
8 1 5 68.28 4.26
-8 -2 10 15.4 2.43
-8 -2 9 2.43 0.95
-8 -2 9 2.83 1.4
-8 -2 9 5 1.53
-8 -2 8 136.1 7.98
-8 -2 8 127.15 9.09
-8 -2 8 149.21 8.81
-8 -2 7 159.74 11.5
-8 -2 7 181.75 10.08
-8 -2 7 160.05 12.17
-8 -2 6 74.21 6.93
-8 -2 6 112.14 10.78
-8 -2 6 105.13 7.6
-8 -2 6 99.17 10.92
-8 -2 5 315.05 14.69
-8 -2 5 323.33 13.74
-8 -2 5 338.28 19.78
-8 -2 4 55.64 6.18
-8 -2 4 51.02 6.89
-8 -2 4 53.79 5.62
-8 -2 4 47.21 7.84
-8 -2 3 58.74 6.68
-8 -2 3 60.08 6.02
-8 -2 3 46.7 8.83
-8 -2 2 40.73 5.89
-8 -2 2 41.17 5.05
-8 -2 2 24.55 6.23
-8 -2 1 249.25 14.83
-8 -2 1 275.35 13.43
-8 -2 0 147.12 12.05
-8 -2 0 149.86 8.04
-8 -2 0 183.84 10.96
-8 -2 0 192.11 11.09
-8 -2 -1 151.75 13.14
-8 -2 -1 167.18 8.46
-8 -2 -1 175.82 10.78
8 2 1 144.94 7.38
-8 -2 -2 22.67 3.73
-8 -2 -2 30.28 3.41
-8 -2 -2 34.3 4.84
8 2 2 34.31 3.65
-8 -2 -3 4.79 1.27
-8 -2 -3 5.57 1.23
-8 -2 -3 7.75 1.95
8 2 3 5.07 1.17
-8 -2 -4 15.48 1.82
-8 -2 -4 17.04 2.13
8 2 4 13.99 1.76
-8 -3 9 38.87 3.58
-8 -3 8 103.89 6.91
-8 -3 8 83.54 5.56
-8 -3 7 38.66 3.69
-8 -3 7 36.69 4.68
-8 -3 7 58.61 5.07
-8 -3 7 50.79 5.82
-8 -3 6 47.59 4.49
-8 -3 6 31.38 4.67
-8 -3 6 43.56 4.3
-8 -3 6 49.77 6.2
-8 -3 5 0.49 0.87
-8 -3 5 0.9 1.06
-8 -3 5 4.22 1.85
-8 -3 5 4.28 2.24
-8 -3 4 66.33 5.88
-8 -3 4 76.19 6
-8 -3 4 64.98 8.18
-8 -3 3 6.22 1.95
-8 -3 3 6.37 1.96
-8 -3 3 5.19 1.71
-8 -3 2 11.23 2.73
-8 -3 2 6.8 1.86
-8 -3 1 57.03 6.16
-8 -3 1 59.77 5.41
-8 -3 1 60.54 6.5
-8 -3 0 10.11 2.86
-8 -3 0 15.79 2.82
-8 -3 -1 271.89 12.97
-8 -3 -1 263.45 11.46
-8 -3 -2 76.65 5.26
-8 -3 -2 66.77 5.21
-8 -3 -3 55.05 3.62
8 3 3 46.22 3.05
-8 -4 6 21.34 3.35
-8 -4 5 7.89 1.5
-8 -4 5 8.62 2.35
8 4 -5 5.52 1.17
-8 -4 4 68.89 4.82
-8 -4 4 66.83 4.5
-8 -4 4 60.73 6.35
-8 -4 3 51.46 4.41
-8 -4 3 57.14 4.23
-8 -4 3 47.72 5.83
-8 -4 2 4.02 1.41
-8 -4 2 4.43 1.27
-8 -4 2 6.73 1.83
-8 -4 1 1.13 0.68
-8 -4 1 1.38 0.54
8 4 -1 2.29 0.77
-8 -4 0 10.45 2.06
-8 -4 0 11.55 1.79
-9 8 3 87.05 6.78
-9 8 3 107.95 6.81
-9 8 2 16.71 2.51
-9 8 2 17.07 3.2
-9 7 7 4.33 1.16
-9 7 6 126.34 7.15
-9 7 5 6.66 1.61
-9 7 5 5.1 1.59
-9 7 5 7.07 1.94
-9 7 4 243.6 13.86
-9 7 4 187 13.48
-9 7 3 209.92 10.31
-9 7 3 203.62 15.02
-9 7 2 231.34 15.77
-9 7 2 250.13 12.36
-9 7 1 391.32 15.37
-9 7 1 422.71 17.6
-9 7 1 388.06 14.21
-9 7 0 3.95 1.21
-9 7 0 3.34 1.02
-9 7 0 6.11 1.49
-9 7 0 3.78 1.36
-9 7 -1 153.61 7.25
-9 7 -1 151.89 7.28
-9 7 -2 0.54 0.34
-9 6 8 78.79 5.57
-9 6 7 133.77 8.4
-9 6 6 39.42 4.83
-9 6 6 29.34 3.82
-9 6 6 41.17 4.55
-9 6 5 45.75 5.92
-9 6 5 54.82 5.18
-9 6 4 85.32 9.31
-9 6 4 75.52 9.24
-9 6 4 100.04 6.93
-9 6 3 2.53 1.39
-9 6 3 7.82 1.91
-9 6 3 8.25 3.27
-9 6 3 4.78 3.18
-9 6 2 134.64 7.69
-9 6 2 171.5 14.73
-9 6 2 164.54 11.09
-9 6 1 3.5 1.6
-9 6 1 3.61 1.86
-9 6 1 5.78 2.43
-9 6 1 2.63 1.82
-9 6 0 1.45 0.37
-9 6 0 1.64 1.33
-9 6 0 3.67 1.64
-9 6 0 0.71 0.78
-9 6 -1 3.58 1.23
-9 6 -1 4.13 1.72
-9 6 -1 3.23 1.32
-9 6 -1 2.9 1
-9 6 -2 0.62 0.48
-9 6 -2 1.7 1.23
-9 6 -3 69.79 4.12
-9 6 -3 71.83 4.93
-9 5 9 36.78 3.45
-9 5 8 54.96 5.94
-9 5 7 275.11 12.62
-9 5 7 293.38 14.01
-9 5 6 63.61 6.88
-9 5 6 58.58 5.69
-9 5 6 63.25 6
-9 5 5 11.71 2.57
-9 5 5 7.54 1.67
-9 5 5 6.56 1.89
-9 5 4 29.02 3.64
-9 5 4 25.37 5.37
-9 5 4 38.77 4.92
-9 5 3 114.39 8.7
-9 5 3 145.44 8.72
-9 5 3 105.72 12.61
-9 5 3 151.92 12.37
-9 5 3 143.81 8.52
-9 5 2 331.52 14.02
-9 5 2 379.8 22.87
-9 5 2 379.26 18.13
-9 5 1 108.65 9.14
-9 5 1 101.59 8.05
-9 5 1 112.03 10.52
-9 5 1 114.06 9.19
-9 5 0 8.51 2.22
-9 5 0 7.64 2.31
-9 5 0 8.05 2.47
-9 5 0 8.2 2.42
-9 5 -1 51.97 5.02
-9 5 -1 53.09 5.58
-9 5 -1 64.14 6.22
-9 5 -2 6.16 1.49
-9 5 -2 7.31 2.8
-9 5 -2 7.51 1.81
-9 5 -3 27.86 2.91
-9 5 -3 33.22 3.79
-9 5 -4 19.5 2.01
-9 5 -4 16.78 1.97
-9 4 9 1.36 0.76
-9 4 8 46.16 5.41
-9 4 7 28.52 4.41
-9 4 7 26.39 4.02
-9 4 6 26.04 4.41
-9 4 6 30 3.62
-9 4 6 29.71 5
-9 4 6 30.95 4.13
-9 4 5 2.82 1.28
-9 4 5 3.43 1.63
-9 4 5 2.25 1.13
-9 4 5 2.79 1.87
-9 4 5 0.45 0.98
-9 4 4 66.33 7.59
-9 4 4 75.13 6.44
-9 4 4 67.62 9.19
-9 4 4 46.86 6.89
-9 4 4 75.65 6.21
-9 4 3 1.97 1.83
-9 4 3 3.29 1.09
-9 4 3 2.45 1.91
-9 4 3 0.03 0.17
-9 4 2 15.67 3.43
-9 4 2 17.9 3.26
-9 4 2 24.95 4.93
-9 4 2 29.18 6.27
-9 4 1 -0.23 0.86
-9 4 1 0.75 0.83
-9 4 1 1.03 1.31
-9 4 1 2.14 1.31
-9 4 0 23.98 3.71
-9 4 0 22.37 4.06
-9 4 0 30.01 4.76
-9 4 0 24.21 4.51
-9 4 -1 93.93 7
-9 4 -1 87.65 7.65
-9 4 -1 99.51 8.37
-9 4 -2 230.09 9.98
-9 4 -2 201.45 11.87
-9 4 -2 221.71 10.46
-9 4 -3 79.02 5.13
-9 4 -3 77.59 5.71
-9 4 -4 66.16 3.95
-9 4 -4 57.28 3.68
-9 3 9 67.34 5.32
-9 3 9 75.79 7.39
-9 3 8 16.92 3.19
-9 3 8 72.17 8.13
-9 3 7 155.46 10.78
-9 3 7 133.59 9.1
-9 3 7 151.17 11.11
-9 3 6 21.05 3.66
-9 3 6 26.67 3.94
-9 3 6 23.75 4.93
-9 3 5 496.55 20.89
-9 3 5 442.56 17.04
-9 3 5 490.31 17
-9 3 5 446.63 22.96
-9 3 4 11.07 3.32
-9 3 4 9.16 2.5
-9 3 4 6.21 2.73
-9 3 4 8.17 3.19
-9 3 3 39.43 5.9
-9 3 3 46.23 5.51
-9 3 3 36.8 6.43
-9 3 3 31.42 6.82
-9 3 2 29.44 5.02
-9 3 2 19.56 3.51
-9 3 2 26.1 4.04
-9 3 2 35.59 6.01
-9 3 2 30.54 6.37
-9 3 1 28.63 4.73
-9 3 1 36.19 6.98
-9 3 1 44.64 7.06
-9 3 0 292.85 13.54
-9 3 0 322.62 17.13
-9 3 0 320.71 16.69
-9 3 -1 31.15 4.11
-9 3 -1 25.53 4.79
-9 3 -1 30.87 4.76
-9 3 -2 333.79 12.11
-9 3 -2 304.95 13.22
-9 3 -3 238.28 9.03
-9 3 -3 217.45 8.96
-9 3 -4 91.33 4.75
-9 2 10 175.99 7.5
-9 2 10 149.83 8.81
-9 2 9 62.75 5.17
-9 2 9 45.24 6.63
-9 2 8 5.29 1.94
-9 2 8 6.69 1.9
-9 2 7 140.25 10.29
-9 2 7 105.8 8.36
-9 2 7 114.44 8.59
-9 2 7 158.89 12.28
-9 2 6 130.4 9.92
-9 2 6 104.12 8.37
-9 2 6 118.73 8.61
-9 2 6 130.53 8.96
-9 2 6 124.23 11.4
-9 2 5 20 3.77
-9 2 5 20.27 3.47
-9 2 5 23.94 3.81
-9 2 5 20.34 4.96
-9 2 4 496.38 20.29
-9 2 4 429.81 16.43
-9 2 4 513.37 18.56
-9 2 4 396.39 23.79
-9 2 3 251.79 14.38
-9 2 3 261.35 12.48
-9 2 3 285.92 14
-9 2 3 247.11 20.02
-9 2 2 181.58 12.25
-9 2 2 211.13 10.93
-9 2 2 221.81 12.38
-9 2 2 170.21 15.48
-9 2 1 7.44 2.27
-9 2 1 9.23 2.36
-9 2 1 8.88 2.51
-9 2 1 13.19 4.27
-9 2 0 39.56 4.64
-9 2 0 52.71 6.07
-9 2 0 64.6 7.81
-9 2 -1 82.09 6.21
-9 2 -1 81.69 7.1
-9 2 -2 3.37 1.23
-9 2 -2 2.9 1.23
-9 2 -3 40.59 3.55
-9 2 -3 37.04 3.09
-9 2 -4 88.82 4.46
-9 1 10 3.7 1.16
-9 1 10 7.31 2
-9 1 9 73.3 5.86
-9 1 9 78.86 5.65
-9 1 8 14.39 2.93
-9 1 8 13.09 2.58
-9 1 8 16.66 2.99
-9 1 8 19.24 4.17
-9 1 7 35.16 4.87
-9 1 7 26.45 4.14
-9 1 7 41.45 4.94
-9 1 7 50.53 6.64
-9 1 6 3.54 1.72
-9 1 6 2.43 1.44
-9 1 6 3.36 1.52
-9 1 5 178.73 11.88
-9 1 5 193.12 11.58
-9 1 5 212.42 12.27
-9 1 4 85.25 7.96
-9 1 4 66.16 6.15
-9 1 4 90.43 7.63
-9 1 3 27.41 4.56
-9 1 3 29.68 4.22
-9 1 3 30.6 4.47
-9 1 2 0.73 1.9
-9 1 2 2.14 1.82
-9 1 1 395.45 18.64
-9 1 1 347.26 12.95
-9 1 1 373.47 15.32
-9 1 1 394.06 16.15
-9 1 0 1.83 1.16
-9 1 0 0.48 0.43
-9 1 0 -1 0.77
-9 1 0 1.94 1.41
-9 1 -1 11.42 2.13
-9 1 -1 11.54 2.28
-9 1 -2 1.27 0.6
-9 1 -2 -0.13 0.41
-9 1 -3 26.28 2.64
-9 1 -4 95.46 4.18
-9 0 9 3.04 1.09
-9 0 9 2.68 0.9
-9 0 8 63.86 5.75
-9 0 8 58.38 5.16
-9 0 8 66.68 5.77
-9 0 7 217.24 11.31
-9 0 7 228.35 11.19
-9 0 6 35.56 4.61
-9 0 6 33.96 5.09
-9 0 6 35.32 4.41
-9 0 5 2.99 1.21
-9 0 5 4.4 1.45
-9 0 4 10.59 2.66
-9 0 4 10.5 2.3
-9 0 4 11.54 3.15
-9 0 3 28.44 4.36
-9 0 3 28.12 3.91
-9 0 3 36.46 4.9
-9 0 2 3.78 1.75
-9 0 2 7.3 2.09
-9 0 2 9.03 2.42
-9 0 1 25.17 4.6
-9 0 1 27.27 4.09
-9 0 1 24.03 3.6
-9 0 0 109.71 8.21
-9 0 0 80.92 5.41
-9 0 0 80.82 7.36
-9 0 0 124.4 7.27
-9 0 -1 74.65 5.02
-9 0 -1 59.72 4.4
-9 0 -1 60.04 5.74
-9 0 -2 103.01 5.26
-9 -1 8 1.24 0.38
-9 -1 8 1.64 0.48
-9 -1 7 152.54 8.19
-9 -1 7 150.18 8.16
-9 -1 6 -0.52 0.71
-9 -1 6 0.27 0.74
-9 -1 6 0.29 0.49
-9 -1 5 57.57 5.59
-9 -1 5 52.62 4.99
-9 -1 4 191.79 10.61
-9 -1 4 198.29 9.84
-9 -1 3 2.86 1.51
-9 -1 3 2.57 2.04
-9 -1 2 137.94 9.93
-9 -1 2 137.96 8.39
-9 -1 1 4.11 1.25
-9 -1 1 6.28 1.86
-9 -1 0 67.73 6.16
-9 -1 0 39.12 4.69
-9 -1 -1 41.72 3.36
-9 -1 -1 39.76 3.89
-9 -2 6 32.29 3.24
-9 -2 6 32.58 3.26
-9 -2 5 11.49 2.15
-9 -2 5 18.35 2.74
-9 -2 4 55.61 4.97
-9 -2 4 72.53 5.22
-9 -2 3 89.13 6.37
-9 -2 3 92.9 5.97
-9 -2 2 41.55 4.44
-9 -2 2 42.68 4.03
-9 -2 1 1.66 1.17
-9 -2 1 9.28 2.07
-10 5 4 125.89 9.23
-10 5 3 381.2 19.15
-10 5 2 195.92 11.38
-10 4 4 19.59 2.62
-10 4 4 14.67 3.41
-10 4 3 12.05 2.21
-10 4 3 9.69 3.55
-10 4 2 204.42 9.46
-10 4 2 263.27 14.05
-10 4 1 8.31 1.95
-10 4 0 0.29 0.23
-10 3 4 8.72 1.94
-10 3 3 27.61 3.48
-10 3 2 68.16 5.57
-10 3 1 25.06 3.37
-10 2 6 10.74 2.01
-10 2 5 108.86 7.06
-10 2 4 6.04 1.56
-10 2 3 2.26 1.28
-10 2 2 4.05 1.6
-10 2 1 62.17 4.89
loop_
_exptl_oxdiff_crystal_face_indexfrac_h
_exptl_oxdiff_crystal_face_indexfrac_k
_exptl_oxdiff_crystal_face_indexfrac_l
_exptl_oxdiff_crystal_face_x
_exptl_oxdiff_crystal_face_y
_exptl_oxdiff_crystal_face_z
0.0164 5.7686 -0.4123 -0.0254 -0.9992 0.0317
0.0550 -5.7900 0.3708 0.0254 0.9986 -0.0453
-5.2571 1.8117 2.4210 0.0761 -0.0030 0.9971
-0.0810 -0.0610 8.2375 -0.9836 0.0249 0.1784
5.2775 -1.8261 -1.7437 -0.1588 0.0051 -0.9873
-0.0036 0.0903 -8.2111 0.9864 -0.0250 -0.1627
