#------------------------------------------------------------------------------
#$Date: 2022-01-01 07:13:54 +0200 (Sat, 01 Jan 2022) $
#$Revision: 271676 $
#$URL: file:///home/coder/svn-repositories/cod/cif/1/56/58/1565873.cif $
#------------------------------------------------------------------------------
#
# This file is available in the Crystallography Open Database (COD),
# http://www.crystallography.net/. The original data for this entry
# were provided by IUCr Journals, http://journals.iucr.org/.
#
# The file may be used within the scientific community so long as
# proper attribution is given to the journal article from which the
# data were obtained.
#
data_1565873
loop_
_publ_author_name
'Olejniczak, Anna'
'Katrusiak, Anna'
'Podsiad\/lo, Marcin'
'Katrusiak, Andrzej'
_publ_section_title
;
 Stochastic hydration of a high-nitrogen-content molecular compound
 recrystallized under pressure
;
_journal_issue                   1
_journal_name_full               IUCrJ
_journal_page_first              49
_journal_page_last               54
_journal_paper_doi               10.1107/S2052252521010381
_journal_volume                  9
_journal_year                    2022
_chemical_formula_moiety         'C4 H2 Cl N5'
_chemical_formula_sum            'C4 H2 Cl N5'
_chemical_formula_weight         155.56
_chemical_name_systematic        6-chloro-1,2,3,4-tetrazolo[1,5-b]pyridazine
_space_group_crystal_system      orthorhombic
_space_group_IT_number           19
_space_group_name_Hall           'P 2ac 2ab'
_space_group_name_H-M_alt        'P 21 21 21'
_atom_sites_solution_hydrogens   geom
_atom_sites_solution_primary     direct
_audit_creation_date             2020-07-14
_audit_creation_method
;
Olex2 1.3
(compiled 2020.06.28 svn.raecde09e for OlexSys, GUI svn.r6132)
;
_cell_angle_alpha                90
_cell_angle_beta                 90
_cell_angle_gamma                90
_cell_formula_units_Z            4
_cell_length_a                   7.02450(10)
_cell_length_b                   8.75170(10)
_cell_length_c                   9.9817(2)
_cell_measurement_reflns_used    2782
_cell_measurement_temperature    130.0(1)
_cell_measurement_theta_max      64.2230
_cell_measurement_theta_min      5.0540
_cell_volume                     613.638(17)
_computing_cell_refinement       'CrysAlisPro 1.171.40.67a (Rigaku OD, 2019)'
_computing_data_collection       'CrysAlisPro 1.171.40.67a (Rigaku OD, 2019)'
_computing_data_reduction        'CrysAlisPro 1.171.40.67a (Rigaku OD, 2019)'
_computing_molecular_graphics    'Olex2 1.3 (Dolomanov et al., 2009)'
_computing_publication_material  'Olex2 1.3 (Dolomanov et al., 2009)'
_computing_structure_refinement  'SHELXL 2018/3 (Sheldrick, 2015)'
_computing_structure_solution    'SHELXT 2018/2 (Sheldrick, 2018)'
_diffrn_ambient_environment      N~2~
_diffrn_ambient_temperature      130.0(1)
_diffrn_detector                 'CCD plate'
_diffrn_detector_area_resol_mean 10.5357
_diffrn_detector_type            Atlas
_diffrn_measured_fraction_theta_full 0.994
_diffrn_measured_fraction_theta_max 0.994
_diffrn_measurement_details
;
List of Runs (angles in degrees, time in seconds):

  # Type    Start    End  Width  t~exp~   \w     \q     \k     \f   Frames
--------------------------------------------------------------------------
  1  \w     13.00 116.00   1.00    1.25    --   41.73  77.00 150.00  103
  2  \w     13.00  88.00   1.00    1.25    --   41.73-125.00  60.00   75
  3  \w     40.00  99.00   1.00    1.25    --   41.73  37.00 -90.00   59
  4  \w     16.00  51.00   1.00    2.50    --   88.44 -45.00 150.00   35
  5  \w     36.00 158.00   1.00    2.50    --   88.44  15.00  60.00  122
  6  \w      8.00 106.00   1.00    2.50    --   88.44 -94.00 120.00   98
  7  \w     37.00  77.00   1.00    2.50    --   88.44 -45.00  90.00   40
  8  \w     44.00  70.00   1.00    2.50    --   88.44 -45.00-120.00   26
  9  \w     16.00 109.00   1.00    2.50    --   88.44 -94.00-120.00   93
 10  \w     26.00  75.00   1.00    2.50    --   88.44 -45.00   0.00   49
 11  \w     42.00  81.00   1.00    2.50    --   88.44 -94.00   0.00   39
 12  \w     85.00 111.00   1.00    2.50    --   88.44 125.00  90.00   26
 13  \w    116.00 146.00   1.00    2.50    --   88.44 125.00  90.00   30
 14  \w     68.00 107.00   1.00    2.50    --   88.44-125.00  90.00   39
 15  \w     75.00 156.00   1.00    2.50    --   88.44  61.00 -90.00   81
;
_diffrn_measurement_device       'four-circle diffractometer'
_diffrn_measurement_device_type
'SuperNova, Single source at offset/far, Atlas'
_diffrn_measurement_method       '\w scans'
_diffrn_orient_matrix_type
'CrysAlisPro convention (1999,Acta A55,543-557)'
_diffrn_orient_matrix_UB_11      0.0551754000
_diffrn_orient_matrix_UB_12      0.0076568000
_diffrn_orient_matrix_UB_13      -0.1491957000
_diffrn_orient_matrix_UB_21      -0.0495611000
_diffrn_orient_matrix_UB_22      0.1715031000
_diffrn_orient_matrix_UB_23      -0.0023492000
_diffrn_orient_matrix_UB_31      0.2063946000
_diffrn_orient_matrix_UB_32      0.0391427000
_diffrn_orient_matrix_UB_33      0.0392583000
_diffrn_radiation_monochromator  mirror
_diffrn_radiation_probe          x-ray
_diffrn_radiation_type           'Cu K\a'
_diffrn_radiation_wavelength     1.54184
_diffrn_reflns_av_R_equivalents  0.0155
_diffrn_reflns_av_unetI/netI     0.0128
_diffrn_reflns_Laue_measured_fraction_full 0.994
_diffrn_reflns_Laue_measured_fraction_max 0.994
_diffrn_reflns_limit_h_max       8
_diffrn_reflns_limit_h_min       -6
_diffrn_reflns_limit_k_max       10
_diffrn_reflns_limit_k_min       -9
_diffrn_reflns_limit_l_max       11
_diffrn_reflns_limit_l_min       -10
_diffrn_reflns_number            3602
_diffrn_reflns_point_group_measured_fraction_full 0.984
_diffrn_reflns_point_group_measured_fraction_max 0.984
_diffrn_reflns_theta_full        64.438
_diffrn_reflns_theta_max         64.438
_diffrn_reflns_theta_min         6.728
_diffrn_source                   'micro-focus sealed X-ray tube'
_diffrn_source_type              'SuperNova (Cu) X-ray Source'
_exptl_absorpt_coefficient_mu    4.867
_exptl_absorpt_correction_T_max  1.00000
_exptl_absorpt_correction_T_min  0.60164
_exptl_absorpt_correction_type   multi-scan
_exptl_absorpt_process_details
;
CrysAlisPro 1.171.39.46 (Rigaku Oxford Diffraction, 2018)
Empirical absorption correction using spherical harmonics,
 implemented in SCALE3 ABSPACK scaling algorithm.
;
_exptl_crystal_colour            colourless
_exptl_crystal_density_diffrn    1.684
_exptl_crystal_description       plate
_exptl_crystal_F_000             312
_exptl_crystal_size_max          0.50
_exptl_crystal_size_mid          0.20
_exptl_crystal_size_min          0.15
_refine_diff_density_max         0.137
_refine_diff_density_min         -0.145
_refine_diff_density_rms         0.034
_refine_ls_abs_structure_details
;
 Flack x determined using 383 quotients [(I+)-(I-)]/[(I+)+(I-)]
 (Parsons, Flack and Wagner, Acta Cryst. B69 (2013) 249-259).
;
_refine_ls_abs_structure_Flack   0.485(6)
_refine_ls_extinction_method     none
_refine_ls_goodness_of_fit_ref   1.074
_refine_ls_hydrogen_treatment    constr
_refine_ls_matrix_type           full
_refine_ls_number_parameters     91
_refine_ls_number_reflns         1019
_refine_ls_number_restraints     0
_refine_ls_restrained_S_all      1.074
_refine_ls_R_factor_all          0.0295
_refine_ls_R_factor_gt           0.0292
_refine_ls_shift/su_max          0.000
_refine_ls_shift/su_mean         0.000
_refine_ls_structure_factor_coef Fsqd
_refine_ls_weighting_details
'w=1/[\s^2^(Fo^2^)+(0.0340P)^2^+0.4512P] where P=(Fo^2^+2Fc^2^)/3'
_refine_ls_weighting_scheme      calc
_refine_ls_wR_factor_gt          0.0741
_refine_ls_wR_factor_ref         0.0743
_reflns_Friedel_coverage         0.630
_reflns_Friedel_fraction_full    0.968
_reflns_Friedel_fraction_max     0.968
_reflns_number_gt                1010
_reflns_number_total             1019
_reflns_threshold_expression     'I > 2\s(I)'
_cod_data_source_file            lt5042.cif
_cod_data_source_block           C4H2N5Cl1@130K_phase_alpha
_cod_database_code               1565873
_shelx_shelxl_version_number     2018/3
_chemical_oxdiff_formula         C4H2N5Cl1
_shelx_space_group_comment
;
The symmetry employed for this shelxl refinement is uniquely defined
by the following loop, which should always be used as a source of
symmetry information in preference to the above space-group names.
They are only intended as comments.
;
_reflns_odcompleteness_completeness 99.38
_reflns_odcompleteness_iscentric 1
_reflns_odcompleteness_theta     64.34
_olex2_refinement_description
;
1. Fixed Uiso
 At 1.2 times of:
  All C(H) groups
2.a Aromatic/amide H refined with riding coordinates:
 C7(H7), C8(H8)
;
_shelx_res_file
;
TITL 1a_a.res in P2(1)2(1)2(1)
    1a.res
    created by SHELXL-2018/3 at 12:02:36 on 14-Jul-2020
REM Old TITL 1a in P2(1)2(1)2(1)
REM SHELXT solution in P2(1)2(1)2(1)
REM R1 0.106, Rweak 0.018, Alpha 0.002, Orientation as input
REM Flack x = 0.486 ( 0.005 ) from Parsons' quotients
REM Formula found by SHELXT: C8 N Cl
CELL 1.54184 7.0245 8.7517 9.9817 90 90 90
ZERR 4 0.0001 0.0001 0.0002 0 0 0
LATT -1
SYMM 0.5-X,-Y,0.5+Z
SYMM -X,0.5+Y,0.5-Z
SYMM 0.5+X,0.5-Y,-Z
SFAC C H Cl N
UNIT 16 8 4 20

L.S. 44
PLAN  5
CONF
BOND $H
list 4
fmap 2 53
acta
MORE -1
REM <olex2.extras>
REM <HklSrc "%.\\1a.hkl">
REM </olex2.extras>

WGHT    0.034000    0.451200
FVAR       1.13020
CL1   3    0.289529    0.331867    0.318388    11.00000    0.04270    0.02110 =
         0.04568   -0.00218    0.00968   -0.00107
N4    4    0.360644    0.747599    0.411356    11.00000    0.03278    0.02222 =
         0.02100   -0.00044    0.00003   -0.00255
N5    4    0.370456    0.593418    0.417278    11.00000    0.03331    0.02386 =
         0.02529    0.00366    0.00268    0.00011
N3    4    0.436469    0.837829    0.505883    11.00000    0.04381    0.03263 =
         0.02561   -0.00469   -0.00396   -0.00582
N2    4    0.398690    0.977356    0.465995    11.00000    0.05003    0.02939 =
         0.03659   -0.00790    0.00274   -0.00521
N1    4    0.300911    0.981420    0.348852    11.00000    0.04193    0.02553 =
         0.03443   -0.00226    0.00459   -0.00107
C9    1    0.278200    0.834661    0.314587    11.00000    0.03151    0.02309 =
         0.02255    0.00333    0.00461    0.00172
C7    1    0.198548    0.604550    0.206334    11.00000    0.03452    0.03348 =
         0.02159   -0.00571    0.00140   -0.00281
AFIX  43
H7    2    0.144393    0.548657    0.136859    11.00000   -1.20000
AFIX   0
C6    1    0.287021    0.528806    0.315813    11.00000    0.03070    0.02182 =
         0.02789   -0.00182    0.00659   -0.00052
C8    1    0.194197    0.758975    0.204580    11.00000    0.03364    0.03425 =
         0.02188    0.00360    0.00113    0.00186
AFIX  43
H8    2    0.138600    0.812696    0.134356    11.00000   -1.20000
AFIX   0
HKLF 4




REM  1a_a.res in P2(1)2(1)2(1)
REM wR2 = 0.0743, GooF = S = 1.074, Restrained GooF = 1.074 for all data
REM R1 = 0.0292 for 1010 Fo > 4sig(Fo) and 0.0295 for all 1019 data
REM 91 parameters refined using 0 restraints

END

WGHT      0.0340      0.4513

REM Highest difference peak  0.137,  deepest hole -0.145,  1-sigma level  0.034
Q1    1   0.2676  0.7848  0.3564  11.00000  0.05    0.14
Q2    1   0.2059  0.3468  0.2284  11.00000  0.05    0.14
Q3    1   0.2842  1.0559  0.3176  11.00000  0.05    0.13
Q4    1   0.4267  0.3352  0.3461  11.00000  0.05    0.13
Q5    1   0.2458  0.5627  0.2603  11.00000  0.05    0.13
;
_shelx_res_checksum              67401
_shelx_hkl_file
;
   0   0  -1    0.29    0.23
   0   0  -2 1984.61   19.58
   0   0  -3    0.35    0.72
   0   0  -4   22.73    1.91
   0   0  -5    0.79    0.98
   0   0  -6 2134.28   28.27
   0   0   6 2174.36   22.99
   0   0   6 2085.64   22.93
   0   0  -7   -0.72    0.48
   0   0   7    0.14    0.49
   0   0   7   -0.41    0.68
   0   0   8 1499.15   19.25
   0   0  -8 1502.65   26.22
   0   0   8 1532.48   19.13
   0   0   9    0.47    0.63
   0   0   9    1.45    1.11
   0   0  10  644.42   11.14
   0   0  10  621.23   10.38
   0   0  11   -0.15    0.74
   0   1   0    0.34    0.32
   0   1   0    1.99    0.22
   0   1  -1 1590.39   15.26
   0  -1  -1 1596.14   15.47
   0   1  -2   37.99    1.66
   0  -1  -2   39.11    1.71
   0  -1  -3 4920.42   46.31
   0   1  -3 4940.63   46.23
   0   1  -4   32.26    2.22
   0  -1  -4   32.71    2.23
   0  -1  -5 1939.80   24.74
   0   1  -5 1981.35   24.69
   0  -1   6    3.16    0.76
   0  -1  -6    2.30    0.79
   0   1   6    2.56    0.76
   0   1  -6    1.97    1.01
   0  -1   6    0.96    0.80
   0   1   7   68.61    3.13
   0  -1  -7   79.88    5.12
   0   1  -7   65.25    4.41
   0  -1   7   71.46    3.08
   0   1   7   68.83    3.04
   0   1   8  108.13    4.20
   0   1   8  111.43    4.04
   0  -1   8  113.73    4.21
   0  -1   8  109.74    4.11
   0   1  -8  113.07    6.49
   0  -1  -8  120.12    6.77
   0  -1   9   76.58    3.52
   0   1   9   76.99    3.61
   0  -1   9   76.14    3.53
   0   1   9   75.65    3.38
   0  -1  10  246.30    6.27
   0   1  10  251.70    6.56
   0  -1  10  244.75    6.08
   0   1  11   19.85    1.71
   0  -1  11   20.45    1.60
   0   2   0  247.32    3.21
   0   2   0  245.74    4.60
   0  -2  -1 1409.13   15.04
   0   2  -1 1405.69   15.40
   0  -2  -2  495.76    7.71
   0   2  -2  485.54    7.73
   0  -2  -3  544.34    9.10
   0   2  -3  556.76    9.00
   0  -2  -4   10.60    1.43
   0   2  -4   14.97    1.81
   0   2   5  966.99   12.14
   0  -2   5  982.13   11.94
   0  -2  -5  975.70   15.91
   0   2  -5  934.26   15.45
   0  -2   5  959.32   12.30
   0  -2   6    8.98    1.14
   0   2   6   11.04    1.26
   0   2   6    9.37    1.22
   0  -2  -6    8.10    1.64
   0  -2   6    9.63    1.11
   0  -2   7  802.06   12.18
   0   2  -7  786.41   16.71
   0   2   7  802.93   12.10
   0  -2   7  765.96   11.70
   0   2   7  776.85   12.12
   0  -2  -7  804.70   17.15
   0   2  -8   74.62    5.39
   0  -2   8   86.30    3.60
   0   2   8   81.48    3.73
   0  -2  -8   73.97    5.47
   0   2   8   82.92    3.54
   0  -2   8   83.16    3.66
   0  -2   9    5.68    1.16
   0   2   9    8.75    1.37
   0  -2   9    8.28    1.38
   0  -2  10  281.77    6.48
   0   2  10  278.65    6.65
   0  -2  10  277.29    6.41
   0   2  11    3.11    0.95
   0  -2  11    4.19    0.81
   0   3   0    0.50    0.29
   0   3   0    1.38    0.87
   0  -3  -1  347.70    6.34
   0   3  -1  347.51    6.81
   0   3  -1  343.93    5.28
   0  -3  -2 2528.96   26.65
   0   3  -2 2479.30   27.10
   0  -3  -3   20.16    1.78
   0   3  -3   16.69    1.84
   0  -3   4   79.20    2.73
   0   3   4   81.11    2.69
   0  -3  -4   69.47    3.60
   0   3  -4   77.78    3.89
   0   3   5  128.63    3.77
   0  -3  -5  111.67    5.14
   0  -3   5  121.30    3.42
   0  -3   5  127.02    3.83
   0   3  -5  123.42    5.39
   0   3   6   59.21    2.79
   0   3  -6   53.06    3.88
   0  -3   6   61.87    2.85
   0  -3  -6   58.73    4.14
   0  -3   6   57.27    2.56
   0   3   7    6.05    1.34
   0  -3   7    5.97    0.97
   0  -3   7    5.04    1.13
   0   3  -7    3.66    1.77
   0   3   7    4.98    0.81
   0   3   7    4.80    1.15
   0  -3   8  294.44    6.73
   0   3   8  291.49    7.31
   0  -3   8  291.35    7.08
   0  -3   9   29.49    2.26
   0   3   9   30.73    2.41
   0  -3   9   23.85    1.86
   0  -3  10    8.28    1.17
   0   3  10    9.70    1.44
   0  -3  10    7.28    1.13
   0   3  11    1.05    0.61
   0  -3  11    2.40    0.80
   0   4   0   51.03    2.93
   0  -4  -1 4329.98   42.40
   0   4  -1 4261.97   44.03
   0   4  -2  111.52    3.41
   0  -4  -2  108.98    4.06
   0   4  -2  113.25    4.51
   0   4  -3  316.31    8.14
   0  -4   3  311.58    5.89
   0   4   3  324.41    5.98
   0  -4  -3  321.84    7.76
   0  -4  -4  124.02    5.14
   0   4   4  129.97    3.82
   0  -4   4  137.62    3.90
   0   4  -4  127.98    5.51
   0   4   4  128.39    3.52
   0  -4   5  348.54    6.42
   0   4   5  352.00    7.06
   0   4   5  343.51    6.39
   0   4  -5  344.40   10.00
   0  -4  -5  340.56    9.60
   0  -4   5  360.00    7.15
   0  -4   6   70.11    3.22
   0   4   6   75.98    3.33
   0  -4  -6   61.64    4.41
   0   4  -6   66.50    4.61
   0  -4   6   71.09    2.88
   0  -4  -7  437.13   12.87
   0  -4   7  437.41    8.80
   0  -4   7  428.76    8.03
   0   4  -7  416.26   12.60
   0   4   7  424.66    8.80
   0   4   7  431.33    9.05
   0   4   8   21.97    2.11
   0  -4   8   22.10    2.06
   0  -4   9  718.52   11.69
   0   4   9  723.31   12.08
   0  -4  10   43.13    2.31
   0   4  10   47.93    2.48
   0   5   0    0.16    0.66
   0  -5   0    1.04    0.74
   0   5   0    1.03    0.65
   0   5   1  678.68    9.87
   0   5   1  678.52    9.69
   0   5  -1  676.15    9.59
   0  -5   1  672.96    9.72
   0   5  -1  668.79    9.74
   0   5  -1  686.56   13.13
   0  -5  -1  690.68    9.77
   0  -5  -2    1.40    0.51
   0   5  -2    1.97    0.79
   0  -5   2    3.47    0.88
   0   5   2    2.46    0.74
   0  -5  -2    1.22    0.83
   0   5  -2    2.90    0.93
   0   5  -2    2.36    0.66
   0  -5   3 1119.14   14.44
   0   5  -3 1123.51   14.25
   0  -5  -3 1120.80   17.55
   0   5   3 1132.30   14.44
   0   5  -3 1085.20   18.56
   0  -5  -4 1106.43   18.56
   0   5   4 1145.39   15.03
   0   5   4 1148.60   14.45
   0   5  -4 1087.76   19.57
   0   5  -4 1133.56   14.71
   0  -5   4 1151.96   15.12
   0   5  -5    2.71    1.13
   0  -5  -5    3.29    1.60
   0   5   5    4.78    1.04
   0  -5   5    4.92    1.10
   0   5   5    3.61    0.89
   0  -5   6  159.86    5.10
   0  -5  -6  152.94    7.14
   0   5   6  164.67    5.17
   0   5  -6  169.64    7.65
   0   5   7   31.62    2.54
   0  -5   7   37.97    2.61
   0   5   8   10.83    1.63
   0  -5   8    7.87    1.41
   0  -5   9  180.51    5.03
   0   5   9  178.70    5.12
   0  -5  10    6.63    0.90
   0  -6   0 1460.29   17.83
   0   6   0 1453.89   17.49
   0   6   0 1476.34   18.01
   0   6  -1   98.36    5.25
   0   6   1  102.69    3.57
   0  -6   1  102.45    3.65
   0   6  -1   95.09    3.53
   0  -6  -1  102.17    3.60
   0   6  -1   98.81    3.41
   0   6   1  100.41    3.72
   0   6  -2  274.15    5.95
   0   6  -2  276.63    6.22
   0   6   2  275.33    6.22
   0  -6   2  279.45    6.32
   0   6  -2  270.36    8.94
   0  -6   3   28.75    2.09
   0   6  -3   27.74    2.01
   0   6   3   24.35    1.90
   0   6  -3   25.42    2.99
   0   6   3   28.08    2.00
   0  -6   4   25.62    2.13
   0   6   4   24.83    1.85
   0   6  -4   23.10    2.93
   0   6  -4   25.20    2.01
   0   6   4   28.12    2.15
   0  -6   5   11.48    1.55
   0   6   5   11.73    1.48
   0   6  -5   12.18    1.53
   0   6  -5    9.47    2.43
   0   6   5   11.99    1.67
   0  -6   6 2179.89   25.95
   0   6   6 2214.48   26.05
   0  -6   7    8.45    1.40
   0   6   7    7.21    1.39
   0   6   8   96.44    3.82
   0  -6   8   97.45    3.76
   0   6   9    7.56    0.96
   0  -6   9    5.78    1.03
   0   7   0   -0.46    0.74
   0   7   0   -0.86    0.73
   0  -7   0    0.43    0.79
   0  -7  -1    4.56    1.02
   0   7   1    5.46    1.13
   0  -7   1    3.08    1.13
   0   7  -1    4.29    0.91
   0   7  -1    4.20    1.11
   0   7   2   13.94    1.62
   0  -7   2   15.77    1.78
   0   7  -2   14.80    1.61
   0   7   3  116.20    4.15
   0   7   3  112.18    4.17
   0  -7   3  117.25    4.36
   0   7  -3  122.24    4.26
   0   7  -3  118.81    6.41
   0  -7   4  136.33    4.78
   0   7   4  132.45    4.64
   0   7  -4  138.76    4.51
   0   7   4  135.25    4.49
   0  -7   5  348.25    7.87
   0   7   5  343.48    7.32
   0   7   5  337.37    7.67
   0   7   6    9.51    1.47
   0  -7   6    7.57    1.42
   0   7   7   39.03    2.40
   0  -7   7   35.61    2.34
   0   7   7   38.48    2.43
   0  -7   8    0.44    0.55
   0  -7   8    0.73    0.54
   0  -8   0   -1.67    0.99
   0   8   0    0.98    0.77
   0   8   1  847.30   12.75
   0   8  -1  864.08   13.23
   0  -8   1  841.71   13.14
   0   8   2   57.68    2.99
   0  -8   2   56.77    2.98
   0   8   2   56.90    2.91
   0   8  -2   55.56    2.92
   0   8   3   12.91    1.59
   0   8   3   11.12    1.50
   0  -8   3   16.36    1.72
   0   8   4    2.55    0.88
   0  -8   4    1.05    0.90
   0   8   4    1.38    1.01
   0  -8   5   35.28    2.31
   0   8   5   33.68    2.24
   0   8   5   34.31    2.15
   0  -8   6  156.40    4.56
   0   8   6  154.71    4.54
   0  -8   7  170.99    4.40
   0   8   7  165.94    4.33
   0   9   0    0.28    0.80
   0  -9   1  126.49    4.16
   0   9   1  130.67    4.35
   0   9   1  130.07    3.94
   0   9   2  226.85    5.74
   0   9   2  222.52    5.38
   0  -9   2  218.19    5.58
   0   9   3   26.02    1.91
   0  -9   3   22.51    1.72
   0   9   3   22.68    1.72
   0   9   4  317.11    6.38
   0  -9   4  338.22    6.75
   0   9   4  330.20    6.54
   0  -9   5   20.49    1.54
   0   9   5   17.19    1.49
   0  10   0  142.07    3.96
   0  10  -1  277.63    5.59
   0  10   1  275.75    5.68
   0  10   2   23.86    1.57
   0  10  -2   19.59    1.38
   1   0   0    1.19    0.53
  -1   0   0    0.22    0.21
   1   0   1 1265.42   13.30
   1   0  -1 1292.63   13.36
  -1   0  -3 1730.43   18.74
   1   0  -3 1699.20   19.75
   1   0  -4  741.02   12.21
  -1   0  -4  734.66   11.34
   1   0  -5   15.49    2.01
   1   0   5   14.84    1.29
  -1   0  -5   11.70    1.62
  -1   0   5   13.31    1.20
  -1   0  -6   89.47    4.61
   1   0  -6   76.23    4.51
  -1   0   6   82.38    3.22
  -1   0   6   81.62    2.86
   1   0   6   78.05    3.08
  -1   0  -7   31.70    3.12
  -1   0   7   38.55    2.20
  -1   0   7   36.58    2.30
   1   0   7   35.86    2.31
   1   0  -7   40.37    3.72
   1   0   8  242.49    6.48
  -1   0   8  238.59    6.42
  -1   0  -8  240.02    9.23
   1   0  -8  240.68    9.95
   1   0   8  238.97    6.40
  -1   0   9   37.17    2.67
   1   0   9   44.62    2.86
   1   0  10  853.73   13.35
  -1   0  10  816.54   12.89
  -1   0  10  822.34   12.64
  -1   0  11   31.43    1.96
   1   0  11   37.33    2.25
   1  -1  11   48.88    2.44
  -1   1  11   46.29    2.37
   1  -1  10  157.20    5.05
   1  -1  10  163.47    4.87
  -1   1  10  158.46    4.94
   1  -1   9   67.66    3.47
  -1   1   9   65.60    3.36
  -1   1   9   69.16    3.20
  -1   1   8  532.89    9.55
  -1  -1  -8  543.52   14.59
   1  -1   8  525.84    9.32
   1  -1   8  537.09   10.09
   1   1  -8  525.85   15.02
  -1   1   8  527.94   10.16
  -1   1   7  461.79    8.98
   1  -1   7  453.33    8.61
   1  -1   7  456.62    8.07
  -1   1   7  477.71    8.48
   1   1  -7  477.39   13.00
   1  -1   7  444.75    8.57
  -1  -1  -7  439.34   12.05
   1   1  -6   15.49    2.15
   1  -1   6   16.42    1.46
  -1   1   6   15.33    1.51
   1  -1   6   17.00    1.49
  -1   1   6   15.82    1.26
  -1  -1  -6   12.88    1.83
   1  -1   6   12.65    1.18
  -1   1   6   17.55    1.42
  -1  -1  -5  510.81   10.48
   1   1  -5  512.62   11.04
   1  -1   5  492.20    7.73
  -1  -1  -4  180.97    5.22
   1   1  -4  180.93    5.61
   1   1  -3 1083.28   14.72
  -1  -1  -3 1109.74   14.18
  -1  -1  -2 2135.47   22.25
   1   1  -2 2154.55   22.76
   1   1  -1  855.25    8.46
   1   1  -1  842.76   10.39
   1  -1   0  837.17    8.77
  -1   1   0  862.54    9.51
   1   1   0  859.00   10.01
   1  -1  -1  831.73    9.22
   1   1   1  828.91   10.06
  -1   1  -1  856.54    7.99
   1  -1  -2 2167.74   21.91
  -1   1  -2 2134.52   20.41
   1  -1  -3 1111.64   14.54
  -1   1  -3 1114.06   13.15
  -1   1  -4  182.66    4.87
   1  -1  -4  184.48    5.58
  -1   1  -5  498.54    9.83
   1   1   5  493.08    7.80
  -1  -1   5  486.98    7.91
   1  -1  -5  487.16   10.81
   1   1   6   13.87    1.47
  -1   1  -6   17.25    1.95
   1  -1  -6   14.52    2.25
  -1  -1   6   15.62    1.46
  -1  -1   7  459.50    8.82
   1  -1  -7  455.25   12.70
  -1   1  -7  489.90   12.09
   1   1   7  457.26    8.88
   1   1   8  519.16   10.05
  -1   1  -8  507.70   13.50
   1  -1  -8  503.77   14.50
  -1  -1   8  522.56    9.97
  -1  -1   9   69.03    3.20
   1   1   9   68.64    3.55
  -1  -1   9   66.02    3.47
   1   1   9   72.48    3.65
  -1  -1  10  154.59    4.98
  -1  -1  10  158.22    4.67
   1   1  10  162.02    5.21
   1   1  11   44.95    2.45
  -1  -1  11   45.94    2.35
  -1   2  11   88.50    3.18
   1  -2  11   85.98    3.11
   1  -2  10   86.88    3.58
  -1   2  10   83.36    3.47
  -1   2   9   99.37    4.13
   1  -2   9  110.66    4.31
  -1   2   9  108.99    4.06
  -1   2   8   79.29    3.46
  -1   2   8   70.85    3.56
   1   2  -8   68.03    5.42
   1  -2   8   69.51    3.37
   1  -2   8   70.20    3.18
  -1  -2  -8   69.74    5.33
   1   2  -7   91.85    5.70
  -1   2   7   94.09    3.57
  -1   2   7   89.85    3.80
   1  -2   7   86.39    3.37
  -1  -2  -7   90.04    5.44
  -1   2   7   92.01    3.41
   1  -2   7   97.33    3.74
   1  -2   6  586.06    9.17
  -1   2   6  583.51    8.96
   1  -2   6  564.80    9.27
  -1  -2  -6  557.14   12.86
   1   2  -6  567.14   13.64
  -1   2   6  572.35    9.19
  -1  -2  -5 2814.99   33.13
   1   2  -5 2857.63   34.28
   1  -2   5 2746.76   28.01
  -1   2   5 2809.82   27.49
   1  -2   5 2724.31   27.75
  -1  -2  -4  358.40    8.22
   1   2  -4  370.32    8.81
   1   2  -3 2607.71   29.11
  -1  -2  -3 2607.19   28.58
   1   2  -2   44.02    1.87
  -1  -2  -2   43.51    2.30
   1   2  -1  887.92   11.36
   1   2  -1  896.64   10.28
  -1   2   0  922.96   11.50
   1  -2   0  903.93    8.55
   1  -2  -1  906.85    8.84
  -1   2  -1  893.08   11.76
   1   2   1  887.89   11.04
   1  -2  -1  922.11   10.22
   1  -2  -2   45.59    2.11
  -1   2  -2   48.89    2.49
  -1   2  -2   48.81    1.61
  -1   2  -3 2660.52   26.33
   1  -2  -3 2644.89   28.43
   1  -2  -4  364.47    8.39
  -1   2  -4  368.41    7.25
   1  -2  -5 2709.23   33.48
  -1   2  -5 2842.46   31.31
   1   2   5 2786.05   28.19
   1   2   5 2741.49   27.37
  -1  -2   5 2825.89   28.36
   1   2   6  589.91    9.71
   1  -2  -6  549.18   13.17
  -1  -2   6  574.98    8.66
  -1  -2   6  557.73    9.47
  -1   2  -6  583.09   12.10
   1  -2  -7   94.53    5.72
   1   2   7   94.66    3.85
  -1  -2   7  100.68    3.90
  -1   2  -7   90.86    4.98
  -1  -2   7   92.29    3.32
  -1  -2   8   76.90    3.24
  -1  -2   8   63.81    3.38
   1   2   8   70.66    3.55
   1  -2  -8   65.67    5.25
  -1  -2   9  108.21    4.40
   1   2   9  110.13    4.46
  -1  -2   9  107.16    3.83
  -1  -2  10   86.19    3.61
   1   2  10   91.36    3.79
   1   2  10   90.60    3.86
   1   2  11   87.28    3.28
  -1  -2  11   88.40    3.08
  -1   3  11   15.89    1.31
  -1   3   9   83.54    3.47
   1  -3   9   77.74    3.33
   1  -3   9   82.55    3.55
  -1   3   9   77.12    3.63
  -1   3   8  156.47    5.02
  -1   3   8  156.09    5.27
   1  -3   8  154.93    4.83
   1  -3   8  146.17    4.89
   1   3  -7   94.07    5.46
  -1   3   7  103.48    3.83
   1  -3   7   94.05    3.64
  -1  -3  -7   98.39    5.90
  -1   3   7   99.90    3.86
   1  -3   7   97.26    3.78
  -1   3   6  216.20    5.27
   1   3  -6  205.91    7.41
   1  -3   6  216.87    5.31
   1  -3   6  218.05    5.38
  -1  -3  -6  207.12    7.86
  -1  -3  -5   26.02    2.58
   1  -3   5   27.75    1.77
   1   3  -5   32.58    2.68
   1  -3   5   27.38    1.77
  -1   3   5   26.66    1.74
  -1   3   4  174.45    4.07
   1   3  -4  163.23    5.30
   1  -3   4  168.46    4.01
   1  -3   4  167.12    4.03
  -1  -3  -3  245.48    6.61
   1   3  -3  227.70    5.78
  -1  -3  -2  343.79    7.58
   1   3  -2  338.52    7.08
   1   3  -2  349.49    6.67
   1   3  -1  195.43    4.56
   1   3  -1  179.56    4.62
   1  -3   0 2439.74   22.92
   1   3   0 2473.07   25.04
  -1   3   0 2453.28   26.73
   1  -3  -1  190.20    4.06
   1   3   1  193.14    4.31
  -1   3  -2  352.36    7.78
   1  -3  -2  348.27    6.73
  -1   3  -3  212.83    6.40
   1  -3  -3  226.68    6.07
   1   3   4  163.03    3.93
   1   3   4  163.50    4.06
  -1   3  -4  161.42    6.05
   1  -3  -4  169.48    5.78
  -1  -3   4  171.92    4.20
  -1  -3   5   29.04    2.00
   1   3   5   26.72    1.73
  -1   3  -5   28.64    2.87
   1  -3  -5   26.19    2.61
   1   3   5   26.43    1.86
   1   3   6  206.85    5.52
   1   3   6  218.05    5.08
   1  -3  -6  212.51    8.14
  -1   3  -6  217.05    8.31
  -1  -3   6  208.70    5.55
   1  -3  -7   96.71    6.01
  -1   3  -7   86.63    5.81
   1   3   7   98.18    4.06
  -1  -3   7  102.89    4.11
   1   3   8  156.44    5.40
  -1  -3   8  164.20    5.39
  -1  -3   9   85.29    3.81
   1   3   9   79.86    3.81
   1   3  10   18.21    1.68
   1  -3 -10   19.89    1.91
   1   3  10   18.53    1.81
  -1  -3  10   17.44    1.73
   1   3  11   16.37    1.39
   1  -4  10   53.66    2.83
  -1   4   9  157.53    4.80
   1  -4   9  149.74    4.53
  -1   4   9  149.38    4.73
  -1   4   8   16.19    1.81
   1  -4   8   16.84    1.76
  -1   4   8   18.81    2.03
  -1  -4  -7   31.47    3.61
   1  -4   7   32.34    2.31
  -1   4   7   32.49    2.25
  -1   4   7   37.16    2.45
  -1   4   6   95.40    3.64
  -1  -4  -6   92.02    5.55
   1  -4   6   97.52    3.69
   1  -4   6   94.05    3.63
  -1   4   5  662.00   10.28
   1   4  -5  677.41   13.72
  -1  -4  -5  650.99   14.16
   1  -4   5  658.25   10.32
   1  -4   4  233.44    5.32
  -1   4   4  232.89    5.30
  -1  -4  -4  230.83    7.51
   1   4  -4  244.33    7.20
   1   4  -3 1315.40   18.50
   1   4  -3 1313.60   18.16
   1  -4   3 1269.89   15.22
  -1  -4  -3 1303.15   19.27
  -1   4   3 1270.17   15.27
  -1  -4  -2   42.94    2.87
   1  -4   2   44.57    2.04
   1   4  -2   40.69    2.54
   1   4  -2   39.76    2.49
  -1   4   2   42.24    2.03
   1   4  -1  538.41    8.99
   1   4  -1  520.91    9.53
  -1   4   0  391.21    8.85
   1  -4   0  380.07    6.13
   1  -4  -1  524.63    8.38
   1   4   1  522.21    8.02
  -1   4  -1  538.10   10.62
  -1   4  -2   39.15    2.87
   1  -4  -2   42.06    2.44
   1   4   2   41.88    2.02
   1   4   3 1311.04   15.09
  -1   4  -3 1292.61   19.58
   1   4   3 1275.03   14.94
   1  -4  -3 1250.20   18.04
  -1  -4   3 1257.26   14.98
   1  -4  -4  230.33    7.24
  -1  -4   4  235.62    5.37
   1   4   4  231.46    5.21
   1   4   4  236.17    5.36
  -1   4  -4  240.25    7.99
   1   4   5  637.27   10.37
   1   4   5  623.15    9.91
  -1  -4   5  661.05   10.47
  -1   4  -5  635.25   14.57
   1  -4  -5  626.84   13.83
   1   4   6   98.52    3.97
   1   4   6   95.52    3.59
  -1   4  -6   95.89    5.85
  -1  -4   6   99.58    3.94
   1  -4  -6   89.84    5.43
   1   4   7   33.25    2.58
   1  -4  -7   34.25    3.69
  -1  -4   7   35.80    2.52
  -1   4  -7   35.16    3.63
   1   4   8   16.66    2.03
  -1  -4   8   17.02    1.93
  -1  -4   9  152.54    4.96
   1   4   9  157.51    5.17
   1   4  10   56.06    2.72
  -1  -4  10   52.84    2.58
   1   4  10   52.41    2.62
   1  -4 -10   54.34    2.89
   1  -5  10    3.08    0.79
  -1   5   9  118.72    3.91
   1  -5   9  122.04    3.90
   1  -5   9  128.91    4.45
  -1   5   8   24.60    2.17
   1  -5   8   26.45    2.11
  -1   5   8   24.03    2.06
  -1   5   8   28.22    2.16
  -1   5   7  255.27    6.62
  -1   5   7  266.30    6.75
   1  -5   7  263.44    6.63
  -1   5   6  141.25    4.70
   1  -5   6  138.27    4.66
  -1  -5  -6  136.26    6.95
  -1   5   5   87.28    3.50
   1  -5   5   81.33    3.44
  -1   5   4    5.75    0.87
  -1   5   4    5.55    1.09
  -1  -5  -4    5.72    1.65
   1  -5   4    6.45    1.11
   1   5  -4    3.91    1.48
  -1   5   3   84.05    3.25
  -1  -5  -3   80.75    4.48
   1   5  -3   74.95    3.12
   1  -5   3   72.37    3.05
   1   5  -3   81.06    4.24
  -1   5   2  571.52    9.22
   1   5  -2  558.93    9.09
  -1  -5  -2  577.39   12.12
   1   5  -2  551.68   11.41
   1  -5   2  579.83    9.17
  -1   5   1 2743.92   28.11
   1   5  -1 2641.11   31.62
   1   5  -1 2713.92   28.01
  -1  -5  -1 2721.21   27.17
   1  -5   1 2716.60   28.05
  -1   5   0  291.91    6.04
   1  -5   0  292.58    6.00
  -1   5   0  294.90    5.63
  -1   5   0  295.20    8.53
   1   5   0  292.82    6.03
  -1  -5   0  293.26    5.64
   1   5   1 2675.98   27.07
  -1   5  -1 2673.42   33.20
  -1  -5   1 2686.08   27.11
   1  -5  -1 2720.09   27.83
   1   5   1 2636.10   27.91
  -1   5  -2  567.78   12.58
   1   5   2  548.46    8.68
   1   5   2  560.46    8.85
  -1  -5   2  578.59    8.83
   1   5   2  555.56    9.18
   1   5   3   77.52    3.00
  -1   5  -3   73.84    4.50
  -1  -5   3   74.31    2.98
   1   5   3   74.73    2.97
   1   5   4    9.47    1.32
   1   5   4    5.82    1.13
  -1  -5   4    4.58    1.02
  -1   5  -4    7.71    1.65
   1  -5  -4    5.00    1.42
   1  -5  -5   72.60    4.61
  -1   5  -5   76.15    5.19
   1   5   5   77.01    3.24
  -1  -5   5   77.75    3.41
   1   5   5   74.81    3.43
   1   5   6  143.77    4.96
   1   5   6  144.16    4.60
  -1  -5   6  142.83    4.84
  -1   5  -6  138.54    7.43
   1   5   7  256.90    7.04
  -1  -5   7  270.30    6.97
   1   5   7  259.10    7.04
   1   5   8   28.85    2.37
  -1  -5   8   26.97    2.24
   1   5   9  127.12    4.40
  -1  -5   9  129.03    4.25
   1   5  10    2.28    0.72
  -1  -5  10    2.96    0.79
   1  -5 -10    3.53    0.87
   1  -6   9   17.93    1.51
  -1   6   8  113.35    3.86
   1  -6   8  112.09    3.88
  -1   6   8  109.78    3.95
   1  -6   8  123.06    4.24
   1   6  -7  216.45    5.77
   1  -6   7  221.69    5.98
  -1   6   7  235.28    6.21
  -1   6   6  592.10   10.69
   1  -6   6  588.25   10.70
   1   6  -6  595.29   10.66
   1   6  -5  157.21    5.09
   1  -6   5  149.63    4.98
  -1   6   5  155.22    5.01
  -1  -6  -5  142.07    7.10
  -1   6   4 3029.32   31.19
  -1   6   4 3044.81   32.48
   1   6  -4 3023.22   32.53
   1  -6   4 3047.21   32.70
  -1   6   3  226.74    5.87
  -1  -6  -3  239.45    8.26
   1  -6   3  222.60    5.90
   1   6  -3  217.06    5.82
  -1  -6  -2 1065.13   18.43
   1   6  -2 1016.69   18.01
  -1   6   2 1015.12   14.33
   1   6  -2 1009.35   14.37
   1  -6   2 1050.43   14.61
  -1  -6  -1  101.82    3.45
  -1   6   1  102.32    3.74
   1  -6   1  103.21    3.80
  -1  -6  -1   98.89    4.90
   1   6  -1   95.80    3.68
  -1   6   0   30.71    1.91
  -1   6   0   25.90    1.94
   1  -6   0   23.97    1.87
   1   6   0   25.96    2.07
  -1  -6   0   27.91    1.88
   1   6   1   99.75    3.43
  -1   6  -1  101.80    5.54
   1  -6  -1  103.14    3.80
   1   6   1  102.63    3.85
  -1  -6   1  100.51    3.52
  -1   6  -1   96.47    3.64
  -1   6  -2 1032.73   19.58
   1   6   2 1039.98   14.64
   1   6   2 1059.19   14.29
  -1  -6   2 1041.52   14.02
  -1   6  -2 1015.23   14.34
   1   6   2  994.37   13.78
   1   6   3  222.09    5.74
  -1  -6   3  222.57    5.68
   1   6   3  212.52    5.54
  -1   6  -3  213.98    8.58
  -1   6  -4 2933.78   40.25
   1   6   4 2977.26   31.99
   1   6   4 2998.57   32.11
  -1  -6   4 2992.76   31.97
   1   6   5  147.33    4.80
  -1  -6   5  152.39    4.99
   1   6   5  149.62    5.02
  -1   6  -5  154.18    7.79
  -1  -6   6  608.92   10.94
   1   6   6  605.87   11.12
   1   6   6  622.77   10.57
   1   6   7  225.86    6.44
  -1  -6   7  229.75    6.20
   1   6   8  117.49    4.27
  -1  -6   8  121.71    4.17
   1   6   9   16.18    1.45
   1  -6  -9   18.87    1.78
  -1  -6   9   16.51    1.52
   1  -7   8   96.07    3.23
   1  -7   8   97.45    3.20
  -1   7   7   16.70    1.60
  -1   7   7   16.19    1.59
   1  -7   7   16.28    1.60
   1  -7   7   16.39    1.55
  -1   7   6   24.14    2.07
   1   7  -6   26.57    2.04
   1  -7   6   21.52    1.98
   1  -7   6   24.41    1.86
   1  -7   5    2.57    1.06
  -1   7   5    1.99    0.95
   1   7  -5    2.84    1.05
   1  -7   4    4.83    1.42
  -1   7   4    3.34    1.14
   1   7  -4    3.69    1.05
  -1   7   4    4.98    0.91
  -1   7   3   56.20    3.04
   1   7  -3   53.14    3.05
   1  -7   3   56.92    3.12
  -1   7   2  241.63    6.35
   1   7  -2  239.24    6.41
   1  -7   2  241.81    6.45
  -1   7   1  570.52   10.29
   1  -7   1  556.38   10.38
   1   7  -1  572.95   10.54
   1  -7   0    2.30    0.94
  -1   7   0    0.74    0.83
   1   7   0    1.62    1.06
   1  -7  -1  587.02   10.53
   1   7   1  584.92   10.28
  -1   7  -1  583.45   10.34
  -1  -7   1  583.98   10.04
   1   7   1  591.71    9.73
   1   7   1  579.52   10.60
  -1   7  -2  238.53    9.42
   1   7   2  245.06    5.96
  -1  -7   2  233.41    5.98
   1   7   2  246.54    6.31
  -1   7  -2  243.09    6.25
   1   7   3   54.59    3.04
  -1  -7   3   49.52    2.84
  -1   7  -3   52.15    2.83
   1   7   3   52.51    2.80
  -1  -7   4    4.67    1.08
  -1   7  -4    4.67    1.14
   1   7   4    4.44    1.04
   1   7   4    4.18    1.17
  -1  -7   5    2.63    1.04
   1   7   5    2.59    0.98
   1   7   5    2.35    0.97
   1   7   6   25.03    1.98
  -1  -7   6   23.51    1.98
   1   7   6   22.83    2.04
   1   7   7   18.53    1.78
  -1  -7   7   17.70    1.72
  -1  -7   8   98.17    3.29
   1   7   8   95.06    3.38
   1  -7  -8   97.62    3.87
   1  -8   7    7.48    1.01
  -1   8   7    8.71    1.03
  -1   8   6  136.62    4.18
   1  -8   6  138.94    4.23
   1   8  -5  122.28    3.97
   1  -8   5  127.75    4.36
  -1   8   5  126.44    4.26
   1   8  -4  474.12    8.91
  -1   8   4  457.25    8.29
   1  -8   4  469.29    9.18
  -1   8   4  460.76    8.88
  -1   8   3  307.60    7.16
  -1   8   3  303.45    6.76
   1  -8   3  323.21    7.53
   1   8  -3  318.56    7.34
   1   8  -2  104.99    4.17
  -1   8   2   96.94    3.96
   1  -8   2  104.73    4.25
   1   8  -1  398.54    8.52
   1  -8   1  383.75    8.42
  -1   8   1  394.07    8.28
   1  -8   0  382.09    8.34
   1   8   0  383.18    8.19
   1   8   0  391.50    8.49
  -1  -8   0  390.18    7.81
  -1   8   0  380.59    8.11
   1   8   1  396.97    8.42
  -1  -8   1  393.26    8.00
  -1   8  -1  399.23    8.19
   1   8   2  100.27    3.71
  -1  -8   2  105.46    3.93
  -1   8  -2  100.69    3.81
   1   8   2  102.26    4.10
   1   8   3  321.74    7.39
  -1  -8   3  316.55    7.13
  -1   8  -3  302.61    6.72
   1   8   3  310.04    6.89
  -1  -8   4  450.22    8.66
   1   8   4  451.55    8.81
   1   8   4  458.04    8.67
  -1  -8   5  127.89    4.22
   1   8   5  121.19    4.11
   1   8   5  121.26    4.12
   1  -8  -6  135.61    4.50
   1   8   6  136.69    3.90
  -1  -8   6  142.47    4.20
   1   8   7    7.81    1.11
  -1  -8   7    8.53    1.03
  -1   9   5   28.93    1.77
   1  -9   5   29.35    1.80
  -1   9   4   19.88    1.58
  -1   9   4   19.72    1.41
   1  -9   4   19.08    1.64
  -1   9   3   58.33    2.71
  -1   9   3   55.41    2.56
   1   9  -3   58.10    2.68
   1  -9   3   60.05    2.84
  -1   9   2  170.14    4.72
   1   9  -2  169.75    4.86
   1  -9   2  171.93    4.95
  -1   9   2  172.24    4.81
   1   9  -2  166.07    4.60
   1   9  -1  137.68    4.38
  -1   9   1  135.71    4.26
  -1   9   1  140.12    4.39
   1   9   0  239.62    5.96
  -1   9   0  235.81    5.67
  -1  -9   1  134.28    4.04
  -1   9  -1  132.48    4.08
   1   9   1  140.48    4.54
  -1  -9   2  168.26    4.62
   1   9   2  175.93    5.10
   1   9   3   59.34    2.87
  -1  -9   3   59.11    2.62
  -1  -9   4   18.85    1.53
   1   9   4   17.95    1.54
  -1  -9   5   29.53    1.69
   1   9   5   27.28    1.70
  -1  10   1   29.92    1.74
   1  10  -1   31.37    1.78
   1  10   0   11.63    1.27
  -1  10   0   10.31    1.12
   1  10   1   33.68    1.91
  -1  10  -1   32.72    1.84
   1  10   2   60.27    2.42
  -1  10  -2   54.81    2.24
  -2   0  -2 9999.00   87.46
   2   0  -2 9895.60   89.57
   2   0  -2 9876.84   89.13
  -2   0  -3 1334.29   15.81
   2   0  -3 1242.18   17.50
  -2   0  -4  535.46    9.50
   2   0  -4  530.00   11.12
   2   0   5  500.08    7.72
   2   0   5  530.31    8.40
   2   0   5  502.46    8.09
  -2   0   5  502.25    8.58
  -2   0  -5  491.67   10.18
   2   0  -5  507.50    8.76
   2   0  -5  537.93   12.30
   2   0   6  943.03   13.03
  -2   0   6  893.11   13.18
  -2   0  -6  918.07   16.00
   2   0   6  890.10   12.64
   2   0  -6  899.44   13.20
   2   0   6  879.25   11.86
   2   0  -6  903.11   18.26
  -2   0   7  122.19    4.52
   2   0   7  113.52    4.23
   2   0   7  126.04    3.86
   2   0  -7  132.84    7.13
  -2   0  -7  119.26    5.88
   2   0   7  119.22    4.25
   2   0   7  125.00    4.32
   2   0   8 1391.54   18.85
  -2   0   8 1428.78   19.25
   2   0   8 1386.71   18.80
  -2   0  -8 1330.35   23.69
   2   0   8 1366.42   18.20
   2   0  -8 1382.70   26.80
   2   0   9   10.79    1.60
  -2   0   9    8.75    1.64
  -2   0  10  138.49    4.19
   2   0  10  133.07    4.65
  -2   0  10  130.75    4.60
   2   0  11  222.47    5.31
  -2   0  11  219.07    5.21
   2  -1  11   50.88    2.43
  -2   1  11   47.85    2.30
  -2   1  10   43.36    2.63
   2  -1  10   46.07    2.72
   2  -1  10   44.46    2.53
  -2   1   9  153.56    5.34
   2  -1   9  149.58    5.06
   2  -1   9  148.42    5.12
  -2   1   8   79.56    3.93
   2  -1   8   80.39    3.84
  -2  -1  -8   79.56    5.67
   2   1  -8   85.82    6.35
   2  -1   8   85.84    3.84
  -2   1   7   33.61    2.63
   2  -1   7   34.00    2.01
  -2  -1  -7   33.24    3.36
   2  -1   7   34.89    2.37
   2   1  -7   34.70    3.83
   2  -1   6  450.92    8.30
   2  -1   6  442.62    8.23
  -2   1   6  445.93    8.79
   2  -1   6  454.98    7.60
  -2  -1  -6  482.82   11.43
   2   1  -6  472.36   12.75
   2   1  -5 1287.14   20.94
  -2  -1  -5 1231.11   18.73
   2  -1   5 1309.95   15.40
   2  -1   5 1270.67   15.33
   2  -1   5 1245.05   14.65
  -2  -1  -4   43.28    2.74
   2   1  -4   40.45    3.10
  -2  -1  -3  467.71    8.84
   2   1  -3  474.21    9.76
   2   1  -2 2736.22   29.79
   2  -1   1  691.38    9.45
   2   1  -1  687.12   10.72
   2  -1   0  200.07    4.37
   2   1   0  199.93    5.03
  -2   1   0  205.32    4.09
   2   1   1  690.27   10.40
  -2   1  -1  691.56    7.54
   2  -1  -1  693.86    9.72
  -2   1  -1  691.80    9.49
   2  -1  -2 2700.89   28.30
  -2   1  -2 2738.10   25.52
   2  -1  -2 2713.82   28.12
   2   1   2 2785.85   28.87
   2  -1  -3  450.01    8.93
  -2   1  -3  463.74    7.12
   2  -1  -4   40.57    3.02
  -2   1  -4   47.98    2.48
  -2  -1   5 1276.58   15.84
   2   1   5 1300.11   15.57
   2   1   5 1257.37   15.01
  -2   1  -5 1323.10   17.86
   2  -1  -5 1243.68   20.60
   2  -1  -6  455.38   12.40
   2   1   6  466.74    8.53
   2   1   6  444.51    7.75
  -2   1  -6  457.76   10.48
  -2  -1   6  442.29    8.49
   2  -1  -7   28.63    3.64
  -2  -1   7   31.94    2.35
   2   1   7   37.14    2.56
   2   1   7   33.11    1.98
   2  -1  -7   32.21    2.62
   2   1   8   84.81    3.95
   2  -1  -8   89.79    6.38
  -2  -1   8   81.54    3.88
   2  -1  -8   77.06    3.86
   2   1   8   82.54    3.76
   2   1   9  157.62    5.38
   2   1   9  152.48    5.21
  -2  -1   9  153.64    5.31
   2   1  10   47.25    2.79
  -2  -1  10   50.90    2.88
   2   1  11   51.46    2.43
  -2  -1  11   45.78    2.33
   2  -2  10   43.52    2.53
  -2   2  10   36.65    2.36
   2  -2  10   35.67    2.44
  -2   2   9   82.77    3.94
   2  -2   9   83.55    3.73
   2  -2   9   77.62    3.77
  -2   2   8  306.37    7.91
   2  -2   8  297.19    7.35
   2  -2   7  451.30    8.93
  -2  -2  -7  451.39   12.63
  -2   2   7  469.03    9.76
   2  -2   6    2.77    1.03
  -2  -2  -6    2.79    1.71
  -2  -2  -5  322.29    8.96
   2  -2   5  325.91    6.04
  -2   2   5  317.62    5.73
   2  -2   5  329.28    6.48
   2  -2   4  568.38    8.44
   2  -2   4  565.13    8.10
  -2  -2  -4  580.44   11.52
   2   2  -4  544.48    9.17
  -2  -2  -3  162.40    5.39
   2   2  -3  165.20    5.81
   2   2  -3  155.82    3.67
   2   2  -2  142.32    4.91
   2   2  -2  138.61    2.74
   2   2  -1 1274.92   16.84
  -2   2   1 1257.41   15.48
   2  -2   0  149.05    3.26
   2   2   0  152.78    4.66
  -2   2   0  155.42    4.29
   2   2   1 1222.25   15.85
   2  -2  -1 1215.40   12.98
   2  -2  -1 1193.97   13.61
   2  -2  -2  148.46    4.08
   2  -2  -2  139.86    3.75
  -2   2  -2  145.09    4.67
   2   2   2  149.73    4.56
   2  -2  -3  162.67    5.23
   2  -2  -3  155.06    4.64
  -2   2  -3  155.99    5.36
  -2  -2   4  585.57    8.66
   2   2   4  588.51    8.62
   2  -2  -4  600.15   12.23
   2  -2  -4  573.55    8.22
   2   2   5  337.93    6.66
   2  -2  -5  317.12    9.61
  -2  -2   5  333.85    6.67
   2  -2  -5  326.78    6.07
   2   2   5  314.34    6.28
   2   2   6    4.40    0.93
   2   2   6    3.98    0.91
  -2  -2   6    4.32    0.98
   2  -2  -6    3.41    1.35
   2  -2  -7  455.59   13.66
   2   2   7  451.07    9.16
   2   2   7  434.03    8.15
  -2  -2   7  454.71    9.13
   2   2   8  323.05    7.96
   2  -2  -8  300.70    8.29
  -2  -2   8  312.76    7.70
   2   2   9   84.94    3.91
   2  -2  -9   83.12    4.11
   2   2   9   81.78    3.71
  -2  -2   9   83.75    3.89
   2   2  10   40.33    2.58
  -2  -2  10   40.98    2.55
   2   2  10   38.79    2.46
   2   2  11   76.82    2.84
  -2  -2  11   72.94    2.79
  -2   3  10   42.60    2.45
   2  -3  10   45.03    2.65
  -2   3   9   31.64    2.38
   2  -3   9   32.28    2.38
   2  -3   9   33.28    2.60
  -2   3   8   33.15    2.71
   2  -3   8   32.54    2.45
  -2   3   7  165.08    4.72
   2  -3   7  150.81    5.00
   2   3  -7  178.09    8.81
  -2  -3  -7  172.78    7.98
  -2   3   6   42.52    2.25
   2   3  -6   44.78    4.24
   2  -3   6   39.17    2.42
   2  -3   6   43.38    2.35
  -2  -3  -6   38.13    3.61
  -2   3   5   24.08    1.58
   2  -3   5   22.42    1.73
  -2  -3  -5   24.77    2.69
   2   3  -5   27.70    3.03
   2  -3   5   21.96    1.61
  -2   3   4  426.04    7.11
   2  -3   4  416.67    7.36
   2   3  -4  430.41   10.99
   2  -3   4  426.12    7.24
   2   3  -3  351.83    9.04
  -2  -3  -3  366.94    9.15
  -2   3   3  361.89    6.21
   2   3  -2  450.55    6.93
   2   3  -2  425.54    9.47
   2   3  -1  610.24   10.92
  -2   3   1  601.16   10.70
   2   3   0  240.83    6.20
  -2   3   0  239.07    6.29
   2   3   1  600.91   10.31
  -2   3  -1  601.13   10.90
   2  -3  -2  427.79    7.78
  -2   3  -2  430.10    9.42
   2  -3  -3  338.89    8.22
   2   3   3  348.98    6.27
  -2  -3   3  346.92    6.04
   2   3   4  422.63    7.45
   2  -3  -4  430.04   10.63
  -2   3  -4  430.54   10.80
   2   3   4  424.38    7.49
  -2  -3   4  426.90    7.38
   2  -3  -4  424.63    7.02
   2  -3  -5   23.87    2.96
   2   3   5   23.11    1.80
  -2   3  -5   21.01    2.76
  -2  -3   5   24.94    1.84
   2  -3  -5   23.35    1.60
   2   3   6   41.37    2.57
   2  -3  -6   43.92    4.02
   2   3   6   39.75    2.38
  -2  -3   6   45.88    2.68
  -2   3  -6   43.86    3.96
   2  -3  -7  157.18    8.09
   2   3   7  169.63    5.48
  -2   3  -7  168.16    8.26
   2   3   7  159.13    4.82
  -2  -3   7  161.16    5.31
  -2  -3   8   30.86    2.47
   2  -3  -8   32.46    3.01
   2   3   8   33.38    2.58
   2   3   9   29.88    2.41
   2  -3  -9   30.71    2.63
   2   3   9   27.72    2.18
  -2  -3   9   28.10    2.30
   2   3  10   37.81    2.36
   2   3  10   39.18    2.27
   2  -3 -10   37.22    2.40
  -2  -3  10   39.22    2.36
   2  -4  10  126.90    4.13
  -2   4   9  223.90    6.05
   2  -4   9  227.79    6.40
  -2   4   8  106.46    4.54
  -2   4   8  102.78    3.78
   2  -4   8  103.29    4.51
   2  -4   7  592.63   10.31
  -2   4   7  619.05   10.34
  -2  -4  -6   22.21    2.89
   2  -4   6   25.20    1.91
   2   4  -6   25.70    3.12
  -2   4   6   25.14    1.93
  -2   4   5  141.56    4.24
  -2  -4  -5  149.33    6.80
   2   4  -5  146.39    6.93
   2  -4   5  133.83    4.23
  -2   4   4  351.25    6.85
   2   4  -4  365.98   10.34
   2  -4   4  347.22    6.89
  -2  -4  -4  365.03   10.39
  -2   4   3  230.72    5.22
   2   4  -3  222.67    7.50
  -2  -4  -3  229.02    7.75
   2  -4   3  217.67    5.11
  -2   4   2  582.35    9.07
   2   4  -2  597.97   11.96
   2  -4   2  585.90    8.98
   2  -4   2  619.03    9.08
   2  -4   1 2193.35   23.12
  -2   4   1 2176.38   23.35
   2   4  -1 2209.00   26.78
   2   4  -1 2218.35   23.18
   2  -4   0    3.49    0.64
   2   4   0    1.62    0.54
   2   4   0    1.56    0.71
   2   4   0    2.50    0.76
   2   4   0    0.96    1.00
  -2   4   0    0.81    0.87
   2   4   1 2230.07   25.86
   2   4   1 2238.44   23.35
   2  -4  -1 2211.55   23.31
  -2   4  -1 2231.25   28.22
   2   4   1 2219.08   23.31
   2   4   2  612.70    9.24
   2   4   2  600.29    9.10
  -2   4  -2  609.69   12.65
  -2  -4   2  605.62    8.54
   2   4   3  224.57    5.23
  -2  -4   3  231.19    5.03
  -2   4  -3  231.02    7.79
   2   4   3  226.19    5.29
   2  -4  -4  330.87    6.39
   2   4   4  333.40    7.00
   2   4   4  351.82    7.05
  -2   4  -4  337.17   10.26
  -2  -4   4  347.63    6.85
   2   4   5  134.11    4.48
  -2  -4   5  136.22    4.44
   2   4   5  139.53    4.49
  -2   4  -5  132.29    6.75
   2  -4  -5  136.29    3.97
   2   4   6   25.17    2.00
  -2  -4   6   22.78    2.01
  -2   4  -6   19.28    2.98
   2   4   7  612.79   11.51
   2   4   7  593.70   10.43
  -2  -4   7  618.45   11.15
   2   4   8  101.46    4.32
   2  -4  -8  101.33    5.00
  -2  -4   8  104.49    4.24
   2   4   9  232.16    6.33
   2  -4  -9  221.46    6.75
   2   4   9  233.39    5.78
  -2  -4   9  229.02    6.01
   2   4  10  118.83    3.84
   2  -4 -10  116.89    4.13
  -2  -4  10  128.01    3.88
  -2   5   9   39.20    2.34
   2   5  -9   40.11    2.21
   2  -5   9   39.00    2.43
  -2   5   8   81.16    3.70
   2  -5   8   84.05    3.87
  -2   5   8   74.69    3.23
  -2   5   7   53.24    2.87
   2  -5   7   51.68    2.78
   2  -5   7   54.69    3.30
   2  -5   6  193.66    5.55
   2  -5   6  213.77    6.40
  -2   5   6  200.99    5.58
  -2   5   5  258.62    6.29
  -2  -5  -5  256.79    9.54
   2   5  -5  260.81    9.55
   2  -5   5  252.45    6.32
   2  -5   5  269.04    6.95
  -2   5   4  468.56    8.81
  -2  -5  -4  492.78   12.93
   2  -5   4  473.88    8.90
   2   5  -4  491.80   12.55
   2  -5   4  505.64    9.38
  -2  -5  -3  698.78   15.20
  -2   5   3  693.43   10.83
   2   5  -3  692.99   14.27
   2  -5   3  684.08   10.83
   2   5  -3  655.60   10.92
   2  -5   3  669.65   10.65
  -2  -5  -2   99.38    5.27
   2   5  -2  101.16    4.77
  -2   5   2  100.09    3.61
   2  -5   2  101.63    3.65
   2   5  -2   96.49    3.61
  -2   5   1  336.19    6.92
   2  -5   1  342.04    6.86
   2   5  -1  321.83    6.72
   2   5   0  680.72   10.71
  -2   5   0  721.40   10.97
  -2   5   0  747.40   14.88
   2  -5   0  708.43   10.75
   2   5   0  711.31   10.74
   2   5   1  335.42    6.89
  -2  -5   1  350.41    6.26
   2   5   1  330.37    6.85
   2  -5  -1  338.41    6.91
  -2   5  -1  348.80    9.96
   2   5   2   95.55    3.42
   2   5   2   99.82    3.62
  -2  -5   2  102.75    3.31
   2   5   2  103.67    3.68
  -2   5  -2  106.39    5.57
   2   5   3  678.08   10.71
  -2   5  -3  671.74   15.27
   2   5   3  674.11   10.94
  -2  -5   3  682.98   10.25
   2  -5  -4  485.23    8.20
   2   5   4  471.01    8.99
   2   5   4  464.21    8.95
  -2   5  -4  469.38   13.13
  -2  -5   4  475.00    8.60
   2   5   5  254.18    6.65
   2   5   5  253.34    6.55
  -2   5  -5  260.77   10.00
  -2  -5   5  257.77    6.37
   2   5   6  197.03    5.70
  -2  -5   6  195.80    5.72
  -2  -5   7   53.92    3.03
   2   5   7   51.13    3.15
   2   5   7   50.06    2.73
   2   5   8   80.54    3.73
   2  -5  -8   84.79    4.49
  -2  -5   8   85.91    3.67
   2   5   9   43.75    2.58
   2  -5  -9   40.02    2.80
  -2  -5   9   42.75    2.35
  -2   6   8  267.42    6.33
  -2   6   8  270.57    5.93
   2   6  -8  270.78    6.08
   2  -6   8  277.51    6.43
  -2   6   7  288.08    6.57
   2  -6   7  281.61    6.95
   2  -6   7  276.62    6.45
   2   6  -7  280.78    6.82
  -2   6   6  414.28    8.39
   2  -6   6  403.41    8.40
   2   6  -6  421.83    8.87
   2  -6   6  425.81    8.87
   2  -6   5  519.37    9.89
   2  -6   5  529.53    9.99
  -2   6   5  523.78    9.74
   2   6  -5  525.24   10.25
  -2   6   4  192.32    5.55
  -2  -6  -4  192.42    8.17
   2  -6   4  190.15    5.63
   2   6  -4  187.84    5.75
   2  -6   4  198.48    5.57
   2  -6   3   37.66    2.49
   2   6  -3   37.85    2.59
  -2   6   3   38.01    2.53
  -2  -6  -3   32.36    3.30
   2   6  -2  759.25   11.83
  -2  -6  -2  693.20   15.74
   2  -6   2  733.21   11.92
   2   6  -2  709.02   11.89
  -2   6   2  730.25   11.76
   2  -6   1   34.97    2.35
   2   6  -1   36.93    2.32
   2   6  -1   38.14    2.53
  -2   6   1   35.20    2.40
  -2  -6  -1   34.82    3.38
  -2   6   0  589.31   10.51
   2  -6   0  609.57   10.48
   2   6   0  603.05   10.42
   2   6   0  595.35   10.36
   2   6   1   36.81    2.36
  -2   6  -1   29.84    2.27
  -2   6  -1   35.93    3.53
   2   6   1   34.65    2.38
  -2  -6   1   37.62    2.07
   2  -6  -2  717.07   12.13
   2   6   2  734.75   11.89
  -2   6  -2  700.24   16.47
  -2  -6   2  720.86   10.91
   2   6   2  725.93   11.86
   2   6   2  752.10   11.41
   2   6   3   33.51    2.43
  -2   6  -3   35.77    3.89
   2   6   3   32.63    2.31
  -2  -6   3   36.63    2.28
  -2  -6   4  195.28    5.42
  -2   6  -4  190.37    8.63
   2   6   4  196.98    5.78
   2   6   4  195.10    5.65
   2   6   5  503.86    9.89
   2   6   5  511.97    9.93
  -2  -6   5  529.92    9.72
   2   6   6  397.83    8.41
  -2  -6   6  410.98    8.47
   2   6   7  280.02    7.08
   2   6   7  277.65    6.44
   2  -6  -7  291.43    8.22
  -2  -6   7  275.59    6.64
   2   6   8  295.66    6.78
  -2  -6   8  289.87    6.38
   2  -6  -8  290.88    7.57
   2   6   9   77.52    2.93
   2  -6  -9   75.74    3.28
  -2  -6   9   78.22    2.80
  -2   7   7   27.27    1.85
   2  -7   7   28.30    1.85
   2   7  -7   24.98    1.83
   2  -7   7   30.62    1.99
  -2   7   6  132.99    4.35
   2  -7   6  132.27    4.37
   2   7  -6  128.15    4.43
  -2   7   5   19.58    1.83
   2  -7   5   19.49    1.90
   2   7  -5   20.20    1.94
   2  -7   4  218.88    6.17
   2   7  -4  229.11    6.37
  -2   7   4  221.77    6.08
   2   7  -3   67.53    3.47
  -2   7   3   70.04    3.41
   2  -7   3   68.81    3.45
   2  -7   2    5.99    1.19
  -2   7   2    6.26    1.38
   2   7  -2    4.69    1.02
   2   7  -2    6.69    1.37
  -2   7   1   49.17    2.90
   2   7  -1   50.11    2.88
   2  -7   1   50.03    2.94
   2   7  -1   49.69    3.01
  -2  -7  -1   49.48    4.11
  -2   7   0   11.15    1.61
   2  -7   0   10.23    1.53
   2   7   0   11.66    1.73
   2   7   0    9.86    1.49
  -2  -7   0   13.99    2.16
   2   7   1   51.16    3.00
  -2   7  -1   48.75    2.95
   2   7   1   51.62    3.06
   2   7   2    6.94    1.20
  -2  -7   2    6.90    1.20
  -2   7  -2    5.46    1.29
   2   7   3   69.20    3.24
   2   7   3   72.35    3.54
  -2   7  -3   64.74    3.34
  -2  -7   3   67.84    3.13
   2   7   4  232.68    6.13
  -2   7  -4  217.56    6.15
   2   7   4  226.36    6.35
   2  -7  -4  234.77    6.86
  -2  -7   4  235.35    6.01
   2   7   5   20.97    1.93
   2  -7  -5   21.36    2.37
  -2  -7   5   19.34    1.78
  -2   7  -5   20.69    1.99
   2   7   5   21.30    1.90
   2   7   6  133.21    4.38
   2  -7  -6  136.84    5.21
  -2  -7   6  133.41    4.32
   2   7   7   25.46    2.00
   2   7   7   24.61    1.73
   2  -7  -7   25.05    2.18
  -2  -7   7   27.01    1.90
   2   7   8   23.25    1.69
  -2  -7   8   25.27    1.62
   2  -7  -8   21.66    1.82
  -2   8   6   45.12    2.27
   2   8  -6   44.71    2.25
   2  -8   6   44.00    2.21
  -2   8   5  112.77    3.83
   2  -8   5  108.77    3.81
   2   8  -5  108.44    3.79
  -2   8   4    6.08    1.19
   2   8  -4    5.91    1.21
   2  -8   4    4.29    1.10
  -2   8   3   27.20    2.15
  -2   8   3   29.83    2.00
   2  -8   3   30.35    2.33
   2   8  -3   28.92    2.30
   2   8  -2  282.78    6.60
   2  -8   2  293.44    7.18
   2   8  -2  288.00    7.12
  -2   8   2  291.05    7.00
   2  -8   1  404.30    8.72
   2   8  -1  409.11    8.74
   2   8  -1  415.13    8.47
  -2   8   1  406.25    8.55
  -2   8   0   19.07    1.78
   2   8   0   19.29    1.99
   2   8   0   20.15    2.03
   2   8   1  410.06    8.66
  -2   8  -1  404.14    8.50
  -2   8  -2  278.55    6.88
   2   8   2  299.26    7.25
  -2   8  -3   30.99    2.26
   2   8   3   32.70    2.35
  -2  -8   3   30.37    2.01
  -2  -8   4    5.93    1.09
  -2   8  -4    5.77    1.13
   2   8   4    5.19    1.22
   2   8   5  110.26    3.85
  -2  -8   5  103.95    3.54
   2   8   6   44.01    2.32
   2   8   6   45.49    2.21
  -2  -8   6   46.48    2.21
  -2   9   4  189.74    4.61
   2  -9   4  190.13    4.68
   2   9  -4  191.65    4.65
  -2   9   3   81.20    3.05
  -2   9   3   75.13    2.71
   2  -9   3   81.92    3.22
   2   9  -3   84.47    3.23
  -2   9   2  152.23    4.42
   2   9  -2  155.49    4.61
  -2   9   1   77.59    3.19
   2   9  -1   75.64    3.27
   2   9  -1   74.02    3.09
   2   9   0   98.02    3.72
  -2   9   0   96.05    3.60
  -2   9  -1   73.93    3.10
   2   9   1   76.84    3.28
   2   9   2  157.50    4.69
  -2   9  -2  141.87    4.16
   2   9   3   85.94    3.36
   2   9   4  199.24    4.91
   3   0   0   -0.20    1.04
   3   0   1 1922.00   23.22
   3   0  -1 1932.77   23.89
  -3   0  -1 1896.63   19.67
   3   0  -2  389.30    9.10
  -3   0  -2  409.49    7.56
   3   0   2  398.00    8.54
   3   0   3 1024.11   12.34
   3   0  -3 1024.22   17.14
   3   0   3 1000.12   12.15
  -3   0  -3  983.67   13.93
   3   0  -3 1018.74   12.15
   3   0  -3  993.75   13.53
   3   0  -3  988.56   11.96
   3   0   4 2974.20   29.49
  -3   0   4 2965.75   30.51
   3   0  -4 2969.55   31.53
   3   0   4 2997.13   29.80
   3   0   4 3006.21   29.83
   3   0  -4 2879.93   37.76
  -3   0  -4 3027.05   32.50
   3   0   4 2932.01   30.70
   3   0   5  261.47    5.79
   3   0  -5  267.75    6.69
  -3   0   5  267.30    6.33
   3   0  -5  246.49    9.93
   3   0   5  270.25    5.85
   3   0  -5  275.39    9.69
   3   0   5  259.18    5.89
  -3   0  -5  258.67    7.37
   3   0   5  258.64    6.31
   3   0   6   13.03    1.52
  -3   0   6   15.24    1.79
   3   0   6   15.35    1.66
   3   0   6   16.03    1.55
   3   0  -6   12.42    1.54
  -3   0  -6   17.18    2.14
   3   0   6   13.92    1.54
   3   0  -6   15.22    2.97
   3   0  -6   15.40    2.82
   3   0   7  212.93    5.93
  -3   0   7  198.18    6.14
   3   0   7  202.35    5.44
   3   0   7  201.23    5.82
   3   0  -7  203.34    6.17
   3   0  -7  197.63   10.42
   3   0   7  194.91    5.93
  -3   0   8  207.19    6.42
   3   0   8  197.68    5.31
   3   0   8  197.14    5.97
   3   0   8  189.73    5.73
   3   0   9   77.68    3.63
  -3   0   9   77.18    3.75
   3   0  10  130.67    4.32
  -3   0  10  138.85    4.57
   3  -1  10   36.60    2.28
  -3   1  10   42.31    2.48
  -3   1   9   37.23    2.71
   3  -1   9   38.16    2.61
   3  -1   9   37.32    2.59
  -3   1   8  311.49    8.06
   3  -1   8  286.04    7.28
   3  -1   8  290.17    7.73
  -3  -1  -7  123.49    6.32
  -3   1   7  137.36    5.18
   3  -1   7  132.36    4.28
   3  -1   7  138.34    4.79
   3   1  -7  129.85    8.56
   3  -1   7  132.95    5.19
  -3   1   6  248.65    6.73
   3  -1   6  241.46    5.72
   3  -1   6  237.81    6.06
   3  -1   6  235.16    6.87
  -3  -1  -6  231.64    8.02
  -3  -1  -5   93.41    4.65
   3  -1   5   93.61    3.33
   3   1  -5   88.85    6.01
   3  -1   5   96.03    3.48
   3  -1   5   96.21    4.14
   3  -1   4  693.32   10.08
  -3  -1  -4  713.56   13.01
   3   1  -4  706.73   15.69
   3  -1   4  685.96    9.90
   3  -1   4  708.03   11.34
  -3  -1  -3  327.96    7.84
   3  -1   3  325.34    5.78
   3   1  -3  314.57    9.06
   3   1  -3  329.99    5.87
   3  -1   3  315.21    6.50
   3   1  -2  286.56    7.99
   3  -1   1  230.38    5.86
   3   1  -1  236.86    6.90
   3  -1   0  834.51   12.76
   3   1   0  874.75   14.20
  -3   1   0  858.11   10.99
   3   1   1  236.87    6.59
   3  -1  -1  222.74    6.04
  -3   1  -1  230.28    5.25
   3  -1  -2  267.26    7.02
  -3   1  -2  262.93    4.76
  -3   1  -2  286.55    6.61
   3   1   2  297.40    7.47
   3   1   3  328.08    5.95
   3  -1  -3  315.29    6.95
   3  -1  -3  317.36    8.31
   3   1   3  320.69    5.86
   3  -1  -3  312.84    8.23
   3  -1  -3  324.25    5.75
  -3  -1   4  693.37   10.18
   3   1   4  678.53    9.72
   3   1   4  689.49   10.10
   3  -1  -4  681.46   14.24
   3  -1  -4  691.79   11.71
   3   1   4  686.06    9.86
   3  -1  -4  716.60    9.76
   3  -1  -4  690.65   14.47
   3   1   4  673.98   10.00
   3   1   4  683.12    9.90
   3  -1  -4  681.88    9.77
  -3  -1   5   92.47    3.56
   3   1   5   98.30    3.47
   3   1   5   93.74    3.43
   3   1   5   99.53    3.58
   3  -1  -5   99.06    4.33
   3  -1  -5  102.99    5.96
   3  -1  -5   92.81    5.80
   3   1   5   93.01    3.39
  -3  -1   6  246.28    6.36
   3   1   6  234.92    5.81
   3   1   6  243.71    6.13
   3  -1  -6  237.38    7.03
   3  -1  -6  242.43   10.17
   3   1   6  248.11    6.26
   3  -1  -6  260.43   10.46
   3   1   6  230.59    5.78
  -3  -1   7  130.32    4.81
   3   1   7  135.96    4.77
   3   1   7  124.75    4.63
   3  -1  -7  125.54    5.18
   3  -1  -7  125.16    8.13
   3  -1  -7  137.64    8.10
   3   1   7  128.77    4.34
   3   1   8  294.44    7.44
   3   1   8  300.51    7.43
   3  -1  -8  287.51    7.87
   3   1   8  294.75    6.66
  -3  -1   8  297.31    7.62
   3   1   9   36.29    2.54
  -3  -1   9   41.12    2.80
   3   1  10   37.83    2.29
  -3  -1  10   41.36    2.54
   3  -2  10    3.05    0.93
  -3   2  10    2.57    1.01
  -3   2   9  124.17    4.74
   3  -2   9  115.05    4.63
   3  -2   9  122.26    4.46
  -3   2   8  183.58    6.18
   3  -2   8  184.09    6.35
   3  -2   8  186.24    5.74
  -3   2   7  257.78    7.33
   3  -2   7  237.25    6.48
   3   2  -7  255.59   11.68
  -3  -2  -7  226.75    8.95
   3  -2   7  248.21    7.65
   3  -2   6  503.49    8.92
   3  -2   6  459.81   10.78
   3   2  -6  557.29   16.42
   3  -2   6  522.36    9.54
  -3  -2  -6  502.02   12.86
  -3  -2  -5   84.78    4.82
   3  -2   5   77.25    3.06
   3   2  -5   80.89    5.60
   3  -2   5   82.29    3.29
   3  -2   4   14.25    1.32
   3  -2   4   14.21    1.34
   3   2  -4   13.54    2.21
  -3  -2  -4   14.14    2.14
   3  -2   4   13.43    1.71
   3  -2   3 1966.62   20.75
   3  -2   3 1946.52   22.47
   3   2  -3 1978.38   27.74
  -3  -2  -3 1923.36   25.98
   3  -2   2  988.66   11.93
   3   2  -2 1012.05   17.05
   3   2  -2 1001.61   11.97
   3  -2   2  996.89   13.06
   3   2  -1   87.14    4.36
   3  -2   0  536.44    8.83
  -3   2   0  545.99    9.43
   3   2   0  531.91   10.94
   3   2   1   80.82    3.94
   3  -2  -1   77.63    3.12
  -3   2  -1   75.95    3.47
   3   2   2  974.94   15.71
   3   2   2  979.61   12.49
   3   2   2  980.77   12.22
   3  -2  -2  989.83   13.83
   3   2   2  984.21   12.30
   3  -2  -2 1009.49   14.31
  -3   2  -2  992.37   15.29
   3  -2  -3 1930.01   20.75
   3  -2  -3 1871.13   23.81
   3   2   3 1963.44   21.08
   3  -2  -3 1997.38   23.64
   3  -2  -3 1898.88   24.76
   3   2   3 1922.37   20.93
  -3   2  -3 2000.86   25.60
  -3  -2   3 1906.53   20.26
   3   2   4   12.63    1.27
   3   2   4   12.62    1.29
   3  -2  -4   18.17    2.00
   3  -2  -4   16.42    2.04
   3  -2  -4   14.46    1.20
   3   2   4   14.97    1.45
  -3   2  -4   16.75    2.27
   3  -2  -4   18.82    2.64
   3  -2  -4   14.63    1.32
  -3  -2   4   14.89    1.42
   3   2   5   73.41    3.09
   3   2   5   71.94    3.14
   3  -2  -5   87.29    4.42
   3   2   5   76.50    3.23
   3  -2  -5   76.80    4.67
  -3   2  -5   80.17    4.94
   3  -2  -5   67.96    4.89
   3  -2  -5   81.26    3.13
  -3  -2   5   76.15    3.18
   3   2   6  525.76    9.70
   3   2   6  530.97    9.78
   3  -2  -6  529.71   11.78
   3   2   6  514.57    9.42
   3  -2  -6  497.71   15.08
  -3   2  -6  518.02   13.93
  -3  -2   6  510.19    9.59
   3   2   7  261.76    6.86
   3   2   7  242.63    6.20
   3   2   7  245.09    6.60
   3  -2  -7  250.19    7.94
   3  -2  -7  237.25   10.68
  -3   2  -7  248.69    9.96
  -3  -2   7  242.58    6.65
   3   2   8  186.75    5.84
   3   2   8  183.30    5.19
   3   2   8  183.81    5.70
   3  -2  -8  179.22    6.49
  -3  -2   8  186.88    5.87
   3   2   9  115.17    4.41
   3   2   9  116.49    4.23
   3  -2  -9  116.00    4.57
  -3  -2   9  121.22    4.53
  -3  -2  10    2.40    0.89
   3   2  10    4.75    0.95
  -3   3  10   17.55    1.50
   3  -3  10   15.29    1.57
  -3   3   9   30.14    2.31
   3  -3   9   29.15    2.45
  -3   3   8   20.55    2.28
   3  -3   8   16.63    2.19
   3  -3   7   23.81    2.50
  -3  -3  -6  249.95    9.39
   3   3  -6  260.86   11.00
   3  -3   6  262.61    8.02
  -3  -3  -5  190.98    7.73
   3   3  -5  195.35    8.77
   3  -3   5  182.75    6.38
  -3   3   4   16.76    1.33
   3   3  -4   17.36    1.60
   3   3  -4   21.25    2.90
   3  -3   4   15.02    1.94
  -3  -3  -4   20.43    2.63
  -3   3   3  218.02    4.85
   3   3  -3  216.35    5.19
   3   3  -3  213.33    7.98
  -3  -3  -3  225.78    7.80
   3  -3   3  231.34    5.96
   3   3  -2  114.85    5.46
   3   3  -2  114.46    3.57
   3  -3   2  124.34    3.93
  -3   3   2  114.71    3.42
   3   3  -1  520.65   11.57
   3   3  -1  504.80    8.15
   3  -3   1  514.90    8.27
   3   3   0  416.16    9.85
   3   3   0  389.91    6.92
  -3   3   0  403.20    8.99
   3   3   1  517.07   10.93
   3   3   1  497.75    7.98
   3  -3  -1  500.48    8.86
   3   3   1  514.21    8.10
  -3   3  -1  512.30   10.67
   3   3   2  118.09    3.63
   3   3   2  115.65    3.60
   3   3   2  115.73    3.29
  -3   3  -2  118.12    5.07
   3  -3  -2  113.61    4.25
   3   3   2  118.51    4.96
   3   3   3  221.46    5.18
   3  -3  -3  220.74    6.67
   3   3   3  227.18    5.37
  -3   3  -3  220.27    7.54
  -3  -3   3  223.70    4.86
   3   3   4   18.31    1.58
   3  -3  -4   16.14    2.33
   3   3   4   17.96    1.64
  -3   3  -4   19.09    2.38
  -3  -3   4   18.19    1.56
   3  -3  -4   18.25    1.49
   3   3   5  190.22    5.30
   3   3   5  186.35    5.37
   3  -3  -5  190.02    7.22
  -3   3  -5  198.39    8.22
  -3  -3   5  196.79    5.34
   3  -3  -5  196.56    5.11
   3   3   5  199.80    4.91
   3   3   6  261.46    6.71
  -3   3  -6  276.05   10.33
   3   3   6  268.23    6.69
   3  -3  -6  266.15    8.83
  -3  -3   6  253.23    6.56
   3   3   7   22.64    2.13
   3   3   7   16.79    1.90
   3  -3  -7   17.35    2.38
   3   3   7   19.99    1.78
  -3  -3   7   20.11    1.97
   3   3   8   18.33    2.02
   3   3   8   17.72    1.71
   3  -3  -8   16.78    2.24
   3   3   8   18.46    1.79
  -3  -3   8   16.97    1.98
   3   3   9   28.85    2.23
   3   3   9   27.05    1.97
   3  -3  -9   29.52    2.45
  -3  -3   9   27.20    2.11
  -3  -3  10   16.71    1.47
  -3   4   9  119.93    4.27
   3  -4   9  124.95    4.53
  -3   4   8  209.27    6.37
   3  -4   8  219.00    6.74
   3  -4   7   52.97    3.57
  -3   4   6  154.59    4.55
   3  -4   6  163.93    6.17
   3   4  -5  332.47   11.67
  -3   4   5  328.65    6.78
  -3  -4  -5  338.92   11.23
   3  -4   5  348.98    8.85
   3   4  -4   64.28    4.79
   3   4  -4   68.72    2.94
   3  -4   4   70.28    3.13
  -3   4   4   70.60    2.97
   3  -4   4   73.18    3.71
  -3  -4  -4   68.31    4.69
   3   4  -3  808.30   11.62
  -3   4   3  821.24   11.66
   3  -4   3  792.05   11.88
  -3  -4  -3  828.52   17.15
   3  -4   3  802.13   12.73
   3   4  -3  773.55   16.68
   3   4  -2  223.02    5.27
   3   4  -2  230.72    8.07
   3  -4   2  216.34    5.28
   3   4  -2  231.62    5.58
  -3   4   2  224.75    5.38
   3  -4   2  224.87    5.60
   3   4  -1   24.04    2.54
  -3   4   1   22.26    1.71
   3   4  -1   26.45    1.68
   3   4  -1   21.12    1.59
   3  -4   1   23.07    1.65
   3   4  -1   19.23    1.64
   3  -4   1   24.75    1.75
   3   4   0  332.34    9.12
   3   4   0  314.32    6.58
   3   4   0  323.54    6.46
   3  -4   0  304.90    6.28
  -3   4   0  339.88    9.14
   3   4   0  322.29    6.45
   3   4   1   22.73    2.33
   3  -4  -1   21.68    1.89
   3   4   1   22.60    1.70
  -3   4  -1   27.17    2.67
   3   4   1   22.07    1.67
   3   4   2  210.73    5.26
   3  -4  -2  235.87    6.51
   3   4   2  224.97    5.23
   3   4   2  224.74    5.62
  -3   4  -2  225.89    7.89
   3   4   3  791.64   12.34
   3   4   3  820.77   11.65
   3  -4  -3  796.62   14.39
  -3   4  -3  836.80   16.82
  -3  -4   3  821.29   11.19
   3  -4  -4   69.78    3.06
   3   4   4   71.89    3.29
   3  -4  -4   63.89    4.18
  -3   4  -4   72.55    5.04
   3   4   4   72.01    2.90
  -3  -4   4   70.06    2.97
   3   4   5  328.21    7.45
   3   4   5  329.54    7.60
   3  -4  -5  321.74    9.86
  -3   4  -5  334.31   11.27
  -3  -4   5  323.71    7.13
   3  -4  -5  321.80    6.92
   3   4   6  153.25    5.20
   3   4   6  164.21    5.37
   3  -4  -6  161.29    6.94
  -3  -4   6  162.38    5.13
   3   4   7   46.66    2.92
   3   4   7   51.87    2.94
   3  -4  -7   49.50    3.87
  -3  -4   7   48.65    2.94
   3   4   8  208.56    6.07
   3   4   8  211.67    5.48
   3  -4  -8  214.21    7.23
  -3  -4   8  219.80    5.96
   3   4   9  122.83    4.18
  -3  -4   9  128.51    4.15
   3  -4  -9  127.11    4.86
  -3   5   9   55.25    2.64
   3   5  -9   54.28    2.46
   3  -5   9   61.56    2.87
  -3   5   8   39.51    2.65
   3   5  -8   37.04    2.46
   3  -5   8   36.20    2.57
  -3   5   7  103.18    3.62
   3  -5   7  106.31    4.59
  -3   5   6   50.27    2.63
   3  -5   6   55.45    3.55
  -3   5   5  197.77    5.38
   3  -5   5  192.37    5.64
   3  -5   5  198.50    6.36
  -3   5   4  167.12    4.96
   3   5  -4  152.26    7.45
   3  -5   4  152.25    4.98
   3   5  -4  166.72    5.44
  -3  -5  -4  153.45    7.65
   3  -5   4  175.10    5.67
  -3   5   3  225.12    5.80
   3   5  -3  230.37    8.84
  -3  -5  -3  233.75    9.11
   3   5  -3  226.63    5.49
   3  -5   3  219.53    5.90
   3   5  -3  217.23    6.07
   3  -5   3  226.22    6.11
  -3   5   2  880.10   13.03
   3   5  -2  876.61   12.43
  -3  -5  -2  856.16   18.30
   3  -5   2  857.19   12.97
   3   5  -2  888.89   13.20
   3   5  -2  879.92   17.33
   3  -5   2  849.78   12.68
   3   5  -1  307.83    9.25
   3   5  -1  329.77    6.82
   3  -5   1  306.50    6.91
   3   5  -1  327.99    7.09
  -3   5   1  324.87    7.14
   3   5   0  297.00    8.64
   3   5   0  287.22    6.98
  -3   5   0  285.77    6.76
   3  -5   0  293.12    6.60
   3   5   0  286.53    6.57
   3   5   1  326.76    7.49
   3  -5  -1  320.07    7.38
  -3   5  -1  340.38   10.36
   3   5   1  322.34    6.99
   3   5   1  328.31    8.84
   3   5   2  899.72   13.73
   3   5   2  867.23   12.66
   3  -5  -2  874.65   14.29
   3   5   2  884.29   12.95
  -3   5  -2  918.05   18.46
   3   5   3  222.40    5.42
   3   5   3  222.94    6.21
   3  -5  -3  222.09    7.11
  -3   5  -3  219.05    8.84
  -3  -5   3  223.92    5.30
   3  -5  -4  161.26    4.78
   3   5   4  165.00    5.37
   3  -5  -4  155.64    6.48
  -3   5  -4  154.39    7.63
  -3  -5   4  159.07    4.66
   3   5   5  193.80    5.94
   3  -5  -5  197.12    7.53
  -3  -5   5  190.37    5.37
   3  -5  -5  196.83    5.30
   3   5   6   50.87    3.07
   3   5   6   54.33    3.16
   3  -5  -6   53.17    3.96
  -3  -5   6   48.61    2.76
   3   5   7  104.12    4.21
   3  -5  -7  111.95    5.46
   3   5   7  108.45    4.10
  -3  -5   7  102.34    3.95
   3   5   8   35.49    2.32
   3  -5  -8   34.25    2.72
   3   5   8   33.45    2.13
  -3  -5   8   37.56    2.27
   3   5   9   51.80    2.47
   3  -5  -9   56.52    3.05
  -3  -5   9   58.24    2.48
  -3   6   8   21.56    1.79
   3   6  -8   26.04    1.82
   3  -6   8   27.12    1.88
   3   6  -7  566.35    9.92
   3  -6   7  553.86    9.97
  -3   6   6  161.98    4.73
   3  -6   6  146.63    4.53
   3   6  -6  156.47    5.19
   3  -6   6  158.92    5.22
  -3   6   5  247.95    6.17
   3  -6   5  254.22    6.51
   3   6  -5  254.52    6.90
   3  -6   5  262.22    6.87
  -3   6   4  625.79   10.85
   3  -6   4  630.66   11.16
   3   6  -4  619.70   11.45
   3  -6   4  616.54   11.02
  -3   6   3  358.51    7.87
   3  -6   3  351.09    7.95
   3   6  -3  369.84    8.35
  -3   6   2  984.85   14.57
   3  -6   2  968.51   14.68
   3   6  -2  996.70   14.97
  -3  -6  -2  963.15   20.21
  -3   6   1  694.00   11.83
   3   6  -1  690.36   12.13
   3  -6   1  697.10   11.82
   3   6  -1  709.62   11.93
  -3   6   0    0.07    0.95
   3   6   0   -0.57    0.79
   3   6   0    1.85    1.03
  -3   6  -1  718.27   12.31
   3   6   1  721.79   12.59
  -3   6  -1  707.69   16.82
   3   6   1  693.81   11.78
  -3   6  -2  966.22   20.47
   3   6   2  970.93   14.57
   3   6   3  365.44    8.45
   3  -6  -3  350.53    8.85
  -3   6  -3  357.82   12.05
   3   6   4  638.42   11.67
   3  -6  -4  636.67   12.91
  -3  -6   4  625.19   10.28
   3  -6  -4  635.30   10.39
   3   6   5  261.44    6.90
   3  -6  -5  264.34    8.17
  -3  -6   5  257.13    6.19
   3  -6  -5  242.69    5.75
   3   6   6  157.38    5.10
   3   6   6  161.37    5.16
   3  -6  -6  158.05    6.18
  -3  -6   6  157.70    4.78
   3   6   7  546.88    9.68
   3   6   7  540.53    9.36
   3  -6  -7  544.42   11.36
  -3  -6   7  538.87    9.12
   3   6   8   27.01    1.91
   3  -6  -8   25.45    2.32
  -3  -6   8   24.66    1.62
   3   7  -7   79.69    3.01
  -3   7   6   62.96    2.75
   3   7  -6   63.86    3.00
  -3   7   5   60.36    2.89
   3  -7   5   56.45    2.87
  -3   7   4   50.41    2.76
   3  -7   4   47.54    2.81
   3   7  -4   53.33    2.95
  -3   7   3  103.82    4.09
   3  -7   3   98.08    4.10
   3   7  -3  101.42    4.27
  -3   7   2  225.48    6.28
   3  -7   2  218.30    6.27
   3   7  -2  220.51    6.35
  -3   7   1   53.40    3.12
   3   7  -1   54.58    3.13
   3   7  -1   52.13    3.15
   3   7   0  194.16    6.03
   3   7   0  185.43    5.81
  -3   7   0  193.35    5.93
   3   7   1   55.04    3.30
  -3   7  -1   53.51    3.12
   3   7   1   51.43    3.02
   3   7   2  233.03    6.68
  -3   7  -2  217.87    6.36
  -3   7  -3  103.45    4.31
   3   7   3   99.45    4.29
   3   7   4   51.88    3.05
   3  -7  -4   51.12    3.22
  -3   7  -4   54.16    3.10
  -3   7  -5   59.64    3.11
   3   7   5   64.29    3.20
   3  -7  -5   64.41    3.54
  -3  -7   5   65.21    2.76
   3   7   6   67.48    3.02
  -3   7  -6   61.79    2.88
   3   7   6   67.94    3.08
   3  -7  -6   71.41    3.60
  -3  -7   6   67.23    2.74
   3   7   7   78.92    2.94
   3   7   7   71.20    2.77
   3  -7  -7   74.05    3.35
  -3   8   5   50.25    2.36
   3   8  -5   48.79    2.51
  -3   8   4   93.34    3.39
   3  -8   4   88.72    3.36
   3   8  -4   88.23    3.59
  -3   8   3  447.69    8.47
   3  -8   3  434.53    8.46
  -3   8   2  129.51    4.43
   3   8  -2  136.57    4.76
   3   8  -1   84.81    3.76
   3   8  -1   86.69    3.57
  -3   8   1   87.62    3.71
  -3   8   0  296.14    7.06
   3   8   0  298.15    7.13
   3   8   0  283.79    7.01
  -3   8  -1   83.14    3.70
   3   8   1   91.33    3.88
   3   8   2  133.42    4.69
  -3   8  -2  123.37    4.43
  -3   8  -3  435.59    8.57
   3   8   3  447.91    8.91
  -3   8  -4   88.46    3.46
   3   8   4   92.35    3.68
   3   8   5   52.33    2.61
  -3   8  -5   48.35    2.36
  -3   9   3   66.52    2.56
   3   9  -3   73.89    2.86
  -3   9   2   74.44    2.90
   3   9  -2   76.18    3.05
  -3   9   1   54.62    2.57
  -3   9   0  209.85    5.14
   3   9   0  219.22    5.20
  -3   9  -1   49.46    2.45
   3   9   1   55.13    2.58
  -3   9  -2   73.36    2.82
   3   9   2   73.03    2.97
   3   9   3   71.04    2.83
  -3   9  -3   68.71    2.60
   4   0   0   23.81    2.59
   4   0   0   19.90    1.54
   4   0   0   22.01    1.84
   4   0   1  341.60    8.89
   4   0  -1  328.80    9.09
   4   0   1  325.11    5.81
   4   0   1  324.91    6.17
   4   0  -1  310.64    5.93
   4   0   1  331.85    6.72
   4   0  -1  321.54    6.91
   4   0   1  309.11    6.01
   4   0  -1  325.72    6.31
   4   0   1  329.51    6.58
   4   0  -1  320.12    5.62
   4   0   2 2033.27   21.72
   4   0   2 2044.58   22.04
   4   0  -2 2023.75   23.56
   4   0   2 1983.96   21.45
   4   0  -2 2053.94   28.37
   4   0  -2 2044.91   22.07
   4   0   2 2023.11   22.85
   4   0   2 2090.47   27.02
   4   0  -2 2050.17   21.43
  -4   0   3 5378.68   50.60
   4   0   3 5404.23   50.83
   4   0  -3 5383.49   59.70
   4   0  -3 5333.55   52.84
   4   0  -3 5388.20   50.66
   4   0   3 5511.74   50.80
   4   0   3 5334.83   52.01
   4   0  -3 5440.74   50.34
  -4   0   4   41.45    2.42
   4   0   4   37.84    2.25
   4   0   4   44.33    2.34
   4   0  -4   40.71    4.08
   4   0  -4   45.58    2.44
   4   0   4   42.32    2.60
  -4   0   5  589.34   10.43
   4   0   5  581.58   10.17
   4   0   5  593.67   10.27
   4   0  -5  564.92   16.54
   4   0   5  585.19   10.91
  -4   0   6  821.26   13.29
   4   0   6  808.51   12.71
   4   0   6  829.47   13.22
   4   0   6  794.83   13.52
  -4   0   7  228.34    6.59
   4   0   7  217.77    5.94
   4   0   7  209.90    6.22
   4   0  -7  211.07    6.34
   4   0   7  207.61    6.31
  -4   0   8  145.06    5.13
   4   0   8  135.86    4.47
   4   0   8  140.19    4.94
   4   0   8  133.85    4.74
   4   0   9  149.28    4.72
  -4   0   9  145.89    4.82
  -4   0  10   16.97    1.50
  -4   1  10   69.08    2.86
  -4   1   9   19.47    1.92
   4  -1   9   16.80    1.68
  -4   1   8  103.19    4.36
   4  -1   8   93.23    4.26
  -4   1   7  197.74    6.29
   4  -1   7  185.87    5.44
   4  -1   7  193.89    5.95
   4  -1   7  193.62    6.61
  -4   1   6  468.02    9.83
   4  -1   6  453.76    8.90
   4  -1   6  463.27    9.34
   4   1  -6  459.78    9.28
   4   1  -6  437.03   16.18
   4  -1   6  462.62   10.61
  -4   1   5    9.63    1.56
   4  -1   5   10.21    1.47
   4   1  -5   12.54    1.43
   4  -1   5    8.50    1.27
   4   1  -5   11.05    3.09
   4  -1   5    9.64    1.65
   4  -1   4  214.88    5.39
   4   1  -4  211.13    5.89
   4   1  -4  224.95    9.72
  -4  -1  -4  218.79    7.16
   4  -1   4  212.18    6.33
  -4  -1  -3   71.58    3.90
   4  -1   3   66.20    2.75
   4   1  -3   60.30    4.48
   4   1  -3   64.91    3.17
   4   1  -3   59.23    2.65
   4  -1   3   62.37    3.12
   4  -1   2  211.53    4.80
   4   1  -2  207.46    5.49
   4   1  -2  226.84    8.15
  -4  -1  -2  208.05    6.75
   4   1  -2  210.33    4.94
   4  -1   2  213.16    4.78
   4  -1   2  217.71    5.64
   4  -1   1  404.23    9.36
   4  -1   1  407.58    6.62
   4  -1   1  402.58    7.52
   4   1  -1  396.04    7.66
   4   1  -1  412.97   10.78
   4   1  -1  397.74    7.06
   4  -1   1  391.95    6.61
   4  -1   1  410.06    7.63
   4   1  -1  387.06    6.16
   4  -1   0 1428.98   20.23
   4   1   0 1446.69   21.95
   4  -1   0 1373.42   15.59
   4   1   0 1421.22   17.31
   4  -1   0 1415.84   17.48
   4   1   0 1387.24   16.82
   4   1   0 1418.27   16.55
   4  -1   0 1393.31   16.88
   4   1   1  394.25   10.21
   4  -1  -1  399.19    9.65
   4   1   1  389.10    6.65
   4   1   1  386.14    7.19
   4  -1  -1  388.06    7.87
   4   1   1  385.77    7.05
   4  -1  -1  399.32    7.19
   4   1   1  393.06    7.17
   4  -1  -2  210.05    7.18
   4   1   2  215.31    5.20
   4   1   2  211.86    4.93
   4  -1  -2  212.99    4.99
   4   1   2  206.56    5.08
   4   1   2  212.46    4.92
   4   1   2  208.60    7.22
   4  -1  -2  210.61    4.80
   4   1   3   63.46    2.81
   4  -1  -3   59.35    4.13
   4  -1  -3   69.52    2.81
   4   1   3   65.89    2.92
  -4   1  -3   63.02    3.56
   4   1   3   65.18    2.83
   4  -1  -3   62.73    2.64
  -4  -1   4  217.28    5.35
   4   1   4  212.57    5.51
   4   1   4  219.87    5.48
   4  -1  -4  210.68    8.29
   4  -1  -4  222.44    6.90
   4  -1  -4  221.85    5.32
   4   1   4  215.17    5.57
  -4   1  -4  212.46    7.33
   4  -1  -4  210.20    5.29
  -4  -1   5   11.07    1.34
   4   1   5   10.16    1.19
   4   1   5    9.03    1.36
   4  -1  -5   10.64    1.89
   4   1   5    9.79    1.31
  -4   1  -5   10.44    1.96
  -4  -1   6  466.64    9.22
   4   1   6  458.00    8.79
   4   1   6  454.32    9.11
   4   1   6  449.01    9.24
   4  -1  -6  471.00   15.05
   4   1   6  449.98    8.98
  -4   1  -6  421.40   12.44
   4   1   7  185.06    5.56
   4   1   7  191.52    5.66
   4   1   7  193.67    5.95
  -4  -1   7  198.58    5.92
   4   1   8   91.61    3.74
   4   1   8   92.84    3.94
  -4  -1   8   97.21    4.09
   4   1   9   17.22    1.43
   4   1   9   18.46    1.68
  -4  -1   9   19.07    1.88
  -4  -1  10   73.48    2.88
  -4   2   9  122.02    4.33
   4  -2   9  113.80    4.24
  -4   2   8   98.45    4.30
   4  -2   8   93.64    4.49
  -4   2   7  166.22    5.83
   4  -2   7  153.92    6.25
   4  -2   6   61.80    3.11
  -4   2   6   62.04    3.66
   4   2  -6   64.36    6.53
   4  -2   6   60.47    4.04
  -4  -2  -6   54.95    4.28
   4  -2   5   51.19    2.81
  -4  -2  -5   48.83    3.84
   4   2  -5   55.03    5.31
   4  -2   5   45.96    3.39
   4  -2   4  368.04    7.50
   4   2  -4  388.74    7.82
   4   2  -4  389.34   13.02
  -4  -2  -4  369.30   10.51
   4  -2   4  372.70    9.08
   4  -2   3   41.58    2.24
   4   2  -3   37.60    2.35
   4   2  -3   34.37    2.14
   4   2  -3   37.47    3.72
   4  -2   3   40.99    2.76
   4  -2   2  266.20    5.56
   4   2  -2  268.90    6.18
   4   2  -2  266.24    6.26
   4   2  -2  264.18    5.62
   4   2  -2  253.36    9.07
   4  -2   2  264.66    6.49
   4  -2   1  461.62    7.44
   4   2  -1  471.23   12.00
   4  -2   1  476.36    8.38
   4   2  -1  453.58    8.35
   4   2  -1  455.82    7.64
   4  -2   1  465.72    8.51
   4  -2   0   50.39    3.04
   4   2   0   47.38    3.76
   4  -2   0   50.50    2.69
   4   2   0   49.44    2.54
   4   2   0   49.20    2.25
   4   2   0   54.47    2.20
   4  -2   0   49.48    2.47
   4   2   1  476.42   11.64
   4  -2  -1  458.99    9.68
   4   2   1  466.35    7.77
   4  -2  -1  458.68    8.89
   4   2   1  455.93    8.14
   4   2   1  455.33    7.63
   4  -2  -1  472.41    8.10
   4   2   1  471.45    8.44
   4  -2  -2  257.52    7.40
   4   2   2  269.03    6.14
   4   2   2  270.33    5.89
   4   2   2  257.41    5.77
  -4   2  -2  275.01    7.62
   4  -2  -2  270.18    5.71
   4   2   2  274.60    5.68
   4   2   2  276.63    8.63
   4   2   3   36.24    2.19
   4   2   3   39.80    2.41
   4  -2  -3   39.72    2.93
   4  -2  -3   38.93    2.17
  -4   2  -3   32.80    2.86
   4   2   3   36.02    1.99
   4  -2  -3   38.91    2.21
   4  -2  -4  386.46    9.96
   4   2   4  366.26    7.75
   4   2   4  382.38    7.56
   4  -2  -4  380.83    7.13
  -4   2  -4  374.07   10.55
   4  -2  -4  386.74    7.58
  -4  -2   4  381.76    7.25
   4   2   5   54.95    2.75
   4   2   5   51.07    2.95
   4  -2  -5   54.77    3.98
  -4   2  -5   48.62    3.90
   4  -2  -5   56.45    2.88
  -4  -2   5   54.28    2.81
   4   2   6   57.57    2.97
   4   2   6   58.44    3.19
   4  -2  -6   59.33    4.22
  -4   2  -6   59.51    4.79
  -4  -2   6   61.01    3.17
   4   2   7  166.78    5.27
   4   2   7  163.52    5.28
   4  -2  -7  163.33    6.60
  -4  -2   7  174.08    5.48
   4   2   8   90.93    3.80
   4   2   8   97.83    3.79
  -4  -2   8   98.45    4.02
   4   2   9  114.56    3.55
   4  -2  -9  121.17    4.33
  -4  -2   9  127.40    4.22
  -4   3   9    5.36    1.03
   4  -3   9    4.87    1.08
  -4   3   8    5.39    1.24
   4  -3   8    6.07    1.70
  -4   3   7   30.66    2.66
   4  -3   7   29.36    2.98
   4   3  -6   22.65    2.06
   4  -3   6   23.33    2.73
  -4  -3  -5  272.97    9.81
   4   3  -5  287.55   11.79
   4   3  -5  271.79    6.91
   4  -3   5  275.50    8.54
   4   3  -4  151.27    8.10
   4   3  -4  156.15    5.05
   4  -3   4  160.25    6.04
  -4  -3  -4  152.83    7.21
   4   3  -3   40.85    4.21
   4   3  -3   43.82    2.69
  -4  -3  -3   48.47    3.98
   4  -3   3   46.48    3.08
  -4   3   2   59.74    2.64
   4   3  -2   62.91    4.63
   4   3  -2   58.70    2.95
   4  -3   2   57.84    3.14
   4   3  -1  315.05    9.98
  -4   3   1  301.97    6.28
   4  -3   1  297.18    6.47
   4   3  -1  296.32    6.65
   4   3  -1  305.34    6.21
   4   3  -1  295.24    5.84
   4  -3   1  300.39    6.73
   4  -3   0    4.39    1.12
   4   3   0    6.43    0.91
   4   3   0    5.13    1.12
   4   3   0    5.60    0.96
   4   3   0    4.57    1.57
   4   3   0    4.45    0.80
  -4   3   0    5.84    1.32
   4  -3   0    5.82    1.15
   4   3   1  313.59    9.58
   4   3   1  312.90    6.55
   4   3   1  301.73    6.59
  -4   3  -1  306.08    8.44
   4   3   1  285.14    5.57
   4  -3  -1  306.52    6.31
   4   3   2   56.73    2.76
   4   3   2   57.48    2.91
   4  -3  -2   57.38    3.48
   4   3   2   60.10    2.92
  -4   3  -2   59.72    3.84
   4  -3  -2   58.18    2.55
   4   3   2   56.39    3.94
   4  -3  -3   44.50    2.50
   4   3   3   43.74    2.59
   4   3   3   42.41    2.52
   4  -3  -3   42.44    3.46
  -4   3  -3   44.15    3.53
   4   3   4  158.17    5.09
   4   3   4  150.84    4.63
   4  -3  -4  156.55    6.68
  -4   3  -4  149.54    6.87
   4  -3  -4  161.94    4.85
   4   3   5  285.49    6.72
   4   3   5  290.92    7.20
   4   3   5  281.79    6.56
   4  -3  -5  284.45    9.54
  -4  -3   5  296.44    6.69
   4  -3  -5  280.87    6.71
   4   3   6   24.91    2.00
   4   3   6   23.72    2.26
   4  -3  -6   21.79    3.29
  -4  -3   6   24.27    2.05
   4   3   7   26.42    2.22
   4   3   7   26.75    2.19
   4  -3  -7   28.24    2.99
  -4  -3   7   27.12    2.21
   4   3   8    6.41    1.17
  -4  -3   8    6.77    1.15
   4  -3  -8    6.45    1.71
   4   3   8    5.80    1.09
  -4  -3   9    4.74    0.96
   4   3   9    3.25    0.60
  -4   4   9   41.86    2.31
   4   4  -9   44.10    2.29
   4  -4   9   39.34    2.33
  -4   4   8   23.87    2.09
   4  -4   8   21.67    2.22
  -4   4   7  248.32    7.11
   4  -4   7  253.01    7.71
   4  -4   6  283.34    8.49
   4   4  -5   35.28    2.34
   4  -4   5   40.84    3.33
   4   4  -4  479.03   14.75
   4   4  -4  489.91    9.37
   4  -4   4  510.64   11.10
  -4  -4  -4  505.18   14.26
  -4   4   3  151.75    4.45
   4   4  -3  153.55    7.78
  -4  -4  -3  170.50    8.02
   4   4  -3  155.04    4.91
   4   4  -3  154.55    5.03
   4  -4   3  155.81    5.48
   4   4  -2  473.41   13.39
  -4   4   2  492.53    8.86
   4   4  -2  500.97    9.33
   4   4  -2  497.14    9.20
   4  -4   2  489.77    9.61
   4   4  -1  295.31   10.03
  -4   4   1  310.37    6.90
   4   4  -1  309.29    7.01
   4   4  -1  310.86    6.79
   4  -4   1  309.58    6.93
   4   4   0  158.07    7.06
   4   4   0  157.55    4.79
   4  -4   0  155.58    4.89
   4   4   0  154.23    4.78
   4   4   0  154.56    4.57
   4  -4   0  161.70    4.67
   4   4   1  279.43    9.26
   4   4   1  311.13    7.22
   4   4   1  306.39    6.96
  -4   4  -1  299.02    9.30
   4   4   1  297.91    6.42
   4   4   2  487.51    9.27
   4  -4  -2  503.30   10.83
   4   4   2  508.96    9.73
   4   4   2  472.13    8.41
  -4   4  -2  487.78   12.55
   4  -4  -3  154.45    4.81
   4   4   3  150.19    4.81
   4   4   3  153.73    5.20
   4  -4  -3  155.52    6.32
  -4   4  -3  147.35    7.04
   4   4   4  477.50    8.87
   4   4   4  504.43   10.06
   4  -4  -4  456.94   12.16
  -4   4  -4  463.95   13.29
   4  -4  -4  494.35    9.27
   4   4   5   33.94    2.32
   4   4   5   37.22    2.35
   4   4   5   37.74    2.70
  -4  -4   5   36.48    2.29
   4  -4  -5   44.05    2.68
   4   4   6  272.31    6.82
   4   4   6  273.26    7.08
   4  -4  -6  257.45    9.13
  -4  -4   6  267.12    6.41
   4   4   7  239.64    6.27
   4   4   7  249.92    6.42
   4  -4  -7  252.17    8.44
  -4  -4   7  250.13    6.07
   4   4   8   21.56    1.71
   4   4   8   21.77    1.80
   4  -4  -8   21.84    2.28
  -4  -4   8   21.91    1.74
  -4   5   8   13.87    1.54
   4   5  -8   12.35    1.47
   4  -5   8   11.68    1.38
   4   5  -7   92.29    3.85
   4  -5   7  102.87    4.32
   4   5  -6  254.73    6.84
   4  -5   6  271.39    7.52
   4   5  -5  142.64    5.18
   4  -5   5  144.21    5.54
  -4   5   4   22.48    1.86
   4   5  -4   23.00    1.91
   4   5  -4   26.61    2.29
   4  -5   4   23.97    2.32
   4   5  -3  191.29    8.59
  -4  -5  -3  170.11    8.31
  -4   5   3  173.55    5.12
   4   5  -3  188.92    5.35
   4   5  -3  179.89    5.62
   4  -5   3  182.29    5.82
   4   5  -2  139.68    7.15
  -4  -5  -2  145.70    7.62
  -4   5   2  147.81    4.81
   4   5  -2  155.36    4.89
   4   5  -2  137.48    4.82
   4  -5   2  148.79    4.95
  -4   5   1  230.73    6.18
   4   5  -1  236.25    6.16
   4   5  -1  224.81    6.07
   4   5   0  523.68   13.37
  -4   5   0  545.66   10.22
   4   5   0  546.18    9.79
   4   5   1  222.31    6.58
   4  -5  -1  227.52    6.34
  -4   5  -1  212.58    8.47
   4   5   1  220.33    5.84
   4   5   1  217.06    8.19
   4   5   2  148.84    4.90
   4   5   2  140.17    5.21
   4   5   2  140.44    4.55
  -4   5  -2  134.23    6.91
   4  -5  -3  178.92    5.34
   4   5   3  188.11    5.33
   4   5   3  188.68    6.06
   4  -5  -3  168.81    6.54
  -4   5  -3  169.74    8.10
   4   5   4   19.91    1.82
   4   5   4   25.78    2.34
   4  -5  -4   19.98    2.77
   4  -5  -4   22.95    2.06
   4   5   5  132.97    4.59
   4   5   5  141.94    5.17
   4  -5  -5  144.60    6.61
   4  -5  -5  135.14    4.50
   4   5   6  242.79    6.22
   4   5   6  261.66    6.78
   4  -5  -6  256.28    8.57
  -4  -5   6  248.59    5.80
   4   5   7   89.07    3.53
   4   5   7   86.60    3.52
   4  -5  -7   91.88    4.85
  -4  -5   7   90.42    3.29
   4   5   8   12.41    1.21
  -4  -5   8   10.70    1.17
  -4   6   7   25.13    1.94
   4   6  -7   23.48    1.84
   4  -6   7   22.57    1.69
   4   6  -6    3.76    1.29
   4  -6   6    2.52    0.91
  -4   6   5   57.62    2.71
   4   6  -5   57.14    3.18
   4  -6   5   56.24    3.10
  -4   6   4   98.09    3.70
   4   6  -4   93.44    4.11
   4  -6   4   94.93    3.92
  -4   6   3  698.14   11.48
   4   6  -3  681.87   12.07
  -4   6   2   83.20    3.71
   4   6  -2   82.71    3.87
  -4   6   1    5.16    1.35
   4   6  -1    6.55    1.48
  -4   6   0  693.93   12.11
   4   6   0  694.82   11.75
  -4   6  -1    5.30    1.44
   4   6   1    4.38    1.35
   4   6   1    3.33    1.30
   4   6   1    5.26    1.31
  -4   6  -2   85.44    4.03
   4   6   2   79.99    3.45
   4   6   2   89.46    4.25
   4  -6  -3  674.02   11.31
   4   6   3  687.25   12.55
   4   6   4   98.15    4.30
   4  -6  -4   90.43    4.61
   4  -6  -4   94.17    3.67
   4   6   5   63.43    3.34
   4  -6  -5   56.55    3.88
   4  -6  -5   57.09    2.73
   4  -6  -6    3.38    1.35
   4   6   6    3.12    1.00
   4   6   7   28.03    1.83
   4   7  -6   25.77    1.76
  -4   7   5   79.52    2.93
   4   7  -5   80.97    3.37
  -4   7   4    0.86    0.77
   4   7  -4    2.42    1.06
  -4   7   3    6.83    1.13
   4   7  -3    7.03    1.36
  -4   7   2  103.06    3.98
   4   7  -2  104.33    4.18
  -4   7   1   29.07    2.20
   4   7  -1   30.56    2.36
  -4   7   0   43.88    2.78
   4   7   0   43.33    2.64
   4   7   0   41.52    2.83
   4   7   0   43.82    2.71
  -4   7  -1   30.89    2.41
   4   7   1   30.93    2.13
   4   7   1   30.31    2.55
   4   7   1   32.52    2.37
  -4   7  -2  100.60    4.22
   4   7   2  105.49    4.41
   4  -7  -3    6.13    1.09
  -4   7  -3    5.11    1.30
   4   7   3    6.36    1.40
   4  -7  -4    1.60    0.55
  -4   7  -4    1.64    1.00
   4   7   4    0.35    0.97
  -4   7  -5   75.77    3.30
   4   7   5   81.64    3.40
  -4   7  -6   26.01    1.82
   4   7   6   26.03    1.75
  -4   8   4  141.74    3.76
   4   8  -4  155.29    4.32
  -4   8   3  100.51    3.38
   4   8  -3   97.81    3.61
  -4   8   2  134.87    4.18
   4   8  -2  145.65    4.51
  -4   8   1   37.94    2.29
   4   8  -1   39.76    2.29
   4   8  -1   37.77    2.43
  -4   8   0  115.19    4.00
   4   8   0  117.10    4.03
  -4   8  -1   39.09    2.34
   4   8   1   34.89    2.33
   4  -8  -2  132.31    3.88
  -4   8  -2  136.70    4.37
   4   8   2  138.66    4.47
  -4   8  -3   91.10    3.49
   4   8   3   96.09    3.58
   4  -8  -3   91.78    2.95
  -4   8  -4  147.14    4.15
   4   8   4  147.30    4.22
   5   0   0    1.10    0.75
   5   0   0   -0.07    1.04
   5   0   0   -0.56    0.81
   5   0   0    1.06    1.20
   5   0   0   -1.36    0.90
   5   0  -1  458.43   12.43
   5   0   1  476.00    8.03
   5   0   1  462.37    8.40
   5   0  -1  439.62    8.00
   5   0  -1  440.94    9.48
   5   0   1  463.06    8.42
   5   0  -1  438.64    8.81
   5   0  -1  466.78    8.67
   5   0   1  469.64    8.98
   5   0  -1  455.16    7.64
   5   0   1  465.46   12.16
   5   0  -2    2.38    0.74
   5   0   2    2.09    0.88
   5   0  -2    2.54    0.73
   5   0  -2    3.76    1.23
   5   0   2    3.12    0.80
   5   0   2    1.96    0.78
   5   0  -2    3.05    1.66
   5   0  -2    3.54    1.06
   5   0   2    2.31    0.94
   5   0   3   86.82    3.51
   5   0  -3   84.82    5.80
   5   0   3   89.76    3.64
   5   0  -3   82.18    4.15
   5   0  -3   91.16    3.60
   5   0   3   88.04    3.93
   5   0   4  713.83   11.66
   5   0  -4  677.44   18.13
   5   0  -4  717.65   13.20
   5   0   4  703.07   12.57
  -5   0   5  878.54   13.33
   5   0   5  906.11   13.82
   5   0  -5  895.65   15.20
   5   0   5  871.71   14.63
  -5   0   6  108.76    4.19
   5   0   6  110.86    4.32
   5   0  -6  109.70    4.77
   5   0   6  104.21    4.53
   5   0   7  384.98    8.11
   5   0  -7  378.36    8.41
  -5   0   7  373.92    8.00
   5   0   8   21.20    1.74
  -5   0   8   18.25    1.71
  -5   0   9    3.95    0.92
  -5   1   9   45.07    2.28
  -5   1   8   29.23    2.01
   5   1  -8   26.86    1.95
   5  -1   8   26.68    2.13
  -5   1   7   23.19    2.00
   5  -1   7   20.52    2.35
  -5   1   6   10.89    1.74
   5  -1   6   16.64    2.00
   5   1  -6   13.43    1.64
   5  -1   6   19.70    2.26
  -5   1   5  399.12    8.54
   5  -1   5  417.17    8.60
   5   1  -5  412.38    9.12
   5  -1   5  419.26   10.20
  -5   1   4    2.82    0.92
   5   1  -4    2.87    1.26
   5  -1   4    1.49    1.10
   5   1  -4    0.31    1.33
   5  -1   4    1.52    1.28
   5  -1   3   85.40    3.49
   5   1  -3   93.28    6.36
   5   1  -3   87.29    4.05
   5   1  -3   98.59    3.81
   5  -1   3   88.46    4.19
   5  -1   2  189.05    4.97
   5   1  -2  188.46    8.45
   5  -1   2  191.94    5.05
   5   1  -2  189.22    5.92
   5   1  -2  185.99    5.77
   5   1  -2  191.36    5.25
   5  -1   2  188.88    5.84
   5   1  -1  195.73    8.28
   5  -1   1  195.15    4.80
   5  -1   1  188.73    4.81
   5   1  -1  183.44    5.25
   5   1  -1  197.84    5.98
   5   1  -1  202.90    5.80
   5   1  -1  195.79    5.27
   5  -1   1  195.41    5.65
   5  -1   0   19.59    1.53
   5  -1   0   19.01    2.47
   5   1   0   21.36    2.87
   5  -1   0   21.51    1.61
   5   1   0   22.08    1.90
   5  -1   0   19.96    2.02
   5   1   0   20.36    1.93
   5  -1   0   20.16    1.76
   5   1   0   19.38    1.75
   5  -1   0   20.65    1.89
   5   1   1  198.20    7.96
   5  -1  -1  192.30    7.39
   5   1   1  198.80    4.91
   5   1   1  192.88    5.47
   5  -1  -1  196.31    6.04
   5   1   1  202.60    5.46
   5  -1  -1  194.98    5.40
   5   1   1  196.56    5.37
   5  -1  -1  188.75    4.86
   5  -1  -2  184.88    7.55
   5   1   2  189.71    5.07
   5   1   2  188.12    5.37
   5  -1  -2  187.69    6.16
   5   1   2  190.00    5.14
   5  -1  -2  195.12    5.30
   5   1   2  183.26    5.33
   5  -1  -2  181.00    4.93
   5  -1  -3   82.08    5.18
   5   1   3   91.41    3.65
   5   1   3   89.21    3.71
   5  -1  -3   86.76    4.48
   5  -1  -3   90.78    3.61
   5   1   3   86.22    3.67
   5  -1  -3   89.48    3.50
   5   1   4    4.79    1.25
   5  -1  -4    3.99    1.73
   5   1   4    2.23    0.99
   5  -1  -4    3.62    1.05
   5   1   4    3.31    1.10
   5   1   5  406.12    8.67
   5   1   5  387.97    8.48
   5   1   6   14.04    1.88
   5  -1  -6   17.93    2.52
   5   1   6   12.37    1.54
  -5  -1   6   16.09    1.75
   5   1   7   22.19    2.11
   5  -1  -7   23.61    2.34
  -5  -1   7   22.31    1.90
   5   1   8   30.86    2.08
   5  -1  -8   29.59    2.29
  -5  -1   8   28.86    2.01
  -5   2   8  231.90    5.85
   5   2  -8  219.65    5.34
   5  -2   8  237.96    6.48
  -5   2   7   53.47    3.01
   5   2  -7   55.12    3.00
   5  -2   7   56.13    3.72
  -5   2   6   93.94    4.11
   5   2  -6   91.93    4.16
   5  -2   6   97.25    5.08
  -5   2   5   84.70    3.89
   5   2  -5   76.09    3.85
   5  -2   5   78.19    4.59
   5  -2   4  116.29    4.23
   5   2  -4  118.68    7.92
   5   2  -4  119.44    4.55
   5   2  -4  113.94    4.71
   5  -2   4  113.87    5.32
   5  -2   3   11.03    1.49
   5   2  -3   11.31    1.76
  -5  -2  -3    6.63    1.70
   5   2  -3    6.76    2.32
   5  -2   3   10.59    1.82
   5   2  -2  458.57    9.41
   5   2  -2  458.35    8.49
   5  -2   2  473.31    9.90
   5   2  -1  205.97    8.80
   5  -2   1  219.55    6.10
   5   2  -1  217.80    6.13
   5   2  -1  212.08    5.42
   5  -2   1  216.46    6.12
   5   2   0  911.72   19.11
   5   2   0  880.92   13.80
   5  -2   0  896.81   14.12
   5   2   0  921.96   13.79
   5   2   0  896.87   12.78
   5  -2   0  901.64   13.54
   5  -2  -1  212.41    5.49
   5   2   1  218.34    8.63
   5   2   1  217.07    5.43
   5   2   1  223.24    6.04
   5  -2  -1  215.02    6.53
   5   2   1  225.98    5.94
   5   2   1  222.70    5.53
   5  -2  -1  219.98    5.75
   5   2   2  448.79    8.60
   5   2   2  462.56    9.11
   5  -2  -2  453.50   10.31
   5   2   2  444.15    8.68
   5  -2  -2  451.41    8.54
   5   2   2  426.54    8.18
   5  -2  -2  445.58    8.40
   5  -2  -3    7.78    1.19
   5   2   3   10.29    1.38
   5   2   3    8.98    1.49
   5  -2  -3   10.04    2.06
   5  -2  -3    9.84    1.46
   5   2   3    9.25    1.22
   5   2   4  115.64    4.39
   5   2   4  113.26    4.32
   5  -2  -4  121.81    5.87
   5  -2  -4  114.16    4.00
   5   2   4  106.18    3.86
   5  -2  -4  115.56    4.23
   5   2   5   77.17    3.68
   5  -2  -5   81.30    4.97
   5   2   6   98.65    4.18
   5  -2  -6   98.55    5.27
  -5  -2   6   94.29    3.63
   5   2   7   50.60    2.86
   5  -2  -7   57.11    3.78
  -5  -2   7   49.36    2.54
   5   2   8  234.92    5.57
   5  -2  -8  229.99    6.39
  -5  -2   8  232.76    5.41
  -5   3   8   14.03    1.42
   5  -3   8   14.09    1.63
  -5   3   7   21.37    2.03
   5   3  -7   26.75    1.81
   5  -3   7   22.02    2.44
  -5   3   6   11.49    1.65
   5   3  -6    9.00    1.36
   5  -3   6   11.99    2.15
   5   3  -5   91.58    4.09
   5  -3   5   86.13    4.95
   5   3  -4   61.46    3.46
   5  -3   4   61.87    4.05
   5   3  -3  378.59   13.32
   5   3  -3  373.94    8.63
   5   3  -3  369.59    7.83
   5  -3   3  392.52    9.54
   5   3  -2   81.75    5.85
  -5  -3  -2   70.34    5.13
   5   3  -2   77.98    3.82
   5   3  -2   71.06    3.14
   5  -3   2   74.18    3.80
   5   3  -1   39.95    4.05
   5  -3   1   40.87    2.65
   5   3  -1   41.66    2.80
   5   3  -1   40.52    2.30
   5  -3   1   40.48    2.71
   5   3   0   27.51    3.11
   5   3   0   31.10    2.48
   5  -3   0   31.72    2.52
   5   3   0   32.59    2.46
   5   3   0   35.95    2.14
   5  -3   0   33.66    2.40
   5   3   1   44.13    4.03
   5   3   1   39.89    2.52
   5   3   1   39.19    2.77
   5  -3  -1   37.73    2.84
   5   3   1   38.37    2.63
   5   3   1   38.63    2.20
   5  -3  -1   39.30    2.45
   5  -3  -2   71.54    3.33
   5   3   2   77.05    3.54
   5   3   2   75.33    3.64
   5  -3  -2   71.47    4.13
   5  -3  -2   75.92    3.22
   5   3   3  392.29    8.66
   5   3   3  384.99    8.36
   5  -3  -3  377.09   10.28
   5  -3  -3  380.68    7.37
   5  -3  -3  386.27    8.15
   5   3   4   61.91    3.39
   5   3   4   59.11    3.09
   5  -3  -4   61.02    3.14
   5   3   5   90.26    4.06
   5  -3  -5   94.02    3.91
   5   3   6   10.33    1.64
   5   3   7   24.84    2.00
   5  -3  -7   28.13    2.90
   5   3   8   13.59    1.32
   5  -3  -8   13.99    1.69
  -5   4   8  146.77    4.14
   5   4  -8  142.35    3.99
   5  -4   8  143.14    4.39
  -5   4   7   42.94    2.61
   5   4  -7   39.00    2.39
   5  -4   7   44.34    3.00
  -5   4   6  222.76    6.33
   5   4  -6  239.53    5.78
   5   4  -6  233.37    6.23
   5   4  -5  205.63    5.76
   5   4  -5  201.53    5.94
   5  -4   5  217.25    7.29
   5   4  -4    6.10    1.53
   5   4  -4    4.74    1.35
   5  -4   4    6.38    1.74
   5   4  -3   34.66    2.63
   5   4  -3   33.17    2.39
   5  -4   3   39.13    3.01
   5   4  -2  170.45    5.55
   5   4  -2  172.28    5.15
   5  -4   2  166.38    5.64
   5   4  -1   53.37    4.58
  -5   4   1   54.52    2.87
   5   4  -1   54.38    3.20
   5   4  -1   49.12    2.68
   5  -4   1   48.23    2.99
   5   4   0  327.58   11.23
  -5   4   0  337.73    7.62
   5   4   0  319.20    8.06
   5  -4   0  326.05    7.73
   5   4   0  348.99    8.00
   5  -4   0  318.75    7.23
   5   4   1   52.05    3.05
   5   4   1   51.54    3.23
   5  -4  -1   49.25    3.23
   5  -4  -1   45.88    2.51
   5   4   1   44.80    4.29
   5  -4  -2  173.95    5.36
   5   4   2  184.95    5.97
   5   4   2  180.21    5.68
   5  -4  -2  171.60    6.35
   5   4   3   38.30    2.72
   5   4   3   31.46    2.45
   5  -4  -3   31.60    3.11
   5  -4  -3   36.40    2.52
   5  -4  -4    4.20    1.15
   5   4   4    6.76    1.32
   5   4   4    4.93    1.27
   5   4   5  212.56    6.25
   5  -4  -5  202.89    5.65
   5   4   6  245.83    6.46
   5   4   7   43.63    2.45
   5  -4  -7   43.54    3.20
   5  -4  -8  149.41    4.74
  -5   5   7   31.83    2.08
   5   5  -7   29.85    1.87
   5  -5   7   32.34    2.14
  -5   5   6   34.74    2.36
   5   5  -6   30.97    2.16
   5  -5   6   32.03    2.38
   5   5  -5    4.05    1.10
   5  -5   5    5.45    1.35
   5   5  -4  489.74    9.08
   5   5  -4  499.13    9.63
   5  -5   4  487.94   10.20
   5   5  -3   68.25    3.38
   5   5  -3   63.46    3.25
   5  -5   3   63.19    3.43
  -5   5   2  169.19    4.97
   5   5  -2  175.98    5.49
   5   5  -2  165.15    5.17
   5  -5   2  167.45    5.34
  -5   5   1   47.76    2.80
   5   5  -1   59.33    3.32
   5   5  -1   57.04    2.91
   5  -5   1   55.08    2.89
  -5   5   0   38.46    2.65
   5   5   0   40.04    2.90
   5   5   0   38.67    2.47
  -5   5  -1   55.35    3.23
   5   5   1   51.04    3.29
   5   5   1   50.70    3.15
   5  -5  -1   48.65    3.12
   5  -5  -2  175.34    5.46
   5   5   2  172.19    5.98
   5   5   2  165.01    5.34
   5  -5  -2  169.39    5.88
   5   5   3   61.19    3.56
   5   5   3   63.47    3.14
   5  -5  -3   63.44    3.99
   5  -5  -3   58.69    3.16
   5   5   4  509.59   10.35
   5   5   4  481.81    8.74
   5  -5  -4  495.01   11.48
   5  -5  -4  502.80    9.28
   5  -5  -5    5.98    1.00
   5  -5  -5    4.33    1.72
   5   5   5    4.78    1.28
   5   5   6   37.54    2.27
   5  -5  -6   32.85    2.85
   5   5   7   27.05    1.80
   5  -5  -7   31.14    2.41
  -5   6   6   11.55    1.30
   5   6  -6   11.49    1.28
   5   6  -5  133.39    4.24
   5  -6   5  122.71    3.97
   5   6  -4   30.78    2.23
   5  -6   4   28.87    1.99
  -5   6   3   35.06    2.02
   5   6  -3   34.86    2.44
  -5   6   2  171.38    4.95
   5   6  -2  162.26    5.07
  -5   6   1 1018.74   14.63
   5   6  -1  984.04   14.33
  -5   6   0   51.08    2.95
   5   6   0   48.32    3.00
   5   6   0   48.92    2.74
  -5   6  -1 1000.40   15.01
   5   6   1 1005.63   14.65
   5  -6  -2  174.80    5.23
  -5   6  -2  168.50    5.48
   5   6   2  156.30    5.62
   5   6   2  161.61    4.91
  -5   6  -3   35.95    2.59
   5   6   3   40.33    2.79
   5   6   3   33.59    2.21
   5  -6  -3   36.89    2.69
   5  -6  -3   37.62    2.36
  -5   6  -4   29.94    2.24
   5   6   4   31.39    2.39
   5  -6  -4   29.89    2.45
   5  -6  -4   29.39    1.99
   5   6   5  137.41    4.43
   5  -6  -5  135.59    4.81
   5   6   6   12.81    1.34
  -5   6  -6   12.02    1.42
   5  -6  -6   12.85    1.61
   5   7  -4  127.78    3.88
  -5   7   3   35.24    1.86
   5   7  -3   38.90    2.34
  -5   7   2   25.47    1.72
   5   7  -2   26.98    1.95
  -5   7   1   41.86    2.38
   5   7  -1   41.07    2.47
   5   7  -1   38.93    2.36
  -5   7   0    6.51    1.28
   5   7   0    4.12    1.06
   5   7   0    8.05    1.21
  -5   7  -1   39.86    2.44
   5   7   1   37.26    2.22
  -5   7  -2   30.13    2.18
   5   7   2   26.33    2.06
   5  -7  -2   26.37    1.87
  -5   7  -3   40.97    2.36
   5   7   3   46.23    2.58
   5  -7  -3   42.01    2.20
  -5   7  -4  138.16    4.15
   5   7   4  135.84    4.18
   5  -7  -4  130.84    3.52
   5  -8   0   28.66    1.73
  -5   8   0   27.28    1.72
   5  -8  -1  112.69    3.28
  -5   8  -1  117.85    3.49
   6   0   0    3.06    1.06
   6   0   0    6.69    1.28
   6   0   0    1.47    1.10
   6   0   0    5.19    1.35
   6   0  -1   59.37    4.99
   6   0   1   69.30    2.92
   6   0   1   64.99    3.09
   6   0  -1   64.45    2.96
   6   0   1   64.16    3.21
   6   0  -1   68.17    3.58
   6   0  -1   70.71    3.47
   6   0   1   69.22    3.48
   6   0   2   27.32    2.04
   6   0   2   27.77    2.19
   6   0  -2   28.58    2.71
   6   0  -2   26.50    2.29
   6   0   2   31.70    2.62
   6   0   3 1280.35   17.16
   6   0  -3 1317.50   19.70
   6   0  -3 1304.98   19.18
   6   0  -3 1297.24   17.46
   6   0   3 1277.53   18.43
   6   0   4  107.74    4.17
   6   0  -4  111.50    4.99
   6   0   4  103.31    4.52
   6   0   5 1511.99   19.39
   6   0  -5 1502.85   20.88
   6   0   5 1471.81   20.17
   6   0   6   40.66    2.50
   6   0  -6   41.92    2.75
   6   0   6   39.06    2.59
   6   0  -7    2.53    0.88
   6   0  -7    5.02    1.21
   6   1  -7   92.27    3.69
   6  -1   7   86.48    3.61
   6   1  -6    2.22    1.17
   6  -1   6    0.76    1.13
   6   1  -5   76.69    3.72
   6   1  -5   73.54    3.93
   6  -1   5   78.75    4.22
   6  -1   4   53.61    2.97
   6   1  -4   55.02    3.35
   6   1  -4   55.06    3.52
   6  -1   4   53.13    3.60
   6  -1   3   28.22    2.23
   6   1  -3   31.37    2.72
   6   1  -3   28.52    2.35
   6  -1   3   30.17    2.81
   6  -1   2  151.45    4.64
   6   1  -2  137.32    4.70
   6   1  -2  149.62    5.48
   6   1  -2  152.26    4.91
   6  -1   2  153.42    5.56
   6   1  -1    9.91    1.59
   6   1  -1    9.56    1.64
   6   1  -1   11.44    1.55
   6  -1   1   10.34    1.67
   6  -1   0  616.74    9.84
   6   1   0  624.98   10.98
   6   1   0  645.65   11.38
   6  -1   0  606.84   10.66
   6   1   0  640.87   10.97
   6  -1   0  630.21   11.29
   6   1   1   13.53    1.25
   6   1   1   10.98    1.73
   6  -1  -1   10.29    2.05
   6   1   1   15.60    1.84
   6  -1  -1   13.18    1.61
   6  -1  -1   11.24    1.54
   6   1   1   11.61    1.60
   6  -1  -1   12.02    1.32
   6   1   2  144.55    4.67
   6   1   2  154.18    5.06
   6  -1  -2  140.14    5.71
   6   1   2  153.19    4.89
   6  -1  -2  146.72    5.37
   6  -1  -2  153.90    4.96
   6   1   2  152.98    5.05
   6  -1  -2  150.14    4.59
   6   1   3   27.77    2.32
   6   1   3   31.83    2.48
   6  -1  -3   34.43    3.18
   6  -1  -3   28.35    2.27
   6   1   3   28.59    2.32
   6   1   4   53.61    3.06
   6  -1  -4   59.25    4.01
   6   1   4   47.22    2.81
   6   1   5   76.09    3.58
   6  -1  -5   75.87    4.37
   6   1   5   70.59    3.33
   6  -1  -6    2.24    1.25
   6   1   6    2.18    1.07
   6   1   7   94.53    3.49
   6  -1  -7   88.10    3.71
   6   2  -7    9.44    1.29
   6  -2   7    8.23    1.29
   6   2  -6   19.30    1.91
   6  -2   6   18.04    2.30
   6   2  -5  140.37    5.08
   6  -2   5  131.35    5.70
   6   2  -4   95.18    4.13
   6   2  -4  106.83    4.54
   6  -2   4   95.58    4.92
   6   2  -3    5.77    1.36
   6   2  -3    8.44    1.57
   6  -2   3    7.22    1.86
   6   2  -2  293.53    7.64
   6   2  -2  310.88    7.95
   6   2  -2  321.89    7.26
   6  -2   2  303.87    8.10
   6   2  -1   33.96    2.60
   6   2  -1   35.21    2.80
   6   2  -1   34.69    2.39
   6  -2   1   34.05    2.66
   6  -2   1   29.19    2.00
   6   2   0   15.34    1.89
   6  -2   0   13.97    2.00
   6   2   0   13.07    1.83
   6   2   0   14.92    1.71
   6  -2   0   15.43    1.86
   6  -2   0   13.19    1.45
   6   2   1   31.50    2.55
   6  -2  -1   35.23    2.96
   6   2   1   36.38    2.62
   6  -2  -1   28.48    2.26
   6   2   1   30.91    2.19
   6  -2  -1   33.48    2.43
   6  -2  -1   36.13    2.32
   6   2   2  310.25    7.22
   6   2   2  315.04    7.61
   6  -2  -2  308.94    8.74
   6  -2  -2  290.80    6.95
   6   2   2  285.33    6.69
   6  -2  -2  294.36    6.89
   6  -2  -3    6.91    1.25
   6   2   3    7.01    1.46
   6  -2  -3    6.18    2.00
   6   2   3    4.57    1.15
   6  -2  -3    5.45    1.22
   6   2   3    8.68    1.33
   6   2   4   94.87    4.09
   6  -2  -4   97.01    5.28
   6   2   5  130.89    4.68
   6  -2  -5  141.06    6.10
   6   2   6   19.98    1.85
   6  -2  -6   19.96    2.58
   6  -2  -7    8.08    1.38
   6   2   7    6.97    1.22
   6  -3   7   30.69    2.20
  -6   3   6   29.08    1.89
   6   3  -6   31.44    2.13
   6  -3   6   32.75    2.72
   6   3  -5   96.07    3.92
   6  -3   5   97.80    4.76
   6   3  -4   19.23    2.15
   6   3  -4   19.94    2.03
   6  -3   4   19.66    2.50
   6   3  -3   17.64    2.25
   6   3  -3   16.36    1.97
   6  -3   3   14.47    2.20
   6   3  -2   17.61    2.19
   6   3  -2   19.56    2.13
   6  -3   2   17.55    2.19
   6  -3   1  115.64    4.27
   6   3  -1  129.04    5.15
   6   3  -1  124.22    4.86
   6   3  -1  125.40    4.27
   6  -3   1  121.84    4.76
   6  -3   0    6.86    1.31
   6   3   0   10.29    1.82
   6  -3   0   10.25    1.68
   6   3   0   10.72    1.77
   6  -3   0   11.44    1.64
   6   3   0    7.45    1.32
   6   3   1  119.85    4.80
   6  -3  -1  114.42    4.98
   6   3   1  131.70    4.89
   6   3   1  111.26    3.83
   6  -3  -1  116.62    4.26
   6  -3  -1  121.08    4.39
   6   3   2   16.45    1.80
   6   3   2   14.62    1.93
   6  -3  -2   14.84    2.37
   6  -3  -2   17.04    1.70
   6  -3  -2   16.82    1.75
   6   3   3   16.46    1.87
   6   3   3   19.96    2.00
   6  -3  -3   14.71    2.45
   6  -3  -3   15.04    1.48
   6  -3  -3   17.54    1.79
   6   3   4   18.83    2.01
   6   3   4   21.96    1.98
   6  -3  -4   20.96    2.77
   6  -3  -4   20.50    1.95
   6   3   5   97.18    3.96
   6  -3  -5   84.10    4.86
   6   3   6   34.36    2.26
   6  -3  -6   32.72    2.80
   6   3   7   31.07    1.89
   6  -3  -7   28.76    2.22
   6  -4   6  149.79    4.86
   6   4  -5   28.06    1.98
   6  -4   5   31.86    2.57
   6   4  -4  478.07    9.15
   6  -4   4  491.25   10.31
   6   4  -3    9.79    1.93
   6   4  -3   15.22    1.98
   6  -4   3   14.51    1.93
   6   4  -2  169.73    6.16
   6   4  -2  177.71    5.66
   6  -4   2  165.34    5.46
   6   4  -1   29.30    2.66
   6   4  -1   29.59    2.44
   6  -4   1   25.93    2.12
   6  -4   0   28.30    2.29
   6   4   0   27.92    2.56
   6  -4   0   25.21    2.01
  -6   4  -1   22.26    1.91
   6   4   1   24.36    2.31
   6  -4  -1   26.03    2.46
   6  -4  -1   29.44    2.03
   6  -4  -1   28.96    2.25
   6   4   2  167.99    5.56
  -6   4  -2  160.81    5.08
   6   4   2  166.60    5.38
   6  -4  -2  164.44    6.00
   6  -4  -2  167.00    5.18
   6   4   3   12.92    1.73
   6   4   3   14.15    1.71
   6  -4  -3   12.84    2.18
   6  -4  -3   14.14    1.68
   6   4   4  475.99    9.64
   6   4   4  472.57    8.71
   6  -4  -4  471.93    8.71
   6   4   5   26.77    2.15
   6  -4  -5   30.01    2.97
   6   4   6  147.58    4.33
   6  -4  -6  139.71    5.26
   6   5  -5   13.50    1.60
   6  -5   5   12.71    1.44
   6   5  -4   16.96    1.89
   6  -5   4   17.83    1.73
   6   5  -3    0.93    1.38
   6  -5   3    0.95    0.85
   6   5  -2  155.45    5.63
   6  -5   2  144.81    4.44
   6   5  -1  186.67    5.98
   6  -5   1  162.14    4.59
   6  -5   0   20.97    1.97
  -6   5   0   19.76    1.66
   6   5   0   19.89    2.08
  -6   5  -1  164.41    4.90
   6   5   1  177.16    5.42
   6  -5  -1  176.05    5.31
  -6   5  -2  143.22    4.66
   6   5   2  148.71    4.76
   6  -5  -2  140.00    4.86
   6  -5  -2  153.41    4.76
   6  -5  -3    0.72    0.92
  -6   5  -3   -0.15    0.82
   6   5   3    1.75    0.88
   6  -5  -3    1.81    1.04
   6   5   3    3.19    1.19
   6   5   4   17.83    1.84
  -6   5  -4   19.53    1.61
   6  -5  -4   19.29    1.56
   6   5   5   12.72    1.47
   6  -5  -5   11.12    1.71
   6   6  -4   30.56    2.19
   6   6  -3  240.79    6.11
   6   6  -2    0.06    0.74
   6   6  -1  234.49    6.02
   6  -6   0  122.97    4.18
  -6   6   0  113.00    3.59
   6   6   0  119.09    4.13
   6   6   1  228.48    5.55
   6  -6  -1  241.44    5.76
   6  -6  -2   -1.03    0.71
   6   6   2   -0.76    0.64
  -6   6  -3  218.07    5.22
   6   6   3  217.52    4.71
   6  -7   0   49.53    2.23
   7   0   0   -0.42    0.70
   7   0   0    0.75    0.88
   7   0   0   -1.92    1.16
   7   0  -1  210.03    6.04
   7   0  -1  212.20    5.84
   7   0   1  217.54    6.12
   7   0  -2   10.80    1.72
   7   0  -2   10.32    1.47
   7   0   2    9.59    1.58
   7   0  -3  114.92    4.74
   7   0   3  111.00    4.31
   7   0  -4    7.17    1.67
   7   0   4    4.67    1.30
   7   0  -5  261.87    6.83
   7   0   5  221.69    5.55
   7   0  -6   91.10    3.60
   7   1  -6    7.84    1.25
   7   1  -5   74.21    3.42
   7  -1   5   74.21    3.45
   7   1  -4   13.03    1.88
   7  -1   4   12.00    1.78
   7   1  -3  125.24    4.83
   7  -1   3  123.43    4.89
   7   1  -2  113.75    4.56
   7   1  -2  105.61    4.03
   7  -1   2  116.90    4.65
   7   1  -1    8.36    1.21
   7   1  -1    6.62    1.46
   7   1  -1    8.40    1.53
   7  -1   1    8.63    1.55
   7   1   0    2.58    1.01
   7   1   0    3.43    1.26
   7   1   0    2.90    1.23
   7  -1   0    4.17    1.15
   7   1   1    6.77    1.34
   7   1   1   10.73    1.41
   7  -1  -1    7.97    1.39
   7   1   1   10.58    1.58
   7  -1  -1    9.43    1.50
   7  -1  -2  110.23    4.41
   7  -1  -2  106.16    3.91
   7   1   2  107.36    4.02
   7   1   3  118.51    4.08
   7  -1  -3  122.57    4.88
   7   1   3  111.34    3.98
   7   1   4   13.05    1.56
   7  -1  -4   11.99    1.82
   7   1   4    9.26    1.35
   7   1   5   75.28    3.14
   7  -1  -5   79.42    3.84
   7  -1  -6    6.19    1.37
   7   2  -5    2.64    0.85
   7  -2   5    1.33    1.01
   7   2  -4   26.35    2.18
   7  -2   4   22.96    2.26
   7   2  -3   27.84    2.34
   7  -2   3   33.05    2.62
   7   2  -2   44.80    2.80
   7   2  -2   45.30    2.91
   7  -2   2   46.59    2.95
   7   2  -1   14.37    1.76
   7   2  -1   18.66    1.96
   7   2  -1   18.90    1.90
   7  -2   1   14.59    1.78
   7   2   0  597.96   10.74
   7   2   0  610.69   10.79
   7   2   0  611.31   10.07
   7  -2   0  602.39   10.66
   7   2   1   15.20    1.80
   7   2   1   15.79    1.63
   7  -2  -1   15.06    1.64
   7   2   2   46.10    2.75
   7  -2  -2   41.43    2.43
   7   2   2   40.20    2.33
   7   2   3   27.88    2.13
   7  -2  -3   28.90    2.87
   7  -2  -3   25.56    2.19
   7   2   4   25.61    2.02
   7  -2  -4   27.42    2.65
   7  -2  -4   23.11    2.34
   7  -2  -5    1.39    1.29
   7   2   5    2.88    0.96
   7  -2  -5    2.28    1.13
   7  -3   5   18.29    1.71
   7   3  -4   33.33    2.22
   7  -3   4   37.55    2.57
   7   3  -3  134.13    4.50
   7  -3   3  142.36    5.00
   7   3  -2   52.13    3.12
   7   3  -2   51.70    2.94
   7  -3   2   55.94    3.12
   7   3  -1    3.76    1.16
   7   3  -1    3.58    1.13
   7  -3   1    0.91    0.83
   7   3   0    1.81    0.99
   7  -3   0    0.71    0.82
   7  -3  -1    3.31    0.98
   7   3   1    2.35    1.05
   7  -3  -1    3.52    0.78
   7   3   2   52.76    2.85
   7  -3  -2   51.83    2.38
   7  -3  -3  124.31    5.09
   7   3   4   29.18    2.10
   7  -3  -4   32.79    2.71
   7  -3  -5   16.52    2.03
   7   4  -3    4.61    1.20
   7   4  -3    8.11    1.20
   7  -4   3    7.25    1.14
   7   4  -2   65.85    3.43
   7  -4   2   68.09    3.00
   7   4  -1   13.65    1.65
   7  -4   1   12.09    1.38
   7  -4   0  177.17    4.52
   7  -4   0  173.68    4.88
   7   4   1   11.02    1.60
   7  -4  -1   15.46    1.59
   7   4   2   72.09    3.09
   7  -4  -2   69.16    2.96
   7   5  -2   44.44    2.47
   7   5  -1   20.85    1.79
   7  -5   0    1.20    0.66
   7   5   0    1.18    0.57
   7   5   1   19.31    1.53
   7  -5  -1   20.67    1.56
   7   5   2   43.78    2.12
   7  -5  -2   42.75    2.14
   8   0   0   69.24    2.91
   8   0   1   55.79    2.66
   8   0   2   73.34    2.97
   8  -1   2   21.91    1.85
   8  -1   1   31.89    2.17
   8  -1   0  103.00    3.52
   8  -1  -1   30.01    1.94
   8   1   1   27.91    1.87
   8  -2   1   11.41    1.32
   8  -2   0    3.71    0.89
   0   0   0    0.00    0.00


TITL 1a in P2(1)2(1)2(1)
REM P2(1)2(1)2(1) (#19 in standard setting)
CELL 1.54184   7.024534   8.751663   9.981747  90.0000  90.0000  90.0000
ZERR    4.00   0.000123   0.000134   0.000162   0.0000   0.0000   0.0000
LATT -1
SYMM -x+1/2,-y, z+1/2
SYMM -x, y+1/2,-z+1/2
SYMM  x+1/2,-y+1/2,-z
SFAC C H N Cl
UNIT 16.00 8.00 20.00 4.00
TREF
HKLF 4
END
_computing_structure_solution     'SHELXT 2014/5 (Sheldrick, 2014)'
;
_shelx_hkl_checksum              6155
_olex2_submission_special_instructions 'No special instructions were received'
_oxdiff_exptl_absorpt_empirical_details
;
Empirical correction (ABSPACK) includes:
- Absorption correction using spherical harmonics
- Frame scaling
;
_oxdiff_exptl_absorpt_empirical_full_max 1.707
_oxdiff_exptl_absorpt_empirical_full_min 0.790
loop_
_space_group_symop_operation_xyz
'x, y, z'
'-x+1/2, -y, z+1/2'
'-x, y+1/2, -z+1/2'
'x+1/2, -y+1/2, -z'
loop_
_atom_site_label
_atom_site_type_symbol
_atom_site_fract_x
_atom_site_fract_y
_atom_site_fract_z
_atom_site_U_iso_or_equiv
_atom_site_adp_type
_atom_site_occupancy
_atom_site_site_symmetry_order
_atom_site_calc_flag
_atom_site_refinement_flags_posn
_atom_site_refinement_flags_adp
_atom_site_refinement_flags_occupancy
_atom_site_disorder_assembly
_atom_site_disorder_group
Cl1 Cl 0.28953(12) 0.33187(9) 0.31839(8) 0.0365(3) Uani 1 1 d . . . . .
N4 N 0.3606(4) 0.7476(3) 0.4114(3) 0.0253(6) Uani 1 1 d . . . . .
N5 N 0.3705(4) 0.5934(3) 0.4173(3) 0.0275(6) Uani 1 1 d . . . . .
N3 N 0.4365(4) 0.8378(4) 0.5059(3) 0.0340(7) Uani 1 1 d . . . . .
N2 N 0.3987(5) 0.9774(3) 0.4660(3) 0.0387(7) Uani 1 1 d . . . . .
N1 N 0.3009(5) 0.9814(3) 0.3489(3) 0.0340(7) Uani 1 1 d . . . . .
C9 C 0.2782(4) 0.8347(3) 0.3146(3) 0.0257(6) Uani 1 1 d . . . . .
C7 C 0.1985(5) 0.6045(4) 0.2063(3) 0.0299(7) Uani 1 1 d . . . . .
H7 H 0.144393 0.548657 0.136859 0.036 Uiso 1 1 calc R U . . .
C6 C 0.2870(5) 0.5288(3) 0.3158(3) 0.0268(7) Uani 1 1 d . . . . .
C8 C 0.1942(5) 0.7590(4) 0.2046(3) 0.0299(7) Uani 1 1 d . . . . .
H8 H 0.138600 0.812696 0.134356 0.036 Uiso 1 1 calc R U . . .
loop_
_atom_site_aniso_label
_atom_site_aniso_U_11
_atom_site_aniso_U_22
_atom_site_aniso_U_33
_atom_site_aniso_U_23
_atom_site_aniso_U_13
_atom_site_aniso_U_12
Cl1 0.0427(5) 0.0211(4) 0.0457(5) -0.0022(3) 0.0097(4) -0.0011(4)
N4 0.0328(14) 0.0222(13) 0.0210(13) -0.0004(11) 0.0000(12) -0.0025(11)
N5 0.0333(14) 0.0239(13) 0.0253(13) 0.0037(11) 0.0027(13) 0.0001(12)
N3 0.0438(15) 0.0326(16) 0.0256(13) -0.0047(14) -0.0040(12) -0.0058(16)
N2 0.0500(18) 0.0294(16) 0.0366(16) -0.0079(13) 0.0027(14) -0.0052(14)
N1 0.0419(17) 0.0255(13) 0.0344(15) -0.0023(11) 0.0046(14) -0.0011(14)
C9 0.0315(15) 0.0231(14) 0.0226(14) 0.0033(13) 0.0046(13) 0.0017(15)
C7 0.0345(17) 0.0335(17) 0.0216(15) -0.0057(12) 0.0014(16) -0.0028(14)
C6 0.0307(16) 0.0218(15) 0.0279(15) -0.0018(13) 0.0066(16) -0.0005(14)
C8 0.0336(17) 0.0343(17) 0.0219(15) 0.0036(13) 0.0011(16) 0.0019(15)
loop_
_atom_type_symbol
_atom_type_description
_atom_type_scat_dispersion_real
_atom_type_scat_dispersion_imag
_atom_type_scat_source
C C 0.0181 0.0091 'International Tables Vol C Tables 4.2.6.8 and 6.1.1.4'
H H 0.0000 0.0000 'International Tables Vol C Tables 4.2.6.8 and 6.1.1.4'
Cl Cl 0.3639 0.7018 'International Tables Vol C Tables 4.2.6.8 and 6.1.1.4'
N N 0.0311 0.0180 'International Tables Vol C Tables 4.2.6.8 and 6.1.1.4'
loop_
_geom_angle_atom_site_label_1
_geom_angle_atom_site_label_2
_geom_angle_atom_site_label_3
_geom_angle
_geom_angle_site_symmetry_1
_geom_angle_site_symmetry_3
_geom_angle_publ_flag
N5 N4 C9 127.7(3) . . ?
N3 N4 N5 122.5(3) . . ?
N3 N4 C9 109.8(3) . . ?
C6 N5 N4 112.2(3) . . ?
N2 N3 N4 104.7(3) . . ?
N3 N2 N1 112.9(3) . . ?
C9 N1 N2 104.8(3) . . ?
N4 C9 C8 117.9(3) . . ?
N1 C9 N4 107.8(3) . . ?
N1 C9 C8 134.3(3) . . ?
C6 C7 H7 120.5 . . ?
C8 C7 H7 120.5 . . ?
C8 C7 C6 119.1(3) . . ?
N5 C6 Cl1 114.8(2) . . ?
N5 C6 C7 126.4(3) . . ?
C7 C6 Cl1 118.8(2) . . ?
C9 C8 H8 121.6 . . ?
C7 C8 C9 116.7(3) . . ?
C7 C8 H8 121.6 . . ?
loop_
_geom_bond_atom_site_label_1
_geom_bond_atom_site_label_2
_geom_bond_distance
_geom_bond_site_symmetry_2
_geom_bond_publ_flag
Cl1 C6 1.724(3) . ?
N4 N5 1.352(4) . ?
N4 N3 1.341(4) . ?
N4 C9 1.360(4) . ?
N5 C6 1.300(4) . ?
N3 N2 1.311(4) . ?
N2 N1 1.357(4) . ?
N1 C9 1.339(4) . ?
C9 C8 1.412(5) . ?
C7 H7 0.9300 . ?
C7 C6 1.421(5) . ?
C7 C8 1.352(4) . ?
C8 H8 0.9300 . ?
loop_
_geom_torsion_atom_site_label_1
_geom_torsion_atom_site_label_2
_geom_torsion_atom_site_label_3
_geom_torsion_atom_site_label_4
_geom_torsion
_geom_torsion_site_symmetry_1
_geom_torsion_site_symmetry_2
_geom_torsion_site_symmetry_3
_geom_torsion_site_symmetry_4
_geom_torsion_publ_flag
N4 N5 C6 Cl1 -178.7(2) . . . . ?
N4 N5 C6 C7 1.8(5) . . . . ?
N4 N3 N2 N1 0.0(4) . . . . ?
N4 C9 C8 C7 1.6(5) . . . . ?
N5 N4 N3 N2 -180.0(3) . . . . ?
N5 N4 C9 N1 179.8(3) . . . . ?
N5 N4 C9 C8 -1.2(5) . . . . ?
N3 N4 N5 C6 179.7(3) . . . . ?
N3 N4 C9 N1 -0.5(4) . . . . ?
N3 N4 C9 C8 178.6(3) . . . . ?
N3 N2 N1 C9 -0.3(4) . . . . ?
N2 N1 C9 N4 0.4(4) . . . . ?
N2 N1 C9 C8 -178.4(4) . . . . ?
N1 C9 C8 C7 -179.6(4) . . . . ?
C9 N4 N5 C6 -0.6(5) . . . . ?
C9 N4 N3 N2 0.3(4) . . . . ?
C6 C7 C8 C9 -0.6(6) . . . . ?
C8 C7 C6 Cl1 179.2(3) . . . . ?
C8 C7 C6 N5 -1.3(6) . . . . ?
