#------------------------------------------------------------------------------
#$Date: 2022-01-01 07:13:54 +0200 (Sat, 01 Jan 2022) $
#$Revision: 271676 $
#$URL: file:///home/coder/svn-repositories/cod/cif/1/56/58/1565883.cif $
#------------------------------------------------------------------------------
#
# This file is available in the Crystallography Open Database (COD),
# http://www.crystallography.net/. The original data for this entry
# were provided by IUCr Journals, http://journals.iucr.org/.
#
# The file may be used within the scientific community so long as
# proper attribution is given to the journal article from which the
# data were obtained.
#
data_1565883
loop_
_publ_author_name
'Olejniczak, Anna'
'Katrusiak, Anna'
'Podsiad\/lo, Marcin'
'Katrusiak, Andrzej'
_publ_section_title
;
 Stochastic hydration of a high-nitrogen-content molecular compound
 recrystallized under pressure
;
_journal_issue                   1
_journal_name_full               IUCrJ
_journal_page_first              49
_journal_page_last               54
_journal_paper_doi               10.1107/S2052252521010381
_journal_volume                  9
_journal_year                    2022
_chemical_formula_moiety         'C4 H2 Cl N5'
_chemical_formula_sum            'C4 H2 Cl N5'
_chemical_formula_weight         155.56
_chemical_name_systematic        6-chloro-1,2,3,4-tetrazolo[1,5-b]pyridazine
_space_group_crystal_system      orthorhombic
_space_group_IT_number           19
_space_group_name_Hall           'P 2ac 2ab'
_space_group_name_H-M_alt        'P 21 21 21'
_atom_sites_solution_hydrogens   geom
_atom_sites_solution_primary     direct
_audit_creation_date             2020-07-14
_audit_creation_method
;
Olex2 1.3
(compiled 2020.06.28 svn.raecde09e for OlexSys, GUI svn.r6132)
;
_cell_angle_alpha                90
_cell_angle_beta                 90
_cell_angle_gamma                90
_cell_formula_units_Z            4
_cell_length_a                   6.9235(13)
_cell_length_b                   8.7578(5)
_cell_length_c                   10.0265(11)
_cell_measurement_reflns_used    1343
_cell_measurement_temperature    296(2)
_cell_measurement_theta_max      22.3220
_cell_measurement_theta_min      4.2400
_cell_volume                     607.95(14)
_computing_cell_refinement       'CrysAlisPro 1.171.40.67a (Rigaku OD, 2019)'
_computing_data_collection       'CrysAlisPro 1.171.40.67a (Rigaku OD, 2019)'
_computing_data_reduction        'CrysAlisPro 1.171.40.67a (Rigaku OD, 2019)'
_computing_molecular_graphics    'Olex2 1.3 (Dolomanov et al., 2009)'
_computing_publication_material  'Olex2 1.3 (Dolomanov et al., 2009)'
_computing_structure_refinement  'SHELXL 2018/3 (Sheldrick, 2015)'
_computing_structure_solution    'SHELXT 2018/2 (Sheldrick, 2018)'
_diffrn_ambient_environment      'diamond-anvil cell'
_diffrn_ambient_pressure         300000
_diffrn_ambient_temperature      296
_diffrn_detector                 'CCD plate'
_diffrn_detector_area_resol_mean 16.2413
_diffrn_detector_type            Eos
_diffrn_measured_fraction_theta_full 0.648
_diffrn_measured_fraction_theta_max 0.594
_diffrn_measurement_details
;
List of Runs (angles in degrees, time in seconds):

  # Type    Start    End  Width  t~exp~   \w     \q     \k     \f   Frames
--------------------------------------------------------------------------
  1  \f    -35.00  19.75   0.75   20.00   0.00 -30.00   0.00    --    73
  2  \f    140.00 200.00   0.75   20.00   0.00 -30.00   0.00    --    80
  3  \f    160.00 217.00   0.75   20.00   0.00  30.00   0.00    --    76
  4  \f    -20.00  34.75   0.75   20.00   0.00  30.00   0.00    --    73
  5  \w    -24.00  24.00   0.75   20.00    --   30.00  39.46 -12.90   64
  6  \w    -24.00  24.00   0.75   20.00    --   30.00  39.46 167.10   64
  7  \w    -50.00  10.00   0.75   20.00    --  -30.00  39.46 167.10   80
  8  \w    -50.00  10.00   0.75   20.00    --  -30.00  39.46 -12.90   80
  9  \w    -64.00  -8.50   0.75   20.00    --  -30.00  81.40 -28.90   74
 10  \w    -64.00  -8.50   0.75   20.00    --  -30.00  81.40 151.10   74
 11  \w    -19.00   8.00   0.75   20.00    --   30.00  81.40 151.10   36
 12  \w    -19.00   8.00   0.75   20.00    --   30.00  81.40 -28.90   36
 13  \w    -43.00 -21.25   0.75   20.00    --   30.00 134.60 -56.90   29
 14  \w    -43.00 -21.25   0.75   20.00    --   30.00 134.60 123.10   29
 15  \w    -90.00 -36.00   0.75   20.00    --  -30.00 134.60 123.10   72
 16  \w    -90.00 -36.00   0.75   20.00    --  -30.00 134.60 -56.90   72
;
_diffrn_measurement_device       'four-circle diffractometer'
_diffrn_measurement_device_type  'KM-4 CCD'
_diffrn_measurement_method
;
HP omega scans - for more details see:
A. Budzianowski, A. Katrusiak in High-Pressure Crystallography
(Eds.: A. Katrusiak, P. F. McMillan),
Dordrecht: Kluwer Acad. Publ., 2004 pp.157-168
;
_diffrn_orient_matrix_type
'CrysAlisPro convention (1999,Acta A55,543-557)'
_diffrn_orient_matrix_UB_11      0.0835139000
_diffrn_orient_matrix_UB_12      0.0173701000
_diffrn_orient_matrix_UB_13      0.0380512000
_diffrn_orient_matrix_UB_21      0.0388071000
_diffrn_orient_matrix_UB_22      -0.0729044000
_diffrn_orient_matrix_UB_23      -0.0152095000
_diffrn_orient_matrix_UB_31      0.0449762000
_diffrn_orient_matrix_UB_32      0.0307405000
_diffrn_orient_matrix_UB_33      -0.0576182000
_diffrn_radiation_monochromator  graphite
_diffrn_radiation_probe          x-ray
_diffrn_radiation_type           'Mo K\a'
_diffrn_radiation_wavelength     0.71073
_diffrn_reflns_av_R_equivalents  0.0391
_diffrn_reflns_av_unetI/netI     0.0429
_diffrn_reflns_Laue_measured_fraction_full 0.648
_diffrn_reflns_Laue_measured_fraction_max 0.594
_diffrn_reflns_limit_h_max       6
_diffrn_reflns_limit_h_min       -6
_diffrn_reflns_limit_k_max       11
_diffrn_reflns_limit_k_min       -11
_diffrn_reflns_limit_l_max       11
_diffrn_reflns_limit_l_min       -11
_diffrn_reflns_number            3805
_diffrn_reflns_point_group_measured_fraction_full 0.664
_diffrn_reflns_point_group_measured_fraction_max 0.593
_diffrn_reflns_theta_full        25.242
_diffrn_reflns_theta_max         27.346
_diffrn_reflns_theta_min         4.267
_diffrn_source                   'fine-focus sealed X-ray tube'
_diffrn_source_type              'Enhance (Mo) X-ray Source'
_exptl_absorpt_coefficient_mu    0.542
_exptl_absorpt_correction_T_max  1.00000
_exptl_absorpt_correction_T_min  0.31790
_exptl_absorpt_correction_type   multi-scan
_exptl_absorpt_process_details
;
CrysAlisPro 1.171.39.46 (Rigaku Oxford Diffraction, 2018)
Empirical absorption correction using spherical harmonics,
 implemented in SCALE3 ABSPACK scaling algorithm.
;
_exptl_crystal_colour            colorless
_exptl_crystal_density_diffrn    1.700
_exptl_crystal_description       plate
_exptl_crystal_F_000             312
_exptl_crystal_size_max          0.26
_exptl_crystal_size_mid          0.22
_exptl_crystal_size_min          0.16
_refine_diff_density_max         0.135
_refine_diff_density_min         -0.130
_refine_diff_density_rms         0.034
_refine_ls_abs_structure_details
;
 Flack x determined using 201 quotients [(I+)-(I-)]/[(I+)+(I-)]
 (Parsons, Flack and Wagner, Acta Cryst. B69 (2013) 249-259).
;
_refine_ls_abs_structure_Flack   0.16(7)
_refine_ls_extinction_method     none
_refine_ls_goodness_of_fit_ref   1.078
_refine_ls_hydrogen_treatment    constr
_refine_ls_matrix_type           full
_refine_ls_number_parameters     91
_refine_ls_number_reflns         815
_refine_ls_number_restraints     0
_refine_ls_restrained_S_all      1.078
_refine_ls_R_factor_all          0.0665
_refine_ls_R_factor_gt           0.0425
_refine_ls_shift/su_max          0.000
_refine_ls_shift/su_mean         0.000
_refine_ls_structure_factor_coef Fsqd
_refine_ls_weighting_details
'w=1/[\s^2^(Fo^2^)+(0.0262P)^2^+0.2376P] where P=(Fo^2^+2Fc^2^)/3'
_refine_ls_weighting_scheme      calc
_refine_ls_wR_factor_gt          0.0741
_refine_ls_wR_factor_ref         0.0811
_reflns_Friedel_coverage         0.670
_reflns_Friedel_fraction_full    0.689
_reflns_Friedel_fraction_max     0.591
_reflns_number_gt                621
_reflns_number_total             815
_reflns_threshold_expression     'I > 2\s(I)'
_cod_data_source_file            lt5042.cif
_cod_data_source_block           C4H2N5Cl1@0_30GPa_phase_alpha_xH2O
_cod_database_code               1565883
_shelx_shelxl_version_number     2018/3
_chemical_oxdiff_formula         C4H2N5Cl1
_shelx_space_group_comment
;
The symmetry employed for this shelxl refinement is uniquely defined
by the following loop, which should always be used as a source of
symmetry information in preference to the above space-group names.
They are only intended as comments.
;
_reflns_odcompleteness_completeness 58.71
_reflns_odcompleteness_iscentric 1
_reflns_odcompleteness_theta     27.29
_olex2_refinement_description
;
1. Fixed Uiso
 At 1.2 times of:
  All C(H) groups
2.a Aromatic/amide H refined with riding coordinates:
 C7(H7), C8(H8)
;
_shelx_res_file
;
TITL 1a_a.res in P2(1)2(1)2(1)
    1a.res
    created by SHELXL-2018/3 at 14:00:40 on 14-Jul-2020
REM Old TITL 1a in P2(1)2(1)2(1)
REM SHELXT solution in P2(1)2(1)2(1)
REM R1 0.179, Rweak 0.139, Alpha 0.005, Orientation as input
REM Flack x = 0.190 ( 0.059 ) from Parsons' quotients
REM Formula found by SHELXT: C8 N5 Cl
CELL 0.71073 6.9235 8.7578 10.0265 90 90 90
ZERR 4 0.0013 0.0005 0.0011 0 0 0
LATT -1
SYMM 0.5-X,-Y,0.5+Z
SYMM -X,0.5+Y,0.5-Z
SYMM 0.5+X,0.5-Y,-Z
SFAC C H Cl N
UNIT 16 8 4 20

L.S. 44
PLAN  5
CONF
BOND $H
list 4
MORE -1
fmap 2 53
acta
REM <olex2.extras>
REM <HklSrc "%.\\1a.hkl">
REM </olex2.extras>

WGHT    0.026200    0.237600
FVAR       1.33342
CL1   3    0.292977    0.333374    0.323960    11.00000    0.07229    0.03720 =
         0.09450   -0.00243    0.02546   -0.00075
N4    4    0.353408    0.750266    0.412597    11.00000    0.03643    0.04259 =
         0.04163    0.00060   -0.00443   -0.00360
N5    4    0.368059    0.595955    0.421127    11.00000    0.06694    0.04101 =
         0.04339    0.00733   -0.00038    0.00173
N3    4    0.424544    0.841727    0.508636    11.00000    0.07633    0.06252 =
         0.04721   -0.01110   -0.00973   -0.00827
N2    4    0.385778    0.980047    0.464700    11.00000    0.08379    0.05250 =
         0.07250   -0.01561    0.00859   -0.00898
N1    4    0.290746    0.982239    0.348333    11.00000    0.07724    0.04052 =
         0.06792   -0.00373    0.00809   -0.00044
C9    1    0.273957    0.833894    0.315236    11.00000    0.04969    0.03671 =
         0.03611    0.00544    0.00372    0.00144
C7    1    0.201971    0.602681    0.209375    11.00000    0.05341    0.05401 =
         0.04048   -0.01096   -0.00005   -0.00667
AFIX  43
H7    2    0.151171    0.545085    0.139791    11.00000   -1.20000
AFIX   0
C6    1    0.287461    0.530025    0.318999    11.00000    0.04966    0.03538 =
         0.04641   -0.00106    0.00912    0.00116
C8    1    0.193658    0.756145    0.205170    11.00000    0.05292    0.05975 =
         0.03833    0.00786   -0.00357    0.00396
AFIX  43
H8    2    0.138187    0.807947    0.133834    11.00000   -1.20000
AFIX   0
HKLF 4




REM  1a_a.res in P2(1)2(1)2(1)
REM wR2 = 0.0811, GooF = S = 1.078, Restrained GooF = 1.078 for all data
REM R1 = 0.0425 for 621 Fo > 4sig(Fo) and 0.0665 for all 815 data
REM 91 parameters refined using 0 restraints

END

WGHT      0.0263      0.2381

REM Highest difference peak  0.135,  deepest hole -0.130,  1-sigma level  0.034
Q1    1   0.1962  1.0793  0.1831  11.00000  0.05    0.14
Q2    1   0.4590  0.3582  0.4260  11.00000  0.05    0.13
Q3    1   0.2080  0.4909  0.1015  11.00000  0.05    0.13
Q4    1   0.1577  0.3537  0.4023  11.00000  0.05    0.12
Q5    1   0.2396  0.3188  0.3527  11.00000  0.05    0.11
;
_shelx_res_checksum              9183
_shelx_hkl_file
;
   0  -1   2   73.79    6.31
   0  -1   3 6002.37   71.02
   0   1  -3 5989.10   61.42
   0   2   0  250.24   10.47
   0  -2   0  231.56    8.78
   0  -2   0  225.47    9.15
   0  -2   0  240.51    9.35
   0   2   1 1688.43   34.12
   0   2  -1 1676.21   23.67
   0  -2   1 1623.03   25.08
   0   2  -1 1673.00   24.80
   0   2  -1 1695.82   26.36
   0  -2  -1 1684.67   26.40
   0  -2  -1 1674.69   26.55
   0   2   1 1709.12   30.99
   0   2  -2  511.86   16.80
   0   2  -2  521.54   16.15
   0  -2   2  497.87   14.83
   0  -2   2  515.14   16.43
   0   2  -2  501.45   12.48
   0   2  -2  496.87   14.82
   0   2  -2  501.68   14.65
   0  -2   3  424.89   18.87
   0   2  -3  424.93   17.17
   0   2  -3  411.88   15.74
   0  -2   3  431.89   15.70
   0   2  -3  417.69   16.93
   0   2  -3  399.38   15.41
   0   2  -4    5.32    4.42
   0   2  -4    2.74    3.77
   0  -2   4    4.30    5.91
   0   2  -4    2.20    3.15
   0   2  -4    2.54    3.60
   0   2  -5 1331.69   35.21
   0   2  -5 1263.24   32.78
   0   2  -5 1299.42   37.17
   0   3   0    0.00    2.42
   0   3   0    4.71    3.14
   0  -3   0    4.12    2.85
   0   3   0   -2.44    2.65
   0  -3   0   -2.28    2.65
   0   3   0   -2.59    3.09
   0  -3   0   -1.92    2.55
   0  -3   0   -0.08    2.49
   0   3   0    1.06    2.37
   0   3  -1  456.67   13.76
   0  -3  -1  432.06   15.75
   0   3   1  428.36   15.93
   0  -3  -1  438.05   16.47
   0   3   1  417.73   18.53
   0  -3   1  451.71   14.16
   0  -3  -1  416.11   16.11
   0  -3   1  441.37   15.15
   0   3  -1  452.90   15.92
   0  -3   1  478.80   16.72
   0  -3   1  447.20   14.44
   0   3  -1  452.00   16.01
   0   3   1  431.88   16.31
   0  -3  -1  446.80   17.29
   0   3  -1  413.28   15.78
   0  -3   1  428.49   16.32
   0   3  -2 3236.55   37.38
   0   3  -2 3274.91   40.30
   0  -3   2 3289.85   36.14
   0   3  -2 3284.50   43.99
   0   3  -2 3212.96   47.51
   0   3  -2 3284.41   43.16
   0  -3   2 3245.48   44.80
   0  -3   2 3195.34   40.17
   0  -3   2 3315.01   44.20
   0   3  -2 3225.07   38.45
   0  -3   3    3.73    5.12
   0   3  -3   10.23    4.48
   0   3  -3   10.25    4.21
   0   3  -3    8.98    2.81
   0   3  -3   12.89    5.14
   0  -3   3   11.27    3.67
   0   3  -3    8.44    3.49
   0   3  -3    5.09    3.53
   0  -3   3    7.19    4.00
   0  -3   3    5.25    2.92
   0   3  -4    8.61    5.15
   0  -3   4    6.86    4.50
   0  -3   4    7.41    3.51
   0   3  -4    0.97    3.92
   0   3  -4   11.64    5.27
   0   3  -4    8.62    3.31
   0  -3   4    4.05    6.43
   0   3  -4   14.38    4.93
   0   3  -4    6.84    3.12
   0  -3   5  121.65   11.53
   0   3  -5  132.05   10.63
   0   3  -5  139.31   13.27
   0   3  -5  161.80   14.42
   0   3  -5  128.28   11.76
   0   3  -6    5.21    5.49
   0   3  -6    6.69    6.89
   0   3  -6    5.60    5.65
   0  -3   6    8.76    5.20
   0   4   0   24.21    5.07
   0  -4   0   19.14    4.77
   0   4   0   31.84    5.49
   0  -4   0   31.44    4.83
   0   4   0   20.40    6.03
   0  -4   0   21.52    5.47
   0  -4   0   20.48    5.08
   0   4   0   21.64    4.90
   0   4   0   33.13    6.83
   0  -4   0   19.33    4.95
   0   4   1 4828.81   61.39
   0  -4   1 4753.38   54.26
   0  -4   1 4841.34   52.71
   0  -4  -1 4803.57   59.68
   0   4  -1 4782.00   48.75
   0   4  -1 4846.20   55.76
   0  -4  -1 4806.53   64.12
   0   4  -1 4825.55   59.75
   0  -4  -1 4756.17   59.57
   0   4   1 4666.10   69.91
   0   4  -1 4888.11   52.99
   0  -4  -1 4873.60   62.76
   0  -4   1 4828.73   61.15
   0   4   1 4751.61   60.97
   0   4  -1 4757.57   47.37
   0  -4   1 4697.82   61.76
   0  -4   1 4791.07   57.64
   0   4   1 4813.53   56.28
   0   4  -1 4805.17   60.61
   0   4  -1 4853.15   62.86
   0   4  -2   79.70    7.25
   0  -4   2   77.32    8.88
   0  -4  -2   64.64    9.53
   0  -4  -2   59.19    8.41
   0  -4   2   79.34    8.09
   0   4  -2   72.06    7.00
   0   4   2   73.70    9.82
   0   4  -2   74.66    8.05
   0   4   2   83.26   10.79
   0  -4   2   64.37    8.68
   0   4  -2   65.40    7.72
   0   4  -2   73.97    8.75
   0   4  -2   72.05    7.95
   0  -4   2   74.12    7.12
   0  -4   2   71.85    7.76
   0  -4   2   70.00    7.40
   0   4  -3  192.77   11.89
   0   4  -3  189.39   13.14
   0   4  -3  181.01   10.93
   0  -4   3  195.34   10.86
   0  -4   3  202.75   14.46
   0   4  -3  197.87   13.39
   0   4  -3  176.49   14.17
   0  -4   3  196.20   14.32
   0   4  -3  182.96   11.88
   0  -4   3  188.91   12.29
   0   4  -4  114.34   10.29
   0   4  -4  113.44   11.21
   0  -4   4  122.96   13.53
   0   4  -4  113.39   12.44
   0   4  -4  118.93   12.03
   0  -4   4  111.36   12.00
   0  -4   5  334.13   25.03
   0  -4   5  361.01   20.97
   0   4  -5  365.75   21.62
   0   4  -5  356.57   20.04
   0   4  -5  392.19   22.67
   0   4  -5  357.08   20.20
   0  -4   6   51.85   10.59
   0   4  -6   80.21   12.29
   0   4  -6   74.06   11.97
   0   4  -6   69.66   11.08
   0   4  -7  203.38   17.67
   0  -5   0    1.96    3.89
   0  -5   0    4.71    6.50
   0   5   0    3.95    5.34
   0  -5   0   -1.97    4.92
   0   5   0   -3.03    5.14
   0   5   0    6.91    6.53
   0   5   0   -4.14    4.46
   0  -5   0   -0.82    4.78
   0  -5   0   -0.55    5.38
   0   5  -1  748.48   27.35
   0   5  -1  677.38   22.97
   0  -5  -1  698.45   27.90
   0  -5   1  760.12   28.60
   0  -5   1  734.87   25.29
   0  -5  -1  650.52   25.60
   0   5   1  701.31   27.07
   0  -5   1  699.63   27.68
   0   5   1  727.62   25.48
   0   5  -1  795.49   29.85
   0  -5  -1  685.80   27.51
   0   5  -1  754.44   27.66
   0   5   1  696.79   26.77
   0  -5   1  677.94   25.49
   0  -5  -1  711.57   25.28
   0   5   1  695.61   31.54
   0   5  -1  695.58   20.90
   0   5  -2    0.62    4.88
   0  -5   2    7.85    5.34
   0  -5   2    3.55    4.64
   0  -5   2   12.46    5.83
   0  -5   2    4.83    6.18
   0  -5  -2    2.71    5.78
   0   5  -2    3.66    5.79
   0   5  -2    9.42    4.58
   0   5  -2    2.34    4.81
   0   5   2    1.88    6.14
   0   5   2    2.63    7.22
   0  -5   2  -10.42    7.33
   0   5  -2    1.86    4.03
   0  -5   2    7.76    4.99
   0   5  -2    1.65    5.47
   0  -5  -2    6.96    5.82
   0  -5   3 1090.84   28.43
   0  -5   3 1097.82   34.90
   0   5  -3 1102.81   36.39
   0  -5   3 1109.20   37.62
   0   5  -3 1188.72   30.83
   0  -5   3 1123.70   35.48
   0  -5   3 1120.74   32.73
   0   5  -3 1190.52   31.17
   0   5  -3 1082.25   34.01
   0   5  -3 1102.28   31.84
   0  -5   3 1147.40   34.92
   0   5  -3 1134.96   33.04
   0   5  -4  891.03   32.74
   0   5  -4  888.58   28.97
   0  -5   4  926.00   34.05
   0   5  -4  913.56   32.46
   0   5  -4  857.15   33.89
   0  -5   4  909.09   35.76
   0   5  -5   22.12    7.66
   0   5  -5   20.42    8.35
   0  -5   5   29.69   11.04
   0   5  -5   18.39    7.63
   0   5  -5   14.64    7.35
   0  -5   5   14.92    9.04
   0   5  -6   47.18   10.89
   0   5  -6   43.88   10.66
   0   5  -6   36.01    9.15
   0   5  -6   45.55   10.10
   0  -5   6   44.51   10.44
   0   5  -7    4.47    8.64
   0   5  -7    0.68    7.72
   0  -6   0 1393.50   41.37
   0   6   0 1357.62   40.54
   0   6   0 1373.02   37.64
   0  -6   0 1469.62   40.42
   0   6   0 1337.91   38.76
   0   6   0 1434.84   46.74
   0  -6   0 1470.97   42.80
   0  -6   0 1430.99   42.07
   0  -6  -1   51.06    8.67
   0   6   1   56.70    9.52
   0  -6   1   66.31   11.35
   0  -6   1   56.13    9.39
   0  -6   1   51.84    9.23
   0  -6   1   50.09    9.84
   0   6  -1   41.60   10.07
   0   6   1   38.02    9.20
   0  -6  -1   40.68    9.28
   0   6  -1   50.86    7.68
   0   6   1   54.98   10.36
   0   6  -1   50.41    9.42
   0   6   1   71.87   13.77
   0  -6  -1   35.08    8.75
   0   6  -1   58.27   10.03
   0   6  -2  209.52   17.81
   0  -6   2  218.31   18.34
   0   6   2  229.04   21.23
   0   6  -2  223.28   17.50
   0  -6  -2  234.81   19.41
   0  -6   2  215.41   16.14
   0  -6   2  208.81   18.04
   0  -6  -2  218.32   17.09
   0   6  -2  224.54   17.84
   0   6  -2  210.63   14.59
   0   6   2  236.29   21.44
   0  -6   2  225.17   15.52
   0  -6   3   46.80   11.65
   0   6  -3   35.10    8.78
   0   6  -3   52.33   10.03
   0   6  -3   42.01    9.75
   0  -6   3   37.44    8.51
   0  -6   3   42.05   11.69
   0   6  -4   -9.21    7.92
   0  -6   4    0.71    9.87
   0   6  -4   14.07    8.68
   0  -6   4   -1.30    9.53
   0  -6   5  210.75   23.51
   0  -6   5  403.08   33.52
   0   6  -6 1385.06   51.53
   0   6  -6 1474.24   50.00
   0  -6   6 1488.42   50.45
   0   6  -6 1440.01   48.28
   0   6  -7    3.37    8.70
   0   6  -7   -1.87    9.15
   0   7   0    7.71    6.88
   0   7   0   12.93    7.36
   0   7   0    3.97    9.86
   0  -7   0    3.89    7.65
   0  -7   0   -1.54    7.32
   0  -7   0   -1.50    9.19
   0   7   0  -27.38   10.38
   0  -7   1   16.40    8.26
   0  -7  -1    4.32    8.46
   0   7   1   26.99   10.68
   0   7  -1   27.63   10.21
   0  -7  -1   34.45   10.95
   0  -7   1   28.78   10.85
   0  -7   1   24.78   10.95
   0   7  -1   14.16    9.85
   0   7   1   21.24    9.33
   0   7  -1    2.55    6.37
   0   7  -1   20.36    8.99
   0  -7   1   20.11   10.47
   0   7  -2   -8.36    8.77
   0  -7   2    6.77    9.23
   0   7   2  -17.28   13.64
   0   7   2    3.45   12.77
   0  -7  -2   -1.68    7.93
   0   7  -2   -3.96    6.97
   0  -7  -2   10.18    9.89
   0  -7   2    3.26    7.03
   0  -7   2    2.66    9.29
   0  -7   2   11.14    8.22
   0   7  -2   -2.20    8.39
   0   7  -2   -0.45    8.75
   0  -7   3   68.66   15.60
   0  -7   3   48.69   17.48
   0   7  -3   46.52   11.71
   0   7  -3   19.80    8.90
   0  -7   4   84.20   15.51
   0   7  -4   90.87   13.60
   0   7  -4   99.06   15.93
   0  -7   4   77.26   14.26
   0  -7   5  316.98   28.61
   0   7  -5  281.67   23.39
   0  -7   5  305.21   25.81
   0   7  -5  299.05   24.75
   0  -7   6   -6.09   11.89
   0   7  -6   -0.70    9.31
   0  -7   6    4.08   13.77
   0   7  -6   22.45   11.37
   0   7  -7    4.60   10.49
   0  -7   7    5.51   13.82
   0  -7   7   -6.15   12.46
   0   7  -8   31.37   13.79
   0  -7   8   18.48   14.14
   0   8   0   -8.05   14.40
   0   8   0   14.95    8.43
   0   8   0   -5.22    9.31
   0  -8   0   19.71   12.14
   0  -8   0   -5.65    9.23
   0   8   1  662.31   35.54
   0   8  -1  604.33   33.16
   0  -8   1  621.07   35.41
   0   8  -1  622.45   38.20
   0   8   1  636.68   37.45
   0  -8   1  588.25   34.06
   0   8  -1  594.63   30.52
   0   8  -1  602.47   33.12
   0  -8   1  614.12   33.48
   0  -8  -1  621.90   35.68
   0  -8   1  601.53   31.38
   0  -8   2   40.79   13.64
   0   8  -2   57.10   13.25
   0  -8   2   63.44   13.46
   0   8  -2   45.55   12.63
   0   8  -2   46.49   13.41
   0  -8   2   48.66   13.53
   0   8  -3    4.81   10.04
   0   8  -3   10.37   10.34
   0  -8   3   -2.86   11.55
   0  -8   3   18.21   12.29
   0  -8   4  -21.06   12.42
   0   8  -4   26.79   12.16
   0   8  -4   -1.66   10.73
   0  -8   4   17.73   14.67
   0   8  -5   46.84   13.69
   0   8  -5   59.87   15.42
   0  -8   5   12.44   13.07
   0  -8   5   27.51   14.00
   0  -8   6   76.84   21.07
   0  -8   6   71.56   17.36
   0   8  -6   91.94   17.00
   0   8  -6   84.51   17.42
   0  -8   7   40.05   19.07
   0   8  -7   79.13   18.07
   0  -8   7   42.28   15.62
   0   8  -8  -10.53   13.83
   0   9   0    9.16    9.73
   0  -9   0   -4.07   10.69
   0  -9   0   19.34   13.78
   0   9   0    7.69   11.16
   0   9  -1   68.21   13.15
   0   9  -1   94.48   16.80
   0  -9  -1   75.93   15.56
   0  -9   1   95.38   18.99
   0   9   1   36.01   17.25
   0   9   1   26.04   16.65
   0  -9   1   78.01   16.29
   0   9  -2  173.93   21.27
   0  -9   2  189.64   24.75
   0  -9   2  155.82   20.54
   0   9  -2  157.62   20.87
   0   9  -3   13.31   12.39
   0  -9   3   11.88   14.48
   0  -9   3  -10.51   14.05
   0   9  -3   20.45   12.30
   0   9  -4  170.01   22.95
   0  -9   4  119.65   22.72
   0  -9   4  140.50   22.53
   0   9  -4  128.82   19.68
   0  -9   5   26.53   15.54
   0  -9   5   47.31   20.06
   0   9  -5   28.50   13.04
   0   9  -5   -9.17   11.67
   0  -9   6    5.28   18.26
   0  -9   6    8.66   16.72
   0   9  -6   -1.54   12.89
   0   9  -6   21.46   14.15
   0  -9   7    5.94   14.62
   0   9  -7   -3.39   13.21
   0  10   0   73.30   18.28
   0  10   0   69.72   21.65
   0 -10   0   80.72   18.80
   0 -10   1  147.16   23.90
   0  10  -1  137.19   21.95
   0 -10   1  141.02   21.31
   0 -10   2   17.39   16.07
   0  10  -2   29.69   15.24
   0 -10   3   26.67   20.23
   0  10  -3   29.06   14.19
   0  10  -3    9.01   12.41
   0 -10   3   13.76   15.35
   0  10  -4    0.38   12.84
   0 -10   4   11.45   16.46
   0  10  -4  -17.36   14.48
   0  10  -5   69.38   18.13
   0  10  -5   57.68   16.80
   1   0  -3 2081.90   34.65
   1   0  -3 2169.59   35.49
   1   0  -3 2127.54   33.60
   1   0  -3 2161.73   31.27
  -1   0   3 2103.24   35.81
  -1   0   3 2079.98   37.52
  -1   0   3 2158.93   34.15
  -1   0   4  462.77   21.75
   1   0  -4  489.82   19.19
  -1   0   4  494.29   21.00
   1   0  -4  501.33   17.00
  -1   0   4  473.83   19.70
   1   0  -4  495.80   19.94
   1   0  -4  481.92   19.56
   1   0  -4  490.82   17.15
   1   0  -5    5.38    5.51
  -1   0   5    5.23    6.06
   1   0  -5    1.43    3.91
  -1   0   5   14.16    7.48
   1   0  -5    1.96    3.83
   1   0  -5    5.21    5.02
   1   0  -6   18.37    7.78
   1   0  -6    6.15    6.09
   1   0  -6    1.87    5.10
   1   0  -6    8.01    6.10
  -1   0   6    9.74   12.37
   1   0  -7   20.16    9.01
   1   0  -7   13.59    6.67
   1   0  -7   11.77    7.34
   1   1  -7  212.73   18.14
   1   1  -7  199.17   18.24
   1   1  -7  220.63   17.97
   1   1  -6   23.79    7.09
   1   1  -6   27.57    5.77
   1   1  -6   33.43    8.01
   1   1  -6   34.18    8.38
  -1   1   5  635.99   32.13
   1   1  -5  613.81   22.70
   1   1  -5  628.73   19.07
   1   1  -5  601.13   23.65
   1   1  -5  581.27   22.74
  -1   1   5  601.70   21.46
   1   1  -5  627.95   25.22
  -1   1   4  221.74   16.30
  -1   1   4  197.09   14.68
   1   1  -4  209.63   11.85
   1   1  -4  199.14   12.59
   1   1  -4  202.13    9.56
   1   1  -4  213.62   12.85
  -1   1   4  174.64   13.21
  -1   1   4  198.35   10.24
   1   1  -4  204.27   13.48
  -1   1   3 1092.73   29.01
  -1   1   3 1133.01   26.16
  -1   1   3 1207.81   29.91
  -1   1   3 1135.59   20.88
   1   1  -3 1130.18   27.67
   1   1  -3 1143.84   25.51
  -1   1   3 1177.91   24.88
   1   1  -3 1180.47   24.65
   1   1  -3 1144.71   24.61
  -1   1   2 2388.17   30.54
  -1   1   2 2440.12   35.03
   1   1  -2 2468.84   34.67
  -1   1   2 2396.26   29.87
  -1   1   2 2345.47   35.39
   1   1  -2 2477.81   32.27
  -1   1   1 1130.96   21.58
  -1  -1   1 1117.60   22.31
   1  -1  -1 1128.52   17.55
  -1  -1   1 1158.06   21.88
   1  -1  -2 2397.83   25.93
  -1  -1   2 2359.70   36.21
  -1  -1   2 2466.67   32.66
   1  -1  -2 2368.32   32.88
   1  -1  -2 2381.27   32.73
   1  -1  -3 1175.48   26.58
   1  -1  -3 1143.89   27.68
   1  -1  -3 1113.85   24.00
  -1  -1   3 1190.50   27.53
   1  -1  -3 1146.04   20.34
   1  -1  -3 1116.34   23.96
   1  -1  -4  206.03   10.36
  -1  -1   4  207.86   13.95
  -1  -1   4  217.83   13.38
  -1  -1   4  185.19   13.46
   1  -1  -4  200.99   12.06
   1  -1  -4  198.79   13.28
   1  -1  -4  214.75   13.04
   1  -1  -4  198.61   12.37
   1  -1  -5  608.54   23.50
  -1  -1   5  578.96   26.59
  -1  -1   5  573.15   15.56
  -1  -1   5  585.51   27.51
   1  -1  -5  602.79   19.17
   1  -1  -5  599.84   25.37
   1  -1  -5  562.68   22.90
   1  -1  -6   38.08    8.62
   1  -1  -6   31.85    8.66
  -1  -1   6   33.43   11.20
   1  -1  -6   38.54    8.69
  -1  -1   6   25.01    9.18
   1   2  -8   70.65   13.16
   1   2  -8   49.51   11.19
   1   2  -7  107.49   14.64
   1   2  -7   89.54   12.69
   1   2  -7   96.10   12.32
   1   2  -6  504.47   24.39
   1   2  -6  506.93   24.33
   1   2  -6  492.89   22.70
   1   2  -6  494.71   25.35
   1   2  -5 2403.01   50.67
  -1   2   5 2302.83   64.63
   1   2  -5 2348.67   47.61
   1   2  -5 2340.80   46.68
  -1   2   5 2225.56   63.32
  -1   2   5 2279.29   48.60
   1   2  -5 2312.55   43.39
  -1   2   4  321.19   20.43
   1   2  -4  289.97   14.04
   1   2  -4  287.26   15.61
   1   2  -4  308.45   13.28
   1   2  -4  302.46   17.26
  -1   2   4  310.54   21.69
   1   2  -4  337.41   16.68
  -1   2   4  276.36   14.61
   1   2  -3 2815.49   41.73
   1   2  -3 2827.38   33.90
  -1   2   3 2820.94   45.91
   1   2  -3 2888.78   37.43
  -1   2   3 2908.10   51.18
  -1   2   3 2774.00   50.06
   1   2  -3 2956.34   44.35
  -1   2   3 2808.57   40.05
   1   2  -3 2800.57   45.75
  -1   2   2   58.43    6.33
   1   2  -2   57.97    5.74
  -1   2   2   52.45    5.44
  -1   2   2   56.22    6.39
   1   2  -2   54.89    6.03
  -1   2   2   47.40    6.60
   1   2  -2   58.54    4.95
   1   2  -2   65.77    6.58
   1   2  -1 1359.05   24.18
   1  -2   1 1326.37   26.46
  -1   2   1 1287.96   26.55
  -1   2   1 1343.45   26.84
   1   2  -1 1402.17   25.67
  -1   2   1 1356.94   23.65
   1  -2   1 1231.80   25.25
   1   2  -1 1441.20   28.48
  -1   2   0 1147.90   24.89
   1  -2   0 1114.48   21.43
  -1   2   0 1167.09   22.69
   1  -2   0 1198.35   22.80
  -1   2   0 1117.64   23.17
   1  -2   0 1138.38   23.12
  -1   2   0 1140.56   22.46
   1  -2  -1 1487.46   24.71
  -1   2  -1 1327.40   26.69
  -1   2  -1 1373.49   26.51
  -1   2  -1 1360.00   28.51
   1  -2  -1 1367.09   25.82
  -1  -2   1 1304.89   28.13
   1  -2  -1 1420.97   26.04
  -1  -2   1 1343.55   26.14
   1  -2  -1 1403.73   22.40
  -1   2  -1 1344.89   26.73
   1  -2  -2   54.17    6.07
   1  -2  -2   55.89    5.70
  -1  -2   2   58.51    6.93
  -1  -2   2   43.92    5.92
   1  -2  -2   61.56    6.03
   1  -2  -2   53.72    4.61
  -1  -2   2   61.27    5.52
   1  -2  -2   57.10    5.43
  -1  -2   3 2862.05   35.94
   1  -2  -3 2874.07   42.29
  -1  -2   3 2859.16   41.30
  -1  -2   3 2878.84   46.39
   1  -2  -3 2767.09   35.15
   1  -2  -3 2829.55   45.72
   1  -2  -3 2887.14   44.65
   1  -2  -3 2825.54   38.08
  -1  -2   4  331.23   19.86
   1  -2  -4  303.13   16.77
   1  -2  -4  316.26   17.28
   1  -2  -4  315.61   15.13
  -1  -2   4  333.30   13.38
   1  -2  -4  293.66   14.19
  -1  -2   4  343.51   17.85
  -1  -2   5 2309.06   53.48
   1  -2  -5 2200.71   50.48
  -1  -2   5 2285.25   52.87
   1  -2  -5 2333.74   49.72
   1  -2  -5 2374.13   45.48
  -1  -2   5 2323.23   36.40
   1  -2  -5 2316.83   43.61
  -1  -2   6  540.94   31.77
  -1  -2   6  528.31   30.20
   1  -2  -6  527.33   26.78
   1  -2  -6  487.34   27.35
  -1  -2   7   92.48   17.02
   1   3  -8   30.84   10.65
   1   3  -8   40.42   10.68
   1   3  -7   62.59   11.90
   1   3  -7   52.22   11.37
   1   3  -7   60.11   10.21
   1   3  -7   54.85   10.19
   1   3  -6  115.67   13.53
   1   3  -6  113.42   11.26
   1   3  -6  109.09   13.02
   1   3  -6  122.29   13.30
   1   3  -5   33.47    7.81
  -1   3   5   28.56   12.62
  -1   3   5   21.67    8.13
   1   3  -5   38.80    8.06
   1   3  -5   31.05    6.54
   1   3  -5   32.56    6.18
   1   3  -5   33.65    8.10
  -1   3   4  253.73   13.59
  -1   3   4  246.50   15.92
   1   3  -4  257.04   15.25
  -1   3   4  288.92   20.74
   1   3  -4  281.71   17.15
  -1   3   4  255.82   21.80
   1   3  -4  251.07   16.17
  -1   3   4  267.98   20.85
   1   3  -4  269.51   13.14
   1   3  -4  265.54   13.53
  -1   3   3  248.41   14.48
   1   3  -3  241.09   12.28
   1   3  -3  248.09   14.80
  -1   3   3  245.72   17.14
   1   3  -3  248.71   13.34
  -1   3   3  256.72   17.94
   1   3  -3  253.28   11.54
   1   3  -3  226.48   14.32
  -1   3   3  228.89   17.61
  -1   3   3  255.05   12.59
   1   3  -2  272.12   15.22
  -1   3   2  276.92   16.14
   1  -3   2  277.35   14.39
   1  -3   2  272.95   13.50
  -1   3   2  259.22   15.40
   1   3  -2  291.11   13.77
   1  -3   2  271.56   14.88
  -1   3   2  268.59   14.31
   1   3  -2  274.22   14.18
   1   3  -2  289.87   13.41
  -1   3   2  278.05   13.75
  -1   3   2  286.85   12.67
   1   3  -1  193.66   12.06
   1  -3   1  224.28   12.38
  -1   3   1  203.65   12.27
  -1   3   1  193.32   12.34
   1   3  -1  193.76   11.38
  -1   3   1  191.46   10.72
  -1   3   1  187.92    9.39
   1  -3   1  194.78   10.78
   1  -3   1  194.53   11.61
   1  -3   1  198.61    9.98
   1   3  -1  184.02   10.66
  -1   3   1  199.18   10.48
   1  -3   0 2861.01   38.99
  -1   3   0 3006.99   41.06
   1  -3   0 2897.18   42.32
  -1   3   0 2892.81   44.60
   1  -3   0 2855.96   40.11
  -1   3   0 2881.86   37.16
  -1   3   0 2922.57   41.28
  -1   3   0 3017.53   42.15
   1  -3   0 2925.64   39.68
   1  -3  -1  198.42   10.73
   1  -3  -1  193.59   11.52
   1  -3  -1  187.71   10.83
  -1   3  -1  205.62   12.47
  -1  -3   1  204.16   13.13
  -1   3  -1  198.32   11.42
   1  -3  -1  181.73    8.09
  -1   3  -1  202.84   11.45
  -1   3  -1  205.85   11.90
  -1   3  -1  219.96   10.94
   1  -3  -1  192.59   10.32
  -1  -3   1  197.89   12.11
   1  -3  -2  267.10   13.20
  -1   3  -2  256.64   14.38
  -1   3  -2  275.11   13.85
  -1  -3   2  286.17   13.90
  -1  -3   2  280.04   15.10
  -1   3  -2  279.51   14.65
  -1  -3   2  286.39   15.72
   1  -3  -2  261.55   14.49
   1  -3  -2  265.01   12.34
  -1   3  -2  280.69   14.87
  -1  -3   2  265.52   10.59
   1  -3  -2  272.27   14.39
   1  -3  -2  282.59   12.51
  -1   3  -3  251.38   15.37
   1  -3  -3  229.77   13.08
  -1  -3   3  267.61   16.87
   1  -3  -3  236.53   13.73
   1  -3  -3  256.68   15.94
  -1  -3   3  262.83   13.84
  -1   3  -3  261.40   16.05
  -1  -3   3  266.20   12.89
   1  -3  -3  241.63   14.41
  -1  -3   3  257.37   17.05
  -1  -3   4  254.88   17.99
   1  -3  -4  265.14   16.09
  -1  -3   4  259.89   14.90
   1  -3  -4  266.20   17.01
   1  -3  -4  248.58   15.82
  -1  -3   4  266.14   14.38
   1  -3  -4  244.35   12.54
  -1  -3   4  240.38   17.55
   1  -3  -5   37.22    7.14
   1  -3  -5   38.24    7.80
   1  -3  -5   36.35    8.74
  -1  -3   5   41.95    9.25
  -1  -3   5   36.66    9.79
   1  -3  -5   36.86    8.76
  -1  -3   5   39.83    6.81
  -1  -3   6   93.94   14.28
  -1  -3   6  117.00   16.62
  -1  -3   7   29.09   12.98
   1   4  -9   72.52   13.39
   1   4  -8   13.47    8.99
   1   4  -8    4.64    8.34
   1   4  -8   -1.45    8.14
   1   4  -7   -3.53    8.58
   1   4  -7   -1.88    7.86
   1   4  -7   -2.82    6.90
   1   4  -6   32.51    9.95
   1   4  -6   45.08   10.18
   1   4  -6   53.54    9.37
   1   4  -5  360.30   18.61
   1   4  -5  366.22   22.48
   1   4  -5  379.55   22.80
   1   4  -5  374.63   20.74
  -1   4   4  215.32   17.32
   1   4  -4  230.80   15.29
  -1   4   4  214.96   14.75
  -1   4   4  236.00   20.79
  -1   4   4  220.03   20.79
   1   4  -4  219.07   16.62
   1   4  -4  227.06   16.76
   1  -4   4  165.97   13.61
   1  -4   4  213.78   13.43
   1   4  -4  213.12   13.92
  -1   4   3 1319.55   40.61
   1   4  -3 1293.70   32.14
  -1   4   3 1165.59   40.15
   1   4  -3 1260.33   23.65
   1   4  -3 1305.29   34.89
   1   4  -3 1286.07   36.50
   1   4  -3 1275.22   31.95
   1  -4   3 1313.60   36.73
   1   4  -3 1308.58   31.17
   1  -4   3 1303.66   32.22
  -1   4   3 1250.31   35.21
  -1   4   3 1203.71   31.63
  -1   4   2   38.20    6.33
   1   4  -2   37.34    6.35
   1   4  -2   32.44    6.61
   1  -4   2   35.45    6.90
   1  -4   2   25.12    5.63
  -1   4   2   34.90    8.43
  -1   4   2   22.70    5.58
  -1   4   2   35.01    6.89
  -1   4   2   29.10    7.70
   1   4  -2   34.44    4.87
   1   4  -2   31.21    5.77
   1   4  -2   32.27    6.98
   1  -4   2   30.08    7.55
   1  -4   1  715.30   25.17
   1   4  -1  751.92   27.01
   1  -4   1  717.18   24.49
   1  -4   1  712.83   21.27
   1   4  -1  757.62   24.68
  -1   4   1  689.44   26.67
   1  -4   1  713.00   22.59
  -1   4   1  688.40   21.19
  -1   4   1  723.98   26.07
  -1   4   1  756.44   24.32
  -1   4   1  739.57   24.01
   1   4  -1  778.19   22.52
  -1   4   1  698.79   19.88
   1   4  -1  860.89   26.53
   1  -4   0  490.21   20.26
   1  -4   0  505.81   19.19
  -1   4   0  478.73   19.50
  -1   4   0  488.68   19.47
  -1   4   0  497.19   21.95
   1   4   0  504.89   22.70
   1  -4   0  485.28   17.87
   1  -4   0  468.67   17.99
   1  -4   0  485.42   19.63
  -1   4   0  460.70   18.40
  -1   4   0  500.39   18.31
  -1   4  -1  723.82   25.72
   1  -4  -1  770.71   21.33
   1  -4  -1  760.77   24.30
   1  -4  -1  773.83   24.80
  -1   4  -1  689.72   23.72
  -1   4  -1  731.51   23.67
  -1  -4   1  729.88   27.91
  -1  -4   1  765.66   26.83
   1  -4  -1  777.33   24.52
  -1   4  -1  715.11   21.43
  -1   4  -1  675.73   24.23
   1  -4  -1  751.87   26.13
  -1  -4   1  727.58   23.61
  -1  -4   2   29.05    7.39
   1  -4  -2   39.27    7.41
   1  -4  -2   26.95    6.52
  -1  -4   2   33.58    5.57
  -1  -4   2   38.45    7.66
  -1   4  -2   29.52    4.68
  -1   4  -2   35.70    6.84
  -1   4  -2   38.54    5.65
   1  -4  -2   38.53    5.85
  -1   4  -2   33.54    6.18
   1  -4  -2   34.78    6.64
  -1   4  -2   36.72    6.44
  -1  -4   2   38.03    7.86
   1  -4  -2   32.81    6.11
  -1   4  -2   32.47    6.92
  -1   4  -3 1247.92   35.50
  -1  -4   3 1297.62   38.45
   1  -4  -3 1329.43   33.90
  -1  -4   3 1307.97   37.62
  -1   4  -3 1318.17   30.46
  -1   4  -3 1353.98   34.65
  -1  -4   3 1252.15   25.83
   1  -4  -3 1238.96   36.70
   1  -4  -3 1292.31   32.83
  -1   4  -3 1325.94   38.09
  -1  -4   3 1296.06   33.75
   1  -4  -3 1334.80   37.90
  -1   4  -4  216.66   14.75
  -1   4  -4  228.52   15.00
  -1  -4   4  225.32   15.15
   1  -4  -4  210.14   16.68
  -1  -4   4  245.58   18.71
   1  -4  -4  222.83   15.81
  -1  -4   4  236.41   17.81
  -1  -4   4  215.04   17.88
  -1   4  -4  247.08   18.27
   1  -4  -4  227.53   17.06
  -1  -4   5  402.62   25.03
  -1  -4   5  370.85   24.28
   1  -4  -5  368.97   23.62
   1  -4  -5  360.25   21.56
  -1  -4   5  388.15   20.13
   1  -4  -5  368.97   22.35
  -1  -4   6   56.43   14.03
  -1  -4   7  -12.01   12.78
   1   5  -9   20.21   10.41
   1   5  -8   -6.82    9.07
   1   5  -8    5.39    9.69
   1   5  -8    0.60    8.88
   1   5  -7  120.65   14.98
   1   5  -7  101.48   15.49
   1   5  -7  124.62   17.89
   1   5  -6  128.67   16.48
   1   5  -6  141.72   17.61
   1   5  -6  107.14   13.33
   1   5  -5   86.55   11.85
   1   5  -5   82.11   12.46
  -1   5   5   14.86   15.14
   1  -5   5   51.15    9.88
   1   5  -5   13.02   34.45
  -1   5   4   20.90    8.25
   1  -5   4   12.91    6.24
   1   5  -4    6.43    5.55
  -1   5   4    9.44   11.13
  -1   5   4   13.79    8.58
  -1   5   4   22.51   11.60
   1   5  -4   10.78    6.32
   1   5  -4   10.65    8.04
   1   5  -4    1.87    8.45
   1  -5   4   29.23    9.76
  -1   5   3   94.53   11.94
   1  -5   3   81.70   10.67
  -1   5   3   85.01   12.08
   1  -5   3   93.03   11.77
   1   5  -3   91.95   11.08
   1   5  -3   94.79   10.79
   1   5  -3   76.06   10.87
  -1   5   3   82.79   15.10
  -1   5   3   94.41   14.27
   1   5  -3   76.17   11.26
   1  -5   3   84.10   12.68
   1  -5   2  550.36   22.60
   1  -5   2  543.98   25.24
   1   5  -2  470.87   20.87
  -1   5   2  546.48   24.37
   1   5  -2  464.37   23.43
   1   5  -2  497.77   18.39
  -1   5   2  494.97   26.52
  -1   5   2  525.64   27.66
   1  -5   2  539.60   24.42
   1   5  -2  489.20   22.44
  -1   5   2  525.78   23.50
   1  -5   1 2709.61   52.92
   1  -5   1 2788.01   48.60
  -1   5   1 2805.51   51.52
   1  -5   1 2705.82   44.35
   1  -5   1 2739.35   52.69
  -1   5   1 2719.02   55.75
   1   5  -1 2741.28   48.53
  -1   5   1 2679.06   57.06
   1  -5   1 2709.65   50.75
   1   5  -1 2785.05   45.48
  -1   5   1 2641.92   44.47
   1   5  -1 2746.58   52.28
  -1   5   1 2695.49   51.82
   1  -5   0  376.74   17.59
  -1   5   0  382.55   18.53
   1  -5   0  399.64   19.06
   1  -5   0  360.51   19.31
  -1   5   0  378.47   18.63
   1  -5   0  374.22   17.88
  -1   5   0  388.18   19.33
   1  -5   0  379.40   19.44
   1   5   0  417.53   22.64
  -1  -5   0  393.04   21.42
  -1   5   0  352.24   20.73
   1   5   0  417.86   22.95
  -1   5   0  380.97   19.68
   1  -5  -1 2760.60   50.02
  -1   5  -1 2686.03   53.97
  -1  -5   1 2596.65   56.80
   1  -5  -1 2524.49   47.05
  -1   5  -1 2716.62   45.65
  -1   5  -1 2711.07   51.05
  -1   5  -1 2655.25   49.71
   1  -5  -1 2720.94   46.51
   1  -5  -1 2657.36   49.83
  -1  -5   1 2696.21   55.33
  -1   5  -1 2701.10   52.48
  -1  -5   1 2561.42   49.92
   1  -5  -1 2730.72   53.80
  -1   5  -2  529.17   24.44
   1  -5  -2  529.31   23.68
  -1   5  -2  536.35   23.29
  -1   5  -2  527.39   24.25
  -1  -5   2  528.43   26.52
   1  -5  -2  505.41   22.15
  -1  -5   2  530.15   24.64
   1  -5  -2  526.31   22.82
  -1   5  -2  518.51   24.11
  -1  -5   2  512.30   21.29
   1  -5  -2  470.55   24.00
   1  -5  -3   73.43   10.66
  -1   5  -3   97.80   12.63
  -1  -5   3   83.49   11.96
  -1  -5   3   96.14   13.87
   1  -5  -3   97.35   12.87
   1  -5  -3   96.02   10.52
   1  -5  -3   93.02   12.91
  -1   5  -3   77.51   10.65
  -1  -5   3  108.98   13.30
  -1   5  -3   94.71   12.40
  -1   5  -3   82.45   10.06
  -1  -5   4   14.15    9.38
  -1   5  -4   13.81    5.77
  -1   5  -4   18.14    8.14
  -1  -5   4   17.58   10.38
   1  -5  -4    9.69    6.06
  -1  -5   4    9.53    7.52
   1  -5  -4   15.09    8.03
  -1  -5   4   13.26    7.64
  -1   5  -4   13.09    6.47
   1  -5  -4    7.12    7.35
  -1   5  -4    9.77    6.00
  -1   5  -5   81.23   10.64
  -1  -5   5   91.73   16.15
   1  -5  -5   80.27   12.87
  -1   5  -5  116.18   14.89
  -1  -5   5  104.26   14.23
   1  -5  -5   85.64   13.92
  -1  -5   5  108.75   17.37
   1  -5  -5   93.01   12.75
  -1  -5   5   90.77   15.04
  -1  -5   6  101.45   17.12
  -1  -5   6  126.35   19.24
  -1  -5   6  107.38   18.45
  -1  -5   7  135.79   20.93
  -1  -5   7  117.83   20.24
  -1  -5   8   29.45   17.50
  -1  -5   9   26.20   17.40
   1   6  -9   19.83   11.70
   1   6  -9  -30.91   14.61
   1   6  -8   81.72   15.05
   1   6  -8   84.87   16.67
   1   6  -8   81.81   15.70
   1   6  -7   88.96   14.89
   1   6  -7   84.53   14.40
   1   6  -7   84.29   15.53
   1   6  -6  262.64   23.46
   1   6  -6  252.46   20.50
   1   6  -6  249.89   21.75
   1   6  -5  138.23   15.85
   1   6  -5  160.24   16.82
   1   6  -5  155.32   15.80
   1   6  -5  151.53   18.31
   1  -6   5  102.98   14.87
   1   6  -4 2515.16   55.18
   1   6  -4 2264.49   60.28
   1  -6   4 2315.19   60.15
   1   6  -4 2324.21   56.28
  -1   6   4 2340.44   67.89
  -1   6   4 2358.17   63.94
   1   6  -4 2302.09   54.32
  -1   6   3  149.17   15.65
   1   6  -3  164.57   14.18
   1  -6   3  178.22   18.53
   1  -6   3  144.94   13.83
  -1   6   3  142.40   21.53
  -1   6   3  115.94   17.35
   1  -6   3  165.57   16.15
   1   6  -3  142.19   14.06
   1   6  -3  157.86   16.55
   1   6  -3  168.12   15.39
  -1   6   3  170.28   17.38
  -1   6   2 1046.86   37.12
   1  -6   2 1013.28   33.24
  -1   6   2 1033.81   43.21
   1   6  -2 1096.43   30.29
  -1   6   2  979.37   41.45
   1   6  -2 1067.07   38.13
   1  -6   2 1125.35   39.17
   1  -6   2 1083.47   38.18
   1  -6   2 1002.61   37.14
   1   6  -2 1048.78   35.90
  -1   6   2 1033.80   36.73
   1   6  -1  102.28   12.55
  -1   6   1  105.01   13.06
  -1   6   1   76.83   12.30
  -1   6   1   77.15   10.95
   1  -6   1   92.00   12.16
   1   6  -1  103.99   13.02
   1  -6   1   98.54   12.98
   1  -6   1  104.01   13.12
   1  -6   1   99.81   11.82
   1   6  -1  100.68   10.86
  -1   6   1   81.32   13.58
   1   6   0   17.09    9.48
  -1   6   0    8.84    6.99
   1   6   0   20.45    8.65
  -1  -6   0   20.02    8.80
   1  -6   0   16.90    7.15
   1  -6   0    5.41    4.99
   1  -6   0   -0.58    6.49
  -1   6   0   13.30    6.85
   1   6   0    4.46    7.39
  -1   6   0    6.03    9.09
   1  -6   0   21.12    8.25
   1  -6   0   22.32    7.83
  -1   6   0   22.43    7.29
  -1   6   0   22.61    7.66
  -1   6  -1   88.38   12.19
  -1  -6   1   91.38   11.98
   1  -6  -1   90.34   12.21
   1  -6  -1   94.90   11.13
  -1   6  -1  101.74   11.63
   1  -6  -1   94.41   12.52
  -1   6  -1  110.31   14.15
  -1  -6   1  101.06   13.91
   1  -6  -1   98.54   12.21
  -1   6  -1   98.11   12.04
  -1   6  -2 1006.94   36.85
  -1   6  -2 1019.83   37.20
  -1   6  -2 1018.02   35.28
  -1  -6   2 1090.12   41.48
   1  -6  -2 1082.85   36.93
  -1  -6   2 1120.39   40.16
  -1   6  -2  994.61   36.63
   1  -6  -2 1066.83   36.02
  -1  -6   2 1052.65   34.00
   1  -6  -2 1040.69   38.99
   1  -6  -2 1029.38   35.82
  -1   6  -3  130.79   12.93
  -1   6  -3  150.32   16.32
  -1   6  -3  151.98   15.37
  -1  -6   3  157.33   16.63
  -1  -6   3  130.83   16.62
  -1  -6   3  171.92   17.15
  -1   6  -3  147.35   16.07
   1  -6  -3  167.63   16.83
   1  -6  -3  126.95   14.32
   1  -6  -3  165.23   16.85
  -1   6  -4 2281.32   58.91
  -1   6  -4 2343.57   61.15
  -1  -6   4 2289.35   57.76
  -1   6  -4 2340.66   54.22
  -1  -6   4 2269.51   63.46
  -1  -6   4 2496.54   63.07
  -1  -6   4 2353.86   57.98
   1  -6  -4 2322.29   61.86
   1  -6  -4 2345.55   61.59
  -1  -6   5  130.56   17.06
  -1   6  -5  116.49   15.05
  -1  -6   5  152.42   19.24
  -1  -6   5  133.41   19.09
  -1  -6   5  155.00   17.05
  -1   6  -5  143.37   17.64
  -1  -6   6  278.81   22.82
  -1  -6   6  233.26   24.08
  -1  -6   6  264.90   27.33
  -1  -6   6  282.60   27.11
  -1  -6   7   98.76   20.60
  -1  -6   7  121.08   22.91
  -1  -6   7   76.64   17.31
  -1  -6   8   87.60   21.65
  -1  -6   8   80.39   22.48
  -1  -6   9   31.67   18.49
  -1  -6   9   17.76   14.92
   1   7  -9   32.52   13.78
   1   7  -8   26.55   11.18
   1   7  -8   46.65   14.67
   1   7  -7  -12.90   11.08
   1   7  -7  -23.07   11.51
   1   7  -6  -15.61   11.17
   1   7  -6   12.17   10.56
   1  -7   6   -9.68    9.86
   1   7  -5   -5.84   11.01
   1   7  -5    6.66    9.53
   1  -7   5   15.61   12.07
  -1   7   4   -8.72   13.30
   1   7  -4   17.69    9.59
  -1   7   4   16.00   15.84
   1  -7   4   -4.33   12.08
   1   7  -4   -0.55    9.37
   1  -7   4    1.76   12.90
  -1   7   3   31.51   12.18
   1   7  -3   48.74   11.40
   1  -7   3   40.06   10.00
   1  -7   3   35.68   12.71
  -1   7   3   11.48   13.74
   1  -7   3   39.86   10.78
  -1   7   3   18.27   10.97
   1   7  -3   28.09    9.54
   1  -7   3   54.61   14.53
  -1   7   2  180.48   18.29
   1  -7   2  218.61   18.14
   1   7  -2  189.69   17.96
  -1   7   2  209.11   23.09
   1  -7   2  206.02   20.06
   1  -7   2  183.98   18.23
   1   7  -2  178.61   18.13
  -1   7   2  166.04   17.88
   1  -7   2  200.39   19.72
   1  -7   1  392.12   23.84
   1  -7   1  375.31   24.79
  -1   7   1  313.18   25.57
   1  -7   1  385.40   24.92
   1  -7   1  408.58   26.15
  -1   7   1  377.58   23.73
   1   7  -1  399.45   25.90
   1   7  -1  395.89   24.87
   1   7  -1  372.62   21.35
  -1   7   1  372.21   24.88
  -1   7   0   13.54    8.72
  -1   7   0   -1.14    8.00
   1  -7   0   -6.21    8.24
   1  -7   0   -3.76    7.95
  -1   7   0  -20.61   13.04
   1  -7   0   -2.81    9.55
  -1   7  -1  396.41   25.35
  -1   7  -1  375.57   26.45
   1  -7  -1  333.73   22.84
  -1   7  -1  395.00   24.34
  -1   7  -1  366.41   23.15
  -1  -7   1  367.39   26.73
  -1  -7   1  345.98   23.59
   1  -7  -1  358.23   24.43
   1  -7  -1  391.65   23.95
  -1   7  -2  194.69   19.23
   1  -7  -2  166.02   16.88
   1  -7  -2  195.62   18.77
  -1   7  -2  206.12   18.07
  -1   7  -2  167.36   17.58
  -1  -7   2  203.05   21.64
  -1  -7   2  201.47   20.55
  -1   7  -2  209.82   19.69
   1  -7  -2  221.68   18.95
   1  -7  -2  176.34   18.87
   1  -7  -3   56.30   12.88
   1  -7  -3   45.81   11.78
  -1  -7   3   41.45   13.62
  -1   7  -3   36.82   11.36
  -1   7  -3   57.53   12.73
  -1  -7   3   58.41   13.23
  -1   7  -3   55.95   11.58
  -1   7  -3   47.85   11.13
  -1  -7   4   32.69   15.86
  -1   7  -4   -1.30    9.38
  -1  -7   4    1.76   10.45
   1  -7  -4   -1.30    9.33
   1  -7  -4    1.65   10.09
  -1   7  -4    3.68    8.85
  -1   7  -5   16.89   11.41
  -1  -7   5   -2.04   13.53
  -1   7  -5   -4.96    9.04
  -1  -7   6    4.19   15.48
  -1  -7   6   13.21   11.22
  -1   7  -6   -5.41    9.84
  -1  -7   7  -22.92   16.46
  -1  -7   7  -13.03   16.81
  -1  -7   8   24.89   19.37
  -1  -7   8   16.52   17.37
  -1  -7   9   28.06   17.69
   1   8  -8    6.25   12.91
   1   8  -7    3.36   10.71
   1  -8   6   39.44   16.24
   1   8  -6   54.92   14.63
   1   8  -6   46.34   14.79
   1  -8   6   39.60   14.08
   1   8  -5   48.20   14.39
   1  -8   5   62.22   19.34
   1   8  -5   55.25   15.20
   1  -8   5   59.31   16.86
   1   8  -4  258.61   23.18
   1  -8   4  276.25   28.02
   1   8  -4  268.12   25.18
   1  -8   4  265.41   25.89
  -1   8   3  109.98   31.36
   1  -8   3  215.17   24.28
   1  -8   3  212.35   22.85
   1  -8   3  221.49   21.47
   1   8  -3  192.60   20.48
  -1   8   3   65.89   39.92
   1   8  -3  215.58   22.25
   1   8  -2   44.66   12.44
  -1   8   2   59.26   14.60
   1  -8   2   49.47   14.23
   1  -8   2   45.32   12.34
   1  -8   2   45.14   12.70
  -1   8   2   28.09   11.82
  -1   8   2   37.01   15.68
   1   8  -2   44.77   12.74
   1  -8   2   40.78   13.54
   1  -8   1  250.77   23.19
  -1   8   1  270.45   22.56
   1  -8   1  295.44   24.41
   1   8  -1  234.35   23.46
  -1   8   1  269.50   27.05
   1   8  -1  267.62   23.84
   1  -8   1  321.74   23.93
  -1   8   1  235.54   22.60
   1  -8   0  223.46   21.54
  -1   8   0  185.71   18.93
  -1   8   0  195.15   22.84
   1  -8   0  231.14   22.76
   1  -8   0  230.23   21.07
  -1   8   0  252.16   22.76
  -1   8  -1  288.73   24.66
   1  -8  -1  314.56   26.24
  -1   8  -1  260.87   25.07
  -1   8  -1  243.27   20.91
  -1  -8   1  263.32   23.19
   1  -8  -1  305.84   24.49
   1  -8  -1  279.60   24.61
  -1   8  -2   27.75   12.27
   1  -8  -2   51.32   13.19
   1  -8  -2   36.30   11.74
  -1   8  -2   42.94   13.30
   1  -8  -2   52.79   14.05
  -1  -8   2   43.31   13.26
  -1   8  -2   38.10   11.95
  -1   8  -2   53.52   12.85
  -1   8  -3  203.21   22.07
  -1  -8   3  210.24   24.74
   1  -8  -3  202.79   21.69
  -1   8  -3  194.38   21.45
   1  -8  -3  184.77   20.74
  -1  -8   3  224.66   24.01
  -1   8  -3  218.34   22.73
  -1   8  -4  272.45   24.94
  -1  -8   4  268.91   25.08
  -1  -8   4  243.27   26.44
  -1   8  -4  233.74   23.42
  -1  -8   5   81.35   19.37
  -1   8  -5   58.44   15.28
  -1  -8   5  107.72   19.72
  -1   8  -5   54.31   14.84
  -1  -8   6   46.19   20.57
  -1  -8   6   35.67   15.99
  -1   8  -6   36.70   13.36
  -1  -8   7    8.67   17.28
   1  -9   6   49.50   15.49
   1  -9   6   71.48   21.64
   1   9  -6   44.69   15.87
   1   9  -6   77.76   18.66
   1   9  -5   13.79   11.66
   1  -9   5   13.12   16.92
   1  -9   5   49.00   17.96
   1   9  -5   28.25   14.04
   1  -9   4   46.90   18.23
   1   9  -4   22.73   12.56
   1  -9   4   37.68   15.92
   1   9  -4   31.00   14.11
  -1   9   3   -2.94   23.03
   1   9  -3   15.27   11.70
   1  -9   3   33.43   15.07
   1  -9   3   30.69   13.95
   1   9  -3   37.31   13.84
  -1   9   3   -1.70   19.12
   1   9  -2   66.93   14.66
  -1   9   2  100.73   21.73
   1  -9   2   95.69   17.20
  -1   9   2   60.96   21.95
   1  -9   2   84.34   18.15
   1   9  -2   56.28   16.26
  -1   9   2   63.67   16.60
  -1   9   1   41.94   12.77
   1  -9   1   47.52   13.14
  -1   9   1   42.79   13.91
   1  -9   1   72.68   15.95
  -1   9   1   55.24   18.43
   1  -9   1   80.62   17.61
  -1   9   0  101.07   17.60
  -1   9   0  159.68   19.41
   1  -9   0  186.67   20.96
   1  -9   0  170.51   21.07
   1  -9   0  182.42   21.96
  -1   9   0  156.86   23.77
   1  -9  -1   54.75   14.22
   1  -9  -1   46.03   13.81
   1  -9  -1   56.91   14.28
  -1   9  -1   54.60   16.24
  -1   9  -1   49.67   13.70
  -1   9  -1   46.64   14.41
  -1   9  -2   87.11   16.92
   1  -9  -2   97.46   18.32
  -1   9  -2   91.79   19.00
  -1   9  -3   32.19   14.16
   1  -9  -3   45.21   15.81
  -1  -9   3   42.66   15.59
  -1  -9   3   28.24   15.27
  -1   9  -3   21.31   13.37
  -1  -9   4   46.35   17.93
  -1   9  -4   19.34   12.74
  -1  -9   4   35.00   17.13
  -1   9  -4   18.24   14.19
  -1   9  -5    9.60   11.77
  -1  -9   5   18.02   17.55
  -1  -9   5   38.76   17.69
  -1   9  -5   33.26   14.36
  -1  -9   6   44.91   18.09
  -1   9  -6   18.42   13.21
   1  10  -5   69.04   17.85
   1  10  -5  102.22   21.37
   1  10  -4   44.99   14.63
   1  10  -4   12.38   13.57
   1  10  -3  148.94   22.59
   1 -10   3  196.55   27.59
   1  10  -3  174.70   25.72
  -1  10   2   51.84   20.92
  -1  10   2  -12.29   21.98
   1 -10   2   44.15   17.27
  -1  10   1   24.14   15.74
  -1  10   1   11.68   12.83
   1 -10   1   17.65   13.41
   1 -10   1   39.47   16.16
   1 -10   1   45.55   18.63
  -1  10   0  -13.82   20.09
   1 -10   0    0.71   13.03
  -1  10   0   -3.38   12.20
   1 -10   0  -17.26   15.75
  -1  10   0   19.60   13.69
  -1  10  -1   24.68   17.41
  -1  10  -1   37.24   15.56
   1 -10  -1   34.50   15.28
  -1  10  -1   18.80   14.45
  -1  10  -2   51.63   16.53
   1 -10  -2   36.01   16.09
  -1  10  -3  187.91   24.70
  -1  10  -4   49.61   17.16
  -1 -10   4   65.65   21.62
  -1  10  -4   63.85   17.98
  -1  10  -5  120.20   23.56
  -1  10  -5  109.55   20.71
  -1  11   1   75.99   24.17
   1 -11   1   80.45   20.01
  -1  11   0   32.42   15.09
   1 -11   0   74.52   21.33
   2   0  -2 9719.92   73.24
   2   0  -2 9846.21   73.91
  -2   0   2 9878.59   83.35
   2   0  -2 9999.00   79.64
   2   0  -2 9757.52   79.64
  -2   0   3 1081.30   29.64
   2   0  -3 1069.82   27.37
   2   0  -3 1021.96   16.70
  -2   0   3 1123.89   28.54
   2   0  -3 1105.53   25.83
   2   0  -3 1063.40   27.37
  -2   0   3 1082.38   23.46
   2   0  -3 1075.65   25.64
  -2   0   4  627.10   23.51
   2   0  -4  648.00   23.36
  -2   0   4  618.69   19.76
   2   0  -4  660.39   22.32
  -2   0   4  636.51   25.59
   2   0  -4  583.05   20.41
   2   0  -4  612.14   22.94
   2   0  -4  655.37   18.63
   2   0  -4  653.92   13.57
  -2   0   5  347.62   22.02
   2   0  -5  365.93   19.65
  -2   0   5  338.12   20.62
   2   0  -5  352.99   17.15
  -2   0   5  357.73   16.47
   2   0  -5  376.55   20.07
   2   0  -5  354.73   18.31
  -2   0   5  368.29   20.60
   2   0  -5  367.96   15.75
   2   0  -6  728.21   29.57
   2   0  -6  718.14   25.78
   2   0  -6  742.14   28.84
  -2   0   6  729.42   32.41
  -2   0   6  709.17   32.76
  -2   0   6  734.44   35.79
   2   0  -6  693.17   29.36
   2   0  -7   73.40   11.67
   2   0  -7   57.68   10.76
  -2   0   7   41.58   11.51
   2   0  -7   75.81   12.30
  -2   0   7   73.36   17.00
   2   0  -7   59.31    9.94
   2   0  -8  782.53   36.02
   2   0  -8  756.47   34.42
   2   0  -8  760.58   36.16
   2   0  -9    4.21   10.77
   2   0  -9    1.13    9.49
   2   1  -9   45.74   12.31
   2   1  -9   44.92   11.89
   2   1  -9   30.53   11.65
   2   1  -8    9.98    7.93
   2   1  -8   13.44    8.71
   2   1  -8   15.20    8.68
  -2   1   8   21.49   16.19
   2   1  -7   -4.44    7.34
   2   1  -7    9.41    8.24
  -2   1   7   -0.71   10.08
  -2   1   7   15.35   12.58
  -2   1   7   10.36   13.42
   2   1  -7    8.59    8.07
   2   1  -6  341.42   21.33
   2   1  -6  366.28   21.15
  -2   1   6  313.40   22.55
  -2   1   6  297.47   23.78
  -2   1   6  331.43   25.16
   2   1  -6  354.78   20.97
   2   1  -6  338.32   18.47
   2   1  -5  933.33   32.43
  -2   1   5  892.78   32.03
   2   1  -5  936.24   30.32
  -2   1   5  942.38   35.11
  -2   1   5  905.49   22.26
  -2   1   5  894.27   35.20
   2   1  -5  899.81   29.82
   2   1  -5  947.53   24.87
   2   1  -5  945.66   27.77
   2   1  -4   27.30    5.30
  -2   1   4   44.44    7.51
   2   1  -4   29.79    7.29
  -2   1   4   44.43    8.66
   2   1  -4   26.79    7.05
  -2   1   4   44.66    9.32
  -2   1   4   42.22    5.15
  -2   1   4   36.75    6.03
   2   1  -4   30.72    6.66
   2   1  -4   34.13    6.49
  -2   1   3  537.27   19.82
   2   1  -3  594.07   18.14
  -2   1   3  598.70   18.16
  -2   1   3  546.49   18.39
  -2   1   3  562.33   22.84
   2   1  -3  599.82   20.73
   2   1  -3  586.50   22.42
   2   1  -3  632.75   21.50
   2   1  -3  656.52   20.15
   2   1  -2 3468.84   51.44
  -2   1   2 3509.75   51.45
  -2   1   2 3418.39   43.99
  -2   1   2 3337.14   42.04
   2   1  -2 3383.14   47.68
   2   1  -2 3462.03   47.27
   2  -1  -1  535.14   18.01
   2  -1  -2 3424.29   40.15
  -2  -1   2 3333.40   52.75
   2  -1  -2 3329.99   46.86
   2  -1  -2 3422.69   42.24
   2  -1  -2 3429.49   42.01
   2  -1  -2 3345.93   39.04
   2  -1  -2 3429.28   46.83
   2  -1  -3  635.81   16.26
   2  -1  -3  599.40   17.64
   2  -1  -3  596.38   19.17
  -2  -1   3  503.79   17.72
   2  -1  -3  586.55   20.74
   2  -1  -3  594.06   18.39
  -2  -1   3  545.97   22.63
  -2  -1   3  535.01   20.15
   2  -1  -3  602.40   21.59
   2  -1  -4   31.17    4.55
   2  -1  -4   26.52    6.97
   2  -1  -4   16.16    4.51
  -2  -1   4   47.00   10.02
  -2  -1   4   32.82    6.00
   2  -1  -4   38.65    7.12
  -2  -1   4   40.99    6.57
   2  -1  -4   26.62    7.21
   2  -1  -4   25.15    5.70
   2  -1  -5  954.64   28.96
   2  -1  -5  896.77   29.60
  -2  -1   5  941.12   35.36
  -2  -1   5  959.63   29.52
  -2  -1   5  937.66   35.42
   2  -1  -5  886.76   31.18
  -2  -1   5  943.25   30.00
   2  -1  -5  970.77   30.16
   2  -1  -5  951.60   22.85
   2  -1  -6  355.99   20.41
  -2  -1   6  364.72   24.63
  -2  -1   6  347.20   20.09
  -2  -1   6  337.47   24.67
   2  -1  -6  338.71   19.17
   2  -1  -6  364.29   20.60
   2  -1  -6  339.60   21.26
   2  -1  -7   12.01    7.72
   2  -1  -7    1.90    7.23
  -2  -1   7    4.28   10.52
   2  -1  -7   -2.08    6.84
  -2  -1   7   18.33   11.30
   2  -1  -7   -1.64    6.44
  -2  -1   8    3.62   14.53
  -2  -1   8   14.51   12.70
   2  -1  -8   12.91    7.97
   2  -1  -8   35.47   12.18
   2  -1  -8   17.34   10.08
   2  -1  -9   50.28   13.43
   2  -1  -9   48.06   12.21
   2   2 -10   34.47   12.41
   2   2 -10    5.71    9.59
   2   2  -9   26.50   11.76
   2   2  -9   31.94   11.25
   2   2  -9    3.01    9.18
   2   2  -8  149.50   17.55
   2   2  -8  140.64   16.02
   2   2  -8  165.04   17.85
   2   2  -7  224.27   20.14
   2   2  -7  238.96   19.07
  -2   2   7  249.14   27.20
  -2   2   7  240.22   27.15
   2   2  -7  235.90   18.25
   2   2  -7  249.69   18.60
   2   2  -6   36.62    8.95
  -2   2   6   13.81   11.64
  -2   2   6   32.62   11.65
   2   2  -6   22.92    8.80
   2   2  -6   46.50    8.98
   2   2  -6   29.83    7.87
  -2   2   5  341.75   16.63
  -2   2   5  359.46   21.88
   2   2  -5  329.77   18.35
  -2   2   5  354.21   24.32
   2   2  -5  334.97   18.30
   2   2  -5  369.76   20.19
  -2   2   5  380.53   21.14
  -2   2   5  398.21   25.99
   2   2  -5  333.48   20.82
   2   2  -4  582.33   22.64
  -2   2   4  612.09   23.11
   2   2  -4  582.39   21.63
   2   2  -4  579.42   24.44
  -2   2   4  553.91   25.83
  -2   2   4  581.56   26.60
  -2   2   4  572.98   19.87
   2   2  -4  563.25   22.31
  -2   2   4  549.32   23.28
   2   2  -4  567.54   15.47
   2   2  -3  196.49   13.88
  -2   2   3  190.31   11.73
  -2   2   3  209.71   14.91
  -2   2   3  226.43   16.97
   2   2  -3  182.68   12.27
  -2   2   3  194.33   11.97
   2   2  -3  200.53   12.97
  -2   2   3  200.64   12.03
   2   2  -3  207.12   13.40
   2   2  -3  203.05   10.02
   2   2  -2  111.19   10.38
   2   2  -2  129.09    9.83
  -2   2   2  133.66   11.63
  -2   2   2  123.11    9.48
  -2   2   2  118.70   10.35
   2   2  -2  116.03    9.48
  -2   2   1 1286.85   32.40
  -2   2   1 1228.27   28.48
  -2   2   1 1340.52   31.93
   2  -2  -1 1281.01   29.73
   2  -2  -1 1233.28   27.81
   2  -2  -1 1292.96   27.76
   2  -2  -1 1299.18   29.29
   2  -2  -2  128.07    9.46
   2  -2  -2  125.58    8.85
   2  -2  -2  126.20   10.14
   2  -2  -2  123.50    9.40
   2  -2  -2  131.21    7.11
  -2  -2   3  178.26   13.77
   2  -2  -3  203.71   12.35
   2  -2  -3  200.41   11.36
   2  -2  -3  200.49   11.06
   2  -2  -3  206.67   14.08
  -2  -2   3  168.39   13.90
   2  -2  -3  206.35   13.57
   2  -2  -3  202.70    8.36
   2  -2  -3  191.15   10.20
  -2  -2   4  607.43   18.16
   2  -2  -4  598.60   20.42
   2  -2  -4  592.13   24.00
   2  -2  -4  572.23   18.96
  -2  -2   4  599.74   24.83
   2  -2  -4  558.54   23.27
  -2  -2   4  632.42   28.51
   2  -2  -4  578.07   18.77
   2  -2  -4  593.72   20.89
   2  -2  -5  370.70   18.70
   2  -2  -5  347.86   17.35
  -2  -2   5  373.83   24.62
  -2  -2   5  396.76   21.97
   2  -2  -5  383.49   20.79
  -2  -2   5  344.79   22.04
   2  -2  -5  359.43   20.49
   2  -2  -5  363.26   17.07
   2  -2  -5  370.50   16.24
   2  -2  -6   28.80    7.06
  -2  -2   6   25.80   11.60
   2  -2  -6   27.90    8.59
  -2  -2   6   26.51    9.84
   2  -2  -6   32.20    7.43
  -2  -2   6   24.92   10.29
   2  -2  -6   25.39    8.28
   2  -2  -7  234.71   17.38
  -2  -2   7  231.49   24.55
  -2  -2   7  285.78   22.43
  -2  -2   7  256.77   24.86
   2  -2  -7  222.26   20.17
   2  -2  -7  254.22   19.78
   2  -2  -8  169.77   20.03
   2  -2  -8  181.50   17.23
  -2  -2   8  165.64   24.26
  -2  -2   8  153.28   23.56
   2  -2  -8  164.71   17.75
  -2  -2   9    8.77   17.11
   2   3 -10   -2.51   10.97
   2   3 -10   18.04   12.14
   2   3  -9   48.74   14.20
   2   3  -9   67.57   15.11
   2   3  -8   19.39    9.65
   2   3  -8   37.16   12.04
   2   3  -8   30.22    9.69
   2   3  -8   28.49   10.65
  -2   3   7   90.53   21.84
  -2   3   7   97.84   21.42
   2   3  -7  105.50   12.77
   2   3  -7  106.02   13.72
   2   3  -7   81.25   12.25
   2   3  -7  115.69   16.06
   2   3  -6   61.06   10.36
  -2   3   6   63.76   15.47
  -2   3   6   59.28   15.32
   2   3  -6   78.23   10.60
  -2   3   6   71.13   11.26
   2   3  -6   81.49   12.77
   2   3  -6   68.33   11.03
   2   3  -5   11.51    6.73
   2   3  -5   27.40    7.25
  -2   3   5   26.47    9.27
  -2   3   5   23.72   10.48
  -2   3   5   16.31    9.94
   2   3  -5   16.76    5.94
  -2   3   5   23.44    7.15
   2   3  -5   15.91    7.19
  -2   3   4  255.60   15.72
   2   3  -4  283.45   18.65
  -2   3   4  284.14   19.17
  -2   3   4  260.31   19.93
  -2   3   4  285.48   19.74
   2   3  -4  269.73   15.71
   2   3  -4  272.02   17.26
   2   3  -4  278.24   16.78
   2   3  -4  275.17   13.54
  -2   3   3  463.58   16.54
  -2   3   3  487.20   19.98
  -2   3   3  491.45   22.60
  -2   3   3  473.85   23.92
  -2   3   3  448.72   21.91
   2   3  -3  491.12   22.77
   2   3  -3  498.26   21.05
   2   3  -3  474.53   21.77
   2   3  -3  488.20   17.72
  -2   3   2  529.53   18.66
   2   3  -2  536.80   22.76
  -2   3   2  490.91   21.90
  -2   3   2  514.87   23.03
  -2   3   2  534.33   20.99
   2   3  -2  500.09   21.74
   2   3  -2  503.15   18.73
  -2   3   1  669.81   22.01
  -2   3   1  724.08   26.68
  -2   3   1  691.15   25.85
  -2   3   1  667.98   23.29
  -2   3   0  273.72   15.94
   2  -3   0  270.95   14.83
   2  -3   0  230.07   13.34
  -2   3   0  261.60   14.91
  -2   3   0  253.75   16.12
   2  -3   0  254.52   14.82
   2  -3  -1  677.26   23.56
   2  -3  -1  693.54   23.83
   2  -3  -1  658.61   19.91
   2  -3  -1  679.46   22.37
   2  -3  -1  707.61   21.03
   2  -3  -2  543.06   21.19
   2  -3  -2  474.26   18.49
   2  -3  -2  515.14   21.04
   2  -3  -2  519.05   19.48
   2  -3  -2  527.17   16.96
   2  -3  -3  459.49   20.39
   2  -3  -3  471.78   18.38
   2  -3  -3  487.19   21.70
   2  -3  -3  467.08   13.75
  -2  -3   3  456.44   23.07
  -2  -3   3  481.37   24.18
   2  -3  -3  469.37   19.38
   2  -3  -3  457.04   15.24
   2  -3  -4  245.13   14.22
   2  -3  -4  239.24   16.95
   2  -3  -4  253.79   12.27
  -2  -3   4  258.72   19.20
  -2  -3   4  271.63   19.27
   2  -3  -4  246.51   16.25
  -2  -3   4  282.18   16.58
   2  -3  -4  248.10   16.04
   2  -3  -5   20.50    8.13
  -2  -3   5   15.85   10.75
  -2  -3   5   17.07    8.82
   2  -3  -5   22.19    6.56
  -2  -3   5    7.35    6.95
   2  -3  -5   16.63    5.82
   2  -3  -5   16.88    8.12
   2  -3  -6   55.90    9.08
   2  -3  -6   89.65   13.44
  -2  -3   6   80.90   15.45
  -2  -3   6   80.05   16.53
  -2  -3   6   99.30   15.26
  -2  -3   6   66.21   12.61
   2  -3  -6   58.07   10.58
  -2  -3   7   72.93   16.02
  -2  -3   7   79.16   17.37
  -2  -3   7   87.85   15.44
  -2  -3   7   81.50   15.77
   2  -3  -7  107.89   14.74
   2  -3  -7   90.75   14.42
  -2  -3   8   61.42   19.67
  -2  -3   8   44.42   16.01
  -2  -3   8   46.01   17.83
   2  -3  -8   15.53   10.40
   2  -3  -8   28.38   11.84
  -2  -3   9   49.05   22.21
   2   4 -10   58.24   15.84
   2   4 -10   19.86   10.61
   2   4  -9   62.76   14.76
   2   4  -9   57.01   13.21
   2   4  -9   83.42   16.42
   2   4  -8   29.09   12.29
   2   4  -8   15.39    8.68
   2   4  -8   23.25    9.90
  -2   4   7  275.40   25.74
   2   4  -7  258.35   22.81
   2   4  -7  341.03   23.51
   2   4  -7  282.06   22.40
  -2   4   6   24.16   15.72
   2   4  -6    8.61    9.14
   2   4  -6    7.82    8.13
  -2   4   6    1.23    8.39
  -2   4   6  -15.41   13.95
   2   4  -6   -6.87    8.41
   2   4  -5  125.69   13.75
  -2   4   5  115.17   16.95
  -2   4   5  126.26   16.51
  -2   4   5   91.99   16.24
   2   4  -5  125.10   14.51
  -2   4   5  116.82   13.75
   2   4  -5  114.26   13.88
  -2   4   4  250.46   17.30
  -2   4   4  248.92   19.70
  -2   4   4  296.49   22.75
  -2   4   4  261.78   20.75
   2   4  -4  265.03   17.37
   2   4  -4  271.34   19.08
   2   4  -4  268.60   18.40
   2   4  -4  272.20   15.42
   2   4  -3  165.46   15.98
  -2   4   3  157.00   14.45
  -2   4   3  163.50   13.90
  -2   4   3  172.80   16.77
  -2   4   3  163.89   15.66
   2   4  -3  187.28   16.08
  -2   4   3  155.42   12.17
  -2   4   2  693.98   24.08
   2   4  -2  643.37   26.29
  -2   4   2  687.02   25.73
  -2   4   2  731.41   29.45
  -2   4   2  708.24   30.02
  -2   4   2  714.95   25.06
   2   4  -2  717.31   28.79
   2   4  -2  686.17   24.76
  -2   4   1 2108.07   43.49
   2  -4   1 2248.17   45.69
  -2   4   1 2014.79   44.15
  -2   4   1 2121.57   49.98
  -2   4   1 2169.12   49.06
   2  -4   1 2139.35   46.42
   2  -4   1 2220.24   46.44
  -2   4   0   14.21    5.40
   2  -4   0    3.76    5.59
   2  -4   0    4.12    4.07
  -2   4   0    5.78    5.01
   2  -4   0    2.42    4.56
  -2   4   0   12.97    6.06
  -2   4   0   10.33    7.36
   2  -4   0    5.70    4.77
  -2   4  -1 2162.77   47.24
   2  -4  -1 2182.65   46.00
   2  -4  -1 2168.91   43.06
   2  -4  -1 2083.01   44.38
  -2   4  -1 2214.69   45.33
  -2   4  -1 2168.76   50.08
  -2   4  -1 2108.81   45.07
   2  -4  -1 2065.58   35.92
   2  -4  -1 2113.84   41.13
   2  -4  -2  718.04   27.14
  -2   4  -2  690.28   28.37
   2  -4  -2  686.86   24.54
   2  -4  -2  649.50   25.65
   2  -4  -2  693.19   22.33
   2  -4  -2  696.99   22.81
   2  -4  -3  179.24   13.57
   2  -4  -3  180.33   15.06
  -2  -4   3  145.47   15.27
   2  -4  -3  167.02   13.02
   2  -4  -3  169.82   11.60
   2  -4  -3  176.18   14.62
   2  -4  -4  273.24   19.47
  -2  -4   4  273.22   21.68
  -2  -4   4  243.32   19.68
   2  -4  -4  258.23   17.08
  -2  -4   4  247.79   17.60
   2  -4  -4  261.91   18.19
   2  -4  -4  265.24   16.28
   2  -4  -5  100.62   12.07
  -2  -4   5  150.86   17.57
  -2  -4   5  127.67   17.43
   2  -4  -5  130.96   14.36
   2  -4  -5  114.99   14.35
   2  -4  -5  114.93   11.63
   2  -4  -6   -6.36    6.95
  -2  -4   6    6.65   11.15
  -2  -4   6   23.61   13.30
   2  -4  -6    3.05    8.22
   2  -4  -6   -4.74    7.21
  -2  -4   6   -3.63   10.20
   2  -4  -7  316.33   24.95
  -2  -4   7  328.05   29.87
  -2  -4   7  346.20   30.95
   2  -4  -7  308.85   23.86
  -2  -4   7  319.40   27.53
  -2  -4   8   14.35   15.99
  -2  -4   8   37.84   18.60
  -2  -4   8   14.92   16.22
  -2  -4   9   68.09   22.33
  -2  -4   9   69.09   21.96
  -2  -4   9   90.04   26.38
  -2  -4  10   42.23   25.19
   2   5 -10   20.23   13.93
   2   5 -10    3.15   11.37
   2   5 -10   26.13   15.29
   2   5  -9   16.53   10.97
   2   5  -9   -2.41    9.72
   2   5  -9   18.28   12.24
   2   5  -8   22.05   11.58
   2   5  -8   35.34   11.51
   2   5  -8   39.64   13.62
   2   5  -7   51.58   12.01
  -2   5   7    5.95   14.27
   2   5  -7   26.40   13.02
   2   5  -7   39.59   12.29
   2   5  -6   60.13   11.28
  -2   5   6   45.33   18.16
   2   5  -6   96.47   15.47
  -2   5   6   49.93   13.13
   2   5  -6   59.91   13.56
   2   5  -5  163.53   15.06
   2   5  -5  142.48   16.85
  -2   5   5  128.94   20.64
  -2   5   5  121.25   18.60
  -2   5   5  134.45   16.62
   2   5  -5  122.43   15.26
   2   5  -4  412.21   24.61
  -2   5   4  411.58   23.95
   2   5  -4  438.21   23.21
  -2   5   4  413.50   28.88
  -2   5   4  423.03   28.69
  -2   5   4  433.78   28.65
   2   5  -4  466.79   26.24
   2   5  -4  419.21   21.53
   2   5  -3  549.44   26.28
  -2   5   3  557.38   30.90
  -2   5   3  537.24   30.33
  -2   5   3  552.81   27.09
   2   5  -3  597.37   28.81
   2   5  -3  540.59   23.97
  -2   5   3  583.67   24.94
   2   5  -2   48.30    8.99
  -2   5   2   44.58    8.58
  -2   5   2   59.92    9.37
   2   5  -2   49.09    8.80
   2  -5   2   40.90    8.89
  -2   5   2   37.46   10.37
  -2   5   2   52.95   11.60
   2  -5   2   50.53    9.51
   2   5  -2   46.72    9.31
   2  -5   2   52.71   10.38
  -2   5   1  358.57   20.09
   2  -5   1  365.31   20.16
  -2   5   1  328.72   23.23
  -2   5   1  388.59   21.82
  -2   5   1  338.39   21.66
   2  -5   1  371.73   21.96
   2  -5   1  384.09   21.48
  -2   5   0  607.54   26.99
   2  -5   0  693.76   27.41
   2  -5   0  670.33   28.45
   2  -5   0  649.80   26.16
  -2   5   0  665.21   28.11
  -2   5   0  696.18   32.03
  -2   5   0  699.66   29.09
   2  -5   0  727.85   28.48
  -2   5   0  644.16   25.55
  -2   5  -1  354.82   21.59
   2  -5  -1  388.61   21.99
   2  -5  -1  374.78   20.51
   2  -5  -1  358.71   20.30
  -2   5  -1  368.05   20.77
  -2   5  -1  371.50   23.74
  -2   5  -1  376.16   21.15
   2  -5  -1  358.48   19.37
  -2   5  -2   42.58    8.82
   2  -5  -2   50.50    9.40
   2  -5  -2   37.40    8.49
   2  -5  -2   59.03   10.53
  -2   5  -2   54.29    9.42
  -2   5  -2   38.60   10.59
   2  -5  -2   48.71    9.26
   2  -5  -3  576.13   25.50
   2  -5  -3  583.15   27.60
  -2  -5   3  592.87   31.83
   2  -5  -3  565.44   22.67
   2  -5  -3  566.55   23.32
   2  -5  -3  556.36   27.65
   2  -5  -4  444.87   26.21
  -2  -5   4  415.69   27.51
  -2  -5   4  445.92   29.19
   2  -5  -4  451.09   22.74
  -2  -5   4  460.70   25.45
   2  -5  -4  388.11   24.10
   2  -5  -4  428.42   22.90
   2  -5  -5  150.81   16.40
  -2  -5   5  182.06   20.67
   2  -5  -5  160.82   17.60
   2  -5  -5  141.96   15.08
  -2  -5   5  148.21   19.54
   2  -5  -5  133.70   14.69
   2  -5  -6   89.62   15.00
  -2  -5   6   56.73   14.90
  -2  -5   6   41.65   13.27
   2  -5  -6   74.07   12.90
   2  -5  -6   79.16   13.50
  -2  -5   6   69.97   16.26
   2  -5  -7   29.58   10.74
  -2  -5   7    8.73   13.27
  -2  -5   7   67.04   19.14
  -2  -5   7   56.40   15.13
   2  -5  -7   56.97   13.70
   2  -5  -7   56.43   13.43
  -2  -5   8    7.73   16.26
  -2  -5   8   47.24   17.58
  -2  -5   8   23.18   14.94
  -2  -5   9   14.38   19.03
  -2  -5   9    6.46   16.75
  -2  -5   9   29.91   20.13
  -2  -5  10    5.73   22.67
  -2  -5  10    5.58   22.12
   2   6 -10   -4.52   11.77
   2   6 -10   34.89   14.52
   2   6 -10   21.61   14.91
   2   6  -9   45.13   16.08
   2   6  -9   50.82   15.42
   2   6  -9   28.05   12.96
   2   6  -8   88.62   15.59
   2   6  -8   57.42   14.98
   2   6  -8   78.03   16.77
   2   6  -7  238.06   24.33
   2   6  -7  231.41   21.47
   2   6  -7  210.69   22.72
  -2   6   6  290.63   28.75
   2   6  -6  284.83   24.63
   2   6  -6  318.55   23.81
   2   6  -6  273.17   24.52
  -2   6   5  236.83   22.53
   2   6  -5  228.26   22.03
  -2   6   5  222.33   26.86
  -2   6   5  248.28   27.77
   2   6  -5  290.03   22.02
   2   6  -5  264.25   22.45
   2   6  -4  252.27   21.56
  -2   6   4  238.07   21.89
   2   6  -4  297.92   21.72
  -2   6   4  213.97   26.15
  -2   6   4  302.52   29.41
   2   6  -4  218.95   21.65
   2   6  -4  231.11   19.48
   2   6  -3   39.46    9.92
  -2   6   3   37.43    9.91
   2  -6   3   51.28   10.43
  -2   6   3   20.45   10.94
   2   6  -3   38.03    9.70
  -2   6   3   31.91   13.99
   2   6  -3   52.22   11.85
   2  -6   3   36.24   10.90
  -2   6   3   28.10   10.09
  -2   6   2  444.14   24.85
   2  -6   2  485.76   25.48
  -2   6   2  479.71   30.05
  -2   6   2  498.20   27.50
   2  -6   2  499.44   28.22
  -2   6   2  491.60   30.04
   2  -6   2  458.81   27.02
   2   6  -2  444.22   26.95
   2   6  -2  470.96   25.93
  -2   6   1   29.95    9.48
   2  -6   1   32.20    9.37
  -2   6   1   40.42   10.03
  -2   6   1   27.87   10.90
   2  -6   1   36.25    9.38
  -2   6   1   37.51   13.29
   2  -6   1   32.19   10.41
  -2   6   0  563.03   28.56
   2  -6   0  563.73   26.73
   2  -6   0  542.50   28.35
   2  -6   0  600.96   26.60
  -2   6   0  550.50   31.86
  -2   6   0  613.99   29.52
  -2   6   0  623.58   29.59
   2  -6   0  647.56   29.43
  -2   6  -1   54.75   12.13
   2  -6  -1   32.22    9.08
  -2   6  -1   24.41    8.91
   2  -6  -1   28.93    8.03
   2  -6  -1   28.33    9.50
  -2   6  -1   32.17   11.52
   2  -6  -1   48.59   10.24
  -2   6  -1   37.34    9.02
   2  -6  -2  460.82   26.48
   2  -6  -2  478.16   25.17
  -2   6  -2  476.04   27.81
   2  -6  -2  397.38   23.32
  -2   6  -2  474.99   29.16
  -2   6  -2  459.52   25.09
   2  -6  -2  440.61   23.44
  -2   6  -2  444.85   26.05
  -2   6  -3   50.10   11.75
   2  -6  -3   39.51   10.40
   2  -6  -3   29.79    9.20
   2  -6  -3   39.09   10.60
  -2  -6   3   35.24   12.10
   2  -6  -3   43.76    9.63
  -2   6  -3   39.13   11.38
   2  -6  -4  227.30   21.67
  -2  -6   4  210.47   23.40
  -2  -6   4  289.65   24.10
   2  -6  -4  284.47   21.99
   2  -6  -4  225.30   22.01
  -2  -6   5  261.55   25.13
   2  -6  -5  255.33   23.23
  -2  -6   5  253.03   25.37
  -2  -6   5  291.62   23.30
  -2  -6   5  297.85   26.64
   2  -6  -5  249.33   20.40
   2  -6  -5  253.50   22.12
   2  -6  -6  286.86   25.04
  -2  -6   6  312.18   28.76
  -2  -6   6  320.65   28.97
  -2  -6   6  359.85   31.67
   2  -6  -6  299.07   24.88
  -2  -6   7  242.41   27.92
  -2  -6   7  240.40   29.12
  -2  -6   7  286.13   29.88
  -2  -6   8   81.45   21.70
  -2  -6   8   70.58   21.48
  -2  -6   8   80.30   21.87
  -2  -6   9   62.31   24.58
  -2  -6   9   39.15   20.52
  -2  -6   9    7.81   18.83
   2   7  -9  -11.46   13.98
   2   7  -9  -13.91   13.12
   2   7  -9   -4.51   11.60
   2   7  -8   -2.65   10.96
   2   7  -8   24.45   11.80
   2   7  -8   -0.77   12.04
   2   7  -7   30.83   11.12
   2   7  -7   26.34   12.83
   2   7  -7   31.89   13.40
   2   7  -6   53.63   12.15
   2   7  -6   62.69   15.12
   2   7  -6   85.14   17.22
   2   7  -5   29.82   11.47
   2   7  -5   31.80   12.24
  -2   7   5   18.07   17.29
  -2   7   5   10.33   17.10
   2   7  -5   38.53   13.66
  -2   7   5   20.22   12.47
   2   7  -4  168.07   18.42
  -2   7   4  146.32   23.42
  -2   7   4  159.91   23.44
   2   7  -4  188.76   19.95
  -2   7   4  104.45   16.41
   2  -7   4  125.33   17.04
   2   7  -4  182.47   17.91
   2   7  -3   30.42    9.80
  -2   7   3   34.93   11.30
   2  -7   3   26.07   10.60
  -2   7   3   33.46   13.55
  -2   7   3   33.27   15.24
   2   7  -3   34.74   12.22
   2  -7   3   52.43   14.65
  -2   7   3   39.24   13.32
  -2   7   2    6.57    9.21
  -2   7   2    6.44    9.77
   2  -7   2    5.53    8.65
  -2   7   2   16.71   11.59
  -2   7   2   15.30   13.76
   2  -7   2   16.30    9.51
   2  -7   2    0.79    8.84
   2  -7   2   17.47   11.25
  -2   7   1   11.07    9.35
   2  -7   1    8.16    9.15
  -2   7   1   29.16   10.86
  -2   7   1   12.63   10.63
   2  -7   1   14.98    8.37
  -2   7   1  -10.38   13.46
   2  -7   1   34.41   11.98
   2  -7   0   10.45    9.27
   2  -7   0   30.34    9.60
  -2   7   0    8.18   12.02
  -2   7   0   35.62   10.84
   2  -7   0   22.22   11.26
  -2   7  -1   13.77   10.09
   2  -7  -1   26.94   10.57
  -2   7  -1   16.78    9.87
   2  -7  -1   12.70    8.72
   2  -7  -1   21.21    8.47
  -2   7  -1   16.82   11.58
   2  -7  -1   18.78   10.13
   2  -7  -2   11.16    9.50
   2  -7  -2   19.41    9.45
  -2   7  -2    1.03    8.22
   2  -7  -2    5.59    8.80
  -2   7  -2    4.94    9.23
  -2   7  -2   24.48   12.51
   2  -7  -2   -4.24    8.66
  -2   7  -2    4.00    7.70
   2  -7  -3   50.96   12.85
   2  -7  -3   47.38   12.38
   2  -7  -3   44.75   11.58
  -2   7  -3   25.23   11.18
   2  -7  -3   54.19   11.66
  -2   7  -3   47.92   13.86
  -2   7  -4  142.84   18.09
   2  -7  -4  174.47   19.61
   2  -7  -4  141.58   18.25
   2  -7  -4  152.51   17.21
  -2   7  -4  186.51   20.66
  -2  -7   4  194.91   25.03
   2  -7  -5   41.24   13.52
   2  -7  -5   16.55   11.49
  -2  -7   5   24.44   15.44
  -2  -7   5   50.11   15.32
   2  -7  -6   52.77   14.85
   2  -7  -6   65.19   15.28
  -2  -7   6   67.52   18.14
  -2  -7   6   74.95   19.72
  -2  -7   6   43.85   17.30
  -2  -7   7   12.29   14.98
  -2  -7   7    9.31   17.87
  -2  -7   7   41.33   17.80
  -2  -7   8  -14.58   19.81
  -2  -7   8   18.94   17.70
  -2  -7   8   -6.27   17.45
  -2  -7   9  -22.43   24.14
   2   8  -7   71.33   18.55
   2   8  -6   33.68   14.87
   2   8  -5   64.93   14.27
  -2   8   5   81.83   22.31
   2   8  -4   11.70    9.54
  -2   8   4   -3.75   17.29
  -2   8   4   16.72   18.40
   2  -8   4    9.87   12.68
   2   8  -4    5.52   11.58
   2  -8   4   17.87   14.42
  -2   8   4    6.76   12.27
   2   8  -3   18.13   10.60
  -2   8   3   32.67   14.28
  -2   8   3   32.80   12.57
   2  -8   3   24.41   11.26
  -2   8   3   -4.17   15.53
   2  -8   3   24.26   13.22
  -2   8   3   16.54   16.68
   2   8  -3   36.87   14.10
   2  -8   3   23.37   11.01
   2  -8   3   14.89   12.94
  -2   8   2  185.01   21.64
  -2   8   2  164.71   20.54
   2  -8   2  168.63   19.43
  -2   8   2  162.05   24.71
   2  -8   2  182.20   20.81
   2  -8   2  176.60   21.28
  -2   8   1  293.34   26.57
   2  -8   1  290.32   23.73
   2  -8   1  341.93   27.80
  -2   8   1  351.46   27.94
  -2   8   1  357.44   32.65
   2  -8   1  315.38   26.48
  -2   8   0  -13.41   10.37
   2  -8   0   15.24   11.73
   2  -8   0   12.28   10.43
  -2   8   0    8.58   14.65
  -2   8   0   10.76   10.96
   2  -8   0   -2.08   11.10
  -2   8  -1  329.91   27.36
   2  -8  -1  307.40   25.76
  -2   8  -1  303.82   25.23
   2  -8  -1  299.76   24.33
  -2   8  -1  276.76   26.88
   2  -8  -1  344.43   25.75
   2  -8  -2  159.72   19.18
  -2   8  -2  135.90   18.47
   2  -8  -2  148.73   19.19
  -2   8  -2  191.24   23.30
  -2   8  -2  175.56   20.53
   2  -8  -2  198.07   20.97
   2  -8  -3   19.60   11.85
   2  -8  -3   12.40   11.00
   2  -8  -3   32.30   13.12
  -2   8  -3   45.25   14.99
   2  -8  -3   25.96   11.60
   2  -8  -4   15.17   11.18
   2  -8  -4   12.50   11.26
   2  -8  -4   11.45   11.18
  -2  -8   4    0.92   12.55
  -2   8  -4   -1.48   10.17
   2  -8  -5   58.51   16.00
   2  -8  -5   34.91   14.67
  -2  -8   5   40.19   17.30
  -2  -8   6   23.84   20.34
  -2  -8   7   72.34   21.67
   2   9  -6   -0.05   13.76
   2   9  -5    5.37   10.90
   2   9  -5   37.71   16.04
  -2   9   4   74.48   24.09
   2   9  -4   56.33   14.60
  -2   9   4  109.87   29.17
   2   9  -4   73.22   18.73
   2  -9   4   76.43   17.72
  -2   9   3   63.98   18.48
  -2   9   3   39.12   22.82
   2  -9   3   27.07   13.01
   2  -9   3   29.49   14.68
  -2   9   2   77.40   16.19
   2  -9   2   96.20   17.60
  -2   9   2   72.20   16.69
  -2   9   2   83.81   23.24
   2  -9   2  112.74   18.57
   2  -9   2  104.07   17.74
  -2   9   1  103.78   20.28
   2  -9   1   83.48   18.02
  -2   9   1   65.02   16.79
  -2   9   1   57.56   20.20
   2  -9   1   52.36   14.50
   2  -9   1   78.30   18.59
  -2   9   0   38.84   14.69
   2  -9   0   60.73   15.74
   2  -9   0   53.59   13.43
  -2   9   0   20.63   15.44
   2  -9   0   55.07   15.98
  -2   9   0   54.89   15.70
  -2   9  -1   60.90   23.72
   2  -9  -1   49.31   14.60
   2  -9  -1   69.75   16.32
  -2   9  -1   94.59   20.98
   2  -9  -1   62.96   16.45
  -2   9  -2  106.91   19.44
   2  -9  -2   82.99   16.25
  -2   9  -2  106.90   18.17
   2  -9  -2   81.21   18.27
  -2   9  -2  129.86   22.95
   2  -9  -2   66.17   15.41
   2  -9  -3   27.08   12.97
  -2   9  -3   40.54   14.61
   2  -9  -3   27.80   13.40
  -2   9  -3   29.52   16.21
  -2   9  -4  103.55   20.06
   2  -9  -4   77.65   19.34
   2  -9  -4   80.24   16.92
  -2  10   3   45.92   22.30
  -2  10   2   65.24   21.91
  -2  10   2   18.93   20.83
  -2  10   2   44.63   17.29
   2 -10   2   43.77   15.76
   2 -10   2   30.05   16.85
  -2  10   1   83.89   19.32
  -2  10   1  132.98   27.56
  -2  10   1   87.50   20.07
  -2  10   0   35.20   16.02
   2 -10   0   46.82   15.21
  -2  10   0   28.89   18.19
   2 -10   0   71.88   18.85
   2 -10   0   20.65   14.38
  -2  10   0   53.65   16.97
   2 -10  -1  108.12   20.18
   2 -10  -1  116.10   21.05
   2 -10  -1  105.44   21.41
   2 -10  -2   35.80   15.51
   2 -10  -2   26.31   15.66
  -2  10  -2   32.69   14.84
  -2  10  -2   22.46   18.67
   2 -10  -2   46.84   18.22
  -2  10  -3   -6.64   12.97
   2 -10  -3   16.73   14.40
   2 -10  -4   68.98   19.90
  -2  11  -1   17.66   15.41
   3   0  -3 1609.68   39.94
  -3   0   3 1659.50   41.39
   3   0  -3 1654.70   39.93
   3   0  -4 2392.91   49.04
   3   0  -4 2241.05   44.96
   3   0  -4 2445.76   46.23
  -3   0   4 2369.33   53.51
  -3   0   4 2269.26   51.08
   3   0  -4 2379.17   49.43
   3   0  -4 2429.47   38.23
   3   0  -5  208.90   16.24
   3   0  -5  241.11   16.08
   3   0  -5  257.67   16.05
  -3   0   5  237.03   19.15
  -3   0   5  224.34   18.31
   3   0  -5  245.89   17.69
   3   0  -6   41.10    9.18
  -3   0   6   28.92   11.47
  -3   0   6   39.45   12.71
  -3   0   6   46.82   11.69
  -3   0   6   20.83   11.53
   3   0  -6   28.45    8.84
   3   0  -6   41.09   11.52
   3   0  -6   25.25    9.02
   3   0  -7  112.83   15.13
   3   0  -7  100.98   13.29
  -3   0   7  123.63   18.34
  -3   0   7  123.84   19.72
  -3   0   7   97.21   19.44
   3   0  -7   95.17   13.79
   3   0  -8  166.12   18.47
   3   0  -8  167.68   17.64
  -3   0   8  175.57   22.85
  -3   0   8  226.83   26.97
  -3   0   8  176.38   26.71
   3   0  -8  177.03   19.23
   3   0  -9   22.68   10.19
   3   0  -9   -0.11    8.87
  -3   0   9   22.89   15.25
  -3   0   9    2.25   19.17
  -3   0   9    2.25   18.70
   3   0  -9   29.05   11.63
   3   0 -10   32.28   12.22
  -3   0  10   48.69   24.60
  -3   0  10  -11.29   25.65
   3   0 -10   46.08   14.58
   3   0 -11   90.78   17.94
   3   0 -11  120.99   20.84
   3   1 -11   33.65   13.21
   3   1 -11   19.80   12.34
   3   1 -10    2.84   10.20
   3   1 -10    3.75   11.11
   3   1 -10    5.55   10.26
   3   1  -9    0.26    9.14
   3   1  -9   17.54    9.94
  -3   1   9   24.91   20.71
  -3   1   9   -3.65   18.89
   3   1  -9    3.52    9.63
   3   1  -8  248.08   22.85
   3   1  -8  265.29   21.79
  -3   1   8  233.47   27.01
  -3   1   8  326.45   31.05
  -3   1   8  303.32   30.87
  -3   1   8  286.30   31.31
   3   1  -8  318.62   24.29
   3   1  -7   47.39   10.38
  -3   1   7   64.61   15.69
   3   1  -7   55.84   11.46
  -3   1   7   56.08   15.31
  -3   1   7   23.39   14.37
   3   1  -7   57.22   11.87
  -3   1   7   56.78   16.06
   3   1  -6  182.09   17.75
   3   1  -6  198.58   16.77
  -3   1   6  197.70   19.39
  -3   1   6  223.77   21.39
  -3   1   6  197.73   19.50
  -3   1   6  205.25   22.11
   3   1  -6  215.87   17.61
   3   1  -5   54.68   10.69
   3   1  -5   49.74    7.56
   3   1  -5   50.81    8.86
  -3   1   5   48.43   10.03
  -3   1   5   53.27   12.71
  -3   1   5   55.40   13.55
   3   1  -5   53.94    9.22
   3   1  -5   54.66    8.31
   3   1  -4  663.65   27.91
   3   1  -4  641.02   25.07
  -3   1   4  644.45   26.86
  -3   1   4  630.53   22.91
  -3   1   4  663.11   29.64
   3   1  -4  654.52   25.70
   3   1  -4  677.37   23.51
   3   1  -3  495.70   23.78
  -3   1   3  480.32   24.23
  -3   1   3  464.85   19.71
   3   1  -3  509.07   22.63
   3   1  -3  475.30   19.16
   3  -1  -3  474.73   19.97
   3  -1  -3  466.57   16.51
   3  -1  -3  449.64   20.18
   3  -1  -3  471.82   21.46
   3  -1  -4  567.86   17.99
   3  -1  -4  609.85   23.81
   3  -1  -4  579.41   21.99
   3  -1  -4  658.72   25.58
  -3  -1   4  618.25   29.23
  -3  -1   4  639.31   25.06
   3  -1  -4  619.76   25.99
   3  -1  -5   59.06    9.57
   3  -1  -5   42.47    7.92
   3  -1  -5   64.96   10.50
  -3  -1   5   46.27   12.32
  -3  -1   5   41.38    8.87
  -3  -1   5   38.64    9.45
   3  -1  -5   61.75   10.58
   3  -1  -6  196.71   16.71
   3  -1  -6  208.15   15.98
   3  -1  -6  192.14   16.31
  -3  -1   6  210.54   21.50
  -3  -1   6  215.90   22.03
   3  -1  -6  197.52   17.69
   3  -1  -7   57.04   11.71
   3  -1  -7   69.12   11.30
   3  -1  -7   63.19   11.62
  -3  -1   7   52.99   14.61
  -3  -1   7   66.31   16.19
  -3  -1   7   72.63   17.62
   3  -1  -7   61.17   12.49
   3  -1  -8  275.72   22.73
   3  -1  -8  259.38   20.94
   3  -1  -8  291.75   21.55
  -3  -1   8  290.78   29.68
  -3  -1   8  262.34   29.80
  -3  -1   8  249.81   28.57
   3  -1  -8  265.40   23.33
   3  -1  -9    7.86    9.88
   3  -1  -9   22.71   10.38
  -3  -1   9  -21.06   17.24
  -3  -1   9   21.07   18.38
  -3  -1   9   -8.67   19.65
   3  -1  -9   -1.23   10.41
   3  -1 -10   10.83   10.12
  -3  -1  10   18.43   19.39
  -3  -1  10   24.98   24.52
  -3  -1  10    5.54   24.62
   3  -1 -10   34.56   14.13
  -3  -1  11   19.53   28.52
   3   2 -11   23.68   14.06
   3   2 -11    2.40   11.15
   3   2 -10   10.71   12.07
   3   2 -10   -5.65   11.04
   3   2 -10   17.87   10.96
   3   2  -9   49.33   14.60
   3   2  -9   45.26   11.92
  -3   2   9   36.55   24.05
   3   2  -9   38.56   11.44
   3   2  -8   39.71   10.61
   3   2  -8   23.16   10.97
  -3   2   8   20.93   17.85
  -3   2   8   41.72   18.66
   3   2  -8   21.42    9.80
   3   2  -7  192.34   20.27
   3   2  -7  195.17   18.65
  -3   2   7  197.16   24.27
  -3   2   7  185.05   24.96
   3   2  -7  168.21   16.35
   3   2  -6  412.91   26.35
   3   2  -6  405.21   23.86
  -3   2   6  411.18   26.83
  -3   2   6  455.87   27.27
  -3   2   6  417.97   29.76
  -3   2   6  392.12   29.62
   3   2  -6  407.76   23.43
   3   2  -6  416.76   22.63
  -3   2   5   70.87   10.24
  -3   2   5   62.47   11.65
   3   2  -5   80.51   12.90
   3   2  -5   82.19   11.40
  -3   2   5   41.65   10.08
  -3   2   5   62.15   14.04
  -3   2   5   26.75   11.06
   3   2  -5   89.51   11.73
   3   2  -5   73.80   10.58
  -3   2   4   31.34    7.58
   3   2  -4   35.04    8.91
  -3   2   4   43.69    7.83
  -3   2   4   40.16   11.29
   3   2  -4   33.71    7.60
   3   2  -4   29.37    7.76
  -3   2   4   39.98    8.67
   3   2  -4   30.61    6.99
   3   2  -3 1807.72   47.00
  -3   2   3 1831.38   42.40
  -3   2   3 1839.15   49.41
  -3   2   3 1895.27   41.57
  -3   2   2  799.20   31.19
  -3   2   2  716.09   26.59
   3  -2  -2  759.00   22.83
   3  -2  -2  752.66   24.16
   3  -2  -2  753.14   26.25
   3  -2  -2  814.52   27.75
   3  -2  -3 1864.82   36.42
   3  -2  -3 1789.42   35.12
   3  -2  -3 1905.64   39.87
   3  -2  -3 1887.76   43.62
   3  -2  -3 1817.11   42.60
   3  -2  -4   37.80    7.24
   3  -2  -4   32.88    6.67
   3  -2  -4   34.98    8.01
  -3  -2   4   24.83   10.56
   3  -2  -4   30.25    6.48
   3  -2  -4   43.31    8.68
   3  -2  -4   27.96    5.73
   3  -2  -5   92.72    9.59
   3  -2  -5   83.32   11.03
   3  -2  -5   75.61    9.13
   3  -2  -5   74.12   11.53
  -3  -2   5   47.03   11.46
  -3  -2   5   55.94   11.73
   3  -2  -5   77.17   11.87
   3  -2  -6  441.84   23.59
   3  -2  -6  411.51   24.61
   3  -2  -6  409.44   21.78
  -3  -2   6  456.51   31.58
  -3  -2   6  446.91   26.62
  -3  -2   6  410.07   27.83
   3  -2  -6  400.73   25.09
   3  -2  -7  183.97   18.88
   3  -2  -7  198.81   16.91
  -3  -2   7  195.35   23.36
  -3  -2   7  182.25   22.71
  -3  -2   7  189.27   22.46
   3  -2  -7  186.48   19.29
   3  -2  -8   32.70   11.25
  -3  -2   8   38.08   16.21
  -3  -2   8   31.40   15.29
  -3  -2   8   18.26   16.66
   3  -2  -8   41.73   12.87
   3  -2  -9   50.43   13.83
  -3  -2   9   55.41   18.55
  -3  -2   9    9.69   18.66
  -3  -2   9   77.40   22.71
   3  -2  -9   53.76   14.28
  -3  -2  10   23.53   22.33
  -3  -2  10  -14.85   25.96
  -3  -2  10   16.55   26.82
   3  -2 -10  -15.85   13.79
  -3  -2  11  -11.94   28.31
   3   3 -11  -15.42   13.87
   3   3 -11  -16.19   12.96
   3   3 -10    7.12   11.70
   3   3 -10   -8.79   10.95
   3   3  -9   -2.91   10.89
   3   3  -9    3.36   10.16
  -3   3   9   23.46   22.36
   3   3  -8   17.56   10.49
  -3   3   8   29.10   18.09
  -3   3   8   36.04   18.89
   3   3  -8   37.21    9.96
   3   3  -8   15.30   11.01
   3   3  -7   16.96   10.17
   3   3  -7   10.01    7.37
  -3   3   7    6.28   15.25
  -3   3   7   34.24   17.85
   3   3  -7   22.37    8.66
   3   3  -7   14.16    7.93
   3   3  -6  163.13   16.39
  -3   3   6  131.86   20.29
  -3   3   6  155.06   20.58
   3   3  -6  168.31   18.65
   3   3  -6  158.45   15.22
   3   3  -6  124.81   14.90
   3   3  -5  100.36   12.51
   3   3  -5   75.40   12.39
  -3   3   5   93.26   16.59
  -3   3   5   92.32   16.06
  -3   3   5   86.64   12.32
  -3   3   5   94.09   13.61
   3   3  -5   98.38   12.17
   3   3  -5   78.16   11.02
   3   3  -4   14.47    7.89
   3   3  -4   12.94    5.73
  -3   3   4   17.29    9.61
  -3   3   4   -2.59   10.63
  -3   3   4    9.61    9.48
  -3   3   4    6.55    6.00
   3   3  -4   10.84    6.76
  -3   3   3  199.99   15.07
  -3   3   3  198.65   17.14
  -3   3   3  204.02   18.76
  -3   3   2   41.42    8.11
  -3   3   1  539.77   26.92
  -3   3   1  550.70   25.83
  -3   3   1  533.27   23.88
   3  -3  -1  552.39   23.20
   3  -3  -1  589.75   24.91
   3  -3  -1  529.77   23.28
   3  -3  -2   74.50   11.92
   3  -3  -2   73.86   13.09
   3  -3  -2   98.41   11.13
   3  -3  -3  202.18   13.91
   3  -3  -3  227.29   15.84
   3  -3  -3  216.80   16.47
   3  -3  -3  210.45   15.47
   3  -3  -4    9.19    5.19
   3  -3  -4   22.14    8.39
  -3  -3   4    2.50    9.74
   3  -3  -4   13.33    6.91
   3  -3  -4   12.47    6.72
   3  -3  -5   95.23   10.28
   3  -3  -5  107.01   14.20
  -3  -3   5   68.41   14.68
  -3  -3   5   80.96   13.14
   3  -3  -5   94.21   11.83
   3  -3  -5   86.76   12.17
   3  -3  -6  159.28   16.73
  -3  -3   6  134.24   20.08
  -3  -3   6  156.83   18.74
  -3  -3   6  140.93   18.60
   3  -3  -6  144.51   16.25
   3  -3  -7   12.85    9.60
  -3  -3   7   11.91   13.63
  -3  -3   7   50.38   16.16
  -3  -3   7   16.72   11.02
  -3  -3   7   16.57   12.96
   3  -3  -7   25.23   11.07
   3  -3  -8   36.96   12.37
  -3  -3   8   -1.24   15.62
  -3  -3   8   27.47   18.17
  -3  -3   8   44.97   17.56
   3  -3  -8   32.59   11.67
   3  -3  -9    9.55   11.44
  -3  -3   9    6.29   16.69
  -3  -3   9   14.01   18.56
   3  -3  -9    3.22   11.89
  -3  -3  10   13.91   20.04
  -3  -3  10   -4.95   24.88
   3  -3 -10    1.24   12.54
   3   4 -10   -6.95   13.37
   3   4 -10   18.40   11.97
   3   4  -9   25.35   13.69
   3   4  -9   46.27   13.02
   3   4  -8   68.11   15.17
   3   4  -8   80.73   14.53
  -3   4   8   59.76   23.01
  -3   4   8  106.56   28.24
   3   4  -8   66.73   14.64
   3   4  -7   11.21    9.82
   3   4  -7    6.77    7.87
  -3   4   7   16.00   18.07
  -3   4   7   24.30   17.68
   3   4  -7   14.92    9.30
   3   4  -6  116.86   14.36
  -3   4   6  106.57   21.15
  -3   4   6  111.23   20.16
  -3   4   6  109.85   15.17
   3   4  -6   99.64   15.76
   3   4  -6   95.54   14.20
   3   4  -5  206.23   19.42
  -3   4   5  210.40   18.45
  -3   4   5  226.79   23.18
  -3   4   5  209.30   23.64
  -3   4   5  170.26   20.18
   3   4  -5  190.31   18.18
   3   4  -4  107.47   13.70
  -3   4   4   97.22   17.91
  -3   4   4   96.66   14.80
  -3   4   4   90.28   15.55
  -3   4   4  101.75   15.80
   3   4  -4  118.32   14.48
  -3   4   3  676.63   30.08
  -3   4   3  582.72   30.01
  -3   4   3  668.93   33.95
  -3   4   3  660.32   30.59
  -3   4   2  121.85   12.56
  -3   4   2  125.72   14.17
  -3   4   2  147.91   16.68
  -3   4   2  128.99   15.55
  -3   4   1    4.49    5.63
  -3   4   1   12.93    7.86
  -3   4   1   12.24    8.10
   3  -4   0  432.94   22.84
   3  -4   0  406.02   22.96
  -3   4   0  428.66   25.31
   3  -4  -1   18.49    7.28
   3  -4  -1   15.90    6.97
   3  -4  -1    6.46    6.05
   3  -4  -1   12.79    6.46
   3  -4  -2  136.30   13.09
   3  -4  -2  125.09   12.71
   3  -4  -2  114.81   12.88
   3  -4  -2  119.79   11.42
   3  -4  -2  118.05   11.43
   3  -4  -3  599.02   25.05
   3  -4  -3  643.35   28.66
   3  -4  -3  658.64   29.84
   3  -4  -3  625.21   25.90
   3  -4  -4  100.52   11.17
   3  -4  -4  115.35   14.48
   3  -4  -4  110.88   13.57
   3  -4  -4  105.25   12.36
   3  -4  -5  200.61   15.56
   3  -4  -5  199.29   17.40
   3  -4  -5  197.81   18.94
  -3  -4   5  229.81   24.25
   3  -4  -5  224.49   18.39
   3  -4  -6  114.83   13.07
   3  -4  -6   96.43   14.92
  -3  -4   6  103.60   18.29
  -3  -4   6  118.34   18.49
   3  -4  -6   93.38   14.05
   3  -4  -7    7.89   10.23
  -3  -4   7    3.98   12.04
  -3  -4   7    5.00   14.56
  -3  -4   7   34.88   14.57
   3  -4  -7   35.83   11.57
   3  -4  -8   75.00   15.66
  -3  -4   8   72.20   20.31
  -3  -4   8   86.33   20.85
  -3  -4   8   94.52   19.96
   3  -4  -8   58.74   15.04
  -3  -4   9   61.50   20.17
  -3  -4   9   32.12   18.55
   3  -4  -9   34.21   14.49
   3  -4  -9   37.22   14.12
  -3  -4  10  -36.87   23.66
  -3  -4  10   -8.41   21.26
   3   5 -10   35.83   16.58
   3   5 -10   -2.92   10.95
   3   5  -9   27.43   14.24
   3   5  -9   13.19   10.26
   3   5  -9   20.60   13.07
   3   5  -8   30.30   14.65
   3   5  -8    4.98   10.03
  -3   5   8   34.12   24.47
   3   5  -8    8.12   10.28
   3   5  -7   49.51   14.37
   3   5  -7   68.53   13.45
  -3   5   7   73.25   23.33
  -3   5   7   77.86   24.13
   3   5  -7   48.29   14.12
   3   5  -6    8.95   10.47
  -3   5   6    9.15   10.51
   3   5  -6   16.75    7.74
  -3   5   6   25.78   16.52
  -3   5   6   -7.57   14.42
  -3   5   6   -0.63   15.09
   3   5  -6    6.86    9.30
   3   5  -5  107.46   14.70
  -3   5   5   87.20   14.56
   3   5  -5  106.92   15.68
  -3   5   5  117.14   20.86
  -3   5   5   92.52   18.71
  -3   5   5  127.08   21.08
   3   5  -5   91.77   13.74
   3   5  -4   94.71   13.87
  -3   5   4  103.98   15.37
  -3   5   4  112.67   19.72
  -3   5   4   83.48   15.41
  -3   5   4  109.35   19.22
   3   5  -4   74.57   12.47
  -3   5   3  160.79   20.47
  -3   5   3  147.51   17.24
  -3   5   3  149.21   19.77
  -3   5   2  915.05   34.41
  -3   5   2  977.64   38.52
  -3   5   2  891.17   39.91
  -3   5   2  893.24   40.64
  -3   5   1  307.87   20.88
  -3   5   1  309.88   21.88
  -3   5   1  303.61   24.26
  -3   5   1  355.29   25.76
  -3   5   0  137.89   15.39
   3  -5   0  126.20   13.72
   3  -5   0  127.18   14.34
  -3   5   0  133.46   14.95
  -3   5   0  144.43   16.43
  -3   5   0  121.51   16.22
   3  -5   0  119.11   13.19
   3  -5  -1  281.38   19.52
   3  -5  -1  302.70   20.99
   3  -5  -1  305.74   20.51
   3  -5  -1  277.84   18.99
   3  -5  -2  918.17   33.98
   3  -5  -2  973.03   37.33
   3  -5  -2  868.76   34.58
   3  -5  -2  895.80   30.91
   3  -5  -3  125.79   14.17
   3  -5  -3  151.13   16.39
   3  -5  -3  148.87   16.41
   3  -5  -4   80.16   12.37
   3  -5  -4   98.99   14.18
   3  -5  -4   96.80   14.71
   3  -5  -4   89.92   11.94
   3  -5  -5   96.05   13.34
   3  -5  -5   96.36   14.80
   3  -5  -5  111.86   15.01
  -3  -5   5  100.66   17.61
   3  -5  -5  108.62   14.20
   3  -5  -6    6.11    7.50
   3  -5  -6   -0.26   10.09
  -3  -5   6   -5.03   13.45
   3  -5  -6   20.40    9.76
  -3  -5   6  -20.90   15.51
   3  -5  -6   15.45    9.78
   3  -5  -7   75.97   15.73
  -3  -5   7   50.71   17.37
  -3  -5   7   71.71   20.50
  -3  -5   7   92.31   19.24
   3  -5  -7   72.15   14.54
   3  -5  -8  -25.88   15.35
  -3  -5   8    1.50   15.95
  -3  -5   8    3.81   15.59
  -3  -5   8    2.06   15.92
   3  -5  -9   29.75   15.99
  -3  -5   9   -7.52   16.14
  -3  -5   9   -1.38   18.34
  -3  -5   9   14.74   20.54
   3  -5  -9   -5.46   12.58
   3   6 -10   31.92   16.62
   3   6  -9   -8.87   14.87
   3   6  -9   -0.44   10.09
   3   6  -9    4.94   11.87
   3   6  -8    3.36   12.63
   3   6  -8   13.98   10.63
   3   6  -8    3.44   11.79
   3   6  -7  237.29   25.87
  -3   6   7  264.64   29.50
   3   6  -7  279.28   24.30
  -3   6   7  253.99   37.10
   3   6  -7  258.26   26.29
  -3   6   6  110.23   19.54
   3   6  -6  136.47   17.74
  -3   6   6   99.15   22.02
  -3   6   6   97.96   18.76
   3   6  -6   63.95   14.22
   3   6  -6   80.65   16.03
   3   6  -5  183.68   20.26
  -3   6   5  186.96   22.07
  -3   6   5  225.26   27.50
  -3   6   5  212.07   27.18
   3   6  -5  160.02   19.76
  -3   6   4  414.96   29.40
  -3   6   4  415.18   32.90
  -3   6   4  441.54   34.78
  -3   6   3  225.09   21.38
  -3   6   3  194.44   23.79
  -3   6   3  191.98   23.49
  -3   6   2  762.51   34.58
  -3   6   2  776.21   37.39
  -3   6   2  736.10   40.42
  -3   6   2  706.26   38.77
  -3   6   1  537.47   29.66
   3  -6   1  528.40   28.29
   3  -6   1  539.90   30.66
  -3   6   1  507.49   33.80
  -3   6   1  543.72   30.81
  -3   6   1  560.92   33.72
   3  -6   1  557.30   30.15
  -3   6   0   20.05    9.06
  -3   6   0   -4.66    8.72
   3  -6   0   -0.42    8.46
  -3   6   0   24.08   11.98
   3  -6   0    0.53    7.69
  -3   6   0  -13.20   11.64
   3  -6   0    2.56    8.11
  -3   6  -1  523.24   30.86
   3  -6  -1  527.45   28.65
   3  -6  -1  549.25   30.34
   3  -6  -1  544.44   28.34
  -3   6  -1  549.33   33.78
  -3   6  -1  561.92   31.17
  -3   6  -1  520.05   29.23
   3  -6  -1  571.91   29.24
   3  -6  -2  752.16   33.80
   3  -6  -2  750.86   36.02
   3  -6  -2  753.30   34.53
   3  -6  -2  767.74   31.80
   3  -6  -3  227.84   19.71
   3  -6  -3  222.97   21.29
   3  -6  -3  214.26   20.59
   3  -6  -4  406.52   25.20
   3  -6  -4  437.07   28.80
   3  -6  -4  405.96   28.15
   3  -6  -5  259.37   22.81
   3  -6  -5  211.75   22.79
   3  -6  -5  203.11   19.50
   3  -6  -6   87.37   13.93
   3  -6  -6   96.38   16.98
   3  -6  -6  106.16   16.56
  -3  -6   6  131.30   23.45
   3  -6  -7  292.42   27.24
  -3  -6   7  248.09   31.22
  -3  -6   7  246.89   30.77
  -3  -6   7  259.00   30.10
   3  -6  -8   -4.09   13.07
  -3  -6   8   18.09   16.47
  -3  -6   8   11.32   16.21
  -3  -6   8   42.06   20.68
  -3  -6   9  -18.42   22.39
  -3  -6   9  -26.05   23.09
   3   7  -9   -6.82   11.09
   3   7  -8   44.67   14.22
   3   7  -8   24.18   14.10
   3   7  -8    7.62   12.94
   3   7  -7    5.61   11.78
  -3   7   7   36.69   22.81
   3   7  -7   21.31   10.48
  -3   7   7   54.07   34.27
   3   7  -7   16.43   14.36
   3   7  -6   35.31   15.17
  -3   7   6    1.67   14.41
  -3   7   6   26.51   21.43
  -3   7   6   10.92   18.62
   3   7  -6   20.77   14.03
   3   7  -5    8.30   10.82
  -3   7   5   12.23   13.20
  -3   7   5   29.41   20.39
  -3   7   5   -3.22   16.57
   3   7  -5   58.54   16.31
  -3   7   4   20.31   13.17
  -3   7   4   12.19   14.75
  -3   7   4    2.89   14.66
  -3   7   3   71.00   17.97
  -3   7   3   89.66   20.65
  -3   7   3   72.10   15.33
  -3   7   2  187.86   19.77
  -3   7   2  213.30   24.53
  -3   7   2  199.55   26.25
  -3   7   2  177.86   20.88
  -3   7   1   47.85   12.85
  -3   7   1    6.86   10.45
   3  -7   1   21.09   10.31
  -3   7   1   22.13   13.14
  -3   7   1   14.62   13.54
   3  -7   1   17.40   10.12
   3  -7   1    0.51   11.08
  -3   7   0   99.31   16.43
   3  -7   0   80.80   14.48
   3  -7   0   89.57   14.76
  -3   7   0   97.10   18.98
  -3   7   0   86.99   14.76
   3  -7   0  100.06   16.25
  -3   7  -1   12.16    9.98
   3  -7  -1   11.06   10.96
   3  -7  -1    8.82    7.71
  -3   7  -1   11.15   10.09
   3  -7  -1   20.47   11.87
  -3   7  -1   15.51   13.03
   3  -7  -1    3.34    9.60
   3  -7  -2  210.00   21.61
   3  -7  -2  190.60   19.47
   3  -7  -2  204.24   20.21
   3  -7  -2  188.57   18.54
   3  -7  -3   99.16   15.14
   3  -7  -3   65.88   13.47
   3  -7  -3   60.94   14.66
   3  -7  -4    3.58   10.80
   3  -7  -4   23.07   11.65
   3  -7  -4   23.95   12.18
   3  -7  -5   15.92   11.15
   3  -7  -5   10.72   12.16
   3  -7  -5   26.71   13.11
   3  -7  -6   36.03   14.09
  -3  -7   6   22.52   16.50
   3  -7  -6    7.00   11.45
  -3  -7   6   20.86   16.58
   3  -7  -7   30.96   13.81
  -3  -7   7   24.40   18.95
   3  -7  -7   34.54   15.50
  -3  -7   7  -16.63   17.98
  -3  -7   8   63.84   21.65
  -3  -7   8   43.38   21.25
  -3  -7   8   46.61   22.27
   3   8  -8   -9.99   14.44
   3   8  -7   19.77   15.12
  -3   8   7   -7.15   32.05
   3   8  -7   -4.98   14.52
  -3   8   6   14.38   18.94
   3   8  -6   10.00   15.25
  -3   8   5   29.92   16.15
  -3   8   5   26.87   18.58
  -3   8   5   32.87   19.68
  -3   8   4   35.79   14.55
  -3   8   4   30.25   17.41
  -3   8   3  282.18   32.23
  -3   8   3  243.83   30.00
  -3   8   3  253.71   27.50
  -3   8   2   61.10   14.21
   3  -8   2   82.46   15.61
  -3   8   2   73.10   20.91
  -3   8   2   57.94   19.97
  -3   8   2   68.66   15.57
   3  -8   2   77.20   17.23
  -3   8   1   43.46   14.24
  -3   8   1   34.03   13.22
   3  -8   1   30.92   12.88
  -3   8   1   -0.06   15.34
   3  -8   1   30.61   12.03
   3  -8   1   17.37   11.58
   3  -8   0  227.20   22.89
  -3   8   0  204.05   22.94
  -3   8   0  203.46   23.20
   3  -8   0  195.04   21.71
  -3   8   0  216.40   27.67
   3  -8   0  215.66   22.75
  -3   8  -1   71.60   15.96
   3  -8  -1   28.05   12.46
   3  -8  -1   35.34   13.29
  -3   8  -1   36.04   13.03
  -3   8  -1   56.09   17.04
   3  -8  -1   14.62   11.71
  -3   8  -2   57.28   15.18
   3  -8  -2   36.60   13.63
   3  -8  -2   61.18   14.63
   3  -8  -2   69.76   16.08
  -3   8  -2   42.85   16.67
   3  -8  -2   73.94   15.59
   3  -8  -3  252.32   26.66
   3  -8  -3  232.92   23.43
   3  -8  -3  242.83   24.34
   3  -8  -4   40.48   13.07
   3  -8  -4   37.43   13.99
   3  -8  -4   50.69   15.23
   3  -8  -5   31.47   13.62
   3  -8  -5   40.46   16.84
   3  -8  -5   54.23   17.81
   3  -8  -6   70.08   18.59
   3  -8  -6   26.53   13.41
   3  -8  -7   33.57   17.43
   3  -8  -7    5.72   14.08
  -3   9   5   53.34   30.28
  -3   9   5   36.92   19.00
  -3   9   4  -13.62   20.29
  -3   9   4   -6.32   19.13
  -3   9   4   -9.46   17.79
  -3   9   3    6.65   20.80
  -3   9   3   35.47   17.85
   3  -9   2   45.71   14.70
  -3   9   2   37.17   20.77
   3  -9   2   27.37   16.04
  -3   9   2   30.17   17.82
  -3   9   1   41.26   15.76
   3  -9   1   34.25   14.02
  -3   9   1   29.27   15.65
  -3   9   1   52.76   22.97
   3  -9   1   17.61   10.78
   3  -9   1   26.20   14.27
  -3   9   0   59.99   16.69
   3  -9   0  101.38   18.06
  -3   9   0  108.88   22.99
   3  -9   0   99.28   17.64
   3  -9   0   86.92   17.55
  -3   9   0   86.60   18.67
  -3   9  -1   13.94   13.20
   3  -9  -1   48.49   14.86
   3  -9  -1   42.47   13.99
  -3   9  -1   20.75   16.87
   3  -9  -1   27.32   13.72
  -3   9  -1   23.90   13.55
  -3   9  -2   27.49   15.85
   3  -9  -2   38.45   14.67
   3  -9  -2   43.45   15.91
  -3   9  -2   30.20   19.91
   3  -9  -2   48.94   14.76
   3  -9  -3   19.97   13.13
   3  -9  -3   76.15   18.86
   3  -9  -4    2.88   13.53
   3  -9  -4    0.30   12.21
   3  -9  -4   16.61   16.81
   3  -9  -5   42.93   17.31
   3  -9  -5   30.65   16.92
   3  -9  -6   24.85   15.60
  -3  10   2   17.30   15.78
   3 -10   2   41.87   16.14
  -3  10   1   54.61   19.41
   3 -10   1   49.11   16.56
  -3  10   1   38.48   16.16
   3 -10   1   10.14   12.94
  -3  10   0   40.02   16.70
   3 -10   0   42.01   15.31
   3 -10   0   35.71   16.21
  -3  10   0   74.60   17.96
  -3  10  -1   44.53   17.25
  -3  10  -1   49.13   17.05
   3 -10  -1   25.53   14.35
   3 -10  -1   49.97   17.88
  -3  10  -2   68.38   20.11
   3 -10  -2   75.36   19.96
   4   0  -4    8.51    7.22
  -4   0   4    4.03    7.15
   4   0  -4    4.17    6.29
   4   0  -5  293.93   20.73
   4   0  -5  310.12   20.15
  -4   0   5  281.35   22.13
   4   0  -5  272.84   19.97
   4   0  -6  516.12   28.79
   4   0  -6  535.40   27.33
   4   0  -6  500.05   24.88
  -4   0   6  543.18   33.80
  -4   0   6  494.06   30.21
   4   0  -6  536.99   29.77
   4   0  -7  100.45   15.91
   4   0  -7  103.46   14.68
  -4   0   7  118.25   20.35
  -4   0   7  134.04   20.97
  -4   0   7  120.31   22.66
   4   0  -7  103.04   15.79
   4   0  -8   96.67   16.40
   4   0  -8   72.99   13.65
  -4   0   8   96.81   21.02
  -4   0   8   75.38   19.57
  -4   0   8  101.07   22.95
   4   0  -8   71.70   15.40
   4   0  -9   48.19   12.91
   4   0  -9   87.68   15.52
  -4   0   9   69.92   20.32
  -4   0   9   53.96   19.46
  -4   0   9   97.84   26.46
   4   0  -9   58.71   15.26
   4   0 -10  -11.24   12.75
   4   0 -10   -4.28   11.30
  -4   0  10  -32.84   21.63
  -4   0  10   14.32   24.21
  -4   0  10  -26.00   23.72
   4   0 -10   17.25   13.12
   4   0 -11   13.19   11.50
  -4   0  11   24.53   31.69
   4   0 -11   28.14   15.92
   4   1 -11   20.40   14.29
   4   1 -11   12.76   12.99
   4   1 -11   25.03   14.91
   4   1 -10    5.28   11.71
   4   1 -10    6.78   11.41
  -4   1  10   13.71   25.69
   4   1 -10    3.92   12.35
   4   1  -9    5.08   11.55
   4   1  -9    7.57   10.85
  -4   1   9   -0.04   16.02
  -4   1   9   15.67   19.45
   4   1  -9    7.05    9.67
   4   1  -8   26.75   12.40
   4   1  -8   -1.51    8.63
  -4   1   8   19.79   14.12
  -4   1   8   18.38   18.31
   4   1  -8   18.35   10.74
   4   1  -7   89.47   15.58
   4   1  -7   99.97   14.54
  -4   1   7  115.38   19.58
  -4   1   7  100.80   17.19
  -4   1   7   95.60   19.08
  -4   1   7  130.08   23.23
   4   1  -7   97.10   14.18
   4   1  -6  310.18   23.74
   4   1  -6  329.65   22.40
  -4   1   6  313.66   25.80
  -4   1   6  329.96   27.26
  -4   1   6  267.17   27.11
   4   1  -6  272.73   21.03
   4   1  -5   10.21    8.24
   4   1  -5   13.59    7.27
  -4   1   5   25.19   12.56
   4   1  -5   13.23    7.11
  -4   1   4   84.38   14.07
   4  -1  -4  103.27   11.78
   4  -1  -4   85.15   10.80
   4  -1  -4  103.86   12.99
   4  -1  -5    9.56    6.70
   4  -1  -5   11.99    5.89
   4  -1  -5   10.52    6.08
   4  -1  -5   16.63    8.20
   4  -1  -6  348.93   23.36
   4  -1  -6  334.91   21.03
   4  -1  -6  329.69   22.27
  -4  -1   6  298.97   26.66
   4  -1  -6  310.36   22.78
   4  -1  -7   95.48   14.09
   4  -1  -7  131.06   15.76
   4  -1  -7   87.17   13.71
  -4  -1   7  112.44   21.29
  -4  -1   7  120.12   21.06
  -4  -1   7  103.15   19.93
   4  -1  -7  172.01   22.22
   4  -1  -8   11.55    7.79
  -4  -1   8   13.03   14.60
  -4  -1   8   11.23   13.92
  -4  -1   8   19.42   17.22
   4  -1  -8    2.88   10.82
   4  -1  -9    3.65    8.48
  -4  -1   9   -2.82   16.00
  -4  -1   9   10.67   18.28
  -4  -1   9  -13.50   21.15
   4  -1  -9   -3.97   10.50
  -4  -1  10   25.19   22.63
  -4  -1  10    6.00   23.04
  -4  -1  10    4.72   21.20
   4  -1 -10   23.56   12.06
   4  -1 -11   20.23   14.34
   4   2 -11  -15.55   15.30
   4   2 -11    1.76   12.88
   4   2 -10  -18.22   14.53
   4   2 -10    2.64   11.12
  -4   2  10  -11.61   28.51
   4   2 -10   23.04   10.66
   4   2  -9   53.28   15.62
   4   2  -9   16.06   11.03
  -4   2   9   46.28   21.47
  -4   2   9   22.00   21.57
   4   2  -9   41.61   13.20
   4   2  -8   89.98   17.31
   4   2  -8   72.47   14.55
  -4   2   8   55.44   19.50
  -4   2   8   71.84   23.92
   4   2  -8   67.61   14.01
   4   2  -7   79.34   15.62
   4   2  -7   78.33   13.39
  -4   2   7   68.38   21.08
  -4   2   7   73.02   19.15
   4   2  -7   73.43   12.94
   4   2  -6   13.94    8.75
   4   2  -6   25.47    8.84
  -4   2   6   30.61   14.74
  -4   2   6   27.48   14.51
   4   2  -6   33.97    9.99
   4   2  -5  -11.20    9.32
   4   2  -5    1.92    5.60
  -4   2   5   21.52   13.38
   4   2  -5   12.93    8.14
  -4   2   4  226.08   22.65
  -4   2   3   60.97   13.67
  -4   2   3   49.00   10.76
   4  -2  -4  232.91   14.55
   4  -2  -4  255.85   18.75
   4  -2  -4  273.08   20.12
   4  -2  -5    1.66    7.20
   4  -2  -5    9.35    6.81
   4  -2  -6   47.22   11.66
  -4  -2   6   12.81   11.59
   4  -2  -6   19.68    9.79
   4  -2  -7   88.88   15.65
  -4  -2   7   73.33   18.09
  -4  -2   7   70.94   18.49
   4  -2  -7   88.24   15.06
   4  -2  -8   76.15   16.59
  -4  -2   8   64.13   19.45
  -4  -2   8   68.35   19.72
  -4  -2   8   88.62   20.96
   4  -2  -8   84.63   15.81
  -4  -2   9   48.61   19.06
  -4  -2   9   40.49   20.69
  -4  -2   9   60.67   20.82
   4  -2  -9   57.40   16.02
  -4  -2  10  -13.38   19.25
  -4  -2  10    7.15   20.87
  -4  -2  10   27.84   24.02
   4  -2 -10   31.95   13.19
   4   3 -10   10.11   15.09
   4   3 -10   -5.89   10.65
   4   3  -9   12.56   12.27
   4   3  -9   15.63   12.11
  -4   3   9   27.30   22.62
  -4   3   9   -1.97   24.85
   4   3  -8    1.20   11.45
   4   3  -8   14.78   10.73
  -4   3   8  -22.82   19.47
  -4   3   8   12.31   18.81
   4   3  -8   20.03   10.34
   4   3  -7   18.57   11.33
   4   3  -7  -11.21    9.79
  -4   3   7   11.70   16.78
  -4   3   7   -9.21   17.11
   4   3  -7   15.65    9.07
   4   3  -6   15.25   10.46
   4   3  -6   27.74    9.52
  -4   3   6   26.64   15.74
  -4   3   6   31.03   15.63
   4   3  -6   27.92    9.60
   4   3  -5  162.59   18.31
  -4   3   5  173.63   21.65
  -4   3   5  181.88   23.34
   4   3  -5  178.58   17.18
  -4   3   4  105.73   17.99
  -4   3   4  103.68   13.28
  -4   3   4  107.47   15.88
  -4   3   3   56.25   14.33
  -4   3   3   62.23   12.09
   4  -3  -3   50.41    8.57
   4  -3  -3   54.18    9.75
   4  -3  -4   99.74   10.84
   4  -3  -4   81.67   12.00
   4  -3  -4   97.80   12.81
   4  -3  -4  103.92   12.49
   4  -3  -5  185.36   19.15
   4  -3  -5  177.83   17.41
   4  -3  -6   34.95   11.25
   4  -3  -6   31.81   10.53
   4  -3  -7   14.71    9.70
  -4  -3   7   -1.48   15.10
  -4  -3   7    1.76   13.29
   4  -3  -7   21.07   11.32
   4  -3  -8   -5.66   10.72
  -4  -3   8   33.91   17.58
  -4  -3   8   33.78   19.90
  -4  -3   8   16.91   15.97
   4  -3  -8   -9.02   11.78
   4  -3  -9  -10.89   13.22
  -4  -3   9  -15.60   18.10
  -4  -3   9   28.82   21.26
  -4  -3   9  -18.94   18.31
   4  -3  -9    8.90   11.63
   4  -3 -10   -3.71   13.39
   4  -3 -10    1.89   12.53
   4   4 -10    5.43   12.53
   4   4 -10    3.19   10.12
   4   4  -9   51.48   17.43
   4   4  -9   29.17   11.33
  -4   4   9    3.42   24.21
  -4   4   9   -1.66   23.92
   4   4  -8   37.53   14.69
   4   4  -8    8.50    9.62
  -4   4   8   30.30   21.12
  -4   4   8   15.22   19.18
   4   4  -7   83.49   15.85
   4   4  -7  113.28   16.30
  -4   4   7  111.38   24.01
  -4   4   7  129.43   26.48
   4   4  -7   99.25   16.58
   4   4  -6   60.77   14.89
  -4   4   6   71.39   20.33
  -4   4   6   75.72   19.58
   4   4  -6   90.86   15.59
  -4   4   5   90.44   18.15
  -4   4   5   95.59   20.32
  -4   4   5   49.87   14.79
  -4   4   4  315.93   25.50
  -4   4   4  266.29   26.78
  -4   4   4  323.23   23.33
  -4   4   3  132.52   15.47
  -4   4   3  137.15   19.91
  -4   4   3  112.19   16.61
  -4   4   2  417.18   27.64
  -4   4   2  430.10   29.34
   4  -4  -2  442.45   23.69
   4  -4  -2  449.49   25.92
   4  -4  -3  144.81   15.56
   4  -4  -3  126.14   13.45
   4  -4  -3  122.14   14.98
   4  -4  -4  262.26   18.19
   4  -4  -4  266.35   20.58
   4  -4  -4  314.20   23.14
   4  -4  -4  305.24   21.52
   4  -4  -6   92.04   16.20
   4  -4  -6   77.17   13.63
   4  -4  -7   96.04   16.82
  -4  -4   7  132.03   24.31
   4  -4  -7  102.90   15.84
   4  -4  -8   21.26   13.34
  -4  -4   8   51.76   20.82
  -4  -4   8   28.08   18.64
   4  -4  -8    7.74   10.84
   4  -4  -9   38.66   15.36
  -4  -4   9   -9.49   16.65
  -4  -4   9   17.14   20.29
   4  -4  -9    3.09   11.72
   4  -4 -10   27.08   16.99
   4  -4 -10    3.01   12.76
   4   5  -9   42.06   16.00
   4   5  -9  -10.10   12.40
   4   5  -8  -14.77   14.02
   4   5  -8    3.49    9.33
  -4   5   8    3.68   20.77
  -4   5   8   -4.76   24.16
   4   5  -8  -22.81   13.91
   4   5  -7   13.17   12.32
   4   5  -7   41.10   12.74
  -4   5   7   15.62   19.12
  -4   5   7   63.74   24.25
   4   5  -7   26.21   13.66
   4   5  -6  122.88   19.12
  -4   5   6  116.94   20.03
  -4   5   6  126.61   25.07
  -4   5   6  128.62   24.35
   4   5  -6  118.42   17.07
  -4   5   5   82.50   17.30
  -4   5   5   88.99   22.30
  -4   5   5   84.66   18.63
  -4   5   5  113.98   20.05
  -4   5   4   69.91   18.81
  -4   5   4   55.09   13.33
  -4   5   4   60.15   17.12
  -4   5   3   95.97   16.08
  -4   5   3  107.81   19.57
  -4   5   3   84.23   17.58
  -4   5   2   53.44   14.25
  -4   5   2   60.12   15.27
  -4   5   2   52.98   12.18
   4  -5  -2   60.43   11.71
   4  -5  -2   70.40   11.72
   4  -5  -2   61.57   12.27
   4  -5  -3   77.31   13.10
   4  -5  -3   64.29   12.18
   4  -5  -3   76.65   12.13
   4  -5  -4   55.62   12.25
   4  -5  -4   48.70   11.98
   4  -5  -4   80.43   13.85
   4  -5  -4   41.01    9.24
   4  -5  -5   88.39   13.84
   4  -5  -5   67.70   14.13
   4  -5  -5   57.96   12.94
   4  -5  -5   74.31   12.59
   4  -5  -6  123.46   14.76
   4  -5  -6  126.95   19.23
   4  -5  -6  154.07   18.61
   4  -5  -7   26.94   14.09
   4  -5  -7   26.99   12.39
   4  -5  -8   26.76   13.98
  -4  -5   8  -23.33   18.41
  -4  -5   8   -7.24   18.23
   4  -5  -8   -9.57   11.21
   4  -5  -9   -5.51   14.21
   4  -5  -9    6.68   12.34
   4   6  -8   45.41   15.53
   4   6  -8   12.67   14.90
   4   6  -7   65.23   17.85
  -4   6   7   86.03   26.98
   4   6  -7   54.24   16.14
  -4   6   6   -4.06   13.50
  -4   6   6    8.08   18.30
  -4   6   5   30.15   13.55
  -4   6   5   -0.81   16.52
  -4   6   5   46.37   17.24
  -4   6   4   54.45   14.56
  -4   6   4   41.65   19.27
  -4   6   4   48.04   17.85
  -4   6   3  374.42   33.81
  -4   6   3  384.68   29.71
  -4   6   3  298.90   28.42
  -4   6   2   70.70   13.87
  -4   6   2   72.81   17.73
  -4   6   2   55.25   16.78
  -4   6   1   21.72   10.49
  -4   6   1   10.58   11.56
  -4   6   1   -2.89   12.14
   4  -6  -1    4.69   10.57
   4  -6  -1   14.21    9.70
   4  -6  -1   11.68    9.42
   4  -6  -2   55.33   13.41
   4  -6  -2   44.38   10.77
   4  -6  -2   56.24   12.86
   4  -6  -3  389.86   26.23
   4  -6  -3  415.78   28.89
   4  -6  -3  349.51   26.45
   4  -6  -4   53.55   11.61
   4  -6  -4   44.15   12.39
   4  -6  -4   54.25   13.36
   4  -6  -5   25.15   11.07
   4  -6  -5   32.75   12.50
   4  -6  -5   31.35   12.29
   4  -6  -6   -3.37   10.72
   4  -6  -6  -10.71   12.00
   4  -6  -7   39.40   15.37
   4  -6  -8   92.90   19.51
  -4  -6   8   68.46   23.91
  -4   7   7   31.34   22.28
  -4   7   6   -1.59   20.50
  -4   7   6   -9.47   20.51
  -4   7   6    2.07   15.54
  -4   7   5   24.96   15.51
  -4   7   5    8.33   19.51
  -4   7   5   31.02   19.30
  -4   7   4    3.51   13.05
  -4   7   4    0.48   17.35
  -4   7   4   16.89   16.86
  -4   7   3   27.34   17.51
  -4   7   3   20.30   13.83
  -4   7   3   27.80   17.18
  -4   7   2   64.39   16.21
  -4   7   2   52.29   17.49
  -4   7   2   56.59   18.51
  -4   7   1   37.01   15.84
  -4   7   1   23.58   11.33
  -4   7   1   69.54   19.56
   4  -7  -1   30.55   12.93
   4  -7  -1   47.10   13.20
   4  -7  -1   35.62   10.59
   4  -7  -2   53.60   14.21
   4  -7  -2   36.12   11.63
   4  -7  -2   52.95   13.73
   4  -7  -3   10.61   10.56
   4  -7  -3   30.59   11.76
   4  -7  -3    4.33   10.84
   4  -7  -4   14.79   11.61
   4  -7  -4   20.55   11.80
   4  -7  -4    1.10   11.02
   4  -7  -5   38.97   12.55
   4  -7  -5   28.64   13.75
   4  -7  -5   45.74   13.90
   4  -7  -6   22.07   12.54
   4  -7  -6   27.33   16.76
   4  -7  -7    0.74   13.69
  -4   8   6    3.13   18.08
  -4   8   6   -5.77   21.82
  -4   8   5   21.75   16.74
  -4   8   5   29.84   23.54
  -4   8   5   78.70   26.45
  -4   8   4   68.58   18.92
  -4   8   4   66.67   23.25
  -4   8   4   77.08   22.89
  -4   8   3   55.20   21.15
  -4   8   3   52.76   18.52
  -4   8   3   26.48   17.22
  -4   8   2   94.85   18.84
  -4   8   2   40.00   17.54
  -4   8   2   94.44   23.39
  -4   8   1   19.72   12.15
  -4   8   1   -0.68   15.57
   4  -8  -1    8.82   11.79
   4  -8  -1   30.13   12.06
   4  -8  -1   33.20   12.83
   4  -8  -2   81.85   17.25
   4  -8  -2   78.12   15.99
   4  -8  -2   81.80   17.33
   4  -8  -3   61.58   16.59
   4  -8  -3   35.53   12.57
   4  -8  -3   43.69   16.25
   4  -8  -4   41.90   15.37
   4  -8  -4   69.89   16.32
   4  -8  -4   61.57   16.92
   4  -8  -5   13.15   12.94
   4  -8  -5   23.53   12.31
   4  -8  -5    7.36   13.67
   4  -8  -6  -24.60   15.20
   4  -8  -6   13.02   13.97
  -4   9   3   18.78   21.44
  -4   9   3  -34.00   19.46
  -4   9   2   19.28   16.41
  -4   9   1   62.88   18.24
  -4   9   1   95.23   24.92
  -4   9   0    9.30   18.68
   4  -9  -1   67.39   17.23
   4  -9  -1   74.01   16.64
   4  -9  -2    9.37   11.69
   4  -9  -3   25.90   13.62
   4  -9  -3   28.06   15.56
   4  -9  -4   34.10   14.67
   4  -9  -4   38.23   16.95
   5   0  -6   56.76   13.46
   5   0  -6   54.06   12.21
   5   0  -7  194.34   20.43
  -5   0   7  140.75   22.87
   5   0  -7  169.35   19.67
   5   0  -8   25.12   13.82
   5   0  -8   -5.20    9.89
  -5   0   8   -1.79   15.69
  -5   0   8  -10.58   20.45
   5   0  -8   17.35   12.35
   5   0  -9   17.46   11.02
  -5   0   9   18.90   20.81
  -5   0   9   -5.52   18.13
  -5   0   9  -27.63   22.95
   5   0  -9   11.45   12.82
   5   0 -10   -1.82   10.50
  -5   0  10  -18.04   19.88
   5   0 -10   13.98   14.39
   5   1 -10   27.62   14.23
   5   1 -10   34.53   14.18
   5   1 -10   12.12   12.62
   5   1  -9   23.03   14.58
   5   1  -9   27.85   12.25
  -5   1   9  -17.00   23.27
   5   1  -9    9.85   11.11
   5   1  -8   16.96   13.71
   5   1  -8   15.36   10.34
  -5   1   8   34.78   19.47
   5   1  -8    1.70    9.61
   5   1  -7   18.02   12.80
  -5   1   7    6.97   13.25
  -5   1   7   15.05   18.22
   5   1  -7    7.64    8.67
  -5   1   6   36.72   14.35
   5  -1  -6   40.06   11.74
   5  -1  -7   14.61    8.54
   5  -1  -7    5.42    9.33
  -5  -1   8   20.41   15.25
  -5  -1   8   41.28   18.89
   5  -1  -8   48.09   14.56
  -5  -1   9   45.33   20.45
  -5  -1   9   21.11   19.73
  -5  -1   9   45.43   22.65
   5  -1  -9   28.14   13.33
  -5  -1  10   -9.76   23.24
   5  -1 -10   31.29   14.62
   5   2 -10   11.36   14.98
   5   2 -10   13.90   11.91
   5   2 -10    3.51   11.37
   5   2  -9   12.94   13.43
   5   2  -9   -6.51   10.98
  -5   2   9   26.84   22.37
   5   2  -9  -14.46   11.83
   5   2  -8   64.93   16.91
   5   2  -8   93.68   16.81
  -5   2   8   52.83   19.52
  -5   2   8  102.62   26.24
   5   2  -8   69.36   14.67
   5   2  -7   23.70   13.66
  -5   2   7   27.30   15.12
  -5   2   7   27.44   18.61
  -5   2   6   25.04   15.44
  -5   2   5   23.51   13.61
   5  -2  -5   47.50   11.64
   5  -2  -6   47.54   11.09
   5  -2  -6   63.22   13.51
   5  -2  -7   19.69    9.42
   5  -2  -7   28.46   11.84
  -5  -2   8   52.65   17.77
   5  -2  -8  101.16   16.88
  -5  -2   8   33.53   18.05
   5  -2  -8   90.91   16.85
  -5  -2   9    4.99   15.70
  -5  -2   9   28.70   22.87
   5  -2  -9   11.01   13.41
   5   3  -9    9.09   13.56
   5   3  -9   13.11   10.65
  -5   3   9   -1.23   22.66
   5   3  -8  -19.27   15.35
  -5   3   8   -8.56   20.17
  -5   3   8   -0.40   19.25
  -5   3   7   30.69   19.60
  -5   3   7   43.27   19.96
  -5   3   6   28.59   18.27
  -5   3   6   44.10   19.00
  -5   3   5   46.06   17.38
   5  -3  -5   36.01   10.22
   5  -3  -5   37.31   10.74
   5  -3  -6    1.88    8.58
   5  -3  -6   19.30   10.12
   5  -3  -7   38.34   12.00
   5  -3  -7   34.43   12.47
   5  -3  -8  -10.99   11.16
  -5  -3   8   14.52   16.99
  -5  -3   8  -10.99   18.09
   5  -3  -8    4.35   11.19
   5  -3  -9   24.39   13.93
  -5  -3   9    7.76   21.87
   5  -3  -9   14.76   13.43
   5   4  -9   -7.11   13.83
  -5   4   8   55.15   25.68
  -5   4   8   47.85   24.99
  -5   4   7   -7.25   19.26
  -5   4   7   17.63   17.86
  -5   4   6  108.12   22.75
  -5   4   6  137.43   23.92
  -5   4   5   84.18   19.26
  -5   4   5  100.55   23.23
  -5   4   4   16.34   16.43
  -5   4   4   56.18   15.93
   5  -4  -4   27.45    9.23
   5  -4  -4   27.16   10.08
   5  -4  -5  104.58   15.96
   5  -4  -5  108.80   15.26
   5  -4  -6  141.36   19.68
   5  -4  -6  175.71   19.97
   5  -4  -7   -2.34   10.75
   5  -4  -7    7.77    9.83
   5  -4  -8   37.75   14.77
   5  -4  -8   26.63   13.88
   5  -4  -9  -40.04   17.09
   5  -4  -9  -14.94   13.92
  -5   5   8    6.36   24.03
  -5   5   7   21.60   22.41
  -5   5   7   13.78   17.94
  -5   5   6   15.59   18.31
  -5   5   6   38.98   17.52
  -5   5   5    4.03   14.38
  -5   5   5   -1.52   16.80
  -5   5   4  213.48   29.53
  -5   5   4  177.83   24.46
   5  -5  -4  215.18   19.06
   5  -5  -4  203.36   20.83
   5  -5  -5    0.93    9.27
   5  -5  -5  -13.17   11.48
   5  -5  -6    7.32   11.14
   5  -5  -6   10.10    9.77
   5  -5  -7   19.38   13.53
   5  -5  -7   -2.70   10.08
   5  -5  -8    8.64   12.08
   5  -5  -8   -5.86   11.59
  -5   6   6   26.79   22.06
  -5   6   5   56.93   17.17
  -5   6   5   33.38   19.82
  -5   6   5   48.30   19.00
  -5   6   4   10.05   16.91
  -5   6   4    1.32   15.48
   5  -6  -4   11.82   10.46
   5  -6  -4   13.00   11.23
   5  -6  -5   90.33   15.62
   5  -6  -5   68.75   16.41
   5  -6  -5   52.55   13.28
   5  -6  -6    4.88   11.70
   5  -6  -7   75.10   17.72
  -5   7   6    2.80   15.67
  -5   7   5   -8.34   13.91
  -5   7   5   22.48   21.48
  -5   7   4   27.30   14.49
  -5   7   4   73.43   22.76
  -5   7   4   32.56   20.20
  -5   7   3   34.44   20.20
  -5   7   3   14.74   18.43
   5  -7  -3   13.80   10.92
   5  -7  -4    9.20   10.92
   5  -7  -4   55.04   13.98
   5  -7  -4   42.21   13.52
   5  -7  -5   11.84   11.30
   5  -7  -5   13.37   13.58
   5  -7  -5    0.74   10.93
   5  -7  -6   65.72   18.30
   5  -7  -6  152.39   30.06
  -5   8   4    1.35   15.75
  -5   8   3  -15.23   20.06
  -5   8   3  -28.17   20.79
   5  -8  -4   13.17   10.77
   5  -8  -4    7.00   11.40
   5  -8  -5   42.29   15.66
   6  -2  -8  -12.75   13.98
  -6   3   8   17.21   19.45
   6  -3  -8  -23.86   13.63
  -6   4   7   17.61   22.75
  -6   4   7  -24.22   24.01
   6  -4  -8  -16.26   12.30
   6  -4  -8    7.09   12.33
   6  -5  -7   -6.11   11.28
   0   0   0    0.00    0.00


TITL 1a in P2(1)2(1)2(1)
REM P2(1)2(1)2(1) (#19 in standard setting)
CELL 0.71073   6.923522   8.757761  10.026496  90.0000  90.0000  90.0000
ZERR    4.00   0.001287   0.000498   0.001092   0.0000   0.0000   0.0000
LATT -1
SYMM -x+1/2,-y, z+1/2
SYMM -x, y+1/2,-z+1/2
SYMM  x+1/2,-y+1/2,-z
SFAC C H N Cl
UNIT 16.00 8.00 20.00 4.00
TREF
HKLF 4
END
_computing_structure_solution     'SHELXT 2014/5 (Sheldrick, 2014)'
;
_shelx_hkl_checksum              1184
_olex2_submission_special_instructions 'No special instructions were received'
_oxdiff_exptl_absorpt_empirical_details
;
Empirical correction (ABSPACK) includes:
- Absorption correction using spherical harmonics
- Frame scaling
;
_oxdiff_exptl_absorpt_empirical_full_max 2.141
_oxdiff_exptl_absorpt_empirical_full_min 0.706
loop_
_space_group_symop_operation_xyz
'x, y, z'
'-x+1/2, -y, z+1/2'
'-x, y+1/2, -z+1/2'
'x+1/2, -y+1/2, -z'
loop_
_atom_site_label
_atom_site_type_symbol
_atom_site_fract_x
_atom_site_fract_y
_atom_site_fract_z
_atom_site_U_iso_or_equiv
_atom_site_adp_type
_atom_site_occupancy
_atom_site_site_symmetry_order
_atom_site_calc_flag
_atom_site_refinement_flags_posn
_atom_site_refinement_flags_adp
_atom_site_refinement_flags_occupancy
_atom_site_disorder_assembly
_atom_site_disorder_group
Cl1 Cl 0.2930(3) 0.33337(13) 0.32396(16) 0.0680(7) Uani 1 1 d . . . . .
N4 N 0.3534(9) 0.7503(4) 0.4126(5) 0.0402(17) Uani 1 1 d . . . . .
N5 N 0.3681(9) 0.5960(5) 0.4211(5) 0.0504(18) Uani 1 1 d . . . . .
N3 N 0.4245(8) 0.8417(5) 0.5086(4) 0.0620(17) Uani 1 1 d . . . . .
N2 N 0.3858(11) 0.9800(5) 0.4647(6) 0.070(2) Uani 1 1 d . . . . .
N1 N 0.2907(11) 0.9822(5) 0.3483(6) 0.062(2) Uani 1 1 d . . . . .
C9 C 0.2740(9) 0.8339(5) 0.3152(5) 0.0408(16) Uani 1 1 d . . . . .
C7 C 0.2020(11) 0.6027(6) 0.2094(5) 0.049(2) Uani 1 1 d . . . . .
H7 H 0.151171 0.545085 0.139791 0.059 Uiso 1 1 calc R U . . .
C6 C 0.2875(11) 0.5300(5) 0.3190(6) 0.0438(18) Uani 1 1 d . . . . .
C8 C 0.1937(11) 0.7561(6) 0.2052(6) 0.050(2) Uani 1 1 d . . . . .
H8 H 0.138187 0.807947 0.133834 0.060 Uiso 1 1 calc R U . . .
loop_
_atom_site_aniso_label
_atom_site_aniso_U_11
_atom_site_aniso_U_22
_atom_site_aniso_U_33
_atom_site_aniso_U_23
_atom_site_aniso_U_13
_atom_site_aniso_U_12
Cl1 0.0723(19) 0.0372(6) 0.0945(13) -0.0024(8) 0.0255(9) -0.0008(10)
N4 0.036(6) 0.043(2) 0.042(3) 0.001(2) -0.004(2) -0.004(2)
N5 0.067(6) 0.041(2) 0.043(3) 0.007(2) 0.000(2) 0.002(3)
N3 0.076(6) 0.063(3) 0.047(4) -0.011(3) -0.010(2) -0.008(4)
N2 0.084(8) 0.053(3) 0.073(5) -0.016(3) 0.009(3) -0.009(3)
N1 0.077(7) 0.041(2) 0.068(4) -0.004(2) 0.008(3) 0.000(3)
C9 0.050(6) 0.037(2) 0.036(3) 0.005(3) 0.004(2) 0.001(3)
C7 0.053(7) 0.054(3) 0.040(4) -0.011(2) 0.000(3) -0.007(3)
C6 0.050(7) 0.035(2) 0.046(4) -0.001(3) 0.009(3) 0.001(3)
C8 0.053(8) 0.060(3) 0.038(4) 0.008(3) -0.004(3) 0.004(3)
loop_
_atom_type_symbol
_atom_type_description
_atom_type_scat_dispersion_real
_atom_type_scat_dispersion_imag
_atom_type_scat_source
C C 0.0033 0.0016 'International Tables Vol C Tables 4.2.6.8 and 6.1.1.4'
H H 0.0000 0.0000 'International Tables Vol C Tables 4.2.6.8 and 6.1.1.4'
Cl Cl 0.1484 0.1585 'International Tables Vol C Tables 4.2.6.8 and 6.1.1.4'
N N 0.0061 0.0033 'International Tables Vol C Tables 4.2.6.8 and 6.1.1.4'
loop_
_geom_angle_atom_site_label_1
_geom_angle_atom_site_label_2
_geom_angle_atom_site_label_3
_geom_angle
_geom_angle_site_symmetry_1
_geom_angle_site_symmetry_3
_geom_angle_publ_flag
N3 N4 N5 121.3(5) . . ?
C9 N4 N5 128.4(5) . . ?
C9 N4 N3 110.3(4) . . ?
C6 N5 N4 111.1(5) . . ?
N2 N3 N4 103.5(5) . . ?
N3 N2 N1 113.9(4) . . ?
N2 N1 C9 104.1(5) . . ?
N4 C9 N1 108.2(5) . . ?
N4 C9 C8 117.9(4) . . ?
N1 C9 C8 133.8(5) . . ?
C6 C7 H7 120.1 . . ?
C8 C7 H7 120.1 . . ?
C8 C7 C6 119.7(5) . . ?
N5 C6 Cl1 114.3(4) . . ?
N5 C6 C7 126.6(4) . . ?
C7 C6 Cl1 119.1(5) . . ?
C9 C8 H8 121.9 . . ?
C7 C8 C9 116.1(6) . . ?
C7 C8 H8 121.9 . . ?
loop_
_geom_bond_atom_site_label_1
_geom_bond_atom_site_label_2
_geom_bond_distance
_geom_bond_site_symmetry_2
_geom_bond_publ_flag
Cl1 C6 1.723(4) . ?
N4 N5 1.358(5) . ?
N4 N3 1.346(6) . ?
N4 C9 1.339(6) . ?
N5 C6 1.301(7) . ?
N3 N2 1.317(6) . ?
N2 N1 1.340(8) . ?
N1 C9 1.346(6) . ?
C9 C8 1.411(8) . ?
C7 H7 0.9300 . ?
C7 C6 1.401(8) . ?
C7 C8 1.346(6) . ?
C8 H8 0.9300 . ?
loop_
_geom_torsion_atom_site_label_1
_geom_torsion_atom_site_label_2
_geom_torsion_atom_site_label_3
_geom_torsion_atom_site_label_4
_geom_torsion
_geom_torsion_site_symmetry_1
_geom_torsion_site_symmetry_2
_geom_torsion_site_symmetry_3
_geom_torsion_site_symmetry_4
_geom_torsion_publ_flag
N4 N5 C6 Cl1 -178.2(5) . . . . ?
N4 N5 C6 C7 2.5(11) . . . . ?
N4 N3 N2 N1 1.4(8) . . . . ?
N4 C9 C8 C7 1.0(11) . . . . ?
N5 N4 N3 N2 179.2(6) . . . . ?
N5 N4 C9 N1 179.7(7) . . . . ?
N5 N4 C9 C8 -0.1(11) . . . . ?
N3 N4 N5 C6 179.0(6) . . . . ?
N3 N4 C9 N1 -0.8(8) . . . . ?
N3 N4 C9 C8 179.3(6) . . . . ?
N3 N2 N1 C9 -1.9(8) . . . . ?
N2 N1 C9 N4 1.5(8) . . . . ?
N2 N1 C9 C8 -178.6(8) . . . . ?
N1 C9 C8 C7 -178.9(7) . . . . ?
C9 N4 N5 C6 -1.5(11) . . . . ?
C9 N4 N3 N2 -0.3(7) . . . . ?
C6 C7 C8 C9 -0.1(12) . . . . ?
C8 C7 C6 Cl1 178.9(6) . . . . ?
C8 C7 C6 N5 -1.8(13) . . . . ?
