#------------------------------------------------------------------------------
#$Date: 2021-11-19 01:13:10 +0200 (Fri, 19 Nov 2021) $
#$Revision: 270749 $
#$URL: file:///home/coder/svn-repositories/cod/cif/1/56/53/1565320.cif $
#------------------------------------------------------------------------------
#
# This file is available in the Crystallography Open Database (COD),
# http://www.crystallography.net/
#
# All data on this site have been placed in the public domain by the
# contributors.
#
data_1565320
loop_
_publ_author_name
'Wei, Xiao'
'Li, Bao'
'Yang, Zhiqiang'
'Zhong, RongLin'
'Wang, Yufei'
'Chen, yanan'
'Ding, Zeyang'
'Men, Guangwen'
'Yang, Zairan'
'Zhang, Houyu'
'Yang, Bing'
'Xu, Weiqing'
'Jiang, Shimei'
_publ_section_title
;
 Programmable photoresponsive materials based on a single molecule via
 distinct topochemical reactions
;
_journal_name_full               'Chemical Science'
_journal_paper_doi               10.1039/D1SC04053G
_journal_year                    2021
_chemical_formula_moiety         'C42 H22 F12 N2'
_chemical_formula_sum            'C42 H22 F12 N2'
_chemical_formula_weight         782.61
_space_group_crystal_system      triclinic
_space_group_IT_number           2
_space_group_name_Hall           '-P 1'
_space_group_name_H-M_alt        'P -1'
_atom_sites_solution_hydrogens   geom
_audit_creation_method           SHELXL-2014/7
_audit_update_record
;
2021-07-23 deposited with the CCDC.	2021-11-11 downloaded from the CCDC.
;
_cell_angle_alpha                67.4855(17)
_cell_angle_beta                 84.6786(17)
_cell_angle_gamma                89.830(2)
_cell_formula_units_Z            1
_cell_length_a                   6.6239(3)
_cell_length_b                   11.3191(6)
_cell_length_c                   12.9368(7)
_cell_measurement_reflns_used    8579
_cell_measurement_temperature    98(2)
_cell_measurement_theta_max      57.75
_cell_measurement_theta_min      3.05
_cell_volume                     891.61(8)
_computing_cell_refinement       'Bruker D8 Venture'
_computing_data_collection       'Bruker D8 Venture'
_computing_data_reduction        'Bruker D8 Venture'
_computing_molecular_graphics    'Bruker SHELXTL'
_computing_publication_material  'Bruker SHELXTL'
_computing_structure_refinement  'SHELXL-2014/7 (Sheldrick, 2015)'
_computing_structure_solution    'SHELXT-2014/7 (Sheldrick, 2015)'
_diffrn_ambient_temperature      98(2)
_diffrn_measured_fraction_theta_full 0.993
_diffrn_measured_fraction_theta_max 0.987
_diffrn_measurement_device_type  'D8 VENTURE PHOTON II'
_diffrn_measurement_method       'phi and omega scans'
_diffrn_radiation_type           MoK\a
_diffrn_radiation_wavelength     0.71073
_diffrn_reflns_av_R_equivalents  0.0539
_diffrn_reflns_av_unetI/netI     0.0282
_diffrn_reflns_Laue_measured_fraction_full 0.993
_diffrn_reflns_Laue_measured_fraction_max 0.987
_diffrn_reflns_limit_h_max       8
_diffrn_reflns_limit_h_min       -8
_diffrn_reflns_limit_k_max       13
_diffrn_reflns_limit_k_min       -13
_diffrn_reflns_limit_l_max       15
_diffrn_reflns_limit_l_min       -15
_diffrn_reflns_number            27462
_diffrn_reflns_point_group_measured_fraction_full 0.993
_diffrn_reflns_point_group_measured_fraction_max 0.987
_diffrn_reflns_theta_full        25.242
_diffrn_reflns_theta_max         25.730
_diffrn_reflns_theta_min         3.050
_diffrn_source                   'fine-focus sealed tube'
_exptl_absorpt_coefficient_mu    0.129
_exptl_absorpt_correction_T_max  0.987
_exptl_absorpt_correction_T_min  0.983
_exptl_absorpt_correction_type   multi-scan
_exptl_crystal_colour            COLORLESS
_exptl_crystal_density_diffrn    1.458
_exptl_crystal_description       BLOCK
_exptl_crystal_F_000             396
_exptl_crystal_size_max          0.130
_exptl_crystal_size_mid          0.120
_exptl_crystal_size_min          0.100
_refine_diff_density_max         0.160
_refine_diff_density_min         -0.161
_refine_diff_density_rms         0.035
_refine_ls_extinction_coef       0.021(4)
_refine_ls_extinction_expression Fc^*^=kFc[1+0.001xFc^2^\l^3^/sin(2\q)]^-1/4^
_refine_ls_extinction_method     'SHELXL-2014/7 (Sheldrick 2014'
_refine_ls_goodness_of_fit_ref   1.014
_refine_ls_hydrogen_treatment    constr
_refine_ls_matrix_type           full
_refine_ls_number_parameters     310
_refine_ls_number_reflns         3349
_refine_ls_number_restraints     0
_refine_ls_restrained_S_all      1.014
_refine_ls_R_factor_all          0.0789
_refine_ls_R_factor_gt           0.0539
_refine_ls_shift/su_max          0.002
_refine_ls_shift/su_mean         0.000
_refine_ls_structure_factor_coef Fsqd
_refine_ls_weighting_details
'w=1/[\s^2^(Fo^2^)+(0.0581P)^2^+0.4598P] where P=(Fo^2^+2Fc^2^)/3'
_refine_ls_weighting_scheme      calc
_refine_ls_wR_factor_gt          0.1292
_refine_ls_wR_factor_ref         0.1448
_reflns_Friedel_coverage         0.000
_reflns_number_gt                2449
_reflns_number_total             3349
_reflns_threshold_expression     'I > 2\s(I)'
_cod_data_source_file            d1sc04053g4.cif
_cod_data_source_block           1_CCDC1
_cod_depositor_comments
;
The following automatic conversions were performed:

data item '_exptl_absorpt_correction_type' value 'MULTI-SCAN' was
changed to 'multi-scan' in accordance with the
/home/data/users/saulius/crontab/automatic-downloads/rss-feeds/RSC/lib/dictionaries/cif_core.dic
dictionary named 'cif_core.dic' version 2.4.2 last updated on
2011-04-26.

Automatic conversion script
Id: cif_fix_values 7556 2019-12-06 15:28:31Z antanas 
;
_cod_database_code               1565320
_shelx_shelxl_version_number     2014/7
_shelx_space_group_comment
;
The symmetry employed for this shelxl refinement is uniquely defined
by the following loop, which should always be used as a source of
symmetry information in preference to the above space-group names.
They are only intended as comments.
;
_shelx_estimated_absorpt_t_min   0.983
_shelx_estimated_absorpt_t_max   0.987
_shelx_res_file
;

    1.res created by SHELXL-2014/7


TITL 1 in P-1
CELL 0.71073   6.62390  11.31910  12.93677  67.4855  84.6786  89.8302
ZERR   1.00   0.00030   0.00060   0.00070   0.0017   0.0017   0.0021
LATT 1
SFAC C  H  N  F
UNIT 42 22 2 12
L.S. 40
ACTA
BOND $H
FMAP 2
OMIT 8 2 3
OMIT 3 1 0
OMIT 3 -2 3
OMIT -3 2 3
PLAN 20
SIZE 0.10 0.12 0.13
TEMP -175.140
WGHT    0.058100    0.459800
EXTI    0.021156
FVAR       0.30109   0.49001   0.46332
C1    1    0.353126    0.547755    0.114176    11.00000    0.09266    0.04342 =
         0.04573   -0.01879    0.00260   -0.00443
C2    1    0.205656    0.457508    0.116484    11.00000    0.13045    0.05224 =
         0.07954   -0.03108   -0.00104   -0.02183
AFIX  43
H2    2    0.087628    0.485580    0.078619    11.00000   -1.20000
AFIX   0
C3    1    0.231042    0.329305    0.172998    11.00000    0.18192    0.05219 =
         0.09301   -0.03466    0.01465   -0.02406
AFIX  43
H3    2    0.129787    0.268886    0.175214    11.00000   -1.20000
AFIX   0
C4    1    0.405387    0.287524    0.227230    11.00000    0.20255    0.04159 =
         0.08000   -0.01862    0.01901    0.01018
AFIX  43
H4    2    0.422740    0.198332    0.264774    11.00000   -1.20000
AFIX   0
C5    1    0.550269    0.371130    0.227564    11.00000    0.15282    0.05191 =
         0.05598   -0.01203    0.00558    0.02718
AFIX  43
H5    2    0.666877    0.340294    0.266009    11.00000   -1.20000
AFIX   0
C6    1    0.528989    0.505756    0.170361    11.00000    0.09910    0.04554 =
         0.04195   -0.01235    0.00607    0.01574
C7    1    0.671126    0.597083    0.171283    11.00000    0.07213    0.06351 =
         0.04723   -0.01267   -0.00796    0.02507
AFIX  43
H7    2    0.788645    0.569374    0.209720    11.00000   -1.20000
AFIX   0
C8    1    0.643367    0.724581    0.118056    11.00000    0.05166    0.05097 =
         0.04682   -0.01242   -0.00952    0.01036
AFIX  43
H8    2    0.741187    0.784588    0.120220    11.00000   -1.20000
AFIX   0
C9    1    0.469634    0.769063    0.059224    11.00000    0.04419    0.03963 =
         0.03598   -0.01184   -0.00125    0.00245
C10   1    0.329565    0.681557    0.058120    11.00000    0.06001    0.04295 =
         0.04304   -0.01595   -0.00489   -0.00275
AFIX  43
H10   2    0.213285    0.710748    0.018896    11.00000   -1.20000
AFIX   0
C11   1    0.427736    0.909230    0.004218    11.00000    0.02860    0.03776 =
         0.03549   -0.01145   -0.00472   -0.00144
AFIX  13
H11   2    0.300912    0.917517   -0.033999    11.00000   -1.20000
AFIX   0
C12   1    0.407893    0.992592    0.079602    11.00000    0.02730    0.03828 =
         0.03849   -0.01122   -0.00517   -0.00027
C13   1    0.203465    1.042174    0.082466    11.00000    0.03175    0.04587 =
         0.04311   -0.01740   -0.00490   -0.00291
C14   1    0.451266    0.926610    0.202388    11.00000    0.03073    0.04147 =
         0.03720   -0.01295   -0.00079   -0.00186
C15   1    0.329930    0.819797    0.270307    11.00000    0.04224    0.05055 =
         0.04300   -0.01451   -0.00220   -0.00892
AFIX  43
H15   2    0.223766    0.791476    0.239816    11.00000   -1.20000
AFIX   0
C16   1    0.362699    0.754779    0.381540    11.00000    0.06011    0.04966 =
         0.04253   -0.00967    0.00168   -0.01004
C17   1    0.512671    0.795843    0.428378    11.00000    0.06430    0.06397 =
         0.03782   -0.01194   -0.00808   -0.00169
AFIX  43
H17   2    0.535183    0.750706    0.504883    11.00000   -1.20000
AFIX   0
C18   1    0.629827    0.903939    0.362023    11.00000    0.04499    0.06175 =
         0.04058   -0.01997   -0.00699   -0.00093
C19   1    0.599328    0.968940    0.249603    11.00000    0.03552    0.04637 =
         0.03911   -0.01465   -0.00029   -0.00463
AFIX  43
H19   2    0.680972    1.042996    0.204992    11.00000   -1.20000
AFIX   0
C20   1    0.230053    0.638151    0.450249    11.00000    0.09317    0.07220 =
         0.05786   -0.00168   -0.00209   -0.02502
C21   1    0.787875    0.956425    0.410522    11.00000    0.06058    0.08961 =
         0.04488   -0.02543   -0.01101   -0.00521
PART 1
F1    4    0.252171    0.548375    0.408582    21.00000    0.21806    0.08491 =
         0.10095   -0.04195    0.03787   -0.08232
F2    4    0.045201    0.659732    0.450481    21.00000    0.07745    0.11361 =
         0.31065    0.02047    0.05707   -0.02908
F3    4    0.278733    0.580890    0.550571    21.00000    0.23225    0.09212 =
         0.05279    0.02550   -0.03232   -0.07787
PART 2
F1'   4    0.315867    0.535447    0.471466   -21.00000    0.15407    0.05025 =
         0.36582    0.02180    0.01121   -0.00405
F2'   4    0.062587    0.632059    0.409628   -21.00000    0.12853    0.12346 =
         0.08278    0.01963   -0.03127   -0.09213
F3'   4    0.156915    0.645153    0.547347   -21.00000    0.16861    0.18779 =
         0.06631   -0.01712    0.04052   -0.10789
PART 1
F4    4    0.957407    0.983950    0.351295    31.00000    0.08174    0.25189 =
         0.06505   -0.07469    0.01802   -0.09787
F5    4    0.724459    1.040831    0.439620    31.00000    0.10131    0.20382 =
         0.24922   -0.19418   -0.03619    0.01115
F6    4    0.839356    0.862107    0.505675    31.00000    0.16549    0.15565 =
         0.10453   -0.01573   -0.09606   -0.01923
PART 2
F4'   4    0.967032    0.938309    0.377372   -31.00000    0.05118    0.21854 =
         0.21779   -0.15286   -0.04676    0.03694
F5'   4    0.786574    1.084947    0.376329   -31.00000    0.13670    0.07205 =
         0.14489   -0.03650   -0.08362   -0.01293
F6'   4    0.770014    0.916136    0.517863   -31.00000    0.15594    0.18108 =
         0.04072   -0.03207   -0.00742   -0.08863
PART 0
N1    3    0.042813    1.077054    0.088029    11.00000    0.03507    0.07091 =
         0.06799   -0.02994   -0.00510    0.00503
HKLF 4

REM  1 in P-1
REM R1 =  0.0539 for    2449 Fo > 4sig(Fo)  and  0.0789 for all    3349 data
REM    310 parameters refined using      0 restraints

END

WGHT      0.0418      0.4235

REM Highest difference peak  0.160,  deepest hole -0.161,  1-sigma level  0.035
Q1    1   0.4903  1.0562  0.0599  11.00000  0.05    0.16
Q2    1   0.6852  0.9326  0.3769  11.00000  0.05    0.15
Q3    1   0.4106  0.9314  0.0551  11.00000  0.05    0.14
Q4    1   0.0658  0.9965  0.0773  11.00000  0.05    0.14
Q5    1   0.3189  0.7018  0.4059  11.00000  0.05    0.13
Q6    1   0.5647  0.6887  0.0832  11.00000  0.05    0.13
Q7    1   0.4564  0.5030  0.1238  11.00000  0.05    0.13
Q8    1   0.5252  0.8967  0.3965  11.00000  0.05    0.13
Q9    1   0.5636  0.9595  0.3262  11.00000  0.05    0.13
Q10   1   0.7714  0.3741  0.2454  11.00000  0.05    0.13
Q11   1   1.0000  1.0000  0.5000  10.50000  0.05    0.13
Q12   1   0.0997  0.9109 -0.0062  11.00000  0.05    0.13
Q13   1   0.5564  0.1668  0.2817  11.00000  0.05    0.12
Q14   1   0.0101  0.2830  0.2187  11.00000  0.05    0.12
Q15   1   0.3381  0.7264  0.1085  11.00000  0.05    0.12
Q16   1   0.4059  0.5343  0.1793  11.00000  0.05    0.12
Q17   1   0.4716  0.7461  0.3980  11.00000  0.05    0.12
Q18   1   0.3367  0.8961 -0.0251  11.00000  0.05    0.12
Q19   1   0.4929  0.8416  0.0200  11.00000  0.05    0.12
Q20   1   0.8382  1.2016  0.2451  11.00000  0.05    0.11
;
_shelx_res_checksum              17055
_shelx_hkl_file
;
   3   0   1    0.86    0.21
   3   0   1    0.65    0.19
   3   0   1    0.94    0.16
   3   0   1    0.53    0.36
   3   0   1    0.49    0.16
   3   0   1    0.70    0.18
   3   0   1    1.25    0.23
  -3   0  -1    1.06    0.25
  -3   0  -1    0.97    0.17
  -3   0  -1    0.91    0.21
  -3   0  -1    0.39    0.17
  -3   0  -1    0.84    0.36
  -3   0  -1    0.64    0.19
   6   0   2    4.53    0.56
   6   0   2    5.32    0.59
   6   0   2    4.90    0.54
   6   0   2    4.57    0.55
   6   0   2    5.00    0.76
   6   0   2    4.89    0.57
  -6   0  -2    4.61    0.79
  -6   0  -2    4.81    0.62
  -6   0  -2    4.60    0.67
  -6   0  -2    6.81    1.16
  -6   0  -2    7.32    1.07
  -6   0  -2    3.89    0.45
  -6   0  -2    4.83    0.71
  -6   0  -2    4.64    0.59
  -5  -1  -2    9.93    0.90
  -5  -1  -2   11.57    0.82
  -5  -1  -2   11.67    0.88
  -5  -1  -2   10.79    0.82
  -5  -1  -2   10.79    0.75
  -5  -1  -2   10.25    0.85
  -5  -1  -2   10.59    0.58
  -5  -1  -2   10.69    0.71
  -5  -1  -2   11.48    0.71
  -5  -1  -2   10.76    1.16
   5   1   2   11.45    0.69
   5   1   2   11.12    0.66
   5   1   2   11.24    0.73
   5   1   2   11.79    0.96
   5   1   2   10.78    0.56
   5   1   2   10.97    0.73
   5   1   2   10.58    0.72
  -2  -1  -1   16.64    0.52
  -2  -1  -1   16.04    0.63
  -2  -1  -1   15.90    0.56
  -2  -1  -1   16.29    0.77
  -2  -1  -1   15.53    0.56
  -2  -1  -1   15.92    0.55
  -2  -1  -1   17.11    0.60
  -2  -1  -1   16.48    0.65
  -2  -1  -1   16.33    0.55
  -2  -1  -1   15.53    0.69
  -2  -1  -1   16.35    0.51
  -2  -1  -1   15.66    0.65
  -2  -1  -1   15.80    0.41
   2   1   1   16.66    0.52
   2   1   1   15.61    0.56
   2   1   1   15.81    0.56
   2   1   1   16.77    0.56
   2   1   1   16.49    0.57
   2   1   1   15.56    0.50
   2   1   1   16.44    0.70
   1  -1   0    5.93    0.22
   1  -1   0    6.21    0.28
   1  -1   0    5.65    0.24
   1  -1   0    6.02    0.32
   1  -1   0    5.38    0.28
  -1   1   0    6.10    0.30
  -1   1   0    5.88    0.30
  -1   1   0    5.99    0.25
  -1   1   0    5.65    0.31
   4  -1   1   28.12    0.96
   4  -1   1   29.50    1.06
   4  -1   1   28.64    1.01
   4  -1   1   28.83    1.29
   4  -1   1   29.18    0.88
   4  -1   1   27.38    0.69
   4  -1   1   27.29    1.03
  -4   1  -1   28.63    0.95
  -4   1  -1   30.66    1.05
  -4   1  -1   26.97    0.83
  -4   1  -1   29.34    1.15
  -4   1  -1   27.74    1.32
   7  -1   2   -0.47    0.44
   7  -1   2    0.47    0.36
   7  -1   2    0.46    0.25
   7  -1   2    0.96    0.30
   7  -1   2    1.41    0.33
  -7   1  -2    1.50    0.55
  -7   1  -2    1.23    0.35
  -7   1  -2    0.37    0.36
  -7   1  -2    0.59    0.28
  -7   1  -2    2.33    1.19
  -7  -2  -3    0.23    0.23
  -7  -2  -3    1.07    0.31
  -7  -2  -3    0.49    0.32
  -7  -2  -3    1.37    0.53
  -7  -2  -3    1.45    0.70
  -7  -2  -3    0.38    0.40
   7   2   3    0.17    0.34
   7   2   3    0.76    0.28
  -4  -2  -2    0.24    0.16
  -4  -2  -2    0.00    0.18
  -4  -2  -2    0.06    0.22
  -4  -2  -2   -0.24    0.36
  -4  -2  -2   -0.08    0.11
  -4  -2  -2   -0.14    0.26
  -4  -2  -2    0.13    0.31
  -4  -2  -2   -0.07    0.16
  -4  -2  -2   -0.15    0.17
  -4  -2  -2   -0.05    0.09
  -4  -2  -2   -0.01    0.18
  -4  -2  -2   -0.09    0.50
  -4  -2  -2    0.12    0.18
   4   2   2    0.14    0.19
   4   2   2    0.02    0.14
   4   2   2   -0.13    0.15
   4   2   2   -0.04    0.16
   4   2   2   -0.29    0.27
   4   2   2    0.10    0.18
  -1  -2  -1   69.35    1.45
  -1  -2  -1   68.52    1.44
  -1  -2  -1   70.94    1.32
  -1  -2  -1   71.58    1.31
  -1  -2  -1   67.14    1.27
  -1  -2  -1   71.94    1.27
  -1  -2  -1   69.44    1.49
  -1  -2  -1   69.73    1.36
  -1  -2  -1   67.28    1.32
  -1  -2  -1   68.77    1.35
   1   2   1   67.90    1.36
   1   2   1   70.90    1.45
   1   2   1   68.76    1.31
   1   2   1   70.80    1.46
   1   2   1   69.30    1.32
   1   2   1   68.79    1.47
   2  -2   0   15.01    0.50
   2  -2   0   14.89    0.47
   2  -2   0   15.38    0.40
   2  -2   0   15.19    0.68
   2  -2   0   13.59    0.57
   2  -2   0   14.80    0.62
  -2   2   0   14.73    0.50
  -2   2   0   15.18    0.68
  -2   2   0   15.37    0.61
  -2   2   0   14.74    0.62
   5  -2   1    0.60    0.25
   5  -2   1    0.34    0.21
   5  -2   1    1.26    0.53
   5  -2   1    0.05    0.17
   5  -2   1    0.40    0.23
   5  -2   1    0.13    0.28
  -5   2  -1    0.47    0.27
  -5   2  -1    0.80    0.27
  -5   2  -1    0.33    0.21
  -5   2  -1    0.37    0.50
  -6  -3  -3    3.78    0.98
  -6  -3  -3    1.53    0.41
  -6  -3  -3    1.63    0.33
  -6  -3  -3    2.93    0.71
  -6  -3  -3    2.77    0.73
  -6  -3  -3    0.75    0.28
  -6  -3  -3    2.01    0.43
  -6  -3  -3    1.15    0.34
  -6  -3  -3    1.23    0.22
  -6  -3  -3    1.08    0.33
   6   3   3    1.22    0.33
   6   3   3    1.87    0.44
   6   3   3    1.68    0.34
  -3  -3  -2    2.49    0.30
  -3  -3  -2    2.45    0.33
  -3  -3  -2    2.86    0.45
  -3  -3  -2    2.84    0.44
  -3  -3  -2    1.98    0.27
  -3  -3  -2    3.34    0.50
  -3  -3  -2    2.46    0.30
  -3  -3  -2    2.21    0.25
  -3  -3  -2    2.06    0.30
  -3  -3  -2    4.10    0.71
  -3  -3  -2    3.82    0.61
  -3  -3  -2    2.66    0.36
  -3  -3  -2    2.05    0.30
  -3  -3  -2    2.48    0.35
   3   3   2    3.04    0.55
   3   3   2    2.93    0.38
   3   3   2    2.78    0.36
   3   3   2    3.45    0.43
   3   3   2    2.30    0.32
   3   3   2    1.69    0.25
   0  -3  -1    8.04    0.41
   0  -3  -1    8.23    0.52
   0  -3  -1    8.34    0.40
   0  -3  -1    7.64    0.32
   0  -3  -1    8.31    0.38
   0   3   1    7.71    0.52
   0   3   1    7.61    0.38
   3  -3   0    7.49    0.52
   3  -3   0    7.13    0.43
   3  -3   0    6.72    0.57
   3  -3   0    7.07    0.32
   3  -3   0    5.25    0.37
   3  -3   0    6.37    0.30
  -3   3   0    8.29    0.59
  -3   3   0    5.81    0.41
  -3   3   0    6.90    0.58
  -3   3   0    6.73    0.54
   6  -3   1    0.47    0.28
   6  -3   1    0.39    0.24
   6  -3   1    0.59    0.48
   6  -3   1    0.76    0.26
   6  -3   1    0.81    0.27
   6  -3   1    0.44    0.33
  -6   3  -1    1.84    0.55
  -6   3  -1    0.07    0.25
  -6   3  -1    0.25    0.21
  -5  -4  -3    0.51    0.19
  -5  -4  -3    1.05    0.72
  -5  -4  -3    1.30    0.54
  -5  -4  -3    1.11    0.49
  -5  -4  -3    1.13    0.38
  -5  -4  -3    2.10    0.73
  -5  -4  -3    1.15    0.32
  -5  -4  -3    0.74    0.23
  -5  -4  -3    0.66    0.24
  -5  -4  -3    0.59    0.31
  -5  -4  -3    1.00    0.54
  -5  -4  -3    0.50    0.26
  -5  -4  -3    1.03    0.34
   5   4   3    0.74    0.29
   5   4   3    1.29    0.37
   5   4   3    0.95    0.28
  -2  -4  -2   68.27    1.61
  -2  -4  -2   71.87    1.85
  -2  -4  -2   68.85    1.65
  -2  -4  -2   68.25    1.80
  -2  -4  -2   68.68    1.52
  -2  -4  -2   73.33    1.35
  -2  -4  -2   68.69    1.51
  -2  -4  -2   68.16    1.68
  -2  -4  -2   67.31    1.57
  -2  -4  -2   68.06    1.57
  -2  -4  -2   71.13    1.60
  -2  -4  -2   70.54    1.91
   2   4   2   70.48    1.85
   2   4   2   71.25    1.63
   2   4   2   68.17    1.80
   2   4   2   70.75    1.60
   2   4   2   71.07    1.69
   2   4   2   68.93    1.87
   1  -4  -1    1.95    0.33
   1  -4  -1    1.00    0.17
   1  -4  -1    1.00    0.18
   1  -4  -1    1.14    0.22
   1  -4  -1    1.41    0.26
  -1   4   1    0.70    0.15
  -1   4   1    1.04    0.18
  -1   4   1    1.47    0.23
   4  -4   0    2.79    0.47
   4  -4   0    1.45    0.26
   4  -4   0    2.25    0.36
   4  -4   0    2.03    0.24
   4  -4   0    2.39    0.61
   4  -4   0    2.16    0.29
   4  -4   0    2.17    0.22
  -4   4   0    1.20    0.33
  -4   4   0    1.17    0.30
  -4   4   0    1.82    0.31
  -4   4   0    3.22    1.06
   7  -4   1   -0.10    0.22
   7  -4   1    0.19    0.28
   7  -4   1    0.66    0.64
   7  -4   1    0.35    0.23
   7  -4   1    0.58    0.38
  -7   4  -1    0.44    0.37
  -7   4  -1    0.30    0.33
  -7   4  -1   -0.02    0.28
  -7  -5  -4    0.06    0.17
  -7  -5  -4   -0.08    0.20
  -7  -5  -4    0.36    0.27
  -7  -5  -4    0.54    0.38
   7   5   4   -0.31    0.19
  -4  -5  -3    0.72    0.30
  -4  -5  -3    0.79    0.52
  -4  -5  -3    0.43    0.20
  -4  -5  -3    0.50    0.20
  -4  -5  -3    0.63    0.26
  -4  -5  -3    0.18    0.17
  -4  -5  -3    0.18    0.37
  -4  -5  -3    0.39    1.03
  -4  -5  -3    0.31    0.27
  -4  -5  -3    0.22    0.24
  -4  -5  -3    0.72    0.26
  -4  -5  -3    0.38    0.15
  -4  -5  -3    0.41    0.35
  -4  -5  -3    0.90    0.54
   4   5   3    0.62    0.25
   4   5   3    0.99    0.45
  -1  -5  -2    2.36    0.31
  -1  -5  -2    2.36    0.27
  -1  -5  -2    2.15    0.27
  -1  -5  -2    2.88    0.43
  -1  -5  -2    3.57    0.69
   1   5   2    2.76    0.38
   1   5   2    2.90    0.61
   1   5   2    2.55    0.49
   1   5   2    3.46    0.57
   1   5   2    3.12    0.47
   2  -5  -1    0.09    0.14
   2  -5  -1    0.15    0.41
   2  -5  -1   -0.11    0.23
   2  -5  -1    0.00    0.16
  -2   5   1   -0.13    0.15
  -2   5   1    0.08    0.17
  -2   5   1   -0.14    0.18
   5  -5   0    0.25    0.20
   5  -5   0   -0.16    0.16
   5  -5   0    0.35    0.31
   5  -5   0    0.63    0.47
   5  -5   0    0.48    0.28
   5  -5   0    0.25    0.15
  -5   5   0    0.28    0.26
  -5   5   0    0.18    0.27
  -5   5   0    0.30    0.43
  -5   5   0    0.38    0.26
  -6  -6  -4    3.46    0.45
  -6  -6  -4    4.38    1.05
  -6  -6  -4    3.12    0.59
  -6  -6  -4    2.69    0.49
  -6  -6  -4    4.97    1.06
  -6  -6  -4    3.82    0.50
  -6  -6  -4    2.63    0.45
  -6  -6  -4    2.33    0.37
  -6  -6  -4    4.68    0.84
  -6  -6  -4    3.21    0.55
  -6  -6  -4    3.44    0.61
  -6  -6  -4    4.27    0.82
  -3  -6  -3    1.62    0.22
  -3  -6  -3    3.64    0.90
  -3  -6  -3    3.36    0.66
  -3  -6  -3    2.05    0.34
  -3  -6  -3    1.78    0.35
  -3  -6  -3    2.59    0.72
  -3  -6  -3    2.52    0.43
  -3  -6  -3    1.97    0.42
  -3  -6  -3    1.46    0.29
  -3  -6  -3    1.88    0.41
  -3  -6  -3    2.77    0.66
  -3  -6  -3    2.48    0.54
   3   6   3    2.38    0.64
   3   6   3    1.88    0.55
   3   6   3    2.95    0.65
   3   6   3    2.06    0.38
   3   6   3    3.11    0.66
   0  -6  -2   30.68    1.01
   0  -6  -2   30.30    1.02
   0  -6  -2   30.49    0.88
   0  -6  -2   31.71    1.04
   0   6   2   31.00    1.01
   0   6   2   30.87    1.32
   3  -6  -1    6.23    0.61
   3  -6  -1    6.46    0.37
   3  -6  -1    6.16    0.36
   3  -6  -1    6.16    0.56
  -3   6   1    6.86    0.60
  -3   6   1    5.73    0.67
  -3   6   1    5.84    0.56
  -3   6   1    7.02    0.63
   6  -6   0    1.24    0.69
   6  -6   0    0.50    0.23
   6  -6   0    0.36    0.27
   6  -6   0    0.78    0.36
  -6   6   0    1.04    0.53
  -6   6   0   -0.02    0.27
  -6   6   0    0.29    0.30
  -6   6   0    0.07    0.32
  -5  -7  -4    1.26    0.29
  -5  -7  -4    1.81    0.44
  -5  -7  -4    1.46    0.34
  -5  -7  -4    1.85    0.69
  -5  -7  -4    1.36    0.36
  -5  -7  -4    1.15    0.53
  -5  -7  -4    1.63    0.29
  -5  -7  -4    3.13    0.78
  -5  -7  -4    1.50    0.81
  -5  -7  -4    1.63    0.46
  -5  -7  -4    2.04    0.68
   5   7   4    2.30    0.78
  -2  -7  -3    4.11    0.41
  -2  -7  -3    4.45    0.45
  -2  -7  -3    3.94    0.48
  -2  -7  -3    5.05    0.75
  -2  -7  -3    4.01    0.51
  -2  -7  -3    4.15    0.49
   2   7   3    4.76    0.59
   2   7   3    4.46    0.51
   2   7   3    3.61    0.57
   2   7   3    4.15    0.65
   2   7   3    4.04    0.46
   1  -7  -2   15.92    0.61
   1  -7  -2   15.11    1.18
   1  -7  -2   16.64    0.59
   1  -7  -2   16.31    0.74
   1  -7  -2   16.99    0.82
  -1   7   2   17.61    0.85
  -1   7   2   16.57    0.61
  -1   7   2   16.87    1.08
   4  -7  -1   11.27    0.47
   4  -7  -1   11.19    0.75
   4  -7  -1   11.49    0.88
   4  -7  -1   11.97    0.88
   4  -7  -1   11.15    0.52
  -4   7   1   12.67    0.97
  -4   7   1   11.63    0.77
  -4   7   1   10.81    0.83
  -4  -8  -4   23.55    1.19
  -4  -8  -4   24.82    1.16
  -4  -8  -4   24.42    1.11
  -4  -8  -4   23.38    1.23
  -4  -8  -4   21.26    1.20
  -4  -8  -4   24.92    1.10
  -4  -8  -4   22.94    1.51
  -4  -8  -4   27.63    1.77
  -4  -8  -4   23.07    1.16
   4   8   4   22.37    1.42
   4   8   4   23.93    1.26
   4   8   4   22.77    1.41
  -1  -8  -3    0.64    0.25
  -1  -8  -3    1.19    0.32
  -1  -8  -3    0.95    0.23
  -1  -8  -3    1.13    0.37
  -1  -8  -3    0.94    0.26
  -1  -8  -3    0.65    0.30
   1   8   3    1.45    0.52
   1   8   3    1.38    0.43
   1   8   3    1.20    0.53
   1   8   3    1.52    0.71
   1   8   3    0.89    0.34
   2  -8  -2    0.44    0.25
   2  -8  -2    0.55    0.16
   2  -8  -2    0.72    0.33
   2  -8  -2    0.46    0.23
   2  -8  -2    0.47    0.30
  -2   8   2    0.24    0.25
  -2   8   2    0.51    0.27
  -2   8   2    0.79    0.61
   5  -8  -1    0.32    0.27
   5  -8  -1    0.08    0.30
   5  -8  -1   -0.21    0.40
   5  -8  -1    0.07    0.25
   5  -8  -1    0.71    0.31
  -5   8   1    0.48    0.43
  -5   8   1   -0.16    0.28
  -5   8   1   -0.10    0.26
  -6  -9  -5    2.86    0.70
  -3  -9  -4   30.94    1.30
  -3  -9  -4   33.46    1.35
  -3  -9  -4   30.97    1.21
  -3  -9  -4   29.87    1.32
  -3  -9  -4   31.14    1.82
  -3  -9  -4   31.75    1.27
   3   9   4   31.00    1.41
   3   9   4   31.57    1.52
   3   9   4   31.07    1.63
   3   9   4   29.96    1.69
   0  -9  -3    9.01    0.47
   0  -9  -3    9.47    0.78
   0  -9  -3    9.29    0.75
   0  -9  -3    9.78    0.71
   0  -9  -3    9.40    0.59
   0   9   3    8.80    0.89
   0   9   3    9.22    0.97
   0   9   3    9.78    0.70
   3  -9  -2    1.87    0.51
   3  -9  -2    1.16    0.39
   3  -9  -2    1.82    0.37
  -3   9   2    0.66    0.31
  -3   9   2    0.63    0.30
  -3   9   2    2.04    0.88
  -3   9   2    1.21    0.38
   6  -9  -1    1.84    0.62
   6  -9  -1    1.17    0.30
   6  -9  -1    2.26    0.90
   6  -9  -1    1.28    0.40
   6  -9  -1    0.55    0.30
  -6   9   1    0.20    0.38
  -6   9   1    0.40    0.45
  -6   9   1    0.30    0.40
  -5 -10  -5    0.17    0.27
  -5 -10  -5    0.68    0.50
  -5 -10  -5    0.18    0.18
  -5 -10  -5    1.87    2.16
   5  10   5   -0.03    0.39
   5  10   5    0.76    0.61
  -2 -10  -4    3.52    0.55
  -2 -10  -4    4.22    0.50
  -2 -10  -4    2.80    0.40
  -2 -10  -4    3.44    0.61
  -2 -10  -4    4.27    0.66
  -2 -10  -4    3.62    0.45
   2  10   4    4.36    0.84
   2  10   4    4.80    1.08
   2  10   4    4.77    0.78
   2  10   4    3.67    0.64
   1 -10  -3    1.56    0.37
   1 -10  -3    2.23    0.25
   1 -10  -3    1.84    0.33
   1 -10  -3    2.20    0.47
   1 -10  -3    1.61    0.39
  -1  10   3    2.97    0.89
  -1  10   3    2.22    0.44
   4 -10  -2   -0.53    0.23
   4 -10  -2    0.41    0.37
   4 -10  -2   -0.42    0.25
  -4  10   2   -0.03    0.31
  -4  10   2   -0.14    0.27
  -4  10   2   -0.17    0.37
  -4  10   2   -0.28    1.22
  -4 -11  -5   -0.28    0.33
  -4 -11  -5    0.49    0.32
  -4 -11  -5    1.57    0.54
  -4 -11  -5    0.22    0.27
  -4 -11  -5    0.11    0.28
   4  11   5    0.04    0.40
   4  11   5    0.27    0.58
   4  11   5    0.72    0.44
  -1 -11  -4    1.02    0.34
  -1 -11  -4    1.10    0.49
  -1 -11  -4    1.04    0.35
   1  11   4    1.87    0.74
   1  11   4    1.46    0.67
   1  11   4    1.13    0.45
   1  11   4    1.50    0.56
   2 -11  -3    3.35    0.65
   2 -11  -3    3.50    0.38
   2 -11  -3    4.12    0.53
   2 -11  -3    2.49    0.50
  -2  11   3    2.43    0.39
  -2  11   3    2.77    0.57
  -2  11   3    4.74    1.13
  -3 -12  -5    2.61    0.60
  -3 -12  -5    2.99    0.49
  -3 -12  -5    4.35    0.48
   3  12   5    3.74    0.97
   3  12   5    3.61    0.60
   3  12   5    4.04    1.22
   3  12   5    4.52    0.83
   0 -12  -4   -0.08    0.27
   0 -12  -4    0.13    0.20
   0 -12  -4    0.11    0.26
   0 -12  -4    0.54    0.38
   0  12   4   -0.24    0.46
   0  12   4    0.05    0.32
   0  12   4    0.18    0.44
   0  12   4    0.29    0.51
   3 -12  -3    0.54    0.42
   3 -12  -3    1.19    0.39
   3 -12  -3    1.30    0.41
  -3  12   3    1.83    0.73
  -2 -13  -5    0.07    0.55
  -2 -13  -5   -0.71    0.36
  -2 -13  -5   -0.52    0.29
  -2 -13  -5   -0.13    0.27
  -2 -13  -5   -0.24    0.28
   2  13   5   -0.15    0.52
   2  13   5    0.35    0.58
   2  13   5    0.44    0.38
   1 -13  -4   -0.12    0.38
   1 -13  -4   -0.14    0.33
   1 -13  -4    0.79    0.49
  -1  13   4    0.86    0.74
  -1  13   4    0.17    0.67
  -2  13   4    0.45    0.61
   2 -13  -4   -0.21    0.41
   1  13   5    1.52    0.77
   1  13   5    1.29    0.66
   1  13   5    0.80    0.48
  -1 -13  -5    0.54    0.30
  -1 -13  -5    0.46    0.44
  -1 -13  -5    0.70    0.57
  -1 -13  -5    0.46    0.38
  -1  12   4    0.32    0.66
  -1  12   4   -0.70    0.54
   1 -12  -4   -0.19    0.29
   1 -12  -4    0.05    0.36
   1 -12  -4   -0.40    0.28
   1 -12  -4   -0.53    0.24
   2  12   5    0.16    0.36
   2  12   5    0.62    0.41
   2  12   5   -0.36    0.39
   2  12   5   -0.06    0.46
  -2 -12  -5   -0.32    0.24
  -2 -12  -5    0.17    0.24
  -2 -12  -5   -0.37    0.29
  -2 -12  -5    0.41    0.29
  -3  11   3    0.13    0.37
  -3  11   3   -0.20    0.48
  -3  11   3   -0.16    0.27
   3 -11  -3    0.14    0.27
   3 -11  -3    0.40    0.38
   3 -11  -3    0.74    0.35
   0  11   4    0.53    0.54
   0  11   4    0.27    0.36
   0  11   4    0.33    0.49
   0 -11  -4   -0.19    0.21
   0 -11  -4   -0.16    0.23
   0 -11  -4   -0.25    0.16
   3  11   5    4.13    0.91
   3  11   5    2.65    0.82
   3  11   5    4.48    0.99
   3  11   5    3.63    0.69
  -3 -11  -5    3.15    0.47
  -3 -11  -5    2.66    0.41
  -3 -11  -5    1.54    0.36
  -3 -11  -5    2.42    0.59
  -3 -11  -5    2.56    0.53
  -3 -11  -5    2.18    0.48
  -5  10   2   -0.45    0.67
  -5  10   2   -0.47    0.32
  -5  10   2   -0.55    0.38
  -5  10   2   -0.40    0.28
   5 -10  -2    0.16    0.43
   5 -10  -2    0.09    0.28
   5 -10  -2   -0.01    0.26
  -2  10   3    0.10    0.28
  -2  10   3    0.14    0.22
  -2  10   3    0.51    0.60
   2 -10  -3    0.57    0.31
   2 -10  -3    0.17    0.15
   2 -10  -3    0.35    0.28
   2 -10  -3    0.72    0.35
   2 -10  -3    0.92    0.33
   1  10   4    5.05    1.00
   1  10   4    4.73    0.93
   1  10   4    4.97    0.66
   1  10   4    4.73    0.57
   1  10   4    5.35    0.58
  -1 -10  -4    4.51    0.39
  -1 -10  -4    5.25    0.47
  -1 -10  -4    4.28    0.54
  -1 -10  -4    4.98    0.60
  -1 -10  -4    3.79    0.54
  -1 -10  -4    2.93    0.43
   4  10   5    0.41    0.50
   4  10   5    0.41    0.48
  -4 -10  -5   -0.23    0.26
  -4 -10  -5   -0.56    0.26
  -4 -10  -5   -0.22    0.28
  -4 -10  -5    0.51    0.37
  -4 -10  -5    0.27    0.25
  -4 -10  -5    1.23    0.47
  -4 -10  -5    0.20    0.73
  -4   9   2    0.06    0.65
  -4   9   2    0.05    0.24
  -4   9   2   -0.04    0.25
  -4   9   2    0.37    0.33
   4  -9  -2   -0.08    0.28
   4  -9  -2   -0.03    0.39
   4  -9  -2    0.64    0.24
  -1   9   3    1.74    0.78
  -1   9   3    1.09    0.33
   1  -9  -3    2.46    0.41
   1  -9  -3    1.38    0.26
   1  -9  -3    1.73    0.40
   1  -9  -3    1.20    0.31
   1  -9  -3    1.09    0.34
   2   9   4   53.24    1.86
   2   9   4   55.10    1.78
   2   9   4   52.85    2.20
   2   9   4   52.73    2.06
  -2  -9  -4   55.59    1.81
  -2  -9  -4   53.95    1.53
  -2  -9  -4   56.60    1.76
  -2  -9  -4   53.30    2.27
  -2  -9  -4   57.23    1.71
  -2  -9  -4   56.13    1.55
  -2  -9  -4   56.78    1.68
   5   9   5    1.45    0.60
   5   9   5    2.12    0.82
  -5  -9  -5    1.40    0.47
  -5  -9  -5    2.20    0.93
  -5  -9  -5    1.08    0.40
  -5  -9  -5    0.97    0.25
  -5  -9  -5    2.62    0.79
  -5  -9  -5    1.24    0.38
  -5  -9  -5    1.65    0.42
  -6   8   1    0.46    0.38
  -6   8   1   -0.11    0.30
  -6   8   1   -0.36    0.28
   6  -8  -1    0.10    0.25
   6  -8  -1    0.08    0.19
   6  -8  -1   -0.14    0.22
   6  -8  -1   -0.50    0.35
   6  -8  -1   -0.29    0.21
  -3   8   2    1.20    0.31
  -3   8   2    1.80    0.40
  -3   8   2    0.69    0.31
   3  -8  -2    1.78    0.40
   3  -8  -2    3.00    0.60
   3  -8  -2    2.02    0.35
   0   8   3    4.03    0.65
   0   8   3    2.82    0.45
   0   8   3    3.93    0.81
   0  -8  -3    2.42    0.34
   0  -8  -3    3.36    0.41
   0  -8  -3    2.75    0.40
   0  -8  -3    4.26    0.57
   3   8   4   18.73    1.06
   3   8   4   19.49    1.28
   3   8   4   17.94    1.19
   3   8   4   18.68    1.15
  -3  -8  -4   20.28    1.38
  -3  -8  -4   20.10    0.99
  -3  -8  -4   19.28    0.98
  -3  -8  -4   20.41    1.02
  -3  -8  -4   17.94    0.90
  -3  -8  -4   17.01    0.96
  -3  -8  -4   18.64    1.01
  -3  -8  -4   19.98    1.53
  -3  -8  -4   18.96    1.02
  -6  -8  -5    3.47    0.79
  -6  -8  -5    1.56    0.66
  -5   7   1    1.87    0.43
  -5   7   1    1.04    0.53
  -5   7   1    1.82    0.81
  -5   7   1    3.33    0.53
   5  -7  -1    1.70    0.30
   5  -7  -1    2.94    0.47
   5  -7  -1    2.58    0.35
   5  -7  -1    3.82    0.92
  -2   7   2    2.64    0.41
  -2   7   2    3.08    0.40
  -2   7   2    3.38    0.44
  -2   7   2    3.91    0.81
   2  -7  -2    3.04    0.47
   2  -7  -2    2.07    0.33
   2  -7  -2    2.64    0.39
   2  -7  -2    2.78    0.35
   2  -7  -2    2.84    0.23
   1   7   3    1.01    0.48
   1   7   3    0.24    0.16
   1   7   3    0.53    0.44
   1   7   3    0.38    0.37
   1   7   3    0.38    0.30
  -1  -7  -3    0.63    0.50
  -1  -7  -3    0.50    0.18
  -1  -7  -3    0.26    0.18
  -1  -7  -3    0.48    0.47
  -1  -7  -3    0.10    0.21
  -1  -7  -3    0.22    0.18
   4   7   4    0.52    0.49
   4   7   4    0.25    0.40
   4   7   4    0.04    0.35
  -4  -7  -4   -0.14    0.19
  -4  -7  -4    0.43    0.28
  -4  -7  -4   -0.17    0.15
  -4  -7  -4    2.03    0.99
  -4  -7  -4    0.50    0.60
  -4  -7  -4    0.33    0.16
  -4  -7  -4    0.19    0.25
  -4  -7  -4   -0.28    0.27
  -4  -7  -4    0.68    0.51
  -4  -7  -4    0.01    0.21
  -4  -7  -4   -0.05    0.40
  -4  -7  -4   -0.06    0.17
  -4  -7  -4    0.23    0.21
  -7   6   0   -0.35    0.38
  -7   6   0   -0.46    0.34
  -7   6   0   -0.23    0.28
   7  -6   0   -0.35    0.52
   7  -6   0   -0.23    0.35
   7  -6   0    0.02    0.27
  -4   6   1    2.38    0.46
  -4   6   1    1.94    0.38
  -4   6   1    2.96    0.43
  -4   6   1    3.99    0.80
   4  -6  -1    2.94    0.45
   4  -6  -1    2.80    0.33
   4  -6  -1    1.72    0.34
   4  -6  -1    3.41    0.71
  -1   6   2   15.88    0.79
  -1   6   2   15.05    0.69
  -1   6   2   14.73    0.55
  -1   6   2   14.83    0.93
   1  -6  -2   14.92    0.70
   1  -6  -2   14.82    0.60
   1  -6  -2   15.15    0.76
   1  -6  -2   14.17    0.64
   1  -6  -2   13.84    0.49
   2   6   3    7.40    0.58
   2   6   3    7.29    0.70
   2   6   3    7.41    0.68
   2   6   3    7.67    0.64
   2   6   3    8.33    0.56
  -2  -6  -3    9.09    0.66
  -2  -6  -3    8.17    0.50
  -2  -6  -3    8.33    0.57
  -2  -6  -3    7.57    0.55
  -2  -6  -3    8.15    0.78
  -2  -6  -3    8.32    0.65
  -2  -6  -3    8.29    0.56
  -2  -6  -3    7.91    0.77
   5   6   4    2.18    0.47
   5   6   4    1.39    0.57
  -5  -6  -4    1.44    0.67
  -5  -6  -4    4.15    1.36
  -5  -6  -4    0.63    0.34
  -5  -6  -4    1.26    0.61
  -5  -6  -4    0.53    0.24
  -5  -6  -4    1.19    0.36
  -5  -6  -4    1.60    0.57
  -5  -6  -4    1.29    0.32
  -5  -6  -4    1.50    0.54
  -5  -6  -4    1.04    0.27
  -5  -6  -4    0.73    0.37
  -5  -6  -4    0.75    0.21
  -5  -6  -4    1.29    0.39
  -6   5   0    4.44    0.66
  -6   5   0    4.59    0.56
  -6   5   0    3.91    0.65
  -6   5   0    3.70    0.56
   6  -5   0    5.03    0.78
   6  -5   0    5.81    0.57
   6  -5   0    6.79    1.14
  -3   5   1    3.65    0.40
  -3   5   1    3.56    0.50
  -3   5   1    3.75    0.48
   3  -5  -1    3.44    0.30
   3  -5  -1    3.55    0.25
   3  -5  -1    4.03    0.44
   3  -5  -1    3.97    0.48
   0   5   2    7.57    0.66
   0   5   2    8.37    0.48
   0  -5  -2    8.41    0.50
   0  -5  -2    8.03    0.49
   0  -5  -2    8.47    0.48
   0  -5  -2    7.65    0.39
   3   5   3   10.63    0.79
   3   5   3   10.84    0.78
   3   5   3   10.82    0.67
   3   5   3   10.34    0.67
   3   5   3   10.74    0.71
  -3  -5  -3   11.36    0.53
  -3  -5  -3   11.89    0.70
  -3  -5  -3   10.30    0.67
  -3  -5  -3   10.73    0.60
  -3  -5  -3   11.15    0.66
  -3  -5  -3   10.79    0.69
  -3  -5  -3   10.52    0.64
  -3  -5  -3   11.35    0.91
  -3  -5  -3   10.67    0.74
  -3  -5  -3   11.58    1.01
  -3  -5  -3    9.97    0.62
  -3  -5  -3   10.69    0.84
   6   5   4    1.87    0.60
   6   5   4    1.00    0.28
  -6  -5  -4    2.08    0.53
  -6  -5  -4    3.16    0.81
  -6  -5  -4    1.93    0.38
  -6  -5  -4    1.93    0.31
  -6  -5  -4    2.84    0.66
  -6  -5  -4    1.95    0.39
  -6  -5  -4    5.22    1.12
  -6  -5  -4    1.88    0.32
  -6  -5  -4    2.02    0.46
  -6  -5  -4    2.51    0.49
  -6  -5  -4    4.26    1.55
  -5   4   0    0.21    0.22
  -5   4   0    0.36    0.53
  -5   4   0    0.05    0.18
  -5   4   0   -0.16    0.23
   5  -4   0    0.14    0.16
   5  -4   0   -0.01    0.13
   5  -4   0    0.63    0.40
   5  -4   0    0.44    0.30
   5  -4   0    0.18    0.16
  -2   4   1   19.73    0.79
  -2   4   1   20.92    0.72
  -2   4   1   21.28    0.77
  -2   4   1   21.43    0.86
   2  -4  -1   21.01    0.82
   2  -4  -1   20.87    0.82
   2  -4  -1   21.57    0.74
   2  -4  -1   20.48    0.55
   1   4   2   68.12    1.42
   1   4   2   66.61    1.73
   1   4   2   66.76    1.42
   1   4   2   65.58    1.54
   1   4   2   67.70    1.49
   1   4   2   66.07    1.46
   1   4   2   66.37    1.65
  -1  -4  -2   66.84    1.35
  -1  -4  -2   66.65    1.42
  -1  -4  -2   65.23    1.43
  -1  -4  -2   62.52    1.46
  -1  -4  -2   67.64    1.56
  -1  -4  -2   64.75    1.73
   4   4   3    2.39    0.41
   4   4   3    1.72    0.32
   4   4   3    2.29    0.43
   4   4   3    2.17    0.42
   4   4   3    2.04    0.47
  -4  -4  -3    1.53    0.23
  -4  -4  -3    3.33    0.75
  -4  -4  -3    2.06    0.41
  -4  -4  -3    2.64    0.62
  -4  -4  -3    2.34    0.40
  -4  -4  -3    2.61    0.54
  -4  -4  -3    1.86    0.36
  -4  -4  -3    1.89    0.36
  -4  -4  -3    2.14    0.28
  -4  -4  -3    1.70    0.31
  -4  -4  -3    2.36    0.39
  -4  -4  -3    2.64    0.65
  -4  -4  -3    3.95    0.88
  -4  -4  -3    1.62    0.28
   7   4   4    1.42    0.39
   7   4   4    1.80    0.52
  -7  -4  -4    1.06    0.28
  -7  -4  -4    2.13    0.49
  -7  -4  -4    1.43    0.45
  -7  -4  -4    1.35    0.33
  -7  -4  -4    4.85    1.32
  -7  -4  -4    1.31    0.22
  -7  -4  -4    0.83    0.40
  -7   3  -1   -0.37    0.27
  -7   3  -1    0.58    0.54
  -7   3  -1   -0.18    0.27
  -7   3  -1    0.10    0.30
   7  -3   1    0.12    0.26
   7  -3   1    0.35    0.24
   7  -3   1    0.63    0.57
   7  -3   1    0.18    0.32
  -4   3   0    3.10    0.82
  -4   3   0    1.73    0.32
  -4   3   0    1.76    0.31
  -4   3   0    2.48    0.33
   4  -3   0    2.13    0.25
   4  -3   0    2.51    0.44
   4  -3   0    2.65    0.22
   4  -3   0    2.62    0.34
   4  -3   0    1.92    0.46
   4  -3   0    4.08    0.81
  -1   3   1  103.53    1.86
  -1   3   1  109.11    1.97
  -1   3   1  105.09    1.83
   1  -3  -1  102.92    1.86
   1  -3  -1  102.89    1.74
   1  -3  -1  103.01    1.94
   1  -3  -1  104.74    1.90
   2   3   2   97.21    2.17
   2   3   2  100.48    1.97
   2   3   2  100.94    2.08
   2   3   2   98.74    2.18
   2   3   2  100.30    2.22
   2   3   2   99.83    1.96
  -2  -3  -2  102.78    1.81
  -2  -3  -2   99.26    2.20
  -2  -3  -2   97.71    1.95
  -2  -3  -2  101.96    2.14
  -2  -3  -2  100.49    1.98
  -2  -3  -2   99.15    1.93
  -2  -3  -2   99.35    2.20
  -2  -3  -2   97.82    2.17
  -2  -3  -2  100.10    2.06
  -2  -3  -2   97.55    1.94
  -2  -3  -2  100.37    1.87
  -2  -3  -2   96.88    1.96
   5   3   3    0.31    0.24
   5   3   3   -0.16    0.21
   5   3   3   -0.04    0.19
   5   3   3    0.06    0.23
  -5  -3  -3    0.16    0.24
  -5  -3  -3    0.58    0.33
  -5  -3  -3    0.05    0.15
  -5  -3  -3    0.19    0.15
  -5  -3  -3    0.35    0.45
  -5  -3  -3    0.04    0.30
  -5  -3  -3    0.08    0.12
  -5  -3  -3    0.21    0.32
  -5  -3  -3    0.02    0.22
  -5  -3  -3   -0.61    0.60
  -5  -3  -3    0.11    0.54
  -5  -3  -3   -0.10    0.23
  -5  -3  -3    0.44    0.43
  -6   2  -1   -0.15    0.25
  -6   2  -1   -0.68    0.33
  -6   2  -1   -0.05    0.24
  -6   2  -1   -0.30    0.16
   6  -2   1    0.00    0.24
   6  -2   1    0.26    0.28
   6  -2   1   -0.06    0.40
   6  -2   1   -0.22    0.14
   6  -2   1   -0.08    0.18
   6  -2   1    0.29    0.24
  -3   2   0    3.25    0.30
  -3   2   0    2.02    0.28
  -3   2   0    3.07    0.45
  -3   2   0    2.44    0.47
   3  -2   0    2.70    0.32
   3  -2   0    3.18    0.20
   3  -2   0    3.17    0.38
   3  -2   0    3.02    0.29
   3  -2   0    2.88    0.45
   3  -2   0    3.03    0.38
   3  -2   0    3.27    0.25
   0   2   1   47.74    0.91
   0   2   1   46.71    0.91
   0   2   1   47.38    0.84
   0   2   1   48.60    0.91
   0   2   1   47.00    1.08
   0  -2  -1   46.34    0.91
   0  -2  -1   47.69    0.92
   0  -2  -1   47.18    0.90
   0  -2  -1   47.02    0.91
   3   2   2    6.48    0.46
   3   2   2    7.52    0.58
   3   2   2    7.20    0.48
   3   2   2    6.72    0.43
   3   2   2    6.05    0.54
  -3  -2  -2    6.49    0.33
  -3  -2  -2    6.82    0.48
  -3  -2  -2    8.03    0.69
  -3  -2  -2    7.19    0.46
  -3  -2  -2    7.41    0.41
  -3  -2  -2    7.43    0.48
  -3  -2  -2    6.83    0.47
  -3  -2  -2    6.56    0.57
  -3  -2  -2    7.02    0.44
  -3  -2  -2    6.86    0.52
  -3  -2  -2    5.43    0.49
  -3  -2  -2    7.63    0.48
  -3  -2  -2    6.77    0.55
   6   2   3    4.77    0.59
   6   2   3    5.21    0.62
   6   2   3    5.08    0.55
  -6  -2  -3    4.47    0.63
  -6  -2  -3    4.12    0.58
  -6  -2  -3    5.87    0.80
  -6  -2  -3    4.89    0.78
  -6  -2  -3    5.28    0.76
  -6  -2  -3    4.53    0.75
  -6  -2  -3    3.19    0.42
  -6  -2  -3    9.11    1.65
  -6  -2  -3    4.73    0.61
  -8   1  -2   -0.04    0.38
   8  -1   2    0.32    0.30
   8  -1   2    1.13    0.46
  -5   1  -1    0.14    0.21
  -5   1  -1    0.14    0.18
  -5   1  -1    0.22    0.23
  -5   1  -1    0.22    0.36
   5  -1   1    0.35    0.19
   5  -1   1    0.06    0.18
   5  -1   1    0.37    0.43
   5  -1   1    0.11    0.17
   5  -1   1    0.35    0.23
   5  -1   1    0.20    0.25
  -2   1   0   94.54    1.60
  -2   1   0   96.87    1.87
  -2   1   0   95.37    1.60
  -2   1   0   94.23    1.70
  -2   1   0   96.47    1.82
  -2   1   0   92.62    2.00
   2  -1   0   94.25    1.71
   2  -1   0   94.46    1.45
   2  -1   0   95.94    2.01
   2  -1   0   95.04    1.48
   2  -1   0   94.29    1.79
   2  -1   0   97.45    1.80
   2  -1   0   97.78    1.61
   1   1   1   24.31    0.64
   1   1   1   24.25    0.62
   1   1   1   24.15    0.57
   1   1   1   23.66    0.56
   1   1   1   24.85    0.57
   1   1   1   24.03    0.58
   1   1   1   24.42    0.56
   1   1   1   22.78    0.56
  -1  -1  -1   24.17    0.49
  -1  -1  -1   23.46    0.57
  -1  -1  -1   23.72    0.62
  -1  -1  -1   23.75    0.57
  -1  -1  -1   23.37    0.56
  -1  -1  -1   23.84    0.64
  -1  -1  -1   23.63    0.68
  -1  -1  -1   23.52    0.56
  -1  -1  -1   23.34    0.56
  -1  -1  -1   24.08    0.61
  -1  -1  -1   23.89    0.66
  -1  -1  -1   24.56    0.55
   4   1   2    1.33    0.28
   4   1   2    1.06    0.48
   4   1   2    1.47    0.28
   4   1   2    1.11    0.28
   4   1   2    0.65    0.17
   4   1   2    0.70    0.22
   4   1   2    0.73    0.24
  -4  -1  -2    1.01    0.12
  -4  -1  -2    1.38    0.45
  -4  -1  -2    1.24    0.57
  -4  -1  -2    0.80    0.29
  -4  -1  -2    1.62    0.65
  -4  -1  -2    0.95    0.20
  -4  -1  -2    1.64    0.50
  -4  -1  -2    1.38    0.57
  -4  -1  -2    0.85    0.24
  -4  -1  -2    1.04    0.23
  -4  -1  -2    1.40    0.28
  -4  -1  -2    0.93    0.25
   7   1   3    0.19    0.31
  -7  -1  -3   -0.02    0.31
  -7  -1  -3    0.18    0.24
  -7  -1  -3    2.15    0.79
  -7  -1  -3    0.84    0.31
  -7  -1  -3   -0.15    0.29
  -7  -1  -3    1.21    0.61
  -7   0  -2    2.47    0.68
  -7   0  -2    1.84    0.36
  -7   0  -2    2.71    0.68
   7   0   2    0.94    0.31
   7   0   2    0.92    0.35
   7   0   2    1.63    0.42
   7   0   2    1.13    0.47
  -4   0  -1    6.71    0.54
  -4   0  -1    7.62    0.54
  -4   0  -1    6.36    0.55
  -4   0  -1    6.71    0.41
  -4   0  -1    5.52    0.56
  -4   0  -1    6.25    0.48
  -4   0  -1    6.60    0.37
  -4   0  -1    6.86    0.46
  -4   0  -1    6.69    0.67
   4   0   1    5.59    0.49
   4   0   1    6.32    0.37
   4   0   1    7.42    0.54
   4   0   1    7.06    0.48
   4   0   1    6.21    0.65
   4   0   1    7.21    0.49
   4   0   1    6.73    0.51
  -1   0   0  366.65    5.43
   1   0   0  375.40    5.64
   2   0   1   43.24    1.20
   2   0   1   43.52    0.87
   2   0   1   44.47    0.99
   2   0   1   42.03    1.05
   2   0   1   43.78    1.04
   2   0   1   43.62    0.96
   2   0   1   43.99    0.95
  -2   0  -1   43.68    0.87
  -2   0  -1   44.04    0.98
  -2   0  -1   43.30    1.20
  -2   0  -1   44.62    0.95
  -2   0  -1   45.11    0.97
  -2   0  -1   45.04    1.08
  -2   0  -1   43.89    1.04
   5   0   2    7.44    0.45
   5   0   2    7.47    0.61
   5   0   2    7.69    0.63
   5   0   2    8.11    0.58
   5   0   2    7.24    0.79
   5   0   2    8.04    0.56
   5   0   2    6.65    0.61
  -5   0  -2    7.86    0.53
  -5   0  -2    7.51    0.73
  -5   0  -2    7.51    0.59
  -5   0  -2    7.50    0.62
  -5   0  -2    7.25    0.79
  -5   0  -2    8.01    0.72
  -5   0  -2    7.66    0.71
   8   0   3    1.41    0.52
   8   0   3    0.17    0.31
   8   0   3    0.73    0.35
  -8   0  -3    1.18    0.44
  -8   0  -3    0.26    0.41
  -8   0  -3    0.38    0.33
  -6  -1  -2    6.44    0.81
  -6  -1  -2    5.02    0.65
  -6  -1  -2    7.56    0.88
  -6  -1  -2    5.01    0.63
  -6  -1  -2    7.17    1.21
  -6  -1  -2    3.98    0.57
  -6  -1  -2    6.38    0.50
  -6  -1  -2    4.68    0.48
  -6  -1  -2    6.43    0.79
  -6  -1  -2    5.93    0.69
   6   1   2    6.31    0.57
   6   1   2    6.35    0.66
   6   1   2    6.33    0.83
   6   1   2    6.77    0.65
   6   1   2    5.93    0.58
   6   1   2    6.21    0.66
  -3  -1  -1   30.70    0.69
  -3  -1  -1   31.18    1.00
  -3  -1  -1   30.16    1.05
  -3  -1  -1   30.73    1.16
  -3  -1  -1   30.51    0.91
  -3  -1  -1   31.45    0.82
  -3  -1  -1   30.69    1.08
  -3  -1  -1   31.31    0.95
  -3  -1  -1   33.00    1.33
  -3  -1  -1   31.98    0.91
  -3  -1  -1   30.48    0.95
  -3  -1  -1   31.48    1.11
   3   1   1   32.36    0.96
   3   1   1   31.13    0.89
   3   1   1   30.34    1.16
   3   1   1   33.42    0.99
   3   1   1   32.08    0.83
   3   1   1   30.73    0.90
   3   1   1   32.20    0.95
   3  -1   1   69.74    1.62
   3  -1   1   67.22    1.52
   3  -1   1   66.43    1.46
   3  -1   1   67.17    1.83
   3  -1   1   71.26    1.41
   3  -1   1   66.34    1.23
  -3   1  -1   69.40    1.74
  -3   1  -1   68.25    1.47
  -3   1  -1   70.98    1.57
  -3   1  -1   69.78    1.42
  -3   1  -1   68.46    1.83
   6  -1   2    5.54    0.79
   6  -1   2    6.86    0.57
   6  -1   2    6.39    0.67
   6  -1   2    6.18    0.61
   6  -1   2    5.86    0.59
   6  -1   2    6.44    0.64
  -6   1  -2    6.69    0.57
  -6   1  -2    6.37    0.76
  -6   1  -2    6.88    0.77
  -6   1  -2    6.27    0.66
  -6   1  -2    6.56    0.77
  -6   1  -2    6.06    0.74
  -8  -2  -3   14.28    1.00
  -5  -2  -2    0.39    0.24
  -5  -2  -2    0.52    0.28
  -5  -2  -2    1.11    0.33
  -5  -2  -2    0.73    0.70
  -5  -2  -2    0.64    0.52
  -5  -2  -2    0.16    0.13
  -5  -2  -2    0.52    0.40
  -5  -2  -2   -0.19    0.21
  -5  -2  -2    0.08    0.37
  -5  -2  -2    0.07    0.17
  -5  -2  -2    0.32    0.23
  -5  -2  -2    0.22    0.50
   5   2   2    0.40    0.25
   5   2   2    0.30    0.26
   5   2   2   -0.20    0.37
   5   2   2    0.18    0.24
   5   2   2    0.16    0.19
  -2  -2  -1   68.47    1.46
  -2  -2  -1   71.41    1.33
  -2  -2  -1   68.32    1.65
  -2  -2  -1   70.69    1.45
  -2  -2  -1   68.75    1.44
  -2  -2  -1   68.19    1.45
  -2  -2  -1   70.87    1.58
  -2  -2  -1   69.74    1.43
  -2  -2  -1   71.29    1.68
  -2  -2  -1   71.37    1.33
  -2  -2  -1   73.68    1.40
  -2  -2  -1   68.72    1.75
  -2  -2  -1   72.37    1.43
  -2  -2  -1   71.07    1.64
   2   2   1   70.38    1.47
   2   2   1   71.90    1.60
   2   2   1   70.24    1.44
   2   2   1   71.43    1.79
   2   2   1   71.96    1.47
   2   2   1   74.26    1.70
   2   2   1   69.44    1.62
   2   2   1   72.07    1.44
   2   2   1   70.08    1.46
   2   2   1   71.76    1.69
   1  -2   0  148.86    2.20
   1  -2   0  147.11    2.40
   1  -2   0  144.75    2.46
   1  -2   0  150.52    2.44
   1  -2   0  145.24    2.44
  -1   2   0  143.10    2.38
  -1   2   0  146.92    2.47
  -1   2   0  152.69    2.44
  -1   2   0  147.36    2.45
   4  -2   1    2.39    0.30
   4  -2   1    2.92    0.49
   4  -2   1    2.06    0.30
   4  -2   1    3.72    0.73
   4  -2   1    2.65    0.21
   4  -2   1    2.58    0.33
  -4   2  -1    4.83    0.92
  -4   2  -1    2.25    0.39
  -4   2  -1    2.75    0.36
  -4   2  -1    2.02    0.32
   7  -2   2   -0.04    0.20
   7  -2   2   -0.24    0.21
   7  -2   2    0.47    0.33
   7  -2   2   -0.38    0.18
  -7   2  -2    1.35    0.56
  -7   2  -2    0.41    0.31
  -7   2  -2    0.14    0.25
  -7   2  -2   -0.37    0.27
  -7  -3  -3    1.54    0.64
  -4  -3  -2    3.02    0.56
  -4  -3  -2    2.68    0.44
  -4  -3  -2    3.22    0.40
  -4  -3  -2    2.53    0.32
  -4  -3  -2    2.38    0.36
  -4  -3  -2    2.78    0.31
  -4  -3  -2    1.61    0.24
  -4  -3  -2    2.26    0.37
  -4  -3  -2    3.84    0.95
  -4  -3  -2    2.52    0.38
  -4  -3  -2    4.02    0.69
  -4  -3  -2    3.51    0.67
   4   3   2    2.35    0.37
   4   3   2    2.61    0.43
   4   3   2    2.45    0.37
  -1  -3  -1  101.07    2.16
  -1  -3  -1   99.51    1.84
  -1  -3  -1  103.36    1.83
  -1  -3  -1  103.65    1.84
  -1  -3  -1  100.49    1.89
  -1  -3  -1  101.48    2.07
  -1  -3  -1   98.92    2.03
  -1  -3  -1  103.09    1.78
   1   3   1  103.26    1.94
   1   3   1  100.59    2.05
   1   3   1   97.66    1.81
   1   3   1  100.85    2.06
   1   3   1  103.01    2.16
   2  -3   0   12.70    0.54
   2  -3   0   12.91    0.59
   2  -3   0   12.73    0.60
   2  -3   0   12.67    0.41
   2  -3   0   12.73    0.63
  -2   3   0   13.19    0.62
  -2   3   0   12.24    0.52
  -2   3   0   12.64    0.60
  -2   3   0   13.02    0.63
   5  -3   1    0.11    0.17
   5  -3   1    0.35    0.25
   5  -3   1   -0.01    0.15
   5  -3   1    0.18    0.41
   5  -3   1    0.23    0.20
  -5   3  -1    0.21    0.42
  -5   3  -1    0.23    0.22
  -5   3  -1   -0.02    0.25
  -5   3  -1   -0.08    0.23
  -6  -4  -3    0.93    0.30
  -6  -4  -3    3.68    1.08
  -6  -4  -3    3.28    0.99
  -6  -4  -3    1.50    0.25
  -6  -4  -3    1.44    0.43
  -6  -4  -3    0.95    0.39
  -6  -4  -3    3.76    0.98
  -6  -4  -3    1.55    0.32
  -6  -4  -3    1.21    0.37
  -6  -4  -3    1.69    0.60
  -6  -4  -3    1.31    0.29
   6   4   3    0.99    0.33
   6   4   3    1.15    0.36
  -3  -4  -2    0.38    0.14
  -3  -4  -2    0.44    0.18
  -3  -4  -2    0.84    0.48
  -3  -4  -2    0.78    0.40
  -3  -4  -2    0.72    0.20
  -3  -4  -2    0.84    0.24
  -3  -4  -2    0.72    0.25
  -3  -4  -2    0.72    0.42
  -3  -4  -2    0.38    0.17
  -3  -4  -2    0.55    0.16
  -3  -4  -2    0.53    0.28
  -3  -4  -2    0.61    0.23
  -3  -4  -2    0.41    0.16
  -3  -4  -2    1.05    0.46
   3   4   2    0.46    0.17
   3   4   2    0.76    0.35
   3   4   2    0.84    0.69
   3   4   2    0.89    0.26
   3   4   2    0.54    0.31
   3   4   2    0.73    0.35
   0  -4  -1    8.43    0.60
   0  -4  -1    8.16    0.38
   0  -4  -1    8.67    0.45
   0  -4  -1    8.99    0.49
   0  -4  -1    8.97    0.46
   0   4   1    8.90    0.61
   0   4   1    8.86    0.45
   3  -4   0    0.03    0.27
   3  -4   0    0.02    0.10
   3  -4   0    0.09    0.09
   3  -4   0    0.24    0.15
   3  -4   0    0.16    0.17
  -3   4   0    0.14    0.19
  -3   4   0    0.04    0.18
  -3   4   0    0.36    0.20
  -3   4   0    0.51    0.34
   6  -4   1    1.84    0.31
   6  -4   1    2.78    0.60
   6  -4   1    2.04    0.39
   6  -4   1    1.63    0.38
   6  -4   1    2.07    0.72
  -6   4  -1    2.57    0.46
  -6   4  -1    0.91    0.54
  -6   4  -1    1.11    0.37
  -6   4  -1    3.56    0.76
  -5  -5  -3    2.65    0.47
  -5  -5  -3    4.05    0.95
  -5  -5  -3    1.66    0.34
  -5  -5  -3    3.09    0.52
  -5  -5  -3    2.21    0.34
  -5  -5  -3    4.44    0.95
  -5  -5  -3    5.63    1.36
  -5  -5  -3    2.56    0.47
  -5  -5  -3    2.42    0.48
  -5  -5  -3    2.29    0.44
  -5  -5  -3    3.71    0.81
  -5  -5  -3    2.77    0.42
  -5  -5  -3    1.80    0.54
  -5  -5  -3    2.59    0.35
  -2  -5  -2    0.52    0.26
  -2  -5  -2    0.52    0.23
  -2  -5  -2    0.74    0.20
  -2  -5  -2    1.22    0.46
  -2  -5  -2    1.18    0.41
  -2  -5  -2    0.25    0.16
  -2  -5  -2    1.37    0.39
  -2  -5  -2    0.88    0.51
  -2  -5  -2    0.66    0.29
  -2  -5  -2    0.82    0.31
   2   5   2    0.93    0.38
   2   5   2    0.80    0.32
   2   5   2    0.64    0.41
   2   5   2    0.47    0.36
   1  -5  -1    8.13    0.42
   1  -5  -1    8.32    0.41
   1  -5  -1    8.37    0.46
   1  -5  -1    9.20    0.53
   1  -5  -1    8.95    0.57
  -1   5   1    8.41    0.44
  -1   5   1    8.24    0.59
  -1   5   1    8.64    0.50
  -1   5   1    8.55    0.68
   4  -5   0    0.22    0.19
   4  -5   0    0.50    0.41
   4  -5   0    0.90    0.23
   4  -5   0    0.71    0.25
   4  -5   0    0.53    0.14
  -4   5   0    0.98    0.31
  -4   5   0    0.35    0.24
  -4   5   0    0.84    0.27
  -4   5   0    1.66    0.92
   7  -5   1   -0.20    0.58
   7  -5   1    0.55    0.41
  -7   5  -1   -0.21    0.30
  -7   5  -1   -0.29    0.30
  -7   5  -1   -0.33    0.34
  -7  -6  -4    0.38    0.24
  -7  -6  -4    0.65    0.36
  -7  -6  -4    1.40    0.37
  -7  -6  -4    0.69    0.41
  -7  -6  -4    0.73    0.26
  -4  -6  -3   24.33    1.09
  -4  -6  -3   24.90    1.41
  -4  -6  -3   26.71    1.04
  -4  -6  -3   24.15    1.36
  -4  -6  -3   24.83    1.10
  -4  -6  -3   27.40    1.02
  -4  -6  -3   25.52    1.13
  -4  -6  -3   24.98    1.07
  -4  -6  -3   26.98    1.62
  -4  -6  -3   25.82    1.03
  -4  -6  -3   25.74    1.11
  -4  -6  -3   25.81    1.25
  -4  -6  -3   24.85    1.12
  -4  -6  -3   26.03    1.25
   4   6   3   26.22    1.43
   4   6   3   25.56    1.37
   4   6   3   25.37    1.24
  -1  -6  -2    2.10    0.28
  -1  -6  -2    2.31    0.28
  -1  -6  -2    2.03    0.32
  -1  -6  -2    2.66    0.39
  -1  -6  -2    2.40    0.63
  -1  -6  -2    2.02    0.32
   1   6   2    2.76    0.49
   1   6   2    1.80    0.32
   1   6   2    2.53    0.46
   1   6   2    3.59    0.64
   1   6   2    3.17    0.72
   2  -6  -1    3.56    0.34
   2  -6  -1    4.23    0.42
   2  -6  -1    4.34    0.48
  -2   6   1    3.78    0.45
  -2   6   1    4.47    0.64
  -2   6   1    4.79    0.57
  -2   6   1    4.01    0.45
   5  -6   0    0.69    0.30
   5  -6   0    0.49    0.18
   5  -6   0    0.81    0.51
   5  -6   0    0.44    0.23
   5  -6   0    0.32    0.33
   5  -6   0    0.46    0.17
   5  -6   0    0.26    0.23
  -5   6   0   -0.09    0.25
  -5   6   0    0.13    0.27
  -5   6   0    0.38    0.29
  -5   6   0    0.82    0.53
  -6  -7  -4    2.38    0.77
  -6  -7  -4    1.99    0.53
  -6  -7  -4    0.38    0.28
  -6  -7  -4    1.06    0.30
  -6  -7  -4    2.59    0.73
  -6  -7  -4    1.10    0.41
  -6  -7  -4    0.55    0.29
  -6  -7  -4    0.59    0.22
  -3  -7  -3    1.99    0.37
  -3  -7  -3    2.57    0.40
  -3  -7  -3    3.11    0.46
  -3  -7  -3    2.56    0.45
  -3  -7  -3    2.44    0.42
  -3  -7  -3    2.72    0.51
  -3  -7  -3    4.42    0.95
  -3  -7  -3    4.77    0.75
  -3  -7  -3    1.72    0.33
   3   7   3    3.24    0.77
   3   7   3    2.38    0.62
   3   7   3    3.22    0.59
   3   7   3    4.50    0.84
   0  -7  -2   15.53    0.79
   0  -7  -2   13.61    0.77
   0  -7  -2   14.01    0.63
   0  -7  -2   14.03    0.73
   0  -7  -2   13.98    0.51
   0   7   2   15.81    0.92
   0   7   2   14.60    1.01
   3  -7  -1    3.45    0.46
   3  -7  -1    2.22    0.37
   3  -7  -1    3.72    0.37
  -3   7   1    2.80    0.39
  -3   7   1    2.03    0.36
  -3   7   1    3.40    0.49
   6  -7   0    0.01    0.14
   6  -7   0   -0.11    0.33
   6  -7   0   -0.01    0.17
   6  -7   0   -0.39    0.17
   6  -7   0    0.04    0.49
  -6   7   0   -0.04    0.27
  -6   7   0   -0.08    0.25
  -5  -8  -4    0.73    0.25
  -5  -8  -4    1.10    0.38
  -5  -8  -4    1.23    0.38
  -5  -8  -4    1.06    0.26
  -5  -8  -4    0.57    0.30
  -5  -8  -4    2.20    1.23
  -5  -8  -4    0.73    0.48
  -5  -8  -4    1.89    0.50
  -5  -8  -4    0.73    0.31
  -5  -8  -4    1.98    0.67
  -5  -8  -4    0.37    0.56
   5   8   4    1.10    0.47
  -2  -8  -3    0.35    0.21
  -2  -8  -3    0.75    0.36
  -2  -8  -3    0.30    0.29
  -2  -8  -3    0.58    0.30
  -2  -8  -3    0.44    0.26
  -2  -8  -3    0.69    0.73
   2   8   3   -0.15    0.43
   2   8   3    0.72    0.35
   2   8   3    0.25    0.38
   2   8   3    0.45    0.46
   2   8   3    0.45    0.24
   1  -8  -2    6.85    0.61
   1  -8  -2    6.34    0.55
   1  -8  -2    6.40    0.42
   1  -8  -2    6.80    0.67
  -1   8   2    7.40    0.47
  -1   8   2    6.40    0.60
  -1   8   2    6.17    0.82
   4  -8  -1    0.40    0.22
   4  -8  -1    0.23    0.24
   4  -8  -1    0.86    0.44
  -4   8   1    0.34    0.31
  -4   8   1    0.14    0.24
  -4   8   1    0.36    0.30
  -4  -9  -4    0.09    0.24
  -4  -9  -4   -0.16    0.20
  -4  -9  -4    0.70    0.37
  -4  -9  -4    0.05    0.30
  -4  -9  -4   -0.38    0.37
  -4  -9  -4   -0.14    1.46
  -4  -9  -4    0.13    0.22
  -4  -9  -4    0.19    1.18
  -4  -9  -4   -0.21    0.22
   4   9   4    0.22    0.40
   4   9   4    0.28    0.36
   4   9   4    0.41    0.47
   4   9   4   -0.01    0.51
  -1  -9  -3   29.29    0.96
  -1  -9  -3   29.75    1.24
  -1  -9  -3   31.29    1.14
  -1  -9  -3   29.75    1.26
  -1  -9  -3   31.03    1.28
   1   9   3   30.14    1.28
   1   9   3   27.89    1.18
   1   9   3   28.87    1.60
   1   9   3   30.35    1.43
   1   9   3   29.59    1.47
   2  -9  -2    1.34    0.39
   2  -9  -2    2.18    0.43
   2  -9  -2    1.50    0.36
   2  -9  -2    1.80    0.25
   2  -9  -2    1.89    0.47
  -2   9   2    2.38    0.76
  -2   9   2    1.37    0.27
  -2   9   2    1.63    0.41
   5  -9  -1    0.16    0.22
   5  -9  -1    0.54    0.43
   5  -9  -1    0.23    0.25
  -5   9   1    0.01    0.26
  -5   9   1   -0.37    0.72
  -5   9   1    0.10    0.52
  -5   9   1   -0.33    0.36
  -3 -10  -4    2.67    0.50
  -3 -10  -4    2.19    0.39
  -3 -10  -4    3.71    0.58
  -3 -10  -4    2.89    0.54
  -3 -10  -4    3.25    0.55
  -3 -10  -4    6.07    1.43
  -3 -10  -4    3.63    0.49
   3  10   4    3.91    0.86
   3  10   4    5.07    0.84
   3  10   4    4.80    0.95
   0 -10  -3    2.67    0.41
   0 -10  -3    1.43    0.33
   0 -10  -3    3.00    0.58
   0 -10  -3    2.16    0.46
   0 -10  -3    2.02    0.28
   0  10   3    3.68    0.84
   0  10   3    4.46    0.95
   0  10   3    2.72    0.91
   3 -10  -2    0.26    0.28
   3 -10  -2    0.01    0.27
   3 -10  -2    0.15    0.49
  -3  10   2   -0.97    0.47
  -3  10   2    0.11    0.56
  -3  10   2   -0.11    0.23
  -2 -11  -4    1.80    0.42
  -2 -11  -4    1.25    0.44
  -2 -11  -4    0.44    0.27
  -2 -11  -4    1.00    0.30
  -2 -11  -4    1.72    0.53
  -2 -11  -4    1.17    0.33
   2  11   4    1.67    0.69
   2  11   4    1.39    0.61
   2  11   4    3.09    0.79
   2  11   4    1.52    0.44
   1 -11  -3    1.06    0.30
   1 -11  -3    1.60    0.46
   1 -11  -3    1.80    0.43
  -1  11   3    1.34    0.35
   4 -11  -2   -0.48    0.29
   4 -11  -2    0.56    0.31
   4 -11  -2    1.11    0.47
  -4  11   2   -0.27    0.29
  -4  11   2    0.22    0.66
  -4 -12  -5   -0.04    0.30
  -1 -12  -4   -0.02    0.29
  -1 -12  -4   -0.21    0.32
  -1 -12  -4    0.52    0.26
  -1 -12  -4    0.43    0.38
  -1 -12  -4   -0.09    0.33
   1  12   4    0.41    0.43
   1  12   4    0.18    0.44
   1  12   4    0.23    0.52
   1  12   4   -0.41    0.30
   2 -12  -3    0.33    0.23
   2 -12  -3    0.75    0.43
   2 -12  -3    0.91    0.38
  -2  12   3   -0.35    0.55
   0 -13  -4   -0.37    0.36
   0 -13  -4   -0.08    0.21
   0 -13  -4    0.03    0.31
   0  13   4   -0.67    0.48
   0  13   4    0.48    0.63
   0  13   4    0.53    0.46
   0  13   4    0.39    0.49
   0  13   5    0.49    0.65
   0  13   5    1.09    0.51
   0  13   5    1.67    0.58
   0  13   5   -0.44    0.45
   0 -13  -5    0.56    0.38
   0 -13  -5    0.23    0.31
   0 -13  -5    0.17    0.38
   0 -13  -5    0.73    0.27
  -2  12   4    2.13    0.92
   2 -12  -4    0.55    0.44
   2 -12  -4    1.09    0.44
   1  12   5    0.43    0.65
   1  12   5    0.71    0.42
   1  12   5   -0.01    0.45
   1  12   5    0.71    0.43
  -1 -12  -5    0.84    0.34
  -1 -12  -5    1.08    0.39
  -1 -12  -5    0.43    0.37
  -1 -12  -5    0.34    0.24
  -1 -12  -5   -0.03    0.29
   4  12   6    0.60    0.64
   4  12   6    0.47    0.38
   4  12   6    0.57    0.59
  -4 -12  -6   -0.41    0.39
  -4 -12  -6    2.15    0.54
  -4 -12  -6    0.53    0.33
  -4  11   3    0.03    0.30
  -4  11   3   -0.66    0.26
  -4  11   3    0.28    0.64
   4 -11  -3    0.32    0.27
   4 -11  -3   -0.22    0.38
   4 -11  -3    0.16    0.31
  -1  11   4    2.22    1.33
  -1  11   4    2.11    0.44
   1 -11  -4    2.89    0.32
   1 -11  -4    1.71    0.40
   1 -11  -4    2.29    0.37
   1 -11  -4    4.17    0.55
   1 -11  -4    1.70    0.75
   2  11   5    6.37    1.08
   2  11   5    5.30    0.86
   2  11   5    5.22    0.64
   2  11   5    5.36    0.70
  -2 -11  -5    6.02    0.76
  -2 -11  -5    4.55    0.57
  -2 -11  -5    5.17    0.55
  -2 -11  -5    4.87    0.49
  -2 -11  -5    3.37    0.48
  -2 -11  -5    5.80    0.83
  -3  10   3    0.21    0.25
  -3  10   3    0.05    0.62
  -3  10   3    0.18    0.26
  -3  10   3    0.06    0.31
   3 -10  -3   -0.23    0.22
   3 -10  -3    0.41    0.47
   3 -10  -3    0.38    0.34
   3 -10  -3    0.14    0.36
   0  10   4   10.65    0.91
   0  10   4   11.73    1.11
   0  10   4   10.98    0.78
   0 -10  -4   11.29    0.57
   0 -10  -4   12.03    0.87
   0 -10  -4   10.34    0.96
   0 -10  -4   11.35    0.86
   0 -10  -4   12.00    0.81
   3  10   5    5.60    0.66
   3  10   5    4.98    0.70
   3  10   5    4.88    0.81
   3  10   5    6.02    0.80
  -3 -10  -5    5.33    0.65
  -3 -10  -5    5.20    0.56
  -3 -10  -5    5.81    0.64
  -3 -10  -5   11.10    2.48
  -3 -10  -5    5.78    0.69
  -5   9   2    1.25    0.46
  -5   9   2    1.52    0.47
  -5   9   2    1.64    0.49
   5  -9  -2    1.93    0.44
   5  -9  -2    3.51    0.78
   5  -9  -2    1.54    0.34
   5  -9  -2    1.88    0.31
  -2   9   3    0.69    0.61
  -2   9   3    0.49    0.27
  -2   9   3    0.32    0.21
   2  -9  -3    0.59    0.17
   2  -9  -3    1.27    0.30
   2  -9  -3    0.46    0.25
   2  -9  -3    1.06    0.39
   2  -9  -3    0.50    0.33
   1   9   4    0.36    0.19
   1   9   4    1.50    0.58
   1   9   4    0.91    0.48
   1   9   4    0.59    0.36
   1   9   4    0.87    0.59
  -1  -9  -4    0.45    0.25
  -1  -9  -4    0.54    0.34
  -1  -9  -4    0.62    0.28
  -1  -9  -4    0.68    0.24
  -1  -9  -4    0.64    0.34
   4   9   5    1.85    0.67
   4   9   5    2.18    0.55
   4   9   5    3.13    0.83
  -4  -9  -5    3.67    0.85
  -4  -9  -5    2.13    0.42
  -4  -9  -5    2.35    0.69
  -4  -9  -5    4.37    1.64
  -4  -9  -5    2.02    0.47
  -4  -9  -5    3.32    0.56
  -4  -9  -5    3.47    1.11
  -4  -9  -5    1.90    0.39
  -4   8   2    4.17    0.55
  -4   8   2    3.39    0.50
   4  -8  -2    3.89    0.35
   4  -8  -2    3.99    0.58
   4  -8  -2    3.73    0.58
   4  -8  -2    4.36    0.32
  -1   8   3    5.03    0.77
  -1   8   3    5.87    0.56
   1  -8  -3    5.89    0.64
   1  -8  -3    5.24    0.51
   1  -8  -3    6.17    0.58
   1  -8  -3    5.82    0.46
   1  -8  -3    6.17    0.39
   2   8   4    4.47    0.58
   2   8   4    4.92    0.69
   2   8   4    5.07    0.74
   2   8   4    5.16    0.56
  -2  -8  -4    5.62    0.58
  -2  -8  -4    4.93    0.52
  -2  -8  -4    5.66    1.00
  -2  -8  -4    5.26    0.55
  -2  -8  -4    4.46    0.56
  -2  -8  -4    5.19    0.59
  -2  -8  -4    6.21    0.61
   5   8   5    4.64    0.73
   5   8   5    4.65    0.75
  -5  -8  -5    5.18    0.87
  -5  -8  -5    5.17    0.66
  -5  -8  -5    5.83    1.01
  -5  -8  -5    5.02    0.55
  -5  -8  -5    6.71    0.81
  -5  -8  -5    4.61    0.53
  -5  -8  -5    6.09    0.62
  -5  -8  -5    5.39    0.60
  -5  -8  -5    5.65    0.70
  -5  -8  -5    5.74    0.66
  -6   7   1   -0.37    0.32
  -6   7   1    0.31    0.31
  -6   7   1    0.03    0.32
   6  -7  -1    0.33    0.25
   6  -7  -1    0.20    0.69
   6  -7  -1    0.60    0.44
   6  -7  -1   -0.17    0.18
   6  -7  -1    0.34    0.27
  -3   7   2    0.42    0.30
  -3   7   2    0.92    0.31
  -3   7   2    1.30    0.32
   3  -7  -2    1.36    0.26
   3  -7  -2    0.67    0.23
   3  -7  -2    0.80    0.20
   3  -7  -2    1.24    0.39
   3  -7  -2    1.16    0.44
   0   7   3    4.09    0.71
   0   7   3    5.24    0.69
   0  -7  -3    4.61    0.48
   0  -7  -3    4.36    0.38
   0  -7  -3    4.59    0.51
   0  -7  -3    5.24    0.55
   3   7   4    0.62    0.42
   3   7   4    0.33    0.33
   3   7   4    0.42    0.25
   3   7   4    0.63    0.44
   3   7   4    0.61    0.39
  -3  -7  -4    0.90    0.44
  -3  -7  -4    0.57    0.72
  -3  -7  -4    0.80    0.28
  -3  -7  -4    0.41    0.26
  -3  -7  -4    0.76    0.24
  -3  -7  -4    0.52    0.41
  -3  -7  -4    0.42    0.26
  -3  -7  -4    0.09    0.26
  -3  -7  -4    0.71    0.29
  -3  -7  -4    0.86    0.65
  -6  -7  -5    0.97    0.33
  -6  -7  -5    2.59    0.71
  -6  -7  -5    1.83    0.63
  -5   6   1    3.49    0.84
  -5   6   1    2.07    0.46
  -5   6   1    1.45    0.36
  -5   6   1    2.13    0.43
   5  -6  -1    1.52    0.36
   5  -6  -1    2.61    0.32
   5  -6  -1    3.11    0.77
   5  -6  -1    2.78    0.55
   5  -6  -1    2.10    0.39
   5  -6  -1    2.49    0.36
  -2   6   2   26.47    0.90
  -2   6   2   25.24    1.05
  -2   6   2   25.40    0.93
   2  -6  -2   24.17    0.94
   2  -6  -2   24.80    0.77
   2  -6  -2   24.85    0.93
   2  -6  -2   26.47    1.07
   1   6   3    2.33    0.48
   1   6   3    1.22    0.24
   1   6   3    2.33    0.62
   1   6   3    2.31    0.35
   1   6   3    2.06    0.48
   1   6   3    2.99    0.47
  -1  -6  -3    2.03    0.32
  -1  -6  -3    2.99    0.46
  -1  -6  -3    1.54    0.23
  -1  -6  -3    2.41    0.36
  -1  -6  -3    2.73    0.67
   4   6   4    0.51    0.28
   4   6   4    0.33    0.24
   4   6   4    0.41    0.43
   4   6   4    0.38    0.49
  -4  -6  -4    0.49    0.36
  -4  -6  -4    0.79    0.33
  -4  -6  -4    0.36    0.24
  -4  -6  -4    0.49    0.25
  -4  -6  -4    0.04    0.23
  -4  -6  -4    0.62    0.27
  -4  -6  -4    0.37    0.51
  -4  -6  -4    0.15    0.23
  -4  -6  -4    0.41    0.56
  -4  -6  -4    0.72    0.24
  -4  -6  -4    0.28    0.24
  -4  -6  -4    0.76    0.62
  -4  -6  -4    0.54    0.21
  -7  -6  -5    1.24    0.30
  -7  -6  -5    2.84    0.59
  -7  -6  -5    0.84    0.44
  -7  -6  -5    1.43    0.39
  -7  -6  -5    0.65    0.24
  -7   5   0   -0.50    0.31
  -7   5   0    0.51    0.32
  -7   5   0   -0.19    0.26
   7  -5   0   -0.08    0.34
   7  -5   0    0.06    0.53
   7  -5   0   -0.11    0.23
  -4   5   1    0.19    0.22
  -4   5   1    0.33    0.40
  -4   5   1    0.20    0.20
  -4   5   1   -0.03    0.18
   4  -5  -1    0.52    0.25
   4  -5  -1    0.36    0.18
   4  -5  -1    0.14    0.20
   4  -5  -1    0.16    0.39
   4  -5  -1    0.15    0.13
  -1   5   2  119.79    2.28
  -1   5   2  117.39    2.35
  -1   5   2  119.18    2.09
   1  -5  -2  119.45    2.30
   1  -5  -2  117.86    2.35
   1  -5  -2  118.72    2.22
   1  -5  -2  116.46    2.18
   1  -5  -2  119.95    1.96
   2   5   3   30.16    1.12
   2   5   3   29.36    1.28
   2   5   3   28.96    0.98
   2   5   3   30.31    1.04
   2   5   3   30.46    1.20
   2   5   3   28.41    1.01
  -2  -5  -3   28.60    0.98
  -2  -5  -3   29.00    1.02
  -2  -5  -3   27.95    1.01
  -2  -5  -3   27.44    0.91
  -2  -5  -3   29.93    1.15
  -2  -5  -3   29.15    0.96
  -2  -5  -3   29.40    0.99
  -2  -5  -3   27.41    1.21
  -2  -5  -3   29.80    1.04
  -2  -5  -3   29.30    0.99
   5   5   4    1.19    0.35
   5   5   4    0.29    0.24
   5   5   4    0.75    0.30
  -5  -5  -4    1.44    0.55
  -5  -5  -4    0.44    0.17
  -5  -5  -4    0.67    0.38
  -5  -5  -4    0.41    0.25
  -5  -5  -4    0.82    0.35
  -5  -5  -4    0.70    0.34
  -5  -5  -4    0.95    0.57
  -5  -5  -4    0.70    0.28
  -5  -5  -4    0.64    0.50
  -5  -5  -4    0.44    0.23
  -5  -5  -4    0.40    0.26
  -5  -5  -4    1.81    0.95
  -5  -5  -4    0.83    0.23
  -6   4   0    8.41    1.10
  -6   4   0    9.96    0.90
  -6   4   0    9.84    0.91
   6  -4   0   10.32    0.71
   6  -4   0   10.02    0.84
   6  -4   0    8.68    0.95
   6  -4   0    9.85    0.84
  -3   4   1    4.29    0.47
  -3   4   1    4.25    0.52
  -3   4   1    4.55    0.38
  -3   4   1    4.25    0.52
   3  -4  -1    3.92    0.46
   3  -4  -1    4.00    0.39
   3  -4  -1    4.72    0.34
   3  -4  -1    4.63    0.35
   3  -4  -1    7.01    1.24
   0   4   2   27.53    0.80
   0   4   2   29.19    0.82
   0   4   2   28.16    1.05
   0   4   2   28.20    0.70
   0  -4  -2   29.61    0.83
   0  -4  -2   28.61    0.81
   0  -4  -2   29.11    0.82
   0  -4  -2   28.12    0.70
   3   4   3    0.37    0.22
   3   4   3    0.30    0.17
   3   4   3    0.58    0.34
   3   4   3    0.51    0.37
  -3  -4  -3    0.48    0.15
  -3  -4  -3    0.21    0.32
  -3  -4  -3    0.44    0.33
  -3  -4  -3    0.65    0.30
  -3  -4  -3    0.28    0.28
  -3  -4  -3    0.18    0.13
  -3  -4  -3    0.34    0.23
  -3  -4  -3    1.06    0.26
  -3  -4  -3    0.40    0.17
  -3  -4  -3    0.13    0.16
  -3  -4  -3    0.49    0.13
  -3  -4  -3    0.27    0.20
  -3  -4  -3    1.24    0.50
   6   4   4    0.97    0.31
   6   4   4    0.57    0.31
  -6  -4  -4    1.22    0.51
  -6  -4  -4    0.82    0.41
  -6  -4  -4    0.49    0.30
  -6  -4  -4    0.76    0.36
  -6  -4  -4    0.70    0.27
  -6  -4  -4    1.62    0.53
  -6  -4  -4    0.61    0.18
  -6  -4  -4    0.58    0.20
  -6  -4  -4    3.00    0.94
  -6  -4  -4    1.86    0.83
  -5   3   0    5.40    0.64
  -5   3   0    4.67    0.45
  -5   3   0    5.47    0.67
  -5   3   0    4.83    0.70
   5  -3   0    5.19    0.50
   5  -3   0    5.73    0.61
   5  -3   0    5.76    0.40
   5  -3   0    5.30    0.57
   5  -3   0    5.24    0.70
  -2   3   1   72.49    1.57
  -2   3   1   71.76    1.60
  -2   3   1   68.91    1.40
  -2   3   1   69.96    1.66
   2  -3  -1   69.69    1.67
   2  -3  -1   70.75    1.41
   1   3   2   46.85    1.26
   1   3   2   47.98    1.10
   1   3   2   48.77    1.06
   1   3   2   46.03    1.21
   1   3   2   45.67    1.09
   1   3   2   46.07    1.07
  -1  -3  -2   47.96    1.28
  -1  -3  -2   45.79    1.08
  -1  -3  -2   44.91    1.04
  -1  -3  -2   47.37    1.05
  -1  -3  -2   45.43    1.07
  -1  -3  -2   45.07    1.10
   4   3   3    8.21    0.60
   4   3   3    8.74    0.59
   4   3   3    7.65    0.54
   4   3   3    7.89    0.60
  -4  -3  -3    8.38    0.87
  -4  -3  -3    7.60    0.41
  -4  -3  -3    7.57    0.74
  -4  -3  -3    8.30    0.59
  -4  -3  -3    7.12    0.61
  -4  -3  -3    7.99    0.58
  -4  -3  -3    7.64    0.56
  -4  -3  -3    8.45    0.60
  -4  -3  -3    7.19    0.84
  -4  -3  -3    8.39    0.50
  -4  -3  -3    7.34    0.67
  -4  -3  -3    8.23    0.56
   7   3   4    4.10    0.62
   7   3   4    3.57    0.63
   7   3   4    3.70    0.62
  -7  -3  -4    4.69    0.72
  -7  -3  -4    3.43    0.62
  -7  -3  -4    3.40    0.55
  -7  -3  -4    3.35    0.46
  -7   2  -1    0.63    0.46
  -7   2  -1    0.18    0.30
  -7   2  -1    0.56    0.41
  -7   2  -1   -0.32    0.21
   7  -2   1    0.49    0.31
   7  -2   1    0.13    0.26
   7  -2   1    0.09    0.26
   7  -2   1   -0.12    0.40
  -4   2   0   16.64    0.83
  -4   2   0   15.70    0.60
  -4   2   0   14.76    0.85
  -4   2   0   12.71    0.96
   4  -2   0   15.57    0.78
   4  -2   0   14.77    0.94
   4  -2   0   15.47    0.57
   4  -2   0   15.57    0.69
   4  -2   0   14.34    0.76
   1  -2  -1  733.53   13.74
   1  -2  -1  693.01   13.59
   2   2   2  192.71    3.21
   2   2   2  189.71    3.17
   2   2   2  194.34    3.13
   2   2   2  190.66    3.40
   2   2   2  189.01    3.34
   2   2   2  188.87    3.20
   2   2   2  188.34    3.21
  -2  -2  -2  192.37    2.99
  -2  -2  -2  186.61    3.33
  -2  -2  -2  191.33    3.19
  -2  -2  -2  189.60    3.43
  -2  -2  -2  190.00    3.32
  -2  -2  -2  193.50    3.14
  -2  -2  -2  194.27    3.18
  -2  -2  -2  184.03    3.19
  -2  -2  -2  189.44    3.39
  -2  -2  -2  184.84    3.21
  -2  -2  -2  186.35    3.48
  -2  -2  -2  190.67    3.19
   5   2   3    9.36    0.71
   5   2   3    7.85    0.61
   5   2   3    7.95    0.56
   5   2   3    8.90    0.68
  -5  -2  -3    8.38    0.79
  -5  -2  -3    8.82    1.07
  -5  -2  -3    8.17    0.84
  -5  -2  -3    8.90    0.60
  -5  -2  -3    8.90    0.76
  -5  -2  -3    8.14    0.77
  -5  -2  -3    9.47    0.71
  -5  -2  -3    7.17    0.63
  -5  -2  -3    8.76    0.36
  -5  -2  -3    8.22    0.60
  -5  -2  -3    9.72    0.76
  -6   1  -1    0.39    0.46
  -6   1  -1    0.12    0.21
  -6   1  -1    0.65    0.57
  -6   1  -1   -0.11    0.18
  -6   1  -1    0.22    0.26
  -6   1  -1    1.09    0.54
   6  -1   1    0.43    0.40
   6  -1   1    0.12    0.20
   6  -1   1    0.13    0.23
   6  -1   1    0.23    0.21
   6  -1   1    0.09    0.28
  -3   1   0    3.00    0.19
  -3   1   0    2.72    0.25
  -3   1   0    1.70    0.28
  -3   1   0    2.65    0.27
  -3   1   0    2.32    0.57
  -3   1   0    3.45    0.38
   3  -1   0    2.67    0.33
   3  -1   0    2.40    0.52
   3  -1   0    2.74    0.27
   3  -1   0    2.50    0.18
   3  -1   0    2.97    0.36
   3   1   2   62.67    1.55
   3   1   2   62.29    1.33
   3   1   2   64.07    1.52
   3   1   2   61.14    1.32
   3   1   2   62.99    1.43
   3   1   2   61.89    1.76
   3   1   2   63.52    1.46
  -3  -1  -2   64.08    1.36
  -3  -1  -2   62.07    1.53
  -3  -1  -2   60.28    1.73
  -3  -1  -2   65.64    1.37
  -3  -1  -2   64.14    1.44
  -3  -1  -2   61.92    1.51
  -3  -1  -2   60.67    1.60
  -3  -1  -2   60.02    1.42
  -3  -1  -2   62.85    1.08
  -3  -1  -2   61.97    1.52
  -3  -1  -2   60.84    1.60
   6   1   3    0.12    0.16
   6   1   3    0.71    0.25
   6   1   3    0.35    0.24
   6   1   3   -0.01    0.21
   6   1   3    0.62    0.29
  -6  -1  -3    0.36    0.31
  -6  -1  -3   -0.22    0.23
  -6  -1  -3    0.33    0.37
  -6  -1  -3    0.12    0.19
  -6  -1  -3    0.58    0.32
  -6  -1  -3   -0.18    0.95
  -6  -1  -3    0.36    0.25
  -5   0  -1    0.09    0.24
  -5   0  -1    0.13    0.30
  -5   0  -1   -0.18    0.39
  -5   0  -1   -0.01    0.16
  -5   0  -1    0.15    0.63
  -5   0  -1    0.10    0.19
  -5   0  -1   -0.26    0.14
  -5   0  -1   -0.10    0.33
  -5   0  -1    0.11    0.20
  -5   0  -1   -0.29    0.16
   5   0   1    0.32    0.23
   5   0   1    0.06    0.14
   5   0   1    0.07    0.17
   5   0   1    0.14    0.24
   5   0   1    0.66    0.49
   5   0   1    0.13    0.18
  -2   0   0   14.80    0.52
  -2   0   0   14.32    0.37
  -2   0   0   15.07    0.51
  -2   0   0   14.71    0.47
  -2   0   0   14.27    0.40
  -2   0   0   15.34    0.55
  -2   0   0   13.52    0.57
  -2   0   0   14.45    0.66
   2   0   0   15.11    0.68
   2   0   0   14.53    0.51
   2   0   0   14.33    0.52
   2   0   0   14.35    0.53
   2   0   0   15.07    0.48
   2   0   0   16.00    0.53
   1   0   1  290.48    4.37
   1   0   1  292.72    4.44
   1   0   1  294.27    4.43
   1   0   1  292.42    4.33
   1   0   1  296.70    4.34
  -1   0  -1  289.84    4.43
  -1   0  -1  301.23    4.34
  -1   0  -1  304.29    4.38
  -1   0  -1  293.34    4.55
  -1   0  -1  305.97    4.46
   4   0   2   38.03    1.22
   4   0   2   37.10    1.11
   4   0   2   38.20    0.97
   4   0   2   36.72    1.23
   4   0   2   40.28    1.19
   4   0   2   37.15    1.48
  -4   0  -2   37.88    1.16
  -4   0  -2   38.14    1.05
  -4   0  -2   37.14    1.32
  -4   0  -2   38.34    1.26
  -4   0  -2   40.65    1.34
  -4   0  -2   37.96    1.78
  -4   0  -2   40.30    1.17
   7   0   3    0.42    0.31
   7   0   3    0.67    0.28
   7   0   3   -0.19    0.19
   7   0   3    0.38    0.26
  -7   0  -3    0.37    0.26
  -7   0  -3    1.63    0.59
  -7   0  -3    0.04    0.21
  -7   0  -3   -0.03    0.33
  -7   0  -3    1.71    0.77
  -7  -1  -2    1.53    0.61
  -7  -1  -2    0.76    0.28
  -7  -1  -2   -0.08    0.21
  -7  -1  -2    1.05    0.65
  -7  -1  -2    0.31    0.35
   7   1   2    0.41    0.40
   7   1   2    0.71    0.25
   7   1   2    0.26    0.21
   7   1   2    0.22    0.30
  -4  -1  -1   11.53    0.78
  -4  -1  -1   12.09    0.66
  -4  -1  -1   11.18    0.59
  -4  -1  -1   11.34    0.72
  -4  -1  -1   11.00    0.77
  -4  -1  -1   11.22    0.92
  -4  -1  -1   11.63    0.75
  -4  -1  -1   12.57    0.91
  -4  -1  -1   11.94    0.53
  -4  -1  -1   11.44    0.42
  -4  -1  -1   11.42    0.77
  -4  -1  -1   10.74    0.64
   4   1   1   11.79    0.62
   4   1   1   11.30    0.65
   4   1   1   12.15    0.67
   4   1   1   11.19    0.64
   4   1   1   11.03    0.83
   4   1   1   11.20    0.61
  -1  -1   0   35.47    0.81
  -1  -1   0   33.50    0.90
  -1  -1   0   33.96    0.79
  -1  -1   0   35.19    0.74
  -1  -1   0   34.72    0.84
  -1  -1   0   35.35    0.64
  -1  -1   0   34.08    0.86
  -1  -1   0   34.11    0.71
  -1  -1   0   35.73    0.73
  -1  -1   0   34.18    0.69
  -1  -1   0   34.61    0.68
  -1  -1   0   33.28    0.71
   1   1   0   34.14    0.73
   1   1   0   34.59    0.92
   1   1   0   35.40    0.81
   1   1   0   36.34    0.86
   1   1   0   36.01    0.89
   1   1   0   35.66    0.82
   1   1   0   34.59    0.69
   1   1   0   34.28    0.68
   2  -1   1   88.43    1.58
   2  -1   1   88.27    1.66
   2  -1   1   88.50    1.90
   2  -1   1   87.48    1.54
   2  -1   1   86.98    1.73
   2  -1   1   87.04    1.76
   2  -1   1   87.11    1.46
  -2   1  -1   85.87    1.57
  -2   1  -1   86.73    1.67
  -2   1  -1   87.96    1.59
  -2   1  -1   91.99    1.79
  -2   1  -1   85.23    1.87
   5  -1   2    4.74    0.54
   5  -1   2    4.44    0.49
   5  -1   2    4.10    0.33
   5  -1   2    4.20    0.51
   5  -1   2    4.01    0.42
   5  -1   2    4.78    0.71
   5  -1   2    2.84    0.42
  -5   1  -2    3.93    0.45
  -5   1  -2    4.65    0.56
  -5   1  -2    5.16    0.66
  -5   1  -2    4.19    0.48
  -5   1  -2    3.98    0.63
  -6  -2  -2   36.62    1.39
  -6  -2  -2   35.48    1.44
  -6  -2  -2   34.75    0.89
  -6  -2  -2   36.20    1.69
  -6  -2  -2   38.36    1.73
  -6  -2  -2   37.91    1.46
  -6  -2  -2   38.39    1.56
  -6  -2  -2   38.12    1.38
  -6  -2  -2   36.32    1.22
  -6  -2  -2   37.89    1.88
  -6  -2  -2   41.22    2.24
   6   2   2   37.67    1.45
   6   2   2   38.87    1.85
   6   2   2   36.83    1.46
   6   2   2   35.15    1.40
  -3  -2  -1    1.37    0.27
  -3  -2  -1    2.58    0.47
  -3  -2  -1    1.14    0.18
  -3  -2  -1    2.06    0.52
  -3  -2  -1    1.58    0.20
  -3  -2  -1    1.48    0.34
  -3  -2  -1    1.32    0.25
  -3  -2  -1    1.33    0.25
  -3  -2  -1    1.64    0.46
  -3  -2  -1    0.97    0.22
  -3  -2  -1    2.38    0.55
  -3  -2  -1    1.83    0.31
  -3  -2  -1    1.95    0.30
   3   2   1    1.70    0.31
   3   2   1    2.02    0.41
   3   2   1    1.62    0.27
   3   2   1    0.94    0.21
   3   2   1    1.72    0.42
   0  -2   0  240.32    3.84
   0  -2   0  236.00    3.62
   0  -2   0  231.40    3.48
   0  -2   0  239.11    3.44
   0   2   0  241.52    3.50
   0   2   0  237.81    3.62
   0   2   0  237.51    3.84
   3  -2   1    0.85    0.22
   3  -2   1    1.20    0.40
   3  -2   1    1.12    0.32
   3  -2   1    1.24    0.18
   3  -2   1    0.99    0.17
   3  -2   1    0.70    0.18
   3  -2   1    1.22    0.22
  -3   2  -1    1.61    0.46
  -3   2  -1    0.86    0.20
  -3   2  -1    0.71    0.20
  -3   2  -1    0.83    0.17
  -3   2  -1    0.84    0.21
   6  -2   2    3.26    0.59
   6  -2   2    2.83    0.43
   6  -2   2    2.38    0.35
   6  -2   2    1.69    0.37
   6  -2   2    4.04    0.93
   6  -2   2    3.29    0.42
  -6   2  -2    2.20    0.50
  -6   2  -2    4.04    0.53
  -6   2  -2    1.89    0.36
  -5  -3  -2    9.53    0.68
  -5  -3  -2   10.11    1.17
  -5  -3  -2    8.44    0.67
  -5  -3  -2    8.44    0.64
  -5  -3  -2    9.26    0.69
  -5  -3  -2    9.84    0.90
  -5  -3  -2    9.05    0.65
  -5  -3  -2    9.51    0.80
  -5  -3  -2    8.67    0.71
  -5  -3  -2    9.18    0.50
  -5  -3  -2    9.70    0.64
  -5  -3  -2    8.91    0.73
  -5  -3  -2    9.16    0.84
  -5  -3  -2    9.33    0.90
   5   3   2    8.60    0.68
   5   3   2    8.66    0.85
   5   3   2    8.60    0.67
   5   3   2    9.01    0.69
   5   3   2    8.71    0.68
  -2  -3  -1   66.05    1.73
  -2  -3  -1   64.26    1.40
  -2  -3  -1   64.61    1.56
  -2  -3  -1   64.74    1.42
  -2  -3  -1   65.34    1.56
  -2  -3  -1   65.44    1.44
  -2  -3  -1   66.63    1.68
  -2  -3  -1   64.74    1.46
  -2  -3  -1   66.01    1.76
  -2  -3  -1   67.77    1.35
  -2  -3  -1   65.60    1.37
  -2  -3  -1   65.13    1.47
   2   3   1   67.59    1.57
   2   3   1   67.24    1.70
   2   3   1   67.94    1.45
   2   3   1   65.16    1.72
   2   3   1   65.52    1.75
   2   3   1   65.74    1.58
   2   3   1   66.13    1.46
   1  -3   0   16.45    0.52
   1  -3   0   15.88    0.61
   1  -3   0   16.04    0.57
   1  -3   0   15.69    0.54
  -1   3   0   15.27    0.61
  -1   3   0   15.36    0.50
  -1   3   0   15.57    0.55
  -1   3   0   15.74    0.54
   4  -3   1    2.00    0.39
   4  -3   1    1.06    0.27
   4  -3   1    2.52    0.57
   4  -3   1    1.60    0.23
   4  -3   1    2.07    0.31
   4  -3   1    1.74    0.19
  -4   3  -1    1.40    0.29
  -4   3  -1    1.84    0.33
  -4   3  -1    0.76    0.26
  -4   3  -1    2.47    0.73
   7  -3   2    0.32    0.24
   7  -3   2    0.76    0.36
  -7   3  -2    0.54    0.38
  -7   3  -2   -0.04    0.34
  -7   3  -2   -0.34    0.30
  -7  -4  -3   -0.04    0.30
  -7  -4  -3    0.09    0.22
  -7  -4  -3    0.24    0.18
  -7  -4  -3   -0.21    0.21
  -7  -4  -3   -0.25    0.29
  -7  -4  -3   -0.30    0.29
  -7  -4  -3   -0.15    0.30
   7   4   3    0.56    0.36
   7   4   3    0.30    0.23
  -4  -4  -2    1.04    0.33
  -4  -4  -2    0.38    0.15
  -4  -4  -2    0.84    0.27
  -4  -4  -2    1.16    0.46
  -4  -4  -2    0.54    0.30
  -4  -4  -2    0.93    0.28
  -4  -4  -2    1.71    0.83
  -4  -4  -2    1.06    0.27
  -4  -4  -2    1.30    0.49
  -4  -4  -2    0.70    0.22
  -4  -4  -2    1.34    0.69
  -4  -4  -2    0.55    0.45
   4   4   2    0.64    0.25
   4   4   2    0.74    0.21
   4   4   2    0.71    0.29
  -1  -4  -1    9.64    0.67
  -1  -4  -1    9.21    0.41
  -1  -4  -1    8.99    0.47
  -1  -4  -1    9.40    0.51
  -1  -4  -1   11.43    0.68
  -1  -4  -1    9.12    0.47
  -1  -4  -1    9.39    0.42
   1   4   1   10.13    0.53
   1   4   1    9.42    0.64
   1   4   1    9.29    0.46
   1   4   1    9.58    0.60
   1   4   1    9.01    0.62
   2  -4   0    0.25    0.14
   2  -4   0    0.29    0.19
   2  -4   0    0.38    0.11
   2  -4   0    0.49    0.28
   2  -4   0    0.11    0.14
  -2   4   0    0.29    0.16
  -2   4   0    0.18    0.27
  -2   4   0    0.25    0.19
  -2   4   0    0.38    0.30
   5  -4   1    0.65    0.32
   5  -4   1    0.70    0.24
   5  -4   1    0.42    0.23
   5  -4   1    0.99    0.21
   5  -4   1    1.62    0.56
  -5   4  -1    0.45    0.27
  -5   4  -1    0.56    0.24
  -5   4  -1    0.56    0.29
  -5   4  -1    1.52    0.62
  -6  -5  -3    4.79    1.14
  -6  -5  -3    2.59    0.48
  -6  -5  -3    1.62    0.56
  -6  -5  -3    1.77    0.46
  -6  -5  -3    3.17    0.74
  -6  -5  -3    1.90    0.33
  -6  -5  -3    2.31    0.50
  -6  -5  -3    1.40    0.34
  -6  -5  -3    2.09    0.38
  -6  -5  -3    1.73    0.32
  -6  -5  -3    1.59    0.37
   6   5   3    1.29    0.26
  -3  -5  -2    3.19    0.61
  -3  -5  -2    3.09    0.57
  -3  -5  -2    2.73    0.39
  -3  -5  -2    1.99    0.35
  -3  -5  -2    2.36    0.32
  -3  -5  -2    2.40    0.35
  -3  -5  -2    2.20    0.29
  -3  -5  -2    3.73    0.80
  -3  -5  -2    2.02    0.34
  -3  -5  -2    2.65    0.43
  -3  -5  -2    2.23    0.58
  -3  -5  -2    2.60    0.44
  -3  -5  -2    3.57    0.69
   3   5   2    4.17    0.77
   3   5   2    3.57    0.74
   3   5   2    3.31    0.60
   3   5   2    2.47    0.54
   0  -5  -1    1.24    0.21
   0  -5  -1    1.09    0.22
   0  -5  -1    1.60    0.52
   0  -5  -1    1.62    0.18
   0  -5  -1    0.91    0.18
   0  -5  -1    1.75    0.31
   0   5   1    1.41    0.26
   0   5   1    1.97    0.56
   3  -5   0    0.70    0.23
   3  -5   0    0.35    0.12
   3  -5   0    0.41    0.17
   3  -5   0    0.66    0.36
   3  -5   0    0.53    0.21
  -3   5   0    0.20    0.20
  -3   5   0    0.64    0.36
  -3   5   0    0.61    0.27
  -3   5   0    0.28    0.25
   6  -5   1   -0.17    0.15
   6  -5   1    0.04    0.27
   6  -5   1    0.72    0.52
   6  -5   1    0.02    0.23
  -6   5  -1   -0.05    0.27
  -6   5  -1   -0.17    0.29
  -6   5  -1   -0.07    0.25
  -6   5  -1    0.41    0.47
  -5  -6  -3   11.26    1.36
  -5  -6  -3    7.32    0.79
  -5  -6  -3    7.61    0.61
  -5  -6  -3    7.32    0.67
  -5  -6  -3    7.69    0.83
  -5  -6  -3    7.80    0.63
  -5  -6  -3    8.39    0.72
  -5  -6  -3    8.79    1.01
  -5  -6  -3    7.83    0.89
  -5  -6  -3    7.97    0.72
  -5  -6  -3    6.56    0.70
  -5  -6  -3    8.21    0.70
  -5  -6  -3    7.53    0.60
  -5  -6  -3    8.46    0.66
  -2  -6  -2    8.49    0.54
  -2  -6  -2    7.39    0.55
  -2  -6  -2    7.83    0.50
  -2  -6  -2    8.19    0.87
  -2  -6  -2    8.78    0.80
  -2  -6  -2    7.80    0.77
  -2  -6  -2    8.10    0.56
   2   6   2    8.75    0.73
   2   6   2    8.07    0.70
   2   6   2    7.98    0.75
   2   6   2    8.27    0.54
   2   6   2    8.21    0.61
   1  -6  -1    7.93    0.59
   1  -6  -1    6.59    0.41
   1  -6  -1    6.20    0.34
   1  -6  -1    5.89    0.45
   1  -6  -1    6.54    0.53
  -1   6   1    6.33    0.40
  -1   6   1    6.44    0.49
  -1   6   1    6.29    0.68
   4  -6   0    1.06    0.20
   4  -6   0    1.07    0.48
   4  -6   0    0.42    0.21
   4  -6   0    0.41    0.26
   4  -6   0    0.56    0.19
  -4   6   0    0.94    0.29
  -4   6   0    1.60    0.69
  -4   6   0    0.32    0.29
  -4   6   0    0.32    0.28
   7  -6   1    0.27    0.43
  -7   6  -1    0.05    0.36
  -7   6  -1   -0.15    0.34
  -4  -7  -3   20.06    1.32
  -4  -7  -3   22.86    1.63
  -4  -7  -3   21.85    1.16
  -4  -7  -3   21.12    1.01
  -4  -7  -3   18.73    1.13
  -4  -7  -3   20.71    0.97
  -4  -7  -3   21.81    0.98
  -4  -7  -3   20.97    0.81
  -4  -7  -3   20.31    1.03
  -4  -7  -3   21.18    1.37
  -4  -7  -3   21.81    1.07
  -4  -7  -3   20.88    1.16
  -4  -7  -3   20.21    1.06
   4   7   3   20.64    1.33
   4   7   3   19.17    1.13
   4   7   3   20.64    1.32
   4   7   3   19.85    1.28
  -1  -7  -2    1.79    0.34
  -1  -7  -2    1.36    0.23
  -1  -7  -2    2.20    0.70
  -1  -7  -2    1.77    0.41
  -1  -7  -2    1.63    0.25
  -1  -7  -2    1.33    0.34
  -1  -7  -2    0.95    0.26
   1   7   2    2.03    0.46
   1   7   2    2.27    0.67
   1   7   2    1.64    0.34
   1   7   2    2.06    0.60
   1   7   2    1.95    0.58
   2  -7  -1    0.20    0.12
   2  -7  -1    0.24    0.26
   2  -7  -1    0.04    0.25
   2  -7  -1    0.50    0.23
   2  -7  -1   -0.05    0.18
  -2   7   1    0.10    0.20
  -2   7   1    0.28    0.48
  -2   7   1    0.57    0.36
  -2   7   1    0.09    0.20
   5  -7   0    7.50    0.51
   5  -7   0    6.36    0.61
   5  -7   0    6.64    0.69
   5  -7   0    5.81    0.69
   5  -7   0    6.64    0.79
  -5   7   0    5.72    0.65
  -5   7   0    6.96    0.78
  -5   7   0    5.19    0.79
  -6  -8  -4    3.74    0.83
  -6  -8  -4    3.57    0.86
  -3  -8  -3    0.89    0.30
  -3  -8  -3    0.47    0.28
  -3  -8  -3    0.95    0.28
  -3  -8  -3    1.14    1.12
  -3  -8  -3    0.49    0.26
  -3  -8  -3    1.22    0.34
  -3  -8  -3    1.24    0.72
  -3  -8  -3    1.33    0.38
  -3  -8  -3    1.84    0.49
  -3  -8  -3    0.99    0.37
   3   8   3    0.93    0.51
   3   8   3    1.93    0.59
   3   8   3    1.34    0.47
   3   8   3    1.60    0.61
   0  -8  -2    4.28    0.59
   0  -8  -2    4.36    0.42
   0  -8  -2    3.66    0.31
   0  -8  -2    3.91    0.59
   0   8   2    3.11    0.49
   0   8   2    4.66    0.92
   0   8   2    4.12    0.69
   3  -8  -1   -0.09    0.20
   3  -8  -1    0.46    0.29
   3  -8  -1    0.38    0.22
   3  -8  -1   -0.24    0.32
  -3   8   1    0.24    0.28
  -3   8   1    0.27    0.27
  -3   8   1   -0.18    0.22
  -3   8   1    0.37    0.54
   6  -8   0    0.58    0.47
   6  -8   0    0.22    0.24
   6  -8   0    0.46    0.67
   6  -8   0    0.28    0.52
  -6   8   0    0.29    0.42
  -6   8   0    0.30    0.35
  -6   8   0   -0.23    0.28
  -5  -9  -4    0.59    0.33
  -5  -9  -4   -0.34    0.21
  -5  -9  -4    1.52    0.75
  -5  -9  -4    0.03    0.16
  -5  -9  -4    0.30    0.45
  -5  -9  -4   -0.02    0.29
  -5  -9  -4    0.38    0.35
   5   9   4    0.25    0.38
   5   9   4    0.14    0.44
   5   9   4    0.42    0.42
  -2  -9  -3   15.69    0.93
  -2  -9  -3   15.17    0.71
  -2  -9  -3   17.37    1.01
  -2  -9  -3   15.84    0.94
  -2  -9  -3   15.94    0.90
  -2  -9  -3   15.24    0.79
  -2  -9  -3   16.33    1.33
   2   9   3   16.13    1.10
   2   9   3   15.08    1.18
   2   9   3   15.08    0.86
   2   9   3   15.29    0.95
   2   9   3   14.57    1.09
   1  -9  -2    1.49    0.30
   1  -9  -2    3.38    0.54
   1  -9  -2    2.11    0.43
   1  -9  -2    2.34    0.32
  -1   9   2    2.77    0.57
  -1   9   2    2.50    0.31
  -1   9   2    3.74    1.00
   4  -9  -1    0.86    0.33
   4  -9  -1    0.39    0.26
   4  -9  -1    0.90    0.52
  -4   9   1    1.17    0.72
  -4   9   1    0.37    0.32
  -4   9   1    0.49    0.32
  -4   9   1    0.79    0.40
  -4 -10  -4    0.08    0.32
  -4 -10  -4    0.41    0.27
  -4 -10  -4   -0.44    0.73
  -4 -10  -4    1.01    0.43
  -4 -10  -4   -0.10    0.35
   4  10   4    0.45    0.57
   4  10   4   -0.21    0.32
   4  10   4    0.21    0.44
   4  10   4    0.26    0.31
  -1 -10  -3    6.13    0.49
  -1 -10  -3    6.71    0.74
  -1 -10  -3    6.29    0.60
  -1 -10  -3    5.72    0.67
  -1 -10  -3    6.27    0.69
   1  10   3    6.45    0.79
   1  10   3    5.31    0.61
   1  10   3    6.06    0.86
   1  10   3    6.58    0.82
   1  10   3    5.52    0.65
   2 -10  -2    2.73    0.34
   2 -10  -2    2.39    0.47
   2 -10  -2    2.82    0.58
   2 -10  -2    3.52    0.57
  -2  10   2    3.59    0.90
  -2  10   2    2.48    0.53
  -2  10   2    2.15    0.37
   5 -10  -1    0.82    0.30
   5 -10  -1    0.22    0.22
   5 -10  -1    1.18    0.43
  -5  10   1    1.47    0.85
  -5  10   1    0.26    0.34
  -3 -11  -4    2.19    0.37
  -3 -11  -4    3.06    0.58
  -3 -11  -4    1.60    0.44
  -3 -11  -4    1.03    0.33
  -3 -11  -4    1.72    0.42
  -3 -11  -4    2.03    0.51
  -3 -11  -4    1.16    0.39
   3  11   4    2.40    0.81
   3  11   4    2.30    0.68
   3  11   4    1.63    0.80
   3  11   4    3.32    1.03
   0 -11  -3    0.84    0.42
   0 -11  -3    1.48    0.26
   0 -11  -3    1.07    0.34
   0 -11  -3    1.43    0.45
   0 -11  -3    1.26    0.36
   0  11   3    2.05    0.59
   0  11   3    1.91    0.74
   0  11   3    2.10    0.78
   0  11   3    0.90    0.93
   3 -11  -2    0.91    0.42
   3 -11  -2    1.14    0.40
  -3  11   2    0.61    0.39
  -3  11   2    2.13    0.82
  -3  11   2    0.84    0.36
  -2 -12  -4   -0.13    0.29
  -2 -12  -4   -0.18    0.33
  -2 -12  -4    0.69    0.53
  -2 -12  -4   -0.47    0.32
  -2 -12  -4   -0.21    0.23
   2  12   4    0.39    0.50
   2  12   4    0.38    0.52
   2  12   4    0.44    0.64
   2  12   4    0.15    0.37
   1 -12  -3    0.90    0.32
   1 -12  -3    0.82    0.49
   1 -12  -3    0.02    0.30
   1 -12  -3    0.33    0.38
  -1  12   3    0.02    0.59
  -1  12   3   -0.23    0.67
  -1  12   3    0.59    0.59
  -1 -13  -4   -0.22    0.40
  -1 -13  -4   -0.66    0.22
  -1 -13  -4    0.16    0.33
   1  13   4    0.59    0.41
   1  13   4    1.05    0.68
   1  13   4   -0.15    0.41
   1  13   4    0.91    0.45
   2 -13  -3    0.11    0.44
   2 -13  -3    0.06    0.29
   2 -13  -3   -0.51    0.26
  -2  13   3    0.90    0.64
  -1  13   5    0.16    0.53
  -1  13   5   -0.52    0.34
  -1  13   5    1.55    0.81
   1 -13  -5    0.47    0.39
   1 -13  -5   -0.88    0.34
   1 -13  -5    0.16    0.20
   2  13   6    0.35    0.65
   2  13   6    0.08    0.56
   2  13   6    1.15    0.51
   2  13   6   -0.04    0.52
  -2 -13  -6    0.36    0.49
  -2 -13  -6    0.82    0.34
  -2 -13  -6    0.11    0.29
  -2 -13  -6   -0.74    0.31
  -2 -13  -6   -0.36    0.28
  -3  12   4    1.61    0.76
  -3  12   4    0.03    0.31
   3 -12  -4    0.65    0.42
   3 -12  -4    1.18    0.45
   3 -12  -4    0.49    0.38
   0  12   5    1.30    0.63
   0  12   5    0.91    0.52
   0  12   5    1.00    0.43
   0  12   5    1.02    0.75
   0 -12  -5    0.48    0.25
   0 -12  -5   -0.46    0.40
   0 -12  -5    0.80    0.43
   0 -12  -5    1.25    0.37
   3  12   6    2.56    0.90
   3  12   6    2.93    0.88
   3  12   6    3.25    0.60
   3  12   6    2.27    0.87
  -3 -12  -6    1.80    0.40
  -3 -12  -6    1.34    0.54
  -3 -12  -6    2.29    0.59
  -2  11   4    3.49    1.00
  -2  11   4    2.19    0.46
   2 -11  -4    2.40    0.53
   2 -11  -4    2.80    0.40
   2 -11  -4    2.51    0.52
   2 -11  -4    1.56    0.39
   1  11   5    2.12    0.62
   1  11   5    2.82    0.62
   1  11   5    2.26    0.98
   1  11   5    2.55    1.19
  -1 -11  -5    1.29    0.30
  -1 -11  -5    1.64    0.41
  -1 -11  -5    2.49    0.49
  -1 -11  -5    1.59    0.60
  -1 -11  -5    0.89    0.36
  -1 -11  -5    1.36    0.35
   4  11   6    0.79    0.51
   4  11   6    0.20    0.44
   4  11   6    0.78    0.40
  -4 -11  -6    0.97    0.49
  -4 -11  -6    0.47    0.36
  -4 -11  -6   -0.06    0.24
  -4 -11  -6   -0.01    0.27
  -4 -11  -6   -0.13    0.21
  -4  10   3   -0.13    0.25
  -4  10   3   -0.31    0.43
  -4  10   3    0.42    0.34
  -4  10   3    0.27    0.75
   4 -10  -3    0.34    0.28
   4 -10  -3    0.84    0.27
   4 -10  -3    0.00    0.48
  -1  10   4   -0.02    0.24
  -1  10   4    0.59    0.60
   1 -10  -4    0.66    0.33
   1 -10  -4    0.01    0.22
   1 -10  -4    0.87    0.33
   1 -10  -4    0.63    0.24
   1 -10  -4    1.23    0.38
   2  10   5   11.34    1.10
   2  10   5   10.95    0.83
   2  10   5   11.93    0.88
   2  10   5   10.51    1.00
  -2 -10  -5   10.18    0.76
  -2 -10  -5   11.91    0.87
  -2 -10  -5   10.98    0.72
  -2 -10  -5   11.31    0.82
  -2 -10  -5   11.45    0.71
  -2 -10  -5   11.38    0.81
   5  10   6    0.61    0.53
   5  10   6   -0.01    0.47
  -5 -10  -6   -0.42    0.31
  -5 -10  -6   -0.05    0.22
  -5 -10  -6    2.30    1.88
  -5 -10  -6    0.16    0.18
  -6   9   2   -0.67    0.38
  -6   9   2   -0.36    0.33
  -6   9   2   -0.28    0.35
   6  -9  -2    0.10    0.25
   6  -9  -2    0.57    0.52
   6  -9  -2   -0.43    0.26
   6  -9  -2   -0.20    0.44
   6  -9  -2    0.91    0.57
  -3   9   3    1.81    0.76
  -3   9   3    1.60    0.35
  -3   9   3    1.78    0.33
  -3   9   3    1.31    0.38
   3  -9  -3    1.92    0.35
   3  -9  -3    0.98    0.37
   3  -9  -3    1.12    0.32
   3  -9  -3    2.45    0.55
   0   9   4    4.22    0.79
   0   9   4    4.00    0.60
   0   9   4    4.19    0.98
   0   9   4    2.78    0.45
   0  -9  -4    3.49    0.54
   0  -9  -4    1.75    0.36
   0  -9  -4    2.76    0.38
   3   9   5    2.16    0.60
   3   9   5    3.23    0.88
   3   9   5    2.36    0.70
   3   9   5    2.24    0.58
  -3  -9  -5    1.87    0.37
  -3  -9  -5    3.05    0.80
  -3  -9  -5    2.12    0.43
  -3  -9  -5    2.82    0.55
  -3  -9  -5    1.82    0.41
  -3  -9  -5    2.03    0.90
  -6  -9  -6    7.23    1.02
  -5   8   2   -0.04    0.26
  -5   8   2   -0.40    0.23
  -5   8   2   -0.42    0.29
   5  -8  -2    0.63    0.52
   5  -8  -2   -0.13    0.20
   5  -8  -2    0.20    0.25
   5  -8  -2    0.29    0.20
   5  -8  -2    0.13    0.42
  -2   8   3    0.18    0.26
  -2   8   3    0.61    0.29
  -2   8   3    0.44    0.21
  -2   8   3    0.49    0.58
   2  -8  -3    0.06    0.25
   2  -8  -3    0.21    0.21
   2  -8  -3    0.04    0.25
   2  -8  -3    0.57    0.34
   1   8   4    7.92    0.78
   1   8   4    7.51    0.65
   1   8   4    7.76    0.59
   1   8   4    7.40    0.61
   1   8   4    7.82    0.84
  -1  -8  -4    7.15    0.50
  -1  -8  -4    8.04    0.63
  -1  -8  -4    7.98    0.65
  -1  -8  -4    7.94    0.64
  -1  -8  -4    8.49    0.58
   4   8   5    1.97    0.61
   4   8   5    1.96    0.55
   4   8   5    1.97    0.66
  -4  -8  -5    1.05    0.35
  -4  -8  -5    2.26    0.46
  -4  -8  -5    0.87    0.33
  -4  -8  -5    1.87    0.49
  -4  -8  -5    2.70    1.09
  -4  -8  -5    1.89    0.45
  -4  -8  -5    0.88    0.48
  -4  -8  -5    2.51    0.67
  -4  -8  -5    2.11    0.84
  -4   7   2    8.11    0.73
  -4   7   2    9.39    0.87
  -4   7   2    7.96    0.65
   4  -7  -2    8.47    0.78
   4  -7  -2    7.97    0.52
   4  -7  -2    8.55    0.66
   4  -7  -2    9.04    0.59
   4  -7  -2    9.90    0.82
  -1   7   3    5.16    0.81
  -1   7   3    5.59    0.73
  -1   7   3    5.45    0.59
  -1   7   3    6.24    0.38
   1  -7  -3    5.65    0.35
   1  -7  -3    6.57    0.49
   1  -7  -3    6.14    0.48
   1  -7  -3    5.73    0.53
   1  -7  -3    5.90    0.58
   2   7   4   15.27    0.76
   2   7   4   15.10    1.03
   2   7   4   15.12    1.00
   2   7   4   15.04    0.84
   2   7   4   15.18    0.84
   2   7   4   17.17    0.85
  -2  -7  -4   15.24    0.72
  -2  -7  -4   15.11    0.83
  -2  -7  -4   15.62    0.81
  -2  -7  -4   14.49    0.77
  -2  -7  -4   15.92    0.80
  -2  -7  -4   15.80    0.81
  -2  -7  -4   15.83    1.10
  -2  -7  -4   15.59    0.72
   5   7   5    0.05    0.29
   5   7   5    0.60    0.41
  -5  -7  -5    2.97    1.10
  -5  -7  -5    0.37    0.24
  -5  -7  -5   -0.08    0.21
  -5  -7  -5    0.98    0.48
  -5  -7  -5    0.88    0.34
  -5  -7  -5    0.24    0.23
  -5  -7  -5    0.66    0.56
  -5  -7  -5    0.12    0.29
  -5  -7  -5    0.21    0.16
  -5  -7  -5    1.21    0.69
  -5  -7  -5   -0.85    0.91
  -5  -7  -5    0.62    0.32
  -6   6   1    0.10    0.30
  -6   6   1    0.61    0.31
  -6   6   1    0.46    0.37
   6  -6  -1    0.14    0.24
   6  -6  -1    0.86    0.21
   6  -6  -1    0.64    0.29
   6  -6  -1    0.43    0.40
   6  -6  -1    1.11    0.64
  -3   6   2    0.65    0.26
  -3   6   2    1.06    0.27
  -3   6   2    0.82    0.27
   3  -6  -2    1.26    0.48
   3  -6  -2    0.66    0.28
   3  -6  -2    0.78    0.22
   3  -6  -2    1.08    0.21
   0   6   3   26.92    1.24
   0   6   3   28.59    0.96
   0  -6  -3   30.27    0.99
   0  -6  -3   29.33    0.97
   0  -6  -3   29.55    0.84
   0  -6  -3   31.26    0.99
   3   6   4    0.11    0.29
   3   6   4    0.28    0.29
   3   6   4    0.15    0.19
   3   6   4    0.00    0.26
   3   6   4    0.42    0.37
  -3  -6  -4    0.17    0.40
  -3  -6  -4    0.05    0.18
  -3  -6  -4    0.30    0.28
  -3  -6  -4    0.09    0.14
  -3  -6  -4    0.20    0.19
  -3  -6  -4   -0.07    0.20
  -3  -6  -4    0.05    0.19
  -3  -6  -4    0.19    0.54
  -3  -6  -4   -0.24    0.33
  -3  -6  -4    0.06    0.18
  -6  -6  -5    0.62    0.48
  -6  -6  -5    0.41    0.28
  -6  -6  -5    1.95    0.81
  -6  -6  -5    0.11    0.60
  -6  -6  -5    1.19    0.40
  -6  -6  -5    1.01    0.44
  -6  -6  -5   -0.25    0.34
  -6  -6  -5    0.25    0.27
  -5   5   1    1.56    0.64
  -5   5   1    0.46    0.27
  -5   5   1    0.74    0.26
  -5   5   1    0.93    0.33
   5  -5  -1    1.06    0.22
   5  -5  -1    0.62    0.33
   5  -5  -1    0.36    0.46
   5  -5  -1    0.92    0.28
   5  -5  -1    0.66    0.25
   5  -5  -1    0.87    0.25
  -2   5   2   58.68    1.39
  -2   5   2   60.13    1.43
  -2   5   2   59.04    1.56
   2  -5  -2   58.16    1.53
   2  -5  -2   54.44    1.51
   2  -5  -2   56.60    1.38
   2  -5  -2   57.64    1.19
   1   5   3    9.14    0.50
   1   5   3    8.78    0.54
   1   5   3    9.14    0.70
   1   5   3    9.23    0.51
   1   5   3    8.78    0.52
   1   5   3    9.43    0.68
   1   5   3    9.40    0.52
  -1  -5  -3    9.19    0.49
  -1  -5  -3    8.52    0.48
  -1  -5  -3    9.47    0.53
  -1  -5  -3    9.12    0.71
  -1  -5  -3    8.50    0.53
   4   5   4    3.33    0.50
   4   5   4    3.44    0.53
   4   5   4    3.84    0.56
   4   5   4    3.74    0.57
  -4  -5  -4    3.06    0.44
  -4  -5  -4    3.96    0.37
  -4  -5  -4    5.23    0.90
  -4  -5  -4    4.60    0.85
  -4  -5  -4    3.75    0.51
  -4  -5  -4    3.13    0.49
  -4  -5  -4    4.75    0.73
  -4  -5  -4    3.19    0.43
  -4  -5  -4    5.57    0.89
  -4  -5  -4    3.22    0.50
  -4  -5  -4    5.07    0.89
  -4  -5  -4    3.70    0.44
  -4  -5  -4    3.67    0.48
  -7  -5  -5    4.36    0.69
  -7   4   0    0.69    0.50
  -7   4   0   -0.44    0.28
  -7   4   0   -0.48    0.25
  -7   4   0   -0.53    0.24
   7  -4   0   -0.29    0.18
   7  -4   0   -0.30    0.19
   7  -4   0    0.20    0.31
   7  -4   0   -0.02    0.47
   7  -4   0    0.23    0.29
  -4   4   1    1.17    0.27
  -4   4   1    1.07    0.28
  -4   4   1    1.36    0.28
  -4   4   1    2.20    0.67
   4  -4  -1    1.06    0.26
   4  -4  -1    0.93    0.26
   4  -4  -1    1.19    0.21
   4  -4  -1    1.67    0.56
   4  -4  -1    1.11    0.25
  -1   4   2  118.58    2.01
  -1   4   2  113.58    2.09
  -1   4   2  115.59    2.19
   1  -4  -2  110.89    2.17
   1  -4  -2  114.90    2.00
   1  -4  -2  110.16    1.93
   1  -4  -2  112.84    2.13
   1  -4  -2  113.65    2.10
   2   4   3    2.51    0.49
   2   4   3    1.77    0.30
   2   4   3    3.14    0.55
   2   4   3    2.14    0.38
   2   4   3    2.11    0.32
   2   4   3    2.66    0.42
  -2  -4  -3    2.28    0.37
  -2  -4  -3    2.37    0.38
  -2  -4  -3    1.99    0.28
  -2  -4  -3    2.68    0.41
  -2  -4  -3    2.43    0.57
  -2  -4  -3    2.01    0.32
  -2  -4  -3    2.00    0.30
  -2  -4  -3    2.25    0.26
  -2  -4  -3    1.97    0.29
  -2  -4  -3    2.22    0.31
  -2  -4  -3    2.78    0.50
  -2  -4  -3    2.15    0.38
   5   4   4    7.85    0.65
   5   4   4    7.97    0.70
   5   4   4    7.90    0.67
   5   4   4    7.06    0.65
  -5  -4  -4    8.73    0.71
  -5  -4  -4    7.20    0.66
  -5  -4  -4    8.23    0.69
  -5  -4  -4    7.14    0.85
  -5  -4  -4    8.60    0.69
  -5  -4  -4    8.06    0.48
  -5  -4  -4    7.99    1.05
  -5  -4  -4    6.89    0.69
  -5  -4  -4    8.45    0.87
  -5  -4  -4    7.37    0.73
  -5  -4  -4    7.46    0.54
  -5  -4  -4    7.82    0.65
  -5  -4  -4    8.24    1.02
  -6   3   0    1.08    0.35
  -6   3   0    0.83    0.30
  -6   3   0    1.25    0.31
  -6   3   0    2.71    0.68
   6  -3   0    1.84    0.40
   6  -3   0    2.15    0.74
   6  -3   0    1.46    0.36
   6  -3   0    1.13    0.29
   6  -3   0    2.17    0.47
  -3   3   1    0.93    0.24
  -3   3   1    1.51    0.49
  -3   3   1    1.59    0.24
  -3   3   1    1.10    0.28
   3  -3  -1    1.20    0.22
   3  -3  -1    1.22    0.24
   3  -3  -1    1.44    0.24
   3  -3  -1    1.08    0.17
   3  -3  -1    1.53    0.57
   0   3   2   21.67    0.62
   0   3   2   21.33    0.54
   0   3   2   20.78    0.61
   0   3   2   21.17    0.80
   0   3   2   21.72    0.61
   0  -3  -2   22.25    0.62
   0  -3  -2   21.50    0.54
   0  -3  -2   21.63    0.62
   0  -3  -2   21.81    0.63
   3   3   3   20.89    0.82
   3   3   3   20.82    0.83
   3   3   3   20.70    0.80
   3   3   3   21.56    0.94
   3   3   3   21.40    1.02
   3   3   3   20.59    0.81
  -3  -3  -3   19.94    0.82
  -3  -3  -3   21.38    0.66
  -3  -3  -3   19.99    0.88
  -3  -3  -3   21.51    0.97
  -3  -3  -3   21.16    0.94
  -3  -3  -3   20.88    0.98
  -3  -3  -3   21.09    0.81
  -3  -3  -3   21.21    0.82
  -3  -3  -3   21.41    0.79
  -3  -3  -3   20.60    0.80
  -3  -3  -3   21.28    0.83
  -3  -3  -3   19.58    1.01
   6   3   4    0.57    0.24
   6   3   4    0.53    0.30
   6   3   4    0.82    0.38
   6   3   4    0.65    0.31
  -6  -3  -4    0.73    0.17
  -6  -3  -4    0.55    0.33
  -6  -3  -4    0.61    0.58
  -6  -3  -4    0.94    0.32
  -6  -3  -4    2.15    1.18
  -6  -3  -4    0.02    0.22
  -6  -3  -4    1.59    0.67
  -6  -3  -4    0.55    0.21
  -6  -3  -4    1.63    0.61
  -6  -3  -4    0.18    0.29
  -5   2   0   18.41    1.17
  -5   2   0   19.13    1.00
  -5   2   0   19.56    1.06
  -5   2   0   17.46    0.68
   5  -2   0   18.71    0.95
   5  -2   0   18.82    0.86
   5  -2   0   18.68    1.17
   5  -2   0   17.67    0.93
   5  -2   0   18.57    0.94
  -2   2   1  176.19    3.04
  -2   2   1  178.19    3.05
  -2   2   1  172.41    3.19
  -2   2   1  171.58    2.75
   2  -2  -1  175.83    3.23
   2  -2  -1  173.21    3.01
   2  -2  -1  173.16    2.73
   2  -2  -1  173.40    2.75
   1   2   2  421.78    6.53
   1   2   2  426.27    6.38
   1   2   2  420.27    6.52
   1   2   2  433.28    6.42
   1   2   2  429.92    6.33
   1   2   2  434.42    6.42
  -1  -2  -2  440.99    6.24
  -1  -2  -2  427.42    6.41
  -1  -2  -2  420.28    6.41
  -1  -2  -2  434.55    6.40
  -1  -2  -2  422.07    6.42
  -1  -2  -2  429.82    6.54
  -1  -2  -2  430.45    6.37
  -1  -2  -2  426.11    6.40
   4   2   3    1.67    0.26
   4   2   3    2.43    0.31
   4   2   3    2.32    0.34
   4   2   3    3.78    0.55
   4   2   3    3.53    0.52
  -4  -2  -3    3.10    0.37
  -4  -2  -3    2.58    0.42
  -4  -2  -3    3.84    0.66
  -4  -2  -3    2.24    0.32
  -4  -2  -3    3.21    0.67
  -4  -2  -3    2.26    0.42
  -4  -2  -3    3.34    0.58
  -4  -2  -3    3.10    0.48
  -4  -2  -3    2.72    0.35
  -4  -2  -3    2.51    0.23
   7   2   4    6.71    0.68
   7   2   4    5.85    0.69
   7   2   4    5.27    0.67
  -7  -2  -4    4.23    0.61
  -7  -2  -4    5.68    0.84
  -7  -2  -4    6.51    0.88
  -7  -2  -4    7.22    0.86
  -7  -2  -4    6.26    0.63
  -7  -2  -4    6.52    0.89
  -7  -2  -4    4.62    0.61
  -7   1  -1    0.32    0.33
  -7   1  -1    0.95    0.57
  -7   1  -1    0.25    0.26
  -7   1  -1   -0.02    0.35
  -7   1  -1   -0.26    0.23
   7  -1   1   -0.18    0.21
   7  -1   1   -0.09    0.35
   7  -1   1   -0.16    0.26
   7  -1   1    0.05    0.19
  -4   1   0    0.13    0.14
  -4   1   0    0.35    0.17
  -4   1   0    0.38    0.44
  -4   1   0    0.06    0.20
  -4   1   0    0.19    0.16
   4  -1   0    0.31    0.19
   4  -1   0    0.19    0.14
   4  -1   0    0.01    0.12
   4  -1   0    0.07    0.20
   4  -1   0    0.26    0.37
   4  -1   0    0.06    0.16
   4  -1   0    0.22    0.08
  -1   1   1   18.71    0.58
  -1   1   1   18.19    0.52
  -1   1   1   18.76    0.44
  -1   1   1   18.30    0.38
   1  -1  -1   18.61    0.59
   1  -1  -1   18.66    0.45
   1  -1  -1   18.77    0.39
   1  -1  -1   18.26    0.51
   2   1   2   28.32    0.82
   2   1   2   29.41    0.87
   2   1   2   28.15    0.80
   2   1   2   27.99    0.65
   2   1   2   28.00    0.80
   2   1   2   28.06    0.74
   2   1   2   29.05    0.78
  -2  -1  -2   28.39    0.95
  -2  -1  -2   29.27    0.82
  -2  -1  -2   28.37    0.79
  -2  -1  -2   27.67    0.78
  -2  -1  -2   28.75    0.75
  -2  -1  -2   27.65    0.85
  -2  -1  -2   28.51    0.66
  -2  -1  -2   27.65    0.77
  -2  -1  -2   27.67    0.81
   5   1   3   -0.07    0.13
   5   1   3    0.29    0.27
   5   1   3    0.00    0.17
   5   1   3    0.06    0.19
  -5  -1  -3    0.01    0.39
  -5  -1  -3    0.01    0.13
  -5  -1  -3   -0.23    0.23
  -5  -1  -3   -0.08    0.31
  -5  -1  -3    0.02    0.21
  -5  -1  -3   -0.49    0.27
  -5  -1  -3   -0.16    0.34
  -5  -1  -3    0.00    0.20
  -6   0  -1    0.26    0.23
  -6   0  -1    0.02    0.25
  -6   0  -1   -0.12    0.19
  -6   0  -1    0.57    0.41
  -6   0  -1    0.85    0.44
  -6   0  -1    0.61    0.75
   6   0   1    0.22    0.22
   6   0   1    0.15    0.18
   6   0   1    0.01    0.17
   6   0   1    0.06    0.25
   6   0   1   -0.25    0.38
  -3   0   0   22.58    0.78
  -3   0   0   21.67    0.56
  -3   0   0   21.72    0.98
  -3   0   0   21.65    0.76
  -3   0   0   21.80    0.53
  -3   0   0   21.38    0.75
  -3   0   0   21.23    1.07
  -3   0   0   20.23    0.83
  -3   0   0   21.55    0.68
  -3   0   0   22.48    0.86
  -3   0   0   20.73    0.57
   3   0   0   21.81    0.75
   3   0   0   21.48    0.69
   3   0   0   21.06    0.95
   3   0   0   21.10    0.53
   3   0   0   21.49    0.76
   3   0   0   21.24    0.75
   3   0   0   21.12    0.75
   3   0   2   16.26    0.61
   3   0   2   16.47    0.62
   3   0   2   16.47    0.71
   3   0   2   16.90    0.73
   3   0   2   16.31    0.55
   3   0   2   16.24    0.86
   3   0   2   16.28    0.64
   3   0   2   15.07    0.70
  -3   0  -2   15.35    0.71
  -3   0  -2   15.92    0.62
  -3   0  -2   16.45    0.64
  -3   0  -2   16.85    0.75
  -3   0  -2   16.52    0.85
  -3   0  -2   14.44    0.68
   6   0   3    1.95    0.35
   6   0   3    3.04    0.53
   6   0   3    2.31    0.34
   6   0   3    3.40    0.47
   6   0   3    4.62    0.59
  -6   0  -3    3.67    0.55
  -6   0  -3    4.58    0.91
  -6   0  -3    3.00    0.52
  -6   0  -3    2.37    0.36
  -6   0  -3    3.37    0.54
  -5  -1  -1    0.34    0.13
  -5  -1  -1    0.49    0.28
  -5  -1  -1    0.09    0.37
  -5  -1  -1   -0.02    0.19
  -5  -1  -1   -0.17    0.45
  -5  -1  -1    0.61    0.28
  -5  -1  -1    0.60    0.68
  -5  -1  -1    0.26    0.24
  -5  -1  -1    0.22    0.16
  -5  -1  -1   -0.01    0.50
  -5  -1  -1    0.05    0.22
  -5  -1  -1   -0.07    0.42
   5   1   1    0.36    0.25
   5   1   1   -0.08    0.21
   5   1   1   -0.02    0.22
   5   1   1    0.10    0.18
   5   1   1    0.48    0.41
   5   1   1    0.24    0.19
  -2  -1   0   12.03    0.59
  -2  -1   0   12.28    0.49
  -2  -1   0   12.14    0.40
  -2  -1   0   12.68    0.46
  -2  -1   0   11.79    0.47
  -2  -1   0   11.97    0.49
  -2  -1   0   12.44    0.61
  -2  -1   0   11.56    0.54
  -2  -1   0   11.98    0.69
  -2  -1   0   12.11    0.43
  -2  -1   0   11.80    0.47
   2   1   0   12.79    0.48
   2   1   0   12.26    0.49
   2   1   0   12.21    0.62
   2   1   0   12.75    0.49
   2   1   0   12.74    0.71
   2   1   0   12.00    0.50
   2   1   0   12.02    0.39
   2   1   0   12.52    0.57
   2   1   0   11.92    0.45
   1  -1   1  278.50    3.96
   1  -1   1  273.27    4.12
   1  -1   1  276.79    4.13
   1  -1   1  255.45    4.16
  -1   1  -1  280.33    4.13
  -1   1  -1  270.71    4.12
  -1   1  -1  270.19    4.18
  -1   1  -1  279.83    4.08
  -1   1  -1  272.47    4.23
   4  -1   2   10.33    0.45
   4  -1   2   10.34    0.54
   4  -1   2   10.60    0.60
   4  -1   2    9.95    0.58
   4  -1   2   10.09    0.66
   4  -1   2   10.51    0.64
   4  -1   2    7.65    0.90
   4  -1   2   10.07    0.80
  -4   1  -2    9.91    0.72
  -4   1  -2   10.91    0.64
  -4   1  -2   10.65    0.59
  -4   1  -2    9.02    0.94
  -4   1  -2   10.16    0.54
   7  -1   3    1.28    0.36
   7  -1   3    0.91    0.27
   7  -1   3    0.81    0.32
   7  -1   3    1.04    0.37
  -7   1  -3    2.83    0.78
  -7   1  -3    1.95    0.83
  -7   1  -3    0.44    0.26
  -7   1  -3    0.62    0.41
  -7   1  -3    1.27    0.40
  -7  -2  -2    3.16    0.87
  -7  -2  -2    1.98    0.65
  -4  -2  -1    8.07    0.54
  -4  -2  -1    8.97    0.79
  -4  -2  -1    7.69    0.59
  -4  -2  -1    8.75    0.51
  -4  -2  -1    8.54    0.56
  -4  -2  -1    8.46    0.73
  -4  -2  -1    8.67    0.56
  -4  -2  -1    9.00    0.43
  -4  -2  -1    8.89    0.97
  -4  -2  -1    9.25    0.89
  -4  -2  -1    7.96    0.68
  -4  -2  -1    8.10    0.86
  -4  -2  -1    8.88    0.64
   4   2   1    8.32    0.56
   4   2   1    9.12    0.59
   4   2   1    8.61    0.73
   4   2   1    8.90    0.57
   4   2   1    9.03    0.61
  -1  -2   0   20.04    0.68
  -1  -2   0   19.95    0.64
  -1  -2   0   19.65    0.52
  -1  -2   0   19.98    0.58
  -1  -2   0   19.57    0.56
  -1  -2   0   19.21    0.57
  -1  -2   0   19.83    0.76
  -1  -2   0   20.30    0.54
  -1  -2   0   19.82    0.72
   1   2   0   20.42    0.69
   1   2   0   19.00    0.56
   1   2   0   20.08    0.52
   1   2   0   20.58    0.54
   1   2   0   19.01    0.63
   1   2   0   20.88    0.77
   1   2   0   20.19    0.73
   2  -2   1    1.03    0.18
   2  -2   1    1.42    0.21
   2  -2   1    0.84    0.17
   2  -2   1    1.02    0.15
   2  -2   1    1.86    0.36
  -2   2  -1    2.01    0.39
  -2   2  -1    0.92    0.18
  -2   2  -1    1.41    0.22
  -2   2  -1    1.05    0.21
   5  -2   2    0.80    0.23
   5  -2   2    1.06    0.33
   5  -2   2    0.46    0.25
   5  -2   2    0.92    0.21
   5  -2   2    0.95    0.57
   5  -2   2    0.60    0.23
   5  -2   2    0.81    0.26
  -5   2  -2    0.58    0.25
  -5   2  -2    0.63    0.28
  -5   2  -2    0.60    0.25
  -5   2  -2    0.99    0.31
  -5   2  -2    0.63    0.45
  -6  -3  -2    0.13    0.27
  -6  -3  -2    0.13    0.18
  -6  -3  -2   -0.35    0.34
  -6  -3  -2    0.14    0.15
  -6  -3  -2    0.37    0.26
  -6  -3  -2    0.08    0.21
  -6  -3  -2   -0.01    0.18
  -6  -3  -2   -0.02    0.23
  -6  -3  -2   -0.14    0.53
  -6  -3  -2    0.45    0.53
  -6  -3  -2    1.35    0.99
   6   3   2   -0.01    0.19
   6   3   2   -0.25    0.20
   6   3   2    0.22    0.32
  -3  -3  -1   45.77    1.19
  -3  -3  -1   45.67    1.39
  -3  -3  -1   45.74    1.25
  -3  -3  -1   45.42    1.26
  -3  -3  -1   44.54    1.43
  -3  -3  -1   46.24    1.08
  -3  -3  -1   45.78    1.22
  -3  -3  -1   44.44    1.10
  -3  -3  -1   45.99    1.53
  -3  -3  -1   46.74    1.22
  -3  -3  -1   43.12    1.46
  -3  -3  -1   43.67    1.60
  -3  -3  -1   45.63    1.25
  -3  -3  -1   44.32    1.20
   3   3   1   45.20    1.41
   3   3   1   43.82    1.17
   3   3   1   44.18    1.42
   3   3   1   45.48    1.24
   3   3   1   45.87    1.49
   3   3   1   45.15    1.25
   0  -3   0  144.18    2.42
   0  -3   0  138.93    2.67
   0  -3   0  135.66    2.15
   0  -3   0  141.55    2.22
   0   3   0  139.92    2.39
   0   3   0  144.87    2.71
   0   3   0  144.27    2.24
   3  -3   1   13.80    0.71
   3  -3   1   14.43    0.80
   3  -3   1   15.22    0.72
   3  -3   1   14.27    0.53
   3  -3   1   13.97    0.73
   3  -3   1   15.06    0.63
  -3   3  -1   14.79    0.75
  -3   3  -1   13.24    0.63
  -3   3  -1   14.69    0.75
  -3   3  -1   14.93    0.80
   6  -3   2    0.11    0.21
   6  -3   2    0.10    0.18
   6  -3   2    0.43    0.55
   6  -3   2    0.03    0.20
   6  -3   2    0.22    0.26
  -6   3  -2   -0.24    0.27
  -6   3  -2   -0.43    0.23
  -6   3  -2    0.99    0.42
  -6   3  -2    0.05    0.22
  -5  -4  -2   36.37    1.34
  -5  -4  -2   33.12    1.30
  -5  -4  -2   38.03    1.12
  -5  -4  -2   35.72    1.09
  -5  -4  -2   34.44    1.30
  -5  -4  -2   34.84    1.24
  -5  -4  -2   33.21    1.24
  -5  -4  -2   35.96    1.66
  -5  -4  -2   36.65    2.01
  -5  -4  -2   34.71    1.63
  -5  -4  -2   33.67    1.46
  -5  -4  -2   33.97    1.33
  -5  -4  -2   35.53    1.34
  -5  -4  -2   33.90    1.59
   5   4   2   33.68    1.31
   5   4   2   35.23    1.35
   5   4   2   33.66    1.27
  -2  -4  -1    1.95    0.26
  -2  -4  -1    2.04    0.28
  -2  -4  -1    3.87    0.71
  -2  -4  -1    1.83    0.25
  -2  -4  -1    3.40    0.73
  -2  -4  -1    2.37    0.40
  -2  -4  -1    2.12    0.35
  -2  -4  -1    3.28    0.55
  -2  -4  -1    2.28    0.32
  -2  -4  -1    2.08    0.32
  -2  -4  -1    2.26    0.28
  -2  -4  -1    2.28    0.29
   2   4   1    2.46    0.30
   2   4   1    3.31    0.66
   2   4   1    1.99    0.28
   2   4   1    2.46    0.54
   2   4   1    3.29    0.62
   2   4   1    2.84    0.45
   1  -4   0    6.17    0.33
   1  -4   0    6.77    0.44
   1  -4   0    6.41    0.38
   1  -4   0    6.85    0.48
  -1   4   0    5.84    0.41
  -1   4   0    6.88    0.41
  -1   4   0    6.21    0.48
  -1   4   0    6.58    0.57
  -1   4   0    6.66    0.33
   4  -4   1    0.86    0.27
   4  -4   1    0.65    0.22
   4  -4   1    1.34    0.48
   4  -4   1    1.10    0.17
   4  -4   1    1.44    0.40
   4  -4   1    0.80    0.15
   4  -4   1    1.11    0.28
   4  -4   1    1.01    0.19
  -4   4  -1    2.04    0.80
  -4   4  -1    0.89    0.29
  -4   4  -1    0.24    0.22
  -4   4  -1    0.94    0.29
   7  -4   2   -0.43    0.29
   7  -4   2   -0.24    0.20
   7  -4   2    0.30    0.22
   7  -4   2    0.29    0.25
  -7   4  -2   -0.46    0.26
  -7   4  -2    0.54    0.31
  -7   4  -2   -0.20    0.35
  -7  -5  -3    0.31    0.32
  -7  -5  -3    0.73    0.35
  -4  -5  -2    7.88    0.77
  -4  -5  -2    6.96    0.83
  -4  -5  -2    7.31    0.63
  -4  -5  -2    7.38    0.60
  -4  -5  -2    7.41    0.62
  -4  -5  -2    7.23    0.69
  -4  -5  -2    7.34    0.56
  -4  -5  -2    8.15    1.06
  -4  -5  -2    7.80    0.81
  -4  -5  -2    8.24    0.63
  -4  -5  -2    8.33    0.59
  -4  -5  -2    8.38    0.55
  -4  -5  -2    7.52    0.58
  -4  -5  -2    7.76    0.56
   4   5   2    7.74    0.70
   4   5   2    8.39    0.62
   4   5   2    7.71    0.76
  -1  -5  -1   45.51    1.18
  -1  -5  -1   48.29    1.59
  -1  -5  -1   46.47    1.22
  -1  -5  -1   46.51    1.27
  -1  -5  -1   45.95    1.06
  -1  -5  -1   47.26    1.02
   1   5   1   47.06    1.51
   1   5   1   48.46    1.46
   1   5   1   47.55    1.32
   1   5   1   46.88    1.21
   2  -5   0    8.05    0.55
   2  -5   0    8.45    0.61
   2  -5   0    8.06    0.50
   2  -5   0    8.61    0.55
  -2   5   0    8.08    0.53
  -2   5   0    9.30    0.66
  -2   5   0    8.31    0.55
  -2   5   0    8.12    0.51
  -2   5   0    8.08    0.69
   5  -5   1    0.03    0.18
   5  -5   1    0.25    0.19
   5  -5   1   -0.13    0.29
   5  -5   1    0.12    0.16
   5  -5   1    0.33    0.42
  -5   5  -1    0.44    0.28
  -5   5  -1   -0.16    0.20
  -5   5  -1    0.47    0.48
  -5   5  -1   -0.18    0.29
  -6  -6  -3   -0.29    0.33
  -6  -6  -3    0.23    0.28
  -6  -6  -3    0.08    0.43
  -6  -6  -3    1.17    0.84
  -6  -6  -3    0.57    0.29
  -6  -6  -3   -0.09    0.29
  -6  -6  -3    0.09    0.25
  -6  -6  -3    0.62    0.67
  -6  -6  -3    0.25    0.25
  -6  -6  -3   -0.13    0.25
  -6  -6  -3    1.36    0.96
  -6  -6  -3    0.14    0.21
  -3  -6  -2   -0.18    0.39
  -3  -6  -2    0.22    0.12
  -3  -6  -2    0.32    0.34
  -3  -6  -2    0.29    0.30
  -3  -6  -2    0.21    0.21
  -3  -6  -2    0.31    0.19
  -3  -6  -2    0.08    0.18
  -3  -6  -2    0.15    0.20
  -3  -6  -2    0.48    0.38
  -3  -6  -2    0.23    0.38
  -3  -6  -2   -0.01    0.17
  -3  -6  -2    0.00    0.18
  -3  -6  -2    0.35    0.55
   3   6   2    0.41    0.35
   3   6   2    0.49    0.35
   3   6   2    0.57    0.43
   3   6   2   -0.08    0.33
   0  -6  -1    5.76    0.29
   0  -6  -1    5.59    0.49
   0  -6  -1    4.96    0.64
   0  -6  -1    5.33    0.40
   0  -6  -1    5.77    0.47
   0  -6  -1    5.88    0.54
   0   6   1    4.99    0.62
   0   6   1    5.38    0.46
   3  -6   0    5.80    0.56
   3  -6   0    5.43    0.54
   3  -6   0    5.82    0.58
   3  -6   0    5.34    0.59
  -3   6   0    6.11    0.59
  -3   6   0    6.84    0.70
  -3   6   0    5.86    0.55
  -3   6   0    6.19    0.57
   6  -6   1   -0.12    0.50
   6  -6   1    0.03    0.33
   6  -6   1    0.07    0.15
   6  -6   1   -0.12    0.26
  -6   6  -1    0.08    0.26
  -6   6  -1    1.57    0.51
  -6   6  -1   -0.40    0.30
  -6   6  -1   -0.07    0.26
  -5  -7  -3    0.33    0.55
  -5  -7  -3    0.63    0.29
  -5  -7  -3    0.21    0.21
  -5  -7  -3    1.07    0.53
  -5  -7  -3    0.23    0.32
  -5  -7  -3    0.79    0.41
  -5  -7  -3    0.37    0.20
  -5  -7  -3    3.17    1.11
  -5  -7  -3    0.17    0.20
  -5  -7  -3    1.79    0.76
  -5  -7  -3   -0.09    0.20
  -5  -7  -3    0.50    0.30
   5   7   3    0.36    0.41
  -2  -7  -2    4.93    0.43
  -2  -7  -2    5.44    0.55
  -2  -7  -2    5.42    0.53
  -2  -7  -2    5.10    0.54
  -2  -7  -2    5.33    0.78
  -2  -7  -2    4.95    0.45
   2   7   2    5.35    0.67
   2   7   2    5.25    0.49
   2   7   2    4.28    0.61
   2   7   2    4.02    0.64
   2   7   2    5.30    0.57
   1  -7  -1    0.06    0.13
   1  -7  -1    0.03    0.12
   1  -7  -1   -0.22    0.24
   1  -7  -1    0.23    0.23
   1  -7  -1   -0.23    0.14
  -1   7   1    0.12    0.18
  -1   7   1    0.29    0.18
  -1   7   1   -0.02    0.48
   4  -7   0   50.84    1.61
   4  -7   0   53.46    1.78
   4  -7   0   50.44    1.21
   4  -7   0   48.51    1.77
  -4   7   0   52.16    1.84
  -4   7   0   50.26    1.73
  -4   7   0   50.81    1.62
  -4   7   0   50.97    2.12
  -4  -8  -3    7.04    1.73
  -4  -8  -3    3.81    0.57
  -4  -8  -3    2.95    0.44
  -4  -8  -3    4.39    0.70
  -4  -8  -3    2.59    0.43
  -4  -8  -3    3.31    0.38
  -4  -8  -3    5.46    1.13
  -4  -8  -3    4.25    0.63
  -4  -8  -3    3.34    0.57
  -4  -8  -3    2.80    0.45
   4   8   3    3.75    0.82
   4   8   3    4.05    0.73
   4   8   3    5.27    1.11
   4   8   3    3.61    0.81
  -1  -8  -2    4.59    0.39
  -1  -8  -2    2.81    0.41
  -1  -8  -2    4.72    0.60
  -1  -8  -2    4.16    0.49
  -1  -8  -2    5.30    1.05
  -1  -8  -2    4.11    0.53
   1   8   2    4.98    0.51
   1   8   2    4.39    0.55
   1   8   2    4.74    0.98
   1   8   2    4.11    0.63
   1   8   2    3.74    0.65
   2  -8  -1    0.89    0.29
   2  -8  -1    1.55    0.34
   2  -8  -1    0.75    0.26
   2  -8  -1    0.41    0.18
   2  -8  -1    1.05    0.37
  -2   8   1    0.87    0.31
  -2   8   1    0.98    0.25
  -2   8   1    1.25    0.69
   5  -8   0   -0.12    0.18
   5  -8   0   -0.15    0.26
   5  -8   0   -0.33    0.44
   5  -8   0   -0.43    0.20
  -5   8   0    0.32    0.33
  -5   8   0   -0.23    0.59
  -5   8   0   -0.54    0.22
  -5   8   0   -0.24    0.26
  -6  -9  -4    3.62    0.84
  -3  -9  -3    2.10    0.42
  -3  -9  -3    1.26    0.40
  -3  -9  -3    2.82    0.95
  -3  -9  -3    1.71    0.40
  -3  -9  -3    1.82    0.38
  -3  -9  -3    2.05    0.45
  -3  -9  -3    3.20    0.62
   3   9   3    2.35    0.74
   3   9   3    3.89    0.86
   3   9   3    2.62    0.81
   3   9   3    2.50    0.63
   0  -9  -2    3.77    0.52
   0  -9  -2    3.72    0.47
   0  -9  -2    3.98    0.33
   0  -9  -2    4.66    0.65
   0   9   2    4.40    0.84
   0   9   2    5.82    1.02
   0   9   2    2.46    0.41
   0   9   2    4.65    0.88
   3  -9  -1    0.16    0.33
   3  -9  -1    0.08    0.26
   3  -9  -1   -0.09    0.27
  -3   9   1   -0.04    0.30
  -3   9   1   -0.03    0.23
  -3   9   1   -0.08    0.42
  -5 -10  -4   -0.02    0.27
  -5 -10  -4    1.67    0.50
  -5 -10  -4   -0.23    0.17
  -5 -10  -4    0.41    0.33
   5  10   4   -0.22    0.54
   5  10   4   -0.04    0.41
   5  10   4    0.39    0.46
  -2 -10  -3    1.82    0.29
  -2 -10  -3    1.11    0.32
  -2 -10  -3    1.15    0.45
  -2 -10  -3    1.08    0.35
  -2 -10  -3    1.21    0.30
  -2 -10  -3    1.46    0.43
   2  10   3    1.37    0.47
   2  10   3    1.73    0.60
   2  10   3    1.06    0.31
   2  10   3    1.45    0.62
   2  10   3    1.75    0.72
   1 -10  -2    2.35    0.54
   1 -10  -2    1.62    0.32
   1 -10  -2    1.23    0.36
   1 -10  -2    1.76    0.45
  -1  10   2    2.54    0.83
  -1  10   2    1.61    0.65
   4 -10  -1    1.04    0.30
   4 -10  -1    1.49    0.42
   4 -10  -1    1.73    0.44
  -4  10   1    0.79    0.35
  -4  10   1    1.76    0.85
  -4  10   1    2.69    0.55
  -4 -11  -4    0.06    0.32
  -4 -11  -4   -0.64    0.26
  -4 -11  -4    0.01    0.30
  -4 -11  -4    0.45    0.40
   4  11   4    0.56    0.48
   4  11   4   -0.01    0.46
   4  11   4    0.43    0.34
   4  11   4    0.71    0.46
  -1 -11  -3    0.68    0.36
  -1 -11  -3    0.06    0.24
  -1 -11  -3    0.47    0.23
  -1 -11  -3    0.04    0.28
   1  11   3    0.69    0.46
   1  11   3    0.63    0.54
   1  11   3    1.37    0.64
   1  11   3    1.29    0.58
   2 -11  -2   -0.01    0.33
   2 -11  -2   -0.65    0.25
   2 -11  -2    0.62    0.31
   2 -11  -2   -0.34    0.18
  -2  11   2    0.14    0.33
  -2  11   2   -0.46    0.23
  -2  11   2   -0.34    0.53
  -3 -12  -4    0.37    0.31
  -3 -12  -4    0.82    0.35
  -3 -12  -4   -0.35    0.36
  -3 -12  -4    1.52    0.38
   3  12   4    0.69    0.42
   3  12   4    1.95    0.65
   3  12   4    0.42    0.52
   3  12   4    1.09    0.77
   0 -12  -3    0.53    0.39
   0 -12  -3   -0.05    0.30
   0 -12  -3    0.71    0.31
   0 -12  -3    0.67    0.21
   0 -12  -3    0.71    0.55
   0 -12  -3    0.58    0.32
   0  12   3    1.21    0.73
   0  12   3    1.08    0.67
   0  12   3    0.78    0.59
   0  12   3    0.92    0.54
   3 -12  -2    0.14    0.29
   3 -12  -2   -0.64    0.34
   3 -12  -2    0.64    0.37
  -3  12   2    1.13    0.69
  -3  12   2   -0.36    0.31
  -2 -13  -4   -0.23    0.31
  -2 -13  -4   -0.59    0.39
   2  13   4    0.53    0.53
   2  13   4    0.76    0.66
   2  13   4    0.93    0.47
   2  13   4    1.26    0.49
   1 -13  -3    0.02    0.32
   1 -13  -3   -0.25    0.36
   1 -13  -3   -0.44    0.25
   1 -13  -3   -0.05    0.30
  -1  13   3    0.33    0.62
  -1  13   3   -0.60    0.51
  -1  13   3   -0.65    0.49
  -2  13   5   -0.18    0.62
   2 -13  -5    1.35    0.51
   2 -13  -5   -0.03    0.40
   1  13   6    1.54    0.73
   1  13   6    2.46    0.94
   1  13   6    2.23    0.60
  -1 -13  -6    1.28    0.36
  -1 -13  -6    0.95    0.47
  -1 -13  -6    0.65    0.39
  -1  12   5    0.18    0.55
  -1  12   5   -0.86    0.58
   1 -12  -5   -0.37    0.20
   1 -12  -5    0.03    0.31
   1 -12  -5   -0.20    0.25
   1 -12  -5    0.20    0.33
   1 -12  -5    0.89    0.30
   2  12   6    0.33    0.43
   2  12   6    0.81    0.66
   2  12   6    0.77    0.36
   2  12   6    0.74    0.52
  -2 -12  -6   -0.24    0.25
  -2 -12  -6   -0.03    0.36
  -2 -12  -6    1.92    0.49
  -3  11   4    0.59    0.36
  -3  11   4   -0.15    0.61
  -3  11   4   -0.27    0.26
  -3  11   4   -0.22    0.24
   3 -11  -4    0.18    0.27
   3 -11  -4   -0.52    0.26
   3 -11  -4    0.41    0.35
   3 -11  -4    0.80    0.43
   0  11   5    0.78    1.05
   0  11   5    1.56    0.61
   0  11   5    0.94    0.39
   0 -11  -5    0.50    0.56
   0 -11  -5    0.40    0.33
   0 -11  -5    0.63    0.30
   0 -11  -5    0.99    0.29
   0 -11  -5    0.90    0.35
   3  11   6    4.44    1.05
   3  11   6    3.66    0.86
   3  11   6    3.57    0.62
   3  11   6    4.23    0.79
  -3 -11  -6    4.36    0.77
  -3 -11  -6    2.29    0.58
  -3 -11  -6    2.87    0.63
  -3 -11  -6    2.85    0.62
  -3 -11  -6    2.82    0.49
  -5  10   3   -0.20    0.39
  -5  10   3   -0.29    0.29
  -5  10   3   -0.33    0.29
   5 -10  -3    0.04    0.18
   5 -10  -3    0.26    0.46
   5 -10  -3    0.35    0.36
   5 -10  -3   -0.47    0.24
  -2  10   4    6.64    0.65
  -2  10   4    5.81    0.92
   2 -10  -4    6.32    0.68
   2 -10  -4    6.85    0.78
   2 -10  -4    6.06    0.56
   2 -10  -4    5.62    0.55
   1  10   5   28.12    1.25
   1  10   5   27.04    1.16
   1  10   5   28.64    1.55
   1  10   5   27.71    1.62
  -1 -10  -5   27.94    1.29
  -1 -10  -5   29.42    1.27
  -1 -10  -5   28.37    1.03
  -1 -10  -5   28.95    1.14
  -1 -10  -5   28.53    1.23
   4  10   6    0.53    0.34
   4  10   6    0.16    0.41
   4  10   6    0.87    0.50
  -4 -10  -6    0.49    0.39
  -4 -10  -6   -0.13    0.26
  -4 -10  -6   -0.19    0.21
  -4 -10  -6    1.06    0.51
  -4 -10  -6    0.28    0.32
  -4 -10  -6   -0.16    0.30
  -4 -10  -6   -0.90    0.78
  -4   9   3   -0.25    0.32
  -4   9   3   -0.01    0.24
  -4   9   3    0.21    0.28
   4  -9  -3    0.63    0.20
   4  -9  -3    0.40    0.31
   4  -9  -3    0.71    0.22
   4  -9  -3    1.06    0.54
  -1   9   4    0.06    0.56
  -1   9   4    0.28    0.30
   1  -9  -4   -0.04    0.14
   1  -9  -4   -0.20    0.24
   1  -9  -4    0.16    0.32
   1  -9  -4    0.19    0.24
   1  -9  -4   -0.05    0.24
   2   9   5    0.08    0.36
   2   9   5    0.31    0.56
   2   9   5    0.03    0.39
   2   9   5    0.44    0.33
  -2  -9  -5    0.32    0.28
  -2  -9  -5    0.13    0.26
  -2  -9  -5    0.10    0.21
  -2  -9  -5    0.19    0.25
  -2  -9  -5    0.42    0.20
  -2  -9  -5    0.34    0.39
   5   9   6    1.08    0.74
   5   9   6    1.44    0.57
  -5  -9  -6    1.44    0.90
  -5  -9  -6    1.14    0.54
  -5  -9  -6    0.91    0.33
  -5  -9  -6    0.55    0.20
  -5  -9  -6    0.23    0.54
  -5  -9  -6    0.33    0.32
  -6   8   2    0.37    0.36
  -6   8   2    0.30    0.40
  -6   8   2    0.24    0.37
   6  -8  -2    0.38    0.49
   6  -8  -2    0.42    0.25
   6  -8  -2    0.02    0.37
   6  -8  -2    0.35    0.25
   6  -8  -2    0.34    0.27
  -3   8   3    1.53    0.35
  -3   8   3    0.92    0.28
  -3   8   3    1.54    0.36
   3  -8  -3    1.20    0.33
   3  -8  -3    0.72    0.24
   3  -8  -3    1.82    0.33
   3  -8  -3    1.63    0.53
   0   8   4    1.86    0.51
   0   8   4    1.20    0.61
   0   8   4    2.02    0.54
   0   8   4    1.33    0.35
   0  -8  -4    1.54    0.29
   0  -8  -4    1.95    0.42
   0  -8  -4    1.35    0.29
   0  -8  -4    0.72    0.31
   3   8   5    5.50    0.73
   3   8   5    6.28    0.78
   3   8   5    4.55    0.59
   3   8   5    4.46    0.54
   3   8   5    5.19    0.61
  -3  -8  -5    5.02    0.59
  -3  -8  -5    4.60    0.55
  -3  -8  -5    4.91    0.57
  -3  -8  -5    5.23    0.61
  -3  -8  -5    6.95    1.18
  -3  -8  -5    5.33    0.69
  -3  -8  -5    5.89    0.59
  -3  -8  -5    4.55    0.53
  -3  -8  -5    6.23    1.05
  -6  -8  -6    5.07    0.76
  -5   7   2    0.15    0.27
  -5   7   2    0.19    0.31
   5  -7  -2    0.68    0.48
   5  -7  -2    0.39    0.22
   5  -7  -2    0.55    0.28
   5  -7  -2    0.41    0.23
  -2   7   3    0.45    0.33
  -2   7   3    0.19    0.24
  -2   7   3    0.36    0.18
   2  -7  -3    0.25    0.22
   2  -7  -3    0.03    0.16
   2  -7  -3    0.63    0.34
   2  -7  -3    0.33    0.26
   1   7   4    8.71    0.56
   1   7   4    7.53    0.56
   1   7   4    7.97    0.72
   1   7   4    7.64    0.60
   1   7   4    7.93    0.80
   1   7   4    8.09    0.58
   1   7   4    8.33    0.54
  -1  -7  -4    6.32    0.85
  -1  -7  -4    8.11    0.55
  -1  -7  -4    8.66    0.62
  -1  -7  -4    7.88    0.55
   4   7   5    3.19    0.73
   4   7   5    3.31    0.58
   4   7   5    2.60    0.45
   4   7   5    4.76    0.99
  -4  -7  -5    5.81    1.02
  -4  -7  -5    3.71    0.61
  -4  -7  -5    2.67    0.44
  -4  -7  -5    2.61    0.54
  -4  -7  -5    4.12    0.64
  -4  -7  -5    3.94    0.92
  -4  -7  -5    2.62    0.44
  -4  -7  -5    3.33    0.43
  -4  -7  -5    3.97    0.63
  -4  -7  -5    6.56    1.67
  -4  -7  -5    4.51    0.77
  -7   6   1    0.03    0.35
  -7   6   1   -0.34    0.29
  -7   6   1   -0.48    0.34
   7  -6  -1    0.03    0.61
   7  -6  -1   -0.18    0.22
   7  -6  -1    0.23    0.34
  -4   6   2    0.15    0.24
  -4   6   2    0.32    0.25
  -4   6   2    0.47    0.25
   4  -6  -2    0.30    0.46
   4  -6  -2    0.14    0.23
   4  -6  -2    0.01    0.17
   4  -6  -2    0.09    0.19
   4  -6  -2    0.43    0.20
  -1   6   3   36.22    0.90
  -1   6   3   36.38    1.11
  -1   6   3   37.16    1.17
   1  -6  -3   38.01    1.17
   1  -6  -3   35.71    1.03
   1  -6  -3   35.32    0.82
   1  -6  -3   36.89    1.12
   2   6   4    4.71    0.61
   2   6   4    5.03    0.47
   2   6   4    4.32    0.49
   2   6   4    4.64    0.49
   2   6   4    4.66    0.58
   2   6   4    4.64    0.47
  -2  -6  -4    5.27    0.68
  -2  -6  -4    4.97    0.63
  -2  -6  -4    4.87    0.87
  -2  -6  -4    4.41    0.45
  -2  -6  -4    4.41    0.46
  -2  -6  -4    5.45    0.48
  -2  -6  -4    4.58    0.42
  -2  -6  -4    5.30    0.57
   5   6   5    0.56    0.32
   5   6   5   -0.24    0.23
   5   6   5    0.40    0.33
  -5  -6  -5   -0.23    0.19
  -5  -6  -5    0.72    0.84
  -5  -6  -5    0.02    0.30
  -5  -6  -5    0.03    0.26
  -5  -6  -5   -0.30    0.15
  -5  -6  -5    0.15    0.21
  -5  -6  -5    0.69    0.53
  -5  -6  -5   -0.61    0.48
  -5  -6  -5   -0.02    0.13
  -5  -6  -5    0.25    0.49
  -5  -6  -5    0.90    0.30
  -5  -6  -5    0.48    0.36
  -5  -6  -5    0.08    0.21
  -6   5   1    0.74    0.34
  -6   5   1    0.81    0.52
  -6   5   1    0.30    0.42
  -6   5   1    0.70    0.31
   6  -5  -1   -0.06    0.30
   6  -5  -1    0.65    0.51
   6  -5  -1    0.65    0.28
  -3   5   2   24.50    1.05
  -3   5   2   24.43    0.99
  -3   5   2   23.70    0.84
   3  -5  -2   22.12    1.17
   3  -5  -2   23.91    1.07
   3  -5  -2   23.89    1.02
   0   5   3    2.38    0.32
   0   5   3    1.49    0.22
   0   5   3    2.08    0.25
   0   5   3    1.94    0.27
   0   5   3    2.72    0.56
   0  -5  -3    1.37    0.20
   0  -5  -3    2.19    0.26
   0  -5  -3    2.97    0.38
   0  -5  -3    2.35    0.30
   3   5   4   13.27    0.72
   3   5   4   13.42    0.85
   3   5   4   13.58    0.74
   3   5   4   14.24    0.88
  -3  -5  -4   11.64    0.79
  -3  -5  -4   14.27    0.59
  -3  -5  -4   13.50    0.55
  -3  -5  -4   11.66    0.70
  -3  -5  -4   14.20    0.92
  -3  -5  -4   13.36    1.14
  -3  -5  -4   13.99    0.71
  -3  -5  -4   12.68    0.75
  -3  -5  -4   12.63    0.70
  -3  -5  -4   14.62    0.86
  -3  -5  -4   13.62    0.93
   6   5   5    0.47    0.26
   6   5   5    0.67    0.35
   6   5   5    1.12    0.34
  -6  -5  -5    1.04    0.25
  -6  -5  -5    1.03    0.36
  -6  -5  -5    0.84    0.23
  -6  -5  -5    2.27    0.65
  -6  -5  -5    0.91    1.07
  -6  -5  -5    1.88    0.61
  -6  -5  -5    2.30    0.53
  -6  -5  -5    1.26    0.37
  -6  -5  -5    0.83    0.27
  -6  -5  -5    3.30    0.89
  -5   4   1    2.94    0.45
  -5   4   1    4.23    0.87
  -5   4   1    2.34    0.37
  -5   4   1    3.23    0.40
   5  -4  -1    3.77    0.44
   5  -4  -1    3.56    0.30
   5  -4  -1    3.96    0.55
   5  -4  -1    4.63    0.88
  -2   4   2   10.12    0.48
  -2   4   2   10.01    0.60
  -2   4   2   10.23    0.55
   2  -4  -2   10.52    0.50
   2  -4  -2    9.94    0.35
   2  -4  -2    9.54    0.60
   2  -4  -2   10.02    0.57
   1   4   3   31.59    0.87
   1   4   3   30.97    0.85
   1   4   3   31.55    0.88
   1   4   3   31.50    0.93
   1   4   3   31.04    1.06
   1   4   3   30.85    1.11
  -1  -4  -3   30.22    0.92
  -1  -4  -3   32.38    0.79
  -1  -4  -3   30.98    0.86
  -1  -4  -3   32.08    1.12
  -1  -4  -3   30.67    0.87
  -1  -4  -3   31.74    0.91
  -1  -4  -3   31.75    0.87
   4   4   4    5.75    0.54
   4   4   4    6.19    0.54
   4   4   4    5.72    0.56
   4   4   4    5.61    0.54
   4   4   4    6.27    0.66
  -4  -4  -4    6.71    0.56
  -4  -4  -4    7.24    0.57
  -4  -4  -4    6.20    0.72
  -4  -4  -4    5.64    0.53
  -4  -4  -4    5.29    0.67
  -4  -4  -4    6.35    0.68
  -4  -4  -4    6.30    0.82
  -4  -4  -4    5.69    0.56
  -4  -4  -4    5.08    0.51
  -4  -4  -4    5.36    0.59
  -4  -4  -4    6.67    0.70
  -4  -4  -4    6.31    0.42
  -7  -4  -5    3.05    0.81
  -7  -4  -5    0.99    0.77
  -7   3   0    1.09    0.33
  -7   3   0    2.02    0.61
  -7   3   0    1.14    0.37
  -7   3   0    0.63    0.35
   7  -3   0    0.20    0.25
   7  -3   0    0.95    0.36
   7  -3   0    1.31    0.62
   7  -3   0    0.81    0.40
   7  -3   0    0.60    0.34
  -4   3   1   17.57    0.91
  -4   3   1   17.73    0.65
  -4   3   1   16.99    0.92
  -4   3   1   16.31    1.21
   4  -3  -1   18.29    0.86
   4  -3  -1   17.92    1.05
   4  -3  -1   16.62    0.85
   4  -3  -1   16.64    0.72
   4  -3  -1   17.78    0.56
   4  -3  -1   16.87    0.63
  -1   3   2   -0.04    0.11
  -1   3   2   -0.08    0.11
  -1   3   2    0.07    0.12
   1  -3  -2    0.00    0.12
   1  -3  -2    0.03    0.10
   1  -3  -2   -0.06    0.11
   2   3   3  142.68    2.78
   2   3   3  141.60    2.62
   2   3   3  141.63    2.42
   2   3   3  141.02    2.60
   2   3   3  139.70    2.57
   2   3   3  144.16    2.82
  -2  -3  -3  142.39    2.59
  -2  -3  -3  139.56    2.63
  -2  -3  -3  143.55    2.63
  -2  -3  -3  142.21    2.58
  -2  -3  -3  147.64    2.82
  -2  -3  -3  139.23    2.66
  -2  -3  -3  141.45    2.81
  -2  -3  -3  141.75    2.62
  -2  -3  -3  145.33    2.44
  -2  -3  -3  149.28    2.32
  -2  -3  -3  140.74    2.77
   5   3   4    6.49    0.59
   5   3   4    6.59    0.65
   5   3   4    6.45    0.61
   5   3   4    5.64    0.53
  -5  -3  -4    6.08    0.38
  -5  -3  -4    5.74    1.02
  -5  -3  -4    5.57    0.77
  -5  -3  -4    5.30    0.56
  -5  -3  -4    5.40    0.60
  -5  -3  -4    5.92    0.66
  -5  -3  -4    6.14    0.71
  -5  -3  -4    5.78    0.62
  -5  -3  -4    6.61    0.75
  -5  -3  -4    5.45    0.64
  -6   2   0    1.51    0.53
  -6   2   0    0.72    0.32
  -6   2   0    1.77    0.62
  -6   2   0    0.44    0.24
  -6   2   0    0.18    0.22
   6  -2   0    1.42    0.66
   6  -2   0    0.30    0.25
   6  -2   0    0.43    0.22
   6  -2   0    0.23    0.21
   6  -2   0    0.36    0.26
  -3   2   1   50.97    1.07
  -3   2   1   56.16    1.77
  -3   2   1   55.85    1.67
  -3   2   1   51.14    1.60
  -3   2   1   52.79    1.05
   3  -2  -1   53.66    1.06
   3  -2  -1   52.79    1.08
   3  -2  -1   54.86    1.35
   3  -2  -1   54.57    1.40
   3  -2  -1   53.59    1.28
   3  -2  -1   55.14    1.73
   0   2   2    0.99    0.12
   0   2   2    0.78    0.11
   0   2   2    0.64    0.15
   0   2   2    0.78    0.11
   0  -2  -2    1.19    0.18
   0  -2  -2    1.28    0.19
   0  -2  -2    0.73    0.10
   3   2   3   49.41    1.44
   3   2   3   48.50    1.27
   3   2   3   48.66    1.30
   3   2   3   48.99    1.22
   3   2   3   45.31    1.48
  -3  -2  -3   48.69    1.27
  -3  -2  -3   48.60    1.32
  -3  -2  -3   47.95    1.29
  -3  -2  -3   51.10    1.31
  -3  -2  -3   49.20    1.55
  -3  -2  -3   47.53    1.24
  -3  -2  -3   49.14    1.41
  -3  -2  -3   48.93    1.07
  -3  -2  -3   49.53    1.44
  -3  -2  -3   48.41    1.32
   6   2   4    6.98    0.70
   6   2   4    6.06    0.53
   6   2   4    5.70    0.57
   6   2   4    5.28    0.61
  -6  -2  -4    5.48    0.65
  -6  -2  -4    6.03    0.77
  -6  -2  -4    5.52    0.56
  -6  -2  -4    6.72    0.75
  -6  -2  -4    6.33    0.80
  -6  -2  -4    5.85    0.64
  -6  -2  -4    7.96    1.14
   8  -1   1    0.11    0.62
  -5   1   0   13.56    0.85
  -5   1   0   12.23    0.54
  -5   1   0   12.58    0.86
  -5   1   0   12.70    0.65
  -5   1   0   12.34    0.87
  -5   1   0   13.25    1.24
  -5   1   0   12.49    0.98
   5  -1   0   12.10    0.76
   5  -1   0   12.93    0.77
   5  -1   0   12.66    0.77
   5  -1   0   13.74    1.01
   5  -1   0   13.16    0.75
  -2   1   1   37.48    0.85
  -2   1   1   34.33    0.92
  -2   1   1   33.48    0.71
  -2   1   1   31.65    1.03
  -2   1   1   33.35    0.71
   2  -1  -1   34.44    0.65
   2  -1  -1   34.22    0.72
   2  -1  -1   34.47    0.85
   2  -1  -1   32.63    0.90
   2  -1  -1   34.61    0.84
   2  -1  -1   34.95    1.08
   1   1   2  135.21    2.17
   1   1   2  136.12    2.17
   1   1   2  133.95    2.23
   1   1   2  134.30    2.23
   1   1   2  136.21    2.20
   1   1   2  131.41    2.14
  -1  -1  -2  137.48    2.19
  -1  -1  -2  135.33    2.16
  -1  -1  -2  133.05    2.22
  -1  -1  -2  130.81    2.20
  -1  -1  -2  131.25    2.22
   4   1   3    1.53    0.35
   4   1   3    1.25    0.20
   4   1   3    1.72    0.29
   4   1   3    2.14    0.33
   4   1   3    2.44    0.34
  -4  -1  -3    3.11    0.66
  -4  -1  -3    2.15    0.50
  -4  -1  -3    1.12    0.27
  -4  -1  -3    1.84    0.34
  -4  -1  -3    2.13    0.34
  -4  -1  -3    2.02    0.44
  -4  -1  -3    1.13    0.21
   7   1   4    5.72    0.69
   7   1   4    4.59    0.48
   7   1   4    6.10    0.63
   7   1   4    5.69    0.84
   7   1   4    4.81    0.57
  -7  -1  -4    4.40    0.66
  -7  -1  -4    4.69    0.72
  -7  -1  -4    7.96    0.92
  -7  -1  -4    5.94    0.61
  -7  -1  -4    5.70    0.65
  -7  -1  -4    6.99    0.86
  -7   0  -1    1.04    0.50
  -7   0  -1    5.33    1.65
  -7   0  -1    2.21    0.75
  -7   0  -1    0.25    0.44
  -7   0  -1    0.24    0.25
   7   0   1   -0.08    0.39
   7   0   1    0.14    0.27
  -4   0   0    2.67    0.34
  -4   0   0    2.80    0.24
  -4   0   0    2.59    0.25
  -4   0   0    2.71    0.27
  -4   0   0    3.48    0.54
  -4   0   0    3.09    0.64
  -4   0   0    2.72    0.72
  -4   0   0    1.94    0.27
  -4   0   0    2.18    0.37
   4   0   0    2.80    0.40
   4   0   0    2.97    0.23
   4   0   0    2.04    0.33
   4   0   0    2.13    0.31
   4   0   0    2.29    0.31
   4   0   0    3.44    0.66
  -1   0   1   75.40    1.55
  -1   0   1   76.96    1.27
  -1   0   1   75.41    1.34
  -1   0   1   76.97    1.36
  -1   0   1   74.67    1.45
   1   0  -1   75.45    1.21
   1   0  -1   71.83    1.34
   1   0  -1   76.34    1.35
   1   0  -1   76.36    1.26
   1   0  -1   73.66    1.26
   1   0  -1   77.61    1.47
   2   0   2   91.24    1.75
   2   0   2   90.75    1.62
   2   0   2   92.50    1.81
   2   0   2   91.22    1.69
   2   0   2   90.01    1.81
   2   0   2   91.51    1.64
  -2   0  -2   90.49    1.76
  -2   0  -2   89.66    1.97
  -2   0  -2   92.16    1.81
  -2   0  -2   93.67    1.70
  -2   0  -2   94.71    1.83
  -2   0  -2   92.78    1.63
   5   0   3    0.46    0.24
   5   0   3    0.32    0.19
   5   0   3    0.30    0.22
   5   0   3   -0.03    0.15
   5   0   3    0.42    0.21
  -5   0  -3    0.28    0.19
  -5   0  -3    0.17    0.22
  -5   0  -3    0.56    0.41
  -5   0  -3    0.46    0.46
  -5   0  -3    0.16    0.24
  -5   0  -3    0.13    0.30
  -5   0  -3    0.13    0.40
  -5   0  -3   -0.30    0.19
  -6  -1  -1   -0.24    0.39
  -6  -1  -1    0.20    0.13
  -6  -1  -1    0.12    0.25
  -6  -1  -1    0.15    0.25
  -6  -1  -1    0.15    0.19
  -6  -1  -1    0.93    0.71
  -6  -1  -1    0.52    0.29
  -6  -1  -1    0.65    0.23
  -6  -1  -1    0.71    0.49
  -6  -1  -1    1.51    0.90
  -6  -1  -1    0.56    0.45
   6   1   1    0.20    0.18
   6   1   1    0.68    0.51
   6   1   1    0.14    0.31
   6   1   1    0.67    0.24
   6   1   1    0.28    0.25
  -3  -1   0    4.15    0.43
  -3  -1   0    4.93    0.30
  -3  -1   0    4.42    0.56
  -3  -1   0    4.12    0.34
  -3  -1   0    4.40    0.37
  -3  -1   0    3.18    0.41
  -3  -1   0    5.16    0.41
   3   1   0    3.45    0.45
   3   1   0    4.73    0.38
   3   1   0    5.18    0.38
   3   1   0    4.84    0.38
   0  -1   1   79.45    1.31
   0  -1   1   76.60    1.34
   0  -1   1   84.85    1.74
   0   1  -1   81.25    1.36
   0   1  -1   81.39    1.36
   3  -1   2   60.51    2.06
   3  -1   2   64.23    1.38
   3  -1   2   63.47    1.79
   3  -1   2   61.08    1.58
   3  -1   2   65.03    1.41
   3  -1   2   64.78    1.29
   3  -1   2   64.99    1.46
  -3   1  -2   64.79    1.42
  -3   1  -2   64.52    1.79
  -3   1  -2   67.54    1.93
  -3   1  -2   63.30    1.39
  -3   1  -2   65.37    1.47
   6  -1   3    1.72    0.49
   6  -1   3    2.02    0.38
   6  -1   3    1.30    0.35
   6  -1   3    2.00    0.31
   6  -1   3    1.16    0.28
  -6   1  -3    1.97    0.42
  -6   1  -3    1.25    0.30
  -6   1  -3    1.38    0.39
  -6   1  -3    2.47    0.64
  -6   1  -3    1.79    0.39
  -5  -2  -1   11.05    0.69
  -5  -2  -1   11.29    0.74
  -5  -2  -1   12.08    0.82
  -5  -2  -1   12.99    1.01
  -5  -2  -1   10.76    0.72
  -5  -2  -1   11.06    0.84
  -5  -2  -1   10.95    1.18
  -5  -2  -1   11.01    0.51
  -5  -2  -1   11.52    0.98
  -5  -2  -1   11.39    0.52
  -5  -2  -1   10.67    0.90
  -5  -2  -1    9.19    0.67
  -5  -2  -1   11.09    0.62
   5   2   1   11.20    0.74
   5   2   1   10.06    0.69
   5   2   1   10.19    0.90
   5   2   1   10.55    0.70
  -2  -2   0   98.63    2.14
  -2  -2   0   99.35    2.06
  -2  -2   0   99.37    2.31
  -2  -2   0   97.70    2.21
  -2  -2   0  100.77    1.89
  -2  -2   0   98.23    1.87
  -2  -2   0  100.85    1.92
  -2  -2   0  102.14    1.93
  -2  -2   0  105.05    1.94
  -2  -2   0  102.40    1.83
  -2  -2   0  100.02    1.83
  -2  -2   0  104.27    1.74
  -2  -2   0  104.22    2.12
   2   2   0  101.41    1.91
   2   2   0  102.28    2.08
   2   2   0  102.18    2.34
   2   2   0  102.97    1.90
   2   2   0   98.80    1.81
   2   2   0  100.37    2.07
   1  -2   1    0.48    0.13
   1  -2   1    0.19    0.17
   1  -2   1    0.59    0.14
   1  -2   1    0.26    0.11
  -1   2  -1    0.57    0.23
  -1   2  -1    0.32    0.15
  -1   2  -1    0.65    0.16
  -1   2  -1    0.48    0.20
  -1   2  -1    1.02    0.35
   4  -2   2    0.22    0.19
   4  -2   2    0.34    0.42
   4  -2   2    0.44    0.18
   4  -2   2    0.54    0.19
   4  -2   2    0.45    0.30
   4  -2   2    0.18    0.19
   4  -2   2    0.60    0.19
  -4   2  -2    0.27    0.23
  -4   2  -2    0.33    0.20
  -4   2  -2    0.22    0.18
  -4   2  -2    0.17    0.53
  -4   2  -2    0.12    0.21
   7  -2   3    0.80    0.30
   7  -2   3    0.70    0.37
   7  -2   3    0.95    0.32
   7  -2   3    0.55    0.23
  -7   2  -3    0.66    0.30
  -7   2  -3    2.22    0.65
  -7   2  -3    0.69    0.38
  -7   2  -3    1.27    0.43
  -7  -3  -2   -0.40    0.25
  -7  -3  -2    0.38    0.25
  -7  -3  -2    2.34    1.00
  -7  -3  -2    0.54    0.34
  -7  -3  -2    0.16    0.22
  -7  -3  -2    0.73    0.38
  -7  -3  -2   -0.26    0.36
  -7  -3  -2    0.26    0.17
   7   3   2    0.32    0.34
   7   3   2    0.31    0.27
   7   3   2    0.85    0.33
  -4  -3  -1    8.57    0.57
  -4  -3  -1    8.53    0.73
  -4  -3  -1    7.70    0.44
  -4  -3  -1    8.07    1.11
  -4  -3  -1    7.28    0.64
  -4  -3  -1    8.21    0.48
  -4  -3  -1    8.25    0.61
  -4  -3  -1    7.52    0.53
  -4  -3  -1    8.52    0.61
  -4  -3  -1    8.30    0.91
  -4  -3  -1    7.65    0.54
  -4  -3  -1    8.66    0.59
  -4  -3  -1    8.28    0.75
  -4  -3  -1    7.71    0.61
   4   3   1    8.14    0.57
   4   3   1    8.21    0.72
   4   3   1    7.59    0.56
   4   3   1    8.42    0.59
  -1  -3   0   40.80    1.13
  -1  -3   0   41.10    1.24
  -1  -3   0   40.62    1.25
  -1  -3   0   41.00    0.95
  -1  -3   0   43.01    1.01
  -1  -3   0   43.47    0.93
  -1  -3   0   42.57    0.91
   1   3   0   41.88    1.26
   1   3   0   40.40    0.93
   1   3   0   41.95    1.15
   1   3   0   40.77    0.89
   1   3   0   41.06    1.24
   1   3   0   40.61    1.08
   1   3   0   40.98    0.90
   2  -3   1    1.09    0.22
   2  -3   1    1.44    0.18
   2  -3   1    1.28    0.21
   2  -3   1    1.50    0.18
   2  -3   1    1.97    0.39
   2  -3   1    1.68    0.28
  -2   3  -1    2.09    0.38
  -2   3  -1    1.10    0.23
  -2   3  -1    1.29    0.23
  -2   3  -1    1.19    0.22
   5  -3   2    4.11    0.89
   5  -3   2    2.23    0.38
   5  -3   2    2.26    0.46
   5  -3   2    2.80    0.41
   5  -3   2    2.59    0.26
  -5   3  -2    2.27    0.42
  -5   3  -2    2.24    0.42
  -5   3  -2    2.60    0.62
  -5   3  -2    2.84    0.47
  -6  -4  -2    3.80    1.30
  -6  -4  -2    2.29    0.76
  -6  -4  -2    1.38    0.42
  -6  -4  -2    0.68    0.23
  -6  -4  -2    0.27    0.28
  -6  -4  -2    0.99    0.60
  -6  -4  -2    0.70    0.22
  -6  -4  -2    0.51    0.27
  -6  -4  -2    0.83    0.35
  -6  -4  -2    0.97    0.24
   6   4   2    0.24    0.27
   6   4   2    0.69    0.33
  -3  -4  -1   19.29    0.81
  -3  -4  -1   18.86    0.99
  -3  -4  -1   18.73    0.82
  -3  -4  -1   18.43    1.13
  -3  -4  -1   19.65    0.70
  -3  -4  -1   19.69    0.92
  -3  -4  -1   19.61    0.80
  -3  -4  -1   20.23    0.86
  -3  -4  -1   19.12    1.04
  -3  -4  -1   18.85    0.91
  -3  -4  -1   20.04    0.78
  -3  -4  -1   19.91    0.81
   3   4   1   19.76    1.02
   3   4   1   19.62    0.94
   3   4   1   20.21    1.12
   3   4   1   18.82    1.04
   3   4   1   19.25    0.80
   3   4   1   18.50    0.89
   0  -4   0    6.89    0.25
   0  -4   0    7.25    0.33
   0  -4   0    6.08    0.55
   0  -4   0    6.42    0.43
   0   4   0    6.89    0.56
   0   4   0    7.11    0.36
   0   4   0    6.85    0.44
   3  -4   1    1.55    0.30
   3  -4   1    1.13    0.22
   3  -4   1    1.79    0.22
   3  -4   1    2.13    0.26
   3  -4   1    1.50    0.29
  -3   4  -1    2.59    0.53
  -3   4  -1    1.06    0.27
  -3   4  -1    1.34    0.27
  -3   4  -1    1.80    0.31
   6  -4   2    1.98    0.32
   6  -4   2    2.41    0.65
   6  -4   2    1.29    0.33
  -6   4  -2    1.91    0.45
  -6   4  -2    1.65    0.39
  -6   4  -2    1.67    0.43
  -6   4  -2    2.88    0.69
  -5  -5  -2   10.84    0.66
  -5  -5  -2   10.16    0.70
  -5  -5  -2   11.22    0.81
  -5  -5  -2   11.32    0.76
  -5  -5  -2   10.70    0.87
  -5  -5  -2   12.38    1.35
  -5  -5  -2   11.21    0.96
  -5  -5  -2    9.42    0.74
  -5  -5  -2    9.73    0.73
  -5  -5  -2   11.01    0.98
  -5  -5  -2   10.75    1.09
  -5  -5  -2    9.39    0.76
  -5  -5  -2   10.15    0.63
  -5  -5  -2   10.79    0.76
   5   5   2    9.90    0.73
  -2  -5  -1    3.43    0.38
  -2  -5  -1    4.15    0.52
  -2  -5  -1    3.65    0.63
  -2  -5  -1    3.69    0.56
  -2  -5  -1    2.22    0.34
  -2  -5  -1    4.11    0.39
  -2  -5  -1    2.53    0.41
  -2  -5  -1    3.33    0.40
  -2  -5  -1    2.45    0.34
   2   5   1    3.21    0.35
   2   5   1    3.26    0.48
   2   5   1    3.48    0.51
   2   5   1    3.31    0.42
   2   5   1    2.75    0.49
   2   5   1    3.49    0.35
   1  -5   0    1.52    0.27
   1  -5   0    2.07    0.21
   1  -5   0    2.33    0.30
   1  -5   0    1.47    0.28
  -1   5   0    2.68    0.33
  -1   5   0    2.76    0.33
  -1   5   0    3.07    0.62
   4  -5   1    0.94    0.27
   4  -5   1    1.15    0.23
   4  -5   1    1.42    0.21
   4  -5   1    2.04    0.57
   4  -5   1    1.48    0.31
   4  -5   1    0.79    0.22
   4  -5   1    1.20    0.20
  -4   5  -1    1.41    0.38
  -4   5  -1    0.76    0.25
  -4   5  -1    1.22    0.79
  -4   5  -1    0.77    0.27
   7  -5   2    0.19    0.30
   7  -5   2    0.14    0.21
  -7   5  -2    0.22    0.36
  -7   5  -2   -0.17    0.30
  -7  -6  -3    0.45    0.29
  -7  -6  -3    0.31    0.35
  -7  -6  -3    0.28    0.21
  -7  -6  -3    1.05    0.48
  -7  -6  -3   -0.07    0.35
  -7  -6  -3    0.22    0.23
  -4  -6  -2    2.26    0.32
  -4  -6  -2    2.63    0.56
  -4  -6  -2    2.67    0.41
  -4  -6  -2    3.97    0.58
  -4  -6  -2    2.36    0.38
  -4  -6  -2    4.63    1.15
  -4  -6  -2    2.54    0.35
  -4  -6  -2    2.46    0.43
  -4  -6  -2    3.17    0.54
  -4  -6  -2    2.82    0.43
  -4  -6  -2    4.39    0.78
  -4  -6  -2    3.02    0.66
  -4  -6  -2    3.30    0.43
   4   6   2    4.14    0.95
   4   6   2    2.62    0.56
   4   6   2    3.50    0.80
   4   6   2    4.37    0.78
  -1  -6  -1   33.19    1.04
  -1  -6  -1   36.06    0.92
  -1  -6  -1   35.84    1.12
  -1  -6  -1   36.25    1.48
  -1  -6  -1   34.70    1.15
   1   6   1   36.63    1.42
   1   6   1   33.56    1.42
   1   6   1   35.70    1.10
   1   6   1   34.24    1.30
   1   6   1   34.88    1.20
   2  -6   0    0.25    0.19
   2  -6   0    0.65    0.31
   2  -6   0    0.40    0.29
   2  -6   0    0.18    0.16
  -2   6   0   -0.14    0.24
  -2   6   0    0.47    0.36
  -2   6   0    0.68    0.54
  -2   6   0    0.53    0.29
  -2   6   0    0.47    0.24
   5  -6   1    2.64    0.77
   5  -6   1    2.08    0.27
   5  -6   1    1.65    0.23
   5  -6   1    2.21    0.55
   5  -6   1    1.77    0.25
   5  -6   1    1.66    0.38
   5  -6   1    1.51    0.41
  -5   6  -1    2.39    0.47
  -5   6  -1    1.10    0.33
  -5   6  -1    3.47    0.76
  -5   6  -1    1.00    0.34
  -6  -7  -3    1.37    0.69
  -6  -7  -3    0.44    0.32
  -6  -7  -3    1.57    0.78
  -6  -7  -3    0.29    0.38
  -3  -7  -2    7.30    0.62
  -3  -7  -2    7.76    1.40
  -3  -7  -2    6.36    0.86
  -3  -7  -2    6.93    0.62
  -3  -7  -2    7.72    0.63
  -3  -7  -2    7.79    0.63
  -3  -7  -2    8.13    0.62
  -3  -7  -2    7.45    0.68
  -3  -7  -2    8.71    0.60
  -3  -7  -2    7.73    0.63
   3   7   2    7.09    0.75
   3   7   2    7.33    0.82
   3   7   2    6.50    0.78
   3   7   2    6.87    0.69
   0  -7  -1    5.87    0.32
   0  -7  -1    5.30    0.51
   0  -7  -1    6.50    0.79
   0  -7  -1    6.27    0.55
   0  -7  -1    5.39    0.44
   0   7   1    6.06    0.62
   0   7   1    5.42    0.70
   0   7   1    5.65    0.52
   3  -7   0    9.53    0.67
   3  -7   0   10.00    0.72
   3  -7   0   10.93    0.83
   3  -7   0   10.19    0.73
  -3   7   0    9.43    0.69
  -3   7   0   10.17    0.75
  -3   7   0    9.39    0.87
  -3   7   0    8.87    0.88
  -3   7   0    9.48    0.69
   6  -7   1    0.25    0.41
  -6   7  -1    0.33    0.46
  -6   7  -1    0.01    0.30
  -6   7  -1    0.09    0.75
  -6   7  -1   -0.23    0.27
  -5  -8  -3    2.42    0.44
  -5  -8  -3    1.45    0.43
  -5  -8  -3    4.49    1.06
  -5  -8  -3    2.80    0.54
  -5  -8  -3    2.41    0.50
  -5  -8  -3    1.92    0.44
  -5  -8  -3    4.43    0.98
  -5  -8  -3    1.84    0.31
  -5  -8  -3    1.75    0.33
  -5  -8  -3    1.71    0.42
   5   8   3    3.15    0.77
   5   8   3    2.31    0.74
  -2  -8  -2    2.18    0.74
  -2  -8  -2    0.75    0.29
  -2  -8  -2    0.98    0.26
  -2  -8  -2    1.16    0.39
  -2  -8  -2    0.87    0.28
  -2  -8  -2    0.98    0.34
  -2  -8  -2    1.65    0.36
   2   8   2    1.25    0.56
   2   8   2    1.30    0.48
   2   8   2    1.19    0.53
   2   8   2    1.21    0.34
   2   8   2    2.26    0.64
   1  -8  -1    3.72    0.51
   1  -8  -1    2.81    0.43
   1  -8  -1    3.89    0.38
   1  -8  -1    3.43    0.38
   1  -8  -1    4.74    0.64
  -1   8   1    3.47    0.46
  -1   8   1    4.76    0.84
  -1   8   1    4.39    0.53
   4  -8   0    2.10    0.35
   4  -8   0    2.72    0.49
   4  -8   0    3.47    0.70
   4  -8   0    1.96    0.35
  -4   8   0    1.01    0.35
  -4   8   0    2.09    0.47
  -4   8   0    1.36    0.35
  -4   8   0    3.03    0.86
  -4  -9  -3    0.15    0.26
  -4  -9  -3    0.48    0.28
  -4  -9  -3    0.08    0.30
  -4  -9  -3    0.24    0.30
  -4  -9  -3    1.04    0.69
  -4  -9  -3   -0.03    0.23
  -4  -9  -3    0.70    0.46
  -4  -9  -3   -0.08    0.31
   4   9   3    0.57    0.46
   4   9   3    0.66    0.42
   4   9   3    0.80    0.92
   4   9   3   -0.01    0.38
  -1  -9  -2   23.31    1.11
  -1  -9  -2   23.15    1.01
  -1  -9  -2   22.69    0.80
  -1  -9  -2   22.19    1.13
  -1  -9  -2   21.97    1.10
  -1  -9  -2   22.78    1.53
   1   9   2   19.74    1.00
   1   9   2   22.39    1.40
   1   9   2   21.96    1.31
   1   9   2   20.75    1.10
   1   9   2   21.32    1.25
   2  -9  -1    2.21    0.29
   2  -9  -1    1.67    0.40
   2  -9  -1    2.30    0.47
   2  -9  -1    1.61    0.35
  -2   9   1    2.32    0.52
  -2   9   1    3.12    0.81
  -2   9   1    1.82    0.34
   5  -9   0    0.39    0.23
   5  -9   0    0.01    0.23
   5  -9   0    0.66    0.31
  -5   9   0   -0.58    0.28
  -5   9   0    1.05    0.74
  -5   9   0    0.06    0.33
  -5   9   0   -0.79    0.37
  -3 -10  -3    0.39    0.29
  -3 -10  -3    0.78    0.40
  -3 -10  -3    0.76    0.90
  -3 -10  -3    1.27    0.41
  -3 -10  -3    0.34    0.45
  -3 -10  -3    0.54    0.28
  -3 -10  -3    0.27    0.32
   3  10   3    0.80    0.63
   3  10   3    0.26    0.42
   3  10   3    0.20    0.39
   3  10   3    0.23    0.35
   0 -10  -2   -0.21    0.29
   0 -10  -2   -0.11    0.20
   0 -10  -2    0.16    0.29
   0 -10  -2    0.14    0.28
   0 -10  -2   -0.01    0.13
   0  10   2    0.33    0.40
   0  10   2    0.14    0.55
   0  10   2    0.19    0.51
   3 -10  -1    0.03    0.30
   3 -10  -1    0.23    0.29
   3 -10  -1    0.69    0.28
  -3  10   1    0.39    0.30
  -3  10   1    0.45    0.37
  -3  10   1    0.57    0.60
  -2 -11  -3   -0.15    0.24
  -2 -11  -3   -0.45    0.29
  -2 -11  -3   -0.41    0.21
  -2 -11  -3    0.27    0.26
  -2 -11  -3   -0.02    0.23
  -2 -11  -3   -0.41    0.27
   2  11   3    0.50    0.44
   2  11   3   -0.03    0.35
   2  11   3    0.20    0.33
   2  11   3    0.28    0.50
   2  11   3    0.32    0.39
   1 -11  -2   -0.11    0.26
   1 -11  -2    0.36    0.30
   1 -11  -2    0.36    0.26
   1 -11  -2   -0.11    0.34
  -1  11   2    0.52    1.02
   4 -11  -1    0.28    0.29
   4 -11  -1    0.82    0.41
   4 -11  -1    0.32    0.34
  -4  11   1    0.89    0.76
  -4  11   1    0.07    0.34
  -1 -12  -3   -0.52    0.24
  -1 -12  -3    0.01    0.28
  -1 -12  -3   -0.03    0.37
  -1 -12  -3    0.07    0.26
  -1 -12  -3    0.17    0.23
  -1 -12  -3    0.01    0.59
   1  12   3   -0.15    0.48
   1  12   3    0.39    0.39
   1  12   3    0.85    0.64
   1  12   3    0.65    0.48
   2 -12  -2   -0.14    0.31
   2 -12  -2    0.22    0.24
   2 -12  -2   -0.12    0.27
   2 -12  -2    0.77    0.36
  -2  12   2    1.22    0.68
   0 -13  -3   -0.51    0.36
   0 -13  -3    0.42    0.36
   0 -13  -3   -0.60    0.32
   0  13   3   -0.49    0.49
   0  13   3    0.13    0.47
   0  13   3    0.72    0.53
   0  13   3    0.39    0.62
   0  13   6    0.99    0.41
   0  13   6    0.63    0.65
   0  13   6    1.89    0.47
   0  13   6    1.83    0.78
   0 -13  -6    0.77    0.44
   0 -13  -6    0.58    0.70
  -2  12   5    2.76    0.96
   2 -12  -5    1.70    0.59
   2 -12  -5    2.80    0.63
   2 -12  -5    2.36    0.52
   1  12   6   -0.40    0.46
   1  12   6    0.33    0.36
   1  12   6    0.19    0.47
  -1 -12  -6   -0.15    0.20
  -1 -12  -6    0.68    0.39
  -1 -12  -6   -0.49    0.31
  -1 -12  -6   -0.02    0.24
  -1 -12  -6    0.07    0.33
  -1 -12  -6    0.14    0.37
  -4 -12  -7    0.38    0.35
  -4  11   4   -0.44    0.26
  -4  11   4    0.24    0.77
  -4  11   4   -0.12    0.37
  -4  11   4    0.07    0.29
   4 -11  -4    0.72    0.43
   4 -11  -4    0.60    0.29
   4 -11  -4    0.06    0.35
  -1  11   5    1.00    0.75
  -1  11   5    0.15    0.32
   1 -11  -5    0.32    0.35
   1 -11  -5   -0.31    0.32
   1 -11  -5    0.59    0.33
   1 -11  -5   -0.19    0.22
   2  11   6    2.65    0.56
   2  11   6    2.32    0.77
   2  11   6    3.05    0.70
   2  11   6    2.42    0.77
  -2 -11  -6    1.98    0.36
  -2 -11  -6    2.11    0.51
  -2 -11  -6    1.16    0.31
  -2 -11  -6    1.96    0.48
  -2 -11  -6    1.99    0.51
  -2 -11  -6    2.51    0.61
  -3  10   4    4.14    0.65
  -3  10   4    4.38    1.15
  -3  10   4    3.05    0.70
  -3  10   4    4.35    0.59
   3 -10  -4    3.12    0.51
   3 -10  -4    3.91    0.62
   3 -10  -4    4.62    0.46
   3 -10  -4    4.72    0.59
   0  10   5   11.46    0.75
   0  10   5   11.26    0.81
   0  10   5   10.81    0.84
   0  10   5   11.33    1.11
   0 -10  -5   11.61    0.80
   0 -10  -5   12.58    0.88
   0 -10  -5   11.49    0.87
   0 -10  -5   11.38    0.72
   3  10   6    0.41    0.50
   3  10   6    0.68    0.41
   3  10   6    0.52    0.51
  -3 -10  -6    0.54    0.27
  -3 -10  -6    0.37    0.24
  -3 -10  -6    0.22    0.33
  -3 -10  -6    0.55    0.44
  -3 -10  -6    0.44    0.32
  -3 -10  -6    0.57    0.43
  -5   9   3    0.32    0.35
  -5   9   3    0.26    0.32
  -5   9   3   -0.31    0.33
   5  -9  -3    0.47    0.21
   5  -9  -3    1.17    0.37
   5  -9  -3    0.06    0.27
   5  -9  -3    0.84    0.54
  -2   9   4    0.40    0.26
  -2   9   4    0.35    0.24
  -2   9   4    0.51    0.63
  -2   9   4    0.43    0.29
   2  -9  -4    0.60    0.27
   2  -9  -4    0.93    0.66
   2  -9  -4    0.32    0.25
   2  -9  -4    0.37    0.29
   1   9   5    5.71    0.77
   1   9   5    6.55    0.86
   1   9   5    6.61    0.57
   1   9   5    6.34    0.59
  -1  -9  -5    6.40    0.77
  -1  -9  -5    6.50    0.64
  -1  -9  -5    5.65    0.61
  -1  -9  -5    5.27    0.57
   4   9   6    0.36    0.44
   4   9   6    0.70    0.46
   4   9   6    0.08    0.28
  -4  -9  -6    0.39    0.37
  -4  -9  -6   -0.33    0.21
  -4  -9  -6   -0.77    0.64
  -4  -9  -6   -0.41    0.26
  -4  -9  -6    0.14    0.27
  -4  -9  -6   -0.08    1.16
  -4  -9  -6   -0.04    0.17
  -4  -9  -6    0.46    0.57
  -4   8   3    9.34    0.77
  -4   8   3    8.63    0.90
  -4   8   3    9.46    0.74
   4  -8  -3    9.11    0.41
   4  -8  -3    8.88    0.64
   4  -8  -3    9.74    0.56
   4  -8  -3    8.93    0.70
   4  -8  -3    9.14    0.80
  -1   8   4    1.29    0.34
  -1   8   4    1.18    0.19
  -1   8   4    0.77    0.28
  -1   8   4    1.12    0.64
   1  -8  -4    0.96    0.31
   1  -8  -4    1.28    0.35
   1  -8  -4    0.91    0.21
   1  -8  -4    0.77    0.24
   1  -8  -4    2.12    0.50
   2   8   5    0.64    0.39
   2   8   5    0.81    0.39
   2   8   5    0.17    0.22
   2   8   5    0.91    0.49
   2   8   5    0.50    0.31
   2   8   5    0.81    0.55
  -2  -8  -5    0.50    0.22
  -2  -8  -5    0.34    0.29
  -2  -8  -5    0.46    0.24
  -2  -8  -5    0.79    0.29
  -2  -8  -5    0.52    0.31
   5   8   6    0.27    0.43
   5   8   6    0.12    0.44
   5   8   6   -0.06    0.20
  -5  -8  -6   -0.05    0.12
  -5  -8  -6   -0.18    0.24
  -5  -8  -6   -0.18    0.19
  -5  -8  -6   -0.44    0.28
  -5  -8  -6    0.30    0.47
  -5  -8  -6   -0.84    0.52
  -5  -8  -6    0.25    0.27
  -5  -8  -6   -0.72    0.62
  -5  -8  -6   -0.36    0.19
  -5  -8  -6   -0.24    0.28
  -6   7   2    1.30    0.42
  -6   7   2    0.32    0.33
  -6   7   2    1.32    0.41
   6  -7  -2    1.69    0.55
   6  -7  -2    1.27    0.30
   6  -7  -2    1.38    1.00
   6  -7  -2    1.43    0.36
   6  -7  -2    1.29    0.33
  -3   7   3    0.61    0.26
  -3   7   3    1.10    0.37
  -3   7   3    0.55    0.26
   3  -7  -3    0.93    0.25
   3  -7  -3    0.64    0.26
   3  -7  -3    0.96    0.34
   3  -7  -3    1.23    0.50
   0   7   4    0.31    0.25
   0   7   4    0.71    0.40
   0   7   4   -0.07    0.44
   0   7   4    0.39    0.24
   0  -7  -4    0.09    0.19
   0  -7  -4    0.21    0.19
   0  -7  -4    0.13    0.22
   0  -7  -4    0.16    0.16
   3   7   5    0.79    0.35
   3   7   5    1.34    0.50
   3   7   5    1.61    0.60
   3   7   5    0.96    0.33
   3   7   5    0.61    0.27
  -3  -7  -5    2.06    0.75
  -3  -7  -5    0.35    0.23
  -3  -7  -5    1.91    0.53
  -3  -7  -5    0.66    0.22
  -3  -7  -5    0.80    0.26
  -3  -7  -5    1.19    0.37
  -3  -7  -5    1.01    0.60
  -3  -7  -5    1.07    0.37
  -3  -7  -5    0.76    0.26
  -3  -7  -5    1.37    0.49
  -6  -7  -6    0.98    0.65
  -6  -7  -6    2.55    0.66
  -5   6   2    5.35    0.69
  -5   6   2    6.17    0.55
  -5   6   2    5.69    0.76
   5  -6  -2    6.50    0.52
   5  -6  -2    5.87    0.48
   5  -6  -2    6.70    0.71
   5  -6  -2    7.52    0.80
   5  -6  -2    6.12    0.52
  -2   6   3    0.68    0.20
  -2   6   3    0.58    0.24
  -2   6   3    1.26    0.32
   2  -6  -3    1.25    0.25
   2  -6  -3    0.54    0.20
   2  -6  -3    1.41    0.44
   2  -6  -3    0.73    0.28
   1   6   4    4.11    0.48
   1   6   4    3.41    0.42
   1   6   4    3.63    0.58
   1   6   4    3.88    0.38
   1   6   4    3.83    0.39
  -1  -6  -4    4.01    0.40
  -1  -6  -4    4.25    0.39
  -1  -6  -4    4.01    0.45
  -1  -6  -4    4.05    0.43
   4   6   5   -0.21    0.22
   4   6   5    0.06    0.18
   4   6   5   -0.11    0.30
   4   6   5   -0.14    0.34
  -4  -6  -5   -0.48    0.60
  -4  -6  -5   -0.19    0.15
  -4  -6  -5   -0.05    0.18
  -4  -6  -5    0.29    0.30
  -4  -6  -5    0.37    0.24
  -4  -6  -5    0.38    0.36
  -4  -6  -5   -0.17    0.19
  -4  -6  -5    0.04    0.21
  -4  -6  -5    0.17    0.42
  -4  -6  -5    0.10    0.11
  -4  -6  -5    0.31    0.55
  -4  -6  -5    0.17    0.34
  -7  -6  -6    2.17    0.66
  -7   5   1   -0.22    0.28
  -7   5   1   -0.20    0.29
  -7   5   1    0.94    0.43
  -7   5   1   -0.72    0.29
   7  -5  -1    0.16    0.31
   7  -5  -1   -0.04    0.46
   7  -5  -1   -0.57    0.22
  -4   5   2    1.45    0.33
  -4   5   2    0.67    0.25
  -4   5   2    1.01    0.32
  -4   5   2    0.99    0.51
   4  -5  -2    0.81    0.23
   4  -5  -2    1.11    0.28
   4  -5  -2    1.25    0.24
   4  -5  -2    1.07    0.30
   4  -5  -2    0.90    0.47
  -1   5   3    2.54    0.32
  -1   5   3    1.80    0.22
  -1   5   3    1.92    0.28
  -1   5   3    2.87    0.31
   1  -5  -3    2.40    0.32
   1  -5  -3    1.78    0.24
   1  -5  -3    2.50    0.31
   2   5   4   90.92    2.06
   2   5   4   93.19    2.01
   2   5   4   91.61    2.30
   2   5   4   90.39    2.03
   2   5   4   88.61    2.62
  -2  -5  -4   90.60    2.07
  -2  -5  -4   90.54    1.94
  -2  -5  -4   91.30    1.98
  -2  -5  -4   85.96    2.03
  -2  -5  -4   88.21    1.99
  -2  -5  -4   88.91    2.05
  -2  -5  -4   92.73    2.02
  -2  -5  -4   95.61    2.04
  -2  -5  -4   91.56    2.34
   5   5   5    1.52    0.34
   5   5   5    0.32    0.20
   5   5   5    1.69    0.46
  -5  -5  -5    0.83    0.37
  -5  -5  -5    1.10    0.35
  -5  -5  -5    2.80    0.95
  -5  -5  -5    1.80    0.53
  -5  -5  -5    0.66    0.28
  -5  -5  -5    0.89    0.28
  -5  -5  -5    1.73    0.61
  -5  -5  -5    2.10    0.75
  -5  -5  -5    1.18    0.25
  -5  -5  -5    1.50    0.64
  -5  -5  -5    0.98    0.20
  -6   4   1   -0.29    0.21
  -6   4   1    0.07    0.30
  -6   4   1   -0.02    0.24
  -6   4   1    0.96    0.44
   6  -4  -1    0.13    0.22
   6  -4  -1   -0.09    0.39
   6  -4  -1   -0.12    0.19
   6  -4  -1    0.57    0.32
  -3   4   2   19.11    0.85
  -3   4   2   17.69    0.66
  -3   4   2   18.32    0.94
  -3   4   2   18.75    0.88
   3  -4  -2   19.06    0.65
   3  -4  -2   19.18    0.87
   3  -4  -2   18.22    0.95
   3  -4  -2   19.98    0.69
   0   4   3    0.35    0.17
   0   4   3    0.30    0.13
   0   4   3    0.28    0.13
   0   4   3    0.61    0.18
   0   4   3    0.41    0.17
   0  -4  -3    0.31    0.13
   0  -4  -3    0.43    0.13
   0  -4  -3    0.32    0.18
   0  -4  -3    0.41    0.19
   3   4   4   24.15    0.91
   3   4   4   26.59    0.97
   3   4   4   24.78    0.95
   3   4   4   25.56    1.10
   3   4   4   25.81    1.07
  -3  -4  -4   23.46    0.91
  -3  -4  -4   23.39    0.94
  -3  -4  -4   26.05    0.96
  -3  -4  -4   25.07    1.13
  -3  -4  -4   25.53    0.97
  -3  -4  -4   25.94    0.71
  -3  -4  -4   24.19    1.10
  -3  -4  -4   24.84    1.01
  -3  -4  -4   25.87    0.97
  -3  -4  -4   25.47    1.13
  -3  -4  -4   23.95    1.06
  -3  -4  -4   25.24    0.84
   6   4   5    0.52    0.39
   6   4   5   -0.19    0.21
   6   4   5   -0.17    0.25
   6   4   5    0.21    0.26
  -6  -4  -5    0.51    0.52
  -6  -4  -5    0.05    0.25
  -6  -4  -5    0.18    0.18
  -6  -4  -5    0.00    0.51
  -6  -4  -5    1.14    0.58
  -6  -4  -5    0.58    0.45
  -6  -4  -5    0.98    0.60
  -6  -4  -5    0.25    0.15
  -6  -4  -5    0.33    0.33
  -5   3   1    9.89    0.92
  -5   3   1   11.96    0.85
  -5   3   1   10.76    0.54
  -5   3   1   11.01    0.87
   5  -3  -1   11.13    0.78
   5  -3  -1   11.06    0.43
   5  -3  -1   10.91    0.92
   5  -3  -1   11.16    0.68
   5  -3  -1    9.55    0.73
  -2   3   2    6.79    0.48
  -2   3   2    6.48    0.35
   2  -3  -2    6.20    0.51
   2  -3  -2    5.68    0.44
   2  -3  -2    6.28    0.36
   2  -3  -2    6.49    0.36
   1   3   3    6.06    0.47
   1   3   3    6.09    0.40
   1   3   3    7.05    0.47
   1   3   3    6.60    0.36
   1   3   3    6.79    0.28
   1   3   3    6.34    0.38
  -1  -3  -3    6.93    0.30
  -1  -3  -3    6.45    0.36
  -1  -3  -3    6.90    0.36
  -1  -3  -3    6.28    0.38
  -1  -3  -3    6.65    0.49
  -1  -3  -3    6.52    0.28
  -1  -3  -3    6.25    0.40
   4   3   4    0.29    0.20
   4   3   4    0.01    0.11
   4   3   4   -0.07    0.18
   4   3   4    0.09    0.19
  -4  -3  -4    0.11    0.24
  -4  -3  -4    0.00    0.20
  -4  -3  -4   -0.03    0.23
  -4  -3  -4    0.57    0.40
  -4  -3  -4    0.08    0.38
  -4  -3  -4    0.17    0.15
  -4  -3  -4    0.60    0.49
  -4  -3  -4    0.29    0.20
  -4  -3  -4    0.12    0.12
  -4  -3  -4    0.22    0.40
  -4  -3  -4    0.14    0.23
  -7  -3  -5    3.39    0.91
  -7   2   0    0.44    0.30
  -7   2   0    1.94    0.65
  -7   2   0    0.47    0.27
  -7   2   0    0.46    0.32
   7  -2   0    0.39    0.55
   7  -2   0    0.65    0.43
   7  -2   0    0.80    0.31
  -4   2   1    0.83    0.20
  -4   2   1    0.39    0.21
  -4   2   1    0.52    0.21
  -4   2   1    0.76    0.78
  -4   2   1    0.77    0.20
   4  -2  -1    0.56    0.22
   4  -2  -1    0.73    0.15
   4  -2  -1    0.51    0.44
   4  -2  -1    0.84    0.29
   4  -2  -1    0.57    0.19
  -1   2   2  800.97   15.25
   1  -2  -2  810.09   15.29
   2   2   3  116.97    2.15
   2   2   3  116.58    2.21
   2   2   3  116.49    2.16
   2   2   3  115.27    2.14
   2   2   3  114.48    2.17
   2   2   3  117.07    2.29
   2   2   3  115.85    2.10
  -2  -2  -3  109.76    2.17
  -2  -2  -3  116.57    1.84
  -2  -2  -3  114.45    2.25
  -2  -2  -3  116.33    2.11
  -2  -2  -3  116.96    2.15
  -2  -2  -3  115.72    2.28
  -2  -2  -3  115.40    2.19
  -2  -2  -3  109.58    2.13
  -2  -2  -3  115.33    2.17
   5   2   4    0.14    0.23
   5   2   4    0.12    0.17
   5   2   4    0.06    0.12
   5   2   4    0.08    0.27
   5   2   4    0.04    0.17
  -5  -2  -4    0.15    0.36
  -5  -2  -4   -0.35    0.19
  -5  -2  -4   -0.03    0.22
  -5  -2  -4    0.15    0.26
  -5  -2  -4    0.10    0.24
  -5  -2  -4    0.01    0.41
  -5  -2  -4   -0.26    0.36
  -5  -2  -4   -0.09    0.44
  -5  -2  -4   -1.04    0.67
  -5  -2  -4   -0.13    0.26
  -6   1   0    0.37    0.28
  -6   1   0   -0.10    0.18
  -6   1   0   -0.16    0.35
  -6   1   0   -0.28    0.18
   6  -1   0    0.23    0.23
   6  -1   0    0.36    0.25
   6  -1   0    0.18    0.18
   6  -1   0    0.43    0.49
   6  -1   0    0.23    0.20
  -3   1   1   16.74    0.46
  -3   1   1   18.72    0.53
  -3   1   1   18.54    1.03
  -3   1   1   18.39    0.77
  -3   1   1   18.44    0.92
  -3   1   1   17.56    0.49
  -3   1   1   18.40    0.58
  -3   1   1   20.22    0.79
   3  -1  -1   19.01    0.75
   3  -1  -1   16.47    0.93
   3  -1  -1   18.62    0.69
   3  -1  -1   19.57    0.53
   3  -1  -1   17.04    0.68
   0   1   2   12.93    0.38
   0   1   2   12.51    0.32
   0   1   2   12.89    0.39
   0   1   2   12.52    0.39
   0  -1  -2   12.23    0.44
   0  -1  -2   12.20    0.40
   3   1   3    1.14    0.25
   3   1   3    0.61    0.33
   3   1   3    0.75    0.35
   3   1   3    0.56    0.21
   3   1   3    0.66    0.13
   3   1   3    1.04    0.24
  -3  -1  -3    1.02    0.24
  -3  -1  -3    1.30    0.43
  -3  -1  -3    0.93    0.25
  -3  -1  -3    1.28    0.37
  -3  -1  -3    0.96    0.11
  -3  -1  -3    1.42    0.35
  -3  -1  -3    0.57    0.19
  -3  -1  -3    0.79    0.14
  -3  -1  -3    0.79    0.24
   6   1   4    3.20    0.40
   6   1   4    3.12    0.48
   6   1   4    1.97    0.30
   6   1   4    3.34    0.59
   6   1   4    2.30    0.39
  -6  -1  -4    3.78    0.69
  -6  -1  -4    2.88    0.37
  -6  -1  -4    4.33    0.58
  -6  -1  -4    3.68    0.61
  -6  -1  -4    2.66    0.53
  -6  -1  -4    4.80    0.73
  -6  -1  -4    3.85    0.51
  -8   0  -1    0.20    0.42
   8   0   1    1.35    0.48
   8   0   1    0.29    0.31
   8   0   1    0.37    0.31
   8   0   1    0.50    0.66
  -5   0   0   11.85    0.84
  -5   0   0   11.78    0.85
  -5   0   0   11.72    0.77
  -5   0   0   11.40    0.50
  -5   0   0   11.90    0.65
  -5   0   0   11.29    0.49
  -5   0   0   11.81    1.20
  -5   0   0   10.78    0.94
  -5   0   0   11.14    0.45
   5   0   0   11.43    0.73
   5   0   0   11.91    0.74
   5   0   0   10.37    0.90
   5   0   0   11.75    0.72
   5   0   0   11.93    0.74
  -2   0   1   59.46    1.18
  -2   0   1   59.89    1.63
  -2   0   1   59.67    1.31
  -2   0   1   59.21    1.49
  -2   0   1   60.70    1.14
  -2   0   1   58.55    1.34
  -2   0   1   58.75    1.17
   2   0  -1   59.31    1.30
   2   0  -1   63.28    1.53
   2   0  -1   61.96    1.37
   2   0  -1   59.64    1.13
   2   0  -1   61.41    1.27
   2   0  -1   60.08    1.18
   2   0  -1   61.85    1.24
   1   0   2    9.67    0.40
   1   0   2    8.94    0.35
   1   0   2    9.85    0.39
   1   0   2    9.52    0.28
  -1   0  -2    9.56    0.28
  -1   0  -2    9.28    0.30
  -1   0  -2    9.22    0.39
  -1   0  -2    9.71    0.31
  -1   0  -2    8.81    0.37
   4   0   3    0.41    0.29
   4   0   3    0.48    0.16
   4   0   3    0.40    0.20
   4   0   3    0.77    0.24
   4   0   3    0.30    0.24
   4   0   3    0.44    0.18
  -4   0  -3    0.33    0.16
  -4   0  -3    0.56    0.24
  -4   0  -3    1.38    0.57
  -4   0  -3    0.21    0.27
  -4   0  -3    0.30    0.23
  -4   0  -3    0.74    0.25
  -4   0  -3    0.63    0.36
   7   0   4    0.80    0.30
   7   0   4    1.28    0.34
   7   0   4    0.86    0.43
   7   0   4    1.11    0.28
   7   0   4    1.41    0.35
  -7   0  -4    1.12    0.37
  -7   0  -4    1.00    0.30
  -7   0  -4    1.39    0.47
  -7   0  -4    0.33    0.42
  -7   0  -4    2.42    0.78
  -7  -1  -1    0.93    0.54
  -7  -1  -1    2.92    0.88
  -7  -1  -1    1.37    0.53
   7   1   1   -0.03    0.39
  -4  -1   0    2.65    0.89
  -4  -1   0    1.83    0.33
  -4  -1   0    1.52    0.27
  -4  -1   0    1.78    0.41
  -4  -1   0    1.12    0.28
  -4  -1   0    1.64    0.22
  -4  -1   0    2.19    0.31
  -4  -1   0    1.27    0.34
  -4  -1   0    1.31    0.51
  -4  -1   0    1.99    0.46
   4   1   0    2.08    0.32
   4   1   0    2.38    0.61
   4   1   0    1.56    0.30
   4   1   0    0.87    0.19
   4   1   0    1.51    0.21
   4   1   0    1.74    0.33
  -1  -1   1   38.34    0.94
  -1  -1   1   39.24    0.90
  -1  -1   1   39.62    0.71
  -1  -1   1   39.62    1.09
  -1  -1   1   39.01    0.91
  -1  -1   1   39.09    0.82
  -1  -1   1   37.51    0.69
  -1  -1   1   39.39    0.77
  -1  -1   1   37.64    1.02
   1   1  -1   37.37    0.76
   1   1  -1   37.79    0.71
   1   1  -1   40.01    0.92
   1   1  -1   40.07    0.83
   1   1  -1   38.65    1.08
   1   1  -1   39.35    0.91
   1   1  -1   37.95    0.82
   2  -1   2   34.19    0.97
   2  -1   2   37.15    1.01
   2  -1   2   35.02    0.88
  -2   1  -2   35.46    1.08
  -2   1  -2   35.26    0.82
  -2   1  -2   36.91    1.02
  -2   1  -2   36.45    0.91
  -2   1  -2   37.37    0.91
   5  -1   3    5.75    0.42
   5  -1   3    5.88    0.60
   5  -1   3    5.97    0.49
   5  -1   3    5.77    0.58
   5  -1   3    5.55    0.57
  -5   1  -3    6.36    0.54
  -5   1  -3    6.43    0.67
  -5   1  -3    5.91    0.72
  -5   1  -3    5.93    0.68
  -5   1  -3    6.03    0.53
  -5   1  -3    6.23    0.60
  -6  -2  -1    0.23    0.18
  -6  -2  -1    0.22    0.28
  -6  -2  -1    0.35    0.21
  -6  -2  -1    0.73    0.82
  -6  -2  -1    0.07    0.26
  -6  -2  -1    0.32    0.61
  -6  -2  -1    1.04    0.40
  -6  -2  -1    0.25    0.26
  -6  -2  -1    0.17    0.39
  -6  -2  -1    0.08    0.26
  -6  -2  -1    0.13    0.16
  -6  -2  -1    0.70    0.74
   6   2   1    0.46    0.29
   6   2   1   -0.19    0.45
   6   2   1    0.21    0.27
   6   2   1   -0.08    0.16
  -3  -2   0    1.47    0.39
  -3  -2   0    1.74    0.28
  -3  -2   0    0.73    0.19
  -3  -2   0    1.13    0.19
  -3  -2   0    1.99    0.53
  -3  -2   0    1.21    0.25
  -3  -2   0    2.01    0.58
  -3  -2   0    1.56    0.30
  -3  -2   0    1.89    0.55
  -3  -2   0    1.46    0.41
  -3  -2   0    1.38    0.19
  -3  -2   0    0.95    0.16
  -3  -2   0    0.76    0.18
   3   2   0    1.03    0.23
   3   2   0    1.24    0.24
   3   2   0    1.35    0.40
   3   2   0    1.45    0.37
   3   2   0    1.20    0.75
   3   2   0    1.34    0.22
   0  -2   1   31.57    0.74
   0  -2   1   30.54    0.87
   0  -2   1   33.73    0.77
   0  -2   1   31.25    0.72
   0   2  -1   31.36    0.88
   0   2  -1   32.83    0.75
   0   2  -1   32.58    0.74
   0   2  -1   32.33    0.76
   0   2  -1   31.27    0.74
   3  -2   2   10.54    0.71
   3  -2   2    9.95    0.63
   3  -2   2   10.28    0.62
   3  -2   2    9.86    0.54
  -3   2  -2    9.03    0.52
  -3   2  -2   11.07    0.62
  -3   2  -2    9.74    0.46
  -3   2  -2   10.38    0.66
  -3   2  -2   10.03    0.66
   6  -2   3    1.58    0.34
   6  -2   3    1.62    0.42
   6  -2   3    1.95    0.49
   6  -2   3    1.07    0.29
   6  -2   3    1.97    0.29
  -6   2  -3    1.77    0.39
  -6   2  -3    2.53    0.70
  -6   2  -3    1.56    0.41
  -6   2  -3    1.27    0.39
  -6   2  -3    3.54    0.81
  -6   2  -3    1.99    0.40
  -5  -3  -1    5.50    0.90
  -5  -3  -1    4.18    0.49
  -5  -3  -1    4.37    0.62
  -5  -3  -1    4.64    0.50
  -5  -3  -1    3.19    0.42
  -5  -3  -1    4.60    0.53
  -5  -3  -1    6.00    1.05
  -5  -3  -1    2.75    0.40
  -5  -3  -1    4.00    0.50
  -5  -3  -1    5.03    0.79
  -5  -3  -1    3.98    0.49
  -5  -3  -1    3.97    0.38
  -5  -3  -1    4.32    0.55
   5   3   1    4.75    0.55
   5   3   1    5.63    1.06
   5   3   1    3.96    0.49
   5   3   1    4.05    0.51
  -2  -3   0   17.62    0.65
  -2  -3   0   17.24    0.92
  -2  -3   0   17.38    0.67
  -2  -3   0   17.88    0.76
  -2  -3   0   16.88    0.64
  -2  -3   0   19.02    0.59
  -2  -3   0   17.20    0.81
  -2  -3   0   17.44    0.73
  -2  -3   0   17.38    0.60
  -2  -3   0   18.47    0.65
  -2  -3   0   16.73    0.67
  -2  -3   0   17.52    0.86
   2   3   0   16.96    0.81
   2   3   0   17.34    0.71
   2   3   0   17.60    0.64
   2   3   0   16.77    0.55
   2   3   0   17.69    0.75
   2   3   0   17.54    0.90
   2   3   0   17.77    0.87
   1  -3   1    0.43    0.13
   1  -3   1    0.78    0.15
   1  -3   1    0.69    0.16
   1  -3   1    0.47    0.18
  -1   3  -1    1.13    0.23
  -1   3  -1    0.59    0.17
  -1   3  -1    1.16    0.36
  -1   3  -1    0.75    0.17
   4  -3   2    1.32    0.29
   4  -3   2    1.83    0.39
   4  -3   2    1.80    0.55
   4  -3   2    2.07    0.28
   4  -3   2    2.11    0.43
   4  -3   2    1.96    0.29
  -4   3  -2    1.07    0.30
  -4   3  -2    1.58    0.33
  -4   3  -2    1.58    0.28
  -4   3  -2    0.81    0.25
  -4   3  -2    2.25    1.06
   7  -3   3   -0.25    0.15
   7  -3   3    0.02    0.30
   7  -3   3   -0.52    0.18
  -7   3  -3   -0.40    0.43
  -7   3  -3   -0.39    0.33
  -7   3  -3    0.43    0.35
  -7   3  -3   -0.42    0.26
  -7  -4  -2    0.14    0.31
  -7  -4  -2   -0.43    0.26
  -7  -4  -2    0.56    0.33
  -7  -4  -2    0.53    0.30
  -7  -4  -2    0.00    0.18
  -7  -4  -2   -0.03    0.22
  -7  -4  -2    0.24    0.21
   7   4   2    0.33    0.30
   7   4   2   -0.86    0.44
  -4  -4  -1    0.30    0.40
  -4  -4  -1    0.04    0.13
  -4  -4  -1    0.37    0.22
  -4  -4  -1    0.39    0.64
  -4  -4  -1    0.24    0.17
  -4  -4  -1    0.22    0.18
  -4  -4  -1    0.48    0.53
  -4  -4  -1    0.38    0.22
  -4  -4  -1    0.30    0.26
  -4  -4  -1    0.36    0.19
  -4  -4  -1    0.07    0.32
  -4  -4  -1    0.16    0.17
  -4  -4  -1    0.17    0.57
  -4  -4  -1   -0.09    0.16
   4   4   1    0.23    0.15
   4   4   1   -0.01    0.19
   4   4   1   -0.02    0.31
   4   4   1    0.24    0.26
  -1  -4   0  209.83    3.49
  -1  -4   0  208.54    3.28
  -1  -4   0  203.88    3.73
  -1  -4   0  205.48    3.98
  -1  -4   0  211.56    3.34
  -1  -4   0  207.18    3.54
  -1  -4   0  213.39    3.28
   1   4   0  213.32    3.35
   1   4   0  209.70    3.70
   1   4   0  206.19    3.98
   1   4   0  202.59    3.44
   1   4   0  206.35    3.76
   1   4   0  205.33    3.98
   2  -4   1    7.57    0.50
   2  -4   1    6.96    0.53
   2  -4   1    6.99    0.40
   2  -4   1    6.53    0.47
  -2   4  -1    6.92    0.58
  -2   4  -1    6.70    0.51
  -2   4  -1    6.43    0.46
  -2   4  -1    7.43    0.58
  -2   4  -1    7.56    0.50
   5  -4   2   -0.10    0.14
   5  -4   2   -0.24    0.16
   5  -4   2   -0.14    0.25
   5  -4   2    0.46    0.19
  -5   4  -2    0.18    0.37
  -5   4  -2   -0.13    0.24
  -5   4  -2   -0.01    0.24
  -5   4  -2   -0.02    0.20
  -6  -5  -2    0.87    0.29
  -6  -5  -2    0.49    0.49
  -6  -5  -2    1.80    0.69
  -6  -5  -2    1.39    0.39
  -6  -5  -2    2.11    0.75
  -6  -5  -2    0.76    0.35
  -6  -5  -2    1.02    0.36
  -6  -5  -2    0.64    0.30
  -6  -5  -2    1.03    0.29
  -6  -5  -2    1.15    0.28
  -6  -5  -2    0.74    0.24
  -3  -5  -1    5.93    0.89
  -3  -5  -1    5.57    0.50
  -3  -5  -1    5.08    0.53
  -3  -5  -1    5.10    0.61
  -3  -5  -1    6.13    0.47
  -3  -5  -1    5.33    0.63
  -3  -5  -1    5.40    0.48
  -3  -5  -1    6.49    0.57
  -3  -5  -1    4.37    0.71
  -3  -5  -1    5.48    0.83
  -3  -5  -1    5.28    0.47
  -3  -5  -1    4.79    0.54
   3   5   1    6.19    0.64
   3   5   1    5.10    0.66
   3   5   1    5.53    0.56
   3   5   1    5.75    0.64
   3   5   1    5.05    0.46
   0  -5   0   12.82    0.83
   0  -5   0   14.65    0.78
   0  -5   0   14.29    0.40
   0  -5   0   14.31    0.50
   0  -5   0   14.68    0.69
   0   5   0   14.01    0.83
   0   5   0   14.40    0.64
   0   5   0   15.15    0.55
   0   5   0   13.01    0.70
   3  -5   1    1.43    0.43
   3  -5   1    0.54    0.18
   3  -5   1    0.93    0.30
   3  -5   1    0.44    0.19
   3  -5   1    0.70    0.23
  -3   5  -1    1.52    0.45
  -3   5  -1    0.54    0.25
  -3   5  -1    1.05    0.31
  -3   5  -1    0.36    0.20
   6  -5   2    1.05    0.39
   6  -5   2    1.77    0.34
  -6   5  -2    0.88    0.34
  -6   5  -2    0.95    0.33
  -6   5  -2    1.56    0.45
  -6   5  -2    2.70    0.69
  -5  -6  -2    1.09    0.27
  -5  -6  -2    1.29    0.31
  -5  -6  -2    2.09    0.45
  -5  -6  -2    1.43    0.38
  -5  -6  -2    1.30    0.28
  -5  -6  -2    2.80    0.74
  -5  -6  -2    2.09    0.62
  -5  -6  -2    3.69    1.10
  -5  -6  -2    0.66    0.30
  -5  -6  -2    1.55    0.33
  -5  -6  -2    2.21    0.43
  -5  -6  -2    2.55    0.50
   5   6   2    1.97    0.58
  -2  -6  -1   13.32    1.01
  -2  -6  -1   11.74    0.69
  -2  -6  -1   12.42    0.61
  -2  -6  -1   13.08    0.53
  -2  -6  -1   13.57    0.61
  -2  -6  -1   13.37    0.69
  -2  -6  -1   13.39    0.85
  -2  -6  -1   13.30    0.77
  -2  -6  -1   13.00    1.12
   2   6   1   12.78    0.91
   2   6   1   12.38    0.64
   2   6   1   11.79    0.91
   2   6   1   13.57    0.87
   2   6   1   13.59    0.80
   1  -6   0    2.55    0.32
   1  -6   0    2.15    0.34
   1  -6   0    2.09    0.39
  -1   6   0    3.67    0.78
  -1   6   0    2.87    0.37
  -1   6   0    2.98    0.39
   4  -6   1    4.47    0.39
   4  -6   1    3.38    0.48
   4  -6   1    4.23    0.53
   4  -6   1    3.69    0.54
   4  -6   1    3.21    0.48
  -4   6  -1    2.74    0.42
  -4   6  -1    5.50    0.72
  -4   6  -1    4.67    0.59
   7  -6   2   -0.16    0.23
   7  -6   2    0.17    0.39
  -7   6  -2    0.32    0.35
  -7   6  -2   -0.82    0.39
  -7   6  -2   -0.33    0.34
  -4  -7  -2   14.60    0.95
  -4  -7  -2   14.31    1.46
  -4  -7  -2   12.81    0.81
  -4  -7  -2   13.88    0.81
  -4  -7  -2   14.21    0.90
  -4  -7  -2   13.48    1.15
  -4  -7  -2   12.96    0.77
  -4  -7  -2   12.18    0.80
  -4  -7  -2   11.68    0.81
   4   7   2   13.27    1.12
   4   7   2   12.93    0.96
   4   7   2   12.63    1.03
   4   7   2   13.42    1.11
  -1  -7  -1    4.98    0.46
  -1  -7  -1    4.89    0.54
  -1  -7  -1    4.07    0.47
  -1  -7  -1    5.78    0.97
  -1  -7  -1    4.56    0.52
  -1  -7  -1    4.36    0.35
   1   7   1    3.92    0.66
   1   7   1    4.45    0.53
   1   7   1    4.35    0.46
   1   7   1    4.78    0.84
   1   7   1    3.59    0.54
   2  -7   0    0.57    0.23
   2  -7   0    0.60    0.25
   2  -7   0    0.67    0.33
  -2   7   0    0.72    0.27
  -2   7   0    0.44    0.23
  -2   7   0    0.66    0.56
   5  -7   1    1.02    0.28
   5  -7   1    2.26    0.58
   5  -7   1    2.14    0.28
   5  -7   1    1.93    0.42
  -5   7  -1    3.51    0.81
  -5   7  -1    1.28    0.41
  -5   7  -1    2.50    0.54
  -5   7  -1    1.29    0.42
  -6  -8  -3    1.71    0.62
  -3  -8  -2    4.77    0.66
  -3  -8  -2    4.19    0.50
  -3  -8  -2    3.83    0.51
  -3  -8  -2    3.10    0.48
  -3  -8  -2    3.73    0.51
  -3  -8  -2    4.42    0.53
  -3  -8  -2    5.22    0.74
  -3  -8  -2    6.43    1.27
  -3  -8  -2    3.83    0.54
   3   8   2    6.47    1.08
   3   8   2    4.14    0.59
   3   8   2    5.45    1.08
   3   8   2    4.11    0.70
   0  -8  -1    0.31    0.29
   0  -8  -1    0.04    0.21
   0  -8  -1    0.13    0.12
   0  -8  -1    0.24    0.22
   0  -8  -1    0.04    0.26
   0   8   1   -0.12    0.38
   0   8   1    0.88    0.47
   0   8   1    0.11    0.26
   0   8   1    1.13    0.69
   3  -8   0    0.09    0.23
   3  -8   0   -0.08    0.28
   3  -8   0    0.15    0.22
   3  -8   0    0.11    0.19
   3  -8   0   -0.15    0.21
  -3   8   0   -0.30    0.51
  -3   8   0    0.22    0.24
  -3   8   0   -0.16    0.22
   6  -8   1    0.07    0.21
   6  -8   1    0.87    0.51
   6  -8   1    0.62    0.21
  -6   8  -1    0.29    0.49
  -6   8  -1    0.52    0.38
  -6   8  -1    0.15    0.66
  -6   8  -1    0.25    0.43
  -5  -9  -3    3.53    2.00
  -5  -9  -3    0.61    0.35
  -5  -9  -3    0.88    0.34
  -5  -9  -3    0.11    0.32
  -5  -9  -3    1.48    0.52
  -5  -9  -3    0.17    0.31
   5   9   3    0.88    0.54
   5   9   3    1.07    0.56
  -2  -9  -2   30.69    1.30
  -2  -9  -2   29.84    0.90
  -2  -9  -2   29.87    1.87
  -2  -9  -2   27.66    1.39
  -2  -9  -2   30.46    1.25
  -2  -9  -2   30.66    1.29
  -2  -9  -2   31.52    1.39
   2   9   2   28.80    1.18
   2   9   2   29.96    1.51
   2   9   2   30.34    1.55
   2   9   2   30.61    1.71
   2   9   2   30.66    1.37
   1  -9  -1    5.42    0.63
   1  -9  -1    6.04    0.70
   1  -9  -1    7.39    0.61
   1  -9  -1    6.45    0.49
   1  -9  -1    6.80    0.48
  -1   9   1    7.13    0.59
  -1   9   1    6.61    0.85
  -1   9   1    5.67    0.61
   4  -9   0    2.31    0.56
   4  -9   0    2.05    0.36
   4  -9   0    3.48    0.48
   4  -9   0    1.31    0.40
  -4   9   0    1.67    0.44
  -4   9   0    2.11    0.52
  -4   9   0    2.94    0.95
  -4 -10  -3   -0.37    0.28
  -4 -10  -3   -0.41    0.28
  -4 -10  -3    0.10    0.24
  -4 -10  -3    0.00    0.34
  -4 -10  -3    0.72    0.44
   4  10   3    0.12    0.38
   4  10   3    0.21    0.42
   4  10   3    0.74    0.59
   4  10   3   -0.06    0.37
  -1 -10  -2    1.13    0.34
  -1 -10  -2    0.40    0.32
  -1 -10  -2    1.04    0.33
  -1 -10  -2    0.92    0.30
  -1 -10  -2    1.05    0.37
  -1 -10  -2    0.87    0.26
   1  10   2    1.29    0.65
   1  10   2    1.07    0.52
   1  10   2    0.60    0.27
   1  10   2    1.22    0.49
   1  10   2    1.59    0.69
   2 -10  -1    1.77    0.41
   2 -10  -1    2.63    0.42
   2 -10  -1    3.55    0.55
   2 -10  -1    2.71    0.36
   2 -10  -1    1.86    0.46
  -2  10   1    3.56    0.98
  -2  10   1    3.23    0.86
  -2  10   1    1.96    0.38
   5 -10   0   -0.25    0.22
   5 -10   0    0.77    0.34
   5 -10   0    0.31    0.25
  -5  10   0    0.98    0.66
  -5  10   0   -0.63    0.30
  -3 -11  -3   -0.02    0.25
  -3 -11  -3    0.14    0.35
  -3 -11  -3   -0.16    0.33
  -3 -11  -3   -0.21    0.23
  -3 -11  -3    0.80    0.30
  -3 -11  -3    0.02    0.28
  -3 -11  -3    0.29    0.32
   3  11   3    0.62    0.49
   3  11   3    0.07    0.46
   3  11   3    0.06    0.39
   3  11   3    0.63    0.58
   0 -11  -2    0.02    0.22
   0 -11  -2   -0.03    0.24
   0 -11  -2   -0.44    0.26
   0 -11  -2   -0.63    0.21
   0  11   2    0.15    0.55
   0  11   2    0.48    0.61
   0  11   2   -0.49    0.36
   3 -11  -1    0.78    0.33
   3 -11  -1    0.76    0.23
   3 -11  -1    0.87    0.36
   3 -11  -1    0.94    0.42
  -3  11   1    0.90    0.60
  -3  11   1   -0.03    0.31
  -2 -12  -3   -0.38    0.25
  -2 -12  -3    0.15    0.38
  -2 -12  -3   -0.29    0.24
  -2 -12  -3    0.73    0.37
  -2 -12  -3    0.09    0.28
   2  12   3    0.24    0.54
   2  12   3   -0.35    0.35
   2  12   3   -0.11    0.36
   2  12   3    0.73    0.53
   1 -12  -2    0.05    0.28
   1 -12  -2    0.41    0.37
   1 -12  -2    0.32    0.30
  -1  12   2    0.17    0.59
  -1  12   2    0.54    0.52
  -1  12   2   -0.69    0.65
  -1 -13  -3    0.35    0.34
  -1 -13  -3    0.42    0.49
  -1 -13  -3   -1.03    0.42
   1  13   3   -0.06    0.43
   1  13   3    0.08    0.62
   1  13   3   -0.17    0.43
   1  13   3    1.50    0.53
   2 -13  -2    0.05    0.29
   2 -13  -2   -0.54    0.25
  -2  13   2    1.50    0.83
  -1  13   6    0.56    0.64
  -1  13   6   -0.11    0.33
  -1  13   6    0.67    0.55
   1 -13  -6   -0.17    0.34
   1 -13  -6   -0.15    0.33
   1 -13  -6    0.65    0.34
   2  13   7    1.00    0.44
   2  13   7    1.42    0.80
   2  13   7    1.05    0.69
  -2 -13  -7    1.04    0.41
  -2 -13  -7    0.03    0.30
  -2 -13  -7    0.35    0.47
  -2 -13  -7    2.06    0.52
  -3  12   5    0.47    0.79
  -3  12   5    0.18    0.31
   3 -12  -5   -0.19    0.33
   3 -12  -5    0.78    0.46
   3 -12  -5    1.64    0.42
   0  12   6    0.73    0.42
   0  12   6    0.40    0.65
   0  12   6    0.43    0.34
   0 -12  -6   -0.29    0.22
   0 -12  -6    0.17    0.32
   0 -12  -6   -0.06    0.22
   3  12   7   -0.28    0.32
   3  12   7    0.66    0.52
   3  12   7    0.72    0.55
  -3 -12  -7    0.44    0.31
  -3 -12  -7    0.60    0.36
  -3 -12  -7    2.20    0.54
  -2  11   5    0.09    0.31
  -2  11   5    0.75    0.60
   2 -11  -5   -0.21    0.24
   2 -11  -5    0.27    0.40
   2 -11  -5    0.22    0.63
   2 -11  -5    0.60    0.33
   1  11   6   10.49    0.76
   1  11   6   11.53    1.62
   1  11   6   10.27    1.13
  -1 -11  -6   11.34    0.91
  -1 -11  -6   11.66    0.80
  -1 -11  -6    9.55    0.83
  -1 -11  -6   10.63    0.68
   4  11   7   -0.10    0.40
   4  11   7    0.33    0.50
  -4 -11  -7   -0.37    0.20
  -4 -11  -7    0.06    0.30
  -4 -11  -7    1.10    0.47
  -4  10   4    0.96    0.46
  -4  10   4    0.03    0.26
  -4  10   4    0.15    0.28
   4 -10  -4    0.43    0.34
   4 -10  -4    0.20    0.21
   4 -10  -4    0.42    0.25
   4 -10  -4    0.43    0.41
   4 -10  -4    0.57    0.30
  -1  10   5    0.20    0.53
  -1  10   5    0.33    0.27
   1 -10  -5   -0.21    0.36
   1 -10  -5    0.20    0.23
   1 -10  -5   -0.04    0.26
   1 -10  -5   -0.12    0.26
   2  10   6    5.51    0.61
   2  10   6    4.59    0.58
   2  10   6    6.53    1.03
   2  10   6    5.31    0.79
  -2 -10  -6    4.11    0.53
  -2 -10  -6    4.43    0.60
  -2 -10  -6    3.45    0.43
  -2 -10  -6    5.42    0.60
  -2 -10  -6    5.02    0.54
   5  10   7    1.30    0.55
   5  10   7    2.81    0.93
  -5 -10  -7    4.34    1.99
  -5 -10  -7    0.82    0.32
  -5 -10  -7    3.71    0.97
  -5 -10  -7    0.03    0.26
  -5 -10  -7    1.02    0.49
  -5 -10  -7    0.40    0.20
  -5 -10  -7    0.17    1.13
  -6   9   3   -0.76    0.31
  -6   9   3   -0.55    0.29
  -6   9   3   -0.31    0.36
   6  -9  -3    0.37    0.45
   6  -9  -3    0.06    0.28
   6  -9  -3    0.32    0.24
   6  -9  -3   -0.38    0.28
  -3   9   4    6.42    0.64
  -3   9   4    6.99    0.79
  -3   9   4    5.93    0.61
   3  -9  -4    5.07    0.58
   3  -9  -4    6.36    0.65
   3  -9  -4    6.26    0.73
   3  -9  -4    5.89    0.46
   0   9   5    1.29    0.41
   0   9   5    1.97    0.54
   0   9   5    1.47    0.67
   0   9   5    1.19    0.40
   0  -9  -5    1.25    0.36
   0  -9  -5    1.15    0.39
   0  -9  -5    0.67    0.25
   0  -9  -5    0.92    0.29
   3   9   6    4.69    0.73
   3   9   6    3.75    0.53
   3   9   6    5.60    1.03
   3   9   6    3.46    0.51
   3   9   6    3.90    0.65
  -3  -9  -6    6.74    1.08
  -3  -9  -6    3.07    0.49
  -3  -9  -6    4.26    0.66
  -3  -9  -6    4.16    0.64
  -3  -9  -6    3.46    0.47
  -3  -9  -6    2.70    0.64
  -3  -9  -6    2.72    0.34
  -5   8   3    5.67    0.76
  -5   8   3    6.08    0.68
  -5   8   3    7.51    0.91
   5  -8  -3    6.81    0.81
   5  -8  -3    5.86    0.59
   5  -8  -3    6.31    0.58
   5  -8  -3    5.79    0.51
  -2   8   4    0.48    0.31
  -2   8   4    0.38    0.20
  -2   8   4    0.10    0.23
   2  -8  -4    0.45    0.24
   2  -8  -4   -0.05    0.24
   2  -8  -4    0.83    0.30
   1   8   5    0.31    0.31
   1   8   5   -0.03    0.43
   1   8   5    0.49    0.42
   1   8   5    0.45    0.30
   1   8   5    0.18    0.18
   1   8   5    0.33    0.28
  -1  -8  -5    0.13    0.23
  -1  -8  -5    0.32    0.29
  -1  -8  -5    0.11    0.30
  -1  -8  -5    0.03    0.19
   4   8   6    0.74    0.46
   4   8   6    0.50    0.49
   4   8   6    0.46    0.34
   4   8   6    0.12    0.25
  -4  -8  -6    0.38    0.56
  -4  -8  -6    0.14    0.30
  -4  -8  -6    0.03    0.20
  -4  -8  -6    0.26    0.42
  -4  -8  -6    0.17    0.66
  -4  -8  -6    0.17    0.23
  -4  -8  -6    0.25    0.30
  -4  -8  -6    0.93    0.77
  -4  -8  -6   -0.24    0.22
  -4   7   3    1.69    0.40
  -4   7   3    3.30    0.48
  -4   7   3    1.97    0.37
   4  -7  -3    4.32    0.84
   4  -7  -3    1.91    0.44
   4  -7  -3    2.90    0.40
   4  -7  -3    2.38    0.41
   4  -7  -3    2.99    0.38
  -1   7   4    5.52    0.36
  -1   7   4    4.48    0.54
  -1   7   4    5.19    0.73
  -1   7   4    5.26    0.58
   1  -7  -4    5.01    0.51
   1  -7  -4    4.47    0.43
   1  -7  -4    4.85    0.53
   2   7   5    0.17    0.37
   2   7   5    0.08    0.28
   2   7   5    0.13    0.26
   2   7   5   -0.30    0.34
   2   7   5    0.19    0.26
   2   7   5    0.48    0.23
  -2  -7  -5    0.19    0.15
  -2  -7  -5    0.28    0.24
  -2  -7  -5    0.15    0.15
  -2  -7  -5   -0.04    0.21
  -2  -7  -5    0.29    0.24
  -2  -7  -5    0.00    0.19
   5   7   6    0.33    0.33
   5   7   6   -0.02    0.25
   5   7   6    0.45    0.51
  -5  -7  -6    0.70    0.39
  -5  -7  -6    0.12    0.60
  -5  -7  -6    0.31    0.45
  -5  -7  -6    0.33    0.29
  -5  -7  -6   -0.07    0.17
  -5  -7  -6    0.29    0.30
  -5  -7  -6   -0.12    0.45
  -5  -7  -6    0.98    0.43
  -5  -7  -6   -0.30    0.19
  -5  -7  -6    0.04    0.15
  -6   6   2    0.57    0.32
  -6   6   2    0.05    0.26
  -6   6   2   -0.13    0.26
   6  -6  -2    0.06    0.23
   6  -6  -2    1.38    0.82
   6  -6  -2    0.12    0.23
   6  -6  -2    0.07    0.19
   6  -6  -2    0.02    0.33
  -3   6   3    0.99    0.26
  -3   6   3    0.71    0.27
  -3   6   3    1.12    0.28
   3  -6  -3    0.66    0.28
   3  -6  -3    0.66    0.23
   3  -6  -3    1.89    0.56
   3  -6  -3    1.13    0.20
   3  -6  -3    1.12    0.27
   0   6   4    1.18    0.22
   0   6   4    1.10    0.22
   0   6   4    1.81    0.32
   0   6   4    1.92    0.62
   0   6   4    0.86    0.21
   0  -6  -4    0.83    0.27
   0  -6  -4    1.15    0.22
   0  -6  -4    1.15    0.22
   0  -6  -4    0.77    0.23
   3   6   5    0.80    0.26
   3   6   5    1.91    0.51
   3   6   5    0.96    0.32
   3   6   5    0.96    0.44
  -3  -6  -5    1.60    0.47
  -3  -6  -5    0.77    0.26
  -3  -6  -5    1.61    0.50
  -3  -6  -5    1.13    0.38
  -3  -6  -5    1.23    0.31
  -3  -6  -5    0.97    0.23
  -3  -6  -5    1.87    0.40
  -3  -6  -5    0.95    0.23
  -3  -6  -5    1.93    0.64
  -3  -6  -5    0.86    0.18
  -3  -6  -5    1.26    0.56
   6   6   6    1.10    0.37
  -6  -6  -6    0.56    0.30
  -6  -6  -6    0.56    0.69
  -6  -6  -6    1.88    0.49
  -6  -6  -6    0.53    0.26
  -6  -6  -6    2.53    0.73
  -6  -6  -6    0.25    0.31
  -6  -6  -6    1.49    0.69
  -5   5   2    0.08    0.23
  -5   5   2    0.00    0.22
  -5   5   2    0.10    0.20
  -5   5   2   -0.46    0.48
   5  -5  -2    0.19    0.17
   5  -5  -2    0.37    0.28
   5  -5  -2    0.07    0.19
   5  -5  -2    0.24    0.20
   5  -5  -2    0.02    0.36
   5  -5  -2    0.45    0.22
  -2   5   3    1.22    0.25
  -2   5   3    1.12    0.24
  -2   5   3    0.72    0.19
   2  -5  -3    0.69    0.19
   2  -5  -3    1.92    0.47
   2  -5  -3    1.33    0.22
   2  -5  -3    1.32    0.25
   1   5   4   40.30    1.40
   1   5   4   40.89    1.10
   1   5   4   39.55    1.05
  -1  -5  -4   40.01    1.17
  -1  -5  -4   40.17    0.97
  -1  -5  -4   38.67    1.07
  -1  -5  -4   41.24    1.33
   4   5   5    1.96    0.38
   4   5   5    2.97    0.50
   4   5   5    2.51    0.57
   4   5   5    2.74    0.49
  -4  -5  -5    3.21    0.48
  -4  -5  -5    2.75    0.44
  -4  -5  -5    3.37    0.62
  -4  -5  -5    3.94    0.77
  -4  -5  -5    4.21    0.78
  -4  -5  -5    4.98    0.99
  -4  -5  -5    2.56    0.30
  -4  -5  -5    2.55    0.36
  -4  -5  -5    2.53    0.41
  -4  -5  -5    4.05    0.61
  -4  -5  -5    2.31    0.46
  -7  -5  -6    2.30    0.67
  -7   4   1   -0.36    0.24
  -7   4   1   -0.07    0.29
  -7   4   1   -0.47    0.22
  -7   4   1    0.96    0.46
   7  -4  -1   -0.19    0.23
   7  -4  -1   -0.08    0.23
   7  -4  -1    0.40    0.57
   7  -4  -1    0.06    0.29
  -4   4   2    2.61    0.37
  -4   4   2    3.94    0.62
  -4   4   2    3.78    0.38
   4  -4  -2    3.82    0.36
   4  -4  -2    4.00    0.42
   4  -4  -2    3.78    0.48
   4  -4  -2    3.49    0.34
   4  -4  -2    3.95    0.61
  -1   4   3   37.02    0.72
  -1   4   3   36.34    0.88
  -1   4   3   37.67    1.01
  -1   4   3   36.86    0.94
   1  -4  -3   36.50    1.00
   1  -4  -3   35.05    0.87
   1  -4  -3   37.26    0.95
   2   4   4    6.14    0.90
   2   4   4    4.42    0.47
   2   4   4    4.81    0.68
   2   4   4    4.16    0.48
   2   4   4    4.43    0.32
  -2  -4  -4    4.73    0.34
  -2  -4  -4    4.22    0.45
  -2  -4  -4    4.41    0.42
  -2  -4  -4    4.99    0.44
  -2  -4  -4    4.47    0.39
  -2  -4  -4    4.88    0.42
  -2  -4  -4    4.42    0.41
  -2  -4  -4    4.82    0.53
   5   4   5   -0.19    0.20
   5   4   5   -0.08    0.30
   5   4   5   -0.08    0.21
   5   4   5   -0.26    0.22
  -5  -4  -5   -0.20    0.35
  -5  -4  -5    0.18    0.21
  -5  -4  -5    0.10    0.14
  -5  -4  -5    0.44    0.31
  -5  -4  -5    0.18    0.72
  -5  -4  -5    0.10    0.16
  -5  -4  -5    0.05    0.23
  -5  -4  -5    0.09    0.29
  -5  -4  -5   -0.05    0.19
  -5  -4  -5   -0.07    0.46
  -5  -4  -5   -0.23    0.32
  -5  -4  -5   -0.08    0.50
  -6   3   1    0.73    0.43
  -6   3   1    0.69    0.29
  -6   3   1    0.29    0.26
  -6   3   1    0.84    0.42
  -6   3   1    0.83    0.23
   6  -3  -1    0.31    0.20
   6  -3  -1    0.55    0.26
   6  -3  -1    0.62    0.31
   6  -3  -1    0.48    0.26
   6  -3  -1    0.92    0.54
  -3   3   2    0.88    0.22
  -3   3   2    0.56    0.20
  -3   3   2    1.11    0.20
  -3   3   2    1.12    0.44
   3  -3  -2    0.62    0.16
   3  -3  -2    1.64    0.21
   3  -3  -2    1.10    0.20
   3  -3  -2    1.47    0.50
   0   3   3  152.29    2.43
   0   3   3  150.64    2.34
   0   3   3  144.59    2.50
   0   3   3  146.52    2.40
   0   3   3  148.13    2.27
   0  -3  -3  148.97    2.42
   0  -3  -3  148.11    2.51
   0  -3  -3  147.99    2.52
   3   3   4   27.71    0.97
   3   3   4   26.98    0.89
   3   3   4   26.42    0.98
   3   3   4   26.64    0.94
   3   3   4   25.60    0.98
   3   3   4   27.03    0.94
  -3  -3  -4   27.25    1.18
  -3  -3  -4   26.85    1.16
  -3  -3  -4   25.71    1.00
  -3  -3  -4   28.31    0.69
  -3  -3  -4   25.59    1.05
  -3  -3  -4   26.61    0.94
  -3  -3  -4   26.27    1.02
  -3  -3  -4   25.83    0.92
  -3  -3  -4   25.79    0.97
  -3  -3  -4   25.79    0.94
  -3  -3  -4   26.39    0.90
   6   3   5    6.40    0.79
   6   3   5    6.42    0.71
   6   3   5    6.23    0.59
   6   3   5    6.36    0.64
  -6  -3  -5    6.41    0.72
  -6  -3  -5    5.55    0.81
  -6  -3  -5    5.81    0.64
  -6  -3  -5    6.84    1.05
  -6  -3  -5    6.03    0.54
  -6  -3  -5    6.45    0.72
  -6  -3  -5    6.62    0.81
  -6  -3  -5    8.04    1.04
  -5   2   1    1.18    0.33
  -5   2   1    0.85    0.21
  -5   2   1    0.75    0.27
  -5   2   1    2.17    0.77
  -5   2   1    1.28    0.48
  -5   2   1    1.32    0.80
   5  -2  -1    0.66    0.23
   5  -2  -1    1.44    0.60
   5  -2  -1    0.89    0.35
   5  -2  -1    0.71    0.26
   5  -2  -1    1.00    0.17
   5  -2  -1    0.81    0.28
  -2   2   2   48.46    0.89
  -2   2   2   44.58    1.30
  -2   2   2   46.78    1.18
  -2   2   2   46.84    1.00
  -2   2   2   45.11    0.88
   2  -2  -2   46.00    1.16
   2  -2  -2   46.88    0.89
   2  -2  -2   47.70    1.34
   2  -2  -2   45.03    0.98
   1   2   3   11.66    0.47
   1   2   3   11.38    0.51
   1   2   3   14.17    0.45
   1   2   3   11.41    0.48
   1   2   3   11.88    0.42
   1   2   3   13.09    0.54
  -1  -2  -3   11.97    0.50
  -1  -2  -3   12.85    0.44
  -1  -2  -3   11.93    0.44
  -1  -2  -3   13.09    0.49
   4   2   4    0.14    0.22
   4   2   4    0.08    0.20
   4   2   4    0.07    0.15
   4   2   4    0.33    0.21
   4   2   4    0.18    0.16
   4   2   4   -0.05    0.09
  -4  -2  -4   -0.03    0.28
  -4  -2  -4   -0.08    0.22
  -4  -2  -4    0.26    0.23
  -4  -2  -4    0.17    0.22
  -4  -2  -4    0.30    0.19
  -4  -2  -4    0.09    0.12
  -4  -2  -4   -0.07    0.27
  -4  -2  -4    0.69    0.46
  -4  -2  -4   -0.01    0.33
   7   2   5    1.44    0.48
   7   2   5    1.46    0.37
   7   2   5    0.98    0.37
   7   2   5    0.47    0.24
  -7  -2  -5    0.67    0.27
  -7  -2  -5    1.13    0.37
  -7  -2  -5    1.48    0.36
  -7  -2  -5    3.00    0.75
  -7   1   0    0.50    0.42
  -7   1   0   -0.07    0.32
  -7   1   0   -0.53    0.23
  -7   1   0   -0.11    0.46
   7  -1   0   -0.27    0.22
   7  -1   0   -0.06    0.28
   7  -1   0    0.16    0.23
   7  -1   0    0.50    0.52
  -4   1   1    0.20    0.12
  -4   1   1    0.22    0.17
  -4   1   1    0.22    0.20
  -4   1   1    0.83    0.35
  -4   1   1    0.56    0.18
  -4   1   1    0.34    0.14
   4  -1  -1    0.03    0.18
   4  -1  -1    0.22    0.16
   4  -1  -1    0.63    0.42
   4  -1  -1    0.28    0.12
   4  -1  -1    0.11    0.19
   4  -1  -1    0.39    0.20
  -1   1   2    5.18    0.39
  -1   1   2    5.53    0.30
  -1   1   2    5.52    0.30
  -1   1   2    5.36    0.32
   1  -1  -2    5.46    0.20
   1  -1  -2    5.09    0.31
   1  -1  -2    5.91    0.29
   1  -1  -2    5.44    0.25
   1  -1  -2    5.17    0.40
   2   1   3   15.52    0.58
   2   1   3   15.29    0.56
   2   1   3   15.06    0.41
   2   1   3   14.33    0.59
   2   1   3   15.04    0.62
   2   1   3   14.88    0.58
   2   1   3   14.72    0.57
  -2  -1  -3   15.07    0.56
  -2  -1  -3   14.81    0.56
  -2  -1  -3   15.13    0.42
  -2  -1  -3   15.07    0.59
  -2  -1  -3   14.78    0.49
  -2  -1  -3   14.61    0.60
  -2  -1  -3   14.88    0.41
  -2  -1  -3   14.98    0.61
  -2  -1  -3   14.99    0.57
   5   1   4    5.92    0.48
   5   1   4    4.98    0.56
   5   1   4    6.05    0.48
   5   1   4    5.36    0.59
   5   1   4    5.41    0.55
  -5  -1  -4    5.52    0.73
  -5  -1  -4    5.70    0.61
  -5  -1  -4    6.65    0.53
  -5  -1  -4    5.54    0.65
  -5  -1  -4    4.90    0.51
  -5  -1  -4    5.27    0.66
  -5  -1  -4    5.11    0.55
  -6   0   0    0.63    0.51
  -6   0   0   -0.03    0.20
  -6   0   0    0.43    0.47
  -6   0   0    0.31    0.29
  -6   0   0    0.28    0.18
  -6   0   0   -0.08    0.16
  -6   0   0   -0.06    0.22
  -6   0   0    0.26    0.13
   6   0   0    0.42    0.57
   6   0   0    0.43    0.21
   6   0   0    0.22    0.19
   6   0   0    0.75    0.32
   6   0   0    0.54    0.26
  -3   0   1    0.33    0.14
  -3   0   1    0.87    0.32
  -3   0   1    0.32    0.13
  -3   0   1    0.64    0.16
  -3   0   1    0.74    0.34
  -3   0   1    0.98    0.42
   3   0  -1    0.51    0.12
   3   0  -1    0.04    0.16
   3   0  -1    0.50    0.16
   3   0  -1    0.47    0.33
   3   0  -1    0.78    0.20
   3   0  -1    0.82    0.18
   0   0   2  202.19    3.08
   0   0   2  196.07    3.13
   0   0   2  200.92    2.98
   0   0  -2  204.55    2.98
   0   0  -2  198.37    3.08
   0   0  -2  211.43    3.16
   3   0   3    0.85    0.22
   3   0   3    0.29    0.14
   3   0   3    0.53    0.14
   3   0   3    0.37    0.21
   3   0   3    0.21    0.28
   3   0   3    0.50    0.19
  -3   0  -3    0.47    0.22
  -3   0  -3    0.49    0.25
  -3   0  -3    0.49    0.18
  -3   0  -3    0.48    0.14
  -3   0  -3    0.55    0.23
  -3   0  -3    0.82    0.40
   6   0   4    2.57    0.44
   6   0   4    2.17    0.32
   6   0   4    1.32    0.31
   6   0   4    3.02    0.39
   6   0   4    3.47    0.61
  -6   0  -4    3.70    0.52
  -6   0  -4    2.28    0.37
  -6   0  -4    4.46    0.86
  -6   0  -4    3.38    0.48
  -6   0  -4    4.71    1.06
  -6   0  -4    2.20    0.43
   8   1   1    1.48    0.47
  -5  -1   0   24.38    1.01
  -5  -1   0   26.51    1.09
  -5  -1   0   24.77    0.76
  -5  -1   0   26.04    1.38
  -5  -1   0   24.78    1.19
  -5  -1   0   25.49    1.17
  -5  -1   0   24.94    1.60
  -5  -1   0   23.75    0.81
  -5  -1   0   24.77    1.23
  -5  -1   0   24.57    0.71
  -5  -1   0   24.66    1.29
   5   1   0   24.30    1.06
   5   1   0   24.51    1.07
   5   1   0   24.50    1.06
   5   1   0   23.16    0.99
   5   1   0   24.40    1.33
  -2  -1   1    6.43    0.41
  -2  -1   1    6.45    0.35
  -2  -1   1    6.05    0.41
  -2  -1   1    6.66    0.31
  -2  -1   1    6.34    0.35
  -2  -1   1    6.32    0.49
  -2  -1   1    5.89    0.56
  -2  -1   1    5.95    0.35
  -2  -1   1    6.28    0.23
   2   1  -1    5.85    0.46
   2   1  -1    6.42    0.34
   2   1  -1    6.00    0.42
   2   1  -1    6.35    0.39
   2   1  -1    6.22    0.34
   2   1  -1    6.53    0.31
   2   1  -1    5.81    0.55
   1  -1   2  118.27    1.87
   1  -1   2  120.76    2.04
   1  -1   2  116.29    2.02
   1  -1   2  109.66    2.05
   1  -1   2  116.61    1.97
  -1   1  -2  120.01    1.88
  -1   1  -2  120.19    1.88
  -1   1  -2  114.49    2.01
  -1   1  -2  117.66    2.07
   4  -1   3    2.61    0.41
   4  -1   3    3.48    0.39
   4  -1   3    3.29    0.32
   4  -1   3    2.98    0.41
   4  -1   3    2.08    0.31
   4  -1   3    3.66    0.40
  -4   1  -3    4.85    0.84
  -4   1  -3    3.37    0.38
  -4   1  -3    2.63    0.39
  -4   1  -3    2.99    0.43
  -4   1  -3    3.10    0.39
  -4   1  -3    3.57    0.43
   7  -1   4   -0.02    0.22
   7  -1   4    0.36    0.27
   7  -1   4    0.46    0.27
   7  -1   4    0.47    0.34
  -7   1  -4   -0.12    0.23
  -7   1  -4    0.14    0.29
  -7   1  -4    0.36    0.62
  -7   1  -4    0.46    0.32
  -7  -2  -1    0.15    0.21
  -7  -2  -1    1.39    0.48
  -7  -2  -1   -0.54    0.30
  -7  -2  -1   -0.05    0.24
  -7  -2  -1    0.08    0.14
  -7  -2  -1    0.10    0.25
  -7  -2  -1   -0.12    0.21
  -7  -2  -1    0.32    0.18
   7   2   1   -0.08    0.18
   7   2   1    0.13    0.27
   7   2   1    0.30    0.48
   7   2   1    0.37    0.29
  -4  -2   0    0.65    0.44
  -4  -2   0    0.47    0.25
  -4  -2   0    0.44    0.23
  -4  -2   0    0.62    0.33
  -4  -2   0    0.31    0.17
  -4  -2   0    0.37    0.49
  -4  -2   0    0.55    0.15
  -4  -2   0    0.62    0.42
  -4  -2   0    0.25    0.22
  -4  -2   0    0.14    0.45
  -4  -2   0    0.31    0.18
  -4  -2   0    0.49    0.24
  -4  -2   0    0.41    0.16
   4   2   0    0.46    0.39
   4   2   0    0.15    0.18
   4   2   0    0.29    0.25
   4   2   0    0.34    0.23
  -1  -2   1  166.53    3.08
  -1  -2   1  168.25    2.77
  -1  -2   1  160.42    3.13
  -1  -2   1  162.81    2.73
  -1  -2   1  169.87    2.66
  -1  -2   1  165.61    2.92
   1   2  -1  165.47    3.08
   1   2  -1  169.59    2.70
   1   2  -1  165.88    2.64
   1   2  -1  169.87    2.94
   1   2  -1  164.56    3.15
   1   2  -1  169.74    2.90
   1   2  -1  170.90    2.77
   1   2  -1  168.33    2.75
   2  -2   2    2.03    0.33
   2  -2   2    1.35    0.22
   2  -2   2    0.95    0.17
   2  -2   2    0.94    0.18
  -2   2  -2    1.60    0.19
  -2   2  -2    1.32    0.24
  -2   2  -2    1.88    0.29
  -2   2  -2    1.06    0.20
   5  -2   3    1.83    0.32
   5  -2   3    1.93    0.31
   5  -2   3    0.96    0.31
   5  -2   3    1.16    0.31
   5  -2   3    1.36    0.30
   5  -2   3    1.65    0.36
  -5   2  -3    1.52    0.33
  -5   2  -3    1.91    0.37
  -5   2  -3    2.00    0.70
  -5   2  -3    1.39    0.35
  -5   2  -3    2.04    0.39
  -6  -3  -1    0.43    0.19
  -6  -3  -1    0.18    0.47
  -6  -3  -1    0.43    0.30
  -6  -3  -1    0.31    0.22
  -6  -3  -1    0.30    0.27
  -6  -3  -1    0.10    0.28
  -6  -3  -1    0.27    0.20
  -6  -3  -1    0.96    0.55
  -6  -3  -1    1.90    0.75
  -6  -3  -1   -0.04    0.27
   6   3   1   -0.03    0.24
   6   3   1    0.19    0.18
   6   3   1    0.28    0.29
   6   3   1    0.57    0.49
  -3  -3   0    6.51    0.59
  -3  -3   0    7.39    0.49
  -3  -3   0    6.25    0.42
  -3  -3   0    6.59    0.47
  -3  -3   0    6.97    0.56
  -3  -3   0    6.69    0.75
  -3  -3   0    6.89    0.48
  -3  -3   0    7.37    0.46
  -3  -3   0    7.41    0.39
  -3  -3   0    6.84    0.65
  -3  -3   0    6.75    0.47
  -3  -3   0    7.05    0.53
  -3  -3   0    7.12    0.61
   3   3   0    6.73    0.70
   3   3   0    5.95    0.54
   3   3   0    7.61    0.49
   3   3   0    6.23    0.48
   3   3   0    6.41    0.56
   0  -3   1    0.85    0.16
   0  -3   1    1.26    0.40
   0  -3   1    0.56    0.16
   0  -3   1    0.92    0.22
   0   3  -1    1.40    0.32
   0   3  -1    1.14    0.36
   0   3  -1    0.74    0.18
   0   3  -1    0.67    0.16
   0   3  -1    0.61    0.10
   3  -3   2   12.12    0.41
   3  -3   2   12.86    0.67
   3  -3   2   12.25    0.71
   3  -3   2   12.53    0.72
   3  -3   2   11.86    0.62
  -3   3  -2   12.16    0.47
  -3   3  -2   12.32    0.73
  -3   3  -2   11.66    0.69
  -3   3  -2   11.81    0.64
  -3   3  -2   12.44    0.73
   6  -3   3    0.39    0.33
   6  -3   3    0.27    0.19
   6  -3   3   -0.69    0.38
   6  -3   3    0.19    0.20
   6  -3   3    0.07    0.21
  -6   3  -3    0.49    0.35
  -6   3  -3    0.34    0.26
  -6   3  -3   -0.09    0.23
  -5  -4  -1   12.78    1.03
  -5  -4  -1   13.86    0.82
  -5  -4  -1   12.56    1.08
  -5  -4  -1   13.41    0.83
  -5  -4  -1   12.91    0.78
  -5  -4  -1   13.68    1.05
  -5  -4  -1   13.40    0.85
  -5  -4  -1   12.16    0.67
  -5  -4  -1   13.01    0.82
  -5  -4  -1   13.15    0.94
  -5  -4  -1   15.13    1.41
  -5  -4  -1   13.53    0.84
  -5  -4  -1   12.20    0.92
  -5  -4  -1   12.23    0.77
   5   4   1   12.20    0.81
   5   4   1   12.47    0.80
   5   4   1   14.27    1.03
  -2  -4   0   23.77    0.84
  -2  -4   0   22.99    1.01
  -2  -4   0   24.20    0.85
  -2  -4   0   22.63    0.80
  -2  -4   0   22.51    1.15
  -2  -4   0   23.55    0.86
  -2  -4   0   23.98    0.79
  -2  -4   0   23.32    1.09
  -2  -4   0   24.17    0.83
  -2  -4   0   24.59    0.77
   2   4   0   23.94    1.54
   2   4   0   22.10    1.10
   2   4   0   23.72    1.16
   2   4   0   23.38    0.83
   2   4   0   24.02    1.00
   2   4   0   23.78    0.78
   2   4   0   23.74    0.75
   1  -4   1   24.20    0.76
   1  -4   1   25.00    0.87
   1  -4   1   24.40    0.84
   1  -4   1   24.17    0.77
  -1   4  -1   24.45    0.82
  -1   4  -1   23.69    0.96
  -1   4  -1   24.28    0.77
  -1   4  -1   24.13    0.64
   4  -4   2    4.21    0.59
   4  -4   2    4.51    0.52
   4  -4   2    2.36    0.36
   4  -4   2    3.47    0.26
   4  -4   2    3.79    0.47
  -4   4  -2    3.06    0.42
  -4   4  -2    3.65    0.46
  -4   4  -2    5.06    0.60
   7  -4   3    0.60    0.30
   7  -4   3    0.25    0.27
   7  -4   3    1.11    0.44
   7  -4   3    0.99    0.28
  -7   4  -3    0.37    0.37
  -7   4  -3    1.17    0.45
  -7   4  -3    0.36    0.29
  -7  -5  -2    0.20    0.31
  -7  -5  -2    0.33    0.34
  -4  -5  -1    6.64    1.06
  -4  -5  -1    5.72    0.65
  -4  -5  -1    7.60    0.91
  -4  -5  -1    6.48    0.58
  -4  -5  -1    7.34    0.61
  -4  -5  -1    7.76    0.60
  -4  -5  -1    6.34    0.61
  -4  -5  -1    7.41    0.77
  -4  -5  -1    6.52    1.04
  -4  -5  -1    7.79    0.56
  -4  -5  -1    7.71    0.62
  -4  -5  -1    7.23    0.52
  -4  -5  -1    7.88    0.70
  -4  -5  -1    7.53    0.58
   4   5   1    7.32    0.59
   4   5   1    6.87    0.67
   4   5   1    6.90    0.84
   4   5   1    8.80    0.73
  -1  -5   0    6.80    0.48
  -1  -5   0    5.93    0.38
  -1  -5   0    5.37    0.60
  -1  -5   0    5.64    0.30
  -1  -5   0    6.18    0.48
  -1  -5   0    6.54    0.37
   1   5   0    5.80    0.35
   1   5   0    5.68    0.43
   1   5   0    5.92    0.61
   1   5   0    6.17    0.55
   1   5   0    6.63    0.69
   2  -5   1   19.82    0.72
   2  -5   1   19.15    0.83
   2  -5   1   18.88    0.80
   2  -5   1   19.92    0.89
  -2   5  -1   19.42    0.83
  -2   5  -1   19.67    0.98
  -2   5  -1   19.94    0.90
  -2   5  -1   18.12    0.73
   5  -5   2    0.88    0.25
   5  -5   2    0.74    0.40
   5  -5   2    0.42    0.23
   5  -5   2    0.98    0.22
  -5   5  -2    0.58    0.38
  -5   5  -2    0.82    0.49
  -5   5  -2    0.67    0.30
  -5   5  -2    0.31    0.29
  -6  -6  -2    0.86    0.82
  -6  -6  -2   -0.19    0.45
  -6  -6  -2   -0.03    0.18
  -6  -6  -2    0.37    0.93
  -6  -6  -2    0.13    0.31
  -6  -6  -2    0.03    0.29
  -6  -6  -2    0.04    0.22
  -6  -6  -2    0.13    0.25
  -6  -6  -2   -0.08    0.21
  -6  -6  -2    3.12    0.99
  -3  -6  -1    4.85    0.96
  -3  -6  -1    3.81    0.44
  -3  -6  -1    3.78    0.47
  -3  -6  -1    4.80    1.59
  -3  -6  -1    3.91    0.48
  -3  -6  -1    4.71    0.49
  -3  -6  -1    5.17    0.88
  -3  -6  -1    3.93    0.51
  -3  -6  -1    3.75    0.44
  -3  -6  -1    3.70    0.46
  -3  -6  -1    4.16    0.59
   3   6   1    3.48    0.50
   3   6   1    4.00    0.45
   3   6   1    5.02    0.85
   3   6   1    4.40    0.65
   3   6   1    4.36    0.70
   0  -6   0   11.41    0.65
   0  -6   0   11.61    0.66
   0  -6   0   10.77    0.37
   0  -6   0   11.65    0.71
   0  -6   0   11.71    0.49
   0  -6   0   11.94    0.86
   0   6   0   11.15    0.53
   0   6   0   11.18    0.83
   0   6   0   11.32    0.63
   3  -6   1    2.50    0.38
   3  -6   1    3.35    0.47
   3  -6   1    1.91    0.30
  -3   6  -1    5.06    0.84
  -3   6  -1    4.29    0.58
  -3   6  -1    3.29    0.48
  -3   6  -1    5.23    0.68
  -3   6  -1    3.92    0.52
   6  -6   2   -0.13    0.30
   6  -6   2   -0.37    0.19
   6  -6   2   -0.05    0.17
  -6   6  -2    0.42    0.36
  -6   6  -2   -0.27    0.36
  -6   6  -2    1.18    0.58
  -6   6  -2   -0.09    0.23
  -5  -7  -2    0.73    0.27
  -5  -7  -2    0.27    0.33
  -5  -7  -2    0.40    0.22
  -5  -7  -2    0.91    0.35
  -5  -7  -2    1.53    0.65
  -5  -7  -2    0.69    0.59
  -5  -7  -2    2.73    0.96
  -5  -7  -2    1.03    0.29
  -5  -7  -2    0.45    0.23
  -5  -7  -2    0.52    0.32
  -5  -7  -2    0.90    0.37
   5   7   2    0.24    0.75
  -2  -7  -1    0.55    0.26
  -2  -7  -1    0.75    0.29
  -2  -7  -1    0.57    0.24
  -2  -7  -1    0.62    0.30
  -2  -7  -1    1.50    0.37
  -2  -7  -1    0.61    0.24
  -2  -7  -1    0.58    0.58
   2   7   1    1.54    0.69
   2   7   1    0.79    0.23
   2   7   1    0.89    0.43
   2   7   1    0.51    0.46
   2   7   1    0.62    0.39
   1  -7   0    0.08    0.16
   1  -7   0   -0.36    0.24
   1  -7   0    0.07    0.18
   1  -7   0    0.10    0.14
  -1   7   0   -0.24    0.19
  -1   7   0    0.53    0.52
  -1   7   0    0.26    0.20
   4  -7   1    3.82    0.52
   4  -7   1    2.11    0.35
   4  -7   1    5.53    0.62
   4  -7   1    3.70    0.44
  -4   7  -1    3.35    0.55
  -4   7  -1    5.11    0.96
  -4   7  -1    5.69    1.30
  -4   7  -1    4.19    0.61
  -4   7  -1    2.67    0.47
  -4  -8  -2    0.32    0.18
  -4  -8  -2    0.20    0.27
  -4  -8  -2    0.34    0.22
  -4  -8  -2    0.88    0.46
  -4  -8  -2    0.73    0.27
  -4  -8  -2    0.28    0.33
  -4  -8  -2    1.50    1.27
  -4  -8  -2    0.43    0.34
  -4  -8  -2    0.49    0.30
  -4  -8  -2    0.91    0.58
   4   8   2    0.19    0.42
   4   8   2    0.74    0.51
   4   8   2    0.40    0.39
   4   8   2    0.58    0.50
  -1  -8  -1    2.83    0.52
  -1  -8  -1    2.92    0.89
  -1  -8  -1    2.94    0.41
  -1  -8  -1    2.39    0.38
  -1  -8  -1    2.92    0.33
  -1  -8  -1    2.18    0.41
   1   8   1    3.91    0.84
   1   8   1    3.06    0.62
   1   8   1    1.86    0.33
   1   8   1    4.35    0.84
   1   8   1    3.13    0.85
   2  -8   0    0.56    0.33
   2  -8   0    0.33    0.20
   2  -8   0    0.31    0.24
   2  -8   0   -0.06    0.23
  -2   8   0    0.57    0.25
  -2   8   0    0.69    0.56
  -2   8   0    0.50    0.31
   5  -8   1   -0.36    0.29
   5  -8   1    0.06    0.20
   5  -8   1    0.22    0.21
   5  -8   1   -0.09    0.36
  -5   8  -1   -0.21    0.41
  -5   8  -1   -0.54    0.52
  -5   8  -1    0.67    0.35
  -5   8  -1    0.56    0.62
  -5   8  -1   -0.02    0.29
  -6  -9  -3    0.26    0.36
  -6  -9  -3    0.06    0.38
  -3  -9  -2    0.20    0.24
  -3  -9  -2    0.47    0.26
  -3  -9  -2    0.10    0.29
  -3  -9  -2    0.51    0.29
  -3  -9  -2    0.16    0.28
  -3  -9  -2   -0.19    0.64
  -3  -9  -2    0.05    0.22
  -3  -9  -2    0.69    0.37
   3   9   2    0.27    0.38
   3   9   2    0.49    0.45
   3   9   2    0.93    0.61
   3   9   2   -0.29    0.37
   3   9   2    0.05    0.17
   0  -9  -1    0.23    0.23
   0  -9  -1    0.34    0.31
   0  -9  -1    0.33    0.34
   0  -9  -1    0.42    0.27
   0  -9  -1    0.26    0.13
   0  -9  -1    0.34    0.24
   0   9   1    0.32    0.47
   0   9   1    0.31    0.53
   0   9   1    0.46    0.66
   0   9   1    0.75    0.36
   3  -9   0    0.16    0.30
   3  -9   0    0.36    0.22
   3  -9   0   -0.06    0.24
  -3   9   0    0.34    0.32
  -3   9   0    0.34    0.53
  -3   9   0    0.60    0.31
  -5 -10  -3   -0.18    0.32
  -5 -10  -3    0.07    0.23
  -5 -10  -3   -0.09    0.25
  -5 -10  -3    0.07    0.28
   5  10   3    0.19    0.48
   5  10   3   -0.39    0.38
   5  10   3    1.14    0.64
  -2 -10  -2    1.34    0.37
  -2 -10  -2    1.70    0.35
  -2 -10  -2    1.83    0.39
  -2 -10  -2    1.50    0.42
  -2 -10  -2    1.65    0.38
   2  10   2    2.41    0.59
   2  10   2    1.99    0.63
   2  10   2    2.69    0.75
   2  10   2    1.85    0.76
   2  10   2    1.03    0.27
   1 -10  -1    7.09    0.65
   1 -10  -1    6.70    0.80
   1 -10  -1    6.06    0.68
   1 -10  -1    6.05    0.77
   1 -10  -1    6.96    0.73
  -1  10   1    6.17    0.76
  -1  10   1    6.10    0.59
  -1  10   1    5.58    0.82
   4 -10   0    1.01    0.41
   4 -10   0    2.50    0.46
   4 -10   0    1.67    0.35
  -4  10   0    2.17    0.84
  -4  10   0    1.01    0.38
  -4 -11  -3   -0.01    0.33
  -4 -11  -3   -0.24    0.28
  -4 -11  -3    0.27    0.37
   4  11   3    0.87    0.64
   4  11   3    1.19    0.61
   4  11   3    0.17    0.37
   4  11   3    0.10    0.48
  -1 -11  -2    1.11    0.42
  -1 -11  -2    1.38    0.47
  -1 -11  -2    0.61    0.29
  -1 -11  -2    1.83    0.43
  -1 -11  -2    1.37    0.27
   1  11   2    0.88    0.55
   1  11   2    1.97    0.75
   1  11   2    2.02    0.67
   1  11   2    0.56    0.68
   1  11   2    2.17    0.58
   2 -11  -1    0.22    0.33
   2 -11  -1   -0.27    0.24
   2 -11  -1   -0.67    0.26
   2 -11  -1    0.34    0.31
   2 -11  -1    0.21    0.24
  -2  11   1    0.21    0.41
  -2  11   1    0.02    0.51
  -2  11   1    0.06    0.29
  -3 -12  -3   -0.46    0.29
  -3 -12  -3    0.07    0.28
  -3 -12  -3    0.04    0.37
  -3 -12  -3   -0.72    0.26
   3  12   3    0.82    0.47
   3  12   3    1.37    0.72
   3  12   3    0.10    0.38
   3  12   3    0.55    0.56
   0 -12  -2    0.33    0.37
   0 -12  -2    0.27    0.25
   0 -12  -2   -0.58    0.27
   0 -12  -2    0.17    0.28
   0 -12  -2   -0.15    0.24
   0  12   2   -0.29    0.40
   0  12   2   -0.32    0.50
   0  12   2    0.36    0.48
   0  12   2   -0.07    0.47
   3 -12  -1    0.98    0.47
   3 -12  -1    1.58    0.48
   3 -12  -1    0.32    0.30
   3 -12  -1    0.73    0.25
  -3  12   1   -0.33    0.30
  -3  12   1    2.08    0.80
  -2 -13  -3   -0.13    0.32
  -2 -13  -3   -0.50    0.36
  -2 -13  -3   -0.44    0.29
   2  13   3   -0.62    0.30
   2  13   3    1.13    0.77
   2  13   3    1.08    0.50
   2  13   3   -0.24    0.46
   1 -13  -2    0.49    0.44
   1 -13  -2    0.32    0.32
   1 -13  -2    0.38    0.33
  -1  13   2    0.42    0.83
  -1  13   2    1.36    0.72
  -1  13   2   -0.58    0.47
  -2  13   6    1.44    0.82
   2 -13  -6    1.13    0.40
   2 -13  -6    0.51    0.48
   2 -13  -6    1.90    0.47
   1  13   7    2.33    0.89
   1  13   7    1.29    0.75
   1  13   7    2.47    0.57
  -1 -13  -7    1.81    0.62
  -1 -13  -7    0.99    0.33
  -1 -13  -7    2.25    0.49
  -1  12   6   -0.35    0.31
  -1  12   6    0.01    0.32
  -1  12   6    0.09    0.53
  -1  12   6   -0.86    0.47
   1 -12  -6    0.15    0.26
   1 -12  -6   -0.14    0.39
   1 -12  -6    0.60    0.37
   1 -12  -6   -0.42    0.32
   2  12   7    4.20    0.73
   2  12   7    3.12    0.85
   2  12   7    3.32    0.91
  -2 -12  -7    1.90    0.44
  -2 -12  -7    2.78    0.58
  -2 -12  -7    1.62    0.35
  -3  11   5    0.21    0.35
  -3  11   5   -0.18    0.27
  -3  11   5    0.24    0.26
  -3  11   5    0.15    0.73
   3 -11  -5    0.26    0.34
   3 -11  -5    0.06    0.35
   3 -11  -5   -0.30    0.25
   3 -11  -5    0.81    0.30
   0  11   6    2.36    0.51
   0  11   6    5.21    1.83
   0  11   6    4.46    0.64
   0 -11  -6    2.12    0.41
   0 -11  -6    3.25    0.58
   3  11   7   -0.52    0.24
   3  11   7    0.13    0.47
   3  11   7    0.86    0.53
  -3 -11  -7    0.78    0.48
  -3 -11  -7   -0.25    0.20
  -3 -11  -7   -0.01    0.32
  -3 -11  -7   -0.38    0.39
  -5  10   4    0.01    0.34
  -5  10   4   -0.43    0.37
   5 -10  -4    1.02    0.60
   5 -10  -4    0.41    0.35
   5 -10  -4    0.33    0.24
   5 -10  -4   -0.56    0.22
  -2  10   5    1.67    0.88
  -2  10   5    1.08    0.37
  -2  10   5    0.61    0.31
   2 -10  -5    1.25    0.35
   2 -10  -5    0.74    0.29
   2 -10  -5    1.07    0.41
   2 -10  -5    2.25    0.56
   1  10   6    4.84    0.52
   1  10   6    7.34    1.22
   1  10   6    5.55    1.04
  -1 -10  -6    4.94    0.59
  -1 -10  -6    5.16    0.64
  -1 -10  -6    3.74    0.53
  -1 -10  -6    5.41    0.66
   4  10   7    0.67    0.56
   4  10   7    0.19    0.30
   4  10   7    0.95    0.50
  -4 -10  -7    2.09    0.70
  -4 -10  -7    0.07    0.19
  -4 -10  -7    0.70    0.33
  -4 -10  -7    0.12    0.29
  -4   9   4    0.64    0.30
  -4   9   4    0.63    0.31
  -4   9   4    0.91    0.35
   4  -9  -4    0.46    0.29
   4  -9  -4    0.36    0.26
   4  -9  -4    1.02    0.27
   4  -9  -4    0.78    0.24
   4  -9  -4    1.25    0.58
  -1   9   5    0.39    0.26
  -1   9   5   -0.02    0.20
  -1   9   5   -0.10    0.54
   1  -9  -5   -0.03    0.27
   1  -9  -5   -0.02    0.27
   1  -9  -5   -0.01    0.19
   2   9   6    4.61    0.52
   2   9   6    5.39    0.98
   2   9   6    4.50    0.69
   2   9   6    5.92    1.03
   2   9   6    3.49    0.49
  -2  -9  -6    4.72    0.54
  -2  -9  -6    4.52    0.63
  -2  -9  -6    2.66    0.41
  -2  -9  -6    4.54    0.59
  -2  -9  -6    4.39    0.57
  -2  -9  -6    4.07    0.63
   5   9   7   -0.11    0.40
   5   9   7    0.20    0.26
   5   9   7    1.17    0.53
  -5  -9  -7   -0.74    0.86
  -5  -9  -7   -0.08    0.43
  -5  -9  -7    0.13    0.18
  -5  -9  -7    0.10    0.30
  -6   8   3    3.80    0.58
  -6   8   3    2.17    0.51
  -6   8   3    1.45    0.41
   6  -8  -3    3.89    0.99
   6  -8  -3    3.32    0.50
   6  -8  -3    2.89    0.41
   6  -8  -3    2.03    0.39
   6  -8  -3    1.86    0.56
  -3   8   4    9.61    0.70
  -3   8   4   10.66    0.88
  -3   8   4   11.33    0.73
   3  -8  -4   11.53    0.86
   3  -8  -4   11.10    0.74
   3  -8  -4    9.96    0.81
   3  -8  -4    9.48    0.52
   0   8   5    5.45    0.79
   0   8   5    5.38    0.45
   0   8   5    5.47    0.55
   0   8   5    4.32    0.51
   0   8   5    5.88    0.67
   0  -8  -5    5.24    0.54
   0  -8  -5    5.10    0.54
   0  -8  -5    4.91    0.54
   0  -8  -5    5.06    0.46
   3   8   6    2.67    0.59
   3   8   6    2.72    0.75
   3   8   6    1.90    0.40
   3   8   6    1.83    0.48
   3   8   6    2.42    0.62
  -3  -8  -6    1.53    0.26
  -3  -8  -6    2.59    0.48
  -3  -8  -6    1.38    0.34
  -3  -8  -6    2.71    0.56
  -3  -8  -6    2.44    0.60
  -3  -8  -6    1.30    0.40
  -3  -8  -6    2.09    0.87
  -3  -8  -6    1.50    0.43
  -3  -8  -6    3.64    0.80
  -3  -8  -6    1.56    0.38
  -6  -8  -7    0.99    1.22
  -5   7   3    1.11    0.33
  -5   7   3    2.42    0.44
  -5   7   3    0.95    0.47
   5  -7  -3    1.70    0.33
   5  -7  -3    2.24    0.40
   5  -7  -3    1.53    0.35
   5  -7  -3    2.54    0.73
  -2   7   4   26.56    0.94
  -2   7   4   25.14    1.11
  -2   7   4   25.31    1.16
   2  -7  -4   25.29    0.98
   2  -7  -4   25.38    0.84
   2  -7  -4   24.66    1.08
   1   7   5   -0.25    0.12
   1   7   5    0.16    0.28
   1   7   5    0.16    0.25
   1   7   5   -0.06    0.42
  -1  -7  -5    0.31    0.16
  -1  -7  -5    0.15    0.19
  -1  -7  -5    0.09    0.18
  -1  -7  -5   -0.23    0.21
   4   7   6    0.14    0.29
   4   7   6    0.49    0.40
   4   7   6    0.35    0.43
   4   7   6    0.21    0.18
  -4  -7  -6   -0.40    0.52
  -4  -7  -6    0.09    0.30
  -4  -7  -6    0.07    0.19
  -4  -7  -6   -0.09    0.63
  -4  -7  -6    0.04    0.10
  -4  -7  -6    0.35    0.23
  -4  -7  -6   -0.04    0.22
  -4  -7  -6    0.20    0.22
  -4  -7  -6    0.76    0.63
  -4  -7  -6    0.04    0.33
  -4  -7  -6    0.04    0.20
  -7   6   2    1.65    0.54
  -7   6   2    0.76    0.39
  -7   6   2    0.68    0.35
  -7   6   2    0.02    0.36
   7  -6  -2    0.55    0.57
   7  -6  -2    0.23    0.30
   7  -6  -2    0.82    0.31
  -4   6   3    0.36    0.26
  -4   6   3    0.14    0.21
  -4   6   3    0.33    0.22
   4  -6  -3   -0.01    0.16
   4  -6  -3   -0.05    0.15
   4  -6  -3    0.24    0.25
   4  -6  -3    0.17    0.16
   4  -6  -3    0.22    0.39
  -1   6   4    0.17    0.14
  -1   6   4    0.58    0.14
  -1   6   4    0.23    0.18
  -1   6   4    0.34    0.19
  -1   6   4    0.76    0.24
   1  -6  -4    0.50    0.22
   1  -6  -4    0.29    0.17
   1  -6  -4    0.31    0.21
   2   6   5    7.63    0.71
   2   6   5    8.19    0.57
   2   6   5    7.67    0.70
   2   6   5    8.11    0.59
   2   6   5    7.63    0.60
  -2  -6  -5    8.19    0.57
  -2  -6  -5    7.37    0.87
  -2  -6  -5    8.73    0.64
  -2  -6  -5    7.93    0.59
  -2  -6  -5    8.38    0.59
  -2  -6  -5    7.99    0.64
  -2  -6  -5    7.59    0.57
  -2  -6  -5    8.43    0.46
   5   6   6    0.99    0.43
   5   6   6    1.31    0.35
   5   6   6    0.92    0.33
  -5  -6  -6    0.78    0.18
  -5  -6  -6    1.17    0.31
  -5  -6  -6    1.75    0.45
  -5  -6  -6    1.35    0.45
  -5  -6  -6    1.49    0.68
  -5  -6  -6    1.99    0.77
  -5  -6  -6    1.12    0.33
  -5  -6  -6    0.59    0.74
  -5  -6  -6    1.79    0.56
  -6   5   2   -0.22    0.23
  -6   5   2   -0.01    0.23
  -6   5   2    0.15    0.25
   6  -5  -2    0.07    0.22
   6  -5  -2    0.08    0.44
   6  -5  -2   -0.01    0.28
   6  -5  -2   -0.09    0.16
  -3   5   3    5.32    0.58
  -3   5   3    5.44    0.44
  -3   5   3    5.14    0.53
   3  -5  -3    4.63    0.41
   3  -5  -3    4.91    0.44
   3  -5  -3    5.02    0.59
   3  -5  -3    5.05    0.54
   0   5   4    1.60    0.22
   0   5   4    1.89    0.24
   0   5   4    2.30    0.28
   0   5   4    2.31    0.24
   0   5   4    2.67    0.33
   0  -5  -4    2.57    0.31
   0  -5  -4    2.03    0.29
   0  -5  -4    2.58    0.33
   3   5   5   24.84    1.16
   3   5   5   22.78    0.96
   3   5   5   23.22    1.10
   3   5   5   24.00    0.98
  -3  -5  -5   23.35    1.14
  -3  -5  -5   21.57    0.97
  -3  -5  -5   23.98    0.95
  -3  -5  -5   23.46    1.14
  -3  -5  -5   23.55    0.95
  -3  -5  -5   23.51    1.00
  -3  -5  -5   23.97    1.14
  -3  -5  -5   24.49    0.67
  -3  -5  -5   22.81    0.92
  -3  -5  -5   23.55    0.80
  -3  -5  -5   23.50    1.01
   6   5   6    1.38    0.31
   6   5   6    3.32    0.56
   6   5   6    1.73    0.49
  -6  -5  -6    2.70    0.61
  -6  -5  -6    2.32    0.31
  -6  -5  -6    4.80    1.09
  -6  -5  -6    3.38    1.16
  -6  -5  -6    2.57    0.67
  -6  -5  -6    2.78    0.59
  -6  -5  -6    1.33    0.37
  -6  -5  -6    4.50    0.90
  -5   4   2    0.27    0.21
  -5   4   2   -0.03    0.19
  -5   4   2   -0.16    0.19
   5  -4  -2   -0.02    0.24
   5  -4  -2    0.15    0.20
   5  -4  -2    0.18    0.19
   5  -4  -2   -0.10    0.38
   5  -4  -2    0.14    0.15
  -2   4   3   35.36    0.91
  -2   4   3   33.39    0.74
  -2   4   3   33.95    1.27
   2  -4  -3   32.84    0.92
   2  -4  -3   36.43    1.10
   2  -4  -3   33.43    0.75
   2  -4  -3   34.95    1.18
   2  -4  -3   34.10    0.89
   1   4   4    9.36    0.49
   1   4   4   10.03    0.64
   1   4   4   10.41    0.55
   1   4   4   10.18    0.46
  -1  -4  -4    9.98    0.38
  -1  -4  -4    9.42    0.51
  -1  -4  -4    9.09    0.52
  -1  -4  -4    9.39    0.44
   4   4   5    0.25    0.19
   4   4   5    0.05    0.23
   4   4   5    0.42    0.30
   4   4   5    0.33    0.37
   4   4   5    0.02    0.21
  -4  -4  -5    0.36    0.44
  -4  -4  -5    0.21    0.35
  -4  -4  -5    0.02    0.10
  -4  -4  -5    0.29    0.43
  -4  -4  -5    0.33    0.50
  -4  -4  -5    0.18    0.20
  -4  -4  -5    0.52    0.31
  -4  -4  -5    0.30    0.20
  -4  -4  -5   -0.07    0.21
  -4  -4  -5    0.02    0.39
  -4  -4  -5    0.23    0.18
   7   4   6    1.23    0.42
  -7  -4  -6    0.75    0.75
  -7   3   1    3.69    0.82
  -7   3   1    1.35    0.43
  -7   3   1    1.17    0.35
   7  -3  -1    3.64    1.00
   7  -3  -1    1.71    0.37
   7  -3  -1    1.12    0.48
   7  -3  -1    1.66    0.37
   7  -3  -1    1.74    0.53
  -4   3   2   11.50    0.77
  -4   3   2   10.09    0.84
  -4   3   2   11.24    0.76
  -4   3   2    9.88    0.46
   4  -3  -2   10.84    0.67
   4  -3  -2   11.20    0.63
   4  -3  -2   10.76    0.46
   4  -3  -2   11.48    0.88
   4  -3  -2   10.20    0.48
   4  -3  -2   10.81    0.72
  -1   3   3   81.10    1.61
  -1   3   3   80.73    1.45
  -1   3   3   77.12    1.48
   1  -3  -3   78.27    1.56
   1  -3  -3   79.76    1.45
   1  -3  -3   81.46    1.50
   1  -3  -3   81.50    1.61
   2   3   4    6.61    0.38
   2   3   4    7.19    0.47
   2   3   4    6.65    0.46
   2   3   4    6.67    0.46
   2   3   4    6.92    0.43
   2   3   4    6.71    0.51
   2   3   4    7.01    0.48
  -2  -3  -4    6.27    0.51
  -2  -3  -4    5.56    0.42
  -2  -3  -4    6.69    0.51
  -2  -3  -4    6.52    0.41
  -2  -3  -4    6.00    0.46
  -2  -3  -4    6.75    0.46
  -2  -3  -4    6.60    0.42
   5   3   5   12.84    0.80
   5   3   5   12.26    0.73
   5   3   5   12.79    0.86
   5   3   5   12.43    0.81
  -5  -3  -5   13.01    0.63
  -5  -3  -5   12.71    0.51
  -5  -3  -5   13.04    0.88
  -5  -3  -5   13.63    0.88
  -5  -3  -5   14.21    0.85
  -5  -3  -5   12.96    0.93
  -5  -3  -5   13.33    0.98
  -5  -3  -5   12.28    0.85
  -5  -3  -5   13.27    0.81
  -5  -3  -5   13.52    1.10
  -5  -3  -5   14.95    1.33
  -6   2   1    0.64    0.30
  -6   2   1    1.27    0.52
  -6   2   1    1.12    0.23
  -6   2   1    2.51    0.75
  -6   2   1    0.68    0.29
   6  -2  -1    1.23    0.38
   6  -2  -1    0.59    0.29
   6  -2  -1    0.96    0.30
   6  -2  -1    0.66    0.23
   6  -2  -1    0.80    0.50
  -3   2   2   14.96    0.72
  -3   2   2   13.90    0.92
  -3   2   2   13.71    0.46
  -3   2   2   12.94    0.80
  -3   2   2   14.85    0.53
  -3   2   2   13.91    0.66
  -3   2   2   13.03    0.41
   3  -2  -2   13.50    0.61
   3  -2  -2   14.16    0.52
   3  -2  -2   14.10    0.42
   3  -2  -2   14.56    0.70
   3  -2  -2   13.16    0.82
   0   2   3  314.76    4.78
   0   2   3  308.40    4.71
   0   2   3  316.05    4.64
   0  -2  -3  315.73    4.64
   0  -2  -3  312.53    4.76
   0  -2  -3  309.83    4.76
   3   2   4   94.45    2.05
   3   2   4   98.46    2.16
   3   2   4   96.31    2.05
   3   2   4   96.58    1.69
   3   2   4   97.50    2.05
   3   2   4   95.57    2.00
   3   2   4   96.23    2.19
  -3  -2  -4   91.77    2.10
  -3  -2  -4   97.37    2.05
  -3  -2  -4   92.33    2.02
  -3  -2  -4   95.10    2.02
  -3  -2  -4   97.28    2.07
  -3  -2  -4   97.73    1.70
  -3  -2  -4   93.98    2.39
  -3  -2  -4   96.59    1.99
  -3  -2  -4   94.92    2.16
   6   2   5    0.89    0.39
   6   2   5    0.64    0.29
   6   2   5    1.15    0.35
   6   2   5    0.92    0.27
  -6  -2  -5    2.57    0.70
  -6  -2  -5    3.12    1.09
  -6  -2  -5    0.61    0.23
  -6  -2  -5    2.27    0.62
  -6  -2  -5    0.97    0.31
  -6  -2  -5    0.94    0.36
  -6  -2  -5    0.47    0.30
   8  -1   0    0.92    0.76
  -5   1   1    0.32    0.14
  -5   1   1    0.35    0.45
  -5   1   1    0.07    0.19
  -5   1   1    0.11    0.35
  -5   1   1    0.06    0.18
  -5   1   1    0.75    0.60
  -5   1   1    0.19    0.20
   5  -1  -1    0.47    0.43
   5  -1  -1    0.36    0.13
   5  -1  -1    0.36    0.25
   5  -1  -1    0.33    0.21
   5  -1  -1    0.00    0.22
   5  -1  -1    0.02    0.16
  -2   1   2    0.25    0.19
  -2   1   2   -0.13    0.23
  -2   1   2    0.26    0.13
  -2   1   2    0.07    0.10
  -2   1   2    0.47    0.31
   2  -1  -2    0.05    0.11
   2  -1  -2    0.28    0.12
   2  -1  -2   -0.05    0.24
   1   1   3   11.30    0.39
   1   1   3   11.25    0.42
   1   1   3   11.27    0.37
   1   1   3   11.50    0.40
   1   1   3   11.49    0.46
   1   1   3   10.68    0.44
   1   1   3   10.83    0.44
  -1  -1  -3   11.20    0.44
  -1  -1  -3   11.55    0.48
  -1  -1  -3   10.92    0.37
  -1  -1  -3   10.92    0.38
   4   1   4    6.58    0.72
   4   1   4    6.43    0.41
   4   1   4    6.98    0.53
   4   1   4    7.02    0.56
   4   1   4    6.15    0.55
   4   1   4    6.43    0.58
  -4  -1  -4    6.65    0.49
  -4  -1  -4    6.79    0.46
  -4  -1  -4    6.80    0.63
  -4  -1  -4    6.60    0.61
  -4  -1  -4    5.48    0.53
  -4  -1  -4    6.28    0.70
  -4  -1  -4    6.77    0.58
   7   1   5   -0.26    0.15
   7   1   5    0.21    0.24
   7   1   5   -0.36    0.21
   7   1   5    0.43    0.37
   7   1   5    0.21    0.22
  -7  -1  -5    0.05    0.25
  -7  -1  -5    0.37    0.49
  -7  -1  -5   -0.16    0.31
  -7  -1  -5    0.76    0.50
  -7  -1  -5   -0.13    0.28
  -7   0   0    4.30    1.00
  -7   0   0    1.68    0.38
  -7   0   0    1.42    0.44
  -7   0   0    2.47    0.62
   7   0   0    2.07    0.49
   7   0   0    1.10    0.33
   7   0   0    2.39    0.51
   7   0   0    2.79    0.91
  -4   0   1    9.14    0.51
  -4   0   1    8.42    0.42
  -4   0   1    6.96    1.17
  -4   0   1    8.88    0.63
  -4   0   1    8.74    0.41
  -4   0   1    9.64    0.68
   4   0  -1    8.25    0.74
   4   0  -1    9.02    0.58
   4   0  -1    8.99    0.57
   4   0  -1    8.83    0.59
   4   0  -1    8.55    0.42
   4   0  -1    9.87    0.59
  -1   0   2  377.47    5.57
  -1   0   2  369.72    5.91
  -1   0   2  371.34    5.59
   1   0  -2  366.50    5.90
   1   0  -2  384.46    5.41
   1   0  -2  373.03    5.57
   1   0  -2  374.45    5.59
   1   0  -2  365.67    5.34
   2   0   3   48.60    1.00
   2   0   3   49.95    1.12
   2   0   3   49.32    0.87
   2   0   3   48.92    1.13
   2   0   3   45.65    1.19
   2   0   3   49.47    1.21
  -2   0  -3   51.14    1.02
  -2   0  -3   48.31    0.94
  -2   0  -3   50.64    1.24
  -2   0  -3   47.92    1.07
  -2   0  -3   50.04    1.22
   5   0   4    1.93    0.35
   5   0   4    3.00    0.43
   5   0   4    2.06    0.29
   5   0   4    2.40    0.38
   5   0   4    3.57    0.61
   5   0   4    2.03    0.38
  -5   0  -4    3.10    0.46
  -5   0  -4    1.88    0.36
  -5   0  -4    2.04    0.31
  -5   0  -4    3.68    0.71
  -5   0  -4    2.19    0.41
  -5   0  -4    3.30    0.69
  -5   0  -4    2.57    0.53
  -5   0  -4    3.62    0.61
  -6  -1   0   11.68    0.93
  -6  -1   0   12.55    0.96
  -6  -1   0   15.56    1.43
  -6  -1   0   12.34    0.55
  -6  -1   0   12.66    1.13
  -6  -1   0   12.07    1.18
  -6  -1   0   10.97    0.61
  -6  -1   0   11.48    0.75
  -6  -1   0   10.80    0.84
  -6  -1   0   11.56    1.04
   6   1   0   11.38    0.79
   6   1   0   12.39    1.10
   6   1   0   12.71    0.85
   6   1   0   10.96    0.78
   6   1   0   12.72    0.80
  -3  -1   1    7.00    0.39
  -3  -1   1    5.74    0.41
  -3  -1   1    5.46    0.35
  -3  -1   1    5.57    0.37
  -3  -1   1    5.46    0.49
  -3  -1   1    6.05    0.41
  -3  -1   1    7.12    0.71
  -3  -1   1    5.11    0.54
  -3  -1   1    6.28    0.47
   3   1  -1    5.50    0.56
   3   1  -1    5.48    0.34
   3   1  -1    5.81    0.37
   3   1  -1    5.40    0.50
   3   1  -1    6.19    0.45
   3   1  -1    6.45    0.42
   3   1  -1    5.13    0.47
   3   1  -1    4.63    0.75
   0  -1   2   74.44    1.37
   0  -1   2   64.79    1.26
   0  -1   2   69.96    1.29
   0  -1   2   66.40    1.20
   0  -1   2   64.56    1.37
   0   1  -2   80.37    1.41
   0   1  -2   73.01    1.30
   0   1  -2   72.21    1.28
   3  -1   3    2.24    0.30
   3  -1   3    2.46    0.31
   3  -1   3    1.57    0.26
   3  -1   3    2.40    0.42
  -3   1  -3    2.08    0.28
  -3   1  -3    1.68    0.24
  -3   1  -3    1.75    0.27
  -3   1  -3    2.39    0.29
  -3   1  -3    4.05    0.66
   6  -1   4    6.45    0.71
   6  -1   4    7.15    0.50
   6  -1   4    6.40    0.59
   6  -1   4    7.16    0.61
   6  -1   4    6.53    0.66
  -6   1  -4    6.19    0.68
  -6   1  -4    7.00    0.76
  -6   1  -4    7.72    0.70
  -6   1  -4    6.00    0.65
  -6   1  -4    6.99    0.66
  -6   1  -4    7.63    0.83
  -6   1  -4    6.96    0.64
  -5  -2   0    8.22    0.65
  -5  -2   0    8.60    0.87
  -5  -2   0    7.80    0.88
  -5  -2   0    9.23    0.74
  -5  -2   0    8.94    0.84
  -5  -2   0    8.68    0.41
  -5  -2   0    7.87    0.55
  -5  -2   0    8.03    0.62
  -5  -2   0    8.51    0.51
  -5  -2   0    9.74    1.23
  -5  -2   0    7.16    0.72
   5   2   0    8.67    0.69
   5   2   0    8.20    0.81
   5   2   0    8.15    0.62
   5   2   0    8.48    0.63
  -2  -2   1   61.71    1.79
  -2  -2   1   60.84    1.70
  -2  -2   1   62.98    1.23
  -2  -2   1   63.60    1.35
  -2  -2   1   61.99    1.60
  -2  -2   1   64.84    1.55
  -2  -2   1   61.83    1.51
  -2  -2   1   64.33    1.33
  -2  -2   1   63.68    1.18
   2   2  -1   63.09    1.53
   2   2  -1   63.96    1.32
   2   2  -1   62.72    1.79
   2   2  -1   64.06    1.17
   2   2  -1   63.66    1.38
   2   2  -1   65.33    1.34
   2   2  -1   64.41    1.55
   1  -2   2    9.90    0.39
   1  -2   2    9.38    0.47
   1  -2   2    9.40    0.45
   1  -2   2    9.11    0.45
   1  -2   2    9.09    0.44
  -1   2  -2    8.77    0.44
  -1   2  -2   10.02    0.49
  -1   2  -2    9.41    0.38
  -1   2  -2    9.09    0.45
   4  -2   3    5.48    0.51
   4  -2   3    6.04    0.41
   4  -2   3    4.65    0.55
   4  -2   3    5.12    0.57
   4  -2   3    5.85    0.74
  -4   2  -3    5.77    0.57
  -4   2  -3    5.35    0.61
  -4   2  -3    5.05    0.42
  -4   2  -3    5.48    0.51
  -4   2  -3    4.99    0.62
   7  -2   4   -0.23    0.20
   7  -2   4    0.27    0.20
   7  -2   4    0.38    0.33
   7  -2   4   -0.23    0.17
   7  -2   4    0.19    0.20
  -7   2  -4    0.38    0.49
  -7   2  -4   -0.26    0.30
  -7   2  -4    0.99    0.52
  -7   2  -4   -0.28    0.22
  -7   2  -4   -0.02    0.35
  -7  -3  -1    0.10    0.19
  -7  -3  -1    0.33    0.24
  -7  -3  -1    0.40    0.31
  -7  -3  -1   -0.08    0.18
  -7  -3  -1    0.24    0.27
  -7  -3  -1    0.15    0.18
  -7  -3  -1   -0.53    0.26
  -7  -3  -1   -0.03    0.34
   7   3   1   -0.16    0.18
   7   3   1    0.35    0.45
   7   3   1    0.45    0.31
   7   3   1   -0.07    0.28
  -4  -3   0    2.55    0.29
  -4  -3   0    4.45    1.08
  -4  -3   0    3.79    0.92
  -4  -3   0    3.55    0.70
  -4  -3   0    2.72    0.43
  -4  -3   0    1.55    0.26
  -4  -3   0    2.07    0.36
  -4  -3   0    2.02    0.31
  -4  -3   0    3.07    0.40
  -4  -3   0    2.02    0.50
  -4  -3   0    2.69    0.44
  -4  -3   0    2.96    0.70
   4   3   0    1.50    0.28
   4   3   0    2.05    0.36
   4   3   0    2.39    0.50
   4   3   0    3.94    0.78
   4   3   0    2.99    0.41
  -1  -3   1  105.49    2.42
  -1  -3   1  101.49    2.30
  -1  -3   1  105.32    2.00
  -1  -3   1  106.76    1.91
  -1  -3   1  105.74    2.15
  -1  -3   1  106.16    1.91
   1   3  -1  103.25    2.42
   1   3  -1  103.70    1.89
   1   3  -1  105.49    1.86
   1   3  -1  105.16    2.15
   1   3  -1  104.58    1.84
   1   3  -1  106.03    1.99
   1   3  -1  104.84    2.33
   2  -3   2    4.92    0.32
   2  -3   2    4.50    0.41
   2  -3   2    5.24    0.44
   2  -3   2    5.39    0.44
  -2   3  -2    4.57    0.46
  -2   3  -2    5.14    0.46
  -2   3  -2    4.92    0.42
  -2   3  -2    4.87    0.42
  -2   3  -2    5.07    0.24
  -2   3  -2    5.14    0.44
   5  -3   3   -0.07    0.19
   5  -3   3    0.14    0.17
   5  -3   3    0.18    0.19
   5  -3   3    0.07    0.29
   5  -3   3    0.10    0.20
  -5   3  -3    0.69    0.31
  -5   3  -3   -0.07    0.35
  -5   3  -3    0.27    0.21
  -5   3  -3    0.47    0.29
  -5   3  -3    0.60    0.26
  -6  -4  -1    3.21    0.41
  -6  -4  -1    2.58    0.46
  -6  -4  -1    2.27    0.38
  -6  -4  -1    3.48    0.50
  -6  -4  -1    3.17    0.37
  -6  -4  -1    2.58    0.50
  -6  -4  -1    4.23    0.87
  -6  -4  -1    3.44    0.55
  -6  -4  -1    9.03    2.29
   6   4   1    4.29    0.94
   6   4   1    2.48    0.46
   6   4   1    2.63    0.58
  -3  -4   0    3.21    0.39
  -3  -4   0    4.57    0.96
  -3  -4   0    4.21    0.81
  -3  -4   0    3.02    0.45
  -3  -4   0    3.08    0.41
  -3  -4   0    3.14    0.41
  -3  -4   0    3.72    0.35
  -3  -4   0    3.22    0.38
  -3  -4   0    3.29    0.39
  -3  -4   0    3.30    0.33
  -3  -4   0    3.34    0.52
  -3  -4   0    4.28    0.64
   3   4   0    4.03    0.76
   3   4   0    3.14    0.45
   3   4   0    2.81    0.43
   3   4   0    3.55    0.63
   3   4   0    3.77    0.41
   0  -4   1  131.96    2.32
   0  -4   1  135.63    2.83
   0  -4   1  137.53    2.51
   0  -4   1  138.40    2.49
   0   4  -1  136.59    2.57
   0   4  -1  132.97    2.81
   0   4  -1  137.96    2.37
   0   4  -1  135.85    2.10
   0   4  -1  130.07    2.47
   3  -4   2    0.53    0.20
   3  -4   2    0.68    0.27
   3  -4   2    0.48    0.14
   3  -4   2    0.81    0.25
  -3   4  -2    0.68    0.24
  -3   4  -2    0.70    0.34
  -3   4  -2    0.42    0.21
  -3   4  -2    0.56    0.22
   6  -4   3    0.42    0.39
   6  -4   3    0.64    0.22
  -6   4  -3    1.55    0.49
  -6   4  -3    0.65    0.31
  -6   4  -3    0.08    0.32
  -6   4  -3    0.23    0.32
  -5  -5  -1   22.44    0.87
  -5  -5  -1   21.98    1.03
  -5  -5  -1   21.72    0.96
  -5  -5  -1   22.91    1.07
  -5  -5  -1   27.35    1.85
  -5  -5  -1   21.37    1.08
  -5  -5  -1   22.97    1.32
  -5  -5  -1   22.18    1.10
  -5  -5  -1   25.71    1.54
  -5  -5  -1   21.74    1.10
  -5  -5  -1   23.02    1.07
  -5  -5  -1   24.43    1.10
   5   5   1   21.71    1.07
   5   5   1   21.33    1.23
   5   5   1   23.10    1.29
  -2  -5   0   20.00    0.76
  -2  -5   0   20.36    0.83
  -2  -5   0   20.73    0.81
  -2  -5   0   18.37    1.07
  -2  -5   0   19.13    0.97
  -2  -5   0   19.39    0.73
  -2  -5   0   19.42    0.78
  -2  -5   0   18.77    0.83
  -2  -5   0   20.12    1.20
  -2  -5   0   20.11    0.83
   2   5   0   20.12    0.74
   2   5   0   20.43    0.94
   2   5   0   20.88    0.75
   2   5   0   20.09    0.99
   2   5   0   20.65    1.12
   2   5   0   19.67    0.74
   2   5   0   20.32    1.10
   1  -5   1   81.26    1.84
   1  -5   1   77.88    1.87
   1  -5   1   78.89    1.73
   1  -5   1   80.03    1.70
  -1   5  -1   75.11    1.77
  -1   5  -1   78.31    1.69
  -1   5  -1   81.01    2.11
   4  -5   2   12.43    0.83
   4  -5   2   12.89    0.53
   4  -5   2   11.85    0.84
   4  -5   2   12.26    0.77
   4  -5   2   12.58    0.86
  -4   5  -2   13.40    0.91
  -4   5  -2   11.30    1.25
  -4   5  -2   15.13    0.95
  -4   5  -2   12.24    0.78
   7  -5   3    1.07    0.28
   7  -5   3    0.86    0.44
  -7   5  -3   -0.06    0.46
  -7   5  -3    1.38    0.58
  -7   5  -3    0.65    0.37
  -7  -6  -2    1.18    0.40
  -7  -6  -2    0.56    0.27
  -7  -6  -2    1.14    0.44
  -7  -6  -2    2.28    0.52
  -7  -6  -2    0.59    0.31
  -4  -6  -1    5.21    0.84
  -4  -6  -1    4.84    0.57
  -4  -6  -1    4.65    0.51
  -4  -6  -1    5.30    0.56
  -4  -6  -1    5.58    0.58
  -4  -6  -1    4.85    0.69
  -4  -6  -1    8.49    1.25
  -4  -6  -1    5.19    0.51
  -4  -6  -1    6.34    1.16
  -4  -6  -1    4.90    0.55
  -4  -6  -1    6.68    1.18
  -4  -6  -1    4.68    0.60
   4   6   1    4.41    0.74
   4   6   1    4.66    0.59
   4   6   1    4.45    0.51
   4   6   1    3.98    0.63
  -1  -6   0    3.15    0.30
  -1  -6   0    3.96    0.40
  -1  -6   0    3.75    0.45
  -1  -6   0    3.81    0.35
  -1  -6   0    3.51    0.44
  -1  -6   0    4.13    0.83
   1   6   0    3.53    0.50
   1   6   0    3.35    0.41
   1   6   0    3.44    0.55
   1   6   0    3.44    0.61
   2  -6   1    2.63    0.44
   2  -6   1    1.77    0.34
   2  -6   1    1.48    0.27
   2  -6   1    1.71    0.28
  -2   6  -1    2.05    0.32
  -2   6  -1    3.24    0.69
  -2   6  -1    1.72    0.34
  -2   6  -1    1.80    0.31
   5  -6   2    5.50    0.41
   5  -6   2    4.23    0.56
   5  -6   2    4.90    0.36
   5  -6   2    5.68    0.60
  -5   6  -2    4.44    0.67
  -5   6  -2    5.28    0.70
  -5   6  -2    3.62    0.54
  -5   6  -2    3.32    0.49
  -6  -7  -2   -0.29    0.24
  -6  -7  -2    0.13    0.21
  -6  -7  -2    0.47    0.33
  -6  -7  -2    1.04    0.97
  -6  -7  -2    0.02    0.20
  -6  -7  -2    0.72    0.33
  -3  -7  -1    7.27    0.88
  -3  -7  -1    5.95    0.57
  -3  -7  -1    5.73    0.56
  -3  -7  -1    5.85    0.54
  -3  -7  -1    5.94    0.55
  -3  -7  -1    5.70    0.78
  -3  -7  -1    6.09    0.59
  -3  -7  -1    5.64    0.63
  -3  -7  -1    6.83    0.62
  -3  -7  -1    7.22    1.30
  -3  -7  -1    6.36    0.59
   3   7   1    5.00    0.51
   3   7   1    5.33    0.77
   3   7   1    5.23    0.74
   3   7   1    6.23    0.66
   3   7   1    7.30    0.77
   0  -7   0   23.93    1.33
   0  -7   0   23.78    0.98
   0  -7   0   24.57    1.01
   0  -7   0   24.82    0.77
   0  -7   0   24.08    1.07
   0   7   0   24.36    0.81
   0   7   0   24.31    0.99
   0   7   0   25.29    1.32
   0   7   0   24.23    1.12
   3  -7   1    0.62    0.23
   3  -7   1    0.46    0.24
   3  -7   1    1.21    0.31
   3  -7   1    0.57    0.30
  -3   7  -1    0.75    0.37
  -3   7  -1   -0.15    0.49
  -3   7  -1    0.85    0.35
  -3   7  -1    0.63    0.28
   6  -7   2    0.46    0.38
   6  -7   2    0.31    0.18
  -6   7  -2    0.12    0.32
  -6   7  -2   -0.36    0.38
  -6   7  -2   -0.45    0.59
  -6   7  -2    0.32    0.34
  -5  -8  -2   -0.43    0.24
  -5  -8  -2    0.01    0.27
  -5  -8  -2    1.03    0.59
  -5  -8  -2    0.02    0.18
  -5  -8  -2    0.09    0.19
  -5  -8  -2    0.50    0.29
  -5  -8  -2    0.25    0.36
  -5  -8  -2    2.88    1.40
  -5  -8  -2    0.64    0.55
  -5  -8  -2   -0.12    0.21
  -5  -8  -2   -0.17    0.23
   5   8   2    0.10    0.39
   5   8   2   -0.37    0.32
  -2  -8  -1    3.80    0.98
  -2  -8  -1    1.98    0.39
  -2  -8  -1    2.16    0.42
  -2  -8  -1    2.33    0.38
  -2  -8  -1    2.03    0.32
  -2  -8  -1    2.68    0.50
  -2  -8  -1    1.87    0.37
   2   8   1    2.98    0.82
   2   8   1    2.50    0.75
   2   8   1    2.16    0.57
   2   8   1    1.72    0.38
   2   8   1    2.13    0.61
   1  -8   0    4.82    0.59
   1  -8   0    4.82    0.55
   1  -8   0    4.94    0.46
  -1   8   0    5.27    0.54
  -1   8   0    4.73    0.73
  -1   8   0    5.04    0.55
   4  -8   1   -0.21    0.21
   4  -8   1   -0.22    0.25
   4  -8   1   -0.02    0.21
  -4   8  -1    0.10    0.25
  -4   8  -1   -0.09    0.45
  -4   8  -1   -0.10    0.25
  -4   8  -1    0.18    0.51
  -4  -9  -2    0.69    0.45
  -4  -9  -2    0.97    0.34
  -4  -9  -2    0.82    0.32
  -4  -9  -2    0.98    0.37
  -4  -9  -2    1.58    0.43
  -4  -9  -2    1.37    0.36
  -4  -9  -2    1.06    0.41
  -4  -9  -2    2.22    0.69
  -4  -9  -2    1.72    0.78
   4   9   2    1.32    0.57
   4   9   2    1.25    0.71
   4   9   2    1.75    0.67
   4   9   2    2.01    0.72
  -1  -9  -1    9.66    0.75
  -1  -9  -1   10.75    0.80
  -1  -9  -1    9.48    0.52
  -1  -9  -1    9.54    0.69
  -1  -9  -1   10.17    0.84
  -1  -9  -1    9.72    1.15
  -1  -9  -1    9.31    0.79
   1   9   1    9.79    0.86
   1   9   1    9.90    0.74
   1   9   1    9.43    0.80
   1   9   1    9.59    0.99
   1   9   1    9.20    0.98
   2  -9   0   -0.21    0.17
   2  -9   0    0.14    0.19
   2  -9   0    0.04    0.27
   2  -9   0    0.04    0.24
  -2   9   0   -0.27    0.23
  -2   9   0    0.01    0.23
  -2   9   0    0.44    0.53
   5  -9   1   -0.20    0.28
   5  -9   1    0.11    0.23
   5  -9   1    0.41    0.29
  -5   9  -1    0.28    0.33
  -5   9  -1    0.50    0.49
  -3 -10  -2   -0.10    0.27
  -3 -10  -2    0.41    0.28
  -3 -10  -2    0.20    0.33
  -3 -10  -2   -0.52    0.69
  -3 -10  -2    0.72    0.33
  -3 -10  -2   -0.31    0.22
  -3 -10  -2    0.62    0.34
   3  10   2   -0.02    0.40
   3  10   2    0.25    0.17
   3  10   2    0.01    0.46
   3  10   2    0.51    0.53
   3  10   2    0.15    0.41
   0 -10  -1    1.40    0.36
   0 -10  -1    1.23    0.36
   0 -10  -1    1.68    0.47
   0 -10  -1    1.41    0.33
   0 -10  -1    1.33    0.44
   0  10   1    2.46    0.75
   0  10   1    2.02    0.77
   0  10   1    2.11    0.61
   3 -10   0   -0.36    0.18
   3 -10   0    0.09    0.31
   3 -10   0    0.09    0.21
   3 -10   0   -0.23    0.28
  -3  10   0   -0.24    0.37
  -3  10   0   -0.11    0.26
  -3  10   0    0.16    0.52
  -2 -11  -2   -0.68    0.40
  -2 -11  -2    0.09    0.26
  -2 -11  -2    0.44    0.34
  -2 -11  -2    0.48    0.33
  -2 -11  -2    0.24    0.24
   2  11   2    0.50    0.63
   2  11   2   -0.30    0.34
   2  11   2   -0.05    0.22
   2  11   2    0.32    0.59
   2  11   2    0.43    0.41
   1 -11  -1   -0.08    0.26
   1 -11  -1    0.71    0.28
   1 -11  -1   -0.38    0.28
   1 -11  -1    0.44    0.37
   1 -11  -1    0.29    0.29
  -1  11   1    0.28    0.47
  -1  11   1    0.80    0.69
   4 -11   0    2.22    0.62
   4 -11   0    2.89    0.54
   4 -11   0    1.79    0.41
  -4  11   0    1.62    0.50
  -4  11   0    3.82    0.92
  -1 -12  -2   -0.38    0.37
  -1 -12  -2   -0.05    0.37
  -1 -12  -2   -0.09    0.26
  -1 -12  -2   -0.35    0.27
   1  12   2    0.10    0.44
   1  12   2    0.43    0.42
   1  12   2   -0.25    0.36
   1  12   2   -0.27    0.45
   2 -12  -1    0.18    0.25
   2 -12  -1   -0.33    0.23
   2 -12  -1    0.45    0.41
  -2  12   1    0.61    0.59
  -2  12   1   -0.07    0.30
  -2  12   1   -0.42    0.56
   0 -13  -2    0.29    0.37
   0 -13  -2    1.31    0.45
   0 -13  -2    0.44    0.48
   0  13   2    1.15    0.63
   0  13   2    1.51    0.79
   0  13   2    1.98    0.75
   0  13   2    1.56    0.85
   0  13   7    2.36    0.96
   0  13   7    4.09    0.63
   0  13   7    5.76    1.40
   0 -13  -7    1.67    0.93
   0 -13  -7    2.16    0.63
   0 -13  -7    2.94    0.46
   0 -13  -7    1.89    0.58
  -2  12   6   -0.38    0.61
   2 -12  -6   -0.14    0.31
   2 -12  -6   -0.71    0.27
   2 -12  -6   -0.07    0.32
   2 -12  -6    0.34    0.36
   1  12   7    1.67    0.48
   1  12   7    1.40    0.70
   1  12   7    1.90    0.79
  -1 -12  -7    0.72    0.29
  -1 -12  -7    1.15    0.45
  -1 -12  -7    1.97    0.55
  -4  11   5   -0.21    0.29
  -4  11   5    0.11    0.37
  -4  11   5   -0.46    0.22
  -4  11   5    0.28    0.83
   4 -11  -5    0.35    0.42
   4 -11  -5   -0.08    0.21
   4 -11  -5   -0.20    0.30
   4 -11  -5   -0.13    0.35
  -1  11   6    1.36    0.72
  -1  11   6    0.78    0.38
  -1  11   6    0.04    0.27
   1 -11  -6    0.22    0.41
   1 -11  -6    0.38    0.28
   1 -11  -6    0.07    0.29
   1 -11  -6    0.96    0.53
   2  11   7    2.79    0.84
   2  11   7    3.14    0.61
   2  11   7    3.85    0.91
  -2 -11  -7    2.15    0.39
  -2 -11  -7    3.30    0.67
  -2 -11  -7    1.90    0.37
  -2 -11  -7    1.52    0.37
  -2 -11  -7    2.84    0.49
  -3  10   5    1.41    0.34
  -3  10   5    1.37    0.40
   3 -10  -5    2.34    0.47
   3 -10  -5    2.31    0.65
   3 -10  -5    1.15    0.35
   3 -10  -5    1.92    0.38
   0  10   6   13.42    0.73
   0  10   6   12.56    0.82
   0  10   6   12.74    1.16
   0 -10  -6   14.43    0.87
   0 -10  -6   13.11    0.87
   0 -10  -6   13.19    0.89
   3  10   7   -0.01    0.40
   3  10   7    0.09    0.43
   3  10   7    0.08    0.33
   3  10   7    0.36    0.33
   3  10   7    0.16    0.23
  -3 -10  -7    0.91    0.50
  -3 -10  -7   -0.06    0.20
  -3 -10  -7   -0.51    0.22
  -3 -10  -7   -0.06    0.30
  -3 -10  -7   -0.07    0.19
  -3 -10  -7   -0.19    0.22
  -5   9   4   -0.27    0.25
  -5   9   4   -0.11    0.29
  -5   9   4    0.35    0.36
   5  -9  -4   -0.37    0.23
   5  -9  -4    0.39    0.24
   5  -9  -4    0.25    0.49
   5  -9  -4   -0.17    0.23
  -2   9   5    0.41    0.28
  -2   9   5    0.68    0.33
   2  -9  -5    0.49    0.26
   2  -9  -5    0.82    0.45
   2  -9  -5    0.16    0.31
   2  -9  -5    0.22    0.23
   1   9   6   10.83    0.67
   1   9   6   10.52    0.94
   1   9   6   11.09    0.68
   1   9   6    9.87    0.99
   1   9   6   10.56    0.78
  -1  -9  -6   11.26    0.81
  -1  -9  -6   11.39    0.80
  -1  -9  -6   10.20    0.71
   4   9   7    2.45    0.77
   4   9   7    1.45    0.42
   4   9   7    3.15    0.81
   4   9   7    2.14    0.55
  -4  -9  -7    2.58    0.73
  -4  -9  -7    1.84    0.47
  -4  -9  -7    4.14    0.97
  -4  -9  -7    0.99    0.35
  -4  -9  -7    2.52    0.60
  -4  -9  -7    2.70    0.46
  -4  -9  -7    2.62    0.64
  -4   8   4    4.18    0.53
  -4   8   4    2.45    0.46
  -4   8   4    3.63    0.52
   4  -8  -4    3.88    0.49
   4  -8  -4    4.18    0.63
   4  -8  -4    4.18    0.54
  -1   8   5    1.70    0.35
  -1   8   5    2.54    0.77
  -1   8   5    1.38    0.33
   1  -8  -5    2.17    0.39
   1  -8  -5    1.60    0.37
   1  -8  -5    1.45    0.29
   2   8   6    5.52    0.54
   2   8   6    5.19    0.59
   2   8   6    4.82    0.53
   2   8   6    4.95    0.69
   2   8   6    5.01    0.71
  -2  -8  -6    4.62    0.53
  -2  -8  -6    4.44    0.56
  -2  -8  -6    4.82    0.58
  -2  -8  -6    4.40    0.49
  -2  -8  -6    5.57    0.60
   5   8   7   -0.02    0.26
   5   8   7    0.32    0.38
   5   8   7    0.35    0.39
   5   8   7    0.37    0.35
  -5  -8  -7   -0.70    0.64
  -5  -8  -7   -0.15    0.22
  -5  -8  -7   -0.08    0.33
  -5  -8  -7   -0.30    0.28
  -5  -8  -7   -0.06    0.25
  -5  -8  -7    0.08    0.47
  -5  -8  -7    0.92    0.67
  -5  -8  -7   -0.30    0.24
  -5  -8  -7    0.18    0.28
  -6   7   3    0.69    0.35
  -6   7   3    0.08    0.28
  -6   7   3    0.32    0.28
   6  -7  -3    0.44    0.26
   6  -7  -3   -0.03    0.37
   6  -7  -3    0.82    0.55
   6  -7  -3    0.08    0.24
   6  -7  -3    0.09    0.22
  -3   7   4   24.77    1.44
  -3   7   4   26.10    1.07
  -3   7   4   25.36    1.22
   3  -7  -4   25.12    1.17
   3  -7  -4   26.05    1.04
   3  -7  -4   25.13    0.76
   3  -7  -4   25.35    1.01
   3  -7  -4   25.99    1.23
   0   7   5   -0.11    0.20
   0   7   5   -0.02    0.44
   0   7   5   -0.03    0.19
   0   7   5    0.09    0.14
   0   7   5   -0.18    0.19
   0  -7  -5    0.02    0.23
   0  -7  -5    0.20    0.22
   0  -7  -5    0.07    0.15
   3   7   6    0.66    0.46
   3   7   6    0.46    0.31
   3   7   6    0.70    0.24
   3   7   6    0.83    0.47
  -3  -7  -6    0.70    0.27
  -3  -7  -6    0.79    0.34
  -3  -7  -6    1.06    0.50
  -3  -7  -6    1.07    0.37
  -3  -7  -6    0.44    0.57
  -3  -7  -6    0.98    0.28
  -3  -7  -6    1.20    0.43
  -3  -7  -6    1.77    0.64
  -3  -7  -6    0.71    0.17
  -3  -7  -6    1.04    0.26
  -6  -7  -7    2.62    1.05
  -6  -7  -7    1.19    0.71
  -5   6   3    0.44    0.26
  -5   6   3    0.86    0.35
  -5   6   3    0.31    0.24
   5  -6  -3    0.34    0.23
   5  -6  -3    0.47    0.22
   5  -6  -3    0.62    0.23
   5  -6  -3    0.52    0.47
  -2   6   4   20.51    0.82
  -2   6   4   20.60    0.80
  -2   6   4   20.57    0.95
   2  -6  -4   20.88    0.82
   2  -6  -4   20.29    0.92
   2  -6  -4   18.94    0.67
   2  -6  -4   20.52    1.35
   1   6   5    0.90    0.30
   1   6   5    1.44    0.31
   1   6   5    1.86    0.66
   1   6   5    0.82    0.24
  -1  -6  -5    0.78    0.28
  -1  -6  -5    1.06    0.31
  -1  -6  -5    0.61    0.16
   4   6   6    0.38    0.34
   4   6   6    0.29    0.39
   4   6   6   -0.06    0.23
   4   6   6    0.12    0.26
  -4  -6  -6   -0.20    0.59
  -4  -6  -6   -0.28    0.41
  -4  -6  -6   -0.02    0.53
  -4  -6  -6   -0.03    0.31
  -4  -6  -6   -0.21    0.21
  -4  -6  -6    0.15    0.11
  -4  -6  -6    0.08    0.18
  -4  -6  -6   -0.28    0.18
  -4  -6  -6    0.37    0.22
  -4  -6  -6   -0.13    0.23
  -4  -6  -6    0.09    0.33
  -7   5   2   -0.20    0.26
  -7   5   2   -0.06    0.50
  -7   5   2   -0.13    0.26
  -7   5   2   -0.03    0.27
   7  -5  -2   -0.20    0.42
   7  -5  -2    0.00    0.28
  -4   5   3    5.55    0.64
  -4   5   3    4.72    0.44
  -4   5   3    6.11    0.63
   4  -5  -3    4.80    0.55
   4  -5  -3    5.45    0.46
   4  -5  -3    5.41    0.48
   4  -5  -3    5.52    0.68
   4  -5  -3    5.02    0.44
  -1   5   4   24.32    0.61
  -1   5   4   24.92    0.87
  -1   5   4   25.22    0.78
  -1   5   4   23.88    0.80
   1  -5  -4   23.84    0.85
   1  -5  -4   24.52    0.77
   1  -5  -4   24.51    0.82
   2   5   5    3.33    0.43
   2   5   5    3.07    0.47
   2   5   5    3.71    0.42
   2   5   5    3.48    0.49
   2   5   5    3.00    0.27
  -2  -5  -5    3.26    0.41
  -2  -5  -5    2.97    0.27
  -2  -5  -5    3.46    0.38
  -2  -5  -5    3.76    0.35
  -2  -5  -5    2.89    0.45
  -2  -5  -5    3.30    0.38
  -2  -5  -5    3.34    0.44
  -2  -5  -5    3.79    0.52
   5   5   6    1.40    0.48
   5   5   6    1.86    0.46
   5   5   6    1.27    0.38
   5   5   6    0.90    0.30
  -5  -5  -6    1.63    0.44
  -5  -5  -6    1.54    0.38
  -5  -5  -6    1.30    0.19
  -5  -5  -6    2.47    0.70
  -5  -5  -6    2.43    0.88
  -5  -5  -6    4.50    1.19
  -5  -5  -6    2.40    1.11
  -5  -5  -6    1.14    0.30
  -5  -5  -6    1.65    0.46
  -5  -5  -6    1.88    0.74
  -6   4   2   -0.17    0.19
  -6   4   2    0.38    0.34
  -6   4   2   -0.19    0.22
   6  -4  -2    0.02    0.12
   6  -4  -2    0.01    0.20
   6  -4  -2    0.28    0.44
   6  -4  -2    0.31    0.27
  -3   4   3   26.49    1.06
  -3   4   3   27.88    0.80
   3  -4  -3   26.97    1.04
   3  -4  -3   28.05    0.87
   3  -4  -3   28.48    0.80
   3  -4  -3   27.99    1.21
   0   4   4   26.25    0.73
   0   4   4   26.43    0.72
   0   4   4   25.45    0.58
   0   4   4   25.69    0.66
   0   4   4   26.01    0.80
   0  -4  -4   26.77    0.81
   0  -4  -4   26.40    0.73
   0  -4  -4   26.28    0.81
   3   4   5    0.21    0.31
   3   4   5    0.10    0.15
   3   4   5   -0.22    0.18
   3   4   5    0.22    0.20
   3   4   5    0.13    0.14
   3   4   5    0.20    0.32
  -3  -4  -5   -0.07    0.34
  -3  -4  -5    0.12    0.16
  -3  -4  -5    0.03    0.37
  -3  -4  -5   -0.19    0.21
  -3  -4  -5    0.09    0.07
  -3  -4  -5    0.34    0.18
  -3  -4  -5   -0.05    0.26
  -3  -4  -5    0.12    0.38
  -3  -4  -5   -0.08    0.24
   6   4   6    1.06    0.32
   6   4   6    1.82    0.54
   6   4   6    1.37    0.42
   6   4   6    1.83    0.58
  -6  -4  -6    1.50    0.22
  -6  -4  -6    3.46    0.84
  -6  -4  -6    2.27    0.63
  -6  -4  -6    2.63    0.62
  -6  -4  -6    3.10    0.78
  -6  -4  -6    1.29    0.22
  -6  -4  -6    2.32    0.60
  -6  -4  -6    1.34    0.36
  -6  -4  -6    4.01    1.05
  -6  -4  -6    1.30    0.35
  -6  -4  -6    1.65    0.46
  -5   3   2    0.33    0.25
  -5   3   2   -0.16    0.16
  -5   3   2    0.40    0.59
  -5   3   2    0.14    0.33
  -5   3   2   -0.08    0.20
  -5   3   2    0.18    0.45
   5  -3  -2    0.05    0.15
   5  -3  -2    0.22    0.14
   5  -3  -2   -0.07    0.17
   5  -3  -2   -0.22    0.38
   5  -3  -2    0.24    0.27
  -2   3   3   40.16    0.79
  -2   3   3   40.86    0.90
  -2   3   3   40.68    1.15
   2  -3  -3   40.81    0.90
   2  -3  -3   40.10    0.99
   2  -3  -3   41.49    1.15
   2  -3  -3   40.22    1.29
   1   3   4   66.79    1.49
   1   3   4   68.76    1.32
   1   3   4   69.45    1.61
   1   3   4   70.15    1.46
  -1  -3  -4   70.29    1.41
  -1  -3  -4   68.68    1.52
  -1  -3  -4   68.61    1.37
  -1  -3  -4   70.35    1.13
  -1  -3  -4   71.60    1.34
  -1  -3  -4   68.00    1.49
   4   3   5   35.90    1.23
   4   3   5   33.85    1.16
   4   3   5   34.79    1.28
   4   3   5   35.21    1.24
   4   3   5   34.56    1.34
   4   3   5   35.67    1.21
  -4  -3  -5   34.30    1.22
  -4  -3  -5   34.15    1.58
  -4  -3  -5   35.00    1.21
  -4  -3  -5   33.42    1.18
  -4  -3  -5   33.26    1.19
  -4  -3  -5   34.76    1.35
  -4  -3  -5   35.30    1.29
  -4  -3  -5   35.55    0.90
  -4  -3  -5   35.21    1.52
  -4  -3  -5   34.67    1.33
  -4  -3  -5   34.87    1.23
  -7  -3  -6    0.85    0.54
  -7   2   1    0.37    0.36
  -7   2   1    1.12    0.46
  -7   2   1    0.39    0.26
   7  -2  -1    0.62    0.29
   7  -2  -1    0.49    0.27
   7  -2  -1    0.47    0.31
   7  -2  -1    1.06    0.38
   7  -2  -1    1.00    0.58
  -4   2   2   19.71    0.92
  -4   2   2   17.75    1.05
  -4   2   2   19.21    0.63
  -4   2   2   21.00    0.96
  -4   2   2   18.33    1.31
  -4   2   2   18.92    0.64
  -4   2   2   18.51    0.52
   4  -2  -2   19.79    0.83
   4  -2  -2   18.84    0.82
   4  -2  -2   18.52    0.65
   4  -2  -2   18.72    0.94
   4  -2  -2   19.86    1.11
  -1   2   3  161.74    2.87
  -1   2   3  166.57    2.75
  -1   2   3  162.55    2.62
  -1   2   3  163.68    2.50
  -1   2   3  167.38    2.78
   1  -2  -3  169.88    2.80
   1  -2  -3  162.51    2.74
   1  -2  -3  169.60    2.61
   2   2   4   38.68    1.01
   2   2   4   39.73    1.11
   2   2   4   39.81    1.06
   2   2   4   38.43    1.05
   2   2   4   37.94    0.97
   2   2   4   39.60    1.09
   2   2   4   38.07    1.01
  -2  -2  -4   39.14    1.09
  -2  -2  -4   39.92    1.03
  -2  -2  -4   39.19    0.89
  -2  -2  -4   37.87    0.98
  -2  -2  -4   39.24    1.01
  -2  -2  -4   39.15    1.08
  -2  -2  -4   39.13    1.06
   5   2   5    3.63    0.51
   5   2   5    3.71    0.61
   5   2   5    3.10    0.43
   5   2   5    4.90    0.62
   5   2   5    3.47    0.37
   5   2   5    3.60    0.44
  -5  -2  -5    3.91    0.55
  -5  -2  -5    6.34    1.07
  -5  -2  -5    3.20    0.53
  -5  -2  -5    3.94    0.59
  -5  -2  -5    2.90    0.46
  -5  -2  -5    3.15    0.58
  -5  -2  -5    3.77    0.43
  -5  -2  -5    4.07    0.53
  -6   1   1   -0.32    0.20
  -6   1   1    0.03    0.26
  -6   1   1    0.27    0.22
  -6   1   1    0.66    0.45
   6  -1  -1   -0.06    0.11
   6  -1  -1   -0.02    0.22
   6  -1  -1    0.19    0.23
   6  -1  -1    0.58    0.26
   6  -1  -1   -0.07    0.16
   6  -1  -1    0.19    0.41
  -3   1   2    1.20    0.40
  -3   1   2    1.18    0.31
  -3   1   2    0.99    0.19
  -3   1   2    0.60    0.21
  -3   1   2    1.20    0.47
  -3   1   2    1.08    0.19
   3  -1  -2    0.82    0.20
   3  -1  -2    1.56    0.53
   3  -1  -2    1.45    0.37
   3  -1  -2    0.96    0.18
   3  -1  -2    1.51    0.27
   0   1   3 1000.00   17.61
   0  -1  -3  968.07   17.43
   3   1   4    4.57    0.45
   3   1   4    4.88    0.30
   3   1   4    4.92    0.40
   3   1   4    5.61    0.53
   3   1   4    4.85    0.42
   3   1   4    4.46    0.44
  -3  -1  -4    5.06    0.24
  -3  -1  -4    5.12    0.33
  -3  -1  -4    4.40    0.58
  -3  -1  -4    5.12    0.56
  -3  -1  -4    4.11    0.38
  -3  -1  -4    4.16    0.43
  -3  -1  -4    5.26    0.46
  -3  -1  -4    4.25    0.33
   6   1   5    0.39    0.27
   6   1   5    0.51    0.28
   6   1   5    0.21    0.16
   6   1   5    0.60    0.29
   6   1   5    0.53    0.24
  -6  -1  -5    0.17    0.28
  -6  -1  -5    0.80    0.49
  -6  -1  -5    0.43    0.34
  -6  -1  -5    0.40    0.27
  -6  -1  -5    0.32    0.19
  -6  -1  -5   -0.05    0.25
  -6  -1  -5    0.95    0.42
   8   0   0    1.48    0.46
  -5   0   1    1.86    0.28
  -5   0   1    2.32    0.71
  -5   0   1    2.66    0.81
  -5   0   1    1.09    0.27
  -5   0   1    2.42    0.54
  -5   0   1    1.66    0.24
  -5   0   1    1.82    0.32
  -5   0   1    1.52    0.35
   5   0  -1    2.13    0.25
   5   0  -1    2.23    0.40
   5   0  -1    0.89    0.25
   5   0  -1    2.13    0.39
   5   0  -1    1.42    0.33
   5   0  -1    3.02    0.79
  -2   0   2    2.31    0.37
  -2   0   2    2.38    0.30
  -2   0   2    2.51    0.28
  -2   0   2    2.32    0.29
  -2   0   2    2.74    0.53
   2   0  -2    2.16    0.20
   2   0  -2    2.37    0.26
   2   0  -2    2.33    0.25
   2   0  -2    2.25    0.42
   2   0  -2    2.73    0.49
   2   0  -2    2.16    0.29
   2   0  -2    2.29    0.29
   1   0   3    5.01    0.36
   1   0   3    5.65    0.34
   1   0   3    5.26    0.28
  -1   0  -3    5.58    0.33
  -1   0  -3    5.79    0.40
  -1   0  -3    5.23    0.27
   4   0   4    0.03    0.11
   4   0   4   -0.06    0.17
   4   0   4    0.08    0.20
   4   0   4    0.02    0.15
   4   0   4   -0.29    0.11
   4   0   4   -0.02    0.19
  -4   0  -4   -0.04    0.22
  -4   0  -4    0.12    0.40
  -4   0  -4    0.12    0.18
  -4   0  -4    0.05    0.20
  -4   0  -4    0.16    0.20
  -4   0  -4   -0.02    0.17
  -4   0  -4    0.04    0.15
  -4   0  -4    0.07    0.30
   7   0   5    0.71    0.24
   7   0   5    0.75    0.31
   7   0   5    0.91    0.32
   7   0   5    0.33    0.25
   7   0   5    0.65    0.39
  -7   0  -5    2.27    0.56
  -7   0  -5    0.87    0.40
  -7   0  -5    0.29    0.39
  -7   0  -5    0.73    0.33
  -7   0  -5    0.69    0.28
  -7   0  -5    1.87    0.62
  -7  -1   0    1.11    0.21
  -7  -1   0    0.52    0.28
  -7  -1   0    2.68    0.63
  -7  -1   0    3.05    0.86
  -7  -1   0    1.48    0.35
  -7  -1   0    0.86    0.34
  -7  -1   0    1.09    0.37
   7   1   0    1.15    0.34
   7   1   0    1.51    0.41
   7   1   0    1.06    0.39
   7   1   0    2.04    0.78
  -4  -1   1    8.10    0.51
  -4  -1   1    8.39    0.92
  -4  -1   1    9.56    0.56
  -4  -1   1    9.49    0.49
  -4  -1   1    8.43    0.69
  -4  -1   1    9.05    0.83
  -4  -1   1    8.31    0.46
  -4  -1   1    9.09    0.62
   4   1  -1    7.98    0.44
   4   1  -1    8.70    0.61
   4   1  -1    8.52    0.52
   4   1  -1    8.98    0.61
   4   1  -1    8.98    0.57
   4   1  -1    8.90    0.77
  -1  -1   2  270.42    4.03
  -1  -1   2  274.59    4.03
  -1  -1   2  267.89    4.21
  -1  -1   2  270.68    4.65
   1   1  -2  274.71    4.66
   1   1  -2  274.43    4.32
   1   1  -2  270.40    4.02
   1   1  -2  268.43    4.32
   1   1  -2  266.42    4.20
   2  -1   3    2.55    0.33
   2  -1   3    1.61    0.20
   2  -1   3    1.86    0.28
  -2   1  -3    2.11    0.24
  -2   1  -3    2.37    0.19
  -2   1  -3    2.41    0.31
  -2   1  -3    3.33    0.50
  -2   1  -3    1.75    0.21
   5  -1   4    4.06    0.58
   5  -1   4    4.44    0.50
   5  -1   4    4.89    0.48
   5  -1   4    4.58    0.59
   5  -1   4    4.58    0.53
   5  -1   4    4.36    0.48
  -5   1  -4    4.00    0.58
  -5   1  -4    5.05    0.54
  -5   1  -4    4.44    0.48
  -5   1  -4    3.17    0.39
  -5   1  -4    4.97    0.60
  -5   1  -4    5.17    0.69
  -6  -2   0   29.80    1.07
  -6  -2   0   29.67    1.66
  -6  -2   0   30.12    0.82
  -6  -2   0   28.38    1.20
  -6  -2   0   33.40    1.81
  -6  -2   0   31.56    1.41
  -6  -2   0   27.87    1.22
  -6  -2   0   35.29    2.12
  -6  -2   0   28.80    1.05
  -6  -2   0   30.99    1.34
  -6  -2   0   25.17    1.32
  -6  -2   0   29.21    1.57
   6   2   0   29.79    1.28
   6   2   0   29.38    1.21
   6   2   0   28.93    1.30
   6   2   0   29.65    1.64
  -3  -2   1    0.65    0.21
  -3  -2   1    0.88    0.18
  -3  -2   1    1.02    0.34
  -3  -2   1    0.64    0.22
  -3  -2   1    0.59    0.16
  -3  -2   1    1.00    0.32
  -3  -2   1    0.67    0.20
  -3  -2   1    0.78    0.40
  -3  -2   1    1.05    0.49
  -3  -2   1    1.00    0.36
  -3  -2   1    0.91    0.20
  -3  -2   1    0.56    0.14
   3   2  -1    0.70    0.24
   3   2  -1    1.13    0.21
   3   2  -1    0.67    0.17
   3   2  -1    0.85    0.48
   3   2  -1    0.70    0.15
   3   2  -1    0.94    0.36
   3   2  -1    0.32    0.29
   0  -2   2   36.96    0.88
   0  -2   2   35.76    1.01
   0  -2   2   35.31    0.82
   0  -2   2   36.65    0.88
   0  -2   2   35.16    0.89
   0   2  -2   36.80    0.83
   0   2  -2   36.39    0.90
   0   2  -2   37.63    0.88
   0   2  -2   36.26    1.01
   0   2  -2   36.52    0.87
   3  -2   3    6.10    0.47
  -3   2  -3    6.80    0.52
  -3   2  -3    5.38    0.46
  -3   2  -3    5.65    0.56
  -3   2  -3    5.62    0.56
   6  -2   4    7.09    0.65
   6  -2   4    7.13    1.13
   6  -2   4    8.07    0.62
   6  -2   4    4.73    0.81
   6  -2   4    8.05    0.73
  -6   2  -4    8.06    0.73
  -6   2  -4    8.87    0.69
  -6   2  -4    5.90    0.74
  -6   2  -4    8.08    0.77
  -6   2  -4    5.46    0.98
  -6   2  -4    7.81    0.77
  -5  -3   0   16.37    1.13
  -5  -3   0   16.56    0.82
  -5  -3   0   19.59    1.59
  -5  -3   0   17.02    0.92
  -5  -3   0   16.91    1.23
  -5  -3   0   16.35    0.89
  -5  -3   0   15.86    0.60
  -5  -3   0   16.03    1.09
  -5  -3   0   16.74    1.00
  -5  -3   0   17.40    0.97
  -5  -3   0   14.96    0.97
  -5  -3   0   17.15    0.92
  -5  -3   0   16.74    0.75
   5   3   0   16.59    0.91
   5   3   0   17.22    0.90
   5   3   0   17.47    0.85
   5   3   0   17.88    1.14
  -2  -3   1   66.01    1.31
  -2  -3   1   64.86    1.32
  -2  -3   1   65.12    1.47
  -2  -3   1   64.12    1.85
  -2  -3   1   63.72    1.93
  -2  -3   1   64.50    1.55
  -2  -3   1   64.89    1.43
  -2  -3   1   64.34    1.71
   2   3  -1   65.99    1.44
   2   3  -1   64.26    1.95
   2   3  -1   63.82    1.45
   2   3  -1   64.27    1.65
   2   3  -1   66.88    1.56
   2   3  -1   64.86    1.72
   2   3  -1   65.69    1.30
   1  -3   2   15.93    0.57
   1  -3   2   16.41    0.65
   1  -3   2   15.95    0.67
   1  -3   2   15.77    0.69
   1  -3   2   16.37    0.64
  -1   3  -2   16.16    0.69
  -1   3  -2   15.77    0.63
  -1   3  -2   15.73    0.65
  -1   3  -2   16.12    0.55
   4  -3   3    3.56    0.49
   4  -3   3    4.47    0.62
   4  -3   3    4.77    0.58
  -4   3  -3    2.75    0.36
  -4   3  -3    4.35    0.59
  -4   3  -3    4.00    0.38
  -4   3  -3    4.17    0.50
  -4   3  -3    4.96    0.63
   7  -3   4   -0.31    0.18
   7  -3   4    0.26    0.33
   7  -3   4    0.48    0.21
   7  -3   4    0.13    0.22
  -7   3  -4   -0.01    0.33
  -7   3  -4   -0.89    0.37
  -7   3  -4   -0.11    0.32
  -7   3  -4    1.45    0.51
  -7  -4  -1    0.47    0.34
  -7  -4  -1    0.04    0.20
  -7  -4  -1    0.65    0.33
  -7  -4  -1   -0.17    0.18
  -7  -4  -1    0.44    0.49
   7   4   1   -0.21    0.21
   7   4   1   -0.22    0.27
  -4  -4   0    6.46    1.00
  -4  -4   0    5.48    0.53
  -4  -4   0    6.65    0.44
  -4  -4   0    5.66    0.74
  -4  -4   0    7.47    0.60
  -4  -4   0    5.93    0.48
  -4  -4   0    6.21    0.64
  -4  -4   0    5.82    0.55
  -4  -4   0    6.07    0.69
  -4  -4   0    6.21    0.50
  -4  -4   0    6.35    0.55
   4   4   0    5.71    0.80
   4   4   0    6.38    0.66
   4   4   0    6.02    0.63
   4   4   0    6.06    0.54
  -1  -4   1   56.20    1.50
  -1  -4   1   54.90    1.68
  -1  -4   1   56.94    1.31
  -1  -4   1   55.04    1.36
  -1  -4   1   57.66    1.25
   1   4  -1   57.78    1.18
   1   4  -1   56.20    1.14
   1   4  -1   57.67    1.52
   1   4  -1   57.73    1.80
   1   4  -1   55.55    1.28
   1   4  -1   55.60    1.67
   2  -4   2    0.64    0.19
   2  -4   2    1.13    0.20
   2  -4   2    1.04    0.23
   2  -4   2    1.11    0.26
  -2   4  -2    1.84    0.37
  -2   4  -2    1.56    0.49
  -2   4  -2    0.86    0.35
  -2   4  -2    0.72    0.19
   5  -4   3    0.17    0.19
   5  -4   3   -0.07    0.18
   5  -4   3   -0.04    0.17
   5  -4   3    0.09    0.21
   5  -4   3    0.24    0.29
  -5   4  -3    0.52    0.46
  -5   4  -3    0.09    0.26
  -5   4  -3    0.10    0.22
  -5   4  -3    0.11    0.28
  -6  -5  -1    1.60    0.41
  -6  -5  -1    1.52    0.31
  -6  -5  -1    1.15    0.30
  -6  -5  -1    1.19    0.31
  -6  -5  -1    1.07    0.35
  -6  -5  -1    3.08    0.50
  -6  -5  -1    1.98    0.61
  -6  -5  -1    2.00    0.47
  -6  -5  -1    5.45    1.47
  -6  -5  -1    3.33    0.88
  -6  -5  -1    0.91    0.30
   6   5   1    2.26    0.51
  -3  -5   0    1.47    0.34
  -3  -5   0    2.72    0.42
  -3  -5   0    1.66    0.30
  -3  -5   0    3.00    0.77
  -3  -5   0    2.09    0.36
  -3  -5   0    1.73    0.35
  -3  -5   0    3.06    0.63
  -3  -5   0    2.71    0.60
  -3  -5   0    1.85    0.48
  -3  -5   0    2.80    1.52
   3   5   0    2.44    0.53
   3   5   0    1.75    0.30
   3   5   0    2.49    0.37
   3   5   0    2.85    0.70
   3   5   0    3.15    0.75
   3   5   0    2.58    0.77
   3   5   0    1.80    0.47
   0  -5   1   67.94    1.62
   0  -5   1   69.57    1.61
   0  -5   1   68.17    1.43
   0  -5   1   67.58    1.94
   0   5  -1   66.78    1.69
   0   5  -1   65.42    1.58
   0   5  -1   67.34    1.47
   0   5  -1   71.51    2.28
   3  -5   2   22.37    1.02
   3  -5   2   22.36    1.04
   3  -5   2   25.04    1.01
   3  -5   2   22.67    0.76
  -3   5  -2   22.94    1.07
  -3   5  -2   22.61    1.07
  -3   5  -2   22.30    0.99
  -3   5  -2   22.92    1.06
  -3   5  -2   20.95    0.94
   6  -5   3    1.05    0.23
   6  -5   3    0.77    0.26
   6  -5   3    1.23    0.49
  -6   5  -3    0.75    0.40
  -6   5  -3    2.70    0.73
  -6   5  -3    0.48    0.36
  -6   5  -3    1.69    0.52
  -5  -6  -1   10.00    1.44
  -5  -6  -1    7.10    0.64
  -5  -6  -1    6.68    0.69
  -5  -6  -1    7.57    0.83
  -5  -6  -1    5.92    0.68
  -5  -6  -1    7.16    0.64
  -5  -6  -1    7.77    1.01
  -5  -6  -1    7.06    0.62
  -5  -6  -1    6.89    0.69
  -5  -6  -1    7.35    0.57
  -5  -6  -1    7.66    0.69
  -5  -6  -1    5.18    0.62
   5   6   1    6.70    0.77
   5   6   1    8.15    0.70
  -2  -6   0    2.02    0.71
  -2  -6   0    0.99    0.22
  -2  -6   0    1.01    0.26
  -2  -6   0    1.52    0.38
  -2  -6   0    1.12    0.23
  -2  -6   0    1.95    0.41
  -2  -6   0    1.64    0.32
  -2  -6   0    1.74    0.34
  -2  -6   0    1.35    0.58
   2   6   0    1.28    0.29
   2   6   0    1.92    0.66
   2   6   0    1.03    0.24
   2   6   0    1.66    0.45
   2   6   0    1.70    0.54
   2   6   0    2.42    0.70
   1  -6   1    8.66    0.63
   1  -6   1    9.50    0.55
   1  -6   1    8.64    0.57
   1  -6   1   10.28    1.02
  -1   6  -1    9.30    0.60
  -1   6  -1    9.04    0.83
  -1   6  -1    9.46    0.79
   4  -6   2    0.85    0.22
   4  -6   2    0.99    0.36
   4  -6   2    0.96    0.30
   4  -6   2    0.50    0.24
  -4   6  -2    1.03    0.39
  -4   6  -2    1.14    0.58
  -4   6  -2    0.60    0.29
  -4   6  -2    1.12    0.41
  -4   6  -2    0.86    0.85
  -4  -7  -1    6.18    1.61
  -4  -7  -1    2.71    0.48
  -4  -7  -1    4.08    0.97
  -4  -7  -1    3.22    0.58
  -4  -7  -1    4.25    0.97
  -4  -7  -1    2.23    0.41
  -4  -7  -1    2.19    0.38
  -4  -7  -1    3.99    0.79
  -4  -7  -1    2.24    0.40
  -4  -7  -1    1.93    0.39
   4   7   1    2.80    0.74
   4   7   1    4.58    0.99
   4   7   1    3.79    0.75
  -1  -7   0    0.03    0.15
  -1  -7   0   -0.08    0.21
  -1  -7   0    0.44    0.28
  -1  -7   0    0.24    0.52
  -1  -7   0   -0.05    0.22
  -1  -7   0    0.13    0.20
  -1  -7   0    0.07    0.15
   1   7   0   -0.12    0.22
   1   7   0   -0.15    0.33
   1   7   0   -0.14    0.38
   1   7   0   -0.11    0.44
   2  -7   1    1.08    0.27
   2  -7   1    1.02    0.36
   2  -7   1    1.13    0.29
   2  -7   1    0.69    0.28
  -2   7  -1    1.87    0.72
  -2   7  -1    1.49    0.33
  -2   7  -1    1.36    0.40
   5  -7   2   -0.05    0.17
   5  -7   2   -0.07    0.18
   5  -7   2    0.11    0.28
   5  -7   2   -0.02    0.35
  -5   7  -2    0.46    0.49
  -5   7  -2    0.37    0.26
  -5   7  -2   -0.13    0.49
  -5   7  -2   -0.50    0.34
  -6  -8  -2    0.29    0.34
  -6  -8  -2   -0.14    0.22
  -6  -8  -2    0.15    0.29
  -6  -8  -2    0.33    0.25
  -6  -8  -2    2.34    0.89
  -6  -8  -2    0.36    0.29
  -3  -8  -1    1.98    0.35
  -3  -8  -1    3.81    0.68
  -3  -8  -1    2.79    0.45
  -3  -8  -1    3.24    0.55
  -3  -8  -1    2.84    0.44
  -3  -8  -1    3.34    0.48
  -3  -8  -1    3.30    0.50
  -3  -8  -1    6.30    1.23
  -3  -8  -1    2.96    0.48
   3   8   1    4.36    1.00
   3   8   1    3.96    0.73
   3   8   1    3.94    0.49
   3   8   1    4.25    0.92
   3   8   1    3.92    0.86
   0  -8   0    5.01    0.40
   0  -8   0    4.79    0.55
   0  -8   0    5.87    0.62
   0  -8   0    5.97    1.11
   0  -8   0    3.35    0.49
   0   8   0    5.63    0.89
   0   8   0    5.31    0.65
   0   8   0    5.00    0.74
   0   8   0    5.17    0.48
   0   8   0    4.88    0.54
   3  -8   1   -0.04    0.20
   3  -8   1   -0.06    0.18
   3  -8   1    0.20    0.29
   3  -8   1   -0.06    0.18
  -3   8  -1   -0.07    0.31
  -3   8  -1    0.18    0.28
  -3   8  -1    0.51    0.56
   6  -8   2   -0.56    0.42
  -6   8  -2   -0.08    0.39
  -6   8  -2   -0.31    0.56
  -6   8  -2   -0.03    0.31
  -5  -9  -2    0.20    0.54
  -5  -9  -2   -0.06    0.19
  -5  -9  -2   -1.50    1.99
  -5  -9  -2    0.05    0.19
  -5  -9  -2   -0.10    0.34
  -5  -9  -2    0.60    0.59
  -5  -9  -2   -0.04    0.31
   5   9   2   -0.35    0.31
   5   9   2    0.59    0.54
  -2  -9  -1    1.59    0.37
  -2  -9  -1    2.07    0.41
  -2  -9  -1    1.06    0.33
  -2  -9  -1    1.83    0.35
   2   9   1    1.43    0.31
   2   9   1    2.00    0.66
   2   9   1    1.75    0.66
   2   9   1    3.31    0.69
   2   9   1    3.40    0.87
   1  -9   0   -0.19    0.18
   1  -9   0   -0.13    0.15
   1  -9   0    0.14    0.28
   1  -9   0   -0.01    0.20
   1  -9   0    0.05    0.28
  -1   9   0   -0.16    0.21
  -1   9   0   -0.21    0.39
  -1   9   0   -0.25    0.37
   4  -9   1    0.10    0.24
   4  -9   1   -0.02    0.30
   4  -9   1    0.13    0.26
   4  -9   1   -0.01    0.22
  -4   9  -1    0.10    0.45
  -4   9  -1   -0.21    0.28
  -4   9  -1   -0.05    0.37
  -4 -10  -2    0.61    0.41
  -4 -10  -2    0.73    0.59
  -4 -10  -2    0.81    0.36
  -4 -10  -2    0.53    0.55
  -4 -10  -2    0.56    0.38
   4  10   2    1.25    0.67
   4  10   2    0.83    0.48
   4  10   2    1.45    0.70
   4  10   2    0.81    0.54
  -1 -10  -1    0.76    0.27
  -1 -10  -1    1.89    0.92
  -1 -10  -1    1.80    0.37
  -1 -10  -1    1.82    0.39
  -1 -10  -1    2.38    0.43
  -1 -10  -1    1.49    0.43
   1  10   1    2.38    0.62
   1  10   1    2.73    0.63
   1  10   1    2.74    0.81
   1  10   1    2.90    0.81
   1  10   1    1.30    0.37
   2 -10   0    2.04    0.33
   2 -10   0    2.00    0.44
   2 -10   0    2.68    0.47
   2 -10   0    1.76    0.48
   2 -10   0    1.97    0.34
  -2  10   0    2.16    0.42
  -2  10   0    1.96    0.50
  -2  10   0    3.10    0.91
  -3 -11  -2    0.31    0.34
  -3 -11  -2   -0.09    0.24
   3  11   2    0.46    0.52
   3  11   2   -0.03    0.44
   3  11   2    0.19    0.38
   3  11   2    0.10    0.25
   3  11   2    1.04    0.47
   0 -11  -1    0.39    0.28
   0 -11  -1    0.15    0.36
   0 -11  -1   -0.21    0.24
   0 -11  -1   -0.03    0.25
   0  11   1    0.33    0.43
   0  11   1    0.03    0.20
   0  11   1    0.12    0.56
   0  11   1    0.57    0.54
   3 -11   0    3.40    0.64
   3 -11   0    1.94    0.50
   3 -11   0    2.80    0.52
   3 -11   0    2.36    0.36
  -3  11   0    1.26    0.42
  -3  11   0    3.24    1.06
  -2 -12  -2   -0.45    0.32
  -2 -12  -2    0.00    0.24
  -2 -12  -2    0.33    0.33
  -2 -12  -2    0.61    0.44
   2  12   2    1.22    0.52
   2  12   2    1.36    0.55
   2  12   2    0.72    0.51
   2  12   2    0.92    0.60
   1 -12  -1    0.20    0.31
   1 -12  -1    0.04    0.26
   1 -12  -1   -0.31    0.36
   1 -12  -1    0.21    0.40
  -1  12   1    0.56    0.65
  -1  12   1   -1.09    0.68
  -1  12   1    1.16    0.65
  -1 -13  -2    1.05    0.53
  -1 -13  -2    0.33    0.48
  -1 -13  -2    0.19    0.32
   1  13   2    0.80    0.57
   1  13   2    1.12    0.57
   1  13   2    1.14    0.84
  -1  13   7    0.94    0.41
  -1  13   7    1.17    0.74
   1 -13  -7    0.09    0.34
   1 -13  -7    0.52    0.38
   1 -13  -7    1.04    0.55
   1 -13  -7    1.18    0.54
   2  13   8    1.48    0.70
   2  13   8    1.66    0.80
   2  13   8    1.87    0.48
  -2 -13  -8    0.42    0.41
  -2 -13  -8    2.80    0.68
  -3  12   6    0.60    0.32
  -3  12   6    0.89    0.38
  -3  12   6    2.07    1.01
   3 -12  -6    0.07    0.38
   3 -12  -6    1.95    0.50
   3 -12  -6    2.24    0.61
   0  12   7    3.67    0.48
   0  12   7    4.93    1.09
   0 -12  -7    3.97    0.67
   3  12   8    0.44    0.51
   3  12   8    0.83    0.59
  -3 -12  -8    0.68    0.38
  -3 -12  -8    0.29    0.33
  -3 -12  -8    2.22    0.64
  -2  11   6   -0.09    0.24
  -2  11   6    0.25    0.56
  -2  11   6    0.53    0.33
   2 -11  -6    0.54    0.31
   2 -11  -6    0.54    0.37
   2 -11  -6    0.67    0.38
   2 -11  -6    0.06    0.43
   1  11   7    0.83    0.55
   1  11   7    1.13    0.41
   1  11   7    0.91    0.74
  -1 -11  -7    0.70    0.27
  -1 -11  -7    0.70    0.33
   4  11   8    0.36    0.51
   4  11   8   -0.06    0.40
  -4 -11  -8    2.20    0.60
  -4 -11  -8   -0.18    0.32
  -4  10   5    0.14    0.30
  -4  10   5   -0.15    0.23
  -4  10   5    0.25    0.34
   4 -10  -5    0.33    0.43
   4 -10  -5   -0.08    0.26
   4 -10  -5    0.11    0.31
   4 -10  -5   -0.41    0.24
  -1  10   6    1.56    0.43
  -1  10   6    1.60    0.71
   1 -10  -6    0.80    0.30
   1 -10  -6    1.27    0.44
   1 -10  -6    1.79    0.42
   2  10   7    7.28    1.41
   2  10   7    4.07    0.54
   2  10   7    4.28    0.52
   2  10   7    5.40    0.76
   2  10   7    5.12    0.99
  -2 -10  -7    4.14    0.59
  -2 -10  -7    2.56    0.45
  -2 -10  -7    4.56    0.62
  -2 -10  -7    3.17    0.41
   5  10   8    0.42    0.27
   5  10   8    0.91    0.56
   5  10   8    0.45    0.51
  -5 -10  -8   -1.49    0.67
  -5 -10  -8    0.38    0.31
  -5 -10  -8    4.84    1.74
  -5 -10  -8    1.63    0.65
  -6   9   4   -0.35    0.30
  -6   9   4   -0.11    0.34
   6  -9  -4   -0.45    0.28
   6  -9  -4    0.86    0.56
   6  -9  -4    0.68    0.23
   6  -9  -4    0.37    0.27
  -3   9   5    5.32    0.57
  -3   9   5    4.66    0.58
  -3   9   5    3.49    0.52
   3  -9  -5    4.17    0.44
   3  -9  -5    4.18    0.62
   3  -9  -5    4.45    0.56
   3  -9  -5    3.65    0.51
   0   9   6    0.16    0.25
   0   9   6   -0.01    0.17
   0   9   6   -0.09    0.25
   0   9   6    0.10    0.46
   0  -9  -6   -0.15    0.25
   0  -9  -6    0.26    0.21
   0  -9  -6    0.24    0.27
   3   9   7    9.54    0.76
   3   9   7    8.31    0.89
   3   9   7    9.91    0.95
   3   9   7    8.89    0.78
  -3  -9  -7    8.33    0.70
  -3  -9  -7   10.41    0.78
  -3  -9  -7    8.30    0.74
  -3  -9  -7    9.21    0.88
  -3  -9  -7    8.64    0.80
  -3  -9  -7    8.36    0.59
  -5   8   4    5.17    0.62
  -5   8   4    3.26    0.58
   5  -8  -4    5.07    0.54
   5  -8  -4    4.61    0.59
   5  -8  -4    5.44    0.77
   5  -8  -4    4.48    0.55
  -2   8   5    0.55    0.28
  -2   8   5    0.55    0.26
   2  -8  -5    0.68    0.26
   2  -8  -5    0.52    0.45
   2  -8  -5    0.49    0.28
   2  -8  -5   -0.03    0.16
   1   8   6    9.47    0.71
   1   8   6    9.44    0.93
   1   8   6    9.89    0.62
   1   8   6   10.10    0.60
  -1  -8  -6   10.18    0.73
  -1  -8  -6    9.29    0.61
  -1  -8  -6   10.20    0.73
   4   8   7   -0.35    0.16
   4   8   7    0.34    0.30
   4   8   7    0.06    0.40
   4   8   7    0.26    0.40
  -4  -8  -7    0.40    0.33
  -4  -8  -7   -0.19    0.13
  -4  -8  -7    1.98    0.86
  -4  -8  -7    0.98    0.52
  -4  -8  -7   -0.07    0.22
  -4  -8  -7   -0.06    0.47
  -4  -8  -7   -0.39    0.36
  -4  -8  -7   -0.04    0.21
  -4  -8  -7    0.10    0.19
  -4  -8  -7    0.05    0.11
  -4  -8  -7   -0.94    0.55
  -4   7   4    0.88    0.30
  -4   7   4    0.00    0.22
  -4   7   4    0.50    0.25
   4  -7  -4    0.61    0.29
   4  -7  -4    0.72    0.50
   4  -7  -4    0.24    0.20
   4  -7  -4    0.36    0.25
  -1   7   5    7.65    0.44
  -1   7   5    8.80    0.66
  -1   7   5    7.37    0.71
  -1   7   5    7.19    0.39
  -1   7   5    8.14    0.54
   1  -7  -5    6.78    0.55
   1  -7  -5    8.08    0.54
   1  -7  -5    7.03    0.58
   2   7   6    0.71    0.23
   2   7   6    1.55    0.65
   2   7   6    1.24    0.40
   2   7   6    1.19    0.35
   2   7   6    0.76    0.50
  -2  -7  -6    0.84    0.24
  -2  -7  -6    1.00    0.39
  -2  -7  -6    1.03    0.36
  -2  -7  -6    0.73    0.18
  -2  -7  -6    0.93    0.31
  -2  -7  -6    0.71    0.32
   5   7   7    0.55    0.35
   5   7   7    0.29    0.23
   5   7   7    0.70    0.44
   5   7   7    0.81    0.46
  -5  -7  -7    0.23    0.58
  -5  -7  -7    0.77    0.35
  -5  -7  -7    0.36    0.27
  -5  -7  -7    0.18    0.11
  -5  -7  -7    0.12    0.29
  -5  -7  -7    0.12    0.39
  -5  -7  -7   -0.05    0.24
  -5  -7  -7    0.63    0.65
  -5  -7  -7    0.56    0.52
  -5  -7  -7    0.17    0.25
  -6   6   3   -0.15    0.24
  -6   6   3   -0.20    0.23
  -6   6   3    0.38    0.32
   6  -6  -3    0.33    0.63
   6  -6  -3    0.84    0.58
   6  -6  -3    0.25    0.24
   6  -6  -3   -0.12    0.24
   6  -6  -3   -0.11    0.22
  -3   6   4   32.25    1.03
  -3   6   4   32.46    1.28
  -3   6   4   35.69    1.23
   3  -6  -4   32.07    1.24
   3  -6  -4   33.20    1.06
   3  -6  -4   32.73    1.37
   3  -6  -4   31.54    1.07
   0   6   5    5.23    0.45
   0   6   5    5.95    0.40
   0   6   5    5.81    0.47
   0   6   5    5.53    0.33
   0   6   5    5.84    0.67
   0  -6  -5    5.32    0.47
   0  -6  -5    5.12    0.42
   0  -6  -5    5.98    0.47
   3   6   6    1.30    0.48
   3   6   6    0.75    0.25
   3   6   6    0.63    0.30
   3   6   6    0.76    0.46
  -3  -6  -6    0.24    0.30
  -3  -6  -6    1.00    0.36
  -3  -6  -6    0.69    0.21
  -3  -6  -6    1.33    0.61
  -3  -6  -6    0.41    0.25
  -3  -6  -6    0.69    0.35
  -3  -6  -6    0.44    0.12
  -3  -6  -6    0.96    0.34
  -3  -6  -6    0.47    0.14
  -3  -6  -6    1.08    0.57
  -3  -6  -6    0.46    0.21
   6   6   7    5.60    1.02
   6   6   7    2.47    0.47
  -6  -6  -7    3.69    0.45
  -6  -6  -7    4.58    0.57
  -6  -6  -7    3.12    0.38
  -6  -6  -7    7.41    1.39
  -6  -6  -7    5.22    0.67
  -6  -6  -7    2.88    0.48
  -6  -6  -7    5.73    1.09
  -6  -6  -7    3.66    0.70
  -5   5   3    0.38    0.30
  -5   5   3    0.91    0.27
  -5   5   3    0.55    0.26
   5  -5  -3    1.31    0.30
   5  -5  -3    0.51    0.30
   5  -5  -3    1.10    0.49
   5  -5  -3    1.09    0.30
   5  -5  -3    1.07    0.25
   5  -5  -3    0.47    0.24
  -2   5   4   51.87    1.13
  -2   5   4   51.09    1.26
  -2   5   4   52.13    1.46
   2  -5  -4   52.82    1.68
   2  -5  -4   51.55    1.32
   2  -5  -4   53.62    1.29
   2  -5  -4   51.18    1.13
   2  -5  -4   54.34    1.48
   1   5   5   88.85    1.76
   1   5   5   88.67    1.85
   1   5   5   85.39    1.93
   1   5   5   85.25    2.20
  -1  -5  -5   88.44    1.62
  -1  -5  -5   87.02    1.73
  -1  -5  -5   87.30    1.92
  -1  -5  -5   86.66    1.97
   4   5   6    3.78    0.49
   4   5   6    4.18    0.60
   4   5   6    4.42    0.57
   4   5   6    4.46    0.54
  -4  -5  -6    3.79    0.50
  -4  -5  -6    4.16    0.68
  -4  -5  -6    4.96    0.81
  -4  -5  -6    4.39    0.51
  -4  -5  -6    4.78    0.71
  -4  -5  -6    4.79    0.30
  -4  -5  -6    4.12    0.54
  -4  -5  -6    4.11    0.54
  -4  -5  -6    4.95    0.59
  -7   4   2    1.65    0.53
  -7   4   2    0.99    0.39
  -7   4   2    0.85    0.34
   7  -4  -2    0.42    0.36
   7  -4  -2    0.93    0.37
   7  -4  -2    0.65    0.28
   7  -4  -2    1.60    0.71
  -4   4   3    5.49    0.61
  -4   4   3    6.22    0.40
  -4   4   3    5.79    0.64
   4  -4  -3    5.74    0.70
   4  -4  -3    6.14    0.51
   4  -4  -3    6.47    0.62
   4  -4  -3    6.06    0.40
   4  -4  -3    5.98    0.46
  -1   4   4    0.00    0.16
  -1   4   4    0.01    0.15
  -1   4   4    0.07    0.12
   1  -4  -4    0.14    0.12
   1  -4  -4   -0.10    0.13
   1  -4  -4    0.04    0.15
   1  -4  -4    0.09    0.15
   2   4   5   68.06    1.41
   2   4   5   67.14    1.60
   2   4   5   66.81    1.78
   2   4   5   66.55    1.72
   2   4   5   66.82    1.64
  -2  -4  -5   67.38    1.68
  -2  -4  -5   66.43    1.55
  -2  -4  -5   68.72    1.60
  -2  -4  -5   63.39    1.62
  -2  -4  -5   65.46    1.57
  -2  -4  -5   68.92    1.43
   5   4   6    1.19    0.33
   5   4   6    2.15    0.47
   5   4   6    1.97    0.45
   5   4   6    1.52    0.33
  -5  -4  -6    2.82    0.85
  -5  -4  -6    3.02    0.83
  -5  -4  -6    1.84    0.36
  -5  -4  -6    1.88    0.45
  -5  -4  -6    2.41    0.50
  -5  -4  -6    1.54    0.21
  -5  -4  -6    1.64    0.38
  -5  -4  -6    2.45    0.48
  -5  -4  -6    2.96    0.55
  -5  -4  -6    3.39    1.09
  -5  -4  -6    2.82    0.67
  -6   3   2    0.37    0.26
  -6   3   2    0.19    0.43
  -6   3   2   -0.09    0.23
  -6   3   2   -0.08    0.36
   6  -3  -2    0.47    0.28
   6  -3  -2    0.21    0.44
   6  -3  -2    0.66    0.29
   6  -3  -2    0.45    0.31
   6  -3  -2    0.45    0.26
   6  -3  -2    0.34    0.15
  -3   3   3   31.87    0.77
  -3   3   3   32.99    1.15
  -3   3   3   32.84    1.02
  -3   3   3   32.64    1.40
  -3   3   3   32.68    0.70
   3  -3  -3   32.54    0.93
   3  -3  -3   32.91    1.30
   3  -3  -3   33.77    1.15
   3  -3  -3   33.72    0.78
   0   3   4   61.44    1.24
   0   3   4   61.03    1.32
   0   3   4   63.05    1.20
   0  -3  -4   61.13    1.33
   0  -3  -4   63.10    1.20
   0  -3  -4   59.70    1.32
   3   3   5    2.37    0.40
   3   3   5    2.13    0.33
   3   3   5    1.63    0.28
   3   3   5    2.38    0.35
   3   3   5    1.78    0.34
   3   3   5    2.96    0.66
  -3  -3  -5    2.44    0.42
  -3  -3  -5    2.65    0.45
  -3  -3  -5    2.45    0.47
  -3  -3  -5    1.75    0.30
  -3  -3  -5    1.66    0.29
  -3  -3  -5    2.00    0.29
  -3  -3  -5    2.42    0.52
   6   3   6    3.16    0.50
   6   3   6    3.68    0.60
   6   3   6    2.04    0.54
  -6  -3  -6    3.29    0.56
  -6  -3  -6    4.41    0.63
  -6  -3  -6    1.95    0.43
  -6  -3  -6    2.40    0.31
  -6  -3  -6    3.76    0.65
  -6  -3  -6    5.00    0.93
  -5   2   2    0.29    0.50
  -5   2   2    0.16    0.57
  -5   2   2    0.25    0.24
  -5   2   2    0.22    0.17
  -5   2   2    0.07    0.20
  -5   2   2   -0.23    0.30
   5  -2  -2    0.02    0.18
   5  -2  -2    0.32    0.17
   5  -2  -2    0.23    0.14
   5  -2  -2    0.04    0.22
   5  -2  -2    0.44    0.26
   5  -2  -2   -0.23    0.36
  -2   2   3   13.37    0.77
  -2   2   3   13.25    0.53
  -2   2   3   14.02    0.53
  -2   2   3   13.14    0.62
   2  -2  -3   14.24    0.62
   2  -2  -3   13.78    0.74
   2  -2  -3   13.82    0.39
   2  -2  -3   13.15    0.53
   1   2   4  128.76    2.27
   1   2   4  137.22    2.41
   1   2   4  127.80    2.32
   1   2   4  134.77    2.22
  -1  -2  -4  129.74    2.21
  -1  -2  -4  134.46    2.29
  -1  -2  -4  127.04    2.33
  -1  -2  -4  131.54    2.26
   4   2   5    3.34    0.64
   4   2   5    4.40    0.32
   4   2   5    5.05    0.50
   4   2   5    4.76    0.54
   4   2   5    4.52    0.46
   4   2   5    4.37    0.48
  -4  -2  -5    4.54    0.29
  -4  -2  -5    4.76    0.66
  -4  -2  -5    4.42    0.37
  -4  -2  -5    4.14    0.50
  -4  -2  -5    4.52    0.56
  -4  -2  -5    4.05    0.44
  -4  -2  -5    3.98    0.44
  -4  -2  -5    5.95    0.59
   7   2   6    1.66    0.43
   7   2   6    1.57    0.51
  -7  -2  -6    2.76    0.74
  -7  -2  -6    3.38    0.55
  -7   1   1    0.82    0.35
  -7   1   1    2.12    0.58
  -7   1   1    3.64    0.88
  -7   1   1    1.00    0.36
   7  -1  -1    1.55    0.41
   7  -1  -1    1.96    0.71
   7  -1  -1    0.91    0.30
   7  -1  -1    0.82    0.35
  -4   1   2    0.49    0.46
  -4   1   2    0.15    0.15
  -4   1   2    0.23    0.18
  -4   1   2   -0.05    0.13
  -4   1   2    0.04    0.12
  -4   1   2    0.15    0.41
  -4   1   2   -0.01    0.27
   4  -1  -2    0.23    0.19
   4  -1  -2    0.04    0.20
   4  -1  -2    0.15    0.33
   4  -1  -2    0.06    0.14
   4  -1  -2   -0.03    0.11
  -1   1   3  741.32   11.03
   1  -1  -3  731.14   11.03
   2   1   4  116.48    2.24
   2   1   4  119.10    1.90
   2   1   4  121.49    2.21
   2   1   4  117.93    2.28
   2   1   4  119.33    2.19
   2   1   4  120.67    2.32
  -2  -1  -4  119.72    2.29
  -2  -1  -4  119.47    2.19
  -2  -1  -4  117.14    1.98
  -2  -1  -4  118.07    2.31
   5   1   5    0.44    0.19
   5   1   5    0.70    0.28
   5   1   5    0.49    0.25
   5   1   5    0.06    0.14
   5   1   5    0.47    0.27
   5   1   5    0.60    0.35
  -5  -1  -5    1.17    0.40
  -5  -1  -5    0.43    0.24
  -5  -1  -5    0.77    0.52
  -5  -1  -5    0.32    0.24
  -5  -1  -5    0.63    0.27
  -5  -1  -5    1.03    0.56
  -5  -1  -5    0.16    0.26
  -6   0   1    1.29    0.51
  -6   0   1    0.70    0.27
  -6   0   1    1.11    0.31
  -6   0   1    0.76    0.32
  -6   0   1    1.52    0.58
  -6   0   1    0.58    0.20
  -6   0   1    1.59    0.27
   6   0  -1    0.49    0.21
   6   0  -1    1.36    0.37
   6   0  -1    0.72    0.53
   6   0  -1    1.05    0.33
   6   0  -1    0.56    0.23
  -3   0   2    0.48    0.28
  -3   0   2    0.88    0.48
  -3   0   2    0.47    0.19
  -3   0   2    0.57    0.17
  -3   0   2    0.73    0.42
  -3   0   2    0.64    0.17
   3   0  -2    0.46    0.15
   3   0  -2    0.48    0.35
   3   0  -2    0.39    0.17
   3   0  -2    0.45    0.18
   3   0  -2    0.19    0.12
   3   0  -2    0.50    0.18
   0   0   3  188.75    3.14
   0   0   3  189.80    3.04
   0   0   3  193.36    2.89
   0   0  -3  190.97    3.13
   0   0  -3  189.98    3.03
   0   0  -3  188.43    2.98
   3   0   4   27.42    0.93
   3   0   4   26.03    0.76
   3   0   4   25.74    0.97
   3   0   4   27.27    0.87
   3   0   4   25.53    0.97
  -3   0  -4   26.87    1.02
  -3   0  -4   27.24    0.79
  -3   0  -4   26.07    0.87
  -3   0  -4   26.35    0.86
  -3   0  -4   27.00    1.14
  -3   0  -4   26.69    0.99
   6   0   5    3.00    0.47
   6   0   5    2.06    0.32
   6   0   5    2.00    0.38
   6   0   5    3.00    0.55
   6   0   5    3.64    0.52
  -6   0  -5    4.97    0.88
  -6   0  -5    2.64    0.48
  -6   0  -5    3.00    0.47
  -6   0  -5    2.08    0.35
  -6   0  -5    3.26    0.49
  -6   0  -5    2.60    0.46
  -5  -1   1    7.41    1.08
  -5  -1   1    7.35    0.66
  -5  -1   1    5.09    0.66
  -5  -1   1    6.03    0.45
  -5  -1   1    6.32    0.54
  -5  -1   1    6.27    0.69
  -5  -1   1    7.32    0.71
  -5  -1   1    6.02    0.80
  -5  -1   1    6.44    0.45
   5   1  -1    6.20    0.74
   5   1  -1    6.86    0.46
   5   1  -1    6.60    0.57
   5   1  -1    6.64    0.59
   5   1  -1    6.76    0.54
  -2  -1   2    4.54    0.56
  -2  -1   2    4.98    0.25
  -2  -1   2    4.98    0.41
  -2  -1   2    5.45    0.48
  -2  -1   2    5.04    0.31
  -2  -1   2    5.49    0.37
  -2  -1   2    4.65    0.40
   2   1  -2    4.95    0.54
   2   1  -2    4.87    0.31
   2   1  -2    4.96    0.40
   2   1  -2    4.82    0.37
   2   1  -2    5.45    0.35
   2   1  -2    4.85    0.24
   2   1  -2    5.36    0.47
   1  -1   3   17.19    0.58
   1  -1   3   17.08    0.64
   1  -1   3   17.46    0.48
   1  -1   3   17.63    0.53
  -1   1  -3   17.75    0.52
  -1   1  -3   17.58    0.61
  -1   1  -3   17.10    0.65
  -1   1  -3   17.60    0.48
   4  -1   4    0.60    0.19
   4  -1   4    0.85    0.20
   4  -1   4    0.91    0.26
   4  -1   4    1.25    0.35
   4  -1   4    1.66    0.32
   4  -1   4    0.85    0.28
  -4   1  -4    1.49    0.57
  -4   1  -4    1.97    0.45
  -4   1  -4    0.87    0.24
  -4   1  -4    0.96    0.32
  -4   1  -4    1.21    0.27
   7  -1   5    0.04    0.24
   7  -1   5   -0.09    0.22
   7  -1   5   -0.09    0.26
   7  -1   5    0.04    0.29
  -7   1  -5    0.77    0.48
  -7   1  -5   -0.04    0.25
  -7   1  -5   -0.19    0.28
  -7  -2   0    0.80    0.31
  -7  -2   0    1.00    0.33
  -7  -2   0    0.58    0.37
  -7  -2   0    0.41    0.20
  -7  -2   0    0.57    0.31
   7   2   0    0.77    0.36
   7   2   0    0.96    0.62
   7   2   0    1.03    0.43
   7   2   0    0.66    0.29
  -4  -2   1   18.12    0.95
  -4  -2   1   18.72    1.20
  -4  -2   1   17.48    1.01
  -4  -2   1   20.16    1.61
  -4  -2   1   19.22    0.82
  -4  -2   1   18.21    0.74
  -4  -2   1   18.91    0.75
  -4  -2   1   20.05    0.90
  -4  -2   1   18.03    1.27
  -4  -2   1   17.37    0.70
  -4  -2   1   18.35    0.52
  -4  -2   1   18.57    0.82
   4   2  -1   20.65    0.89
   4   2  -1   17.71    0.95
   4   2  -1   18.38    1.04
   4   2  -1   17.84    0.72
   4   2  -1   17.53    0.70
   4   2  -1   17.42    0.79
  -1  -2   2   11.43    0.54
  -1  -2   2   11.07    0.50
  -1  -2   2    9.17    0.40
  -1  -2   2   11.89    0.64
  -1  -2   2   11.69    0.74
  -1  -2   2   10.57    0.51
   1   2  -2    9.30    0.39
   1   2  -2    9.73    0.47
   1   2  -2   10.00    0.46
   1   2  -2   11.06    0.71
   2  -2   3    0.53    0.20
   2  -2   3    0.83    0.14
   2  -2   3    0.91    0.18
   2  -2   3    0.64    0.19
   2  -2   3    0.99    0.25
  -2   2  -3    0.43    0.16
  -2   2  -3    1.62    0.40
  -2   2  -3    0.72    0.21
  -2   2  -3    0.90    0.14
  -2   2  -3    1.43    0.30
  -2   2  -3    0.85    0.15
   5  -2   4    0.95    0.29
   5  -2   4    2.34    0.37
   5  -2   4    1.65    0.34
   5  -2   4    1.05    0.25
   5  -2   4    1.37    0.39
   5  -2   4    0.46    0.23
  -5   2  -4    2.83    0.76
  -5   2  -4    0.94    0.30
  -5   2  -4    1.79    0.46
  -5   2  -4    0.92    0.34
  -5   2  -4    1.02    0.29
  -5   2  -4    1.27    0.33
  -6  -3   0   18.42    1.34
  -6  -3   0   19.07    0.91
  -6  -3   0   18.90    1.01
  -6  -3   0   24.86    2.34
  -6  -3   0   18.78    0.99
  -6  -3   0   16.94    1.64
  -6  -3   0   20.57    1.08
  -6  -3   0   19.64    1.43
  -6  -3   0   17.87    0.64
  -6  -3   0   19.73    1.11
  -6  -3   0   17.75    0.83
   6   3   0   19.19    1.04
   6   3   0   19.84    1.18
   6   3   0   17.72    0.94
   6   3   0   18.23    1.28
  -3  -3   1    9.47    0.42
  -3  -3   1    7.90    0.83
  -3  -3   1    9.00    0.46
  -3  -3   1    9.46    0.68
  -3  -3   1    8.13    0.62
  -3  -3   1    8.80    0.56
  -3  -3   1    8.75    0.53
  -3  -3   1    9.55    0.70
  -3  -3   1    9.87    0.61
  -3  -3   1    8.75    0.55
  -3  -3   1    8.73    0.73
   3   3  -1    8.83    0.55
   3   3  -1   10.09    0.68
   3   3  -1    9.18    0.69
   3   3  -1    7.93    0.51
   3   3  -1    8.21    0.78
   0  -3   2   18.72    0.67
   0  -3   2   18.45    0.66
   0  -3   2   18.89    0.66
   0  -3   2   18.27    0.79
   0   3  -2   18.54    0.80
   0   3  -2   19.03    0.69
   0   3  -2   19.20    0.65
   0   3  -2   18.38    0.64
   0   3  -2   18.68    0.64
   3  -3   3    4.83    0.48
   3  -3   3    5.62    0.53
   3  -3   3    5.00    0.30
   3  -3   3    5.32    0.51
   3  -3   3    4.73    0.46
  -3   3  -3    5.32    0.55
  -3   3  -3    5.61    0.58
  -3   3  -3    4.48    0.32
  -3   3  -3    5.28    0.50
  -3   3  -3    4.70    0.54
  -3   3  -3    5.22    0.47
   6  -3   4    1.15    0.34
   6  -3   4    1.74    0.47
   6  -3   4    0.94    0.27
   6  -3   4    1.98    0.37
   6  -3   4    2.02    0.40
  -6   3  -4    0.71    0.33
  -6   3  -4    2.06    0.44
  -6   3  -4    1.63    0.49
  -6   3  -4    3.64    0.88
  -6   3  -4    3.03    0.71
  -6   3  -4    1.38    0.35
  -5  -4   0    2.03    0.40
  -5  -4   0    2.97    0.67
  -5  -4   0    4.38    1.16
  -5  -4   0    2.12    0.33
  -5  -4   0    1.32    0.30
  -5  -4   0    2.03    0.31
  -5  -4   0    1.81    0.41
  -5  -4   0    1.89    0.38
  -5  -4   0    1.59    0.44
  -5  -4   0    5.10    1.38
  -5  -4   0    2.65    0.72
  -5  -4   0    1.36    0.31
  -5  -4   0    4.48    1.00
   5   4   0    1.53    0.32
   5   4   0    2.08    0.38
   5   4   0    2.05    0.53
   5   4   0    3.36    0.74
  -2  -4   1  121.85    2.36
  -2  -4   1  119.19    2.42
  -2  -4   1  126.58    2.29
  -2  -4   1  119.93    2.71
  -2  -4   1  118.88    2.98
  -2  -4   1  124.09    2.43
  -2  -4   1  120.10    2.90
   2   4  -1  122.55    3.03
   2   4  -1  122.69    2.32
   2   4  -1  121.15    2.94
   2   4  -1  125.63    2.67
   2   4  -1  126.59    2.78
   2   4  -1  123.02    2.41
   2   4  -1  121.34    2.25
   1  -4   2    2.42    0.51
   1  -4   2    1.50    0.25
   1  -4   2    1.78    0.25
   1  -4   2    1.76    0.42
   1  -4   2    1.61    0.24
  -1   4  -2    2.39    0.37
  -1   4  -2    1.78    0.23
  -1   4  -2    1.73    0.26
  -1   4  -2    3.35    0.60
   4  -4   3   12.58    0.46
   4  -4   3   14.03    0.83
   4  -4   3   12.79    0.87
   4  -4   3   12.69    0.86
  -4   4  -3   12.80    0.89
  -4   4  -3   12.37    0.84
  -4   4  -3   13.43    0.92
  -4   4  -3   13.05    0.57
  -4   4  -3   13.36    0.81
   7  -4   4   -0.12    0.23
   7  -4   4   -0.21    0.32
   7  -4   4    0.09    0.25
   7  -4   4    0.27    0.25
  -7   4  -4   -0.12    0.40
  -7   4  -4    0.21    0.29
  -7   4  -4    0.26    0.36
  -7  -5  -1    0.70    0.33
  -7  -5  -1    0.51    0.33
  -7  -5  -1    0.91    0.29
  -7  -5  -1    0.29    0.25
  -7  -5  -1    0.21    0.21
   7   5   1    0.40    0.30
  -4  -5   0    0.73    0.71
  -4  -5   0    0.24    0.18
  -4  -5   0   -0.29    0.19
  -4  -5   0   -0.02    0.70
  -4  -5   0    0.03    0.14
  -4  -5   0   -0.38    0.18
  -4  -5   0   -0.10    0.21
  -4  -5   0   -0.16    0.16
  -4  -5   0   -0.30    0.32
  -4  -5   0    0.23    0.20
  -4  -5   0   -0.13    0.43
  -4  -5   0   -0.08    0.26
  -4  -5   0    0.30    0.39
   4   5   0    0.32    0.49
   4   5   0    0.20    0.35
   4   5   0    0.52    0.25
   4   5   0    0.32    0.37
  -1  -5   1    8.41    0.51
  -1  -5   1    7.64    0.65
  -1  -5   1    8.03    0.72
  -1  -5   1    9.06    0.57
   1   5  -1    8.82    0.41
   1   5  -1    7.56    0.68
   1   5  -1    8.57    0.80
   1   5  -1    8.26    0.51
   1   5  -1    8.87    0.63
   2  -5   2   14.33    0.73
   2  -5   2   15.44    0.78
   2  -5   2   16.14    0.85
   2  -5   2   15.75    0.67
  -2   5  -2   16.48    0.80
  -2   5  -2   14.23    1.14
  -2   5  -2   16.37    0.89
  -2   5  -2   15.40    0.67
   5  -5   3    0.04    0.17
   5  -5   3   -0.01    0.18
   5  -5   3   -0.01    0.18
   5  -5   3    0.02    0.31
  -5   5  -3   -0.06    0.21
  -5   5  -3   -0.21    0.26
  -5   5  -3   -0.23    0.31
  -5   5  -3    0.05    0.42
  -5   5  -3    0.09    0.48
  -6  -6  -1    2.10    0.41
  -6  -6  -1    1.86    0.38
  -6  -6  -1    3.72    0.61
  -6  -6  -1    4.56    1.04
  -6  -6  -1    2.13    0.41
  -6  -6  -1    2.53    0.44
  -6  -6  -1    3.54    0.57
  -6  -6  -1    3.14    0.53
  -6  -6  -1    2.49    0.73
   6   6   1    3.50    0.67
  -3  -6   0    4.20    0.96
  -3  -6   0    2.89    0.40
  -3  -6   0    4.46    0.72
  -3  -6   0    2.50    0.38
  -3  -6   0    3.58    0.45
  -3  -6   0    3.87    0.67
  -3  -6   0    3.36    0.51
  -3  -6   0    3.02    0.43
  -3  -6   0    5.71    1.12
  -3  -6   0    2.86    0.41
  -3  -6   0    3.49    0.47
   3   6   0    3.27    0.40
   3   6   0    3.49    0.76
   3   6   0    4.32    0.75
   3   6   0    2.72    0.42
   3   6   0    3.48    0.85
   3   6   0    3.88    0.67
   0  -6   1    4.64    0.40
   0  -6   1    4.59    0.67
   0  -6   1    5.10    0.49
   0  -6   1    3.73    0.46
   0   6  -1    5.37    0.64
   0   6  -1    3.89    0.59
   0   6  -1    3.84    0.45
   0   6  -1    4.81    0.47
   3  -6   2    1.01    0.32
   3  -6   2    1.14    0.25
   3  -6   2    0.95    0.26
   3  -6   2    1.15    0.32
  -3   6  -2    1.02    0.29
  -3   6  -2    1.05    0.57
  -3   6  -2    1.44    0.46
  -3   6  -2    1.11    0.34
   6  -6   3    0.67    0.24
   6  -6   3    0.00    0.26
   6  -6   3    1.17    0.45
   6  -6   3    0.70    0.26
  -6   6  -3    0.53    0.31
  -6   6  -3    0.95    0.61
  -6   6  -3    0.10    0.46
  -6   6  -3   -0.02    0.34
  -5  -7  -1    3.00    1.29
  -5  -7  -1    0.06    0.20
  -5  -7  -1    0.20    0.77
  -5  -7  -1    0.94    0.62
  -5  -7  -1    0.68    0.29
  -5  -7  -1    0.15    0.21
  -5  -7  -1   -0.44    0.48
  -5  -7  -1    0.19    0.24
  -5  -7  -1   -0.31    0.24
  -5  -7  -1    0.29    0.33
  -5  -7  -1    0.07    0.30
   5   7   1    0.80    0.43
   5   7   1    0.29    0.32
   5   7   1    0.25    0.25
  -2  -7   0   29.68    0.92
  -2  -7   0   27.89    1.17
  -2  -7   0   31.17    1.18
  -2  -7   0   28.73    0.88
  -2  -7   0   27.69    1.11
  -2  -7   0   29.39    1.54
  -2  -7   0   28.18    1.10
  -2  -7   0   30.66    0.99
   2   7   0   28.93    1.54
   2   7   0   29.42    1.30
   2   7   0   27.47    1.47
   2   7   0   29.48    1.07
   2   7   0   31.37    1.40
   1  -7   1    0.13    0.25
   1  -7   1    0.37    0.23
   1  -7   1    0.41    0.22
   1  -7   1    0.27    0.17
  -1   7  -1    0.75    0.28
  -1   7  -1    0.28    0.22
  -1   7  -1    0.77    0.52
   4  -7   2    0.92    0.28
   4  -7   2    1.70    0.31
   4  -7   2    1.57    0.39
   4  -7   2    1.95    0.45
  -4   7  -2    2.88    0.77
  -4   7  -2    2.09    0.43
  -4   7  -2    1.90    0.40
  -4  -8  -1    0.31    0.27
  -4  -8  -1    0.44    0.26
  -4  -8  -1    1.37    0.37
  -4  -8  -1    0.44    0.41
  -4  -8  -1    1.77    1.48
  -4  -8  -1    0.67    0.32
  -4  -8  -1    0.95    0.34
  -4  -8  -1    1.58    0.84
   4   8   1    0.68    0.58
   4   8   1    1.10    0.59
   4   8   1    1.08    0.58
   4   8   1    1.70    0.57
  -1  -8   0   16.20    1.26
  -1  -8   0   15.00    0.89
  -1  -8   0   15.08    0.88
  -1  -8   0   14.21    0.85
  -1  -8   0   14.26    0.79
   1   8   0   13.45    0.94
   1   8   0   13.94    1.16
   1   8   0   13.95    0.81
   1   8   0   13.78    1.09
   2  -8   1    0.69    0.29
   2  -8   1    1.23    0.31
   2  -8   1    0.71    0.33
   2  -8   1    0.74    0.32
  -2   8  -1    0.93    0.33
  -2   8  -1    1.47    0.64
  -2   8  -1    0.61    0.28
   5  -8   2   -0.05    0.17
   5  -8   2   -0.11    0.33
   5  -8   2    0.23    0.22
   5  -8   2    0.13    0.29
  -5   8  -2    0.12    0.38
  -5   8  -2    0.25    0.49
  -5   8  -2   -0.24    0.27
  -5   8  -2    0.67    0.60
  -3  -9  -1    0.62    0.30
  -3  -9  -1   -0.16    0.21
  -3  -9  -1   -0.08    0.20
  -3  -9  -1   -0.14    0.23
  -3  -9  -1    0.68    0.33
  -3  -9  -1    0.26    0.25
  -3  -9  -1    1.05    0.44
   3   9   1    0.84    0.52
   3   9   1    0.61    0.40
   3   9   1    0.62    0.42
   3   9   1    0.61    0.49
   3   9   1    0.19    0.25
   0  -9   0    0.44    0.37
   0  -9   0    1.05    0.28
   0  -9   0    0.25    0.26
   0  -9   0    0.49    0.27
   0  -9   0    0.90    0.36
   0  -9   0    0.45    0.17
   0   9   0    1.10    0.55
   0   9   0    0.36    0.28
   0   9   0    0.51    0.63
   0   9   0    0.75    0.43
   3  -9   1    0.40    0.23
   3  -9   1    0.31    0.25
   3  -9   1    0.40    0.35
  -3   9  -1    1.01    0.59
  -3   9  -1    0.19    0.29
  -3   9  -1    0.76    0.39
  -5 -10  -2    0.16    0.28
  -5 -10  -2    0.29    0.33
  -5 -10  -2   -0.28    0.18
  -5 -10  -2    0.44    0.54
  -5 -10  -2    0.14    0.31
   5  10   2    0.11    0.49
   5  10   2    0.31    0.47
   5  10   2    0.98    0.63
  -2 -10  -1    0.14    0.32
  -2 -10  -1    0.70    0.33
  -2 -10  -1   -0.02    0.25
  -2 -10  -1    0.75    0.36
   2  10   1    1.15    0.55
   2  10   1    0.45    0.67
   2  10   1    0.45    0.21
   2  10   1    0.38    0.42
   2  10   1    0.82    0.49
   1 -10   0    0.21    0.25
   1 -10   0    0.77    0.30
   1 -10   0   -0.03    0.43
   1 -10   0    0.67    0.23
   1 -10   0    0.51    0.33
   1 -10   0    0.29    0.36
  -1  10   0    1.50    0.64
  -1  10   0    0.50    0.29
  -1  10   0    1.35    0.61
   4 -10   1    0.32    0.36
   4 -10   1    0.48    0.29
   4 -10   1    0.34    0.33
  -4  10  -1    1.25    0.60
  -4  10  -1    0.06    0.35
  -4 -11  -2   -0.64    0.33
  -4 -11  -2    0.32    0.27
  -4 -11  -2    0.18    0.36
  -4 -11  -2   -0.62    0.51
  -4 -11  -2    0.15    0.31
   4  11   2    1.08    0.53
   4  11   2    0.39    0.37
   4  11   2    0.68    0.69
   4  11   2    0.46    0.52
  -1 -11  -1   -0.16    0.31
  -1 -11  -1    0.19    0.33
  -1 -11  -1    0.02    0.27
  -1 -11  -1    0.31    0.31
  -1 -11  -1    0.31    0.33
   1  11   1   -0.15    0.40
   1  11   1    0.50    0.54
   1  11   1    0.21    0.46
   1  11   1    0.33    0.52
   1  11   1    0.32    0.33
   2 -11   0    0.41    0.34
   2 -11   0    0.77    0.30
   2 -11   0    0.55    0.35
   2 -11   0    0.97    0.34
  -2  11   0    0.59    0.57
  -2  11   0    0.77    0.65
  -2  11   0    0.46    0.31
  -3 -12  -2    1.15    0.44
  -3 -12  -2    0.99    0.47
   3  12   2    2.29    0.65
   3  12   2    1.34    0.57
   3  12   2    1.95    0.73
   3  12   2    1.60    0.87
   0 -12  -1    0.24    0.30
   0 -12  -1    0.33    0.30
   0 -12  -1    0.52    0.43
   0  12   1    0.91    0.68
   0  12   1    0.86    0.58
   0  12   1    0.35    0.59
   3 -12   0    0.31    0.35
   3 -12   0    0.53    0.31
  -3  12   0    1.57    0.71
   1 -13  -1    2.20    0.68
   1 -13  -1    0.56    0.41
  -1  13   1    2.25    0.86
  -1  13   1    2.36    0.79
  -1  13   1    1.36    0.87
  -2  13   7    2.14    0.96
  -2  13   7    0.24    0.42
   2 -13  -7    0.30    0.44
   2 -13  -7    1.32    0.47
   2 -13  -7    1.91    0.48
   1  13   8    1.72    0.47
   1  13   8    0.72    0.62
   1  13   8    2.07    0.80
  -1 -13  -8    0.07    0.31
  -1 -13  -8    1.37    0.53
  -1 -13  -8    0.33    0.29
  -1  12   7    1.27    0.38
  -1  12   7    0.46    0.66
   1 -12  -7    1.17    0.43
   1 -12  -7    0.27    0.38
   1 -12  -7    0.06    0.43
   1 -12  -7    0.07    0.34
   2  12   8    0.45    0.54
   2  12   8    0.83    0.60
   2  12   8    0.13    0.30
  -2 -12  -8   -0.45    0.20
  -2 -12  -8   -0.23    0.34
  -2 -12  -8   -0.48    0.33
  -3  11   6    0.02    0.27
  -3  11   6    0.24    0.40
  -3  11   6   -0.02    0.72
  -3  11   6   -0.25    0.21
   3 -11  -6    0.35    0.44
   3 -11  -6    0.38    0.43
   3 -11  -6   -0.25    0.26
   3 -11  -6   -0.42    0.29
   0  11   7    1.91    0.85
   0  11   7    1.56    0.43
   0 -11  -7    0.82    0.44
   0 -11  -7    0.75    0.29
   0 -11  -7    1.07    0.39
   3  11   8    0.29    0.42
   3  11   8    0.10    0.25
   3  11   8    0.38    0.44
  -3 -11  -8    0.24    0.45
  -3 -11  -8    0.04    0.35
  -3 -11  -8   -0.19    0.29
  -5  10   5    0.49    0.36
  -5  10   5   -0.15    0.31
  -5  10   5   -0.29    0.28
   5 -10  -5    0.26    0.34
   5 -10  -5   -0.31    0.28
   5 -10  -5    0.10    0.25
   5 -10  -5    0.61    0.50
  -2  10   6    0.67    0.74
  -2  10   6    0.57    0.28
  -2  10   6    0.90    0.38
  -2  10   6    0.71    0.25
   2 -10  -6    0.90    0.35
   2 -10  -6    0.37    0.27
   2 -10  -6    0.67    0.35
   2 -10  -6    1.62    0.60
   1  10   7    3.46    0.85
   1  10   7    2.49    0.43
   1  10   7    3.19    0.44
   1  10   7    3.58    0.61
   1  10   7    3.04    0.85
  -1 -10  -7    2.27    0.36
  -1 -10  -7    4.01    0.68
  -1 -10  -7    2.14    0.47
   4  10   8    0.46    0.40
   4  10   8    1.02    0.57
   4  10   8    0.35    0.29
  -4 -10  -8    0.78    0.37
  -4 -10  -8    0.56    0.39
  -4 -10  -8    2.08    0.66
  -4 -10  -8    0.30    0.21
  -4   9   5    3.25    0.56
  -4   9   5    1.98    0.40
  -4   9   5    1.61    0.39
   4  -9  -5    2.69    0.74
   4  -9  -5    1.99    0.37
   4  -9  -5    2.59    0.44
   4  -9  -5    1.72    0.44
  -1   9   6    0.27    0.26
  -1   9   6    0.50    0.26
  -1   9   6    0.95    0.75
  -1   9   6    0.40    0.28
   1  -9  -6    0.12    0.22
   1  -9  -6    0.88    0.34
   1  -9  -6    0.51    0.31
   2   9   7    0.76    0.53
   2   9   7    0.82    0.36
   2   9   7    0.19    0.22
   2   9   7    0.32    0.47
   2   9   7    0.31    0.32
  -2  -9  -7    0.51    0.21
  -2  -9  -7    0.37    0.23
  -2  -9  -7    0.44    0.36
  -2  -9  -7    0.23    0.28
   5   9   8    1.18    0.62
   5   9   8    0.80    0.56
   5   9   8    0.39    0.29
   5   9   8    1.25    0.45
  -5  -9  -8    0.06    0.31
  -5  -9  -8   -0.22    0.49
  -5  -9  -8    1.48    0.72
  -6   8   4    1.73    0.45
  -6   8   4    2.39    0.49
  -6   8   4    1.07    0.42
   6  -8  -4    3.87    0.94
   6  -8  -4    1.53    0.37
   6  -8  -4    2.40    0.41
   6  -8  -4    2.46    0.42
  -3   8   5    7.00    0.61
  -3   8   5    6.45    0.59
  -3   8   5    7.40    0.79
   3  -8  -5    6.01    0.67
   3  -8  -5    6.93    0.62
   3  -8  -5    5.88    0.44
   3  -8  -5    6.68    0.62
   3  -8  -5    6.24    0.70
   0   8   6    0.11    0.25
   0   8   6    0.53    0.60
   0   8   6    0.23    0.23
   0   8   6    0.38    0.20
   0  -8  -6    0.21    0.26
   0  -8  -6    0.21    0.18
   0  -8  -6   -0.05    0.25
   3   8   7   -0.22    0.32
   3   8   7   -0.06    0.35
   3   8   7   -0.08    0.26
   3   8   7    0.59    0.23
  -3  -8  -7   -0.09    0.23
  -3  -8  -7    0.62    0.35
  -3  -8  -7   -0.01    0.14
  -3  -8  -7    0.10    0.67
  -3  -8  -7    0.01    0.16
  -3  -8  -7   -0.09    0.31
  -3  -8  -7    0.39    0.25
  -3  -8  -7    0.00    0.33
  -5   7   4    1.68    0.41
  -5   7   4    1.88    0.39
  -5   7   4    0.71    0.33
   5  -7  -4    1.61    0.36
   5  -7  -4    1.02    0.31
   5  -7  -4    2.14    0.67
   5  -7  -4    1.45    0.32
  -2   7   5   36.61    1.22
  -2   7   5   36.87    1.34
  -2   7   5   36.75    1.34
  -2   7   5   36.08    1.04
   2  -7  -5   35.93    1.39
   2  -7  -5   33.91    1.03
   2  -7  -5   35.47    1.29
   2  -7  -5   36.18    1.20
   1   7   6   14.95    1.05
   1   7   6   16.21    0.75
   1   7   6   14.93    0.81
   1   7   6   14.82    0.66
  -1  -7  -6   16.51    0.85
  -1  -7  -6   15.45    0.66
  -1  -7  -6   15.37    0.81
   4   7   7    0.19    0.43
   4   7   7   -0.11    0.39
   4   7   7   -0.10    0.19
   4   7   7    0.08    0.23
  -4  -7  -7   -0.07    0.18
  -4  -7  -7   -0.16    0.30
  -4  -7  -7   -0.27    0.33
  -4  -7  -7    0.00    0.25
  -4  -7  -7    0.93    0.73
  -4  -7  -7    0.13    0.09
  -4  -7  -7    0.05    0.23
  -4  -7  -7   -0.24    0.21
  -4  -7  -7   -0.11    0.10
  -4  -7  -7   -0.06    0.57
  -4  -7  -7   -0.22    0.21
  -4  -7  -7    0.50    0.47
  -7   6   3    0.34    0.56
  -7   6   3    0.10    0.29
  -7   6   3    0.21    0.33
  -7   6   3   -0.26    0.34
   7  -6  -3    0.86    0.63
   7  -6  -3    0.52    0.33
   7  -6  -3    0.00    0.26
   7  -6  -3    0.38    0.21
  -4   6   4    6.84    0.66
  -4   6   4    6.72    0.51
  -4   6   4    7.14    0.74
   4  -6  -4    6.56    0.55
   4  -6  -4    7.58    0.54
   4  -6  -4    8.62    0.72
   4  -6  -4    7.23    0.78
  -1   6   5    0.05    0.16
  -1   6   5    0.17    0.13
  -1   6   5    0.34    0.22
  -1   6   5    0.08    0.19
   1  -6  -5    0.10    0.19
   1  -6  -5    0.33    0.22
   1  -6  -5    0.21    0.15
   2   6   6    3.43    0.70
   2   6   6    3.73    0.74
   2   6   6    2.43    0.41
   2   6   6    2.87    0.51
   2   6   6    2.57    0.27
  -2  -6  -6    2.45    0.45
  -2  -6  -6    1.78    0.52
  -2  -6  -6    2.99    0.30
  -2  -6  -6    3.33    0.51
  -2  -6  -6    2.74    0.45
   5   6   7   -0.05    0.23
   5   6   7    0.31    0.30
   5   6   7   -0.36    0.35
  -5  -6  -7    0.30    0.22
  -5  -6  -7   -0.16    0.21
  -5  -6  -7   -0.10    0.51
  -5  -6  -7   -0.33    0.49
  -5  -6  -7   -0.50    0.48
  -5  -6  -7    2.32    0.92
  -5  -6  -7    0.25    0.36
  -5  -6  -7    0.50    0.36
  -6   5   3    2.38    0.58
  -6   5   3    0.74    0.34
  -6   5   3    0.86    0.32
  -6   5   3    1.04    0.28
   6  -5  -3    0.83    0.37
   6  -5  -3    0.80    0.31
   6  -5  -3    1.14    0.33
   6  -5  -3    1.25    0.27
   6  -5  -3    1.92    0.97
  -3   5   4   15.52    0.87
  -3   5   4   14.47    0.62
   3  -5  -4   15.85    0.65
   3  -5  -4   15.59    0.83
   3  -5  -4   15.62    0.96
   3  -5  -4   15.37    0.70
   0   5   5   37.04    0.96
   0   5   5   37.29    0.79
   0   5   5   37.70    1.09
   0   5   5   38.79    0.99
   0   5   5   35.94    0.88
   0  -5  -5   36.19    1.09
   0  -5  -5   37.78    0.99
   3   5   6   27.25    1.07
   3   5   6   25.74    1.68
   3   5   6   26.45    1.07
   3   5   6   26.53    1.20
   3   5   6   26.85    0.90
  -3  -5  -6   26.66    0.91
  -3  -5  -6   26.98    1.17
  -3  -5  -6   26.08    1.06
  -3  -5  -6   26.04    1.19
  -3  -5  -6   27.32    1.11
  -3  -5  -6   24.86    1.07
  -3  -5  -6   26.86    1.04
  -3  -5  -6   26.48    1.03
   6   5   7    5.84    0.62
   6   5   7    6.06    0.66
  -6  -5  -7    6.13    0.79
  -6  -5  -7    5.34    0.43
  -6  -5  -7    6.58    0.81
  -6  -5  -7    5.82    0.75
  -6  -5  -7    5.80    0.75
  -6  -5  -7    5.67    0.75
  -6  -5  -7    4.97    0.44
  -6  -5  -7    5.90    0.46
  -6  -5  -7    6.37    0.81
  -6  -5  -7    7.49    1.25
  -5   4   3   -0.27    0.57
  -5   4   3    0.24    0.22
  -5   4   3    0.04    0.32
  -5   4   3    0.05    0.21
  -5   4   3    0.02    0.16
   5  -4  -3    0.31    0.40
   5  -4  -3    0.11    0.19
   5  -4  -3   -0.20    0.20
   5  -4  -3    0.04    0.17
   5  -4  -3   -0.12    0.17
  -2   4   4    8.70    0.44
  -2   4   4    8.81    0.58
  -2   4   4    9.07    0.38
   2  -4  -4    8.83    0.55
   2  -4  -4    9.31    0.46
   2  -4  -4    8.70    0.50
   2  -4  -4    8.76    0.66
   1   4   5   43.52    1.34
   1   4   5   44.75    1.00
   1   4   5   43.76    1.21
   1   4   5   42.33    1.13
  -1  -4  -5   44.58    1.23
  -1  -4  -5   43.09    1.01
  -1  -4  -5   43.24    1.02
  -1  -4  -5   42.90    1.17
  -1  -4  -5   44.64    0.86
  -1  -4  -5   42.26    1.08
   4   4   6    0.99    0.35
   4   4   6    0.38    0.18
   4   4   6    0.63    0.37
   4   4   6    0.72    0.28
   4   4   6    0.93    0.32
  -4  -4  -6    0.27    0.22
  -4  -4  -6    0.71    0.30
  -4  -4  -6    1.18    0.59
  -4  -4  -6    0.92    0.53
  -4  -4  -6    0.56    0.34
  -4  -4  -6    0.19    0.26
  -4  -4  -6    1.07    0.52
  -4  -4  -6    1.01    0.66
  -4  -4  -6    1.14    0.47
   7   4   7    0.78    0.33
   7   4   7    0.46    0.37
   7   4   7    0.92    0.41
   7   4   7   -0.05    0.37
  -7  -4  -7    1.39    0.81
  -7  -4  -7    1.78    0.65
  -7  -4  -7    0.31    0.19
  -7   3   2    1.47    0.44
  -7   3   2    3.41    0.80
  -7   3   2    1.71    0.42
   7  -3  -2    2.40    0.51
   7  -3  -2    1.97    0.38
   7  -3  -2    3.30    0.86
   7  -3  -2    2.64    0.49
  -4   3   3    0.05    0.11
  -4   3   3    0.65    0.54
  -4   3   3    0.10    0.18
  -4   3   3    0.11    0.14
  -4   3   3    0.38    0.30
   4  -3  -3    0.65    0.27
   4  -3  -3   -0.37    0.27
   4  -3  -3    0.01    0.18
   4  -3  -3    0.16    0.14
   4  -3  -3    0.24    0.18
   4  -3  -3    0.04    0.13
  -1   3   4   26.84    0.81
  -1   3   4   26.78    0.73
  -1   3   4   27.14    0.84
   1  -3  -4   27.77    0.73
   1  -3  -4   27.23    0.81
   1  -3  -4   25.35    0.79
   2   3   5    0.39    0.37
   2   3   5    0.66    0.31
   2   3   5    0.14    0.21
   2   3   5    0.71    0.39
   2   3   5    0.52    0.18
   2   3   5    0.59    0.34
   2   3   5    0.38    0.16
  -2  -3  -5    0.52    0.26
  -2  -3  -5    0.62    0.20
  -2  -3  -5    0.37    0.20
  -2  -3  -5    0.37    0.13
  -2  -3  -5    0.47    0.16
  -2  -3  -5    0.31    0.19
   5   3   6    2.28    0.39
   5   3   6    3.20    0.52
   5   3   6    2.26    0.50
   5   3   6    3.12    0.52
   5   3   6    1.27    0.28
  -5  -3  -6    2.07    0.25
  -5  -3  -6    1.86    0.37
  -5  -3  -6    4.21    1.23
  -5  -3  -6    3.46    0.75
  -5  -3  -6    3.27    0.71
  -5  -3  -6    4.27    0.72
  -5  -3  -6    3.89    0.90
  -5  -3  -6    2.48    0.28
  -5  -3  -6    2.59    0.45
  -5  -3  -6    2.00    0.39
  -6   2   2    2.38    0.37
  -6   2   2    2.20    0.47
  -6   2   2    2.15    0.40
  -6   2   2    3.68    0.70
   6  -2  -2    2.89    0.51
   6  -2  -2    2.40    0.30
   6  -2  -2    2.10    0.40
   6  -2  -2    1.78    0.33
   6  -2  -2    3.28    0.51
   6  -2  -2    4.21    0.95
  -3   2   3    3.25    0.59
  -3   2   3    4.53    0.48
  -3   2   3    4.36    0.36
   3  -2  -3    3.28    0.50
   3  -2  -3    3.87    0.34
   0   2   4  134.37    2.38
   0   2   4  137.07    2.21
   0   2   4  130.59    2.35
   0   2   4  138.01    2.36
   0  -2  -4  135.79    2.35
   0  -2  -4  138.27    2.21
   3   2   5   14.89    0.72
   3   2   5   14.46    0.71
   3   2   5   17.65    0.82
   3   2   5   15.47    0.75
   3   2   5   16.27    0.71
   3   2   5   16.15    0.44
   3   2   5   15.87    0.72
  -3  -2  -5   15.02    0.70
  -3  -2  -5   15.33    0.45
  -3  -2  -5   14.87    0.69
  -3  -2  -5   15.83    0.53
  -3  -2  -5   15.83    0.77
  -3  -2  -5   15.35    0.64
  -3  -2  -5   14.70    0.74
  -3  -2  -5   15.70    0.77
   6   2   6    8.45    0.74
   6   2   6    9.03    1.09
   6   2   6    8.60    0.66
   6   2   6    8.71    0.57
  -6  -2  -6    9.40    0.84
  -6  -2  -6   10.37    0.95
  -6  -2  -6    7.75    0.72
  -6  -2  -6   11.54    0.98
  -6  -2  -6    9.60    0.70
  -6  -2  -6   10.15    0.65
  -6  -2  -6    8.04    0.86
  -5   1   2    5.15    0.72
  -5   1   2    4.86    0.62
  -5   1   2    4.81    0.60
  -5   1   2    5.01    0.44
  -5   1   2    4.99    0.40
  -5   1   2    5.40    0.92
  -5   1   2    4.71    0.63
  -5   1   2    4.56    0.28
   5  -1  -2    4.23    0.54
   5  -1  -2    5.06    0.49
   5  -1  -2    5.00    0.53
   5  -1  -2    4.52    0.51
   5  -1  -2    4.65    0.69
   5  -1  -2    4.88    0.39
  -2   1   3   80.69    1.61
  -2   1   3   80.57    1.74
  -2   1   3   81.33    1.63
  -2   1   3   80.26    2.03
   2  -1  -3   82.29    1.60
   2  -1  -3   82.22    2.07
   2  -1  -3   81.97    1.96
   2  -1  -3   82.50    1.65
   2  -1  -3   81.54    1.75
   1   1   4  106.08    1.81
   1   1   4  104.86    1.86
   1   1   4  103.73    1.97
   1   1   4  107.66    1.96
  -1  -1  -4  105.71    1.81
  -1  -1  -4  105.21    1.99
  -1  -1  -4  104.91    1.94
  -1  -1  -4  108.92    1.87
   4   1   5    3.29    0.54
   4   1   5    3.05    0.40
   4   1   5    2.10    0.31
   4   1   5    1.96    0.32
   4   1   5    3.28    0.31
   4   1   5    2.53    0.38
  -4  -1  -5    3.22    0.44
  -4  -1  -5    3.57    0.46
  -4  -1  -5    4.95    0.84
  -4  -1  -5    2.95    0.42
  -4  -1  -5    3.12    0.36
  -4  -1  -5    3.12    0.35
  -4  -1  -5    3.06    0.45
   7   1   6   -0.01    0.24
   7   1   6    0.36    0.19
   7   1   6    0.86    0.37
   7   1   6    0.40    0.31
   7   1   6    0.34    0.21
  -7  -1  -6    0.78    0.33
  -7  -1  -6    0.35    0.24
  -7  -1  -6    1.85    0.58
  -7  -1  -6    1.63    0.51
  -7  -1  -6   -0.14    0.28
  -7  -1  -6    0.32    0.34
  -7   0   1    3.01    0.37
  -7   0   1    2.89    0.55
  -7   0   1    6.48    1.33
  -7   0   1    2.83    0.49
  -7   0   1    2.70    0.34
  -7   0   1    5.28    0.70
  -7   0   1    3.61    0.56
   7   0  -1    2.37    0.41
   7   0  -1    4.13    1.07
   7   0  -1    2.94    0.52
   7   0  -1    4.44    0.66
  -4   0   2    0.08    0.14
  -4   0   2    0.26    0.16
  -4   0   2    0.49    0.41
  -4   0   2   -0.16    0.26
  -4   0   2    0.06    0.15
  -4   0   2    0.10    0.40
  -4   0   2    0.20    0.18
   4   0  -2   -0.10    0.19
   4   0  -2    0.04    0.14
   4   0  -2    0.01    0.18
   4   0  -2    0.50    0.42
   4   0  -2   -0.03    0.13
  -1   0   3   74.46    1.77
  -1   0   3   72.37    1.50
  -1   0   3   74.23    1.47
   1   0  -3   75.99    1.80
   1   0  -3   76.23    1.48
   1   0  -3   74.38    1.19
   1   0  -3   76.27    1.46
   1   0  -3   74.39    1.27
   2   0   4   20.94    0.70
   2   0   4   21.34    0.60
   2   0   4   21.19    0.56
   2   0   4   19.42    0.76
   2   0   4   20.82    0.77
  -2   0  -4   21.77    0.56
  -2   0  -4   21.31    0.81
  -2   0  -4   21.54    0.77
  -2   0  -4   21.35    0.60
   5   0   5    0.52    0.27
   5   0   5    0.39    0.22
   5   0   5    0.68    0.25
   5   0   5    0.62    0.29
   5   0   5    0.54    0.18
   5   0   5    0.98    0.35
  -5   0  -5    0.23    0.26
  -5   0  -5    0.53    0.32
  -5   0  -5    0.22    0.25
  -5   0  -5    0.62    0.31
  -5   0  -5    0.71    0.27
  -5   0  -5    0.88    0.41
  -5   0  -5    0.47    0.45
  -5   0  -5    0.62    0.21
  -6  -1   1   35.31    1.59
  -6  -1   1   35.05    1.82
  -6  -1   1   37.86    1.50
  -6  -1   1   37.95    1.97
  -6  -1   1   35.93    1.56
  -6  -1   1   36.62    1.10
  -6  -1   1   34.50    1.73
  -6  -1   1   34.50    1.29
  -6  -1   1   35.10    1.19
   6   1  -1   35.66    1.38
   6   1  -1   36.09    1.79
   6   1  -1   36.13    1.44
   6   1  -1   33.95    1.30
  -3  -1   2    4.85    0.45
  -3  -1   2    4.64    0.65
  -3  -1   2    5.21    0.40
  -3  -1   2    5.19    0.48
  -3  -1   2    5.39    0.56
  -3  -1   2    5.27    0.39
  -3  -1   2    4.73    0.32
   3   1  -2    4.78    0.37
   3   1  -2    4.86    0.42
   3   1  -2    4.58    0.36
   3   1  -2    4.50    0.58
   3   1  -2    4.90    0.32
   3   1  -2    5.30    0.65
   3   1  -2    4.11    0.52
   0  -1   3   10.05    0.45
   0  -1   3   10.17    0.34
   0  -1   3   10.27    0.49
   0  -1   3   10.38    0.43
   0  -1   3    9.80    0.51
   0  -1   3    9.97    0.42
   0   1  -3    9.73    0.43
   0   1  -3   10.75    0.53
   0   1  -3    9.78    0.41
   3  -1   4    0.91    0.12
   3  -1   4    0.46    0.21
   3  -1   4    0.91    0.28
   3  -1   4    0.60    0.16
  -3   1  -4    0.57    0.10
  -3   1  -4    0.58    0.17
  -3   1  -4    0.38    0.16
  -3   1  -4    0.47    0.20
  -3   1  -4    0.93    0.41
  -3   1  -4    0.90    0.27
  -3   1  -4    1.06    0.28
   6  -1   5    4.06    0.54
   6  -1   5    2.83    0.39
   6  -1   5    2.15    0.47
   6  -1   5    3.87    0.43
   6  -1   5    3.10    0.81
  -6   1  -5    2.59    0.81
  -6   1  -5    4.79    0.59
  -6   1  -5    4.06    0.54
  -6   1  -5    4.52    0.50
  -6   1  -5    5.61    0.64
  -6   1  -5    3.55    0.47
  -5  -2   1    6.42    0.62
  -5  -2   1    5.98    0.48
  -5  -2   1    8.74    1.40
  -5  -2   1    6.08    0.56
  -5  -2   1    5.84    0.63
  -5  -2   1    5.96    0.53
  -5  -2   1    6.59    0.80
  -5  -2   1    6.07    0.74
  -5  -2   1    6.33    0.52
  -5  -2   1    6.11    0.87
   5   2  -1    6.92    0.62
   5   2  -1    6.36    0.58
   5   2  -1    5.86    0.53
   5   2  -1    5.90    0.73
  -2  -2   2  120.71    2.77
  -2  -2   2  125.13    2.22
  -2  -2   2  124.28    2.62
  -2  -2   2  125.81    2.94
  -2  -2   2  124.49    2.33
  -2  -2   2  127.89    2.08
  -2  -2   2  125.68    2.06
   2   2  -2  125.57    2.33
   2   2  -2  122.48    2.32
   2   2  -2  126.17    2.06
   2   2  -2  128.76    2.55
   2   2  -2  122.99    2.91
   2   2  -2  124.38    2.53
   1  -2   3    3.03    0.33
   1  -2   3    3.34    0.30
   1  -2   3    3.28    0.31
   1  -2   3    2.90    0.31
   1  -2   3    2.87    0.34
  -1   2  -3    3.07    0.27
  -1   2  -3    3.25    0.34
  -1   2  -3    3.07    0.40
  -1   2  -3    2.86    0.30
   4  -2   4    3.04    0.42
   4  -2   4    2.45    0.46
   4  -2   4    1.35    0.27
   4  -2   4    1.86    0.29
  -4   2  -4    3.52    0.74
  -4   2  -4    2.15    0.37
  -4   2  -4    2.69    0.37
  -4   2  -4    2.00    0.33
  -4   2  -4    2.21    0.40
   7  -2   5    0.50    0.32
   7  -2   5    0.26    0.29
   7  -2   5    0.05    0.17
   7  -2   5    0.63    0.27
   7  -2   5    0.22    0.24
  -7   2  -5    1.41    0.44
  -7   2  -5    0.26    0.38
  -7   2  -5    0.11    0.27
  -7   2  -5   -0.29    0.36
  -7  -3   0    0.19    0.28
  -7  -3   0    0.46    0.22
  -7  -3   0   -0.36    0.30
  -7  -3   0    0.79    0.33
  -7  -3   0   -0.06    0.20
  -7  -3   0   -0.18    0.31
   7   3   0   -0.19    0.20
   7   3   0    0.45    0.29
   7   3   0    0.49    0.53
  -4  -3   1   10.79    0.61
  -4  -3   1    9.42    0.74
  -4  -3   1    9.47    1.08
  -4  -3   1    9.67    0.63
  -4  -3   1   10.11    1.01
  -4  -3   1    9.34    0.60
  -4  -3   1   10.14    0.46
  -4  -3   1   10.32    0.77
  -4  -3   1    9.66    0.80
  -4  -3   1    9.60    0.90
  -4  -3   1    9.88    0.56
  -4  -3   1   11.49    0.73
   4   3  -1    9.33    0.64
   4   3  -1    9.03    0.73
   4   3  -1   10.35    0.64
   4   3  -1    9.40    0.95
   4   3  -1   10.33    0.79
  -1  -3   2  234.28    4.09
  -1  -3   2  240.95    3.98
  -1  -3   2  242.06    3.86
  -1  -3   2  231.86    4.37
  -1  -3   2  241.08    3.91
   1   3  -2  240.21    4.12
   1   3  -2  237.47    3.85
   1   3  -2  235.27    4.38
   1   3  -2  235.25    3.95
   1   3  -2  239.66    4.60
   1   3  -2  238.60    3.78
   2  -3   3    2.77    0.29
   2  -3   3    1.82    0.27
   2  -3   3    2.24    0.36
   2  -3   3    2.44    0.38
   2  -3   3    2.22    0.31
  -2   3  -3    2.22    0.31
  -2   3  -3    2.73    0.37
  -2   3  -3    2.63    0.20
  -2   3  -3    2.48    0.35
  -2   3  -3    1.91    0.28
   5  -3   4    0.12    0.20
   5  -3   4    0.34    0.22
   5  -3   4   -0.03    0.18
   5  -3   4   -0.14    0.27
  -5   3  -4    0.22    0.41
  -5   3  -4   -0.04    0.20
  -5   3  -4    0.07    0.21
  -5   3  -4    0.33    0.29
  -5   3  -4   -0.13    0.27
  -6  -4   0    6.72    0.62
  -6  -4   0    5.48    0.64
  -6  -4   0    5.83    0.70
  -6  -4   0    6.05    0.60
  -6  -4   0    5.20    0.63
  -6  -4   0    5.08    0.42
  -6  -4   0    8.12    1.10
  -6  -4   0    5.74    0.54
   6   4   0    5.79    0.76
   6   4   0    5.70    0.65
   6   4   0    4.96    0.61
  -3  -4   1   20.56    0.94
  -3  -4   1   17.97    1.36
  -3  -4   1   18.34    0.85
  -3  -4   1   18.55    0.70
  -3  -4   1   19.99    0.69
  -3  -4   1   19.29    0.82
  -3  -4   1   18.77    1.16
  -3  -4   1   20.50    1.69
  -3  -4   1   19.86    0.85
  -3  -4   1   18.56    0.78
   3   4  -1   19.66    0.96
   3   4  -1   19.39    1.20
   3   4  -1   19.13    0.67
   3   4  -1   18.20    0.95
   3   4  -1   19.81    0.82
   0  -4   2    1.33    0.26
   0  -4   2    1.56    0.25
   0  -4   2    1.64    0.23
   0  -4   2    3.28    0.66
   0   4  -2    1.85    0.18
   0   4  -2    2.16    0.35
   0   4  -2    2.90    0.43
   0   4  -2    1.69    0.27
   0   4  -2    2.68    0.55
   3  -4   3   10.59    0.72
   3  -4   3   11.32    0.73
   3  -4   3   11.71    0.79
   3  -4   3   11.29    0.70
   3  -4   3   11.24    0.49
  -3   4  -3   10.57    0.42
  -3   4  -3   10.05    0.69
  -3   4  -3   11.54    0.71
  -3   4  -3   10.87    0.68
  -3   4  -3   11.31    0.74
  -3   4  -3   12.27    0.78
   6  -4   4    1.12    0.33
   6  -4   4    0.80    0.38
   6  -4   4    1.16    0.40
   6  -4   4    0.92    0.30
  -6   4  -4    1.03    0.45
  -6   4  -4    0.44    0.30
  -6   4  -4    1.04    0.43
  -5  -5   0    2.17    0.49
  -5  -5   0    1.37    0.31
  -5  -5   0    2.10    0.41
  -5  -5   0    2.92    0.93
  -5  -5   0    3.10    0.77
  -5  -5   0    2.17    0.41
  -5  -5   0    1.67    0.31
  -5  -5   0    2.48    0.52
  -5  -5   0    1.46    0.32
   5   5   0    2.46    0.76
   5   5   0    1.99    0.50
   5   5   0    1.85    0.43
   5   5   0    2.27    0.66
  -2  -5   1    3.68    0.67
  -2  -5   1    3.31    0.82
  -2  -5   1    1.80    0.25
  -2  -5   1    2.10    0.33
  -2  -5   1    3.01    0.37
  -2  -5   1    3.70    0.96
  -2  -5   1    2.03    0.28
   2   5  -1    2.97    0.56
   2   5  -1    2.84    0.36
   2   5  -1    3.74    0.76
   2   5  -1    4.10    0.84
   2   5  -1    4.69    0.79
   2   5  -1    2.87    0.34
   2   5  -1    2.61    0.33
   1  -5   2   11.77    0.72
   1  -5   2   12.09    0.80
   1  -5   2   12.09    0.68
   1  -5   2   12.40    0.64
   1  -5   2   11.67    0.62
  -1   5  -2   12.66    0.80
  -1   5  -2   12.16    0.68
  -1   5  -2   12.28    0.67
  -1   5  -2   12.87    0.45
   4  -5   3   24.39    1.19
   4  -5   3   25.77    1.18
   4  -5   3   25.74    1.11
   4  -5   3   23.63    0.74
   4  -5   3   23.24    1.20
  -4   5  -3   24.18    1.20
  -4   5  -3   24.09    1.09
  -4   5  -3   24.41    1.23
  -4   5  -3   22.30    1.26
  -4   5  -3   24.50    1.18
   7  -5   4    2.21    0.51
   7  -5   4    2.98    0.43
   7  -5   4    3.16    0.69
  -7   5  -4    3.68    0.84
  -7   5  -4    2.34    0.65
  -7  -6  -1   -0.37    0.17
  -7  -6  -1   -0.20    0.25
  -7  -6  -1    0.97    0.38
  -7  -6  -1   -0.51    0.29
  -7  -6  -1    0.00    0.25
   7   6   1    0.17    0.34
  -4  -6   0    0.97    0.96
  -4  -6   0    0.46    0.30
  -4  -6   0    0.46    0.28
  -4  -6   0   -0.22    0.28
  -4  -6   0    0.38    0.53
  -4  -6   0    0.20    0.72
  -4  -6   0    0.36    0.25
  -4  -6   0    0.51    0.46
  -4  -6   0    0.00    0.28
  -4  -6   0    0.22    0.20
  -4  -6   0   -0.03    0.21
  -4  -6   0    0.06    0.18
   4   6   0    0.27    0.50
   4   6   0    0.85    0.41
   4   6   0    0.18    0.36
   4   6   0    0.66    0.28
  -1  -6   1    0.24    0.18
  -1  -6   1    0.42    0.21
  -1  -6   1    0.30    0.28
   1   6  -1    0.04    0.39
   1   6  -1   -0.06    0.41
   1   6  -1    0.12    0.18
   1   6  -1    0.16    0.13
   1   6  -1    0.47    0.33
   2  -6   2   -0.09    0.14
   2  -6   2    0.11    0.19
   2  -6   2    0.31    0.23
   2  -6   2    0.13    0.18
  -2   6  -2   -0.15    0.31
  -2   6  -2    0.29    0.25
  -2   6  -2    0.18    0.22
  -2   6  -2    0.05    0.23
   5  -6   3    0.42    0.16
   5  -6   3    0.54    0.22
   5  -6   3    0.77    0.38
   5  -6   3    0.41    0.27
   5  -6   3   -0.12    0.21
  -5   6  -3    0.45    0.37
  -5   6  -3    0.25    0.28
  -5   6  -3    0.18    0.41
  -5   6  -3    1.16    0.54
  -5   6  -3    1.88    0.65
  -6  -7  -1    0.53    0.29
  -6  -7  -1    0.16    1.12
  -6  -7  -1    0.05    0.21
  -6  -7  -1   -0.13    0.20
  -6  -7  -1    0.19    0.23
  -6  -7  -1   -0.16    0.26
  -6  -7  -1    0.33    0.36
   6   7   1   -0.14    0.37
  -3  -7   0    6.23    0.62
  -3  -7   0    6.36    0.81
  -3  -7   0    5.60    0.53
  -3  -7   0    5.32    0.83
  -3  -7   0    5.48    0.58
  -3  -7   0    5.75    0.63
  -3  -7   0    6.00    0.60
  -3  -7   0    5.78    0.56
  -3  -7   0    5.77    0.55
  -3  -7   0    4.90    0.61
  -3  -7   0    5.96    0.58
   3   7   0    5.96    0.78
   3   7   0    5.70    0.66
   3   7   0    5.40    0.71
   3   7   0    5.44    0.51
   3   7   0    5.32    0.51
   3   7   0    5.53    0.80
   0  -7   1    0.70    0.20
   0  -7   1    0.93    0.64
   0  -7   1    0.33    0.22
   0  -7   1    0.49    0.23
   0  -7   1    0.67    0.29
   0   7  -1    0.87    0.51
   0   7  -1    1.50    0.47
   0   7  -1    0.74    0.26
   0   7  -1    0.55    0.25
   3  -7   2    6.10    0.66
   3  -7   2    5.73    0.68
   3  -7   2    6.57    0.54
   3  -7   2    5.90    0.64
  -3   7  -2    5.86    0.65
  -3   7  -2    6.41    0.56
  -3   7  -2    5.35    0.71
  -3   7  -2    6.71    0.72
   6  -7   3   -0.05    0.35
   6  -7   3    0.24    0.41
   6  -7   3    0.37    0.21
  -6   7  -3   -0.19    0.28
  -6   7  -3    0.19    0.47
  -6   7  -3   -0.58    0.26
  -5  -8  -1    1.28    0.48
  -5  -8  -1    1.25    0.70
  -5  -8  -1    0.29    0.28
  -5  -8  -1    0.32    0.22
  -5  -8  -1    0.50    0.31
  -5  -8  -1    1.71    0.67
  -5  -8  -1    0.44    0.29
  -5  -8  -1    5.99    1.90
  -5  -8  -1    0.13    0.29
   5   8   1    0.86    0.44
  -2  -8   0   22.28    1.11
  -2  -8   0   20.09    1.04
  -2  -8   0   21.05    1.02
  -2  -8   0   22.08    1.04
  -2  -8   0   22.08    1.47
   2   8   0   20.20    0.95
   2   8   0   20.87    1.17
   2   8   0   20.80    1.36
   2   8   0   21.62    1.41
   2   8   0   20.27    1.20
   1  -8   1    0.15    0.17
   1  -8   1    0.40    0.34
   1  -8   1    0.28    0.24
   1  -8   1    0.03    0.15
  -1   8  -1   -0.03    0.24
  -1   8  -1    0.28    0.28
  -1   8  -1    0.64    0.43
  -1   8  -1    0.56    0.48
   4  -8   2    0.37    0.23
   4  -8   2    0.51    0.28
   4  -8   2    0.46    0.35
  -4   8  -2    0.47    0.32
  -4   8  -2   -0.04    0.28
  -4   8  -2    0.44    0.51
  -4   8  -2    0.62    0.51
  -4  -9  -1    0.13    0.25
  -4  -9  -1   -0.30    0.43
  -4  -9  -1   -0.15    0.31
  -4  -9  -1   -0.19    0.24
  -4  -9  -1    0.34    0.71
  -4  -9  -1    0.14    0.25
  -4  -9  -1    0.23    0.37
  -4  -9  -1    0.09    0.33
  -4  -9  -1   -0.57    0.26
  -4  -9  -1   -0.26    0.22
   4   9   1   -0.22    0.38
   4   9   1    0.42    0.39
   4   9   1   -0.01    0.33
   4   9   1    0.25    0.47
  -1  -9   0    0.54    0.28
  -1  -9   0   -0.08    0.22
  -1  -9   0    0.46    0.72
  -1  -9   0   -0.21    0.30
  -1  -9   0    0.32    0.30
   1   9   0    0.56    0.44
   1   9   0    0.75    0.62
   1   9   0    0.06    0.21
   1   9   0    0.33    0.39
   1   9   0    0.57    0.54
   2  -9   1    0.14    0.20
   2  -9   1   -0.11    0.18
   2  -9   1    0.12    0.29
  -2   9  -1    0.29    0.29
  -2   9  -1   -0.08    0.44
  -2   9  -1   -0.17    0.25
   5  -9   2   -0.34    0.22
   5  -9   2   -0.64    0.36
   5  -9   2    0.17    0.22
  -5   9  -2    0.23    0.47
  -5   9  -2    0.04    0.38
  -5   9  -2   -0.52    0.68
  -3 -10  -1    0.74    0.38
  -3 -10  -1    0.30    0.28
  -3 -10  -1   -0.05    0.32
  -3 -10  -1    0.39    0.28
   3  10   1    0.53    0.43
   3  10   1    0.41    0.46
   3  10   1    0.37    0.54
   3  10   1    0.74    0.51
   3  10   1    0.42    0.22
   0 -10   0   -0.30    0.26
   0 -10   0   -0.21    0.14
   0 -10   0    0.19    0.25
   0 -10   0    0.18    0.27
   0 -10   0    0.08    0.32
   0 -10   0   -0.11    0.22
   0  10   0    0.03    0.49
   0  10   0   -0.35    0.37
   0  10   0    0.01    0.52
   3 -10   1   -0.09    0.22
   3 -10   1    0.53    0.36
   3 -10   1    0.22    0.27
   3 -10   1   -0.22    0.29
  -3  10  -1   -0.55    0.43
  -3  10  -1   -0.38    0.29
  -3  10  -1    0.30    0.53
  -2 -11  -1    0.32    0.29
  -2 -11  -1    1.22    0.40
  -2 -11  -1    0.85    0.37
   2  11   1    0.99    0.59
   2  11   1    1.59    0.59
   2  11   1    2.26    0.75
   2  11   1    1.31    0.65
   2  11   1    0.72    0.41
   1 -11   0    0.07    0.26
   1 -11   0    0.14    0.19
   1 -11   0   -0.23    0.28
   1 -11   0   -0.08    0.27
  -1  11   0    0.28    0.52
  -1  11   0    0.00    0.23
  -1  11   0   -0.41    0.40
  -1 -12  -1    0.71    0.34
  -1 -12  -1    0.56    0.43
   1  12   1    0.74    0.59
   1  12   1    0.66    0.47
   1  12   1    0.95    0.59
   1  12   1    0.64    0.48
   2 -12   0    0.12    0.41
   2 -12   0    0.01    0.33
   2 -12   0    0.58    0.44
   2 -12   0    0.36    0.33
  -2  12   0   -0.34    0.32
  -2  12   0    0.14    0.58
  -2  12   0    0.64    0.58
   0 -13  -1    2.73    0.72
   0 -13  -1    2.32    0.55
   0  13   1    4.60    1.12
   0  13   1    3.88    0.86
   0  13   1    6.79    1.41
   0  13   1    3.52    0.90
   0  13   8    0.41    0.64
   0  13   8    0.45    0.33
   0 -13  -8   -0.01    0.27
   0 -13  -8    0.17    0.43
  -2  12   7    0.70    0.40
  -2  12   7    1.54    0.80
   2 -12  -7    1.39    0.55
   2 -12  -7    0.12    0.29
   2 -12  -7    0.81    0.44
   2 -12  -7    0.94    0.40
   1  12   8    0.21    0.35
   1  12   8    1.09    0.63
   1  12   8    0.52    0.61
  -1 -12  -8    0.52    0.40
  -1 -12  -8    1.47    0.45
  -4  11   6   -0.47    0.35
  -4  11   6    0.04    0.28
  -4  11   6   -0.31    0.29
   4 -11  -6   -0.36    0.30
   4 -11  -6    0.04    0.34
   4 -11  -6    0.65    0.49
  -1  11   7    1.12    0.70
   1 -11  -7    0.79    0.60
   1 -11  -7    0.72    0.31
   1 -11  -7    0.90    0.38
   2  11   8    0.41    0.28
   2  11   8    0.74    0.43
   2  11   8    0.25    0.44
   2  11   8    0.21    0.37
   2  11   8    0.44    0.53
  -2 -11  -8    0.36    0.36
  -2 -11  -8    0.11    0.22
  -2 -11  -8    0.42    0.28
  -2 -11  -8    0.10    0.38
  -2 -11  -8   -0.13    0.26
  -3  10   6    0.49    0.32
  -3  10   6    0.97    0.29
   3 -10  -6    1.42    0.39
   3 -10  -6    0.46    0.29
   3 -10  -6    0.82    0.35
   3 -10  -6    0.37    0.28
   3 -10  -6    1.23    0.59
   0  10   7    4.52    1.00
   0  10   7    3.53    0.59
   0  10   7    3.24    0.39
   0 -10  -7    3.98    0.68
   0 -10  -7    1.79    0.39
   0 -10  -7    2.12    0.37
   3  10   8    1.87    0.55
   3  10   8    2.09    0.79
   3  10   8    1.22    0.41
   3  10   8    2.57    0.83
  -3 -10  -8    1.25    0.25
  -3 -10  -8    2.44    0.71
  -3 -10  -8    1.07    0.37
  -3 -10  -8    1.54    0.54
  -3 -10  -8    1.30    0.39
  -5   9   5    4.95    0.63
  -5   9   5    3.54    0.54
  -5   9   5    3.57    0.67
   5  -9  -5    5.67    0.81
   5  -9  -5    6.04    0.64
   5  -9  -5    3.65    0.52
   5  -9  -5    4.97    0.54
  -2   9   6    1.72    0.29
  -2   9   6    1.29    0.33
  -2   9   6    2.04    0.43
   2  -9  -6    2.60    0.70
   2  -9  -6    1.41    0.32
   2  -9  -6    2.06    0.41
   2  -9  -6    1.44    0.37
   1   9   7    3.81    0.47
   1   9   7    6.27    1.22
   1   9   7    4.22    0.66
   1   9   7    3.98    0.45
  -1  -9  -7    4.48    0.50
  -1  -9  -7    3.96    0.57
   4   9   8    1.95    0.49
   4   9   8    2.65    0.81
   4   9   8    2.60    0.55
   4   9   8    3.10    0.88
  -4  -9  -8    1.93    0.54
  -4  -9  -8    1.43    0.19
  -4  -9  -8    1.73    0.46
  -4  -9  -8    3.40    0.63
  -4  -9  -8    1.79    0.36
  -4  -9  -8    3.37    0.83
  -4  -9  -8    1.34    0.22
  -4  -9  -8    2.03    0.68
  -4  -9  -8    2.74    0.66
  -4   8   5    8.01    0.65
  -4   8   5    7.49    0.73
  -4   8   5    7.21    0.85
   4  -8  -5    8.52    0.69
   4  -8  -5    7.66    0.67
   4  -8  -5    8.21    0.85
   4  -8  -5    8.67    0.87
  -1   8   6    1.08    0.21
  -1   8   6    0.69    0.26
  -1   8   6    1.57    0.31
  -1   8   6    1.41    0.34
  -1   8   6    1.67    0.25
  -1   8   6    1.84    0.41
   1  -8  -6    0.99    0.24
   1  -8  -6    1.32    0.31
   1  -8  -6    1.47    0.36
   2   8   7    0.19    0.26
   2   8   7   -0.09    0.18
   2   8   7    0.16    0.44
   2   8   7    0.19    0.33
  -2  -8  -7    0.73    0.34
  -2  -8  -7   -0.05    0.15
  -2  -8  -7    0.07    0.20
  -2  -8  -7   -0.09    0.24
  -2  -8  -7    0.06    0.24
   5   8   8    2.66    0.80
   5   8   8    1.53    0.37
   5   8   8    3.29    0.70
   5   8   8    2.47    0.58
  -5  -8  -8    1.36    0.35
  -5  -8  -8    2.39    0.76
  -5  -8  -8    1.47    0.53
  -5  -8  -8    4.29    1.01
  -5  -8  -8    1.79    0.46
  -6   7   4   -0.06    0.29
  -6   7   4    0.48    0.46
  -6   7   4   -0.15    0.27
   6  -7  -4    0.86    0.47
   6  -7  -4   -0.01    0.20
   6  -7  -4   -0.03    0.32
   6  -7  -4    0.01    0.24
  -3   7   5   26.83    1.22
  -3   7   5   24.13    1.00
  -3   7   5   25.32    1.06
   3  -7  -5   23.99    1.00
   3  -7  -5   22.10    1.11
   3  -7  -5   25.31    1.27
   3  -7  -5   24.77    0.99
   0   7   6    0.67    0.19
   0   7   6    0.97    0.55
   0   7   6    0.75    0.22
   0   7   6    0.69    0.23
   0   7   6    0.64    0.26
   0  -7  -6    0.37    0.16
   0  -7  -6    0.56    0.28
   0  -7  -6    0.26    0.19
   3   7   7    5.04    0.76
   3   7   7    4.04    0.61
   3   7   7    5.16    0.66
   3   7   7    5.00    0.66
  -3  -7  -7    4.38    0.54
  -3  -7  -7    3.32    0.44
  -3  -7  -7    4.98    0.59
  -3  -7  -7    4.43    0.47
  -3  -7  -7    4.02    0.50
  -3  -7  -7    4.94    0.73
  -3  -7  -7    4.36    0.54
  -3  -7  -7    4.43    0.53
  -3  -7  -7    3.87    0.34
   6   7   8    0.95    0.35
   6   7   8    2.17    0.51
  -6  -7  -8    0.19    0.76
  -6  -7  -8    0.79    0.35
  -6  -7  -8    0.29    0.32
  -6  -7  -8    1.36    0.32
  -5   6   4    1.71    0.38
  -5   6   4    3.00    0.39
  -5   6   4    5.62    1.28
  -5   6   4    2.53    0.42
   5  -6  -4    2.72    0.49
   5  -6  -4    3.06    0.44
   5  -6  -4    3.56    0.41
   5  -6  -4    4.55    0.92
  -2   6   5    8.33    0.65
  -2   6   5    8.35    0.53
  -2   6   5    8.47    0.46
   2  -6  -5    7.96    0.47
   2  -6  -5    8.14    0.58
   2  -6  -5    7.59    0.70
   2  -6  -5    8.18    0.64
   2  -6  -5    8.37    0.55
   1   6   6   17.50    0.75
   1   6   6   15.49    0.97
   1   6   6   16.09    0.79
  -1  -6  -6   16.83    0.60
  -1  -6  -6   14.74    0.78
  -1  -6  -6   15.62    0.78
   4   6   7    3.68    0.56
   4   6   7    4.62    0.77
   4   6   7    2.92    0.47
   4   6   7    3.38    0.55
  -4  -6  -7    4.06    0.65
  -4  -6  -7    4.21    0.54
  -4  -6  -7    3.85    0.55
  -4  -6  -7    2.58    0.39
  -4  -6  -7    6.74    1.14
  -4  -6  -7    3.27    0.47
  -4  -6  -7    3.99    0.59
  -4  -6  -7    6.17    1.32
  -7   5   3    3.07    0.61
  -7   5   3    1.07    0.38
  -7   5   3    1.38    0.43
  -7   5   3    1.20    0.27
   7  -5  -3    0.72    0.24
   7  -5  -3    1.61    0.46
   7  -5  -3    1.92    0.81
   7  -5  -3    1.30    0.41
   7  -5  -3    1.16    0.37
  -4   5   4    4.64    0.39
  -4   5   4    3.26    0.49
  -4   5   4    6.93    1.21
   4  -5  -4    4.08    0.46
   4  -5  -4    4.20    0.64
   4  -5  -4    2.56    0.38
   4  -5  -4    3.74    0.40
  -1   5   5   15.19    0.69
  -1   5   5   14.75    0.64
  -1   5   5   15.27    0.51
  -1   5   5   15.76    0.64
   1  -5  -5   15.06    0.69
   1  -5  -5   15.02    0.62
   1  -5  -5   14.31    0.67
   1  -5  -5   14.87    0.65
   2   5   6    0.09    0.35
   2   5   6    0.17    0.19
   2   5   6   -0.24    0.22
   2   5   6    0.06    0.12
   2   5   6   -0.11    0.25
  -2  -5  -6    0.13    0.23
  -2  -5  -6    0.03    0.20
  -2  -5  -6    0.11    0.17
  -2  -5  -6    0.18    0.27
  -2  -5  -6    0.06    0.12
   5   5   7    1.60    0.36
   5   5   7    3.15    0.60
   5   5   7    1.76    0.43
   5   5   7    2.63    0.62
  -5  -5  -7    3.96    0.79
  -5  -5  -7    1.69    0.37
  -5  -5  -7    2.28    0.32
  -5  -5  -7    2.55    0.45
  -5  -5  -7    2.56    0.57
  -5  -5  -7    4.60    1.03
  -5  -5  -7    3.69    0.83
  -5  -5  -7    2.92    0.58
  -6   4   3    0.27    0.18
  -6   4   3    1.00    0.42
  -6   4   3    0.67    0.33
  -6   4   3    0.36    0.33
   6  -4  -3   -0.57    0.68
   6  -4  -3    0.35    0.26
   6  -4  -3    0.22    0.29
   6  -4  -3    0.27    0.17
  -3   4   4   -0.01    0.15
  -3   4   4    0.13    0.21
  -3   4   4    0.07    0.42
  -3   4   4    0.31    0.16
   3  -4  -4    0.46    0.20
   3  -4  -4    0.15    0.16
   3  -4  -4    0.43    0.43
   3  -4  -4    0.22    0.24
   0   4   5   43.21    1.14
   0   4   5   43.91    1.01
   0   4   5   44.15    1.04
   0  -4  -5   46.46    1.04
   0  -4  -5   44.33    1.13
   0  -4  -5   44.02    1.16
   0  -4  -5   44.37    1.17
   3   4   6   30.17    1.10
   3   4   6   30.28    1.11
   3   4   6   29.79    1.06
   3   4   6   31.08    1.01
   3   4   6   30.40    1.22
   3   4   6   30.94    1.12
  -3  -4  -6   30.54    1.36
  -3  -4  -6   31.96    1.07
  -3  -4  -6   31.95    1.17
  -3  -4  -6   31.82    1.29
  -3  -4  -6   31.65    1.15
  -3  -4  -6   31.17    1.27
   6   4   7    4.95    0.78
   6   4   7    5.21    0.59
   6   4   7    4.65    0.67
   6   4   7    5.60    0.65
  -6  -4  -7    5.95    0.77
  -6  -4  -7    5.08    0.38
  -6  -4  -7    6.58    0.78
  -6  -4  -7    5.34    0.69
  -6  -4  -7    5.55    0.44
  -6  -4  -7    5.48    0.38
  -6  -4  -7    5.74    0.91
  -6  -4  -7    5.91    0.70
  -6  -4  -7    5.33    0.67
  -6  -4  -7    6.98    0.95
  -5   3   3    0.63    0.19
  -5   3   3    0.09    0.20
  -5   3   3   -0.05    0.29
  -5   3   3    0.24    0.56
  -5   3   3   -0.07    0.66
  -5   3   3    0.04    0.19
   5  -3  -3    0.41    0.17
   5  -3  -3    0.23    0.22
   5  -3  -3   -0.03    0.15
   5  -3  -3    0.17    0.23
   5  -3  -3    0.74    0.49
  -2   3   4    0.62    0.36
  -2   3   4    0.48    0.17
  -2   3   4    0.59    0.17
  -2   3   4    0.96    0.22
  -2   3   4    0.64    0.20
   2  -3  -4    0.43    0.15
   2  -3  -4    1.25    0.44
   2  -3  -4    0.61    0.19
   2  -3  -4    0.90    0.17
   1   3   5   72.99    1.50
   1   3   5   75.40    1.66
  -1  -3  -5   73.76    1.61
  -1  -3  -5   74.67    1.49
  -1  -3  -5   73.84    1.65
  -1  -3  -5   73.77    1.55
  -1  -3  -5   76.47    1.53
   4   3   6    0.37    0.19
   4   3   6    0.53    0.26
   4   3   6    0.43    0.32
   4   3   6    0.47    0.29
   4   3   6    0.49    0.36
  -4  -3  -6    0.94    0.48
  -4  -3  -6    0.43    0.23
  -4  -3  -6    1.01    0.44
  -4  -3  -6    0.27    0.18
  -4  -3  -6    0.89    0.37
  -4  -3  -6    0.51    0.29
  -4  -3  -6    0.33    0.18
  -4  -3  -6    0.38    0.17
  -4  -3  -6    0.64    0.55
  -4  -3  -6    0.47    0.13
  -7  -3  -7    0.83    0.50
  -7   2   2    3.25    0.53
  -7   2   2    6.16    0.82
  -7   2   2    3.99    0.65
   7  -2  -2    3.35    0.50
   7  -2  -2    5.43    0.39
   7  -2  -2    4.54    0.62
   7  -2  -2    7.46    1.41
   7  -2  -2    5.00    0.59
   7  -2  -2    3.64    0.53
  -4   2   3    0.02    0.14
  -4   2   3    0.08    0.29
  -4   2   3    0.06    0.46
  -4   2   3   -0.15    0.13
  -4   2   3   -0.07    0.41
  -4   2   3    0.20    0.17
   4  -2  -3   -0.11    0.14
   4  -2  -3    0.12    0.21
   4  -2  -3    0.14    0.40
   4  -2  -3    0.03    0.15
   4  -2  -3    0.13    0.35
  -1   2   4   12.05    0.60
  -1   2   4   11.45    0.51
  -1   2   4   11.93    0.53
   1  -2  -4   12.03    0.35
   1  -2  -4   11.61    0.51
   1  -2  -4   11.86    0.52
   1  -2  -4   11.92    0.60
   2   2   5    7.04    0.48
   2   2   5    7.46    0.39
   2   2   5    7.39    0.44
   2   2   5    7.26    0.48
   2   2   5    7.82    0.48
   2   2   5    8.00    0.52
  -2  -2  -5    8.04    0.50
  -2  -2  -5    7.77    0.53
  -2  -2  -5    7.74    0.44
  -2  -2  -5    6.88    0.38
   5   2   6    0.46    0.31
   5   2   6    0.13    0.21
   5   2   6    0.44    0.32
   5   2   6    0.32    0.13
   5   2   6    0.36    0.23
   5   2   6    0.92    0.33
  -5  -2  -6    0.48    0.36
  -5  -2  -6    0.30    0.17
  -5  -2  -6    0.33    0.42
  -5  -2  -6    0.37    0.27
  -5  -2  -6    0.15    0.23
  -5  -2  -6    0.51    0.28
  -5  -2  -6    0.02    0.43
  -6   1   2    1.61    0.38
  -6   1   2    2.69    0.61
  -6   1   2    1.70    0.27
  -6   1   2    1.75    0.38
  -6   1   2    2.02    0.37
   6  -1  -2    3.64    0.91
   6  -1  -2    1.37    0.35
   6  -1  -2    1.75    0.39
   6  -1  -2    2.23    0.29
   6  -1  -2    1.94    0.37
   6  -1  -2    3.26    0.51
  -3   1   3   47.58    1.30
  -3   1   3   47.76    1.18
  -3   1   3   45.93    1.69
  -3   1   3   46.44    1.35
   3  -1  -3   47.64    1.35
   3  -1  -3   46.97    1.17
   3  -1  -3   47.84    1.11
   3  -1  -3   47.53    1.16
   3  -1  -3   48.04    1.59
   0   1   4   21.28    0.66
   0   1   4   20.44    0.56
   0   1   4   21.48    0.70
   0  -1  -4   19.89    0.53
   0  -1  -4   21.04    0.71
   0  -1  -4   20.40    0.74
   0  -1  -4   19.86    0.63
   3   1   5    3.29    0.41
   3   1   5    3.94    0.75
   3   1   5    3.91    0.40
   3   1   5    3.60    0.26
   3   1   5    2.82    0.41
  -3  -1  -5    3.28    0.37
  -3  -1  -5    3.44    0.26
  -3  -1  -5    3.91    0.40
  -3  -1  -5    3.77    0.43
  -3  -1  -5    3.93    0.31
  -3  -1  -5    4.02    0.48
   6   1   6    4.75    0.61
   6   1   6    3.45    0.43
   6   1   6    5.32    0.99
   6   1   6    2.64    0.56
   6   1   6    4.50    0.55
   6   1   6    2.78    0.59
  -6  -1  -6    2.80    0.36
  -6  -1  -6    5.40    0.62
  -6  -1  -6    5.73    0.88
  -6  -1  -6    3.58    0.50
  -6  -1  -6    2.74    0.52
  -6  -1  -6    1.99    0.47
  -5   0   2   10.28    0.48
  -5   0   2    9.82    0.78
  -5   0   2   10.84    1.23
  -5   0   2    9.26    0.55
  -5   0   2   10.07    0.62
  -5   0   2    9.82    0.94
  -5   0   2   10.54    0.79
   5   0  -2    8.97    0.72
   5   0  -2    9.41    0.66
   5   0  -2    9.75    0.60
   5   0  -2    9.83    0.90
   5   0  -2    9.70    0.54
   5   0  -2    8.97    0.67
  -2   0   3   16.42    0.68
  -2   0   3   15.64    0.87
  -2   0   3   16.89    0.65
  -2   0   3   15.68    0.61
   2   0  -3   16.33    0.51
   2   0  -3   16.69    0.79
   2   0  -3   16.33    0.68
   2   0  -3   16.34    0.42
   2   0  -3   15.49    0.59
   2   0  -3   16.17    0.65
   2   0  -3   16.76    0.88
   1   0   4  181.88    2.99
   1   0   4  174.04    3.08
   1   0   4  179.08    2.82
   1   0   4  175.38    2.89
  -1   0  -4  176.11    2.96
  -1   0  -4  179.11    2.89
  -1   0  -4  174.62    3.08
   4   0   5    0.57    0.28
   4   0   5    0.37    0.13
   4   0   5    0.59    0.22
   4   0   5    0.05    0.22
   4   0   5    0.27    0.17
   4   0   5    0.33    0.22
  -4   0  -5    0.55    0.32
  -4   0  -5    0.44    0.25
  -4   0  -5    0.50    0.28
  -4   0  -5    0.30    0.22
  -4   0  -5    0.27    0.41
  -4   0  -5    0.22    0.17
  -4   0  -5    0.20    0.19
   7   0   6    0.51    0.39
   7   0   6    0.45    0.27
   7   0   6    1.27    0.36
   7   0   6    0.56    0.23
  -7   0  -6    0.77    0.40
  -7   0  -6    0.70    0.36
  -7   0  -6    0.81    0.29
  -7   0  -6    0.93    0.41
  -7  -1   1    8.32    0.70
  -7  -1   1    8.25    0.91
  -7  -1   1    7.33    0.51
  -7  -1   1    8.56    0.88
  -7  -1   1    7.89    0.54
  -7  -1   1    8.78    0.92
   7   1  -1    8.46    0.81
   7   1  -1    7.55    0.72
   7   1  -1    8.08    0.99
   7   1  -1    8.38    0.72
  -4  -1   2    5.23    0.53
  -4  -1   2    5.44    0.40
  -4  -1   2    4.73    0.43
  -4  -1   2    4.58    0.40
  -4  -1   2    5.89    0.89
  -4  -1   2    5.04    0.82
  -4  -1   2    5.03    0.64
   4   1  -2    4.83    0.48
   4   1  -2    4.83    0.39
   4   1  -2    5.13    0.46
   4   1  -2    4.18    0.60
   4   1  -2    4.81    0.39
   4   1  -2    5.15    0.55
  -1  -1   3   26.46    0.65
  -1  -1   3   27.49    1.07
  -1  -1   3   27.04    0.57
  -1  -1   3   26.17    0.79
   1   1  -3   27.76    0.66
   1   1  -3   26.72    0.78
   1   1  -3   26.41    1.06
   2  -1   4    1.29    0.31
   2  -1   4    0.71    0.15
   2  -1   4    0.80    0.20
   2  -1   4    1.24    0.17
  -2   1  -4    0.98    0.22
  -2   1  -4    1.03    0.26
  -2   1  -4    0.79    0.14
   5  -1   5    0.03    0.22
   5  -1   5    0.05    0.20
   5  -1   5    0.07    0.14
   5  -1   5    0.22    0.22
   5  -1   5   -0.20    0.23
   5  -1   5   -0.13    0.16
  -5   1  -5    0.05    0.28
  -5   1  -5   -0.33    0.34
  -5   1  -5    0.12    0.22
  -5   1  -5    0.24    0.26
  -5   1  -5   -0.11    0.17
  -5   1  -5   -0.14    0.25
  -6  -2   1    1.01    0.37
  -6  -2   1    1.04    0.35
  -6  -2   1    2.08    0.98
  -6  -2   1    0.92    0.28
  -6  -2   1    2.55    0.92
  -6  -2   1    0.98    0.25
  -6  -2   1    1.86    0.49
  -6  -2   1    5.00    1.74
  -6  -2   1    1.00    0.30
  -6  -2   1    2.95    0.84
   6   2  -1    0.82    0.26
   6   2  -1    1.25    0.37
   6   2  -1    1.01    0.34
   6   2  -1    1.23    0.58
  -3  -2   2  130.07    3.11
  -3  -2   2  129.38    2.10
  -3  -2   2  126.90    3.25
  -3  -2   2  129.55    2.77
  -3  -2   2  125.21    2.91
  -3  -2   2  136.69    2.71
  -3  -2   2  129.92    2.46
  -3  -2   2  131.57    2.29
  -3  -2   2  131.16    2.55
  -3  -2   2  130.09    2.88
   3   2  -2  127.63    2.44
   3   2  -2  131.24    3.29
   3   2  -2  129.26    2.99
   3   2  -2  129.59    2.79
   3   2  -2  128.70    2.47
   3   2  -2  132.88    2.61
   0  -2   3   74.01    1.41
   0  -2   3   73.62    1.52
   0  -2   3   74.36    1.62
   0  -2   3   73.86    1.68
   0  -2   3   72.84    1.50
   0   2  -3   75.15    1.53
   0   2  -3   76.00    1.60
   0   2  -3   74.37    1.51
   0   2  -3   74.54    1.70
   3  -2   4   13.02    0.73
   3  -2   4   12.28    0.63
   3  -2   4   11.31    0.75
   3  -2   4   12.47    0.42
  -3   2  -4   12.77    0.68
  -3   2  -4   11.97    0.67
  -3   2  -4   12.13    0.79
  -3   2  -4   12.11    0.52
  -3   2  -4   12.34    0.76
   6  -2   5    0.20    0.19
   6  -2   5    0.04    0.29
   6  -2   5   -0.11    0.18
   6  -2   5   -0.21    0.21
   6  -2   5   -0.08    0.18
  -6   2  -5    0.36    0.37
  -6   2  -5    0.01    0.23
  -6   2  -5    0.20    0.25
  -6   2  -5   -0.13    0.28
  -6   2  -5    0.27    0.31
  -5  -3   1    2.61    0.85
  -5  -3   1    1.84    0.58
  -5  -3   1    1.16    0.29
  -5  -3   1    1.19    0.28
  -5  -3   1    0.75    0.58
  -5  -3   1    3.17    0.94
  -5  -3   1    1.04    0.30
  -5  -3   1    1.39    0.41
  -5  -3   1    1.09    0.21
  -5  -3   1    2.75    1.12
  -5  -3   1    1.70    0.49
  -5  -3   1    0.94    0.23
   5   3  -1    0.98    0.32
   5   3  -1    1.97    0.66
   5   3  -1    1.23    0.42
   5   3  -1    1.09    0.29
  -2  -3   2   18.61    0.61
  -2  -3   2   18.24    0.97
  -2  -3   2   18.22    0.65
  -2  -3   2   17.59    1.06
  -2  -3   2   18.14    0.55
  -2  -3   2   18.39    0.87
   2   3  -2   18.53    0.70
   2   3  -2   19.01    0.85
   2   3  -2   16.81    1.02
   2   3  -2   18.20    0.59
   2   3  -2   18.77    0.79
   2   3  -2   18.27    0.72
   1  -3   3   14.79    0.69
   1  -3   3   14.63    0.66
   1  -3   3   15.78    0.61
   1  -3   3   14.75    0.66
   1  -3   3   15.30    0.68
  -1   3  -3   14.70    0.66
  -1   3  -3   14.91    0.49
  -1   3  -3   15.87    0.59
  -1   3  -3   14.51    0.69
  -1   3  -3   15.26    0.68
   4  -3   4    1.69    0.33
   4  -3   4    1.71    0.37
   4  -3   4    3.02    0.54
  -4   3  -4    2.40    0.38
  -4   3  -4    2.76    0.42
  -4   3  -4    2.26    0.46
  -4   3  -4    2.22    0.45
  -4   3  -4    4.10    0.75
  -4   3  -4    2.86    0.33
   7  -3   5    1.43    0.45
   7  -3   5    2.61    0.40
   7  -3   5    1.45    0.36
   7  -3   5    1.80    0.53
  -7   3  -5    1.50    0.59
  -7   3  -5    0.95    0.45
  -7   3  -5    1.28    0.42
  -7  -4   0    0.23    0.27
  -7  -4   0    0.30    0.28
  -7  -4   0    0.12    0.36
  -7  -4   0    0.29    0.23
   7   4   0    1.03    0.60
   7   4   0    0.13    0.31
  -4  -4   1    0.79    0.70
  -4  -4   1    0.20    0.23
  -4  -4   1    0.19    0.17
  -4  -4   1    0.22    0.20
  -4  -4   1    0.35    0.21
  -4  -4   1    0.41    0.23
  -4  -4   1    0.77    0.56
  -4  -4   1    0.08    0.36
  -4  -4   1    0.66    0.23
  -4  -4   1    1.07    0.55
  -4  -4   1    0.49    0.40
  -4  -4   1    0.14    0.20
   4   4  -1    0.41    0.34
   4   4  -1    0.37    0.25
   4   4  -1    0.20    0.33
   4   4  -1    0.52    0.50
  -1  -4   2    0.32    0.26
  -1  -4   2    0.13    0.15
  -1  -4   2    0.10    0.18
  -1  -4   2    0.13    0.19
  -1  -4   2    0.29    0.40
   1   4  -2    0.04    0.15
   1   4  -2    0.19    0.13
   1   4  -2    0.48    0.24
   1   4  -2    0.28    0.13
   1   4  -2    0.38    0.40
   1   4  -2    0.29    0.58
   1   4  -2    0.28    0.27
   2  -4   3   25.40    0.99
   2  -4   3   25.33    1.00
   2  -4   3   25.17    0.96
   2  -4   3   25.42    0.81
  -2   4  -3   25.40    0.91
  -2   4  -3   24.74    0.99
  -2   4  -3   25.59    0.97
  -2   4  -3   25.92    0.98
   5  -4   4    1.16    0.38
   5  -4   4    1.48    0.32
   5  -4   4    1.96    0.38
   5  -4   4    1.19    0.28
   5  -4   4    1.23    0.49
  -5   4  -4    1.01    0.43
  -5   4  -4    0.74    0.26
  -5   4  -4    1.35    0.45
  -5   4  -4    1.14    0.31
  -5   4  -4    1.83    0.54
  -5   4  -4    1.62    0.63
  -6  -5   0    5.65    0.47
  -6  -5   0    5.89    0.58
  -6  -5   0    5.69    0.68
  -6  -5   0    5.17    0.57
  -6  -5   0    5.78    0.66
  -6  -5   0    6.59    0.67
  -6  -5   0    6.59    0.73
  -6  -5   0    6.51    0.92
  -6  -5   0    6.21    0.74
   6   5   0    5.80    0.78
   6   5   0    5.67    0.66
  -3  -5   1    6.56    1.19
  -3  -5   1    3.77    0.73
  -3  -5   1    3.30    0.50
  -3  -5   1    3.47    0.37
  -3  -5   1    4.47    0.70
  -3  -5   1    2.97    0.47
  -3  -5   1    2.50    0.37
  -3  -5   1    3.06    0.63
  -3  -5   1    2.67    0.38
   3   5  -1    3.42    0.42
   3   5  -1    3.70    0.37
   3   5  -1    3.44    0.81
   3   5  -1    3.45    0.47
   3   5  -1    3.37    0.61
   0  -5   2    0.90    0.23
   0  -5   2    1.31    0.27
   0  -5   2    2.54    0.58
   0  -5   2    1.44    0.25
   0   5  -2    1.52    0.28
   0   5  -2    1.59    0.31
   0   5  -2    1.91    0.48
   0   5  -2    2.56    0.46
   0   5  -2    1.44    0.18
   3  -5   3   26.62    1.14
   3  -5   3   24.98    1.07
   3  -5   3   26.86    0.87
   3  -5   3   26.31    1.13
  -3   5  -3   26.27    1.16
  -3   5  -3   25.56    1.08
  -3   5  -3   26.53    1.10
  -3   5  -3   25.99    1.12
   6  -5   4    1.48    0.32
   6  -5   4    1.47    0.53
   6  -5   4    1.77    0.35
  -6   5  -4    0.94    0.56
  -6   5  -4    0.27    0.37
  -6   5  -4    2.15    0.64
  -6   5  -4    1.06    0.45
  -5  -6   0    0.45    0.50
  -5  -6   0    0.13    0.18
  -5  -6   0    1.79    0.94
  -5  -6   0    0.21    0.20
  -5  -6   0    0.07    0.25
  -5  -6   0    0.96    0.41
  -5  -6   0    0.30    0.25
  -5  -6   0    0.13    0.37
  -5  -6   0    2.68    1.18
  -5  -6   0    0.15    0.19
   5   6   0    0.05    0.22
   5   6   0    0.52    0.49
   5   6   0    0.25    0.44
   5   6   0    0.27    0.37
  -2  -6   1   40.80    1.17
  -2  -6   1   40.69    1.74
  -2  -6   1   41.04    1.55
  -2  -6   1   41.59    1.25
  -2  -6   1   42.64    1.37
   2   6  -1   41.55    1.81
   2   6  -1   41.02    1.22
   2   6  -1   41.29    1.52
   2   6  -1   41.16    1.11
   2   6  -1   41.24    1.74
   2   6  -1   42.27    1.58
   2   6  -1   41.98    1.17
   1  -6   2    7.18    0.57
   1  -6   2    6.97    0.61
   1  -6   2    7.68    0.55
   1  -6   2    6.91    0.65
  -1   6  -2    7.50    0.58
  -1   6  -2    6.49    0.61
  -1   6  -2    7.18    0.71
  -1   6  -2    7.20    0.57
   4  -6   3    5.20    0.66
   4  -6   3    5.01    0.73
   4  -6   3    4.76    0.58
   4  -6   3    5.00    0.66
   4  -6   3    5.25    0.61
  -4   6  -3    5.56    0.65
  -4   6  -3    5.08    0.67
  -4   6  -3    3.76    0.51
  -4   6  -3    5.04    0.63
  -4  -7   0    1.21    0.30
  -4  -7   0    3.11    1.01
  -4  -7   0    2.76    0.46
  -4  -7   0    2.51    0.74
  -4  -7   0    3.38    1.15
  -4  -7   0    1.45    0.37
  -4  -7   0    4.20    1.48
  -4  -7   0    1.62    0.37
  -4  -7   0    2.62    0.59
   4   7   0    2.58    0.68
   4   7   0    1.96    0.36
   4   7   0    1.64    0.76
  -1  -7   1    0.43    0.20
  -1  -7   1    0.94    0.62
  -1  -7   1    0.48    0.23
  -1  -7   1    0.59    0.27
   1   7  -1    0.00    0.19
   1   7  -1    0.18    0.53
   1   7  -1    0.46    0.41
   1   7  -1    0.49    0.52
   2  -7   2    1.06    0.32
   2  -7   2    0.36    0.24
   2  -7   2    0.44    0.33
   2  -7   2    0.37    0.22
  -2   7  -2    1.06    0.31
  -2   7  -2    0.57    0.32
  -2   7  -2    0.65    0.29
  -2   7  -2    0.73    0.51
   5  -7   3   -0.11    0.21
   5  -7   3   -0.32    0.35
   5  -7   3   -0.22    0.29
   5  -7   3   -0.15    0.22
  -5   7  -3   -0.10    0.29
  -5   7  -3    0.35    0.43
  -5   7  -3    0.35    0.43
  -5   7  -3    0.47    0.53
  -6  -8  -1    1.38    0.90
  -6  -8  -1    0.42    0.27
  -6  -8  -1   -0.27    0.19
  -6  -8  -1   -0.16    0.21
  -6  -8  -1   -0.32    0.22
   6   8   1    0.30    0.52
  -3  -8   0    3.45    0.46
  -3  -8   0    5.15    0.62
  -3  -8   0    3.91    0.51
  -3  -8   0    4.19    0.49
  -3  -8   0    4.32    0.56
  -3  -8   0    5.17    0.58
  -3  -8   0    4.65    0.57
   3   8   0    5.89    0.93
   3   8   0    5.09    0.51
   3   8   0    5.02    0.69
   3   8   0    4.43    0.77
   3   8   0    5.13    0.99
   0  -8   1    0.73    0.22
   0  -8   1    0.44    0.26
   0  -8   1    0.42    0.30
   0  -8   1    0.51    0.25
   0  -8   1    0.37    0.67
   0   8  -1    0.66    0.25
   0   8  -1    1.01    0.78
   0   8  -1    1.07    0.48
   0   8  -1    0.48    0.31
   0   8  -1    0.49    0.49
   3  -8   2    3.40    0.54
   3  -8   2    5.57    0.68
   3  -8   2    4.67    0.55
   3  -8   2    5.47    0.64
  -3   8  -2    3.69    0.52
  -3   8  -2    4.95    0.72
  -3   8  -2    5.67    0.80
  -3   8  -2    4.81    0.50
  -5  -9  -1    0.21    0.34
  -5  -9  -1   -2.14    2.53
  -5  -9  -1    1.39    0.82
  -5  -9  -1    0.92    0.36
  -5  -9  -1    1.01    0.32
  -5  -9  -1    0.65    0.25
  -5  -9  -1    0.57    0.34
  -5  -9  -1    0.93    0.29
   5   9   1    1.28    0.55
   5   9   1    1.29    0.68
  -2  -9   0    0.26    0.25
  -2  -9   0    0.34    0.25
  -2  -9   0    0.16    0.30
   2   9   0    0.37    0.45
   2   9   0    0.77    0.31
   2   9   0    0.66    0.48
   2   9   0    0.41    0.46
   2   9   0    0.42    0.54
   1  -9   1    0.42    0.22
   1  -9   1   -0.08    0.22
   1  -9   1    0.17    0.31
  -1   9  -1    0.07    0.27
  -1   9  -1    0.21    0.52
  -1   9  -1    0.61    0.41
   4  -9   2    0.57    0.29
   4  -9   2   -0.08    0.27
   4  -9   2    0.31    0.24
  -4   9  -2   -0.17    0.30
  -4   9  -2   -0.82    0.34
  -4   9  -2    0.75    0.55
  -4 -10  -1   -0.01    0.25
  -4 -10  -1    0.16    0.35
  -4 -10  -1   -0.19    0.24
   4  10   1   -0.32    0.36
   4  10   1    0.08    0.47
   4  10   1    0.53    0.42
   4  10   1    0.46    0.54
  -1 -10   0    4.95    0.64
  -1 -10   0    5.19    0.71
  -1 -10   0    5.72    1.00
  -1 -10   0    4.08    0.61
   1  10   0    5.65    0.85
   1  10   0    6.01    1.15
   1  10   0    6.09    0.73
   1  10   0    5.83    0.77
   2 -10   1    0.34    0.35
   2 -10   1   -0.09    0.22
   2 -10   1   -0.31    0.19
  -2  10  -1    0.06    0.45
  -2  10  -1   -0.14    0.39
  -2  10  -1    0.21    0.32
  -3 -11  -1   -0.15    0.28
  -3 -11  -1   -0.15    0.35
   3  11   1    0.74    0.48
   3  11   1    0.07    0.25
   3  11   1    0.43    0.60
   3  11   1    1.35    0.59
   0 -11   0    1.79    0.49
   0 -11   0    2.70    0.48
   0 -11   0    1.50    0.43
   0 -11   0    3.27    0.76
   0 -11   0    2.19    0.46
   0  11   0    3.85    1.06
   0  11   0    4.18    0.96
   0  11   0    2.87    0.93
   3 -11   1    0.51    0.31
   3 -11   1   -0.01    0.31
   3 -11   1    0.09    0.25
   3 -11   1    0.33    0.28
   3 -11   1    0.46    0.40
  -3  11  -1   -0.70    0.29
  -3  11  -1    0.18    0.51
  -2 -12  -1    0.31    0.36
  -2 -12  -1   -0.49    0.33
   2  12   1    0.19    0.64
   2  12   1    0.00    0.36
   2  12   1    0.78    0.53
   2  12   1    0.29    0.53
   1 -12   0   -0.37    0.40
   1 -12   0    0.47    0.29
   1 -12   0    0.02    0.26
   1 -12   0    0.07    0.40
  -1  12   0    0.93    0.56
  -1  12   0   -0.16    0.74
  -1  12   0    0.85    0.94
  -1  13   8    1.03    0.77
  -1  13   8    0.03    0.33
   1 -13  -8   -0.28    0.35
   1 -13  -8    0.09    0.49
   1 -13  -8   -0.79    0.43
   2  13   9    0.30    0.64
   2  13   9    1.05    0.68
  -2 -13  -9    0.09    0.32
  -2 -13  -9   -0.35    0.38
  -3  12   7    3.46    1.31
  -3  12   7    2.31    0.49
   3 -12  -7    3.78    0.58
   3 -12  -7    3.76    0.65
   3 -12  -7    4.32    0.72
   0  12   8    2.48    0.92
   0  12   8    2.93    0.48
   0 -12  -8    0.53    0.30
   0 -12  -8    1.32    0.49
   3  12   9    0.91    0.72
   3  12   9    1.25    0.54
  -3 -12  -9    0.95    0.58
  -3 -12  -9   -0.45    0.39
  -3 -12  -9    0.26    0.23
  -2  11   7    0.29    0.26
  -2  11   7   -0.02    0.64
  -2  11   7    0.95    0.34
   2 -11  -7   -0.02    0.51
   2 -11  -7   -0.23    0.40
   2 -11  -7    0.52    0.37
   2 -11  -7    1.25    0.57
   1  11   8    8.96    1.08
   1  11   8    9.12    0.69
   1  11   8    9.09    1.03
   1  11   8   10.06    1.28
   1  11   8   10.48    0.68
  -1 -11  -8    9.42    0.77
  -1 -11  -8    7.91    0.80
   4  11   9   -0.58    0.30
   4  11   9   -0.07    0.25
   4  11   9    0.32    0.47
   4  11   9    0.38    0.47
  -4 -11  -9   -0.16    0.17
  -4 -11  -9    2.39    0.72
  -4 -11  -9    0.10    0.40
  -4  10   6   -0.26    0.28
  -4  10   6    0.28    0.28
  -4  10   6    0.22    0.26
   4 -10  -6   -0.44    0.26
   4 -10  -6   -0.07    0.26
   4 -10  -6    0.34    0.43
  -1  10   7    1.23    0.69
  -1  10   7    1.40    0.33
  -1  10   7    0.44    0.25
   1 -10  -7    0.88    0.34
   1 -10  -7    1.76    0.43
   1 -10  -7    1.60    0.42
   2  10   8    0.35    0.49
   2  10   8    0.20    0.30
   2  10   8    0.00    0.23
   2  10   8    0.94    0.68
  -2 -10  -8    0.11    0.17
  -2 -10  -8   -0.19    0.19
  -2 -10  -8   -0.11    0.46
   5  10   9    0.09    0.42
   5  10   9    0.06    0.47
   5  10   9    0.11    0.56
   5  10   9    0.22    0.30
  -5 -10  -9   -0.48    0.59
  -5 -10  -9    0.08    0.30
  -6   9   5    0.49    0.41
   6  -9  -5    0.56    0.28
   6  -9  -5   -0.18    0.35
  -3   9   6    1.24    0.32
  -3   9   6    1.04    0.35
  -3   9   6    1.16    0.35
   3  -9  -6    1.31    0.33
   3  -9  -6    1.25    0.35
   3  -9  -6    1.37    0.35
   3  -9  -6    2.82    0.74
   3  -9  -6    1.60    0.38
   0   9   7    5.65    1.12
   0   9   7    3.98    0.42
   0   9   7    3.95    0.37
   0   9   7    4.48    0.58
   0  -9  -7    4.18    0.55
   0  -9  -7    3.30    0.47
   0  -9  -7    4.42    0.56
   3   9   8    1.38    0.50
   3   9   8    0.74    0.38
   3   9   8    1.66    0.62
   3   9   8    1.03    0.32
  -3  -9  -8    0.57    0.18
  -3  -9  -8    0.92    0.32
  -3  -9  -8    1.09    0.31
  -3  -9  -8    1.54    0.40
  -5   8   5    2.32    0.46
  -5   8   5    4.86    0.59
  -5   8   5    2.70    0.52
   5  -8  -5    4.62    1.00
   5  -8  -5    3.90    0.51
   5  -8  -5    3.20    0.49
   5  -8  -5    3.82    0.51
  -2   8   6    1.29    0.26
  -2   8   6    2.06    0.42
  -2   8   6    1.06    0.29
  -2   8   6    2.29    0.38
   2  -8  -6    0.97    0.30
   2  -8  -6    2.17    0.44
   2  -8  -6    1.04    0.28
   2  -8  -6    1.62    0.35
   2  -8  -6    2.41    0.64
   1   8   7    6.68    0.55
   1   8   7    6.31    0.83
   1   8   7    6.83    0.48
   1   8   7    6.87    0.64
  -1  -8  -7    6.42    0.61
  -1  -8  -7    6.24    0.52
  -1  -8  -7    7.21    0.66
   4   8   8    0.42    0.47
   4   8   8    0.37    0.35
   4   8   8   -0.07    0.37
   4   8   8   -0.19    0.35
  -4  -8  -8   -0.11    0.27
  -4  -8  -8    0.87    0.45
  -4  -8  -8    2.64    0.83
  -4  -8  -8   -0.03    0.28
  -4  -8  -8   -0.18    0.29
  -4  -8  -8    0.44    0.60
  -4  -8  -8    0.68    0.40
  -4   7   5    0.60    0.29
  -4   7   5    1.42    0.40
  -4   7   5    1.21    0.32
   4  -7  -5    1.00    0.29
   4  -7  -5    1.23    0.32
   4  -7  -5    1.60    0.62
   4  -7  -5    1.62    0.34
  -1   7   6   35.95    0.93
  -1   7   6   35.78    1.13
  -1   7   6   37.32    1.24
   1  -7  -6   35.75    1.20
   1  -7  -6   35.59    1.15
   1  -7  -6   36.89    1.22
   2   7   7    0.95    0.48
   2   7   7    0.43    0.25
   2   7   7    1.06    0.58
   2   7   7    0.28    0.28
  -2  -7  -7    0.83    0.35
  -2  -7  -7    0.34    0.28
  -2  -7  -7    0.29    0.27
  -2  -7  -7    0.30    0.22
  -2  -7  -7    0.36    0.14
  -2  -7  -7    0.37    0.31
   5   7   8    4.75    0.70
   5   7   8    3.68    0.61
   5   7   8    5.63    0.68
   5   7   8    4.31    0.67
  -5  -7  -8    4.98    0.65
  -5  -7  -8    2.84    0.49
  -5  -7  -8    5.40    0.83
  -5  -7  -8    4.93    0.70
  -5  -7  -8    5.87    0.94
  -5  -7  -8    7.07    0.96
  -5  -7  -8    3.24    0.49
  -6   6   4   -0.20    0.24
  -6   6   4    0.09    0.22
  -6   6   4    0.06    0.26
  -6   6   4   -0.07    0.38
   6  -6  -4    0.28    0.26
   6  -6  -4    0.00    0.25
   6  -6  -4    0.21    0.41
  -3   6   5    4.63    0.58
  -3   6   5    3.90    0.41
   3  -6  -5    4.43    0.54
   3  -6  -5    4.54    0.66
   3  -6  -5    5.11    0.46
   0   6   6    0.07    0.20
   0   6   6    0.04    0.15
   0   6   6    0.22    0.15
   0   6   6    0.05    0.15
   0  -6  -6    0.00    0.11
   0  -6  -6    0.22    0.21
   0  -6  -6    0.06    0.20
   3   6   7    2.05    0.40
   3   6   7    3.69    0.73
   3   6   7    1.67    0.26
   3   6   7    1.84    0.43
   3   6   7    3.11    0.68
  -3  -6  -7    2.82    0.53
  -3  -6  -7    1.96    0.31
  -3  -6  -7    2.14    0.47
  -3  -6  -7    1.56    0.38
  -3  -6  -7    1.76    0.28
   6   6   8    1.55    0.46
   6   6   8    0.99    0.40
  -6  -6  -8    1.45    0.31
  -6  -6  -8    0.84    0.54
  -6  -6  -8    0.85    0.83
  -6  -6  -8    0.85    0.38
  -6  -6  -8    2.56    0.64
  -6  -6  -8    1.34    0.27
  -5   5   4    2.40    0.42
  -5   5   4    1.83    0.40
  -5   5   4    2.74    0.34
  -5   5   4    4.45    0.70
   5  -5  -4    3.04    0.40
   5  -5  -4    4.65    0.98
   5  -5  -4    3.35    0.35
   5  -5  -4    3.13    0.45
  -2   5   5   15.16    0.78
  -2   5   5   14.55    0.55
  -2   5   5   13.96    0.81
   2  -5  -5   13.91    0.69
   2  -5  -5   14.99    0.75
   2  -5  -5   14.54    0.62
   1   5   6   69.75    1.44
   1   5   6   68.25    1.68
   1   5   6   69.56    1.72
   1   5   6   72.40    1.97
  -1  -5  -6   69.08    1.45
  -1  -5  -6   70.20    1.76
  -1  -5  -6   71.37    1.70
  -1  -5  -6   72.84    1.35
   4   5   7   14.61    0.79
   4   5   7   13.49    0.86
   4   5   7   13.68    0.94
   4   5   7   13.80    0.83
   4   5   7   14.20    0.86
  -4  -5  -7   14.36    0.91
  -4  -5  -7   15.24    0.86
  -4  -5  -7   14.19    1.11
  -4  -5  -7   14.06    0.85
  -4  -5  -7   14.92    1.14
  -4  -5  -7   13.10    0.86
  -4  -5  -7   14.31    0.88
  -4  -5  -7   14.99    0.83
  -7   4   3    0.54    0.59
  -7   4   3    0.05    0.28
  -7   4   3   -0.23    0.25
   7  -4  -3   -0.31    0.46
   7  -4  -3    0.27    0.27
   7  -4  -3    0.29    0.46
   7  -4  -3    0.23    0.22
   7  -4  -3   -0.03    0.18
  -4   4   4   15.54    0.56
  -4   4   4   16.39    0.80
  -4   4   4   16.98    0.96
  -4   4   4   16.82    1.21
   4  -4  -4   16.20    1.09
   4  -4  -4   16.96    0.75
   4  -4  -4   16.59    0.58
   4  -4  -4   16.60    0.92
  -1   4   5    2.08    0.36
  -1   4   5    1.46    0.27
   1  -4  -5    1.75    0.28
   1  -4  -5    1.27    0.25
   1  -4  -5    1.95    0.25
   2   4   6   63.18    1.67
   2   4   6   61.10    1.62
   2   4   6   63.18    1.59
   2   4   6   63.50    1.44
   2   4   6   63.59    1.80
  -2  -4  -6   63.24    1.66
  -2  -4  -6   62.50    1.52
  -2  -4  -6   63.22    1.45
  -2  -4  -6   62.86    1.64
  -2  -4  -6   60.98    1.49
  -2  -4  -6   64.17    1.49
   5   4   7    0.66    0.26
   5   4   7    1.47    0.37
   5   4   7    1.20    0.38
   5   4   7    1.12    0.32
   5   4   7    1.19    0.43
  -5  -4  -7    3.80    1.11
  -5  -4  -7    1.56    0.40
  -5  -4  -7    1.81    0.48
  -5  -4  -7    2.04    0.65
  -5  -4  -7    1.28    0.24
  -5  -4  -7    1.29    0.71
  -5  -4  -7    0.56    0.30
  -5  -4  -7    1.80    0.77
  -6   3   3    1.11    0.28
  -6   3   3    1.60    0.53
  -6   3   3    0.71    0.29
   6  -3  -3    1.19    0.37
   6  -3  -3    0.89    0.31
   6  -3  -3    1.32    0.81
   6  -3  -3    1.83    0.41
   6  -3  -3    0.83    0.20
  -3   3   4   28.33    1.33
  -3   3   4   27.24    0.90
  -3   3   4   28.24    0.65
  -3   3   4   27.50    0.90
  -3   3   4   27.29    1.06
   3  -3  -4   28.67    0.68
   3  -3  -4   27.57    1.05
   3  -3  -4   28.37    0.90
   3  -3  -4   30.14    1.30
   0   3   5   12.59    0.46
   0   3   5   11.56    0.56
   0   3   5   12.59    0.56
   0  -3  -5   12.19    0.55
   0  -3  -5   12.33    0.46
   3   3   6   17.12    0.82
   3   3   6   17.30    0.86
   3   3   6   16.41    0.83
   3   3   6   17.53    0.78
   3   3   6   16.66    0.70
   3   3   6   16.75    0.81
   3   3   6   17.42    0.78
  -3  -3  -6   17.89    0.81
  -3  -3  -6   16.59    0.63
  -3  -3  -6   16.62    0.75
  -3  -3  -6   16.62    0.95
   6   3   7    1.16    0.41
   6   3   7    0.23    0.29
   6   3   7    0.90    0.43
   6   3   7    0.38    0.21
  -6  -3  -7    1.11    0.51
  -6  -3  -7    0.56    0.52
  -6  -3  -7    0.38    0.48
  -6  -3  -7    0.25    0.28
  -6  -3  -7    1.35    0.45
  -6  -3  -7    0.49    0.18
  -5   2   3    0.42    0.38
  -5   2   3    0.49    0.22
  -5   2   3    0.20    0.18
  -5   2   3    0.17    0.59
  -5   2   3    0.00    0.57
   5  -2  -3    0.55    0.27
   5  -2  -3    0.37    0.23
   5  -2  -3    0.12    0.19
   5  -2  -3    0.76    0.48
   5  -2  -3    0.17    0.18
   5  -2  -3    0.41    0.23
  -2   2   4    1.35    0.42
  -2   2   4    1.43    0.27
  -2   2   4    0.76    0.18
  -2   2   4    0.78    0.19
   2  -2  -4    2.10    0.48
   2  -2  -4    0.61    0.17
   2  -2  -4    1.03    0.15
   2  -2  -4    1.06    0.22
   1   2   5    2.68    0.30
  -1  -2  -5    1.54    0.25
   4   2   6    4.96    0.52
   4   2   6    3.57    0.49
   4   2   6    2.89    0.39
   4   2   6    2.14    0.36
   4   2   6    2.40    0.42
   4   2   6    2.61    0.25
  -4  -2  -6    3.29    0.32
  -4  -2  -6    2.87    0.39
  -4  -2  -6    3.60    0.52
  -4  -2  -6    3.04    0.28
  -4  -2  -6    3.51    0.58
  -4  -2  -6    5.84    1.01
  -4  -2  -6    3.35    0.49
  -4  -2  -6    3.12    0.47
   7   2   7    1.64    0.42
   7   2   7    0.60    0.24
   7   2   7    1.08    0.36
   7   2   7    1.59    0.50
  -7  -2  -7    1.52    0.40
  -7  -2  -7    1.95    0.75
  -7  -2  -7    0.62    0.38
  -7  -2  -7    0.98    0.27
  -7   1   2    2.09    0.50
  -7   1   2    1.49    0.40
  -7   1   2    2.32    0.42
  -7   1   2    3.28    0.64
   7  -1  -2    2.81    0.57
   7  -1  -2    1.81    0.39
   7  -1  -2    1.91    0.30
   7  -1  -2    3.18    0.54
   7  -1  -2    3.39    0.93
   7  -1  -2    1.71    0.36
  -4   1   3    4.13    0.40
  -4   1   3    4.63    0.38
  -4   1   3    4.37    0.74
  -4   1   3    3.96    0.29
  -4   1   3    4.41    0.52
  -4   1   3    4.35    0.65
  -4   1   3    4.84    0.54
   4  -1  -3    4.67    0.64
   4  -1  -3    4.80    0.41
   4  -1  -3    4.00    0.49
   4  -1  -3    4.67    0.40
   4  -1  -3    4.87    0.49
   4  -1  -3    4.15    0.43
  -1   1   4  121.65    2.23
  -1   1   4  123.54    2.23
  -1   1   4  119.27    2.47
   1  -1  -4  124.40    2.08
   1  -1  -4  121.95    2.23
   1  -1  -4  119.60    2.21
   1  -1  -4  121.43    2.49
   2   1   5    1.23    0.30
   2   1   5    0.72    0.19
   2   1   5    0.92    0.18
   2   1   5    1.02    0.26
   2   1   5    1.31    0.19
   2   1   5    0.72    0.11
   2   1   5    1.67    0.31
  -2  -1  -5    0.86    0.16
  -2  -1  -5    1.10    0.27
  -2  -1  -5    1.16    0.23
   5   1   6    0.10    0.25
   5   1   6    0.07    0.21
   5   1   6    0.07    0.26
   5   1   6    0.42    0.19
   5   1   6    0.32    0.23
   5   1   6    0.33    0.16
  -5  -1  -6    0.71    0.20
  -5  -1  -6    0.24    0.25
  -5  -1  -6    0.70    0.47
  -5  -1  -6    0.37    0.33
  -5  -1  -6    0.32    0.24
  -5  -1  -6    0.94    0.43
  -6   0   2    1.08    0.51
  -6   0   2    0.61    0.27
  -6   0   2    1.11    0.23
  -6   0   2    0.69    0.23
  -6   0   2    0.92    0.55
  -6   0   2    0.64    0.28
  -6   0   2    0.85    0.33
   6   0  -2    0.76    0.22
   6   0  -2    0.29    0.22
   6   0  -2    0.39    0.22
   6   0  -2    1.36    0.60
   6   0  -2    0.92    0.30
   6   0  -2    0.81    0.33
  -3   0   3   47.85    1.38
  -3   0   3   45.55    1.72
  -3   0   3   46.29    1.34
  -3   0   3   49.13    1.22
   3   0  -3   47.16    1.36
   3   0  -3   47.70    1.04
   3   0  -3   49.03    1.59
   3   0  -3   47.07    1.30
   3   0  -3   47.66    1.77
   3   0  -3   47.08    1.18
   3   0  -3   45.33    1.35
   3   0  -3   47.97    1.17
   0   0   4   37.86    1.02
   0   0   4   38.83    0.79
   0   0   4   37.70    0.95
   0   0  -4   37.58    0.94
   0   0  -4   37.44    1.03
   0   0  -4   37.29    0.78
   3   0   5   14.80    0.69
   3   0   5   14.99    0.56
   3   0   5   15.67    0.79
   3   0   5   15.27    0.78
  -3   0  -5   14.99    0.81
  -3   0  -5   14.92    0.61
  -3   0  -5   15.20    0.47
  -3   0  -5   15.83    0.92
  -3   0  -5   14.37    0.74
  -3   0  -5   15.66    0.67
   6   0   6    2.30    0.39
   6   0   6    1.63    0.50
   6   0   6    3.40    0.52
   6   0   6    2.63    0.53
   6   0   6    3.60    0.46
  -6   0  -6    2.45    0.44
  -6   0  -6    2.52    0.37
  -6   0  -6    1.76    0.67
  -6   0  -6    3.22    0.53
  -6   0  -6    5.09    0.82
  -5  -1   2   27.35    1.40
  -5  -1   2   29.28    0.94
  -5  -1   2   28.65    1.77
  -5  -1   2   27.77    1.07
  -5  -1   2   29.35    0.99
  -5  -1   2   25.81    1.25
  -5  -1   2   28.59    1.51
  -5  -1   2   29.50    1.25
   5   1  -2   28.71    1.18
   5   1  -2   29.39    0.96
   5   1  -2   28.98    1.11
   5   1  -2   28.50    1.02
   5   1  -2   29.25    1.49
  -2  -1   3   50.82    1.24
  -2  -1   3   48.82    1.65
  -2  -1   3   50.45    1.32
  -2  -1   3   48.30    0.91
  -2  -1   3   48.72    1.05
   2   1  -3   49.15    1.42
   2   1  -3   50.62    1.32
   2   1  -3   50.02    0.91
   2   1  -3   49.85    1.66
   2   1  -3   49.23    1.04
   2   1  -3   49.09    1.21
   1  -1   4   44.62    0.98
   1  -1   4   46.21    1.20
   1  -1   4   46.71    1.10
   1  -1   4   46.34    1.05
  -1   1  -4   46.74    1.22
  -1   1  -4   45.95    1.05
  -1   1  -4   45.08    1.13
   4  -1   5    0.08    0.17
   4  -1   5    0.10    0.24
   4  -1   5    0.27    0.14
   4  -1   5    0.32    0.23
   4  -1   5    0.14    0.25
  -4   1  -5    0.07    0.39
  -4   1  -5   -0.02    0.21
  -4   1  -5    0.04    0.18
  -4   1  -5    0.37    0.28
  -4   1  -5    0.10    0.19
   7  -1   6    1.09    0.33
   7  -1   6    0.87    0.32
   7  -1   6    0.73    0.24
   7  -1   6    1.01    0.47
   7  -1   6    0.47    0.26
  -7   1  -6   -0.09    0.30
  -7   1  -6   -0.24    0.32
  -7   1  -6    0.19    0.24
  -7   1  -6    1.37    0.48
  -7  -2   1    0.10    0.46
  -7  -2   1    0.34    0.30
  -7  -2   1    0.35    0.26
  -7  -2   1    0.36    0.26
   7   2  -1    0.02    0.28
   7   2  -1    0.81    0.66
   7   2  -1   -0.06    0.23
   7   2  -1   -0.30    0.16
  -4  -2   2   10.97    0.93
  -4  -2   2   11.68    0.56
  -4  -2   2   11.19    0.79
  -4  -2   2   11.22    0.85
  -4  -2   2   11.90    0.65
  -4  -2   2   12.26    0.76
  -4  -2   2   12.37    1.16
  -4  -2   2   11.90    0.70
  -4  -2   2   11.41    0.66
  -4  -2   2   11.75    0.89
  -4  -2   2   11.14    0.61
   4   2  -2   10.49    0.59
   4   2  -2   11.53    0.64
   4   2  -2   12.13    1.05
   4   2  -2   10.52    0.83
   4   2  -2   12.38    0.71
   4   2  -2   12.21    0.80
   4   2  -2   11.47    0.56
  -1  -2   3  158.96    2.92
  -1  -2   3  159.97    2.85
  -1  -2   3  155.28    3.33
  -1  -2   3  161.87    2.68
  -1  -2   3  158.96    3.18
  -1  -2   3  164.76    2.89
   1   2  -3  161.44    3.43
   1   2  -3  158.93    2.85
   1   2  -3  159.81    2.67
   2  -2   4   16.45    0.57
   2  -2   4   16.18    0.76
   2  -2   4   16.92    0.70
   2  -2   4   16.16    0.87
  -2   2  -4   16.80    0.80
  -2   2  -4   16.32    0.55
  -2   2  -4   16.89    0.73
  -2   2  -4   15.85    0.53
   5  -2   5    1.72    0.31
   5  -2   5    3.34    0.41
   5  -2   5    2.52    0.49
   5  -2   5    2.83    0.44
   5  -2   5    1.54    0.34
  -5   2  -5    3.22    0.44
  -5   2  -5    3.71    0.61
  -5   2  -5    2.03    0.36
  -5   2  -5    4.76    0.94
  -5   2  -5    3.07    0.56
  -5   2  -5    2.31    0.48
  -6  -3   1    4.77    1.22
  -6  -3   1    2.09    0.43
  -6  -3   1    2.05    0.96
  -6  -3   1    1.29    0.30
  -6  -3   1    1.93    0.42
  -6  -3   1    1.03    0.35
  -6  -3   1    1.90    0.46
  -6  -3   1    1.51    0.36
   6   3  -1    1.43    0.35
   6   3  -1    1.80    0.68
   6   3  -1    1.59    0.39
   6   3  -1    1.60    0.39
  -3  -3   2    0.30    0.68
  -3  -3   2    0.48    0.16
  -3  -3   2    0.39    0.16
  -3  -3   2    0.30    0.16
  -3  -3   2    0.56    0.19
  -3  -3   2    0.97    0.42
  -3  -3   2    0.38    0.20
  -3  -3   2    0.62    0.43
  -3  -3   2    0.77    0.32
   3   3  -2    0.36    0.40
   3   3  -2    0.60    0.19
   3   3  -2    0.29    0.21
   3   3  -2    0.36    0.29
   3   3  -2    0.62    0.16
   3   3  -2    0.87    0.40
   0  -3   3   60.04    1.32
   0  -3   3   63.52    1.43
   0  -3   3   59.16    1.60
   0  -3   3   62.55    1.42
   0  -3   3   58.62    1.41
   0   3  -3   63.42    1.36
   0   3  -3   61.95    1.47
   0   3  -3   60.41    1.61
   0   3  -3   60.49    1.40
   0   3  -3   63.49    1.42
   3  -3   4    6.92    0.60
   3  -3   4    7.49    0.40
   3  -3   4    7.50    0.62
   3  -3   4    7.50    0.58
  -3   3  -4    7.41    0.49
  -3   3  -4    7.87    0.61
  -3   3  -4    8.01    0.66
  -3   3  -4    7.28    0.39
  -3   3  -4    7.81    0.68
   6  -3   5    2.48    0.48
   6  -3   5    3.30    0.41
   6  -3   5    3.72    0.62
   6  -3   5    3.71    0.50
   6  -3   5    2.68    0.40
  -6   3  -5    4.30    0.61
  -6   3  -5    3.51    0.49
  -6   3  -5    4.56    0.66
  -6   3  -5    2.38    0.49
  -6   3  -5    2.20    0.40
  -5  -4   1    3.72    0.38
  -5  -4   1    4.58    0.64
  -5  -4   1    6.30    1.22
  -5  -4   1    3.29    0.43
  -5  -4   1    3.64    0.51
  -5  -4   1    5.05    0.89
  -5  -4   1    5.63    0.97
  -5  -4   1    3.61    0.57
  -5  -4   1    3.65    0.45
  -5  -4   1    3.38    0.46
   5   4  -1    4.21    0.63
   5   4  -1    4.22    0.83
   5   4  -1    3.41    0.50
   5   4  -1    4.97    0.98
  -2  -4   2    5.64    0.42
  -2  -4   2    5.35    0.64
  -2  -4   2    5.92    0.43
  -2  -4   2    4.75    0.46
  -2  -4   2    5.48    0.81
  -2  -4   2    5.75    0.56
   2   4  -2    6.36    0.49
   2   4  -2    5.98    0.57
   2   4  -2    5.15    0.43
   2   4  -2    6.12    0.73
   2   4  -2    5.58    0.40
   2   4  -2    5.71    0.41
   1  -4   3    1.84    0.28
   1  -4   3    2.58    0.41
   1  -4   3    1.15    0.25
   1  -4   3    2.96    0.57
  -1   4  -3    2.65    0.37
  -1   4  -3    1.52    0.30
  -1   4  -3    2.72    0.54
  -1   4  -3    1.82    0.32
   4  -4   4   12.82    0.81
   4  -4   4   13.46    0.53
   4  -4   4   15.10    0.96
   4  -4   4   14.58    0.93
  -4   4  -4   12.95    0.91
  -4   4  -4   14.53    0.60
  -4   4  -4   13.97    0.93
  -4   4  -4   13.83    0.88
  -4   4  -4   14.63    0.90
  -4   4  -4   13.21    0.75
   7  -4   5    4.53    0.83
   7  -4   5    3.95    0.43
   7  -4   5    4.08    0.50
   7  -4   5    3.23    0.58
   7  -4   5    3.06    0.54
  -7   4  -5    3.13    0.67
  -7   4  -5    5.08    0.88
  -7   4  -5    3.71    0.56
  -7  -5   0    0.22    0.26
  -7  -5   0    0.12    0.25
  -7  -5   0    0.27    0.31
  -7  -5   0    1.01    0.44
  -7  -5   0    0.46    0.27
  -7  -5   0    0.38    0.35
   7   5   0    0.23    0.34
   7   5   0    0.49    0.52
  -4  -5   1    0.55    0.59
  -4  -5   1    0.78    0.50
  -4  -5   1    0.07    0.21
  -4  -5   1    1.11    0.85
  -4  -5   1    0.37    0.21
  -4  -5   1    1.08    0.59
  -4  -5   1    0.47    0.23
  -4  -5   1   -0.04    0.16
  -4  -5   1    0.42    0.30
  -4  -5   1    0.42    0.24
   4   5  -1    0.74    0.56
   4   5  -1    0.73    0.27
   4   5  -1    0.40    0.37
   4   5  -1    0.48    0.36
  -1  -5   2    0.65    0.37
  -1  -5   2   -0.10    0.32
  -1  -5   2    0.39    0.21
  -1  -5   2    0.53    0.25
  -1  -5   2    0.34    0.20
   1   5  -2    0.52    0.20
   1   5  -2    1.05    0.58
   1   5  -2    0.36    0.23
   1   5  -2    0.27    0.40
   1   5  -2    0.35    0.15
   1   5  -2    0.50    0.36
   2  -5   3   15.55    0.80
   2  -5   3   14.47    0.80
   2  -5   3   14.12    0.83
   2  -5   3   14.87    0.69
  -2   5  -3   14.73    0.83
  -2   5  -3   14.33    0.77
  -2   5  -3   14.32    0.68
  -2   5  -3   14.65    0.84
   5  -5   4    0.16    0.45
   5  -5   4   -0.45    0.16
   5  -5   4    0.02    0.31
  -5   5  -4    0.23    0.29
  -5   5  -4    0.09    0.22
  -5   5  -4    0.34    0.45
  -5   5  -4    0.07    0.28
  -5   5  -4    0.51    0.49
  -6  -6   0   -0.09    0.20
  -6  -6   0    0.22    0.23
  -6  -6   0    0.51    0.30
  -6  -6   0    1.03    0.49
  -6  -6   0    0.41    0.91
  -6  -6   0    0.41    0.26
  -6  -6   0    0.09    0.22
  -6  -6   0    0.23    0.26
   6   6   0    0.61    0.37
   6   6   0    0.52    0.32
  -3  -6   1    1.61    0.35
  -3  -6   1    2.36    0.49
  -3  -6   1    1.49    0.32
  -3  -6   1    3.53    1.00
  -3  -6   1    3.04    0.75
  -3  -6   1    1.76    0.33
  -3  -6   1    3.22    1.03
  -3  -6   1    1.31    0.33
  -3  -6   1    2.37    0.39
  -3  -6   1    3.30    0.64
   3   6  -1    2.06    0.57
   3   6  -1    2.70    0.68
   3   6  -1    1.94    0.68
   3   6  -1    3.20    0.57
   3   6  -1    2.20    0.34
   3   6  -1    2.32    0.35
   0  -6   2    0.44    0.21
   0  -6   2    0.45    0.52
   0  -6   2    0.86    0.32
   0  -6   2    0.40    0.22
   0   6  -2    0.39    0.12
   0   6  -2    0.71    0.27
   0   6  -2    0.44    0.42
   0   6  -2    0.57    0.25
   0   6  -2    0.65    0.36
   3  -6   3   14.65    0.71
   3  -6   3   14.79    0.87
   3  -6   3   15.08    0.94
   3  -6   3   14.01    0.88
  -3   6  -3   13.52    0.92
  -3   6  -3   14.03    0.89
  -3   6  -3   14.18    0.93
  -3   6  -3   15.43    0.84
   6  -6   4    3.20    0.42
   6  -6   4    4.39    0.78
   6  -6   4    2.01    0.46
   6  -6   4    4.16    0.47
  -6   6  -4    3.12    0.66
  -6   6  -4    4.01    0.61
  -6   6  -4    3.77    0.71
  -5  -7   0    3.02    0.46
  -5  -7   0    2.59    0.51
  -5  -7   0    4.20    0.89
  -5  -7   0    3.43    0.96
  -5  -7   0    2.13    0.40
  -5  -7   0    2.10    0.44
  -5  -7   0    2.41    0.52
  -5  -7   0    3.74    0.74
   5   7   0    4.05    1.32
   5   7   0    2.94    0.65
   5   7   0    4.09    0.86
  -2  -7   1   10.45    0.71
  -2  -7   1   11.20    0.69
  -2  -7   1   11.53    0.77
  -2  -7   1   10.54    0.71
  -2  -7   1   11.98    1.07
   2   7  -1   11.11    0.88
   2   7  -1   10.86    0.97
   2   7  -1   10.62    0.84
   2   7  -1   10.47    0.66
   2   7  -1   10.38    0.59
   2   7  -1   10.70    1.03
   1  -7   2    0.38    0.22
   1  -7   2   -0.05    0.21
   1  -7   2    0.21    0.19
   1  -7   2    0.19    0.27
  -1   7  -2    0.32    0.32
  -1   7  -2    0.48    0.39
  -1   7  -2    0.49    0.47
  -1   7  -2    0.49    0.29
   4  -7   3    1.34    0.35
   4  -7   3    2.71    0.59
   4  -7   3    2.43    0.48
   4  -7   3    1.60    0.38
  -4   7  -3    4.25    0.94
  -4   7  -3    1.99    0.48
  -4   7  -3    1.50    0.40
  -4   7  -3    3.15    0.72
  -4  -8   0    1.26    0.59
  -4  -8   0   -0.09    0.21
  -4  -8   0   -0.24    0.30
  -4  -8   0    0.31    0.26
  -4  -8   0   -0.50    0.53
  -4  -8   0    0.23    0.24
  -4  -8   0    0.06    0.22
  -4  -8   0    0.35    0.23
   4   8   0    0.60    0.45
   4   8   0   -0.18    0.17
   4   8   0    0.29    0.44
  -1  -8   1   13.21    0.86
  -1  -8   1   12.53    0.66
  -1  -8   1   11.83    0.81
  -1  -8   1   12.04    1.16
   1   8  -1   11.84    0.77
   1   8  -1   12.02    1.07
   1   8  -1   12.56    1.19
   1   8  -1   14.03    0.95
   2  -8   2   -0.13    0.19
   2  -8   2    0.11    0.18
   2  -8   2    0.01    0.19
   2  -8   2    0.16    0.26
  -2   8  -2    0.43    0.31
  -2   8  -2    0.15    0.31
  -2   8  -2    0.54    0.43
   5  -8   3    0.52    0.34
   5  -8   3    0.09    0.20
   5  -8   3    0.69    0.42
  -5   8  -3    0.94    0.59
  -5   8  -3    0.70    0.53
  -5   8  -3    0.06    0.34
  -3  -9   0    0.04    0.32
  -3  -9   0    0.15    0.24
  -3  -9   0    0.58    0.29
  -3  -9   0    0.84    0.38
  -3  -9   0    0.55    0.35
   3   9   0    0.67    0.51
   3   9   0    0.52    0.48
   3   9   0    0.75    0.47
   3   9   0    0.99    0.51
   3   9   0    0.44    0.26
   0  -9   1   -0.28    0.65
   0  -9   1   -0.10    0.18
   0  -9   1    0.18    0.24
   0  -9   1   -0.05    0.20
   0  -9   1   -0.14    0.26
   0   9  -1   -0.12    0.58
   0   9  -1   -0.08    0.19
   0   9  -1   -0.09    0.29
   0   9  -1    0.81    0.51
   3  -9   2    1.35    0.41
   3  -9   2    0.75    0.29
   3  -9   2    1.14    0.40
   3  -9   2    1.11    0.31
  -3   9  -2    1.09    0.37
  -3   9  -2    2.24    0.71
  -3   9  -2    0.33    0.32
  -5 -10  -1   -1.04    0.70
  -5 -10  -1    0.24    0.28
  -5 -10  -1    0.84    0.38
  -5 -10  -1    0.96    0.38
  -5 -10  -1    0.59    0.37
  -5 -10  -1    0.43    0.24
   5  10   1    1.67    0.64
   5  10   1    1.36    0.67
  -2 -10   0    3.05    0.57
  -2 -10   0    5.00    1.33
  -2 -10   0    2.16    0.46
   2  10   0    3.73    0.95
   2  10   0    4.54    0.82
   2  10   0    3.08    0.92
   2  10   0    4.18    1.05
   1 -10   1    0.27    0.35
   1 -10   1   -0.14    0.19
   1 -10   1   -0.03    0.20
  -1  10  -1    0.04    0.26
  -1  10  -1    0.08    0.34
  -1  10  -1    0.32    0.50
   4 -10   2    0.25    0.35
   4 -10   2    0.38    0.25
   4 -10   2   -0.43    0.26
  -4  10  -2    0.81    0.58
  -4  10  -2   -0.19    0.32
  -4 -11  -1    0.70    0.40
  -4 -11  -1    0.93    0.42
  -4 -11  -1    1.23    0.46
   4  11   1    0.54    0.52
   4  11   1    1.53    0.60
   4  11   1    0.69    0.56
   4  11   1    1.68    0.73
  -1 -11   0    3.55    1.68
  -1 -11   0    2.87    0.57
  -1 -11   0    2.62    0.61
  -1 -11   0    1.40    0.50
  -1 -11   0    1.41    0.42
   1  11   0    3.27    0.85
   1  11   0    3.58    0.82
   1  11   0    1.96    0.52
   1  11   0    3.18    0.95
   1  11   0    3.36    0.90
   2 -11   1    1.35    0.39
   2 -11   1    1.42    0.34
   2 -11   1    2.43    0.55
   2 -11   1    1.76    0.38
  -2  11  -1    2.41    0.83
  -2  11  -1    2.18    0.68
  -2  11  -1    1.59    0.47
  -3 -12  -1    0.19    0.41
  -3 -12  -1    0.01    0.35
   3  12   1    1.09    0.57
   3  12   1    0.56    0.73
   0 -12   0   -0.62    0.34
   0 -12   0    0.32    0.43
   0 -12   0   -0.13    0.23
   0  12   0    0.27    0.56
   0  12   0    0.21    0.40
   0  12   0   -0.11    0.61
  -2  13   8    0.19    0.29
  -2  13   8   -0.80    0.62
   2 -13  -8    0.85    0.46
   2 -13  -8    0.03    0.40
   2 -13  -8    0.95    0.47
   1  13   9    0.17    0.30
   1  13   9    0.83    0.77
   1  13   9    0.57    0.71
  -1 -13  -9   -0.04    0.39
  -1 -13  -9   -0.26    0.23
  -1  12   8    1.89    0.45
  -1  12   8    3.40    1.04
   1 -12  -8    0.74    0.52
   1 -12  -8    0.76    0.45
   1 -12  -8    2.43    0.84
   1 -12  -8    0.47    0.42
   2  12   9    0.16    0.50
   2  12   9    0.30    0.56
   2  12   9    0.40    0.31
  -2 -12  -9   -0.48    0.28
  -2 -12  -9    0.21    0.30
  -2 -12  -9   -0.05    0.25
  -3  11   7   -0.11    0.24
  -3  11   7   -0.01    0.30
  -3  11   7   -0.47    0.19
   3 -11  -7   -0.04    0.27
   3 -11  -7   -0.41    0.46
   3 -11  -7   -0.47    0.27
   3 -11  -7    0.63    0.46
   3 -11  -7   -0.61    0.31
   0  11   8   15.70    0.98
   0  11   8   14.95    0.71
   0  11   8   14.57    1.33
   0 -11  -8   15.89    1.04
   0 -11  -8   16.91    1.02
   0 -11  -8   15.10    0.99
   3  11   9   -0.28    0.22
   3  11   9    0.11    0.33
   3  11   9    0.43    0.50
   3  11   9   -0.26    0.43
  -3 -11  -9    0.05    0.19
  -3 -11  -9    0.00    0.29
  -3 -11  -9   -0.29    0.26
  -5  10   6   -0.58    0.29
  -5  10   6   -0.22    0.26
   5 -10  -6    0.68    0.57
   5 -10  -6   -0.08    0.32
   5 -10  -6   -0.31    0.26
  -2  10   7    0.44    0.29
  -2  10   7    0.12    0.18
  -2  10   7    0.57    0.29
   2 -10  -7   -0.08    0.27
   2 -10  -7   -0.39    0.18
   2 -10  -7    0.08    0.47
   2 -10  -7   -0.65    0.25
   1  10   8    0.33    0.35
   1  10   8    0.05    0.30
   1  10   8    0.37    0.24
   1  10   8    1.16    0.68
  -1 -10  -8    0.53    0.35
  -1 -10  -8    0.02    0.33
  -1 -10  -8    0.42    0.30
   4  10   9    0.14    0.44
   4  10   9    1.19    0.77
   4  10   9    0.73    0.39
   4  10   9    1.48    0.50
  -4 -10  -9    0.97    0.38
  -4 -10  -9    4.33    1.58
  -4   9   6   -0.19    0.23
  -4   9   6    0.04    0.23
  -4   9   6    0.36    0.32
   4  -9  -6   -0.21    0.25
   4  -9  -6   -0.28    0.20
   4  -9  -6    0.71    0.52
   4  -9  -6   -0.07    0.22
  -1   9   7    2.39    0.38
  -1   9   7    3.28    0.36
  -1   9   7    2.70    0.30
  -1   9   7    3.47    0.34
  -1   9   7    5.42    1.24
  -1   9   7    4.05    0.55
   1  -9  -7    3.25    0.52
   1  -9  -7    2.02    0.36
   1  -9  -7    3.70    0.58
   2   9   8    3.66    0.51
   2   9   8    4.88    0.85
   2   9   8    4.28    0.57
   2   9   8    4.35    0.73
  -2  -9  -8    5.06    0.63
  -2  -9  -8    4.26    0.44
  -2  -9  -8    4.66    0.62
  -2  -9  -8    4.31    0.53
   5   9   9    0.48    0.33
   5   9   9    0.13    0.42
   5   9   9    0.70    0.44
   5   9   9    0.71    0.48
  -5  -9  -9   -0.21    0.22
  -5  -9  -9   -0.36    0.43
  -5  -9  -9   -0.12    0.26
  -5  -9  -9    2.73    0.89
  -6   8   5    0.14    0.34
  -6   8   5    1.46    0.48
  -6   8   5    0.01    0.35
  -6   8   5    0.42    0.33
   6  -8  -5    0.36    0.35
   6  -8  -5    0.61    0.31
   6  -8  -5    0.89    0.56
   6  -8  -5    0.53    0.25
  -3   8   6    0.19    0.21
  -3   8   6    0.36    0.25
  -3   8   6    0.89    0.31
   3  -8  -6    1.04    0.33
   3  -8  -6    0.73    0.50
   3  -8  -6    0.94    0.29
   3  -8  -6    0.59    0.26
   0   8   7    7.57    0.90
   0   8   7    7.46    0.62
   0   8   7    8.04    0.52
   0   8   7    7.22    0.41
   0   8   7    7.66    0.63
   0  -8  -7    7.06    0.64
   0  -8  -7    7.83    0.66
   0  -8  -7    7.58    0.59
   3   8   8    1.51    0.50
   3   8   8    2.98    0.56
   3   8   8    3.00    0.77
   3   8   8    1.29    0.36
  -3  -8  -8    1.87    0.43
  -3  -8  -8    2.31    0.51
  -3  -8  -8    1.44    0.18
  -3  -8  -8    1.65    0.33
  -5   7   5    0.75    0.35
  -5   7   5    0.56    0.30
  -5   7   5    0.31    0.26
  -5   7   5    0.04    0.37
   5  -7  -5    0.62    0.51
   5  -7  -5    1.47    0.40
   5  -7  -5    0.58    0.29
   5  -7  -5    0.53    0.30
  -2   7   6    2.33    0.39
  -2   7   6    3.25    0.53
  -2   7   6    3.46    0.38
   2  -7  -6    2.92    0.38
   2  -7  -6    2.56    0.36
   2  -7  -6    3.64    0.44
   2  -7  -6    3.06    0.41
   1   7   7   17.71    1.12
   1   7   7   16.41    0.78
   1   7   7   17.02    0.89
  -1  -7  -7   17.13    0.91
  -1  -7  -7   17.88    0.68
  -1  -7  -7   17.29    0.87
   4   7   8   -0.02    0.24
   4   7   8    0.43    0.40
   4   7   8    0.03    0.29
   4   7   8   -0.31    0.26
  -4  -7  -8   -0.33    0.23
  -4  -7  -8    0.28    0.36
  -4  -7  -8   -0.40    0.29
  -4  -7  -8    1.70    0.63
  -4  -7  -8    0.31    0.25
  -4  -7  -8    0.36    0.54
  -4  -7  -8   -0.04    0.25
  -4  -7  -8    0.08    0.20
  -7   6   4    4.46    1.01
  -7   6   4    1.39    0.49
  -7   6   4    1.74    0.49
   7  -6  -4    2.47    0.55
   7  -6  -4    1.59    0.43
   7  -6  -4    1.02    0.38
   7  -6  -4    4.58    1.18
  -4   6   5    0.84    0.29
  -4   6   5    1.12    0.27
  -4   6   5    0.97    0.30
  -4   6   5    2.67    0.93
  -4   6   5    2.27    0.47
   4  -6  -5    1.34    0.30
   4  -6  -5    1.81    0.59
   4  -6  -5    1.39    0.33
   4  -6  -5    0.62    0.24
  -1   6   6    3.30    0.68
  -1   6   6    3.03    0.30
  -1   6   6    2.33    0.30
   1  -6  -6    2.21    0.32
   1  -6  -6    2.16    0.29
   1  -6  -6    2.92    0.41
   1  -6  -6    2.35    0.60
   2   6   7    7.24    0.71
   2   6   7    7.67    0.59
   2   6   7    7.28    0.45
   2   6   7    6.67    0.61
   2   6   7    6.82    0.71
  -2  -6  -7    7.32    0.50
  -2  -6  -7    6.75    0.51
  -2  -6  -7    7.27    0.61
  -2  -6  -7    8.00    0.59
  -2  -6  -7    7.31    0.61
  -2  -6  -7    7.07    0.63
   5   6   8   12.61    0.89
   5   6   8   12.09    0.99
   5   6   8   12.38    0.91
  -5  -6  -8   13.03    0.96
  -5  -6  -8   13.07    0.74
  -5  -6  -8   12.67    0.93
  -5  -6  -8   13.64    1.76
  -5  -6  -8   12.74    0.88
  -6   5   4   -0.03    0.24
  -6   5   4    0.28    0.27
  -6   5   4    0.36    0.41
   6  -5  -4   -0.26    0.21
   6  -5  -4    0.17    0.25
   6  -5  -4    0.28    0.33
   6  -5  -4    0.14    0.43
   6  -5  -4    0.21    0.22
  -3   5   5    9.17    0.39
  -3   5   5   10.07    0.87
  -3   5   5    9.34    0.51
  -3   5   5    9.44    0.50
  -3   5   5   10.37    0.75
   3  -5  -5    9.31    0.51
   3  -5  -5   10.18    0.62
   3  -5  -5    9.78    0.69
   3  -5  -5    9.67    0.83
   0   5   6    2.72    0.34
   0   5   6    1.91    0.28
   0   5   6    2.29    0.39
   0   5   6    1.82    0.26
   0  -5  -6    2.22    0.37
   0  -5  -6    1.70    0.21
   0  -5  -6    2.12    0.29
   0  -5  -6    1.90    0.30
   3   5   7   16.37    0.91
   3   5   7   16.48    0.88
   3   5   7   17.10    0.75
   3   5   7   17.17    0.87
   3   5   7   16.90    0.97
  -3  -5  -7   16.28    0.89
  -3  -5  -7   16.99    0.95
  -3  -5  -7   16.28    0.84
  -3  -5  -7   15.68    0.89
  -3  -5  -7   16.14    0.81
   6   5   8    1.05    0.43
  -6  -5  -8    0.72    0.69
  -6  -5  -8    2.37    0.70
  -5   4   4    1.44    0.46
  -5   4   4    0.36    0.22
  -5   4   4    0.51    0.16
  -5   4   4    0.46    0.26
  -5   4   4    2.26    1.15
   5  -4  -4    0.06    0.19
   5  -4  -4    0.72    0.25
   5  -4  -4    0.49    0.31
   5  -4  -4    1.29    0.62
   5  -4  -4    0.48    0.24
  -2   4   5    2.07    0.53
  -2   4   5    2.03    0.26
  -2   4   5    1.74    0.26
   2  -4  -5    1.49    0.28
   2  -4  -5    1.65    0.25
   2  -4  -5    1.27    0.25
   1   4   6   11.62    0.63
   1   4   6   12.49    0.57
   1   4   6   12.07    0.37
  -1  -4  -6   11.72    0.37
  -1  -4  -6   12.64    0.61
  -1  -4  -6   11.86    0.54
  -1  -4  -6   11.09    0.63
  -1  -4  -6   11.31    0.48
  -1  -4  -6   12.13    0.62
  -1  -4  -6   12.37    0.60
   4   4   7    4.59    0.75
   4   4   7    4.35    0.62
   4   4   7    3.09    0.56
   4   4   7    2.25    0.37
   4   4   7    2.40    0.44
   4   4   7    3.13    0.49
  -4  -4  -7    3.47    0.38
  -4  -4  -7    4.59    0.69
  -4  -4  -7    2.46    0.39
  -4  -4  -7    2.87    0.44
  -4  -4  -7    3.68    0.54
  -4  -4  -7    5.15    0.75
  -4  -4  -7    2.83    0.54
   7   4   8    3.42    0.62
   7   4   8    1.65    0.45
   7   4   8    1.21    0.40
   7   4   8    2.40    0.62
  -7  -4  -8    3.08    0.85
  -7  -4  -8    2.02    1.07
  -7  -4  -8    2.49    0.54
  -7   3   3    0.14    0.27
  -7   3   3    0.79    0.63
  -7   3   3    0.19    0.30
   7  -3  -3    0.60    0.22
   7  -3  -3    0.11    0.27
   7  -3  -3    0.76    0.57
   7  -3  -3    0.16    0.21
   7  -3  -3    0.37    0.25
  -4   3   4    2.04    0.44
  -4   3   4    1.13    0.21
  -4   3   4    1.63    0.71
  -4   3   4    0.99    0.25
  -4   3   4    0.70    0.25
   4  -3  -4    1.03    0.29
   4  -3  -4    0.71    0.20
   4  -3  -4    0.73    0.23
   4  -3  -4    1.08    0.53
  -1   3   5   -0.08    0.26
  -1   3   5    0.05    0.15
  -1   3   5   -0.13    0.16
  -1   3   5   -0.07    0.10
   1  -3  -5    0.05    0.14
   1  -3  -5    0.17    0.16
   1  -3  -5   -0.16    0.10
   2   3   6   11.32    0.65
   2   3   6   12.16    0.67
   2   3   6   12.05    0.60
   2   3   6   12.34    0.62
   2   3   6   12.57    0.58
   2   3   6   12.85    0.66
  -2  -3  -6   11.88    0.65
  -2  -3  -6   12.54    0.66
  -2  -3  -6   11.98    0.57
  -2  -3  -6   12.56    0.56
   5   3   7    1.01    0.29
   5   3   7    2.46    0.47
   5   3   7    0.77    0.29
   5   3   7    1.60    0.44
   5   3   7    0.55    0.32
  -5  -3  -7    2.15    0.55
  -5  -3  -7    0.98    0.31
  -5  -3  -7    1.65    0.58
  -5  -3  -7    0.85    0.53
  -5  -3  -7    1.13    0.32
  -5  -3  -7    0.89    0.17
  -5  -3  -7    0.82    0.19
  -6   2   3    1.16    0.53
  -6   2   3    0.88    0.37
  -6   2   3    0.79    0.32
  -6   2   3    1.34    0.30
   6  -2  -3    0.55    0.20
   6  -2  -3    0.21    0.23
   6  -2  -3    1.28    0.37
   6  -2  -3    2.11    0.72
   6  -2  -3    0.87    0.35
   6  -2  -3    0.61    0.27
  -3   2   4    0.21    0.16
  -3   2   4    0.21    0.22
  -3   2   4    0.30    0.39
  -3   2   4    0.66    0.21
   3  -2  -4    0.11    0.14
   3  -2  -4    0.12    0.37
   3  -2  -4    0.38    0.17
   0   2   5    0.14    0.09
   0   2   5    0.03    0.17
   0   2   5    0.00    0.13
   0  -2  -5    0.14    0.09
   0  -2  -5    0.43    0.16
   0  -2  -5    0.18    0.08
   0  -2  -5    0.34    0.15
   0  -2  -5    0.24    0.26
   3   2   6   18.83    0.84
   3   2   6   17.98    0.82
   3   2   6   19.20    0.82
   3   2   6   19.26    0.88
   3   2   6   17.49    0.77
   3   2   6   18.48    0.84
  -3  -2  -6   18.27    0.62
  -3  -2  -6   18.22    0.86
  -3  -2  -6   19.07    1.05
   6   2   7   -0.32    0.18
   6   2   7   -0.06    0.32
   6   2   7   -0.07    0.13
   6   2   7    0.16    0.25
   6   2   7   -0.34    0.20
  -6  -2  -7    0.16    0.32
  -6  -2  -7   -0.15    0.30
  -6  -2  -7   -0.12    0.43
  -6  -2  -7   -0.21    0.20
  -5   1   3    1.13    0.30
  -5   1   3    3.27    1.00
  -5   1   3    2.36    0.27
  -5   1   3    3.03    0.62
  -5   1   3    2.12    0.77
  -5   1   3    1.73    0.31
  -5   1   3    1.36    0.28
   5  -1  -3    2.72    0.76
   5  -1  -3    1.19    0.24
   5  -1  -3    2.46    0.44
   5  -1  -3    2.09    0.31
   5  -1  -3    1.39    0.30
   5  -1  -3    2.44    0.40
  -2   1   4    0.48    0.23
  -2   1   4   -0.07    0.14
  -2   1   4    0.10    0.12
  -2   1   4    0.46    0.41
   2  -1  -4    0.11    0.33
   2  -1  -4   -0.03    0.10
   2  -1  -4    0.59    0.35
   2  -1  -4    0.26    0.10
   2  -1  -4    0.22    0.15
   2  -1  -4    0.49    0.25
   1   1   5   15.49    0.48
   1   1   5   16.02    0.68
   1   1   5   16.42    0.59
   1   1   5   15.40    0.59
  -1  -1  -5   15.36    0.69
  -1  -1  -5   14.96    0.56
  -1  -1  -5   15.23    0.58
   4   1   6    0.13    0.24
   4   1   6    0.07    0.17
   4   1   6   -0.21    0.21
   4   1   6    0.14    0.23
   4   1   6   -0.02    0.10
   4   1   6   -0.31    0.17
  -4  -1  -6    0.27    0.14
  -4  -1  -6    0.28    0.24
  -4  -1  -6    0.13    0.29
  -4  -1  -6    0.07    0.22
  -4  -1  -6   -0.21    0.32
  -4  -1  -6    0.02    0.10
  -4  -1  -6   -0.12    0.15
   7   1   7    0.09    0.16
   7   1   7    1.00    0.34
   7   1   7    0.14    0.25
   7   1   7    0.40    0.26
   7   1   7    0.53    0.43
  -7  -1  -7   -0.13    0.20
  -7  -1  -7    0.76    0.38
  -7  -1  -7    0.56    0.53
  -7  -1  -7    0.01    0.31
  -7   0   2    0.81    0.44
  -7   0   2    0.44    0.20
  -7   0   2   -0.07    0.20
  -7   0   2    0.22    0.19
  -7   0   2   -0.14    0.20
  -7   0   2    0.41    0.31
   7   0  -2    0.27    0.30
   7   0  -2    0.22    0.25
   7   0  -2    0.57    0.31
   7   0  -2    0.84    0.55
  -4   0   3    4.98    0.43
  -4   0   3    4.27    0.52
  -4   0   3    4.97    0.67
  -4   0   3    5.03    0.54
  -4   0   3    7.53    1.14
  -4   0   3    6.31    0.59
   4   0  -3    4.98    0.39
   4   0  -3    5.88    0.55
   4   0  -3    5.17    0.51
   4   0  -3    5.44    0.43
   4   0  -3    5.01    0.45
   4   0  -3    5.43    0.66
  -1   0   4    0.79    0.43
  -1   0   4    0.26    0.12
  -1   0   4    0.40    0.16
   1   0  -4    0.36    0.13
   1   0  -4    0.60    0.19
   1   0  -4    0.50    0.35
   2   0   5   40.04    1.03
   2   0   5   39.30    1.21
   2   0   5   39.45    0.92
   2   0   5   37.92    0.92
   2   0   5   39.35    1.14
  -2   0  -5   38.53    1.13
  -2   0  -5   38.07    0.91
  -2   0  -5   38.68    1.43
   5   0   6    1.60    0.40
   5   0   6    2.78    0.44
   5   0   6    1.91    0.49
   5   0   6    1.61    0.25
   5   0   6    1.78    0.38
   5   0   6    1.51    0.33
  -5   0  -6    1.43    0.26
  -5   0  -6    1.75    0.45
  -5   0  -6    1.20    0.58
  -5   0  -6    2.54    0.56
  -5   0  -6    2.67    0.71
  -5   0  -6    2.24    0.39
  -5   0  -6    1.79    0.40
  -6  -1   2    1.30    0.30
  -6  -1   2    1.42    0.42
  -6  -1   2    1.46    0.37
  -6  -1   2    1.19    0.31
  -6  -1   2    3.39    1.07
  -6  -1   2    1.88    0.36
  -6  -1   2    2.63    0.60
  -6  -1   2    2.24    0.82
   6   1  -2    2.39    0.76
   6   1  -2    1.46    0.30
   6   1  -2    1.63    0.37
   6   1  -2    1.31    0.29
   6   1  -2    1.55    0.38
  -3  -1   3   13.69    1.04
  -3  -1   3   12.17    0.70
  -3  -1   3   12.99    0.71
   3   1  -3   12.91    0.82
   3   1  -3   13.12    0.66
   3   1  -3   11.63    0.59
   3   1  -3   11.85    0.44
   3   1  -3   13.01    0.72
   3   1  -3   12.16    0.55
   3   1  -3   13.45    0.99
   0  -1   4    0.32    0.26
   0  -1   4    0.01    0.11
   0  -1   4    0.18    0.14
   0  -1   4    0.13    0.16
   0   1  -4    0.08    0.17
   0   1  -4   -0.04    0.13
   0   1  -4    0.13    0.14
   3  -1   5    0.24    0.12
   3  -1   5    0.13    0.13
   3  -1   5    0.17    0.22
  -3   1  -5    0.14    0.10
  -3   1  -5    0.07    0.21
  -3   1  -5    0.45    0.37
  -3   1  -5    0.43    0.22
  -3   1  -5    0.31    0.18
  -3   1  -5    0.18    0.21
   6  -1   6    0.45    0.29
   6  -1   6    0.41    0.34
   6  -1   6    0.77    0.22
   6  -1   6    1.24    0.35
   6  -1   6    1.05    0.45
   6  -1   6    1.28    0.35
  -6   1  -6    1.33    0.39
  -6   1  -6    1.54    0.35
  -6   1  -6    2.49    0.58
  -6   1  -6    1.07    0.31
  -6   1  -6    0.89    0.41
  -5  -2   2    0.84    0.25
  -5  -2   2    1.36    0.79
  -5  -2   2    0.74    0.27
  -5  -2   2    1.20    0.45
  -5  -2   2    0.63    0.25
  -5  -2   2    0.49    0.56
  -5  -2   2    0.80    0.30
  -5  -2   2    0.62    0.62
  -5  -2   2    0.88    0.39
  -5  -2   2    0.58    0.27
   5   2  -2    0.61    0.23
   5   2  -2    0.67    0.25
   5   2  -2    0.53    0.24
   5   2  -2    1.27    0.57
   5   2  -2    0.59    0.21
  -2  -2   3    2.42    0.25
  -2  -2   3    2.03    0.24
  -2  -2   3    2.27    0.38
  -2  -2   3    2.15    0.16
  -2  -2   3    3.44    0.68
  -2  -2   3    2.95    0.67
  -2  -2   3    3.37    0.60
   2   2  -3    1.93    0.29
   2   2  -3    2.34    0.30
   2   2  -3    3.24    0.68
   2   2  -3    2.45    0.23
   2   2  -3    2.84    0.46
   2   2  -3    3.22    0.53
   1  -2   4   56.95    1.31
   1  -2   4   57.09    1.28
   1  -2   4   57.50    1.44
   1  -2   4   56.39    1.38
   1  -2   4   55.60    1.31
  -1   2  -4   56.61    1.39
  -1   2  -4   55.80    1.31
  -1   2  -4   56.53    1.28
  -1   2  -4   58.82    1.47
   4  -2   5    6.41    0.53
   4  -2   5    5.80    0.64
   4  -2   5    6.35    0.62
  -4   2  -5    6.15    0.46
  -4   2  -5    6.30    0.61
  -4   2  -5    6.39    0.75
  -4   2  -5    6.03    0.71
  -4   2  -5    6.14    0.60
  -4   2  -5    6.59    0.48
   7  -2   6    0.28    0.26
   7  -2   6   -0.33    0.32
   7  -2   6    0.06    0.22
   7  -2   6   -0.16    0.18
   7  -2   6    0.46    0.30
  -7   2  -6   -0.41    0.39
  -7   2  -6    0.04    0.38
  -7   2  -6    0.11    0.26
  -7  -3   1    3.64    0.54
  -7  -3   1    2.16    0.47
  -7  -3   1    2.68    0.48
  -7  -3   1    1.75    0.43
  -7  -3   1    1.73    0.33
   7   3  -1    4.34    1.05
   7   3  -1    2.68    0.55
   7   3  -1    1.83    0.39
  -4  -3   2    3.29    0.80
  -4  -3   2    2.23    0.49
  -4  -3   2    3.80    1.02
  -4  -3   2    2.46    0.61
  -4  -3   2    4.17    1.01
  -4  -3   2    2.81    0.37
  -4  -3   2    1.99    0.36
  -4  -3   2    2.17    0.27
  -4  -3   2    2.73    0.46
  -4  -3   2    1.64    0.30
  -4  -3   2    2.99    0.64
  -4  -3   2    1.83    0.30
   4   3  -2    2.60    0.84
   4   3  -2    2.10    0.36
   4   3  -2    1.69    0.31
   4   3  -2    1.60    0.28
   4   3  -2    1.83    0.48
   4   3  -2    3.28    0.68
  -1  -3   3    7.77    0.61
  -1  -3   3    8.10    0.53
  -1  -3   3    9.56    0.58
  -1  -3   3    8.72    0.48
  -1  -3   3    8.08    0.64
   1   3  -3    8.01    0.45
   1   3  -3    8.34    0.50
   1   3  -3    8.55    0.48
   1   3  -3    7.22    1.20
   2  -3   4   25.92    0.96
   2  -3   4   25.55    0.96
   2  -3   4   25.63    1.00
   2  -3   4   25.44    0.96
   2  -3   4   27.02    0.80
  -2   3  -4   24.84    0.97
  -2   3  -4   26.77    1.05
  -2   3  -4   25.92    0.78
  -2   3  -4   25.93    0.84
  -2   3  -4   25.88    0.97
   5  -3   5   17.92    0.97
   5  -3   5   20.43    0.92
   5  -3   5   19.34    0.86
   5  -3   5   18.05    1.08
  -5   3  -5   19.02    1.23
  -5   3  -5   19.38    1.19
  -5   3  -5   17.63    1.19
  -5   3  -5   18.50    1.02
  -5   3  -5   18.52    0.90
  -5   3  -5   18.48    1.04
  -6  -4   1    0.26    0.25
  -6  -4   1   -0.09    0.20
  -6  -4   1    0.28    0.24
  -6  -4   1    0.44    0.23
  -6  -4   1   -0.03    0.45
  -6  -4   1   -0.08    0.60
  -6  -4   1    0.11    0.25
  -6  -4   1    0.47    0.34
  -6  -4   1    2.61    0.86
  -6  -4   1    3.58    1.25
   6   4  -1    0.04    0.25
   6   4  -1   -0.40    0.35
  -3  -4   2   26.19    0.80
  -3  -4   2   23.56    1.06
  -3  -4   2   25.36    1.48
  -3  -4   2   23.69    1.18
  -3  -4   2   23.79    1.31
  -3  -4   2   25.56    0.99
  -3  -4   2   24.78    0.78
  -3  -4   2   24.13    0.89
   3   4  -2   23.89    1.09
   3   4  -2   23.43    0.76
   3   4  -2   24.66    1.12
   3   4  -2   27.94    1.52
   3   4  -2   22.45    1.34
   3   4  -2   24.60    0.94
   0  -4   3    2.00    0.28
   0  -4   3    3.09    0.56
   0  -4   3    1.51    0.24
   0  -4   3    2.06    0.31
   0   4  -3    2.61    0.37
   0   4  -3    1.59    0.30
   0   4  -3    2.79    0.42
   0   4  -3    1.80    0.24
   3  -4   4    6.21    0.61
   3  -4   4    5.77    0.41
   3  -4   4    5.68    0.56
   3  -4   4    6.29    0.61
   3  -4   4    5.70    0.58
  -3   4  -4    6.19    0.59
  -3   4  -4    6.12    0.52
  -3   4  -4    6.84    0.71
  -3   4  -4    6.28    0.35
  -3   4  -4    6.08    0.59
   6  -4   5    3.49    0.67
   6  -4   5    4.33    0.49
   6  -4   5    4.66    0.49
   6  -4   5    2.78    0.45
  -6   4  -5    3.77    0.71
  -6   4  -5    2.81    0.53
  -6   4  -5    5.71    0.74
  -6   4  -5    3.44    0.49
  -5  -5   1    0.08    0.31
  -5  -5   1    2.56    1.27
  -5  -5   1    0.30    0.71
  -5  -5   1    0.05    0.23
  -5  -5   1   -0.14    0.54
  -5  -5   1    0.22    0.29
  -5  -5   1   -0.05    0.16
  -5  -5   1   -0.13    0.22
  -5  -5   1    0.19    0.20
  -5  -5   1    0.11    0.28
   5   5  -1    0.06    0.20
   5   5  -1    0.69    0.52
   5   5  -1   -0.16    0.31
   5   5  -1   -0.10    0.29
  -2  -5   2   27.82    0.95
  -2  -5   2   27.61    1.39
  -2  -5   2   26.78    1.18
  -2  -5   2   25.59    0.91
  -2  -5   2   27.62    1.06
  -2  -5   2   27.58    0.99
   2   5  -2   26.48    1.43
   2   5  -2   27.17    1.20
   2   5  -2   26.77    0.90
   2   5  -2   28.67    1.20
   2   5  -2   26.83    1.36
   2   5  -2   25.56    0.89
   2   5  -2   27.98    0.94
   1  -5   3    4.47    0.47
   1  -5   3    4.60    0.46
   1  -5   3    2.85    0.51
   1  -5   3    4.45    0.51
   1  -5   3    4.71    0.59
  -1   5  -3    4.34    0.54
  -1   5  -3    4.36    0.33
  -1   5  -3    4.71    0.59
  -1   5  -3    3.93    0.39
  -1   5  -3    4.34    0.55
   4  -5   4    0.92    0.27
   4  -5   4    1.09    0.33
   4  -5   4    1.81    0.49
   4  -5   4    1.34    0.23
  -4   5  -4    2.65    0.65
  -4   5  -4    1.15    0.38
  -4   5  -4    0.84    0.36
  -4  -6   1    0.34    0.51
  -4  -6   1   -0.36    0.80
  -4  -6   1    0.04    0.20
  -4  -6   1    0.38    0.56
  -4  -6   1    0.01    0.36
  -4  -6   1    0.29    0.24
  -4  -6   1   -0.14    0.13
  -4  -6   1    0.09    0.18
  -4  -6   1   -0.05    0.19
  -4  -6   1    0.48    0.27
  -4  -6   1    0.31    0.31
   4   6  -1    0.22    0.37
   4   6  -1    0.13    0.21
   4   6  -1    0.38    0.47
   4   6  -1    0.79    0.42
  -1  -6   2    0.56    0.28
  -1  -6   2    0.44    0.24
  -1  -6   2    1.31    0.65
  -1  -6   2    0.40    0.21
   1   6  -2    0.82    0.47
   1   6  -2    0.66    0.19
   1   6  -2    0.72    0.39
   1   6  -2    1.01    0.62
   1   6  -2    0.65    0.36
   2  -6   3    0.29    0.22
   2  -6   3    0.26    0.20
   2  -6   3    0.36    0.29
   2  -6   3    0.29    0.20
  -2   6  -3    0.31    0.30
  -2   6  -3    0.41    0.26
  -2   6  -3    0.74    0.32
  -2   6  -3    0.45    0.46
   5  -6   4   -0.06    0.15
   5  -6   4    0.05    0.31
   5  -6   4   -0.15    0.21
  -5   6  -4    0.15    0.39
  -5   6  -4    0.08    0.36
  -5   6  -4    0.34    0.35
  -5   6  -4    0.03    0.35
  -6  -7   0   -0.14    0.27
  -6  -7   0    0.06    0.23
  -6  -7   0    0.71    1.20
  -6  -7   0    0.36    0.23
  -6  -7   0    0.51    0.29
  -6  -7   0   -0.06    0.39
   6   7   0   -0.29    0.43
   6   7   0    0.36    0.29
  -3  -7   1    0.19    0.20
  -3  -7   1    0.42    0.24
  -3  -7   1    0.40    0.32
  -3  -7   1    0.60    0.28
  -3  -7   1    0.13    0.21
  -3  -7   1    0.59    0.28
  -3  -7   1    1.06    0.64
  -3  -7   1    0.34    0.29
  -3  -7   1    0.32    0.47
   3   7  -1   -0.03    0.17
   3   7  -1    0.41    0.42
   3   7  -1    0.31    0.37
   3   7  -1    0.32    0.22
   3   7  -1    0.00    0.50
   3   7  -1    0.28    0.47
   0  -7   2    1.52    0.73
   0  -7   2    0.49    0.21
   0  -7   2    1.21    0.42
   0  -7   2    0.95    0.28
   0   7  -2    1.24    0.38
   0   7  -2    0.77    0.53
   0   7  -2    0.88    0.42
   0   7  -2    0.30    0.29
   0   7  -2    1.27    0.68
   3  -7   3    0.86    0.26
   3  -7   3    1.11    0.35
   3  -7   3    0.70    0.30
   3  -7   3    0.39    0.25
  -3   7  -3    0.65    0.34
  -3   7  -3    1.05    0.55
  -3   7  -3    0.99    0.37
  -3   7  -3    2.12    0.52
   6  -7   4    0.10    0.24
   6  -7   4    0.05    0.39
  -6   7  -4    0.66    0.48
  -6   7  -4   -0.20    0.35
  -5  -8   0   -0.02    0.20
  -5  -8   0   -0.62    0.60
  -5  -8   0   -0.06    0.28
  -5  -8   0    0.07    0.25
  -5  -8   0    2.90    2.06
  -5  -8   0    0.19    0.24
  -5  -8   0    0.09    0.35
  -5  -8   0    0.00    0.22
   5   8   0   -0.19    0.20
   5   8   0   -0.20    0.35
   5   8   0    0.05    0.34
  -2  -8   1   23.51    1.10
  -2  -8   1   24.91    0.97
  -2  -8   1   23.62    1.08
  -2  -8   1   27.61    1.78
  -2  -8   1   24.79    1.57
  -2  -8   1   26.85    1.20
   2   8  -1   24.95    1.33
   2   8  -1   24.43    1.29
   2   8  -1   23.90    1.05
   2   8  -1   25.70    1.54
   2   8  -1   24.51    1.55
   1  -8   2    8.08    0.63
   1  -8   2    9.26    0.71
   1  -8   2    8.35    0.80
   1  -8   2    7.43    0.70
  -1   8  -2    9.22    0.74
  -1   8  -2    8.70    0.72
  -1   8  -2    9.51    0.90
  -1   8  -2    8.55    0.75
   4  -8   3    0.06    0.22
   4  -8   3    0.10    0.23
   4  -8   3   -0.27    0.23
   4  -8   3   -0.14    0.25
  -4   8  -3    0.39    0.45
  -4   8  -3   -0.32    0.31
  -4   8  -3    0.38    0.47
  -4  -9   0    2.26    0.47
  -4  -9   0    1.90    0.46
  -4  -9   0    2.68    0.78
  -4  -9   0    1.13    0.33
  -4  -9   0    1.12    0.38
  -4  -9   0    1.21    0.39
   4   9   0    3.29    0.83
   4   9   0    2.18    0.62
  -1  -9   1    1.27    0.38
  -1  -9   1    1.24    0.28
  -1  -9   1    3.87    1.21
  -1  -9   1    1.38    0.38
  -1  -9   1    0.91    0.31
   1   9  -1    2.56    0.66
   1   9  -1    2.10    0.84
   1   9  -1    1.38    0.33
   1   9  -1    2.34    0.74
   2  -9   2    1.98    0.38
   2  -9   2    1.97    0.65
   2  -9   2    1.96    0.36
  -2   9  -2    2.36    0.45
  -2   9  -2    3.50    0.82
  -2   9  -2    3.69    0.72
   5  -9   3    0.35    0.39
   5  -9   3    0.03    0.23
   5  -9   3   -0.22    0.37
  -5   9  -3    0.81    0.56
  -5   9  -3   -0.40    0.37
  -5   9  -3   -0.38    0.67
  -3 -10   0   -0.04    0.26
  -3 -10   0    0.76    0.36
  -3 -10   0    0.10    0.28
  -3 -10   0    0.06    0.29
   3  10   0    1.39    0.67
   3  10   0    0.79    0.50
   3  10   0    0.54    0.43
   3  10   0    0.01    0.36
   0 -10   1   -0.01    0.32
   0 -10   1    0.56    0.37
   0 -10   1   -0.02    0.25
   0 -10   1    0.06    0.27
   0 -10   1    0.30    0.49
   0 -10   1    0.04    0.17
   0  10  -1    0.26    0.58
   0  10  -1    0.10    0.50
   0  10  -1    0.44    0.42
   3 -10   2    2.52    0.44
   3 -10   2    2.00    0.39
   3 -10   2    4.12    0.70
  -3  10  -2    2.17    0.48
  -2 -11   0    1.02    0.39
  -2 -11   0    1.62    0.39
  -2 -11   0    0.92    0.40
   2  11   0    0.70    0.54
   2  11   0    1.94    0.62
   2  11   0    0.65    0.34
   2  11   0    1.74    0.79
   1 -11   1    1.12    0.41
   1 -11   1    0.77    0.36
   1 -11   1    1.16    0.33
   1 -11   1    1.90    0.81
   1 -11   1    1.06    0.31
  -1  11  -1    1.17    0.56
  -1  11  -1    1.99    0.78
  -1  11  -1    1.57    0.35
  -1 -12   0    0.57    0.37
  -1 -12   0    0.62    0.42
  -1 -12   0    0.82    0.27
   1  12   0    0.48    0.55
   1  12   0   -0.06    0.48
   1  12   0    0.73    0.57
   1  12   0    0.12    0.36
   2 -12   1    2.05    0.59
   2 -12   1    3.48    0.77
   2 -12   1    1.83    0.36
   2 -12   1    1.54    0.43
   2 -12   1    1.41    0.45
  -2  12  -1    2.98    0.81
  -2  12  -1    5.12    1.18
  -2  12  -1    2.34    0.49
   0  13   9    0.44    0.76
   0  13   9    1.24    0.36
   0 -13  -9   -0.56    0.38
  -2  12   8    0.30    0.27
  -2  12   8   -0.13    0.25
  -2  12   8   -1.06    0.54
   2 -12  -8   -0.43    0.30
   2 -12  -8    0.47    0.48
   2 -12  -8   -0.08    0.31
   1  12   9    0.30    0.50
   1  12   9    0.89    0.42
   1  12   9   -0.41    0.46
  -1 -12  -9    0.00    0.26
  -1 -12  -9   -0.11    0.34
  -4  11   7   -0.11    0.37
  -4  11   7   -0.12    0.30
  -4  11   7   -0.34    0.21
   4 -11  -7   -0.79    0.27
   4 -11  -7   -0.08    0.44
   4 -11  -7    0.26    0.37
  -1  11   8    2.84    0.89
   1 -11  -8    2.16    0.51
   1 -11  -8    0.98    0.48
   2  11   9    0.15    0.49
   2  11   9    0.74    0.60
   2  11   9    0.27    0.33
   2  11   9    0.31    0.30
  -2 -11  -9    0.13    0.22
  -2 -11  -9   -0.07    0.34
  -2 -11  -9   -0.54    0.33
  -2 -11  -9    0.38    0.26
  -3  10   7    0.22    0.23
  -3  10   7    0.13    0.29
  -3  10   7    0.63    0.37
   3 -10  -7    0.09    0.22
   3 -10  -7    0.16    0.25
   3 -10  -7   -0.22    0.26
   3 -10  -7   -0.29    0.30
   3 -10  -7    0.59    0.53
   0  10   8    3.70    1.02
   0  10   8    3.00    0.41
   0  10   8    2.75    0.53
   0  10   8    2.75    0.34
   0 -10  -8    3.11    0.56
   0 -10  -8    1.96    0.50
   3  10   9    4.66    1.00
   3  10   9    3.58    0.60
   3  10   9    5.47    1.15
   3  10   9    3.75    0.69
  -3 -10  -9    3.16    0.40
  -3 -10  -9    4.33    0.72
  -3 -10  -9    2.52    0.44
  -3 -10  -9    3.34    0.54
  -5   9   6    4.24    0.67
  -5   9   6    6.73    0.65
  -5   9   6    4.99    0.79
   5  -9  -6    6.15    0.64
   5  -9  -6    5.72    0.62
   5  -9  -6    6.67    0.94
   5  -9  -6    5.67    0.67
  -2   9   7    0.35    0.21
  -2   9   7    0.49    0.27
  -2   9   7    0.35    0.21
   2  -9  -7    0.47    0.54
   2  -9  -7    0.30    0.23
   2  -9  -7    0.27    0.29
   2  -9  -7    0.26    0.24
   1   9   8    2.86    0.42
   1   9   8    2.71    0.53
   1   9   8    3.11    0.78
  -1  -9  -8    1.92    0.30
  -1  -9  -8    2.67    0.52
  -1  -9  -8    2.86    0.56
   4   9   9    0.73    0.48
   4   9   9    2.01    0.63
   4   9   9    1.15    0.43
   4   9   9    1.01    0.33
  -4  -9  -9    1.30    0.40
  -4  -9  -9    1.33    0.72
  -4  -9  -9    0.78    0.29
  -4  -9  -9    1.03    0.53
  -4  -9  -9    1.59    0.41
  -4  -9  -9    2.89    0.92
  -4   8   6   10.00    0.80
  -4   8   6   11.12    0.70
  -4   8   6   14.09    1.28
  -4   8   6   10.16    0.92
   4  -8  -6   10.95    0.73
   4  -8  -6    8.97    0.74
   4  -8  -6   10.76    0.99
  -1   8   7    5.10    0.38
  -1   8   7    5.44    0.52
  -1   8   7    5.23    0.62
   1  -8  -7    5.15    0.56
   1  -8  -7    4.93    0.62
   1  -8  -7    5.54    0.56
   2   8   8    3.80    0.84
   2   8   8    3.48    0.62
   2   8   8    2.85    0.49
   2   8   8    3.86    0.84
  -2  -8  -8    2.28    0.49
  -2  -8  -8    2.46    0.38
  -2  -8  -8    3.02    0.35
  -2  -8  -8    2.48    0.49
  -2  -8  -8    1.72    0.39
   5   8   9    0.77    0.51
   5   8   9    0.05    0.41
  -5  -8  -9    0.43    0.54
  -5  -8  -9    0.50    0.70
  -5  -8  -9    0.02    0.25
  -5  -8  -9   -0.22    0.26
  -6   7   5    0.62    0.51
  -6   7   5    0.34    0.25
  -6   7   5    0.22    0.30
  -6   7   5   -0.01    0.25
   6  -7  -5    0.57    0.55
   6  -7  -5    0.69    0.33
   6  -7  -5    0.51    0.37
   6  -7  -5    0.81    0.30
   6  -7  -5    0.65    0.25
  -3   7   6    0.87    0.61
  -3   7   6    0.79    0.20
  -3   7   6    0.50    0.27
  -3   7   6    0.24    0.24
   3  -7  -6    0.52    0.26
   3  -7  -6    0.62    0.51
   3  -7  -6    0.24    0.21
   3  -7  -6    0.37    0.23
   0   7   7    4.34    0.44
   0   7   7    4.17    0.48
   0   7   7    4.40    0.42
   0   7   7    3.95    0.48
   0  -7  -7    5.05    0.47
   0  -7  -7    3.99    0.50
   0  -7  -7    4.64    0.49
   3   7   8    2.10    0.39
   3   7   8    3.64    0.82
   3   7   8    3.31    0.79
   3   7   8    1.80    0.28
   3   7   8    2.84    0.55
  -3  -7  -8    2.25    0.34
  -3  -7  -8    4.08    0.81
  -3  -7  -8    2.36    0.44
  -3  -7  -8    2.27    0.48
  -3  -7  -8    2.32    0.45
  -3  -7  -8    2.38    0.52
  -5   6   5    0.46    0.34
  -5   6   5    3.11    1.02
  -5   6   5    0.86    0.24
  -5   6   5    1.38    0.45
  -5   6   5    0.93    0.37
   5  -6  -5    2.48    0.75
   5  -6  -5    0.57    0.27
   5  -6  -5    0.73    0.29
  -2   6   6    5.52    0.30
  -2   6   6    5.50    0.57
  -2   6   6    5.40    0.59
  -2   6   6    5.82    0.43
   2  -6  -6    3.77    0.59
   2  -6  -6    6.32    0.49
   2  -6  -6    6.50    0.54
   1   6   7    2.78    0.70
   1   6   7    2.13    0.26
   1   6   7    2.45    0.38
   1   6   7    2.59    0.42
  -1  -6  -7    2.22    0.28
  -1  -6  -7    2.38    0.46
  -1  -6  -7    2.19    0.29
  -1  -6  -7    1.73    0.32
   4   6   8    0.58    0.38
   4   6   8    0.46    0.34
   4   6   8    0.30    0.26
   4   6   8    0.59    0.22
   4   6   8    0.79    0.48
  -4  -6  -8    0.64    0.26
  -4  -6  -8    0.28    0.36
  -4  -6  -8    0.55    0.28
  -4  -6  -8    0.33    0.19
  -4  -6  -8    0.60    0.61
  -4  -6  -8    1.08    0.63
  -4  -6  -8    1.04    0.43
  -7   5   4    0.93    0.43
  -7   5   4    0.90    0.41
   7  -5  -4    1.85    0.74
   7  -5  -4    1.21    0.37
   7  -5  -4    1.26    0.50
   7  -5  -4    1.32    0.31
   7  -5  -4    1.33    0.39
  -4   5   5    0.56    0.25
  -4   5   5    0.64    0.33
  -4   5   5    1.41    0.77
  -4   5   5    0.80    0.22
   4  -5  -5    0.75    0.32
   4  -5  -5    0.53    0.22
   4  -5  -5    0.79    0.24
   4  -5  -5    1.06    0.55
  -1   5   6    3.42    0.37
  -1   5   6    2.19    0.28
   1  -5  -6    4.14    0.67
   1  -5  -6    3.50    0.38
   1  -5  -6    2.70    0.34
   2   5   7    2.68    0.38
   2   5   7    3.71    0.54
   2   5   7    4.17    0.41
   2   5   7    3.61    0.52
   2   5   7    4.04    0.53
  -2  -5  -7    4.10    0.46
  -2  -5  -7    3.82    0.48
  -2  -5  -7    4.09    0.41
  -2  -5  -7    3.12    0.37
  -2  -5  -7    4.34    0.46
  -2  -5  -7    3.92    0.48
   5   5   8    5.15    0.66
   5   5   8    5.92    0.67
   5   5   8    5.68    0.65
   5   5   8    5.50    0.61
   5   5   8    8.35    0.79
  -5  -5  -8    4.63    0.47
  -5  -5  -8   10.37    1.89
  -5  -5  -8    6.10    0.70
  -5  -5  -8    6.14    0.69
  -5  -5  -8    5.07    0.61
  -6   4   4    0.76    0.33
  -6   4   4    0.82    0.32
  -6   4   4    1.91    0.50
   6  -4  -4    0.75    0.58
   6  -4  -4    0.74    0.31
   6  -4  -4    0.52    0.29
   6  -4  -4    0.86    0.34
   6  -4  -4    0.71    0.32
   6  -4  -4    0.61    0.22
  -3   4   5    1.60    0.21
  -3   4   5    0.83    0.22
  -3   4   5    1.07    0.46
  -3   4   5    0.81    0.26
   3  -4  -5    0.89    0.19
   3  -4  -5    0.62    0.20
   3  -4  -5    0.77    0.44
   3  -4  -5    1.32    0.25
   0   4   6    6.32    0.38
   0   4   6    6.22    0.47
   0   4   6    6.65    0.47
   0  -4  -6    5.95    0.45
   0  -4  -6    6.23    0.37
   3   4   7   -0.35    0.17
   3   4   7    0.03    0.24
   3   4   7    0.01    0.30
   3   4   7    0.18    0.19
   3   4   7   -0.13    0.14
   3   4   7   -0.03    0.22
  -3  -4  -7   -0.13    0.22
  -3  -4  -7   -0.15    0.21
  -3  -4  -7    0.03    0.24
  -3  -4  -7    0.04    0.16
  -3  -4  -7    0.09    0.21
  -3  -4  -7    0.13    0.24
   6   4   8    0.12    0.25
   6   4   8   -0.21    0.19
   6   4   8    0.44    0.28
   6   4   8   -0.34    0.29
  -6  -4  -8   -0.11    0.25
  -6  -4  -8   -0.31    0.26
  -6  -4  -8    0.02    0.14
  -6  -4  -8    1.21    0.43
  -5   3   4    6.59    0.71
  -5   3   4    6.50    0.43
  -5   3   4    6.35    1.00
  -5   3   4    6.36    0.64
   5  -3  -4    6.58    0.50
   5  -3  -4    6.77    0.57
   5  -3  -4    6.34    0.81
   5  -3  -4    7.10    0.68
   5  -3  -4    6.68    0.60
  -2   3   5   25.12    0.73
  -2   3   5   22.96    1.04
  -2   3   5   23.75    0.92
  -2   3   5   24.96    0.67
   2  -3  -5   24.44    0.86
   2  -3  -5   24.37    0.91
   2  -3  -5   23.92    0.67
   1   3   6    7.39    0.26
   1   3   6    5.76    0.67
   1   3   6    7.81    0.51
  -1  -3  -6    6.98    0.52
  -1  -3  -6    6.72    0.45
  -1  -3  -6    7.56    0.39
  -1  -3  -6    6.56    0.44
   4   3   7    0.31    0.15
   4   3   7    0.60    0.34
   4   3   7    0.31    0.25
   4   3   7    0.38    0.24
   4   3   7    0.85    0.35
   4   3   7    1.02    0.44
  -4  -3  -7    0.21    0.22
  -4  -3  -7    0.28    0.15
  -4  -3  -7    0.20    0.24
  -4  -3  -7    0.94    0.55
  -4  -3  -7    0.31    0.24
   7   3   8    0.28    0.30
   7   3   8    0.05    0.32
   7   3   8    0.02    0.33
   7   3   8    0.02    0.21
  -7  -3  -8   -1.06    0.72
  -7  -3  -8   -0.39    0.32
  -7   2   3    0.26    0.30
  -7   2   3    0.03    0.27
  -7   2   3   -0.09    0.23
  -7   2   3    0.62    0.40
   7  -2  -3    0.17    0.20
   7  -2  -3   -0.41    0.21
   7  -2  -3    0.53    0.35
   7  -2  -3    0.38    0.51
   7  -2  -3    0.15    0.28
  -4   2   4   19.42    0.99
  -4   2   4   17.44    0.75
  -4   2   4   18.39    1.28
  -4   2   4   17.69    0.84
  -4   2   4   18.08    0.67
   4  -2  -4   16.08    1.08
   4  -2  -4   17.71    0.86
   4  -2  -4   17.87    0.79
   4  -2  -4   18.04    0.75
   4  -2  -4   17.25    0.92
   4  -2  -4   17.38    0.75
  -1   2   5  154.22    2.99
  -1   2   5  161.74    2.82
  -1   2   5  156.98    2.83
   1  -2  -5  158.49    2.80
   1  -2  -5  153.97    2.83
   1  -2  -5  157.93    3.00
   1  -2  -5  159.38    2.51
   2   2   6   27.18    0.89
   2   2   6   26.67    0.96
   2   2   6   26.71    0.96
   2   2   6   27.13    0.98
   2   2   6   28.14    0.86
   2   2   6   27.66    0.76
  -2  -2  -6   27.11    0.83
  -2  -2  -6   26.40    0.94
  -2  -2  -6   27.03    0.81
  -2  -2  -6   29.59    1.02
   5   2   7    5.09    0.35
   5   2   7    5.28    0.58
   5   2   7    6.01    0.69
   5   2   7    6.25    0.70
   5   2   7    5.48    0.57
   5   2   7    4.69    0.55
  -5  -2  -7    6.06    0.72
  -5  -2  -7    4.45    0.28
  -5  -2  -7    6.06    0.60
  -5  -2  -7    4.79    0.42
  -6   1   3    2.82    0.45
  -6   1   3    3.47    0.52
  -6   1   3    3.81    0.45
  -6   1   3    5.16    0.66
  -6   1   3    3.69    0.43
   6  -1  -3    2.66    0.42
   6  -1  -3    4.10    0.43
   6  -1  -3    5.79    1.11
   6  -1  -3    2.83    0.45
   6  -1  -3    4.04    0.50
  -3   1   4    5.90    0.47
  -3   1   4    5.87    0.53
  -3   1   4    5.68    0.71
  -3   1   4    5.95    0.57
   3  -1  -4    6.01    0.69
   3  -1  -4    6.04    0.47
   3  -1  -4    6.15    0.45
   3  -1  -4    6.35    0.52
   3  -1  -4    6.02    0.35
   3  -1  -4    6.28    0.41
   3  -1  -4    5.87    0.64
   0   1   5    0.45    0.17
   0   1   5    0.50    0.22
   0  -1  -5    0.08    0.13
   0  -1  -5    0.42    0.14
   0  -1  -5    0.10    0.16
   0  -1  -5    0.49    0.33
   3   1   6    0.36    0.26
   3   1   6    0.33    0.16
   3   1   6    0.24    0.09
   3   1   6    0.23    0.22
   3   1   6    0.15    0.18
  -3  -1  -6    0.03    0.20
  -3  -1  -6   -0.09    0.19
  -3  -1  -6    0.26    0.13
   6   1   7    0.06    0.24
   6   1   7    0.28    0.32
   6   1   7    0.03    0.22
   6   1   7   -0.01    0.23
   6   1   7    0.21    0.15
  -6  -1  -7    0.52    0.44
  -6  -1  -7    1.13    0.53
  -6  -1  -7    0.22    0.26
  -6  -1  -7    0.86    0.29
  -6  -1  -7   -0.18    0.42
  -6  -1  -7    0.21    0.20
  -5   0   3    6.53    0.68
  -5   0   3    5.01    0.56
  -5   0   3    5.79    1.05
  -5   0   3    5.44    0.60
  -5   0   3    6.45    0.43
  -5   0   3    5.66    0.50
  -5   0   3    6.09    0.85
   5   0  -3    5.42    0.59
   5   0  -3    5.93    0.47
   5   0  -3    5.30    0.46
   5   0  -3    5.38    0.53
   5   0  -3    6.42    0.61
   5   0  -3    5.63    0.74
  -2   0   4    4.72    0.63
  -2   0   4    4.67    0.46
  -2   0   4    4.57    0.41
   2   0  -4    4.65    0.39
   2   0  -4    5.04    0.28
   2   0  -4    4.01    0.37
   2   0  -4    4.23    0.55
   2   0  -4    4.98    0.51
   1   0   5  111.98    2.28
   1   0   5  110.73    2.08
   1   0   5  112.50    1.92
   1   0   5  113.93    2.12
  -1   0  -5  113.90    2.29
  -1   0  -5  111.72    2.07
  -1   0  -5  109.64    2.08
   4   0   6    0.09    0.24
   4   0   6    0.08    0.23
   4   0   6    0.03    0.12
   4   0   6    0.12    0.20
   4   0   6    0.01    0.23
  -4   0  -6    0.33    0.29
  -4   0  -6    0.06    0.24
  -4   0  -6   -0.10    0.15
  -4   0  -6    0.11    0.41
  -4   0  -6   -0.16    0.18
  -4   0  -6    0.18    0.10
  -4   0  -6   -0.03    0.21
   7   0   7    0.10    0.36
   7   0   7    0.93    0.33
   7   0   7   -0.12    0.17
   7   0   7    0.51    0.27
   7   0   7    0.40    0.27
  -7   0  -7    1.25    0.48
  -7   0  -7    0.72    0.40
  -7   0  -7    0.82    0.35
  -7   0  -7   -0.05    0.36
  -7   0  -7    0.21    0.23
  -7  -1   2    0.05    0.22
  -7  -1   2    0.00    0.19
  -7  -1   2   -0.13    0.23
  -7  -1   2    0.29    0.25
   7   1  -2   -0.01    0.45
   7   1  -2    0.22    0.28
   7   1  -2   -0.29    0.21
   7   1  -2   -0.24    0.21
  -4  -1   3    6.50    0.51
  -4  -1   3    5.62    0.93
  -4  -1   3    5.91    0.49
  -4  -1   3    6.23    0.74
  -4  -1   3    5.78    0.59
  -4  -1   3    5.68    0.60
   4   1  -3    5.83    0.38
   4   1  -3    5.52    0.53
   4   1  -3    6.20    0.48
   4   1  -3    6.44    0.49
   4   1  -3    6.01    0.60
   4   1  -3    6.73    0.71
   4   1  -3    6.34    0.84
  -1  -1   4   11.36    0.57
  -1  -1   4   11.00    0.80
  -1  -1   4   11.46    0.62
  -1  -1   4   11.68    0.32
   1   1  -4   10.88    0.78
   1   1  -4   10.80    0.44
   1   1  -4   11.07    0.54
   2  -1   5   13.40    0.58
   2  -1   5   12.37    0.51
   2  -1   5   12.02    0.68
   2  -1   5   11.91    0.75
  -2   1  -5   12.52    0.73
  -2   1  -5   12.53    0.50
  -2   1  -5   12.33    0.64
   5  -1   6   10.89    0.77
   5  -1   6   10.82    0.70
   5  -1   6   10.44    0.72
   5  -1   6   11.22    0.67
   5  -1   6    9.86    0.82
   5  -1   6   10.53    0.88
  -5   1  -6   11.50    1.03
  -5   1  -6   11.62    0.95
  -5   1  -6   10.53    0.77
  -5   1  -6   10.17    0.72
  -5   1  -6   10.88    0.69
  -5   1  -6   10.84    0.70
  -6  -2   2    9.85    1.32
  -6  -2   2   11.47    0.80
  -6  -2   2   10.58    0.67
  -6  -2   2   13.35    1.31
  -6  -2   2   11.32    0.88
   6   2  -2    9.96    1.00
   6   2  -2   10.54    0.71
   6   2  -2   12.25    1.08
   6   2  -2   10.57    0.77
  -3  -2   3   20.85    0.59
  -3  -2   3   20.95    0.83
  -3  -2   3   20.00    1.03
  -3  -2   3   20.70    0.92
  -3  -2   3   20.02    0.55
  -3  -2   3   21.62    1.57
  -3  -2   3   19.15    1.32
  -3  -2   3   20.45    0.74
   3   2  -3   21.15    1.24
   3   2  -3   21.33    0.82
   3   2  -3   22.00    0.55
   3   2  -3   20.53    1.02
   3   2  -3   20.42    0.95
   3   2  -3   22.12    0.87
   3   2  -3   21.03    0.74
   0  -2   4    5.49    0.32
   0  -2   4    4.93    0.40
   0  -2   4    5.36    0.33
   0  -2   4    5.86    0.50
   0  -2   4    5.47    0.41
   0  -2   4    5.20    0.45
   0   2  -4    5.57    0.40
   0   2  -4    4.77    0.39
   0   2  -4    5.24    0.51
   3  -2   5    0.05    0.17
   3  -2   5    0.19    0.16
   3  -2   5   -0.01    0.13
   3  -2   5   -0.01    0.23
  -3   2  -5    0.18    0.21
  -3   2  -5    0.00    0.36
  -3   2  -5   -0.01    0.17
  -3   2  -5    0.21    0.16
  -3   2  -5   -0.04    0.10
   6  -2   6    6.35    0.64
   6  -2   6    5.90    0.60
   6  -2   6    5.71    0.56
   6  -2   6    5.28    0.71
   6  -2   6    5.58    0.66
  -6   2  -6    6.89    0.79
  -6   2  -6    5.89    0.64
  -6   2  -6    4.75    0.69
  -6   2  -6    6.33    0.78
  -6   2  -6    5.81    0.68
  -5  -3   2    0.57    0.25
  -5  -3   2    0.49    0.19
  -5  -3   2    0.51    0.24
  -5  -3   2    0.21    0.62
  -5  -3   2    1.85    1.01
  -5  -3   2    0.18    0.25
  -5  -3   2    0.03    0.40
  -5  -3   2    0.87    0.32
  -5  -3   2    1.81    0.67
  -5  -3   2    1.57    0.63
   5   3  -2    0.40    0.56
   5   3  -2    1.19    0.50
   5   3  -2    0.30    0.19
   5   3  -2    0.74    0.28
   5   3  -2    0.31    0.22
   5   3  -2    0.47    0.43
  -2  -3   3   13.95    0.77
  -2  -3   3   14.25    0.69
  -2  -3   3   13.14    1.02
  -2  -3   3   14.20    0.56
  -2  -3   3   13.37    0.44
  -2  -3   3   13.61    0.89
  -2  -3   3   13.04    0.55
   2   3  -3   13.59    0.71
   2   3  -3   14.17    0.67
   2   3  -3   12.92    0.76
   2   3  -3   12.84    0.97
   2   3  -3   13.53    0.53
   1  -3   4   28.62    0.90
   1  -3   4   28.48    0.96
   1  -3   4   28.48    1.01
   1  -3   4   28.27    0.98
  -1   3  -4   29.04    1.08
  -1   3  -4   27.57    0.88
  -1   3  -4   27.89    0.97
  -1   3  -4   29.78    1.00
   4  -3   5    6.87    0.68
   4  -3   5    7.00    0.71
   4  -3   5    6.99    0.37
   4  -3   5    8.45    0.64
  -4   3  -5    6.93    0.67
  -4   3  -5    7.54    0.49
  -4   3  -5    7.65    0.49
  -4   3  -5    6.55    0.77
  -4   3  -5    7.38    0.74
   7  -3   6    0.40    0.31
   7  -3   6    1.12    0.37
   7  -3   6    1.26    0.34
   7  -3   6    0.81    0.50
  -7   3  -6   -0.10    0.29
  -7   3  -6   -0.41    0.35
  -7   3  -6    0.23    0.38
  -7  -4   1    2.10    0.53
  -7  -4   1    1.38    0.41
  -7  -4   1    1.43    0.37
  -7  -4   1    1.95    0.39
  -7  -4   1    2.73    0.49
   7   4  -1    2.05    0.53
   7   4  -1    5.19    1.18
  -4  -4   2    1.21    0.50
  -4  -4   2    1.84    0.69
  -4  -4   2    1.54    0.60
  -4  -4   2    0.79    0.22
  -4  -4   2    1.18    0.34
  -4  -4   2    0.75    0.23
  -4  -4   2    1.08    0.28
  -4  -4   2    1.03    0.23
  -4  -4   2    1.50    0.41
  -4  -4   2    2.77    1.15
  -4  -4   2    1.26    0.29
   4   4  -2    1.55    0.62
   4   4  -2    1.03    0.28
   4   4  -2    1.86    0.53
   4   4  -2    1.52    0.52
   4   4  -2    1.10    0.28
  -1  -4   3   35.48    1.07
  -1  -4   3   35.60    1.11
  -1  -4   3   34.40    1.15
  -1  -4   3   34.51    1.39
  -1  -4   3   33.15    1.10
   1   4  -3   33.90    0.91
   1   4  -3   34.17    1.54
   1   4  -3   35.56    0.98
   1   4  -3   34.33    1.01
   1   4  -3   36.39    1.42
   1   4  -3   36.20    1.19
   1   4  -3   33.52    1.09
   2  -4   4    0.87    0.25
   2  -4   4    1.45    0.35
   2  -4   4    1.00    0.33
   2  -4   4    0.94    0.26
   2  -4   4    0.75    0.22
  -2   4  -4    1.73    0.45
  -2   4  -4    0.77    0.27
  -2   4  -4    0.80    0.27
  -2   4  -4    1.95    0.46
   5  -4   5    7.60    0.84
   5  -4   5    8.02    0.72
   5  -4   5    6.82    1.01
  -5   4  -5    7.53    0.79
  -5   4  -5    7.79    0.78
  -5   4  -5    8.07    0.54
  -5   4  -5    9.14    0.95
  -6  -5   1   -2.11    1.13
  -6  -5   1    2.53    0.93
  -6  -5   1    0.41    0.25
  -6  -5   1    0.12    0.24
  -6  -5   1    0.48    0.26
  -6  -5   1   -0.04    0.28
  -6  -5   1    0.07    0.31
  -6  -5   1   -0.24    0.24
  -6  -5   1   -0.36    0.19
   6   5  -1    0.24    0.44
   6   5  -1   -0.08    0.25
   6   5  -1    0.24    0.40
  -3  -5   2    4.41    0.38
  -3  -5   2    4.44    0.45
  -3  -5   2    6.07    1.21
  -3  -5   2    4.80    0.54
  -3  -5   2    5.85    1.06
  -3  -5   2    4.35    0.70
  -3  -5   2    3.76    0.59
  -3  -5   2    4.34    0.49
   3   5  -2    4.04    0.57
   3   5  -2    4.25    0.74
   3   5  -2    3.82    0.60
   3   5  -2    4.10    0.39
   3   5  -2    4.57    0.47
   0  -5   3    1.49    0.28
   0  -5   3    1.03    0.27
   0  -5   3    1.14    0.32
   0  -5   3    2.19    0.55
   0   5  -3    2.77    0.46
   0   5  -3    1.74    0.35
   0   5  -3    1.41    0.18
   0   5  -3    1.67    0.53
   3  -5   4    0.08    0.27
   3  -5   4    0.12    0.21
   3  -5   4    0.51    0.24
   3  -5   4    0.43    0.25
   3  -5   4    0.33    0.24
  -3   5  -4    0.59    0.28
  -3   5  -4    0.40    0.39
  -3   5  -4    0.22    0.27
  -3   5  -4    0.31    0.34
   6  -5   5    4.75    0.59
   6  -5   5    3.97    0.51
   6  -5   5    3.62    0.73
  -6   5  -5    3.87    0.71
  -6   5  -5    4.90    0.50
  -6   5  -5    2.29    0.57
  -5  -6   1    0.69    0.29
  -5  -6   1    0.35    0.70
  -5  -6   1    1.73    0.81
  -5  -6   1    0.91    0.41
  -5  -6   1    0.51    0.26
  -5  -6   1    0.73    0.26
  -5  -6   1    0.64    0.26
  -5  -6   1    2.41    1.27
  -5  -6   1    0.63    0.28
  -5  -6   1    0.96    0.29
   5   6  -1    1.57    0.62
   5   6  -1    0.70    0.32
   5   6  -1    1.24    0.47
   5   6  -1    0.43    0.53
  -2  -6   2    4.29    0.83
  -2  -6   2    3.66    0.49
  -2  -6   2    3.21    0.74
  -2  -6   2    1.78    0.34
  -2  -6   2    2.36    0.37
   2   6  -2    3.00    0.35
   2   6  -2    3.15    0.84
   2   6  -2    3.91    0.85
   2   6  -2    2.56    0.34
   2   6  -2    3.49    0.66
   2   6  -2    4.06    0.75
   2   6  -2    3.14    0.46
   1  -6   3    0.56    0.25
   1  -6   3    0.51    0.24
   1  -6   3    0.56    0.29
   1  -6   3    1.17    0.53
   1  -6   3    0.69    0.24
  -1   6  -3    0.75    0.34
  -1   6  -3    0.77    0.34
  -1   6  -3    0.90    0.48
  -1   6  -3    0.87    0.31
   4  -6   4    0.07    0.21
   4  -6   4    0.66    0.33
   4  -6   4   -0.14    0.18
   4  -6   4    0.24    0.33
   4  -6   4   -0.17    0.16
  -4   6  -4   -0.05    0.31
  -4   6  -4    0.60    0.43
  -4   6  -4    0.20    0.40
  -4   6  -4    0.01    0.27
  -4  -7   1    0.45    1.19
  -4  -7   1   -0.13    0.31
  -4  -7   1   -0.15    0.20
  -4  -7   1   -0.15    0.23
  -4  -7   1   -0.05    0.19
  -4  -7   1    0.07    0.19
  -4  -7   1   -0.35    0.24
   4   7  -1   -0.17    0.17
   4   7  -1    0.17    0.36
   4   7  -1    0.46    0.56
   4   7  -1    0.38    0.35
  -1  -7   2   -0.04    0.53
  -1  -7   2   -0.08    0.24
  -1  -7   2   -0.14    0.21
  -1  -7   2    0.21    0.22
   1   7  -2    0.26    0.60
   1   7  -2    0.08    0.29
   1   7  -2    0.24    0.15
   1   7  -2    0.04    0.43
   1   7  -2    0.02    0.23
   2  -7   3    0.80    0.36
   2  -7   3    0.24    0.21
   2  -7   3    0.59    0.25
   2  -7   3    0.22    0.21
  -2   7  -3    1.04    0.55
  -2   7  -3    1.11    0.43
  -2   7  -3    0.98    0.30
  -2   7  -3    0.81    0.26
  -2   7  -3    0.47    0.30
   5  -7   4    0.74    0.24
   5  -7   4    1.07    0.37
   5  -7   4    1.33    0.46
   5  -7   4    0.42    0.28
  -5   7  -4    1.66    0.60
  -5   7  -4    1.53    0.52
  -5   7  -4    0.63    0.42
  -5   7  -4    1.62    0.55
  -6  -8   0    0.70    0.33
  -6  -8   0   -0.07    0.84
  -6  -8   0    1.07    0.40
  -6  -8   0    0.60    0.31
  -6  -8   0    1.04    0.36
  -6  -8   0    0.61    0.25
   6   8   0    0.93    0.52
   6   8   0    1.95    0.76
  -3  -8   1    5.16    1.05
  -3  -8   1    4.75    0.58
  -3  -8   1    2.94    0.48
  -3  -8   1    3.60    0.47
  -3  -8   1    3.53    0.45
  -3  -8   1    3.82    0.54
  -3  -8   1    3.33    0.52
  -3  -8   1    4.10    0.68
   3   8  -1    3.18    0.48
   3   8  -1    3.11    0.46
   3   8  -1    4.56    0.64
   3   8  -1    4.53    0.86
   3   8  -1    6.50    1.30
   3   8  -1    5.76    1.05
   0  -8   2    1.88    0.43
   0  -8   2    3.27    0.93
   0  -8   2    1.15    0.27
   0  -8   2    2.07    0.40
   0  -8   2    1.28    0.28
   0   8  -2    1.76    0.33
   0   8  -2    1.67    0.36
   0   8  -2    3.79    1.15
   0   8  -2    3.06    0.84
   0   8  -2    2.58    0.56
   3  -8   3    0.83    0.37
   3  -8   3    1.99    0.41
   3  -8   3    1.47    0.34
  -3   8  -3    2.15    0.69
  -3   8  -3    1.32    0.50
  -3   8  -3    1.39    0.40
  -5  -9   0    0.30    0.29
  -5  -9   0   -0.42    0.26
  -5  -9   0    0.22    0.21
  -5  -9   0   -0.15    0.22
  -5  -9   0   -0.38    0.23
  -5  -9   0   -0.35    0.28
   5   9   0    0.90    0.48
   5   9   0    0.42    0.50
  -2  -9   1    0.06    0.24
  -2  -9   1   -0.24    0.21
  -2  -9   1    0.02    0.21
  -2  -9   1    0.31    0.30
   2   9  -1    0.28    0.40
   2   9  -1    0.64    0.51
   2   9  -1    0.01    0.25
   2   9  -1    0.08    0.36
   2   9  -1    0.29    0.42
   1  -9   2   11.65    0.74
   1  -9   2   11.75    0.88
   1  -9   2   11.36    0.83
  -1   9  -2   11.95    0.88
  -1   9  -2   11.80    0.85
  -1   9  -2   11.72    1.05
   4  -9   3   -0.12    0.25
   4  -9   3    0.22    0.23
   4  -9   3   -0.07    0.27
  -4   9  -3    0.53    0.48
  -4   9  -3   -0.32    0.32
  -4 -10   0    0.05    0.50
  -4 -10   0    0.22    0.29
  -4 -10   0    0.47    0.31
   4  10   0   -0.10    0.39
   4  10   0    0.17    0.41
   4  10   0    0.54    0.57
  -1 -10   1    0.18    0.24
  -1 -10   1    0.62    0.57
  -1 -10   1   -0.19    0.18
  -1 -10   1    0.04    0.25
  -1 -10   1   -0.07    0.25
   1  10  -1    0.44    0.51
   1  10  -1    0.23    0.54
   1  10  -1    0.15    0.75
   1  10  -1    0.32    0.40
   2 -10   2    2.76    0.57
   2 -10   2    1.71    0.38
   2 -10   2    2.43    0.46
  -2  10  -2    2.88    0.49
  -2  10  -2    4.29    0.96
  -2  10  -2    3.13    0.71
  -3 -11   0    0.11    0.38
  -3 -11   0    0.40    0.35
   3  11   0    0.24    0.47
   3  11   0    0.21    0.28
   3  11   0   -0.41    0.37
   3  11   0    0.02    0.48
   3  11   0    0.53    0.54
   0 -11   1    0.53    0.41
   0 -11   1    0.03    0.27
   0 -11   1   -0.24    0.33
   0 -11   1   -0.13    0.21
   0 -11   1   -0.26    0.25
   0  11  -1    0.02    0.61
   0  11  -1   -0.35    0.44
   0  11  -1    0.37    0.47
   3 -11   2    1.75    0.41
   3 -11   2    1.87    0.44
   3 -11   2    2.12    0.55
  -3  11  -2    0.97    0.44
  -3  11  -2    2.49    0.70
  -3  11  -2    3.47    0.92
  -2 -12   0    1.45    0.47
  -2 -12   0    1.72    0.56
   2  12   0    2.40    0.68
   2  12   0    2.58    0.73
   2  12   0    2.44    0.99
   2  12   0    2.25    0.79
   1 -12   1    0.38    0.37
   1 -12   1    0.30    0.36
   1 -12   1    0.57    0.27
   1 -12   1    0.98    0.49
  -1  12  -1    0.72    0.26
  -1  12  -1    1.15    0.65
  -1  12  -1   -0.47    0.70
  -1  12  -1    1.66    0.62
  -1  13   9   -0.05    0.68
   1 -13  -9   -1.00    0.44
   1 -13  -9   -0.16    0.59
   1 -13  -9    0.37    0.45
  -3  12   8    2.34    1.15
  -3  12   8    0.93    0.41
   3 -12  -8    2.32    0.69
   3 -12  -8    0.85    0.43
   3 -12  -8    0.91    0.54
   0  12   9    3.85    1.16
   0 -12  -9    1.91    0.56
   0 -12  -9    1.41    0.36
   0 -12  -9    2.01    0.50
   3  12  10   -0.26    0.54
   3  12  10    0.49    0.37
   3  12  10    1.41    0.57
   3  12  10    0.90    0.46
  -3 -12 -10    1.18    0.52
  -3 -12 -10   -0.17    0.22
  -2  11   8    1.13    0.91
  -2  11   8    1.10    0.26
  -2  11   8    1.00    0.34
   2 -11  -8    1.57    0.40
   2 -11  -8    1.38    0.42
   2 -11  -8    1.56    0.72
   2 -11  -8    0.25    0.46
   2 -11  -8    0.65    0.66
   1  11   9    4.48    1.20
   1  11   9    3.02    0.50
   1  11   9    3.75    0.68
  -1 -11  -9    2.35    0.39
  -1 -11  -9    2.39    0.52
   4  11  10    1.54    0.55
   4  11  10    1.52    0.69
   4  11  10    1.48    0.44
   4  11  10    0.78    0.64
  -4 -11 -10    0.93    0.42
  -4  10   7    1.73    0.42
  -4  10   7    0.71    0.32
  -4  10   7    1.08    0.42
   4 -10  -7    0.96    0.35
   4 -10  -7    2.59    0.82
  -1  10   8    0.97    0.25
  -1  10   8    0.62    0.67
  -1  10   8    0.68    0.28
  -1  10   8    1.29    0.38
   1 -10  -8    0.64    0.39
   1 -10  -8    1.01    0.35
   1 -10  -8    0.49    0.27
   2  10   9    1.68    0.62
   2  10   9    0.68    0.26
   2  10   9    2.07    0.55
   2  10   9    0.57    0.61
  -2 -10  -9    0.81    0.23
  -2 -10  -9   -0.05    0.24
  -2 -10  -9    0.79    0.31
  -3   9   7    0.44    0.26
  -3   9   7    0.74    0.33
  -3   9   7    3.15    0.98
   3  -9  -7    2.00    0.72
   3  -9  -7    0.95    0.28
   3  -9  -7    0.75    0.29
   3  -9  -7    1.04    0.30
   0   9   8   -0.24    0.22
   0   9   8   -0.08    0.18
   0   9   8    0.08    0.19
   0   9   8    0.07    0.54
   0  -9  -8   -0.22    0.17
   0  -9  -8   -0.03    0.25
   0  -9  -8   -0.04    0.25
   3   9   9    2.67    0.51
   3   9   9    4.40    0.91
   3   9   9    3.34    0.79
   3   9   9    3.98    0.74
  -3  -9  -9    3.55    0.67
  -3  -9  -9    3.46    0.72
  -5   8   6    1.35    0.34
  -5   8   6    0.75    0.39
  -5   8   6    2.04    0.49
  -5   8   6    1.04    0.40
   5  -8  -6    0.89    0.35
   5  -8  -6    0.94    0.33
   5  -8  -6    1.06    1.01
  -2   8   7    2.45    0.24
  -2   8   7    2.59    0.42
  -2   8   7    1.81    0.36
   2  -8  -7    2.54    0.41
   2  -8  -7    2.23    0.40
   2  -8  -7    1.92    0.36
   2  -8  -7    3.87    0.54
   1   8   8    4.93    1.02
   1   8   8    3.56    0.57
   1   8   8    3.87    0.45
  -1  -8  -8    4.44    0.62
  -1  -8  -8    3.16    0.39
  -1  -8  -8    3.72    0.56
   4   8   9    1.19    0.45
   4   8   9    2.32    0.70
   4   8   9    0.99    0.32
   4   8   9    1.76    0.64
  -4  -8  -9    2.43    0.58
  -4  -8  -9    1.57    0.54
  -4  -8  -9    1.26    0.43
  -4  -8  -9    0.82    0.34
  -4  -8  -9    1.41    0.34
  -4  -8  -9    2.77    0.97
  -4   7   6   14.93    0.94
  -4   7   6   14.98    0.76
  -4   7   6   16.50    1.32
  -4   7   6   14.75    0.74
  -4   7   6   15.07    1.03
   4  -7  -6   14.22    1.09
   4  -7  -6   14.93    0.76
   4  -7  -6   14.11    0.86
   4  -7  -6   14.91    1.00
  -1   7   7   -0.08    0.14
  -1   7   7   -0.04    0.16
  -1   7   7    0.02    0.21
   1  -7  -7   -0.14    0.17
   1  -7  -7   -0.11    0.21
   1  -7  -7    0.10    0.16
   1  -7  -7   -0.02    0.22
   2   7   8    0.49    0.17
   2   7   8    0.57    0.24
   2   7   8    1.12    0.49
   2   7   8    1.58    0.67
   2   7   8    0.86    0.34
  -2  -7  -8    0.53    0.22
  -2  -7  -8    0.80    0.33
  -2  -7  -8    1.44    0.40
  -2  -7  -8    0.94    0.27
  -2  -7  -8    0.85    0.27
  -2  -7  -8    0.78    0.41
   5   7   9    0.84    0.42
   5   7   9    0.25    0.34
   5   7   9    0.47    0.42
   5   7   9   -0.18    0.22
  -5  -7  -9    0.34    0.39
  -5  -7  -9    0.32    0.39
  -5  -7  -9    0.02    0.22
  -5  -7  -9    1.22    0.73
  -5  -7  -9    0.45    0.30
  -5  -7  -9   -0.03    0.20
  -6   6   5    0.81    0.43
  -6   6   5    0.20    0.27
   6  -6  -5    0.21    0.27
   6  -6  -5   -0.03    0.29
   6  -6  -5   -0.44    0.43
  -3   6   6    0.53    0.22
  -3   6   6    0.34    0.21
  -3   6   6    0.69    0.56
  -3   6   6    0.36    0.17
   3  -6  -6    0.24    0.22
   3  -6  -6    0.37    0.21
   3  -6  -6    0.84    0.49
   3  -6  -6    0.72    0.28
   0   6   7    4.30    0.42
   0   6   7    3.90    0.45
   0   6   7    4.68    0.67
   0   6   7    4.44    0.47
   0  -6  -7    4.66    0.50
   0  -6  -7    4.38    0.45
   0  -6  -7    4.16    0.37
   0  -6  -7    4.37    0.48
   3   6   8    1.68    0.45
   3   6   8    1.56    0.55
   3   6   8    2.71    0.68
   3   6   8    1.32    0.33
   3   6   8    1.14    0.25
  -3  -6  -8    1.40    0.33
  -3  -6  -8    1.06    0.33
  -3  -6  -8    1.17    0.39
  -3  -6  -8    2.07    0.47
  -3  -6  -8    1.13    0.27
  -3  -6  -8    1.31    0.31
  -3  -6  -8    2.28    0.63
  -5   5   5    3.36    1.11
  -5   5   5    1.02    0.34
  -5   5   5    0.97    0.44
  -5   5   5    0.70    0.29
   5  -5  -5    2.23    0.76
   5  -5  -5    1.58    0.25
   5  -5  -5    1.32    0.33
   5  -5  -5    1.16    0.34
  -2   5   6    0.12    0.16
  -2   5   6    0.34    0.37
  -2   5   6    0.19    0.19
   2  -5  -6    0.27    0.17
   2  -5  -6    0.07    0.15
   2  -5  -6    0.17    0.20
   1   5   7   45.17    2.24
   1   5   7   45.11    1.28
   1   5   7   45.84    1.37
   1   5   7   44.76    1.17
   1   5   7   46.05    0.96
  -1  -5  -7   44.85    1.21
  -1  -5  -7   46.35    1.39
  -1  -5  -7   44.95    1.30
  -1  -5  -7   45.30    1.06
  -1  -5  -7   44.82    1.34
   4   5   8    0.13    0.20
   4   5   8   -0.50    0.26
   4   5   8   -0.04    0.19
   4   5   8    0.02    0.25
  -4  -5  -8   -0.10    0.22
  -4  -5  -8   -0.39    0.32
  -4  -5  -8   -0.01    0.25
  -4  -5  -8    0.08    0.51
  -4  -5  -8   -0.17    0.17
  -4  -5  -8   -0.09    0.25
  -4  -5  -8    0.04    0.16
  -4  -5  -8    0.39    0.31
  -7   4   4    0.65    0.37
  -7   4   4   -0.11    0.28
   7  -4  -4    0.01    0.22
   7  -4  -4   -0.03    0.22
   7  -4  -4    0.48    0.29
   7  -4  -4    1.04    0.80
   7  -4  -4    0.22    0.30
  -4   4   5    3.71    0.55
  -4   4   5    2.74    0.42
  -4   4   5    3.21    0.26
  -4   4   5    4.96    1.02
   4  -4  -5    4.40    0.84
   4  -4  -5    2.41    0.37
   4  -4  -5    3.13    0.41
   4  -4  -5    3.14    0.29
  -1   4   6    8.02    0.52
  -1   4   6    8.55    0.51
  -1   4   6    8.13    0.52
   1  -4  -6    8.15    0.47
   1  -4  -6    8.38    0.51
   1  -4  -6    8.17    0.54
   2   4   7    1.27    0.34
   2   4   7    0.61    0.21
   2   4   7    0.79    0.25
   2   4   7    1.14    0.43
  -2  -4  -7    0.96    0.29
  -2  -4  -7    0.61    0.18
  -2  -4  -7    0.95    0.30
  -2  -4  -7    0.55    0.16
  -2  -4  -7    0.83    0.25
   5   4   8    3.69    0.52
   5   4   8    4.56    0.61
   5   4   8    3.54    0.51
   5   4   8    4.36    0.63
   5   4   8    4.68    0.70
  -5  -4  -8    4.65    0.41
  -5  -4  -8    8.23    1.42
  -5  -4  -8    3.24    0.49
  -5  -4  -8    4.00    0.54
  -5  -4  -8    7.93    1.15
  -6   3   4    0.38    0.26
  -6   3   4    0.08    0.18
  -6   3   4    0.31    0.25
  -6   3   4    0.65    0.42
   6  -3  -4    0.52    0.44
   6  -3  -4    0.59    0.27
   6  -3  -4    0.35    0.24
   6  -3  -4    0.32    0.21
   6  -3  -4    0.23    0.21
  -3   3   5    1.21    0.28
  -3   3   5    1.05    0.26
  -3   3   5    1.43    0.23
  -3   3   5    1.17    0.55
  -3   3   5    0.94    0.21
   3  -3  -5    0.86    0.24
   3  -3  -5    0.82    0.45
   3  -3  -5    0.66    0.26
   3  -3  -5    0.68    0.15
   0   3   6    0.08    0.10
   0   3   6   -0.24    0.18
   0   3   6    0.24    0.19
   0   3   6    0.12    0.17
   0  -3  -6    0.24    0.16
   0  -3  -6    0.03    0.08
   0  -3  -6    0.22    0.15
   3   3   7    0.67    0.23
   3   3   7    0.68    0.31
   3   3   7    0.93    0.32
   3   3   7    0.45    0.24
   3   3   7    0.53    0.19
   3   3   7    0.43    0.26
   3   3   7    1.09    0.39
  -3  -3  -7    0.80    0.29
  -3  -3  -7    0.80    0.21
  -3  -3  -7    0.71    0.27
  -3  -3  -7    0.50    0.19
   6   3   8   -0.19    0.24
   6   3   8   -0.06    0.21
   6   3   8    0.68    0.30
   6   3   8    0.06    0.31
  -6  -3  -8   -0.49    0.26
  -6  -3  -8    0.40    0.26
  -6  -3  -8    1.00    0.41
  -5   2   4    0.38    0.24
  -5   2   4    1.19    0.43
  -5   2   4    2.71    0.97
  -5   2   4    0.51    0.22
  -5   2   4    0.68    0.23
   5  -2  -4    0.43    0.24
   5  -2  -4    0.80    0.30
   5  -2  -4    1.04    0.54
   5  -2  -4    0.51    0.23
   5  -2  -4    0.43    0.22
   5  -2  -4    0.80    0.25
  -2   2   5   43.69    1.32
  -2   2   5   41.53    1.45
  -2   2   5   43.63    1.71
   2  -2  -5   43.23    1.17
   2  -2  -5   43.31    1.47
   2  -2  -5   42.56    1.04
   2  -2  -5   43.81    1.24
   2  -2  -5   42.76    0.90
   1   2   6   10.77    0.35
   1   2   6   11.36    0.62
   1   2   6   11.67    0.56
   1   2   6   11.43    0.77
   1   2   6    9.69    0.51
  -1  -2  -6   10.99    0.43
  -1  -2  -6    9.90    0.52
  -1  -2  -6   10.52    0.53
  -1  -2  -6   11.59    0.66
   4   2   7    2.97    0.49
   4   2   7    3.33    0.51
   4   2   7    3.47    0.51
   4   2   7    3.11    0.24
   4   2   7    3.80    0.51
   4   2   7    2.07    0.31
  -4  -2  -7    2.94    0.30
  -4  -2  -7    5.61    0.75
  -4  -2  -7    3.01    0.44
  -4  -2  -7    2.87    0.43
  -4  -2  -7    5.32    0.96
   7   2   8    0.08    0.28
   7   2   8   -0.44    0.32
   7   2   8    0.31    0.33
   7   2   8   -0.06    0.25
  -7  -2  -8    0.54    0.61
  -7  -2  -8   -0.28    0.34
  -7  -2  -8    0.85    0.34
  -7  -2  -8   -0.04    0.19
  -7   1   3    3.38    0.42
  -7   1   3    3.66    0.58
  -7   1   3    2.65    0.51
  -7   1   3    5.07    0.69
  -7   1   3    3.97    0.55
   7  -1  -3    4.39    0.53
   7  -1  -3    3.77    0.59
   7  -1  -3    3.66    0.52
   7  -1  -3    3.47    0.41
   7  -1  -3    5.88    1.13
  -4   1   4   14.32    0.64
  -4   1   4   13.95    0.80
  -4   1   4   15.40    0.72
  -4   1   4   13.44    1.18
  -4   1   4   15.19    0.87
   4  -1  -4   13.89    0.60
   4  -1  -4   14.56    0.78
   4  -1  -4   13.96    1.01
   4  -1  -4   13.28    0.68
   4  -1  -4   14.69    0.69
   4  -1  -4   14.19    0.82
  -1   1   5    7.75    0.49
  -1   1   5    7.11    0.61
  -1   1   5    7.23    0.46
  -1   1   5    7.43    0.52
   1  -1  -5    7.48    0.46
   1  -1  -5    7.76    0.60
   1  -1  -5    7.36    0.28
   2   1   6    8.48    0.58
   2   1   6    8.10    0.45
   2   1   6    9.12    0.58
   2   1   6    8.98    0.36
   2   1   6    8.40    0.42
   2   1   6    8.72    0.47
   2   1   6    8.87    0.61
  -2  -1  -6    8.39    0.44
  -2  -1  -6    9.15    0.64
  -2  -1  -6    8.49    0.55
   5   1   7    5.79    0.43
   5   1   7    5.26    0.57
   5   1   7    5.68    0.71
   5   1   7    5.28    0.59
   5   1   7    4.88    0.65
   5   1   7    5.50    0.56
  -5  -1  -7    6.12    0.77
  -5  -1  -7    5.72    0.79
  -5  -1  -7    5.32    0.62
  -5  -1  -7    5.89    0.62
  -5  -1  -7    6.01    0.59
  -6   0   3    1.68    0.97
  -6   0   3    2.12    0.33
  -6   0   3    0.69    0.28
  -6   0   3    1.37    0.53
  -6   0   3    1.45    0.35
  -6   0   3    1.91    0.34
   6   0  -3    1.57    0.40
   6   0  -3    1.87    0.40
   6   0  -3    2.02    0.73
   6   0  -3    1.66    0.37
   6   0  -3    1.06    0.31
  -3   0   4    8.18    0.82
  -3   0   4    8.10    0.54
  -3   0   4    7.18    0.55
  -3   0   4    8.10    0.60
   3   0  -4    7.93    0.80
   3   0  -4    7.72    0.68
   3   0  -4    7.38    0.42
   3   0  -4    7.52    0.33
   3   0  -4    7.58    0.51
   0   0   5   19.59    0.79
   0   0   5   19.59    0.55
   0   0   5   20.38    0.72
   0   0  -5   20.19    0.72
   0   0  -5   19.69    0.94
   0   0  -5   20.11    0.55
   0   0  -5   19.76    0.81
   3   0   6   12.05    0.49
   3   0   6   13.10    0.66
   3   0   6   12.85    0.54
   3   0   6   11.69    0.68
   3   0   6   12.72    0.81
   3   0   6   13.15    0.75
  -3   0  -6   11.99    0.81
  -3   0  -6   12.23    0.71
  -3   0  -6   12.28    1.07
  -3   0  -6   12.84    0.49
   6   0   7    0.16    0.26
   6   0   7   -0.42    0.21
   6   0   7    0.03    0.20
   6   0   7   -0.15    0.20
   6   0   7   -0.01    0.30
   6   0   7   -0.11    0.15
  -6   0  -7   -0.07    0.27
  -6   0  -7   -0.15    0.25
  -6   0  -7   -0.19    0.38
  -6   0  -7    0.99    0.50
  -6   0  -7    0.17    0.21
  -6   0  -7   -0.23    0.24
  -5  -1   3    0.41    0.40
  -5  -1   3   -0.26    0.18
  -5  -1   3   -0.17    0.54
  -5  -1   3    0.23    0.22
  -5  -1   3   -0.09    0.18
  -5  -1   3    0.32    0.67
  -5  -1   3    0.21    0.31
  -5  -1   3    0.37    0.22
   5   1  -3    0.25    0.27
   5   1  -3   -0.10    0.37
   5   1  -3    0.01    0.18
   5   1  -3   -0.04    0.15
   5   1  -3    0.32    0.21
  -2  -1   4    2.45    0.37
  -2  -1   4    4.20    0.81
  -2  -1   4    2.57    0.24
  -2  -1   4    1.92    0.27
   2   1  -4    4.07    0.78
   2   1  -4    2.80    0.23
   2   1  -4    2.82    0.43
   2   1  -4    2.61    0.36
   2   1  -4    2.37    0.32
   1  -1   5   66.14    1.37
   1  -1   5   64.53    1.43
   1  -1   5   66.34    1.44
   1  -1   5   65.08    1.61
  -1   1  -5   65.84    1.52
  -1   1  -5   58.41    2.04
  -1   1  -5   65.31    1.42
   4  -1   6    6.44    0.57
   4  -1   6    6.47    0.48
   4  -1   6    6.33    0.66
   4  -1   6    6.03    0.55
   4  -1   6    6.27    0.62
  -4   1  -6    6.30    0.30
  -4   1  -6    6.63    0.60
  -4   1  -6    6.45    0.47
  -4   1  -6    6.44    0.74
  -4   1  -6    7.90    0.82
  -4   1  -6    6.33    0.51
   7  -1   7   -0.21    0.25
   7  -1   7    0.16    0.35
   7  -1   7    0.11    0.20
   7  -1   7   -0.25    0.22
   7  -1   7    0.34    0.26
  -7   1  -7    0.10    0.21
  -7   1  -7    0.26    0.39
  -7   1  -7    0.41    0.36
  -7   1  -7   -0.27    0.37
  -7   1  -7    1.13    0.54
  -7  -2   2    3.67    0.46
  -7  -2   2    3.82    0.59
  -7  -2   2    4.48    0.51
  -7  -2   2    2.50    0.48
  -7  -2   2    3.60    0.61
   7   2  -2    4.21    1.05
   7   2  -2    3.85    0.58
   7   2  -2    3.33    0.53
   7   2  -2    3.91    0.62
  -4  -2   3    3.84    0.45
  -4  -2   3    5.76    1.11
  -4  -2   3    3.89    0.54
  -4  -2   3    3.56    0.70
  -4  -2   3    2.23    0.34
  -4  -2   3    3.29    0.33
  -4  -2   3    2.97    0.40
  -4  -2   3    6.52    1.19
   4   2  -3    4.61    0.90
   4   2  -3    3.47    0.50
   4   2  -3    5.24    0.85
   4   2  -3    4.03    0.67
   4   2  -3    3.28    0.40
   4   2  -3    3.63    0.44
  -1  -2   4    8.85    0.61
  -1  -2   4    8.66    0.65
  -1  -2   4    8.61    0.65
  -1  -2   4    8.18    0.52
  -1  -2   4    9.15    0.46
   1   2  -4    8.77    0.51
   1   2  -4    8.32    0.45
   2  -2   5   12.15    0.72
   2  -2   5   10.93    0.62
   2  -2   5   11.03    0.52
   2  -2   5   10.67    0.62
  -2   2  -5   10.85    0.51
  -2   2  -5   11.32    0.73
  -2   2  -5   10.54    0.63
   5  -2   6   35.74    1.30
   5  -2   6   32.21    1.22
   5  -2   6   34.12    1.48
   5  -2   6   32.95    1.22
   5  -2   6   34.41    1.37
  -5   2  -6   31.73    1.51
  -5   2  -6   34.17    1.19
  -5   2  -6   36.13    1.72
  -5   2  -6   33.25    1.17
  -5   2  -6   35.55    1.42
  -6  -3   2    1.68    1.45
  -6  -3   2    1.16    0.38
  -6  -3   2    0.72    0.28
  -6  -3   2    1.99    0.47
  -6  -3   2    2.79    1.10
  -6  -3   2    0.40    0.24
   6   3  -2    1.76    0.67
   6   3  -2    0.52    0.23
   6   3  -2    0.94    0.33
  -3  -3   3    1.26    0.66
  -3  -3   3    0.53    0.19
  -3  -3   3    0.55    0.48
  -3  -3   3    0.72    0.25
  -3  -3   3    0.49    0.21
  -3  -3   3    0.73    0.49
  -3  -3   3    0.87    0.19
  -3  -3   3    0.87    0.20
   3   3  -3    0.78    0.23
   3   3  -3    0.65    0.23
   3   3  -3    0.84    0.17
   3   3  -3    1.09    0.47
   3   3  -3    1.20    0.42
   3   3  -3    1.18    0.63
   0  -3   4   39.57    1.28
   0  -3   4   40.16    1.21
   0  -3   4   39.91    1.01
   0  -3   4   38.98    1.31
   0  -3   4   40.01    1.15
   0   3  -4   40.61    1.13
   0   3  -4   40.42    1.28
   0   3  -4   39.93    1.13
   3  -3   5    0.32    0.27
   3  -3   5    0.04    0.14
   3  -3   5   -0.05    0.16
   3  -3   5   -0.13    0.16
  -3   3  -5   -0.11    0.24
  -3   3  -5    0.31    0.25
  -3   3  -5   -0.06    0.12
  -3   3  -5    0.08    0.32
   6  -3   6    0.15    0.21
   6  -3   6    0.09    0.25
   6  -3   6    0.27    0.32
   6  -3   6    0.28    0.24
   6  -3   6    0.07    0.21
  -6   3  -6    0.31    0.38
  -6   3  -6    0.72    0.37
  -6   3  -6    0.01    0.30
  -6   3  -6    0.51    0.49
  -6   3  -6    0.39    0.29
  -5  -4   2    1.61    0.35
  -5  -4   2    3.48    0.98
  -5  -4   2    1.21    0.28
  -5  -4   2    1.19    0.31
  -5  -4   2    2.37    0.69
  -5  -4   2    2.18    0.84
  -5  -4   2    1.57    0.25
  -5  -4   2    1.39    0.33
  -5  -4   2    1.77    0.45
  -5  -4   2    1.99    0.47
  -5  -4   2    4.28    1.34
  -5  -4   2    2.93    0.68
   5   4  -2    2.90    0.70
   5   4  -2    1.87    0.42
   5   4  -2    2.41    0.81
   5   4  -2    2.42    0.60
  -2  -4   3    9.57    0.65
  -2  -4   3    9.00    0.69
  -2  -4   3    8.57    0.49
  -2  -4   3    9.32    0.54
  -2  -4   3    9.64    0.63
  -2  -4   3    8.39    1.07
   2   4  -3    8.75    0.69
   2   4  -3    8.40    0.48
   2   4  -3    8.33    0.58
   2   4  -3    9.05    0.53
   2   4  -3    8.51    0.87
   1  -4   4    5.49    0.56
   1  -4   4    4.98    0.49
   1  -4   4    6.34    0.48
   1  -4   4    6.09    0.54
  -1   4  -4    5.28    0.59
  -1   4  -4    5.11    0.35
  -1   4  -4    5.25    0.51
  -1   4  -4    5.87    0.51
  -1   4  -4    6.05    0.45
   4  -4   5    7.10    0.73
   4  -4   5    6.01    0.62
   4  -4   5    5.91    0.39
   4  -4   5    6.35    0.67
  -4   4  -5    5.61    0.74
  -4   4  -5    6.31    0.49
  -4   4  -5    6.23    0.72
  -4   4  -5    6.26    0.67
  -4   4  -5    5.78    0.41
  -7  -5   1   -0.11    0.20
  -7  -5   1    0.68    0.36
  -7  -5   1   -0.42    0.30
  -7  -5   1   -0.11    0.27
  -7  -5   1    0.34    0.28
   7   5  -1    0.26    0.34
   7   5  -1   -0.35    0.41
  -4  -5   2   -0.60    0.71
  -4  -5   2    0.14    0.20
  -4  -5   2    0.32    0.54
  -4  -5   2    0.21    0.24
  -4  -5   2   -0.14    0.14
  -4  -5   2   -0.13    0.24
  -4  -5   2    0.32    0.40
  -4  -5   2   -0.29    0.16
  -4  -5   2    0.19    0.21
   4   5  -2   -0.37    0.26
   4   5  -2   -0.03    0.18
   4   5  -2   -0.16    0.26
   4   5  -2    0.29    0.39
  -1  -5   3   15.26    1.01
  -1  -5   3   16.64    0.82
  -1  -5   3   16.47    0.81
  -1  -5   3   14.14    0.80
  -1  -5   3   16.32    0.78
   1   5  -3   15.72    1.16
   1   5  -3   15.46    0.73
   1   5  -3   16.57    0.80
   1   5  -3   16.12    0.61
   1   5  -3   15.93    1.01
   1   5  -3   17.55    1.33
   1   5  -3   16.17    0.61
   2  -5   4    2.48    0.37
   2  -5   4    2.37    0.35
   2  -5   4    3.19    0.52
   2  -5   4    3.56    0.42
  -2   5  -4    3.43    0.41
  -2   5  -4    2.74    0.42
  -2   5  -4    3.53    0.49
  -2   5  -4    2.74    0.45
  -2   5  -4    3.42    0.36
   5  -5   5    1.04    0.42
   5  -5   5    0.77    0.32
   5  -5   5    1.20    0.44
  -5   5  -5    1.59    0.54
  -5   5  -5    1.27    0.41
  -5   5  -5    2.19    0.63
  -6  -6   1    0.45    0.30
  -6  -6   1   -0.11    0.33
  -6  -6   1   -1.26    1.01
  -6  -6   1   -0.03    0.23
  -6  -6   1   -0.02    0.22
  -6  -6   1    0.29    0.23
  -6  -6   1    0.36    0.30
   6   6  -1   -0.54    0.21
   6   6  -1   -0.13    0.45
   6   6  -1   -0.22    0.42
  -3  -6   2    1.09    0.33
  -3  -6   2    1.99    0.41
  -3  -6   2    1.25    0.25
  -3  -6   2    2.18    0.35
  -3  -6   2    1.18    0.30
  -3  -6   2    1.26    0.32
  -3  -6   2    1.87    0.58
  -3  -6   2    2.11    1.20
  -3  -6   2    2.73    0.81
   3   6  -2    1.68    0.34
   3   6  -2    1.34    0.30
   3   6  -2    2.08    0.58
   3   6  -2    2.18    0.73
   0  -6   3    0.78    0.25
   0  -6   3    0.98    0.36
   0  -6   3    0.76    0.27
   0   6  -3    0.86    0.58
   0   6  -3    1.30    0.42
   0   6  -3    0.52    0.29
   0   6  -3    0.48    0.19
   0   6  -3    1.07    0.52
   0   6  -3    0.98    0.15
   3  -6   4    3.89    0.46
   3  -6   4    3.85    0.59
   3  -6   4    3.92    0.59
  -3   6  -4    4.18    0.63
  -3   6  -4    3.92    0.55
  -3   6  -4    3.99    0.56
  -3   6  -4    4.04    0.50
   6  -6   5    1.05    0.52
   6  -6   5    0.97    0.31
   6  -6   5    0.45    0.33
  -6   6  -5   -0.42    0.38
  -6   6  -5    0.95    0.47
  -5  -7   1    1.15    0.31
  -5  -7   1    0.53    0.40
  -5  -7   1    1.26    0.44
  -5  -7   1    2.40    0.80
  -5  -7   1    1.58    0.51
  -5  -7   1   -0.23    0.73
  -5  -7   1    2.61    0.98
  -5  -7   1    4.36    1.74
  -5  -7   1    1.29    0.34
  -5  -7   1    0.81    0.33
   5   7  -1    1.78    0.60
   5   7  -1    1.37    0.57
   5   7  -1    2.27    0.85
   5   7  -1    0.78    0.32
  -2  -7   2    9.57    0.71
  -2  -7   2    9.37    0.75
  -2  -7   2    9.25    1.01
  -2  -7   2    9.12    0.70
   2   7  -2    9.98    0.84
   2   7  -2    9.02    0.49
   2   7  -2    9.76    1.02
   2   7  -2    9.02    0.57
   2   7  -2    9.75    0.66
   2   7  -2    8.98    0.80
   2   7  -2    9.07    0.93
   1  -7   3    0.13    0.23
   1  -7   3   -0.18    0.56
   1  -7   3    0.09    0.21
   1  -7   3    0.16    0.31
  -1   7  -3    0.33    0.29
  -1   7  -3    0.15    0.29
  -1   7  -3   -0.36    0.38
  -1   7  -3    0.17    0.58
   4  -7   4    1.18    0.38
   4  -7   4    1.25    0.46
   4  -7   4    1.35    0.29
   4  -7   4    1.41    0.42
  -4   7  -4    1.73    0.59
  -4   7  -4    1.39    0.47
  -4   7  -4    1.25    0.44
  -4   7  -4    3.07    0.68
  -4  -8   1    2.42    0.42
  -4  -8   1    2.64    0.50
  -4  -8   1    3.40    0.67
  -4  -8   1    2.96    0.49
  -4  -8   1    2.56    0.74
  -4  -8   1    2.78    0.43
   4   8  -1    3.49    0.54
   4   8  -1    5.65    1.57
   4   8  -1    2.63    0.42
   4   8  -1    3.85    0.79
  -1  -8   2   10.92    1.12
  -1  -8   2    9.75    0.77
  -1  -8   2   10.66    0.79
  -1  -8   2    9.60    0.65
   1   8  -2    9.26    1.08
   1   8  -2    8.97    0.70
   1   8  -2    8.61    0.91
   1   8  -2    9.14    0.78
   2  -8   3    3.98    0.60
   2  -8   3    4.62    0.58
   2  -8   3    4.74    0.66
   2  -8   3    4.64    0.55
  -2   8  -3    6.47    0.61
  -2   8  -3    4.07    0.56
  -2   8  -3    5.17    0.71
   5  -8   4   -0.21    0.20
   5  -8   4    0.20    0.44
  -5   8  -4   -0.27    0.34
  -5   8  -4    0.94    0.47
  -5   8  -4    0.72    0.47
  -3  -9   1    1.10    0.32
  -3  -9   1    1.87    0.42
  -3  -9   1    1.90    0.44
  -3  -9   1    1.17    0.35
  -3  -9   1    1.32    0.38
  -3  -9   1    2.68    0.59
  -3  -9   1    1.41    0.35
   3   9  -1    1.96    0.81
   3   9  -1    1.67    0.62
   3   9  -1    1.54    0.42
   3   9  -1    1.59    0.70
   3   9  -1    2.03    0.70
   0  -9   2   15.38    1.41
   0  -9   2   14.13    0.95
   0  -9   2   16.59    1.01
   0  -9   2   15.48    0.82
   0   9  -2   16.83    1.25
   0   9  -2   14.33    0.90
   0   9  -2   15.11    1.38
   0   9  -2   15.18    1.00
   3  -9   3    1.03    0.34
   3  -9   3    1.61    0.35
   3  -9   3    1.46    0.46
   3  -9   3    1.06    0.41
  -3   9  -3    3.15    0.83
  -3   9  -3    2.27    0.67
  -3   9  -3    2.04    0.61
  -3   9  -3    1.32    0.43
  -2 -10   1    0.00    0.78
  -2 -10   1    0.11    0.29
  -2 -10   1   -0.25    0.35
   2  10  -1    1.30    0.67
   2  10  -1    1.17    0.69
   2  10  -1    1.51    0.65
   2  10  -1    0.48    0.49
   1 -10   2    0.20    0.27
   1 -10   2    0.07    0.21
  -1  10  -2    1.26    0.63
  -1  10  -2    0.80    0.44
  -1  10  -2    0.74    0.33
   4 -10   3    0.38    0.41
   4 -10   3    0.83    0.39
   4 -10   3    0.60    0.32
  -4  10  -3    0.40    0.44
  -4  10  -3    2.21    0.67
  -1 -11   1    0.35    0.42
  -1 -11   1   -0.39    0.22
  -1 -11   1    0.15    0.38
   1  11  -1    0.15    0.46
   1  11  -1    0.31    0.55
   1  11  -1   -0.01    0.44
   1  11  -1    0.90    0.61
   2 -11   2    0.68    0.33
   2 -11   2    1.09    0.44
   2 -11   2    1.74    0.43
  -2  11  -2    2.23    0.76
  -2  11  -2    2.78    0.66
  -2  11  -2    1.53    0.42
   0 -12   1   -0.06    0.35
   0 -12   1   -0.52    0.35
   0 -12   1    0.52    0.47
   0  12  -1    0.30    0.51
   0  12  -1    0.34    0.50
   0  12  -1    0.66    0.60
   1  13  10    0.39    0.64
   1  13  10    0.04    0.61
  -1 -13 -10    0.28    0.48
  -1  12   9   -0.71    0.54
   1 -12  -9    0.06    0.29
   1 -12  -9    0.05    0.36
   2  12  10    0.18    0.58
   2  12  10    0.33    0.49
   2  12  10    0.18    0.36
   2  12  10   -0.38    0.22
  -2 -12 -10   -0.08    0.38
  -3  11   8    0.68    0.28
  -3  11   8   -0.10    0.28
   3 -11  -8   -0.02    0.45
   3 -11  -8   -0.02    0.31
   3 -11  -8   -0.08    0.28
   3 -11  -8   -0.49    0.43
   0  11   9    9.85    0.80
   0  11   9    8.74    1.09
   0  11   9    8.96    0.64
   0 -11  -9    7.24    0.75
   0 -11  -9    9.39    0.83
   0 -11  -9    7.68    0.74
   3  11  10    2.78    0.76
   3  11  10    2.63    0.66
   3  11  10    1.68    0.74
   3  11  10    1.61    0.43
  -3 -11 -10    1.26    0.47
  -3 -11 -10    1.05    0.23
  -5  10   7    1.84    0.54
  -5  10   7    1.10    0.38
  -5  10   7    1.34    0.48
   5 -10  -7    1.62    0.44
   5 -10  -7    1.40    0.52
   5 -10  -7    3.21    0.85
  -2  10   8    1.58    0.40
  -2  10   8    1.21    0.27
  -2  10   8    0.51    0.31
   2 -10  -8    1.14    0.64
   2 -10  -8    1.45    0.44
   2 -10  -8    0.85    0.32
   2 -10  -8    0.83    0.42
   1  10   9    0.51    0.54
   1  10   9    0.31    0.23
   1  10   9    0.13    0.26
  -1 -10  -9   -0.05    0.18
  -1 -10  -9    0.31    0.34
  -1 -10  -9    0.03    0.30
   4  10  10    1.11    0.44
   4  10  10    0.24    0.48
   4  10  10    1.26    0.45
   4  10  10    2.23    0.67
  -4 -10 -10    3.93    0.94
  -4 -10 -10    0.95    0.60
  -4 -10 -10    0.78    0.42
  -4   9   7    1.15    0.31
  -4   9   7    0.70    0.37
   4  -9  -7    0.85    0.35
   4  -9  -7    0.47    0.33
   4  -9  -7    2.63    0.80
   4  -9  -7    0.97    0.33
  -1   9   8    1.98    0.40
  -1   9   8    1.43    0.36
  -1   9   8    1.36    0.28
  -1   9   8    0.94    0.30
   1  -9  -8    0.85    0.26
   1  -9  -8    1.83    0.41
   1  -9  -8    0.91    0.28
   1  -9  -8    1.08    0.36
   2   9   9    0.38    0.30
   2   9   9    0.33    0.52
   2   9   9    0.28    0.22
   2   9   9    0.39    0.47
  -2  -9  -9    0.21    0.40
  -2  -9  -9    0.12    0.22
  -2  -9  -9    0.26    0.28
  -2  -9  -9   -0.08    0.27
  -2  -9  -9    0.29    0.15
   5   9  10    0.38    0.50
  -5  -9 -10    0.58    0.45
  -6   8   6    0.30    0.35
  -6   8   6    0.50    0.36
  -6   8   6    1.67    0.53
   6  -8  -6    1.10    0.77
   6  -8  -6    0.54    0.41
   6  -8  -6   -0.12    0.33
   6  -8  -6    0.81    0.30
  -3   8   7    1.29    0.34
  -3   8   7    3.07    0.91
  -3   8   7    1.57    0.34
   3  -8  -7    1.73    0.37
   3  -8  -7    1.44    0.33
   3  -8  -7    2.04    0.65
   3  -8  -7    1.10    0.32
   0   8   8    1.91    0.29
   0   8   8    1.63    0.27
   0   8   8    2.20    0.72
   0   8   8    1.64    0.40
   0   8   8    2.05    0.35
   0  -8  -8    1.73    0.37
   0  -8  -8    2.15    0.45
   0  -8  -8    1.59    0.42
   0  -8  -8    1.45    0.28
   3   8   9    0.93    0.49
   3   8   9    0.86    0.30
   3   8   9    1.31    0.45
   3   8   9    1.52    0.60
  -3  -8  -9    1.35    0.27
  -3  -8  -9    1.07    0.32
  -3  -8  -9    1.17    0.41
  -3  -8  -9    2.00    0.51
  -5   7   6    0.53    0.29
  -5   7   6    1.14    0.33
  -5   7   6    1.45    0.44
   5  -7  -6    1.64    0.64
   5  -7  -6    0.66    0.26
   5  -7  -6    0.69    0.30
   5  -7  -6    0.29    0.25
  -2   7   7    1.03    0.28
  -2   7   7    0.79    0.26
  -2   7   7    1.19    0.51
  -2   7   7    0.97    0.18
   2  -7  -7    0.67    0.26
   2  -7  -7    0.69    0.23
   2  -7  -7    1.15    0.30
   1   7   8    8.79    0.53
   1   7   8    7.89    0.58
   1   7   8    8.30    0.85
   1   7   8    8.23    0.66
  -1  -7  -8    7.82    0.65
  -1  -7  -8    7.71    0.45
  -1  -7  -8    7.73    0.67
  -1  -7  -8    8.07    0.63
   4   7   9    0.00    0.33
   4   7   9    0.11    0.31
   4   7   9    0.40    0.40
   4   7   9    0.29    0.23
   4   7   9    0.06    0.25
  -4  -7  -9    0.45    0.25
  -4  -7  -9    0.02    0.27
  -4  -7  -9   -0.17    0.29
  -4  -7  -9   -0.02    0.26
  -4  -7  -9    0.35    0.25
  -4  -7  -9    2.00    0.72
  -4   6   6   10.38    0.84
  -4   6   6    9.30    0.61
  -4   6   6   11.75    1.14
   4  -6  -6    9.74    0.93
   4  -6  -6   10.26    0.82
   4  -6  -6   10.84    0.74
  -1   6   7    0.20    0.22
  -1   6   7    0.33    0.18
  -1   6   7    0.15    0.15
   1  -6  -7    0.20    0.19
   1  -6  -7    0.07    0.20
   1  -6  -7    0.02    0.15
   2   6   8   -0.07    0.23
   2   6   8    0.59    0.49
   2   6   8    0.61    0.42
   2   6   8    0.13    0.19
   2   6   8    0.43    0.18
  -2  -6  -8    0.21    0.22
  -2  -6  -8    0.28    0.21
  -2  -6  -8    0.46    0.19
  -2  -6  -8    0.34    0.24
  -2  -6  -8    0.23    0.26
  -2  -6  -8    0.13    0.26
   5   6   9    1.30    0.38
   5   6   9    1.54    0.67
   5   6   9    1.39    0.43
   5   6   9    2.54    0.80
  -5  -6  -9    0.37    0.30
  -5  -6  -9    2.66    0.58
  -5  -6  -9    2.83    0.95
  -6   5   5   -0.16    0.22
  -6   5   5   -0.12    0.24
  -6   5   5   -0.01    0.31
   6  -5  -5    0.10    0.48
   6  -5  -5    0.18    0.26
   6  -5  -5    0.02    0.27
   6  -5  -5    0.33    0.27
  -3   5   6    1.94    0.65
  -3   5   6    1.52    0.25
  -3   5   6    1.72    0.32
  -3   5   6    1.18    0.28
   3  -5  -6    1.18    0.27
   3  -5  -6    1.05    0.26
   3  -5  -6    1.45    0.26
   3  -5  -6    1.60    0.60
   0   5   7    0.30    0.21
   0   5   7    0.21    0.13
   0   5   7    0.40    0.25
   0  -5  -7   -0.03    0.17
   0  -5  -7    0.28    0.17
   0  -5  -7    0.10    0.11
   3   5   8    2.32    0.41
   3   5   8    2.78    0.53
   3   5   8    3.09    0.62
   3   5   8    2.13    0.54
   3   5   8    1.51    0.29
  -3  -5  -8    4.05    0.79
  -3  -5  -8    2.86    0.48
  -3  -5  -8    2.41    0.53
  -3  -5  -8    2.08    0.35
  -3  -5  -8    1.31    0.31
  -3  -5  -8    3.39    0.61
  -3  -5  -8    1.94    0.31
   6   5   9    0.57    0.33
   6   5   9    0.31    0.25
  -6  -5  -9    0.21    0.31
  -6  -5  -9    1.25    0.55
  -5   4   5    0.16    0.34
  -5   4   5   -0.14    0.19
  -5   4   5    0.16    0.14
  -5   4   5    0.87    0.70
   5  -4  -5    0.00    0.23
   5  -4  -5   -0.07    0.37
   5  -4  -5    0.11    0.18
   5  -4  -5    0.06    0.23
  -2   4   6    3.34    0.53
  -2   4   6    2.84    0.32
  -2   4   6    3.40    0.45
   2  -4  -6    2.42    0.33
   2  -4  -6    2.75    0.33
   2  -4  -6    3.05    0.32
   1   4   7    2.32    0.21
   1   4   7    1.66    0.28
   1   4   7    1.97    0.40
  -1  -4  -7    1.73    0.31
  -1  -4  -7    1.27    0.26
  -1  -4  -7    1.24    0.20
  -1  -4  -7    1.48    0.29
  -1  -4  -7    1.73    0.24
   4   4   8   16.06    0.92
   4   4   8   15.10    0.84
   4   4   8   14.67    0.91
   4   4   8   16.07    0.93
   4   4   8   14.27    0.92
   4   4   8   16.21    0.96
  -4  -4  -8   14.75    0.84
  -4  -4  -8   15.40    0.92
  -4  -4  -8   15.40    0.88
  -4  -4  -8   14.78    0.68
  -4  -4  -8   15.42    0.95
  -4  -4  -8   15.35    0.92
  -7   3   4    0.36    0.31
  -7   3   4   -0.10    0.28
  -7   3   4   -0.12    0.27
   7  -3  -4    0.55    0.35
   7  -3  -4    0.05    0.54
   7  -3  -4    0.56    0.29
   7  -3  -4    0.48    0.26
  -4   3   5    5.86    0.39
  -4   3   5    5.30    0.63
  -4   3   5    4.68    0.50
  -4   3   5    5.50    0.90
  -4   3   5    5.43    0.31
  -4   3   5    5.60    0.52
   4  -3  -5    4.93    0.49
   4  -3  -5    6.18    0.75
   4  -3  -5    5.67    0.49
   4  -3  -5    5.47    0.58
  -1   3   6   67.19    1.53
  -1   3   6   64.34    1.61
  -1   3   6   67.08    1.60
  -1   3   6   65.41    1.52
   1  -3  -6   65.33    1.57
   1  -3  -6   66.83    1.65
   1  -3  -6   67.35    1.54
   2   3   7    0.04    0.25
   2   3   7    0.02    0.16
   2   3   7    0.39    0.30
   2   3   7    0.16    0.13
   2   3   7   -0.04    0.20
   2   3   7    0.02    0.27
  -2  -3  -7    0.06    0.12
  -2  -3  -7    0.09    0.14
  -2  -3  -7    0.00    0.20
  -2  -3  -7   -0.10    0.20
   5   3   8   -0.16    0.19
   5   3   8   -0.15    0.27
   5   3   8   -0.02    0.22
   5   3   8    0.01    0.17
   5   3   8    0.00    0.25
  -5  -3  -8    0.14    0.40
  -5  -3  -8   -0.12    0.21
  -5  -3  -8    0.16    0.24
  -5  -3  -8    0.02    0.14
  -6   2   4    1.50    0.46
  -6   2   4    0.76    0.26
  -6   2   4    0.82    0.49
  -6   2   4    0.45    0.26
   6  -2  -4    0.69    0.33
   6  -2  -4    0.60    0.53
   6  -2  -4    0.91    0.32
   6  -2  -4    0.48    0.21
  -3   2   5    4.64    0.70
  -3   2   5    4.66    0.46
  -3   2   5    4.37    0.41
  -3   2   5    4.15    0.50
   3  -2  -5    4.08    0.61
   3  -2  -5    4.67    0.44
   0   2   6   11.39    0.58
   0   2   6   10.72    0.63
   0   2   6   11.30    0.48
   0  -2  -6   11.06    0.63
   0  -2  -6   10.74    0.46
   0  -2  -6   11.22    0.34
   0  -2  -6   11.09    0.56
   3   2   7    0.91    0.34
   3   2   7    0.34    0.17
   3   2   7    0.80    0.29
   3   2   7    0.52    0.27
   3   2   7    0.87    0.31
  -3  -2  -7    0.81    0.26
  -3  -2  -7    0.97    0.21
  -3  -2  -7    1.13    0.31
   6   2   8    2.06    0.51
   6   2   8    1.28    0.39
   6   2   8    1.09    0.40
   6   2   8    1.59    0.39
  -6  -2  -8    0.35    0.34
  -6  -2  -8    1.80    0.69
  -5   1   4    0.02    0.17
  -5   1   4    0.24    0.21
  -5   1   4    0.39    0.67
  -5   1   4   -0.11    0.15
  -5   1   4    0.05    0.16
  -5   1   4    0.16    0.34
   5  -1  -4    0.14    0.15
   5  -1  -4    0.01    0.19
   5  -1  -4   -0.09    0.16
   5  -1  -4   -0.08    0.17
   5  -1  -4   -0.09    0.18
   5  -1  -4   -0.38    0.35
  -2   1   5    3.97    0.43
  -2   1   5    4.76    0.45
  -2   1   5    3.59    0.60
   2  -1  -5    4.23    0.55
   2  -1  -5    4.27    0.43
   2  -1  -5    3.77    0.25
   2  -1  -5    4.32    0.36
   2  -1  -5    4.66    0.42
   1   1   6    0.02    0.18
   1   1   6    0.05    0.09
   1   1   6    0.01    0.14
   1   1   6   -0.12    0.15
  -1  -1  -6   -0.18    0.19
  -1  -1  -6   -0.03    0.12
  -1  -1  -6    0.06    0.16
   4   1   7   11.84    0.82
   4   1   7   12.15    0.78
   4   1   7   12.16    0.77
   4   1   7   11.46    0.49
   4   1   7   12.45    0.84
   4   1   7   11.96    0.73
  -4  -1  -7   11.83    0.81
  -4  -1  -7   12.70    1.01
  -4  -1  -7   11.65    0.87
  -4  -1  -7   12.19    0.72
  -4  -1  -7   11.11    0.46
   7   1   8    0.00    0.37
   7   1   8   -0.12    0.28
   7   1   8    0.58    0.28
   7   1   8    0.05    0.24
  -7  -1  -8   -0.03    0.37
  -7  -1  -8   -0.81    0.45
  -7   0   3   -0.03    0.27
  -7   0   3    0.14    0.28
  -7   0   3    0.30    0.19
  -7   0   3    0.34    0.42
  -7   0   3   -0.24    0.16
  -7   0   3    0.05    0.25
   7   0  -3    0.57    0.35
   7   0  -3   -0.11    0.18
   7   0  -3    0.44    0.47
   7   0  -3    0.09    0.22
   7   0  -3   -0.03    0.28
  -4   0   4    1.61    0.74
  -4   0   4    0.79    0.23
  -4   0   4    0.82    0.62
  -4   0   4    0.60    0.24
   4   0  -4    1.04    0.38
   4   0  -4    0.90    0.27
   4   0  -4    0.74    0.52
   4   0  -4    0.64    0.20
   4   0  -4    0.92    0.22
   4   0  -4    1.53    0.57
   4   0  -4    0.71    0.22
  -1   0   5   -0.17    0.18
  -1   0   5    0.10    0.16
  -1   0   5    0.06    0.11
  -1   0   5    0.26    0.42
   1   0  -5    0.03    0.13
   1   0  -5    0.09    0.14
   1   0  -5    0.14    0.32
   2   0   6    7.91    0.46
   2   0   6    7.81    0.53
   2   0   6    7.72    0.44
   2   0   6    7.41    0.59
   2   0   6    7.71    0.43
  -2   0  -6    7.60    0.43
  -2   0  -6    7.18    0.51
  -2   0  -6    8.10    0.65
   5   0   7    6.92    0.62
   5   0   7    6.28    0.49
   5   0   7    8.25    0.83
   5   0   7    7.04    0.71
   5   0   7    7.03    0.63
   5   0   7    6.08    0.63
  -5   0  -7    7.30    0.86
  -5   0  -7    6.74    0.63
  -5   0  -7    7.50    0.66
  -5   0  -7    7.66    0.84
  -5   0  -7    7.51    0.62
  -6  -1   3   -0.52    0.57
  -6  -1   3    0.33    0.28
  -6  -1   3    0.31    0.23
  -6  -1   3    0.00    0.22
  -6  -1   3    0.07    0.22
  -6  -1   3    0.59    0.34
   6   1  -3    0.20    0.51
   6   1  -3    0.11    0.20
   6   1  -3    0.18    0.30
   6   1  -3    0.45    0.26
   6   1  -3    0.36    0.20
  -3  -1   4    2.60    0.35
  -3  -1   4    3.64    0.43
  -3  -1   4    5.77    1.31
   3   1  -4    3.78    0.46
   3   1  -4    4.44    0.88
   3   1  -4    3.48    0.33
   3   1  -4    2.55    0.34
   3   1  -4    4.01    0.68
   0  -1   5    5.44    0.43
   0  -1   5    5.04    0.51
   0  -1   5    5.25    0.30
   0  -1   5    4.83    0.46
   0   1  -5    5.43    0.53
   0   1  -5    5.85    0.42
   0   1  -5    5.58    0.63
   0   1  -5    5.12    0.38
   3  -1   6    1.74    0.22
   3  -1   6    1.54    0.35
   3  -1   6    1.26    0.29
   3  -1   6    1.45    0.24
   3  -1   6    1.39    0.28
  -3   1  -6    1.27    0.31
  -3   1  -6    1.10    0.28
  -3   1  -6    1.51    0.21
   6  -1   7   -0.11    0.24
   6  -1   7    0.34    0.20
   6  -1   7   -0.05    0.27
   6  -1   7   -0.09    0.19
   6  -1   7   -0.25    0.21
   6  -1   7    0.56    0.42
  -6   1  -7    0.94    0.68
  -6   1  -7    0.27    0.27
  -6   1  -7    0.49    0.37
  -6   1  -7   -0.26    0.36
  -6   1  -7    0.18    0.41
  -5  -2   3    1.83    0.34
  -5  -2   3    2.37    0.61
  -5  -2   3    2.84    0.86
  -5  -2   3    2.47    0.86
  -5  -2   3    1.72    0.33
  -5  -2   3    2.68    0.45
  -5  -2   3    3.28    0.83
  -5  -2   3    3.16    0.50
   5   2  -3    1.75    0.41
   5   2  -3    2.69    0.69
   5   2  -3    1.73    0.34
   5   2  -3    2.33    0.36
   5   2  -3    2.83    0.41
   5   2  -3    2.79    0.70
  -2  -2   4    0.67    0.21
  -2  -2   4    0.29    0.12
  -2  -2   4    0.49    0.17
  -2  -2   4    0.67    0.45
  -2  -2   4   -0.18    0.41
  -2  -2   4    0.49    0.31
   2   2  -4    0.05    0.13
   2   2  -4    0.74    0.36
   2   2  -4    0.87    0.51
   2   2  -4    0.53    0.17
   2   2  -4    0.62    0.34
   1  -2   5    0.61    0.22
   1  -2   5    0.85    0.23
   1  -2   5    1.21    0.35
   1  -2   5    0.51    0.20
  -1   2  -5    0.57    0.27
  -1   2  -5    0.60    0.18
  -1   2  -5    0.83    0.22
   4  -2   6    1.37    0.26
   4  -2   6    1.20    0.37
   4  -2   6    2.17    0.50
   4  -2   6    1.70    0.21
  -4   2  -6    1.11    0.34
  -4   2  -6    1.44    0.30
  -4   2  -6    3.78    0.80
  -4   2  -6    1.93    0.43
   7  -2   7    0.17    0.42
   7  -2   7    0.39    0.31
   7  -2   7    0.27    0.29
   7  -2   7   -0.06    0.27
   7  -2   7   -0.18    0.22
  -7   2  -7    0.32    0.44
  -7  -3   2    3.31    0.60
  -7  -3   2    4.90    0.57
  -7  -3   2    2.95    0.50
  -7  -3   2    2.99    0.44
  -7  -3   2    3.63    0.62
   7   3  -2    4.34    0.68
   7   3  -2    7.69    1.48
   7   3  -2    3.79    0.51
  -4  -3   3    0.71    0.24
  -4  -3   3    1.49    0.86
  -4  -3   3    0.43    0.24
  -4  -3   3    0.81    0.26
  -4  -3   3    1.00    0.51
  -4  -3   3    0.92    0.19
  -4  -3   3    0.84    0.23
  -4  -3   3    0.47    0.21
  -4  -3   3    1.01    0.57
   4   3  -3    1.03    0.44
   4   3  -3    1.16    0.64
   4   3  -3    1.13    0.32
   4   3  -3    0.87    0.25
   4   3  -3    1.34    0.57
  -1  -3   4    0.91    0.32
  -1  -3   4    0.61    0.22
  -1  -3   4    0.60    0.25
  -1  -3   4    0.53    0.34
  -1  -3   4    0.56    0.21
   1   3  -4    0.74    0.24
   1   3  -4    0.75    0.21
   1   3  -4    0.87    0.58
   2  -3   5   13.57    0.74
   2  -3   5   12.94    0.61
   2  -3   5   13.59    1.20
   2  -3   5   13.37    0.72
  -2   3  -5   13.59    0.61
  -2   3  -5   13.49    0.84
  -2   3  -5   13.43    0.60
  -2   3  -5   13.46    0.74
   5  -3   6    7.89    0.65
   5  -3   6    6.11    0.65
   5  -3   6    7.86    0.78
  -5   3  -6    8.00    0.80
  -5   3  -6    6.97    0.87
  -5   3  -6    8.29    1.09
  -5   3  -6    7.96    0.54
  -5   3  -6    7.97    0.58
  -6  -4   2    1.21    0.36
  -6  -4   2    0.68    0.27
  -6  -4   2    1.06    0.37
  -6  -4   2    0.65    1.27
  -6  -4   2    0.42    0.53
  -6  -4   2    0.81    0.28
  -6  -4   2    0.98    0.32
   6   4  -2    0.72    0.32
   6   4  -2    2.06    0.72
  -3  -4   3   16.30    0.66
  -3  -4   3   16.49    1.35
  -3  -4   3   15.42    0.57
  -3  -4   3   15.18    0.70
  -3  -4   3   16.25    1.01
  -3  -4   3   15.08    1.11
  -3  -4   3   15.22    0.82
   3   4  -3   14.08    0.76
   3   4  -3   15.72    0.88
   3   4  -3   14.96    0.76
   3   4  -3   15.52    0.62
   3   4  -3   16.03    1.22
   3   4  -3   15.69    0.93
   0  -4   4   23.94    1.09
   0  -4   4   22.64    0.92
   0  -4   4   23.57    0.91
   0  -4   4   24.07    0.91
   0   4  -4   22.91    1.54
   0   4  -4   24.33    0.91
   0   4  -4   24.25    0.91
   0   4  -4   23.49    0.83
   0   4  -4   24.35    1.00
   3  -4   5   13.42    0.89
   3  -4   5   12.42    0.79
   3  -4   5   13.61    0.62
   3  -4   5   13.81    0.85
  -3   4  -5   12.45    0.49
  -3   4  -5   12.69    0.84
  -3   4  -5   12.68    0.84
  -3   4  -5   13.00    0.66
  -3   4  -5   12.65    0.93
   6  -4   6    0.38    0.25
   6  -4   6    0.82    0.43
   6  -4   6    0.76    0.32
   6  -4   6    0.78    0.34
   6  -4   6    0.49    0.28
  -6   4  -6    2.07    0.44
  -6   4  -6    0.60    0.47
  -6   4  -6    0.77    0.49
  -6   4  -6    0.86    0.35
  -6   4  -6    2.96    0.79
  -5  -5   2    0.43    0.32
  -5  -5   2    4.98    2.05
  -5  -5   2    0.09    0.18
  -5  -5   2    1.63    0.94
  -5  -5   2   -0.88    0.65
  -5  -5   2    0.24    0.24
  -5  -5   2    0.39    0.21
  -5  -5   2    0.63    0.45
  -5  -5   2   -0.07    0.17
  -5  -5   2    0.54    0.26
   5   5  -2    0.03    0.34
   5   5  -2   -0.21    0.45
   5   5  -2    0.49    0.28
   5   5  -2    0.21    0.39
  -2  -5   3    1.85    0.64
  -2  -5   3    0.61    0.23
  -2  -5   3    1.41    0.32
  -2  -5   3    1.44    0.51
  -2  -5   3    0.85    0.30
  -2  -5   3    0.87    0.23
   2   5  -3    0.98    0.22
   2   5  -3    1.47    0.51
   2   5  -3    1.92    0.41
   2   5  -3    0.83    0.23
   2   5  -3    0.89    0.24
   2   5  -3    0.98    0.56
   1  -5   4    5.22    0.50
   1  -5   4    5.10    0.66
   1  -5   4    5.17    0.56
   1  -5   4    4.59    0.54
   1  -5   4    6.19    0.62
  -1   5  -4    5.60    0.43
  -1   5  -4    5.34    0.52
  -1   5  -4    6.21    0.68
  -1   5  -4    6.25    0.65
   4  -5   5    0.12    0.18
   4  -5   5    0.30    0.29
   4  -5   5    0.49    0.35
   4  -5   5    0.16    0.20
  -4   5  -5    0.50    0.33
  -4   5  -5   -0.21    0.24
  -4   5  -5    0.09    0.32
  -4   5  -5    0.26    0.15
  -4   5  -5    1.07    0.45
  -4  -6   2    0.31    0.23
  -4  -6   2    0.19    0.19
  -4  -6   2    0.47    0.21
  -4  -6   2    0.24    0.21
  -4  -6   2    1.11    0.40
  -4  -6   2    1.38    0.56
  -4  -6   2    0.16    0.22
  -4  -6   2    0.56    1.10
   4   6  -2    0.54    0.44
   4   6  -2    0.42    0.21
   4   6  -2    0.97    0.31
   4   6  -2    0.68    0.63
   4   6  -2    0.43    0.42
  -1  -6   3   -0.03    0.25
  -1  -6   3   -0.05    0.21
  -1  -6   3   -0.13    0.45
  -1  -6   3   -0.13    0.23
   1   6  -3   -0.29    0.33
   1   6  -3   -0.04    0.57
   1   6  -3    0.08    0.14
   1   6  -3    0.41    0.35
   1   6  -3   -0.12    0.17
   2  -6   4    1.81    0.45
   2  -6   4    1.01    0.26
   2  -6   4    1.93    0.32
   2  -6   4    1.34    0.33
  -2   6  -4    1.48    0.33
  -2   6  -4    2.87    0.66
  -2   6  -4    2.77    0.45
  -2   6  -4    2.30    0.44
   5  -6   5    0.19    0.39
   5  -6   5    0.15    0.18
   5  -6   5    0.29    0.38
  -5   6  -5    0.59    0.42
  -5   6  -5    1.76    0.58
  -5   6  -5    1.31    0.51
  -6  -7   1   -0.02    0.22
  -6  -7   1    0.63    0.29
  -6  -7   1    0.30    0.28
  -6  -7   1    0.39    0.29
  -6  -7   1   -0.04    0.25
   6   7  -1    0.38    0.32
   6   7  -1    0.80    0.56
   6   7  -1    0.90    0.64
  -3  -7   2    1.29    0.29
  -3  -7   2    1.58    0.38
  -3  -7   2    1.73    0.36
  -3  -7   2    1.69    0.67
  -3  -7   2    1.41    0.38
  -3  -7   2    1.26    0.34
   3   7  -2    2.72    0.54
   3   7  -2    1.41    0.35
   3   7  -2    2.79    0.76
   3   7  -2    1.39    0.55
   3   7  -2    1.79    0.32
   0  -7   3    0.23    0.53
   0  -7   3    0.50    0.32
   0  -7   3   -0.06    0.21
   0  -7   3    0.32    0.23
   0   7  -3    0.47    0.66
   0   7  -3    0.21    0.34
   0   7  -3    0.18    0.47
   0   7  -3    0.19    0.26
   0   7  -3    0.18    0.14
   3  -7   4    0.24    0.28
   3  -7   4    0.76    0.25
   3  -7   4    0.56    0.28
  -3   7  -4    0.35    0.39
  -3   7  -4    0.64    0.34
  -3   7  -4    0.46    0.29
  -3   7  -4   -0.13    0.26
  -5  -8   1    0.34    0.35
  -5  -8   1    0.70    0.34
  -5  -8   1    0.03    0.25
  -5  -8   1   -0.02    0.26
  -5  -8   1    0.35    0.26
  -5  -8   1    0.41    0.29
   5   8  -1    0.50    0.45
   5   8  -1    1.28    0.68
   5   8  -1    0.48    0.30
  -2  -8   2    0.05    0.25
  -2  -8   2    0.17    0.24
  -2  -8   2    0.39    0.47
  -2  -8   2    0.09    0.29
   2   8  -2    0.06    0.22
   2   8  -2   -0.08    0.29
   2   8  -2   -0.08    0.37
   2   8  -2   -0.07    0.32
   2   8  -2    0.12    0.49
   2   8  -2   -0.04    0.17
   1  -8   3    5.05    0.57
   1  -8   3    5.48    0.60
   1  -8   3    6.24    0.70
  -1   8  -3    5.68    0.75
  -1   8  -3    5.93    0.59
  -1   8  -3    5.81    0.64
  -1   8  -3    5.80    0.70
   4  -8   4    0.36    0.28
   4  -8   4    1.24    0.40
   4  -8   4    0.41    0.25
   4  -8   4    1.39    0.52
  -4   8  -4    1.10    0.55
  -4   8  -4    1.44    0.73
  -4  -9   1   -0.07    0.24
  -4  -9   1   -0.15    0.27
  -4  -9   1   -0.56    0.23
  -4  -9   1   -0.48    0.27
  -4  -9   1   -0.39    0.24
   4   9  -1    0.10    0.37
   4   9  -1   -0.03    0.18
   4   9  -1    0.29    0.34
  -1  -9   2    0.34    0.33
  -1  -9   2   -0.07    0.20
  -1  -9   2    0.08    0.62
  -1  -9   2    0.09    0.24
   1   9  -2    0.42    0.45
   1   9  -2    0.30    0.62
   1   9  -2    0.36    0.27
   1   9  -2    0.14    0.48
   2  -9   3    1.93    0.46
   2  -9   3    3.84    0.56
   2  -9   3    4.22    0.67
   2  -9   3    3.06    0.46
  -2   9  -3    5.29    1.05
  -2   9  -3    4.07    0.59
  -2   9  -3    2.59    0.50
  -3 -10   1    2.13    0.46
  -3 -10   1    0.88    0.32
  -3 -10   1    1.50    0.41
   3  10  -1    3.15    1.01
   3  10  -1    3.31    1.06
   3  10  -1    2.00    0.73
   3  10  -1    3.31    0.79
   0 -10   2    1.04    0.39
   0 -10   2    0.39    0.32
   0 -10   2    0.77    0.38
   0  10  -2    1.31    0.54
   0  10  -2    1.33    0.43
   0  10  -2    1.84    1.13
   0  10  -2    0.35    0.49
   3 -10   3   -0.06    0.29
   3 -10   3    0.39    0.29
  -3  10  -3    0.16    0.37
  -3  10  -3    0.13    0.42
  -3  10  -3    0.14    0.44
  -2 -11   1    0.20    0.34
  -2 -11   1   -0.18    0.34
   2  11  -1    1.53    0.65
   2  11  -1    0.65    0.60
   2  11  -1    0.37    0.47
   2  11  -1   -0.40    0.42
   1 -11   2    0.18    0.30
   1 -11   2    0.41    0.32
  -1  11  -2    0.90    1.00
  -1  11  -2    0.47    0.30
  -1  11  -2   -0.28    0.51
  -1  11  -2    0.55    0.45
  -1 -12   1    0.79    0.42
  -1 -12   1    1.72    0.58
   1  12  -1    2.23    0.86
   1  12  -1    0.83    0.79
   1  12  -1    1.07    0.69
   1  12  -1    1.27    0.55
   0  13  10    0.53    0.69
   0 -13 -10    0.07    0.41
   0 -13 -10   -0.34    0.26
  -2  12   9   -0.57    0.79
  -2  12   9   -0.06    0.26
   2 -12  -9    0.34    0.59
   2 -12  -9    0.65    0.41
   2 -12  -9   -0.42    0.42
   1  12  10    0.92    0.53
   1  12  10    0.01    0.32
   1  12  10    0.40    0.25
   1  12  10    0.47    0.62
  -1 -12 -10   -0.59    0.34
  -1 -12 -10   -0.06    0.23
   4 -11  -8    0.39    0.51
  -1  11   9    5.77    1.34
  -1  11   9    2.80    0.42
  -1  11   9    4.85    0.62
   1 -11  -9    4.18    0.64
   1 -11  -9    3.30    0.48
   1 -11  -9    5.28    0.69
   1 -11  -9    3.36    0.61
   2  11  10   -0.12    0.29
   2  11  10   -0.21    0.45
   2  11  10   -0.12    0.35
   2  11  10    0.18    0.47
  -2 -11 -10   -0.21    0.16
  -2 -11 -10   -0.17    0.30
  -2 -11 -10   -0.07    0.28
  -3  10   8    0.76    0.27
  -3  10   8    0.72    0.35
   3 -10  -8    0.24    0.26
   3 -10  -8    0.38    0.32
   3 -10  -8    2.22    0.76
   0  10   9    0.07    0.27
   0  10   9    0.16    0.56
   0  10   9   -0.04    0.18
   0 -10  -9   -0.07    0.31
   0 -10  -9   -0.04    0.18
   0 -10  -9   -0.05    0.28
   3  10  10   -0.16    0.27
   3  10  10    0.28    0.46
   3  10  10    0.15    0.41
  -3 -10 -10   -0.10    0.25
  -3 -10 -10   -0.02    0.25
   5  -9  -7    0.61    0.56
  -2   9   8    0.13    0.14
  -2   9   8   -0.15    0.20
  -2   9   8   -0.19    0.18
   2  -9  -8    0.28    0.25
   2  -9  -8    0.28    0.23
   2  -9  -8    0.56    0.32
   1   9   9    0.48    0.23
   1   9   9    1.23    0.65
   1   9   9    0.36    0.27
  -1  -9  -9    0.85    0.40
  -1  -9  -9    0.26    0.17
  -1  -9  -9    0.54    0.31
   4   9  10   -0.08    0.33
   4   9  10   -0.17    0.36
   4   9  10    0.23    0.44
   4   9  10   -0.12    0.22
  -4  -9 -10   -0.12    0.28
  -4  -9 -10    0.32    0.30
  -4   8   7    1.37    0.35
  -4   8   7    2.54    0.44
   4  -8  -7    1.61    0.38
   4  -8  -7    1.89    0.40
   4  -8  -7    2.52    0.75
   4  -8  -7    0.79    0.30
  -1   8   8    0.12    0.21
  -1   8   8    0.21    0.25
  -1   8   8    0.26    0.20
  -1   8   8    0.28    0.19
   1  -8  -8    0.12    0.16
   1  -8  -8   -0.03    0.23
   1  -8  -8    0.14    0.28
   1  -8  -8   -0.43    0.17
   2   8   9    1.26    0.42
   2   8   9    0.79    0.29
   2   8   9    1.96    0.58
   2   8   9    1.59    0.62
  -2  -8  -9    1.61    0.45
  -2  -8  -9    1.21    0.33
  -2  -8  -9    1.32    0.37
  -2  -8  -9    1.48    0.45
  -2  -8  -9    0.79    0.23
  -2  -8  -9    2.02    0.59
  -2  -8  -9    0.97    0.15
   5   8  10    0.05    0.30
   5   8  10    0.62    0.40
   5   8  10   -0.29    0.29
   5   8  10    0.47    0.49
  -5  -8 -10    0.88    0.44
  -5  -8 -10   -0.06    0.28
  -5  -8 -10   -0.18    0.27
  -6   7   6    0.89    0.34
  -6   7   6    1.48    0.54
  -6   7   6    0.62    0.35
   6  -7  -6    0.70    0.40
   6  -7  -6    0.82    0.24
   6  -7  -6    0.48    0.33
   6  -7  -6    0.73    0.38
   6  -7  -6    2.02    0.74
  -3   7   7    0.54    0.22
  -3   7   7    0.98    0.66
  -3   7   7    0.23    0.21
   3  -7  -7    0.31    0.22
   3  -7  -7    0.54    0.26
   3  -7  -7    0.51    0.56
   3  -7  -7    0.59    0.27
   0   7   8    8.87    0.60
   0   7   8    8.90    0.57
   0   7   8    8.99    0.67
   0   7   8    9.47    0.61
   0  -7  -8    9.33    0.70
   0  -7  -8   10.93    0.73
   0  -7  -8   10.02    0.68
   0  -7  -8    9.38    0.57
   3   7   9   -0.12    0.21
   3   7   9    0.42    0.30
   3   7   9    0.10    0.17
   3   7   9   -0.12    0.30
   3   7   9    0.17    0.38
  -3  -7  -9    0.13    0.24
  -3  -7  -9    0.38    0.29
  -3  -7  -9    0.14    0.25
  -3  -7  -9   -0.23    0.18
  -3  -7  -9   -0.04    0.21
  -3  -7  -9    0.20    0.25
  -5   6   6    0.75    0.32
  -5   6   6    0.72    0.59
  -5   6   6    3.22    1.16
  -5   6   6    0.54    0.27
   5  -6  -6    0.94    0.25
   5  -6  -6    0.98    0.64
   5  -6  -6    0.69    0.32
  -2   6   7    1.85    0.49
  -2   6   7    0.52    0.22
  -2   6   7    1.25    0.28
   2  -6  -7    0.75    0.24
   2  -6  -7    0.97    0.28
   2  -6  -7    0.67    0.23
   1   6   8    0.12    0.50
   1   6   8   -0.41    0.21
   1   6   8    0.04    0.12
   1   6   8    0.57    0.24
   1   6   8    0.02    0.19
  -1  -6  -8   -0.06    0.29
  -1  -6  -8    0.20    0.16
  -1  -6  -8    0.14    0.24
  -1  -6  -8   -0.01    0.19
  -1  -6  -8    0.22    0.24
  -1  -6  -8    0.12    0.10
  -1  -6  -8    0.06    0.19
   4   6   9    0.86    0.49
   4   6   9    0.48    0.25
   4   6   9    0.52    0.31
   4   6   9    0.40    0.36
   4   6   9    0.48    0.42
  -4  -6  -9    0.55    0.22
  -4  -6  -9    0.36    0.21
  -4  -6  -9    0.21    0.41
  -4  -6  -9    0.31    0.41
  -4  -6  -9    0.20    0.28
  -7   5   5    0.07    0.35
  -7   5   5   -0.15    0.29
   7  -5  -5    0.48    0.38
   7  -5  -5    0.45    0.62
   7  -5  -5   -0.17    0.25
   7  -5  -5    1.19    0.40
   7  -5  -5    0.76    0.32
  -4   5   6    5.94    0.50
  -4   5   6    6.64    0.92
  -4   5   6    5.67    0.69
   4  -5  -6    5.73    0.65
   4  -5  -6    5.78    0.75
   4  -5  -6    5.65    0.41
   4  -5  -6    5.53    0.56
  -1   5   7    1.25    0.31
   1  -5  -7    0.75    0.36
   1  -5  -7    1.35    0.26
   1  -5  -7    0.79    0.18
   2   5   8    2.76    0.41
   2   5   8    3.74    0.54
   2   5   8    4.32    0.61
   2   5   8    3.44    0.53
   2   5   8    3.29    0.43
  -2  -5  -8    2.28    0.40
  -2  -5  -8    3.67    0.52
  -2  -5  -8    3.67    0.41
  -2  -5  -8    3.07    0.38
   5   5   9    0.57    0.29
   5   5   9    1.59    0.41
   5   5   9    1.44    0.56
   5   5   9    1.37    0.41
   5   5   9    1.89    0.41
  -5  -5  -9    1.27    0.60
  -5  -5  -9    1.85    0.51
  -5  -5  -9    2.73    0.90
  -5  -5  -9    0.83    0.25
  -5  -5  -9    0.48    0.32
  -6   4   5    0.23    0.18
  -6   4   5    1.12    0.42
  -6   4   5    0.13    0.23
  -6   4   5    0.23    0.25
   6  -4  -5    0.75    0.44
   6  -4  -5    0.02    0.21
   6  -4  -5    0.55    0.53
   6  -4  -5    0.81    0.31
   6  -4  -5    0.25    0.23
  -3   4   6    0.81    0.28
  -3   4   6    0.87    0.23
  -3   4   6    0.42    0.21
  -3   4   6    1.13    0.55
   3  -4  -6    1.18    0.57
   3  -4  -6    0.50    0.20
   3  -4  -6    0.89    0.32
   3  -4  -6    0.60    0.20
   0   4   7    1.87    0.31
   0   4   7    2.61    0.43
   0   4   7    1.05    0.17
   0  -4  -7    0.96    0.16
   0  -4  -7    1.19    0.23
   3   4   8    1.36    0.31
   3   4   8    2.58    0.47
   3   4   8    1.44    0.27
   3   4   8    1.75    0.35
   3   4   8    2.91    0.56
  -3  -4  -8    1.40    0.27
  -3  -4  -8    1.82    0.38
  -3  -4  -8    2.85    0.52
  -3  -4  -8    1.18    0.25
  -5   3   5    3.78    0.51
  -5   3   5    6.79    0.63
  -5   3   5    5.78    0.53
  -5   3   5    8.02    1.09
  -5   3   5    6.10    0.44
   5  -3  -5    5.12    0.53
   5  -3  -5    5.49    0.51
   5  -3  -5    5.50    0.77
   5  -3  -5    5.86    0.56
   5  -3  -5    5.42    0.59
  -2   3   6   23.93    0.94
  -2   3   6   23.98    1.12
  -2   3   6   24.31    0.93
   2  -3  -6   24.50    0.92
   2  -3  -6   24.81    0.72
   2  -3  -6   24.63    0.95
   1   3   7   13.46    0.69
   1   3   7   13.74    0.73
   1   3   7   14.13    0.42
  -1  -3  -7   14.81    0.67
  -1  -3  -7   14.18    0.54
  -1  -3  -7   13.97    0.66
  -1  -3  -7   14.93    0.77
   4   3   8    0.76    0.38
   4   3   8    0.46    0.31
   4   3   8    0.44    0.30
   4   3   8    0.90    0.34
   4   3   8    0.25    0.17
   4   3   8    0.07    0.23
  -4  -3  -8    0.21    0.16
  -4  -3  -8    0.69    0.28
  -4  -3  -8    0.49    0.29
  -4  -3  -8    0.54    0.33
   7   3   9    1.06    0.38
   7   3   9    0.59    0.38
   7   3   9   -0.04    0.37
   7   3   9    0.06    0.32
  -7  -3  -9   -0.29    0.34
  -7   2   4    0.55    0.53
  -7   2   4    0.34    0.30
  -7   2   4    0.71    0.37
  -7   2   4    1.02    0.33
   7  -2  -4    0.41    0.27
   7  -2  -4    0.23    0.29
   7  -2  -4    0.50    0.30
   7  -2  -4    0.82    0.29
   7  -2  -4    1.68    0.79
  -4   2   5   -0.09    0.60
  -4   2   5    0.51    0.29
  -4   2   5    0.07    0.18
  -4   2   5    0.07    0.16
   4  -2  -5    0.16    0.41
   4  -2  -5    0.14    0.15
   4  -2  -5    0.43    0.23
   4  -2  -5    0.34    0.19
   4  -2  -5    0.28    0.21
  -1   2   6  275.04    4.59
  -1   2   6  263.69    4.79
  -1   2   6  276.05    4.52
  -1   2   6  271.49    4.63
   1  -2  -6  267.01    4.80
   1  -2  -6  263.45    4.56
   1  -2  -6  276.79    4.22
   1  -2  -6  281.30    4.54
   2   2   7    3.75    0.46
   2   2   7    3.35    0.41
   2   2   7    3.23    0.36
   2   2   7    3.56    0.34
   2   2   7    3.41    0.31
   2   2   7    3.54    0.46
  -2  -2  -7    4.10    0.53
  -2  -2  -7    3.22    0.41
  -2  -2  -7    3.82    0.37
   5   2   8    2.19    0.47
   5   2   8    1.57    0.42
   5   2   8    1.68    0.49
   5   2   8    1.18    0.28
   5   2   8    1.37    0.17
   5   2   8    2.05    0.44
  -5  -2  -8    1.74    0.47
  -5  -2  -8    1.15    0.33
  -5  -2  -8    1.48    0.20
  -6   1   4    2.77    0.39
  -6   1   4    2.29    0.40
  -6   1   4    2.26    0.28
  -6   1   4    3.69    0.70
   6  -1  -4    3.09    0.48
   6  -1  -4    2.69    0.42
   6  -1  -4    2.43    0.39
   6  -1  -4    3.88    0.90
  -3   1   5    4.68    0.50
  -3   1   5    4.85    0.46
  -3   1   5    4.74    0.76
  -3   1   5    5.07    0.48
   3  -1  -5    5.16    0.30
   3  -1  -5    5.11    0.36
   3  -1  -5    5.07    0.60
   3  -1  -5    5.61    0.46
   3  -1  -5    4.42    0.43
   3  -1  -5    4.57    0.66
   3  -1  -5    5.65    0.65
   0   1   6    0.21    0.18
   0   1   6   -0.04    0.18
   0   1   6    0.08    0.10
   0  -1  -6    0.16    0.14
   0  -1  -6    0.25    0.20
   0  -1  -6    0.01    0.15
   0  -1  -6    0.12    0.36
   3   1   7    6.97    0.51
   3   1   7    6.97    0.60
   3   1   7    6.57    0.57
   3   1   7    7.71    0.65
   3   1   7    6.86    0.35
  -3  -1  -7    7.42    0.43
  -3  -1  -7    6.15    0.67
  -3  -1  -7    6.21    0.56
   6   1   8    1.78    0.48
   6   1   8    1.78    0.40
   6   1   8    0.94    0.58
   6   1   8    1.76    0.52
   6   1   8    0.99    0.19
   6   1   8    3.22    0.52
  -6  -1  -8    1.72    0.49
  -6  -1  -8    3.63    1.11
  -6  -1  -8    2.79    0.55
  -6  -1  -8    2.95    0.74
  -5   0   4    1.53    0.33
  -5   0   4    2.29    0.61
  -5   0   4    3.72    1.07
  -5   0   4    1.70    0.34
  -5   0   4    1.71    0.33
  -5   0   4    1.75    0.34
   5   0  -4    2.06    0.36
   5   0  -4    2.01    0.32
   5   0  -4    3.21    0.85
   5   0  -4    1.45    0.37
   5   0  -4    1.05    0.26
  -2   0   5    0.67    0.49
  -2   0   5    0.17    0.19
  -2   0   5    0.51    0.18
   2   0  -5    0.93    0.30
   2   0  -5    0.56    0.14
   2   0  -5    0.11    0.34
   2   0  -5    0.24    0.12
   2   0  -5    0.39    0.10
   1   0   6    7.60    0.48
   1   0   6    7.27    0.45
   1   0   6    7.11    0.57
   1   0   6    7.95    0.36
  -1   0  -6    6.70    0.43
  -1   0  -6    7.04    0.45
  -1   0  -6    7.25    0.61
   4   0   7   12.14    0.59
   4   0   7   10.80    0.79
   4   0   7   12.43    0.75
   4   0   7   12.09    0.76
   4   0   7   12.53    0.88
  -4   0  -7   13.05    1.02
  -4   0  -7   10.86    0.79
  -4   0  -7   11.87    0.79
  -4   0  -7   12.01    0.47
  -4   0  -7   13.35    0.94
  -4   0  -7   12.77    0.73
   7   0   8   -0.26    0.24
   7   0   8    0.20    0.28
   7   0   8    0.18    0.26
   7   0   8    0.31    0.44
   7   0   8   -0.13    0.17
  -7   0  -8   -0.40    0.42
  -7   0  -8    0.94    0.58
  -7  -1   3    0.19    0.29
  -7  -1   3    0.49    0.24
  -7  -1   3   -0.37    0.18
  -7  -1   3   -0.08    0.21
  -7  -1   3    0.34    0.26
   7   1  -3    0.22    0.26
   7   1  -3    0.00    0.27
   7   1  -3    0.01    0.20
   7   1  -3    0.43    0.29
   7   1  -3   -0.20    0.44
  -4  -1   4   -0.01    0.17
  -4  -1   4    0.48    0.61
  -4  -1   4    0.40    0.36
  -4  -1   4    0.11    0.18
   4   1  -4    0.15    0.40
   4   1  -4    0.22    0.16
   4   1  -4    0.19    0.33
   4   1  -4    0.17    0.35
   4   1  -4    0.43    0.25
   4   1  -4    0.14    0.14
  -1  -1   5    5.46    0.53
  -1  -1   5    5.40    0.46
   1   1  -5    4.66    0.72
   1   1  -5    5.84    0.45
   1   1  -5    5.20    0.35
   2  -1   6   -0.02    0.14
   2  -1   6   -0.04    0.15
   2  -1   6    0.25    0.21
   2  -1   6    0.08    0.14
  -2   1  -6    0.10    0.18
  -2   1  -6    0.08    0.12
  -2   1  -6    0.02    0.25
   5  -1   7    0.48    0.20
   5  -1   7    1.12    0.42
   5  -1   7    0.98    0.32
   5  -1   7    1.49    0.41
   5  -1   7    1.47    0.41
   5  -1   7    1.03    0.38
  -5   1  -7    1.31    0.37
  -5   1  -7    1.85    0.47
  -5   1  -7    1.13    0.32
  -5   1  -7    1.15    0.37
  -5   1  -7    1.62    0.69
  -6  -2   3   -1.05    0.61
  -6  -2   3    0.36    0.33
  -6  -2   3    0.10    0.22
  -6  -2   3    0.14    0.28
  -6  -2   3    0.27    0.29
  -6  -2   3    1.33    0.82
   6   2  -3    0.22    0.23
   6   2  -3   -0.07    0.23
   6   2  -3    0.24    0.49
   6   2  -3    0.17    0.22
   6   2  -3    0.33    0.21
  -3  -2   4    1.10    0.68
  -3  -2   4    0.67    0.18
  -3  -2   4    0.19    0.20
  -3  -2   4    0.67    0.16
  -3  -2   4    0.50    0.20
  -3  -2   4    0.76    0.56
   3   2  -4    1.00    0.32
   3   2  -4    0.65    0.16
   3   2  -4    0.73    0.26
   3   2  -4    0.69    0.40
   3   2  -4    0.47    0.34
   3   2  -4    0.22    0.49
   0  -2   5    2.08    0.25
   0  -2   5    2.50    0.39
   0  -2   5    2.74    0.35
   0  -2   5    2.46    0.27
   0  -2   5    2.51    0.38
   0   2  -5    2.50    0.35
   0   2  -5    2.04    0.36
   3  -2   6    0.15    0.16
   3  -2   6    0.15    0.24
   3  -2   6   -0.33    0.17
   3  -2   6    0.13    0.15
  -3   2  -6    0.03    0.23
  -3   2  -6    0.05    0.69
  -3   2  -6   -0.13    0.22
  -3   2  -6    0.01    0.14
   6  -2   7   -0.27    0.19
   6  -2   7   -0.14    0.20
   6  -2   7   -0.08    0.24
   6  -2   7   -0.35    0.21
   6  -2   7   -0.45    0.27
  -6   2  -7    1.45    0.59
  -6   2  -7    0.95    0.40
  -6   2  -7    0.36    0.25
  -6   2  -7   -0.34    0.29
  -6   2  -7    0.05    0.33
  -5  -3   3    0.60    0.27
  -5  -3   3    1.03    0.29
  -5  -3   3    1.64    0.96
  -5  -3   3    0.72    0.31
  -5  -3   3    0.83    0.27
  -5  -3   3    1.19    0.56
  -5  -3   3    0.45    0.48
  -5  -3   3    0.91    0.29
   5   3  -3    1.72    0.60
   5   3  -3    1.19    0.47
   5   3  -3    0.93    0.27
   5   3  -3    0.86    0.35
   5   3  -3    2.10    0.71
  -2  -3   4    3.67    1.57
  -2  -3   4    1.94    0.27
  -2  -3   4    2.34    0.39
  -2  -3   4    2.43    0.28
  -2  -3   4    3.18    0.60
  -2  -3   4    2.37    0.18
  -2  -3   4    3.20    0.77
  -2  -3   4    1.40    0.26
   2   3  -4    1.77    0.34
   2   3  -4    3.22    0.41
   2   3  -4    1.60    0.24
   2   3  -4    3.77    0.61
   2   3  -4    3.32    0.59
   2   3  -4    2.45    0.69
   1  -3   5    0.99    0.28
   1  -3   5    0.46    0.22
   1  -3   5    0.87    0.22
   1  -3   5    1.13    0.28
   1  -3   5    1.05    0.38
  -1   3  -5    0.86    0.24
  -1   3  -5    0.62    0.28
  -1   3  -5    0.76    0.22
   4  -3   6    2.73    0.44
   4  -3   6    2.60    0.35
   4  -3   6    3.51    0.33
   4  -3   6    3.47    0.52
  -4   3  -6    4.64    0.83
  -4   3  -6    3.18    0.37
  -4   3  -6    3.21    0.52
  -4   3  -6    3.03    0.48
  -7  -4   2    1.31    0.38
  -7  -4   2    3.08    0.53
  -7  -4   2    1.11    0.37
  -7  -4   2    0.83    0.33
   7   4  -2    1.54    0.67
   7   4  -2    1.41    0.44
  -4  -4   3    0.51    0.20
  -4  -4   3    0.47    0.26
  -4  -4   3    0.36    0.69
  -4  -4   3    0.27    0.44
  -4  -4   3    0.12    0.17
  -4  -4   3    0.10    0.20
  -4  -4   3    0.13    0.49
  -4  -4   3    0.32    0.20
  -4  -4   3    0.48    0.19
   4   4  -3    0.19    0.33
   4   4  -3    0.35    0.24
   4   4  -3    0.58    0.27
   4   4  -3    0.86    0.42
   4   4  -3    0.49    0.52
  -1  -4   4   28.13    0.97
  -1  -4   4   26.95    1.03
  -1  -4   4   28.05    1.04
  -1  -4   4   27.30    1.27
  -1  -4   4   27.77    1.09
   1   4  -4   29.14    0.87
   1   4  -4   27.87    1.21
   1   4  -4   28.04    0.93
   1   4  -4   27.50    0.95
   1   4  -4   27.50    1.48
   2  -4   5    8.85    0.66
   2  -4   5    8.30    0.69
   2  -4   5    8.57    0.61
   2  -4   5    8.17    0.55
   2  -4   5    9.42    0.74
  -2   4  -5    9.35    0.70
  -2   4  -5    8.59    0.53
  -2   4  -5    8.43    0.78
  -2   4  -5    8.22    0.58
  -2   4  -5    9.39    0.65
   5  -4   6    1.21    0.41
   5  -4   6    0.50    0.25
   5  -4   6    0.52    0.31
  -5   4  -6    1.21    0.30
  -5   4  -6    1.04    0.41
  -5   4  -6    2.38    0.69
  -5   4  -6    0.94    0.43
  -6  -5   2    0.05    0.29
  -6  -5   2   -0.10    0.22
  -6  -5   2    0.09    0.27
  -6  -5   2    1.02    0.37
  -6  -5   2    0.05    0.18
   6   5  -2    0.03    0.39
   6   5  -2    0.12    0.26
   6   5  -2    0.68    0.45
  -3  -5   3    0.93    0.30
  -3  -5   3    1.19    0.52
  -3  -5   3    1.08    0.39
  -3  -5   3    1.01    0.28
  -3  -5   3    2.09    0.76
  -3  -5   3    1.30    0.34
  -3  -5   3    1.38    0.26
  -3  -5   3    1.36    1.07
   3   5  -3    0.53    0.22
   3   5  -3    0.59    0.50
   3   5  -3    1.46    0.53
   3   5  -3    1.20    0.31
   3   5  -3    1.30    0.46
   3   5  -3    1.11    0.26
   0  -5   4    7.28    0.58
   0  -5   4    6.81    0.71
   0  -5   4    7.15    0.61
   0  -5   4    7.08    0.59
   0   5  -4    6.92    0.36
   0   5  -4    6.97    0.55
   0   5  -4    7.19    0.68
   0   5  -4    7.60    0.93
   0   5  -4    7.11    0.67
   0   5  -4    7.04    0.57
   0   5  -4    6.29    0.49
   3  -5   5   17.09    0.76
   3  -5   5   16.77    0.95
   3  -5   5   16.24    0.96
   3  -5   5   16.43    0.98
   3  -5   5   15.54    0.97
  -3   5  -5   17.39    0.86
  -3   5  -5   17.12    0.93
  -3   5  -5   17.35    0.98
  -3   5  -5   16.81    1.05
   6  -5   6   -0.09    0.29
   6  -5   6   -0.10    0.25
   6  -5   6    0.14    0.40
   6  -5   6   -0.33    0.28
  -6   5  -6    0.97    0.36
  -6   5  -6    1.05    0.59
  -6   5  -6   -0.21    0.39
  -5  -6   2    1.27    0.37
  -5  -6   2    1.41    0.44
  -5  -6   2    4.36    1.27
  -5  -6   2    1.39    0.51
  -5  -6   2    1.31    0.30
  -5  -6   2    0.83    0.32
  -5  -6   2    1.36    0.39
  -5  -6   2    2.67    0.67
  -5  -6   2    6.23    2.05
   5   6  -2    2.19    0.70
   5   6  -2    1.82    0.89
   5   6  -2    1.77    0.61
   5   6  -2    1.00    0.48
  -2  -6   3   27.06    1.26
  -2  -6   3   27.49    1.54
  -2  -6   3   27.30    1.11
  -2  -6   3   27.48    1.17
  -2  -6   3   28.03    1.07
   2   6  -3   26.90    0.94
   2   6  -3   26.34    0.93
   2   6  -3   24.92    1.00
   2   6  -3   27.18    1.61
   2   6  -3   25.39    1.27
   1  -6   4    0.24    0.27
   1  -6   4    0.12    0.21
   1  -6   4   -0.07    0.17
   1  -6   4    0.18    0.49
   1  -6   4    0.39    0.25
  -1   6  -4    0.25    0.31
  -1   6  -4    0.18    0.26
  -1   6  -4    0.13    0.23
  -1   6  -4   -0.08    0.33
  -1   6  -4    0.03    0.29
   4  -6   5    0.71    0.27
   4  -6   5    0.84    0.38
   4  -6   5    1.05    0.27
   4  -6   5    1.18    0.47
  -4   6  -5    1.28    0.40
  -4   6  -5    2.47    0.70
  -4   6  -5    2.38    0.62
  -4   6  -5    0.71    0.37
  -4  -7   2    4.28    1.31
  -4  -7   2    7.03    0.72
  -4  -7   2    7.25    0.66
  -4  -7   2    7.13    0.68
  -4  -7   2   13.16    4.55
  -4  -7   2    7.51    1.29
  -4  -7   2    7.94    0.63
   4   7  -2    6.25    0.59
   4   7  -2    6.42    0.76
   4   7  -2    7.24    0.67
   4   7  -2    6.67    0.54
   4   7  -2    6.71    0.97
  -1  -7   3    2.91    0.94
  -1  -7   3    0.85    0.36
  -1  -7   3    1.32    0.32
  -1  -7   3    1.48    0.37
   1   7  -3    1.68    0.38
   1   7  -3    3.25    0.67
   1   7  -3    1.00    0.62
   1   7  -3    1.34    0.23
   1   7  -3    1.72    0.63
   2  -7   4    0.15    0.22
   2  -7   4    0.06    0.20
   2  -7   4    0.07    0.23
   2  -7   4    0.38    0.32
  -2   7  -4    0.58    0.35
  -2   7  -4    0.40    0.27
  -2   7  -4    0.33    0.40
  -2   7  -4    0.33    0.35
   5  -7   5   -0.17    0.17
   5  -7   5    0.75    0.46
  -5   7  -5    0.42    0.34
  -5   7  -5   -0.09    0.40
  -5   7  -5    0.56    0.46
  -3  -8   2    1.31    0.42
  -3  -8   2    1.79    0.73
  -3  -8   2    1.90    0.39
  -3  -8   2    1.66    0.47
  -3  -8   2    1.15    0.30
  -3  -8   2    1.66    0.36
  -3  -8   2    0.91    0.38
   3   8  -2    2.35    0.89
   3   8  -2    1.69    0.36
   3   8  -2    1.61    0.38
   3   8  -2    1.64    0.79
   0  -8   3    5.16    1.07
   0  -8   3    2.80    0.48
   0  -8   3    2.27    0.42
   0   8  -3    2.53    0.45
   0   8  -3    3.25    0.96
   0   8  -3    3.72    0.87
   0   8  -3    2.29    0.38
   0   8  -3    4.35    0.71
   3  -8   4    0.07    0.21
   3  -8   4    0.21    0.28
   3  -8   4    0.77    0.39
  -3   8  -4    1.02    0.37
  -3   8  -4    1.50    0.60
  -3   8  -4    0.25    0.36
  -3   8  -4    0.67    0.41
  -3   8  -4    0.84    0.42
  -5  -9   1   -0.01    0.31
  -5  -9   1    0.21    0.36
  -5  -9   1    0.28    0.28
  -5  -9   1    0.05    0.32
  -5  -9   1    0.30    0.29
   5   9  -1    1.18    0.61
   5   9  -1    0.65    0.57
  -2  -9   2    4.34    0.60
  -2  -9   2    5.25    0.67
  -2  -9   2    3.40    0.44
   2   9  -2    3.55    0.54
   2   9  -2    5.33    0.89
   2   9  -2    6.58    1.42
   2   9  -2    4.52    0.86
   2   9  -2    5.47    0.96
   1  -9   3    3.84    0.68
   1  -9   3    3.41    0.52
   1  -9   3    3.48    0.50
  -1   9  -3    4.57    0.60
  -1   9  -3    5.05    0.77
  -1   9  -3    3.94    0.55
   4  -9   4    0.33    0.24
   4  -9   4   -0.27    0.32
   4  -9   4    0.02    0.41
   4  -9   4    0.78    0.45
  -4   9  -4    0.08    0.36
  -4   9  -4    1.33    0.53
  -4   9  -4    0.94    0.41
  -4 -10   1    0.32    0.38
  -4 -10   1    0.83    0.32
  -4 -10   1    0.28    0.33
  -4 -10   1   -0.51    0.31
   4  10  -1    0.93    0.47
   4  10  -1    0.02    0.44
  -1 -10   2    0.02    0.30
  -1 -10   2   -0.11    0.22
  -1 -10   2    0.22    0.99
  -1 -10   2   -0.21    0.22
  -1 -10   2   -0.25    0.24
   1  10  -2    0.00    0.67
   1  10  -2    0.50    0.45
   1  10  -2    0.23    0.55
   1  10  -2    0.09    0.31
   2 -10   3    0.67    0.42
   2 -10   3    1.35    0.49
   2 -10   3    0.36    0.28
  -2  10  -3    0.35    0.37
  -2  10  -3    0.85    0.47
  -2  10  -3    2.71    0.83
  -3 -11   1    0.58    0.42
  -3 -11   1    0.16    0.34
   3  11  -1    0.64    0.62
   3  11  -1    1.17    0.57
   3  11  -1    1.53    0.71
   3  11  -1    0.77    0.65
   0 -11   2   -0.38    0.22
   0 -11   2    0.25    0.36
   0 -11   2    0.27    0.28
   0  11  -2    0.78    0.42
   0  11  -2    0.39    0.51
   0  11  -2   -0.11    0.57
  -1  13  10   -0.31    0.65
   1 -13 -10   -0.21    0.39
   3 -12  -9    1.43    0.68
   0  12  10    0.16    0.66
   0  12  10    0.00    0.23
   0  12  10   -0.04    0.32
   0 -12 -10    0.08    0.35
   0 -12 -10    0.45    0.29
   0 -12 -10    0.22    0.46
  -2  11   9    0.83    0.30
  -2  11   9    1.08    0.27
   2 -11  -9    1.55    0.72
   2 -11  -9    0.91    0.44
   2 -11  -9    0.59    0.40
   2 -11  -9    0.94    0.43
   1  11  10    5.91    0.93
   1  11  10    6.06    0.68
   1  11  10    4.01    0.53
  -1 -11 -10    5.80    0.97
  -1 -11 -10    4.24    0.56
  -1 -11 -10    3.67    0.61
  -4  10   8   -0.03    0.29
  -4  10   8   -0.02    0.25
  -4  10   8    3.81    1.26
  -4  10   8    0.44    0.27
   4 -10  -8   -0.29    0.29
   4 -10  -8   -0.45    0.28
   4 -10  -8    0.41    0.84
  -1  10   9    1.97    1.14
  -1  10   9    1.29    0.30
  -1  10   9    0.96    0.26
  -1  10   9    0.64    0.27
  -1  10   9    1.64    0.39
   1 -10  -9    1.06    0.31
   1 -10  -9    1.13    0.40
   1 -10  -9    1.33    0.48
   2  10  10    0.70    0.35
   2  10  10    0.44    0.52
   2  10  10    0.99    0.57
   2  10  10    1.10    0.41
  -2 -10 -10    0.77    0.34
  -2 -10 -10    0.55    0.43
  -2 -10 -10    0.56    0.18
  -2 -10 -10    0.88    0.42
  -3   9   8    2.07    0.43
  -3   9   8    2.68    0.40
   3  -9  -8    2.64    0.50
   3  -9  -8    1.91    0.39
   3  -9  -8    1.27    0.33
   3  -9  -8    3.47    0.90
   0   9   9    0.01    0.18
   0   9   9    0.21    0.56
   0   9   9    0.11    0.24
   0   9   9   -0.04    0.19
   0  -9  -9    0.25    0.24
   0  -9  -9    0.19    0.29
   0  -9  -9    0.13    0.19
   3   9  10    5.04    0.95
   3   9  10    4.69    0.71
   3   9  10    4.35    0.76
   3   9  10    5.74    0.87
  -3  -9 -10    6.43    0.84
  -3  -9 -10    4.46    0.59
  -3  -9 -10    5.85    0.66
  -5   8   7    0.82    0.34
  -5   8   7    1.85    0.46
   5  -8  -7    1.12    0.34
   5  -8  -7    2.19    0.70
  -2   8   8    7.83    0.73
  -2   8   8    8.74    0.60
  -2   8   8    8.42    0.42
   2  -8  -8    7.87    0.69
   2  -8  -8    8.22    0.65
   2  -8  -8    8.53    0.71
   1   8   9    0.47    0.30
   1   8   9    1.76    0.78
   1   8   9    1.23    0.31
   1   8   9    0.49    0.21
  -1  -8  -9    1.38    0.47
  -1  -8  -9    0.73    0.33
  -1  -8  -9    0.73    0.18
  -1  -8  -9    0.78    0.32
   4   8  10    2.47    0.47
   4   8  10    3.82    0.81
   4   8  10    2.71    0.53
   4   8  10    3.42    0.58
   4   8  10    3.52    0.45
  -4  -8 -10    2.43    0.56
  -4  -8 -10    4.65    0.90
  -4  -8 -10    2.64    0.44
  -4  -8 -10    3.42    0.61
  -4  -8 -10    1.69    0.42
  -4  -8 -10    4.91    0.78
  -4   7   7    0.28    0.29
  -4   7   7    2.19    0.98
  -4   7   7    1.04    0.35
   4  -7  -7    1.03    0.59
   4  -7  -7    0.15    0.23
   4  -7  -7    0.57    0.29
   4  -7  -7    0.83    0.28
  -1   7   8   -0.44    0.16
  -1   7   8    0.07    0.18
  -1   7   8   -0.18    0.19
  -1   7   8   -0.32    0.13
   1  -7  -8    0.09    0.19
   1  -7  -8    0.14    0.21
   1  -7  -8   -0.13    0.14
   2   7   9    0.86    0.37
   2   7   9    1.59    0.57
   2   7   9    0.71    0.23
   2   7   9    0.60    0.27
   2   7   9    1.55    0.59
  -2  -7  -9    0.42    0.20
  -2  -7  -9    0.66    0.30
  -2  -7  -9    0.98    0.34
  -2  -7  -9    1.05    0.42
  -2  -7  -9    1.26    0.36
  -2  -7  -9    0.36    0.24
   5   7  10    0.23    0.41
   5   7  10    0.07    0.38
   5   7  10   -0.14    0.24
   5   7  10   -0.05    0.22
   5   7  10    0.28    0.32
  -5  -7 -10    0.29    0.22
  -5  -7 -10    0.60    0.44
  -5  -7 -10    0.19    0.24
  -5  -7 -10   -0.17    0.32
  -6   6   6    0.17    0.25
  -6   6   6    0.22    0.42
   6  -6  -6    0.71    0.54
   6  -6  -6   -0.03    0.29
   6  -6  -6   -0.13    0.29
   6  -6  -6   -0.22    0.27
  -3   6   7    2.06    0.73
  -3   6   7    0.93    0.30
  -3   6   7    1.53    0.28
   3  -6  -7    1.03    0.30
   3  -6  -7    1.36    0.65
   3  -6  -7    0.88    0.28
   3  -6  -7    1.10    0.29
   0   6   8    2.05    0.36
   0   6   8    3.31    0.52
   0   6   8    1.65    0.29
   0   6   8    1.97    0.26
   0  -6  -8    1.59    0.23
   0  -6  -8    2.11    0.35
   0  -6  -8    2.79    0.44
   3   6   9    2.97    0.39
   3   6   9    3.10    0.58
   3   6   9    5.37    0.89
   3   6   9    3.40    0.49
   3   6   9    3.93    0.72
  -3  -6  -9    2.57    0.38
  -3  -6  -9    2.39    0.40
  -3  -6  -9    3.76    0.57
  -3  -6  -9    3.69    0.50
  -3  -6  -9    2.34    0.41
  -5   5   6    1.69    0.89
  -5   5   6    1.28    0.50
   5  -5  -6    1.84    0.74
  -2   5   7    0.03    0.39
  -2   5   7    0.47    0.24
  -2   5   7    0.13    0.17
   2  -5  -7    0.56    0.22
   2  -5  -7    0.39    0.22
   2  -5  -7    0.34    0.21
   1   5   8    6.69    0.60
   1   5   8    5.83    0.53
   1   5   8    6.71    0.35
  -1  -5  -8    6.56    0.38
  -1  -5  -8    6.19    0.55
  -1  -5  -8    6.53    0.62
  -1  -5  -8    6.50    0.32
  -1  -5  -8    6.34    0.45
   4   5   9    0.81    0.32
   4   5   9    1.55    0.45
   4   5   9    1.14    0.38
   4   5   9    0.92    0.46
   4   5   9    1.97    0.50
  -4  -5  -9    1.76    0.45
  -4  -5  -9    0.85    0.34
  -4  -5  -9    1.28    0.29
  -4  -5  -9    3.00    0.94
  -4  -5  -9    1.03    0.30
  -4  -5  -9    2.10    0.52
  -7   4   5    0.05    0.29
  -7   4   5    0.17    0.32
   7  -4  -5    0.34    0.61
   7  -4  -5   -0.02    0.24
   7  -4  -5    0.08    0.30
   7  -4  -5    0.24    0.27
   7  -4  -5    0.16    0.27
  -4   4   6    2.53    0.40
  -4   4   6    3.85    0.29
  -4   4   6    4.12    0.45
   4  -4  -6    3.13    0.45
   4  -4  -6    4.05    0.49
   4  -4  -6    4.98    0.93
  -1   4   7    4.17    0.47
  -1   4   7    4.64    0.51
  -1   4   7    5.85    0.88
  -1   4   7    4.53    0.44
   1  -4  -7    5.36    0.43
   1  -4  -7    5.29    0.50
   2   4   8    1.33    0.39
   2   4   8    1.42    0.29
   2   4   8    2.05    0.51
   2   4   8    2.85    0.57
  -2  -4  -8    2.01    0.41
  -2  -4  -8    1.26    0.29
  -2  -4  -8    1.02    0.32
  -2  -4  -8    1.42    0.26
   5   4   9    3.55    0.57
   5   4   9    3.63    0.55
   5   4   9    3.67    0.66
   5   4   9    2.75    0.88
   5   4   9    3.80    0.60
  -5  -4  -9    3.21    0.39
  -5  -4  -9    2.24    0.47
  -5  -4  -9    5.50    0.93
  -6   3   5    0.74    0.24
  -6   3   5    1.72    0.49
  -6   3   5    0.42    0.29
   6  -3  -5    1.06    0.29
   6  -3  -5    1.98    0.74
   6  -3  -5    1.00    0.45
   6  -3  -5    1.83    0.41
   6  -3  -5   -0.06    0.25
   6  -3  -5    0.81    0.27
  -3   3   6    0.05    0.15
  -3   3   6    0.04    0.19
  -3   3   6   -0.07    0.21
  -3   3   6    0.42    0.53
   3  -3  -6   -0.09    0.15
   3  -3  -6    0.18    0.46
   3  -3  -6   -0.01    0.17
   3  -3  -6    0.14    0.13
   0   3   7   20.05    0.84
   0   3   7   19.07    0.85
   0   3   7   19.98    0.81
   0   3   7   20.19    0.67
   0  -3  -7   19.88    0.56
   0  -3  -7   18.84    0.76
   0  -3  -7   19.76    0.72
   0  -3  -7   19.74    0.80
   3   3   8    4.39    0.61
   3   3   8    3.57    0.34
   3   3   8    4.32    0.60
   3   3   8    3.80    0.43
   3   3   8    3.45    0.44
   3   3   8    4.32    0.54
  -3  -3  -8    3.56    0.41
  -3  -3  -8    4.35    0.62
  -3  -3  -8    2.73    0.41
  -3  -3  -8    3.65    0.44
   6   3   9    0.12    0.29
   6   3   9    0.08    0.42
   6   3   9    0.74    0.33
   6   3   9    0.10    0.18
   6   3   9    0.42    0.40
  -6  -3  -9    2.02    0.62
  -6  -3  -9   -0.04    0.35
  -6  -3  -9    0.38    0.35
  -5   2   5    6.30    0.63
  -5   2   5    6.19    0.70
  -5   2   5    5.43    0.46
  -5   2   5    5.30    0.53
  -5   2   5    7.51    1.09
   5  -2  -5    5.69    0.48
   5  -2  -5    5.26    0.51
   5  -2  -5    6.09    0.62
   5  -2  -5    6.01    0.55
   5  -2  -5    5.56    0.77
  -2   2   6  102.28    2.60
  -2   2   6  108.31    2.31
  -2   2   6  103.79    2.25
   2  -2  -6  104.34    1.99
   2  -2  -6  105.15    2.67
   2  -2  -6  104.13    2.28
   2  -2  -6  102.20    2.20
   1   2   7   19.51    0.75
   1   2   7   21.37    0.98
   1   2   7   19.38    0.85
   1   2   7   19.83    0.57
   1   2   7   19.76    0.87
  -1  -2  -7   18.98    0.74
  -1  -2  -7   20.57    0.78
  -1  -2  -7   20.64    0.89
  -1  -2  -7   19.53    0.60
   4   2   8    0.67    0.24
   4   2   8    1.09    0.37
   4   2   8    0.58    0.26
   4   2   8    0.90    0.36
   4   2   8    0.82    0.32
  -4  -2  -8    1.03    0.37
  -4  -2  -8    0.67    0.19
  -4  -2  -8    0.63    0.30
  -4  -2  -8    0.53    0.35
   7   2   9    0.17    0.32
   7   2   9   -0.58    0.39
   7   2   9    0.24    0.36
   7   2   9   -0.32    0.24
  -7  -2  -9    0.23    0.41
  -7   1   4   -0.16    0.25
  -7   1   4   -0.11    0.18
  -7   1   4   -0.14    0.24
  -7   1   4    0.83    0.52
  -7   1   4    0.26    0.25
   7  -1  -4    0.28    0.25
   7  -1  -4    0.03    0.22
   7  -1  -4    0.25    0.45
   7  -1  -4    0.38    0.29
   7  -1  -4    0.01    0.25
  -4   1   5    5.24    0.94
  -4   1   5    4.41    0.56
  -4   1   5    4.97    0.50
  -4   1   5    5.41    0.56
   4  -1  -5    4.42    0.33
   4  -1  -5    4.45    0.54
   4  -1  -5    5.69    0.92
   4  -1  -5    4.21    0.57
   4  -1  -5    5.06    0.44
  -1   1   6   23.42    0.85
  -1   1   6   22.64    1.08
  -1   1   6   22.79    0.86
  -1   1   6   22.62    0.92
   1  -1  -6   22.52    0.84
   1  -1  -6   22.89    1.05
   1  -1  -6   22.86    0.55
   2   1   7   30.42    0.76
   2   1   7   30.44    1.13
   2   1   7   30.02    1.05
   2   1   7   29.52    0.93
   2   1   7   29.78    0.81
   2   1   7   29.97    0.89
  -2  -1  -7   29.66    1.16
  -2  -1  -7   28.83    0.89
  -2  -1  -7   30.76    1.05
   5   1   8    3.99    0.72
   5   1   8    4.24    0.61
   5   1   8    3.59    0.53
   5   1   8    2.80    0.46
   5   1   8    3.91    0.62
   5   1   8    3.73    0.34
  -5  -1  -8    4.28    0.64
  -5  -1  -8    2.55    0.46
  -5  -1  -8    5.76    1.07
  -5  -1  -8    3.63    0.49
  -6   0   4    1.55    0.53
  -6   0   4    1.28    0.30
  -6   0   4    1.43    0.35
  -6   0   4    0.74    0.31
  -6   0   4    1.46    0.32
   6   0  -4    1.12    0.32
   6   0  -4    2.82    0.87
   6   0  -4    1.77    0.39
   6   0  -4    1.56    0.34
   6   0  -4    1.12    0.33
  -3   0   5    0.65    0.19
  -3   0   5    0.69    0.24
   3   0  -5    1.32    0.36
   3   0  -5    0.93    0.50
   3   0  -5    0.66    0.42
   3   0  -5    0.72    0.15
   3   0  -5    0.32    0.17
   0   0   6   85.97    2.00
   0   0   6   86.55    1.60
   0   0  -6   85.46    1.86
   0   0  -6   86.97    1.82
   0   0  -6   85.97    2.27
   0   0  -6   91.08    2.09
   0   0  -6   87.66    1.61
   3   0   7    0.98    0.33
   3   0   7    1.05    0.21
   3   0   7    0.82    0.23
   3   0   7    0.75    0.29
   3   0   7    0.68    0.17
  -3   0  -7    0.96    0.20
  -3   0  -7    1.07    0.37
  -3   0  -7    0.50    0.27
  -3   0  -7    0.36    0.20
   6   0   8    0.01    0.34
   6   0   8    0.34    0.37
   6   0   8   -0.21    0.19
   6   0   8   -0.07    0.14
   6   0   8    0.02    0.53
   6   0   8    0.01    0.23
  -6   0  -8   -0.22    0.26
  -6   0  -8    0.38    0.29
  -6   0  -8   -0.22    0.31
  -6   0  -8    1.00    0.62
  -6   0  -8   -0.44    0.39
  -5  -1   4    1.13    0.30
  -5  -1   4    2.54    0.63
  -5  -1   4    2.09    0.37
  -5  -1   4    1.52    0.36
  -5  -1   4    4.57    1.18
  -5  -1   4    1.35    0.30
  -5  -1   4    1.96    0.51
   5   1  -4    2.15    0.64
   5   1  -4    1.80    0.45
   5   1  -4    1.61    0.30
   5   1  -4    1.41    0.30
   5   1  -4    2.23    0.34
  -2  -1   5    2.32    0.62
  -2  -1   5    2.20    0.34
   2   1  -5    3.83    0.64
   2   1  -5    2.87    0.73
   2   1  -5    3.22    0.74
   2   1  -5    2.57    0.26
   2   1  -5    2.48    0.37
   1  -1   6   58.48    1.61
   1  -1   6   57.28    1.40
   1  -1   6   58.44    1.37
   1  -1   6   57.33    1.36
  -1   1  -6   57.18    1.48
  -1   1  -6   57.14    1.39
  -1   1  -6   58.96    1.63
   4  -1   7    0.47    0.17
   4  -1   7    0.62    0.34
   4  -1   7    0.29    0.21
   4  -1   7    0.50    0.19
   4  -1   7    0.30    0.19
   4  -1   7    0.70    0.30
  -4   1  -7    0.56    0.27
  -4   1  -7    0.44    0.14
  -4   1  -7    0.46    0.25
  -4   1  -7    0.45    0.32
  -4   1  -7    0.66    0.50
   7  -1   8    0.21    0.29
  -7   1  -8    1.20    0.45
  -7  -2   3    0.66    0.39
  -7  -2   3    0.63    0.31
  -7  -2   3    1.17    0.33
  -7  -2   3    0.70    0.33
  -7  -2   3    0.99    0.35
   7   2  -3    1.20    0.43
   7   2  -3    0.46    0.26
   7   2  -3    1.02    0.60
  -4  -2   4    2.53    0.92
  -4  -2   4    1.80    0.36
  -4  -2   4    1.69    0.63
  -4  -2   4    0.88    0.25
  -4  -2   4    2.18    0.58
   4   2  -4    1.19    0.33
   4   2  -4    1.98    0.67
   4   2  -4    2.05    0.61
   4   2  -4    2.90    0.63
   4   2  -4    1.32    0.27
   4   2  -4    1.28    0.25
  -1  -2   5   17.94    0.68
  -1  -2   5   16.96    0.84
  -1  -2   5   18.32    0.81
  -1  -2   5   17.45    0.76
  -1  -2   5   17.95    0.95
   1   2  -5   18.13    1.12
   1   2  -5   16.71    0.76
   1   2  -5   18.33    0.69
   2  -2   6    0.82    0.29
   2  -2   6    0.53    0.21
   2  -2   6    0.46    0.21
   2  -2   6    0.62    0.21
  -2   2  -6    0.46    0.18
  -2   2  -6    0.59    0.21
  -2   2  -6    0.40    0.29
   5  -2   7    0.21    0.22
   5  -2   7   -0.26    0.23
   5  -2   7    0.26    0.30
  -5   2  -7    0.19    0.29
  -5   2  -7    0.51    0.26
  -5   2  -7    0.51    0.57
  -6  -3   3    1.80    0.47
  -6  -3   3    1.25    0.34
  -6  -3   3    0.95    0.26
  -6  -3   3    0.62    0.57
  -6  -3   3    1.74    0.65
   6   3  -3    0.67    0.26
   6   3  -3    0.89    0.30
   6   3  -3    1.37    0.35
  -3  -3   4    0.61    0.57
  -3  -3   4    0.24    0.18
  -3  -3   4    0.20    0.15
  -3  -3   4    0.19    0.15
  -3  -3   4    0.43    0.24
  -3  -3   4    0.31    0.37
  -3  -3   4    0.47    0.63
   3   3  -4    0.33    0.16
   3   3  -4   -0.51    0.32
   3   3  -4    0.07    0.19
   3   3  -4   -0.01    0.29
   3   3  -4    0.19    0.20
   3   3  -4   -0.11    0.30
   0  -3   5   33.44    0.89
   0  -3   5   31.76    1.21
   0  -3   5   31.68    0.90
   0  -3   5   31.65    1.06
   0  -3   5   32.38    1.05
   0  -3   5   33.31    1.21
   0   3  -5   32.54    1.07
   0   3  -5   33.26    1.20
   0   3  -5   30.81    1.04
   0   3  -5   30.42    1.48
   3  -3   6    1.14    0.37
   3  -3   6    1.27    0.34
   3  -3   6    0.63    0.27
   3  -3   6    0.77    0.20
  -3   3  -6    1.06    0.38
  -3   3  -6    1.14    0.24
  -3   3  -6    0.78    0.20
  -3   3  -6    1.33    0.75
  -3   3  -6    1.25    0.37
   6  -3   7    1.13    0.29
   6  -3   7    1.40    0.48
   6  -3   7    0.68    0.28
   6  -3   7    1.92    0.43
   6  -3   7    2.27    0.48
  -6   3  -7    1.20    0.35
  -6   3  -7    1.82    0.56
  -6   3  -7    0.71    0.41
  -5  -4   3    0.78    0.38
  -5  -4   3    1.21    0.32
  -5  -4   3    2.10    1.40
  -5  -4   3    1.35    0.30
  -5  -4   3    1.23    0.30
  -5  -4   3    1.52    0.56
  -5  -4   3    1.05    0.41
  -5  -4   3    1.36    0.35
   5   4  -3    0.97    0.33
   5   4  -3    1.02    0.55
   5   4  -3    1.36    0.60
   5   4  -3    1.33    0.67
   5   4  -3    0.59    0.25
  -2  -4   4    4.73    0.62
  -2  -4   4    4.90    0.41
  -2  -4   4    5.05    0.57
  -2  -4   4    5.17    0.70
  -2  -4   4    4.81    0.52
   2   4  -4    4.53    0.75
   2   4  -4    5.02    0.44
   2   4  -4    4.66    0.55
   2   4  -4    5.69    0.53
   2   4  -4    4.69    0.49
   2   4  -4    5.25    0.43
   1  -4   5    0.48    0.26
   1  -4   5    0.23    0.20
   1  -4   5    0.71    0.43
   1  -4   5    0.56    0.26
  -1   4  -5    0.46    0.20
  -1   4  -5    0.55    0.28
  -1   4  -5    0.31    0.26
  -1   4  -5    0.79    0.38
   4  -4   6    6.03    0.74
   4  -4   6    5.67    0.64
   4  -4   6    6.04    0.68
   4  -4   6    6.89    0.45
  -4   4  -6    6.69    0.83
  -4   4  -6    6.22    0.74
  -4   4  -6    6.60    0.45
  -4   4  -6    5.55    0.67
  -4  -5   3    0.49    0.19
  -4  -5   3    0.59    0.27
  -4  -5   3    0.05    0.26
  -4  -5   3    0.43    0.22
  -4  -5   3    0.24    0.20
  -4  -5   3    0.43    0.28
  -4  -5   3    1.36    0.54
  -4  -5   3    0.72    1.00
   4   5  -3    0.82    0.45
   4   5  -3    0.28    0.52
   4   5  -3    0.59    0.21
   4   5  -3    0.47    0.25
   4   5  -3    0.00    0.33
  -1  -5   4    1.63    0.35
  -1  -5   4    2.27    0.39
  -1  -5   4    3.83    0.80
  -1  -5   4    3.95    0.66
  -1  -5   4    1.84    0.34
   1   5  -4    2.37    0.69
   1   5  -4    1.49    0.26
   1   5  -4    2.26    0.33
   1   5  -4    1.66    0.30
   1   5  -4    2.22    0.30
   2  -5   5    8.48    0.66
   2  -5   5    8.06    0.68
   2  -5   5    8.32    0.59
   2  -5   5    8.29    0.75
   2  -5   5    8.45    0.76
  -2   5  -5    8.52    0.63
  -2   5  -5    7.72    0.66
  -2   5  -5    9.28    0.83
  -2   5  -5    8.26    0.67
   5  -5   6    1.39    0.36
   5  -5   6    2.60    0.57
   5  -5   6    3.04    0.32
   5  -5   6    2.71    0.62
  -5   5  -6    2.42    0.59
  -5   5  -6    3.51    0.76
  -5   5  -6    2.28    0.34
  -5   5  -6    2.11    0.58
  -6  -6   2    0.26    0.32
  -6  -6   2    1.35    0.36
  -6  -6   2    2.38    0.53
  -6  -6   2    1.46    0.37
  -6  -6   2    1.08    0.34
  -6  -6   2    1.29    0.29
   6   6  -2    2.49    0.98
   6   6  -2    1.52    0.44
   6   6  -2    2.54    0.76
  -3  -6   3   14.00    1.03
  -3  -6   3   14.14    0.93
  -3  -6   3   14.50    0.79
  -3  -6   3   14.05    1.23
  -3  -6   3   14.04    0.65
  -3  -6   3   14.84    0.90
  -3  -6   3   14.12    0.76
   3   6  -3   14.12    0.76
   3   6  -3   13.43    0.79
   3   6  -3   12.14    1.06
   3   6  -3   14.01    0.98
   3   6  -3   13.72    1.23
   0  -6   4   18.10    0.91
   0  -6   4   18.18    1.17
   0  -6   4   18.87    1.11
   0  -6   4   18.32    0.95
   0   6  -4   18.45    0.97
   0   6  -4   17.77    0.87
   0   6  -4   16.92    1.35
   0   6  -4   17.62    1.10
   0   6  -4   18.18    0.89
   0   6  -4   18.37    0.58
   3  -6   5   -0.08    0.18
   3  -6   5    0.00    0.22
   3  -6   5   -0.45    0.20
   3  -6   5    0.24    0.22
   3  -6   5    0.12    0.29
  -3   6  -5    0.05    0.33
  -3   6  -5    0.33    0.35
  -3   6  -5   -0.04    0.36
  -3   6  -5    0.17    0.26
  -5  -7   2    0.10    0.37
  -5  -7   2   -0.22    0.27
  -5  -7   2    0.12    0.31
  -5  -7   2    0.14    0.26
  -5  -7   2   -0.10    0.17
  -5  -7   2   -0.01    0.24
   5   7  -2    0.03    0.24
   5   7  -2    0.10    0.36
   5   7  -2    0.26    0.55
   5   7  -2    0.14    0.34
  -2  -7   3    1.26    0.41
  -2  -7   3    1.95    0.43
  -2  -7   3    2.44    0.71
  -2  -7   3    3.33    0.80
  -2  -7   3    1.68    0.42
   2   7  -3    2.12    0.70
   2   7  -3    2.60    0.43
   2   7  -3    1.54    0.32
   2   7  -3    2.36    0.63
   2   7  -3    2.08    0.33
   2   7  -3    1.73    0.68
   2   7  -3    2.45    0.69
   1  -7   4    0.85    0.37
   1  -7   4   -0.10    0.60
   1  -7   4   -0.19    0.18
   1  -7   4    0.15    0.21
   1  -7   4    0.21    0.24
  -1   7  -4   -0.10    0.25
  -1   7  -4   -0.24    0.35
  -1   7  -4    0.06    0.30
  -1   7  -4    0.37    0.31
   4  -7   5    2.40    0.60
   4  -7   5    1.37    0.45
   4  -7   5    1.69    0.32
   4  -7   5    1.73    0.45
  -4   7  -5    3.61    0.74
  -4   7  -5    2.19    0.60
  -4   7  -5    1.06    0.43
  -4  -8   2    0.42    0.31
  -4  -8   2    0.04    0.25
  -4  -8   2    0.50    0.32
  -4  -8   2    0.26    0.66
  -4  -8   2    0.48    0.24
  -4  -8   2    0.58    0.38
  -4  -8   2    0.59    0.34
   4   8  -2   -0.10    0.22
   4   8  -2    0.00    0.40
   4   8  -2    0.26    0.49
   4   8  -2    0.20    0.20
  -1  -8   3   -0.24    0.24
  -1  -8   3    0.69    0.65
  -1  -8   3   -0.17    0.21
   1   8  -3    0.54    0.37
   1   8  -3    0.18    0.45
   1   8  -3    0.02    0.19
   1   8  -3   -0.12    0.13
   1   8  -3    0.15    0.50
   2  -8   4    1.45    0.72
   2  -8   4    1.15    0.32
   2  -8   4    1.14    0.33
  -2   8  -4    0.91    0.38
  -2   8  -4    2.24    0.77
  -2   8  -4    1.47    0.42
   5  -8   5   -0.27    0.22
   5  -8   5   -0.92    0.36
  -5   8  -5    1.05    0.51
  -5   8  -5   -0.32    0.37
  -5   8  -5    1.21    0.57
  -3  -9   2    2.90    0.54
  -3  -9   2    3.26    0.61
  -3  -9   2    1.52    0.41
  -3  -9   2    2.42    0.53
  -3  -9   2    2.89    0.50
  -3  -9   2    1.65    0.41
   3   9  -2    2.74    0.67
   3   9  -2    2.39    0.80
   3   9  -2    3.39    0.57
   3   9  -2    2.05    0.38
   0  -9   3    0.30    0.24
   0  -9   3    0.13    0.23
   0  -9   3    0.13    0.32
   0  -9   3   -0.43    0.73
   0   9  -3    0.59    0.52
   0   9  -3    0.56    0.42
   0   9  -3    0.15    0.63
   3  -9   4    0.91    0.40
  -3   9  -4    1.50    0.47
  -3   9  -4    1.24    0.48
  -3   9  -4    0.20    0.36
  -2 -10   2    1.99    0.55
  -2 -10   2    1.16    0.46
  -2 -10   2    1.13    0.37
   2  10  -2    1.11    0.61
   2  10  -2    1.58    0.63
   2  10  -2    2.66    0.92
   2  10  -2    2.26    0.79
   1 -10   3    0.85    0.32
   1 -10   3    0.41    0.32
   1 -10   3    0.75    0.41
  -1  10  -3    0.91    0.47
  -1  10  -3    1.01    0.36
  -1  10  -3    1.54    0.74
  -1 -11   2   -0.37    0.26
  -1 -11   2   -0.33    0.32
  -1 -11   2   -0.37    0.24
  -1 -11   2   -0.46    0.31
   1  11  -2    0.64    0.53
   1  11  -2    0.09    0.53
   1  11  -2    0.01    0.47
   1  11  -2    0.25    0.47
   2 -11   3    0.36    0.32
   2 -11   3    0.05    0.29
   2 -11   3    1.33    0.51
  -2  11  -3    1.12    0.43
  -2  11  -3    0.67    0.59
  -2  11  -3    0.00    0.35
  -1  12  10    3.38    0.79
  -1  12  10    3.02    1.04
   1 -12 -10    2.12    0.54
   1 -12 -10    1.59    0.45
   2  12  11    0.26    0.41
   2  12  11    0.24    0.33
   2  12  11    0.23    0.72
   2  12  11    0.05    0.51
  -2 -12 -11    0.11    0.21
  -2 -12 -11   -0.27    0.39
   3 -11  -9    1.69    0.72
   3 -11  -9    0.54    0.36
   0  11  10    1.61    0.77
   0  11  10    1.58    0.62
   0  11  10    1.35    0.33
   0 -11 -10    0.93    0.39
   0 -11 -10    0.72    0.28
   3  11  11    1.32    0.61
   3  11  11    1.11    0.35
   3  11  11    1.07    0.55
   3  11  11    0.73    0.58
  -3 -11 -11    0.53    0.46
  -2  10   9    0.60    0.17
  -2  10   9    0.80    0.32
  -2  10   9    0.32    0.26
   2 -10  -9    0.42    0.30
   2 -10  -9    0.26    0.26
   1  10  10    0.64    0.67
   1  10  10    0.85    0.30
   1  10  10    0.83    0.44
  -1 -10 -10    0.40    0.30
  -1 -10 -10    0.43    0.29
  -1 -10 -10    0.42    0.20
   4  10  11    0.31    0.29
   4  10  11    0.06    0.43
   4  10  11    0.67    0.51
   4  10  11    0.44    0.38
  -4 -10 -11    0.36    0.35
  -4   9   8    0.27    0.29
  -4   9   8   -0.01    0.22
  -4   9   8    2.41    1.09
   4  -9  -8    0.24    0.29
   4  -9  -8   -0.10    0.47
   4  -9  -8   -0.25    0.24
  -1   9   9    0.91    0.28
  -1   9   9    1.29    0.39
  -1   9   9    1.06    0.29
  -1   9   9    1.30    0.28
   1  -9  -9    0.59    0.25
   1  -9  -9    1.02    0.34
   1  -9  -9    1.38    0.39
   1  -9  -9    1.37    0.44
   2   9  10    4.20    0.88
   2   9  10    2.68    0.73
   2   9  10    4.99    1.01
   2   9  10    2.19    0.40
  -2  -9 -10    2.46    0.68
  -2  -9 -10    2.66    0.43
  -2  -9 -10    2.70    0.48
   5   9  11    0.35    0.40
   5   9  11    0.29    0.35
   5   9  11   -0.18    0.27
   5   9  11    0.39    0.43
  -5  -9 -11   -0.15    0.25
  -5  -9 -11   -0.25    0.29
  -5  -9 -11    0.83    0.49
  -5  -9 -11   -0.18    0.30
  -6   8   7    3.36    0.70
   6  -8  -7    1.80    0.35
   6  -8  -7    1.36    0.48
   6  -8  -7    3.37    0.93
  -3   8   8    2.49    0.41
  -3   8   8    3.86    0.42
   3  -8  -8    6.52    1.17
   3  -8  -8    2.14    0.38
   3  -8  -8    3.74    0.51
   3  -8  -8    4.89    0.60
   0   8   9    0.15    0.24
   0   8   9    0.11    0.18
   0   8   9    0.10    0.21
   0   8   9    0.14    0.19
   0  -8  -9    0.00    0.30
   0  -8  -9    0.19    0.13
   0  -8  -9    0.52    0.30
   0  -8  -9    0.15    0.23
   3   8  10    4.32    0.90
   3   8  10    3.47    0.56
   3   8  10    5.53    1.04
   3   8  10    3.85    0.51
   3   8  10    2.94    0.91
  -3  -8 -10    2.97    0.50
  -3  -8 -10    2.44    0.36
  -3  -8 -10    3.79    0.50
  -3  -8 -10    2.10    0.44
  -5   7   7    2.94    1.05
  -5   7   7    0.13    0.28
  -5   7   7    0.22    0.34
  -5   7   7    0.76    0.40
   5  -7  -7    0.18    0.28
   5  -7  -7   -0.06    0.21
   5  -7  -7    0.48    0.54
   5  -7  -7   -0.18    0.26
  -2   7   8    0.00    0.42
  -2   7   8    0.14    0.19
  -2   7   8    0.27    0.14
  -2   7   8   -0.15    0.18
   2  -7  -8    0.01    0.21
   2  -7  -8    0.13    0.24
   2  -7  -8   -0.06    0.19
   1   7   9   -0.01    0.49
   1   7   9   -0.09    0.20
   1   7   9   -0.06    0.22
   1   7   9    0.08    0.27
  -1  -7  -9    0.25    0.24
  -1  -7  -9    0.51    0.37
  -1  -7  -9    0.13    0.17
  -1  -7  -9    0.07    0.11
  -1  -7  -9    0.22    0.28
  -1  -7  -9   -0.07    0.21
   4   7  10    1.15    0.53
   4   7  10    0.83    0.39
   4   7  10    0.91    0.50
   4   7  10    0.68    0.33
   4   7  10    0.44    0.28
  -4  -7 -10    0.42    0.25
  -4  -7 -10    0.41    0.35
  -4  -7 -10    1.28    0.46
  -4  -7 -10    0.46    0.26
  -4   6   7    3.11    1.00
  -4   6   7    0.64    0.28
  -4   6   7    1.44    0.23
  -4   6   7    1.85    0.37
   4  -6  -7    1.62    0.51
   4  -6  -7    0.59    0.28
   4  -6  -7    1.87    0.69
   4  -6  -7    1.24    0.36
  -1   6   8    3.36    0.48
  -1   6   8    1.89    0.28
  -1   6   8    1.78    0.32
   1  -6  -8    2.72    0.45
   1  -6  -8    1.47    0.26
   1  -6  -8    2.56    0.42
   2   6   9    2.18    0.33
   2   6   9    2.96    0.46
   2   6   9    3.65    0.78
   2   6   9    3.45    0.70
   2   6   9    3.20    0.57
  -2  -6  -9    2.54    0.36
  -2  -6  -9    1.98    0.36
  -2  -6  -9    3.34    0.52
  -2  -6  -9    2.14    0.36
  -2  -6  -9    2.63    0.48
   5   6  10    1.32    0.46
   5   6  10    0.98    0.44
   5   6  10    0.51    0.32
   5   6  10    0.40    0.33
  -5  -6 -10    1.57    0.84
  -5  -6 -10    2.28    0.50
  -5  -6 -10    0.58    0.37
  -5  -6 -10    0.66    0.25
  -5  -6 -10    0.42    0.34
  -6   5   6    0.44    0.29
  -6   5   6    0.72    0.47
  -6   5   6   -0.15    0.24
   6  -5  -6    0.57    0.33
   6  -5  -6    0.57    0.53
   6  -5  -6    0.19    0.27
   6  -5  -6   -0.29    0.25
  -3   5   7   -0.01    0.19
  -3   5   7    0.18    0.56
  -3   5   7    0.45    0.23
  -3   5   7    0.21    0.20
   3  -5  -7    0.19    0.19
   3  -5  -7    0.07    0.18
   3  -5  -7    0.37    0.53
   3  -5  -7    0.23    0.24
   0   5   8    1.59    0.23
   0   5   8    2.11    0.40
   0   5   8    1.51    0.31
   0  -5  -8    1.14    0.19
   0  -5  -8    1.21    0.24
   3   5   9    0.65    0.41
   3   5   9    1.01    0.45
   3   5   9    0.48    0.29
   3   5   9    0.43    0.32
   3   5   9    0.44    0.26
  -3  -5  -9    0.65    0.22
  -3  -5  -9    0.93    0.32
  -3  -5  -9    0.84    0.34
  -3  -5  -9    0.05    0.16
  -3  -5  -9    0.80    0.43
  -5   4   6    7.43    0.45
  -5   4   6    6.94    0.63
  -5   4   6    8.47    0.84
   5  -4  -6    7.14    0.64
   5  -4  -6    7.83    0.62
   5  -4  -6    8.37    0.95
  -2   4   7    0.39    0.19
  -2   4   7    0.32    0.47
  -2   4   7    0.12    0.23
  -2   4   7    0.12    0.22
   2  -4  -7    0.36    0.16
   2  -4  -7    0.44    0.18
   2  -4  -7    0.08    0.20
   1   4   8    9.11    0.37
   1   4   8    9.39    0.65
   1   4   8    9.49    0.69
  -1  -4  -8    9.23    0.60
  -1  -4  -8    9.45    0.60
  -1  -4  -8    9.24    0.66
  -1  -4  -8    8.75    0.47
   4   4   9   10.93    0.79
   4   4   9   10.50    0.78
   4   4   9   11.02    0.82
   4   4   9   10.57    0.81
   4   4   9   10.51    0.72
   4   4   9   11.52    0.83
  -4  -4  -9   11.36    0.88
  -4  -4  -9    9.91    0.79
  -4  -4  -9   10.99    0.63
  -4  -4  -9   11.08    0.83
  -7   3   5   -0.32    0.22
  -7   3   5    0.20    0.28
  -7   3   5    0.25    0.35
   7  -3  -5    0.48    0.47
   7  -3  -5    0.22    0.25
   7  -3  -5    0.10    0.27
   7  -3  -5   -0.09    0.19
   7  -3  -5   -0.44    0.24
  -4   3   6    9.18    0.62
  -4   3   6    9.46    0.66
  -4   3   6    9.04    0.77
  -4   3   6   10.07    1.08
   4  -3  -6    9.63    0.93
   4  -3  -6    9.14    0.66
   4  -3  -6   10.21    0.78
   4  -3  -6    9.54    0.57
  -1   3   7   13.28    0.72
  -1   3   7   12.50    0.73
  -1   3   7   12.27    0.64
  -1   3   7   12.30    0.75
   1  -3  -7   12.47    0.72
   1  -3  -7   13.75    0.64
   1  -3  -7   13.72    0.71
   2   3   8    0.11    0.25
   2   3   8    0.01    0.20
   2   3   8    0.49    0.32
   2   3   8   -0.01    0.24
   2   3   8    0.19    0.21
  -2  -3  -8    0.02    0.24
  -2  -3  -8    0.26    0.23
  -2  -3  -8   -0.04    0.16
  -2  -3  -8   -0.05    0.12
   5   3   9    0.10    0.27
   5   3   9    0.36    0.31
   5   3   9    0.73    0.36
   5   3   9    0.23    0.48
   5   3   9    0.00    0.18
  -5  -3  -9    0.17    0.16
  -5  -3  -9   -0.09    0.31
  -5  -3  -9    0.14    0.22
  -6   2   5    0.48    0.26
  -6   2   5    1.12    0.31
  -6   2   5    1.22    0.46
  -6   2   5    0.53    0.27
   6  -2  -5    1.10    0.31
   6  -2  -5    1.19    0.62
   6  -2  -5    0.90    0.30
   6  -2  -5    0.98    0.31
   6  -2  -5    1.07    0.38
   6  -2  -5    1.10    0.30
  -3   2   6    7.48    1.14
  -3   2   6    4.84    0.54
  -3   2   6    4.14    0.50
   3  -2  -6    4.97    0.36
   3  -2  -6    4.53    0.60
   3  -2  -6    4.21    0.67
   3  -2  -6    4.36    0.67
   3  -2  -6    4.75    0.51
   0   2   7   12.96    0.66
   0   2   7   11.27    0.53
   0   2   7   11.98    0.71
   0  -2  -7   11.98    0.52
   0  -2  -7   11.60    0.62
   0  -2  -7   11.56    0.72
   3   2   8    9.94    0.72
   3   2   8   10.20    0.59
   3   2   8    9.19    0.71
   3   2   8   10.56    0.61
   3   2   8    9.53    0.72
  -3  -2  -8    9.73    0.80
  -3  -2  -8   10.51    0.73
  -3  -2  -8    9.37    0.53
   6   2   9    1.52    0.49
   6   2   9    0.71    0.31
   6   2   9    1.02    0.37
   6   2   9    1.04    0.43
   6   2   9    0.23    0.25
  -6  -2  -9    1.09    0.38
  -6  -2  -9    0.60    0.37
  -6  -2  -9    0.94    0.33
  -5   1   5    2.53    0.55
  -5   1   5    1.92    0.34
  -5   1   5    1.67    0.35
  -5   1   5    2.42    0.39
   5  -1  -5    2.21    0.36
   5  -1  -5    1.96    0.32
   5  -1  -5    2.42    0.77
   5  -1  -5    2.80    0.41
   5  -1  -5    2.54    0.49
   5  -1  -5    1.78    0.37
  -2   1   6    4.51    0.48
  -2   1   6    5.08    0.49
  -2   1   6    4.52    0.68
   2  -1  -6    4.23    0.24
   2  -1  -6    4.57    0.30
   2  -1  -6    4.12    0.38
   2  -1  -6    4.43    0.59
   2  -1  -6    3.71    0.43
   1   1   7   32.30    0.97
   1   1   7   33.81    1.18
   1   1   7   32.03    0.78
   1   1   7   31.22    1.22
  -1  -1  -7   32.29    0.97
  -1  -1  -7   30.96    1.14
  -1  -1  -7   30.92    0.98
   4   1   8    2.75    0.42
   4   1   8    2.21    0.38
   4   1   8    3.82    0.30
   4   1   8    4.11    0.55
   4   1   8    3.18    0.56
  -4  -1  -8    3.33    0.47
  -4  -1  -8    4.50    0.67
  -4  -1  -8    3.16    0.33
  -4  -1  -8    2.81    0.44
  -4  -1  -8    5.32    1.01
  -7   0   4    4.75    0.66
  -7   0   4    5.55    0.44
  -7   0   4    3.76    0.67
  -7   0   4    8.66    1.50
  -7   0   4    4.21    0.52
  -7   0   4    3.47    0.55
   7   0  -4    5.45    0.72
   7   0  -4    6.12    0.66
   7   0  -4    7.22    0.93
   7   0  -4    5.86    0.59
   7   0  -4    5.19    0.62
  -4   0   5    9.46    0.72
  -4   0   5   10.11    0.75
  -4   0   5   10.90    1.22
  -4   0   5   11.13    0.71
   4   0  -5   10.09    0.89
   4   0  -5   10.27    0.44
   4   0  -5   10.85    0.57
   4   0  -5    9.86    0.73
   4   0  -5    9.24    0.64
   4   0  -5   11.16    0.74
   4   0  -5   11.08    1.07
  -1   0   6    0.17    0.16
  -1   0   6    0.64    0.29
   1   0  -6    0.54    0.43
   1   0  -6    0.54    0.23
   1   0  -6    0.56    0.18
   2   0   7    5.94    0.50
   2   0   7    6.07    0.47
   2   0   7    6.21    0.42
   2   0   7    6.05    0.43
   2   0   7    5.84    0.66
  -2   0  -7    5.48    0.49
  -2   0  -7    5.41    0.65
  -2   0  -7    5.49    0.49
  -2   0  -7    5.68    0.42
   5   0   8   11.08    0.81
   5   0   8   13.98    0.99
   5   0   8   12.18    0.82
   5   0   8   12.23    0.82
   5   0   8    8.45    1.03
   5   0   8   12.10    0.63
  -5   0  -8   12.23    1.06
  -5   0  -8   13.01    1.08
  -5   0  -8   14.54    0.85
  -5   0  -8   13.40    0.88
  -6  -1   4    1.01    0.33
  -6  -1   4    0.24    0.25
  -6  -1   4    0.48    0.25
  -6  -1   4    0.13    0.37
  -6  -1   4    0.52    0.27
   6   1  -4    0.69    0.27
   6   1  -4    1.34    0.33
   6   1  -4    0.49    0.24
   6   1  -4    1.49    0.59
   6   1  -4    0.87    0.35
  -3  -1   5    8.40    1.00
  -3  -1   5    8.39    0.68
  -3  -1   5    9.08    0.63
   3   1  -5    8.48    0.61
   3   1  -5    7.97    0.87
   3   1  -5    9.31    0.45
   3   1  -5    9.52    0.81
   3   1  -5    9.31    0.67
   0  -1   6   14.47    0.77
   0  -1   6   14.70    0.51
   0  -1   6   15.05    0.71
   0  -1   6   14.06    0.78
   0   1  -6   14.68    0.68
   0   1  -6   15.16    0.82
   0   1  -6   16.31    1.02
   0   1  -6   15.01    0.66
   3  -1   7    0.99    0.22
   3  -1   7    0.88    0.30
   3  -1   7    0.98    0.31
   3  -1   7    1.30    0.25
   3  -1   7    0.91    0.23
  -3   1  -7    1.63    0.39
  -3   1  -7    1.16    0.22
  -3   1  -7    0.80    0.35
   6  -1   8   -0.32    0.24
   6  -1   8    0.12    0.26
   6  -1   8    0.19    0.22
   6  -1   8    0.26    0.31
  -6   1  -8   -0.30    0.33
  -6   1  -8    0.14    0.27
  -6   1  -8    0.15    0.40
  -6   1  -8    0.19    0.36
  -5  -2   4   -0.04    0.19
  -5  -2   4    1.23    0.59
  -5  -2   4    0.13    0.23
  -5  -2   4   -0.14    0.42
  -5  -2   4    0.13    0.20
  -5  -2   4    1.13    0.73
   5   2  -4    0.37    0.23
   5   2  -4    0.44    0.45
   5   2  -4    0.48    0.54
   5   2  -4    0.22    0.31
   5   2  -4    0.15    0.19
   5   2  -4    0.50    0.25
  -2  -2   5    0.42    0.23
  -2  -2   5    0.23    0.12
  -2  -2   5    0.71    0.38
  -2  -2   5    0.30    0.21
  -2  -2   5    0.58    0.48
   2   2  -5    0.13    0.50
   2   2  -5    0.59    0.38
   2   2  -5    0.30    0.31
   2   2  -5    0.26    0.16
   1  -2   6    0.14    0.23
   1  -2   6    0.07    0.26
   1  -2   6   -0.11    0.16
   1  -2   6   -0.09    0.16
  -1   2  -6   -0.04    0.17
  -1   2  -6    0.13    0.13
  -1   2  -6    0.28    0.26
   4  -2   7    0.46    0.21
   4  -2   7    0.18    0.19
   4  -2   7    0.23    0.26
   4  -2   7    0.24    0.16
  -4   2  -7    0.11    0.30
  -4   2  -7    0.41    0.28
  -4   2  -7    0.36    0.47
  -4   2  -7    0.21    0.15
  -4   2  -7    0.20    0.21
  -7  -3   3    0.20    0.25
  -7  -3   3    0.59    0.35
  -7  -3   3    0.28    0.27
   7   3  -3    0.13    0.27
   7   3  -3    0.76    0.38
   7   3  -3    1.84    0.71
  -4  -3   4    0.62    0.50
  -4  -3   4    1.59    0.96
  -4  -3   4    0.58    0.22
  -4  -3   4    0.53    0.18
  -4  -3   4    0.87    0.28
  -4  -3   4    0.03    0.41
  -4  -3   4    0.37    0.21
   4   3  -4    0.53    0.45
   4   3  -4    0.33    0.21
   4   3  -4    0.59    0.26
   4   3  -4    0.70    0.58
   4   3  -4    1.09    0.45
  -1  -3   5    4.34    0.57
  -1  -3   5    5.33    0.61
  -1  -3   5    4.86    0.46
  -1  -3   5    4.19    0.52
  -1  -3   5    4.81    0.49
   1   3  -5    4.11    0.40
   1   3  -5    3.02    0.55
   1   3  -5    4.81    0.75
   2  -3   6    0.27    0.21
   2  -3   6    0.09    0.23
   2  -3   6    0.40    0.26
   2  -3   6    0.58    0.23
  -2   3  -6    0.40    0.16
  -2   3  -6    0.84    0.25
  -2   3  -6    0.58    0.33
   5  -3   7   -0.43    0.15
   5  -3   7   -0.07    0.28
   5  -3   7   -0.07    0.16
   5  -3   7   -0.08    0.25
  -5   3  -7    0.33    0.35
  -5   3  -7   -0.20    0.29
  -5   3  -7    0.40    0.46
  -5   3  -7   -0.04    0.23
  -6  -4   3    0.84    0.38
  -6  -4   3    0.42    0.27
  -6  -4   3    0.33    0.22
  -6  -4   3    0.07    0.21
   6   4  -3    0.20    0.50
   6   4  -3    0.17    0.25
   6   4  -3   -0.02    0.42
  -3  -4   4    5.57    0.31
  -3  -4   4    5.73    0.47
  -3  -4   4    5.03    0.64
  -3  -4   4    5.34    0.44
  -3  -4   4    6.12    0.60
  -3  -4   4    4.77    0.64
  -3  -4   4    7.68    1.40
  -3  -4   4    5.56    0.77
   3   4  -4    4.33    0.40
   3   4  -4    4.85    0.57
   3   4  -4    4.93    0.80
   3   4  -4    5.50    0.64
   3   4  -4    4.74    0.49
   3   4  -4    5.07    0.52
   0  -4   5    4.99    0.58
   0  -4   5    5.30    0.52
   0  -4   5    6.11    0.66
   0  -4   5    6.17    0.56
   0   4  -5    5.03    0.50
   0   4  -5    6.66    0.68
   0   4  -5    6.05    0.86
   0   4  -5    6.26    0.69
   3  -4   6    6.25    0.49
   3  -4   6    7.05    0.66
   3  -4   6    7.55    0.77
   3  -4   6    6.44    0.67
  -3   4  -6    6.73    0.68
  -3   4  -6    7.01    0.49
  -3   4  -6    6.50    0.80
  -3   4  -6    7.16    0.41
  -3   4  -6    7.97    0.93
   6  -4   7    0.04    0.25
   6  -4   7    0.29    0.43
   6  -4   7   -0.26    0.22
   6  -4   7   -0.05    0.30
  -6   4  -7    1.30    0.45
  -6   4  -7    0.06    0.29
  -5  -5   3    0.77    0.26
  -5  -5   3    1.25    0.42
  -5  -5   3    0.50    0.27
  -5  -5   3    0.54    0.32
  -5  -5   3    0.03    0.22
  -5  -5   3    2.39    0.73
  -5  -5   3    0.80    0.23
  -5  -5   3    2.53    1.35
   5   5  -3    0.76    0.49
   5   5  -3    1.22    0.75
   5   5  -3    0.49    0.39
   5   5  -3    0.43    0.29
  -2  -5   4    5.46    0.58
  -2  -5   4    6.34    0.99
  -2  -5   4    6.37    0.82
  -2  -5   4    6.36    0.48
  -2  -5   4    5.83    0.53
   2   5  -4    6.52    0.68
   2   5  -4    5.35    0.81
   2   5  -4    5.72    0.53
   2   5  -4    5.86    0.51
   2   5  -4    5.74    0.47
   2   5  -4    6.26    0.58
   1  -5   5    9.78    0.79
   1  -5   5    9.03    0.70
   1  -5   5    9.55    0.66
   1  -5   5   10.21    0.74
  -1   5  -5    9.38    0.67
  -1   5  -5    9.99    0.50
  -1   5  -5    9.62    0.64
  -1   5  -5    9.43    0.73
  -1   5  -5    9.92    0.85
   4  -5   6    0.08    0.27
   4  -5   6   -0.22    0.19
   4  -5   6   -0.12    0.17
  -4   5  -6   -0.17    0.15
  -4   5  -6    0.07    0.35
  -4   5  -6   -0.08    0.36
  -4   5  -6    0.35    0.41
  -4  -6   3    1.22    0.39
  -4  -6   3    0.83    0.25
  -4  -6   3    1.33    0.37
  -4  -6   3    0.72    0.30
  -4  -6   3    1.60    2.33
  -4  -6   3    2.09    0.67
  -4  -6   3    1.09    0.30
  -4  -6   3    1.30    0.28
   4   6  -3    1.14    0.32
   4   6  -3    1.15    0.30
   4   6  -3    1.59    0.56
   4   6  -3    0.99    0.52
   4   6  -3    1.99    0.73
  -1  -6   4    0.78    0.29
  -1  -6   4    1.35    0.38
  -1  -6   4    1.94    0.76
   1   6  -4    1.28    0.26
   1   6  -4    1.60    0.45
   1   6  -4    1.62    0.34
   1   6  -4    1.49    0.57
   1   6  -4    1.25    0.78
   1   6  -4    0.83    0.31
   2  -6   5    0.00    0.20
   2  -6   5    0.03    0.21
   2  -6   5    0.06    0.21
   2  -6   5   -0.02    0.23
  -2   6  -5    0.02    0.31
  -2   6  -5    0.31    0.32
  -2   6  -5    0.10    0.26
  -2   6  -5    0.06    0.31
   5  -6   6    0.93    0.46
   5  -6   6   -0.51    0.25
  -5   6  -6    0.74    0.48
  -5   6  -6   -0.24    0.39
  -6  -7   2    0.45    0.26
  -6  -7   2    0.73    0.31
  -6  -7   2    1.14    0.37
  -6  -7   2    0.24    0.27
   6   7  -2    0.82    0.69
   6   7  -2    1.13    0.60
   6   7  -2    1.02    0.43
   6   7  -2    0.48    0.61
  -3  -7   3    9.81    0.82
  -3  -7   3    9.82    0.79
  -3  -7   3    8.15    0.88
  -3  -7   3    9.07    0.68
  -3  -7   3    8.99    0.68
  -3  -7   3    8.34    0.56
  -3  -7   3    9.13    0.90
   3   7  -3    9.27    0.64
   3   7  -3    9.24    0.64
   3   7  -3    9.74    0.89
   3   7  -3    7.54    1.01
   3   7  -3    9.69    0.90
   0  -7   4    0.08    0.19
   0  -7   4    0.12    0.57
   0  -7   4   -0.02    0.27
   0  -7   4   -0.34    0.21
   0   7  -4    0.26    0.32
   0   7  -4   -0.17    0.31
   0   7  -4   -0.15    0.25
   0   7  -4   -0.08    0.20
   0   7  -4    0.07    0.64
   3  -7   5   -0.09    0.23
   3  -7   5    0.00    0.27
   3  -7   5    0.55    0.39
   3  -7   5   -0.10    0.27
   3  -7   5    0.73    0.27
  -3   7  -5    0.40    0.34
  -3   7  -5    0.95    0.43
  -3   7  -5    0.97    0.38
  -5  -8   2    0.36    0.34
  -5  -8   2   -0.07    0.23
  -5  -8   2    0.02    0.25
  -5  -8   2   -0.06    0.27
  -5  -8   2   -0.17    0.27
  -5  -8   2   -0.37    0.28
   5   8  -2    0.01    0.50
   5   8  -2   -0.12    0.26
   5   8  -2    1.37    0.73
  -2  -8   3    3.56    0.53
  -2  -8   3    3.20    0.46
  -2  -8   3    4.11    0.55
  -2  -8   3    5.45    0.69
   2   8  -3    4.88    0.90
   2   8  -3    6.36    1.31
   2   8  -3    4.10    0.44
   2   8  -3    4.72    0.65
   2   8  -3    4.28    0.63
   2   8  -3    4.55    1.12
   1  -8   4    3.34    0.53
   1  -8   4    2.73    0.47
   1  -8   4    2.31    0.42
   1  -8   4    4.90    1.15
  -1   8  -4    2.48    0.46
  -1   8  -4    5.50    1.07
  -1   8  -4    3.87    0.51
   4  -8   5    0.89    0.46
   4  -8   5    0.21    0.31
   4  -8   5    0.70    0.28
   4  -8   5    0.81    0.38
  -4   8  -5    1.75    0.54
  -4   8  -5    0.45    0.41
  -4   8  -5    1.35    0.59
  -4  -9   2   -0.08    0.28
  -4  -9   2   -0.50    0.30
  -4  -9   2    0.28    0.29
  -4  -9   2    0.06    0.28
  -4  -9   2   -0.37    0.24
   4   9  -2   -0.40    0.16
   4   9  -2    0.53    0.43
   4   9  -2    0.65    0.56
   4   9  -2   -0.26    0.22
  -1  -9   3    0.36    0.27
  -1  -9   3    0.15    0.29
  -1  -9   3    0.34    0.30
   1   9  -3    0.15    0.26
   1   9  -3    0.44    0.42
   1   9  -3    1.16    0.64
   1   9  -3    0.56    0.68
   2  -9   4    3.96    0.64
   2  -9   4    3.43    0.64
   2  -9   4    2.73    0.43
   2  -9   4    4.01    0.52
  -2   9  -4    5.36    0.58
  -2   9  -4    3.90    0.61
  -3 -10   2    0.25    0.32
  -3 -10   2    0.21    0.30
  -3 -10   2    0.23    0.36
  -3 -10   2    0.56    0.33
  -3 -10   2   -0.69    0.27
   3  10  -2    0.62    0.43
   3  10  -2    0.81    0.62
   3  10  -2   -0.24    0.24
   0 -10   3    0.39    0.30
   0 -10   3   -0.24    0.32
   0  10  -3    0.04    0.79
   0  10  -3    0.38    0.35
   0  10  -3    0.07    0.41
   0  10  -3    0.03    0.46
   3 -10   4    0.78    0.35
   3 -10   4    0.40    0.45
   3 -10   4    0.06    0.28
  -3  10  -4    1.70    0.59
  -3  10  -4    0.77    0.41
  -3  10  -4   -0.02    0.42
  -2 -11   2    0.39    0.37
  -2 -11   2    0.83    0.44
   2  11  -2    3.58    0.99
   2  11  -2    1.36    0.63
   2  11  -2    0.98    0.62
   2  11  -2    1.49    0.83
   1 -11   3   -0.29    0.22
   1 -11   3    0.40    0.43
   1 -11   3    0.17    0.32
  -1  11  -3   -0.20    0.79
  -1  11  -3    0.84    0.67
  -1  11  -3    0.66    0.42
  -1  11  -3    0.40    0.30
  -2  12  10    2.72    0.49
  -2  12  10    2.64    1.13
  -2  12  10    1.96    0.44
   2 -12 -10    1.54    0.45
   2 -12 -10    2.49    0.63
   2 -12 -10    4.07    1.05
   1  12  11    0.14    0.34
   1  12  11    0.05    0.57
   1  12  11   -0.37    0.21
   1  12  11    0.56    0.71
  -1 -12 -11   -0.13    0.22
  -1 -12 -11   -0.35    0.36
  -1  11  10   -0.02    0.26
  -1  11  10    0.69    0.76
  -1  11  10   -0.15    0.22
  -1  11  10    0.25    0.19
   1 -11 -10    0.11    0.40
   1 -11 -10   -0.27    0.18
   1 -11 -10   -0.37    0.31
   2  11  11    0.14    0.27
   2  11  11    0.92    0.64
   2  11  11   -0.02    0.54
   2  11  11    0.67    0.38
  -2 -11 -11   -0.23    0.15
  -2 -11 -11    0.06    0.36
  -2 -11 -11   -0.55    0.22
  -3  10   9    0.39    0.30
  -3  10   9    0.25    0.24
   3 -10  -9    0.01    0.27
   3 -10  -9    0.03    0.29
   3 -10  -9    0.25    0.33
   3 -10  -9    0.52    0.65
   0  10  10    0.35    0.32
   0  10  10    0.13    0.58
   0  10  10    0.56    0.26
   0 -10 -10    0.17    0.39
   0 -10 -10   -0.03    0.18
   0 -10 -10   -0.09    0.36
   3  10  11   -0.21    0.25
   3  10  11   -0.32    0.27
   3  10  11    0.23    0.43
   3  10  11   -0.16    0.47
  -3 -10 -11   -0.31    0.23
  -3 -10 -11    0.35    0.31
  -3 -10 -11   -0.24    0.25
  -5   9   8    2.73    0.47
  -5   9   8    1.48    0.40
   5  -9  -8    3.67    0.93
   5  -9  -8    1.47    0.39
  -2   9   9    0.06    0.24
  -2   9   9   -0.07    0.20
  -2   9   9    0.26    0.15
   2  -9  -9   -0.32    0.18
   2  -9  -9    0.62    0.30
   2  -9  -9   -0.18    0.23
   1   9  10    0.69    0.62
   1   9  10    0.52    0.20
   1   9  10    0.82    0.30
   1   9  10    0.56    0.36
  -1  -9 -10    1.03    0.43
  -1  -9 -10    0.53    0.42
  -1  -9 -10    0.50    0.18
  -1  -9 -10    0.45    0.20
  -1  -9 -10    0.84    0.33
  -1  -9 -10    0.74    0.33
   4   9  11   -0.54    0.28
   4   9  11    0.33    0.47
   4   9  11    0.15    0.27
   4   9  11    0.76    0.48
   4   9  11    0.15    0.25
  -4  -9 -11   -0.07    0.33
  -4  -9 -11   -0.12    0.24
  -4  -9 -11    0.27    0.32
  -4  -9 -11   -0.18    0.36
  -4  -9 -11    0.03    0.37
  -4   8   8    2.92    1.03
  -4   8   8    0.23    0.31
   4  -8  -8    1.33    0.67
   4  -8  -8    0.85    0.32
   4  -8  -8    0.92    0.31
   4  -8  -8    0.43    0.34
  -1   8   9    0.71    0.28
  -1   8   9    0.47    0.21
  -1   8   9    0.59    0.30
  -1   8   9    0.32    0.22
   1  -8  -9    0.51    0.28
   1  -8  -9    0.45    0.29
   1  -8  -9    0.50    0.23
   2   8  10    0.48    0.35
   2   8  10    0.52    0.50
   2   8  10    0.45    0.50
   2   8  10    0.34    0.26
   2   8  10    0.64    0.23
  -2  -8 -10    0.91    0.37
  -2  -8 -10    0.58    0.43
  -2  -8 -10    0.41    0.30
  -2  -8 -10    0.71    0.35
  -2  -8 -10    0.27    0.24
  -2  -8 -10    0.30    0.19
   5   8  11    0.84    0.44
   5   8  11    0.06    0.36
  -5  -8 -11    1.55    0.45
  -5  -8 -11    0.10    0.34
  -6   7   7    2.59    0.60
  -6   7   7    0.87    0.42
   6  -7  -7    2.59    0.79
   6  -7  -7    1.75    0.87
   6  -7  -7    1.41    0.44
  -3   7   8    2.69    0.47
  -3   7   8    5.09    1.02
   3  -7  -8    2.19    0.40
   3  -7  -8    3.82    0.91
   3  -7  -8    2.48    0.39
   0   7   9    2.06    0.35
   0   7   9    2.40    0.49
   0   7   9    1.43    0.32
   0   7   9    1.33    0.29
   0  -7  -9    1.68    0.40
   0  -7  -9    1.74    0.25
   0  -7  -9    1.69    0.38
   3   7  10    0.33    0.22
   3   7  10    0.29    0.25
   3   7  10    0.75    0.48
   3   7  10    0.52    0.42
   3   7  10    0.04    0.27
  -3  -7 -10    0.68    0.35
  -3  -7 -10    0.36    0.30
  -3  -7 -10    0.20    0.25
  -3  -7 -10    0.15    0.18
  -3  -7 -10    0.20    0.21
  -5   6   7    0.60    0.30
  -5   6   7    1.23    0.42
   5  -6  -7    0.78    0.31
   5  -6  -7    1.07    0.64
   5  -6  -7    0.55    0.31
  -2   6   8    0.12    0.18
  -2   6   8    0.19    0.23
  -2   6   8    0.35    0.45
   2  -6  -8    0.09    0.18
   2  -6  -8   -0.06    0.23
   2  -6  -8    0.13    0.21
   1   6   9   22.78    0.68
   1   6   9   22.60    0.95
   1   6   9   22.41    0.97
   1   6   9   22.23    1.05
  -1  -6  -9   22.94    0.70
  -1  -6  -9   21.42    0.65
  -1  -6  -9   22.36    0.88
  -1  -6  -9   21.95    1.00
  -1  -6  -9   21.53    1.01
   4   6  10    1.13    0.58
   4   6  10    1.19    0.36
   4   6  10    1.34    0.47
   4   6  10    1.54    0.53
   4   6  10    1.37    0.51
  -4  -6 -10    1.64    0.55
  -4  -6 -10    0.93    0.28
  -4  -6 -10    0.97    0.28
  -4  -6 -10    0.75    0.35
  -4   5   7    0.42    0.24
  -4   5   7    0.94    0.77
  -4   5   7   -0.09    0.16
  -4   5   7   -0.07    0.26
   4  -5  -7    0.03    0.23
   4  -5  -7   -0.14    0.16
   4  -5  -7   -0.09    0.18
   4  -5  -7    0.88    0.57
  -1   5   8   10.55    0.71
  -1   5   8   12.12    0.69
  -1   5   8   11.89    0.67
   1  -5  -8   11.90    0.74
   1  -5  -8   11.88    0.65
   1  -5  -8   13.11    0.68
   2   5   9    0.42    0.51
   2   5   9    0.43    0.26
   2   5   9    0.11    0.27
   2   5   9    0.20    0.21
   2   5   9    0.45    0.40
  -2  -5  -9    0.43    0.27
  -2  -5  -9    0.65    0.30
  -2  -5  -9    0.46    0.28
  -2  -5  -9    0.43    0.18
   5   5  10   -0.29    0.27
   5   5  10    0.10    0.32
   5   5  10   -0.21    0.29
   5   5  10    0.77    0.34
  -5  -5 -10    1.62    1.10
  -5  -5 -10   -0.02    0.19
  -5  -5 -10    0.69    0.44
  -5  -5 -10   -0.64    0.26
  -5  -5 -10   -0.68    0.69
  -5  -5 -10   -0.02    0.32
  -5  -5 -10    0.24    0.31
  -6   4   6    0.51    0.19
  -6   4   6    0.21    0.26
  -6   4   6    0.84    0.41
   6  -4  -6    0.40    0.27
   6  -4  -6    0.57    0.59
   6  -4  -6   -0.02    0.25
   6  -4  -6    0.59    0.29
  -3   4   7    0.14    0.20
  -3   4   7    0.06    0.18
  -3   4   7    0.20    0.21
  -3   4   7    0.42    0.57
   3  -4  -7   -0.27    0.17
   3  -4  -7   -0.10    0.41
   3  -4  -7    0.13    0.15
   3  -4  -7   -0.15    0.13
   0   4   8    0.13    0.12
   0   4   8    0.39    0.24
   0   4   8   -0.01    0.24
   0  -4  -8   -0.04    0.09
   0  -4  -8    0.24    0.21
   0  -4  -8    0.26    0.22
   0  -4  -8    0.13    0.11
   3   4   9    6.34    0.63
   3   4   9    7.53    0.67
   3   4   9    6.22    0.50
   3   4   9    6.90    0.62
   3   4   9    6.41    0.65
  -3  -4  -9    6.85    0.55
  -3  -4  -9    6.31    0.74
  -3  -4  -9    7.25    0.65
  -3  -4  -9    6.92    0.55
   6   4  10   -0.24    0.39
   6   4  10   -0.22    0.27
   6   4  10   -0.05    0.20
   6   4  10    0.34    0.31
   6   4  10   -0.17    0.26
  -6  -4 -10   -0.12    0.38
  -5   3   6   17.01    1.08
  -5   3   6   17.12    0.94
  -5   3   6   21.87    1.58
  -5   3   6   17.97    0.91
  -5   3   6   17.94    0.75
   5  -3  -6   17.84    0.82
   5  -3  -6   17.61    1.33
   5  -3  -6   17.34    0.92
   5  -3  -6   18.79    0.90
   5  -3  -6   16.35    0.98
  -2   3   7   13.66    0.76
  -2   3   7   13.35    0.76
  -2   3   7   13.92    0.95
   2  -3  -7   13.87    0.74
   2  -3  -7   13.65    0.89
   2  -3  -7   14.09    0.89
   2  -3  -7   13.73    0.56
   2  -3  -7   13.75    0.51
   1   3   8    3.48    0.27
   1   3   8    3.45    0.45
   1   3   8    3.55    0.51
   1   3   8    3.16    0.40
  -1  -3  -8    3.53    0.40
  -1  -3  -8    2.83    0.38
  -1  -3  -8    3.59    0.30
  -1  -3  -8    3.61    0.42
   4   3   9    2.39    0.52
   4   3   9    0.81    0.26
   4   3   9    1.79    0.48
   4   3   9    1.91    0.46
   4   3   9    1.50    0.41
   4   3   9    0.95    0.33
  -4  -3  -9    2.18    0.48
  -4  -3  -9    1.15    0.26
  -4  -3  -9    1.29    0.36
  -7   2   5    0.19    0.27
  -7   2   5   -0.40    0.17
  -7   2   5    0.24    0.42
  -7   2   5    0.54    0.32
  -7   2   5   -0.28    0.25
   7  -2  -5    0.85    0.63
   7  -2  -5    0.08    0.27
   7  -2  -5    0.07    0.23
   7  -2  -5   -0.22    0.25
   7  -2  -5    0.16    0.26
  -4   2   6    1.12    0.40
  -4   2   6    0.62    0.24
  -4   2   6    0.28    0.22
  -4   2   6    2.29    0.94
   4  -2  -6    0.64    0.22
   4  -2  -6    1.19    0.29
   4  -2  -6    0.82    0.20
   4  -2  -6    1.17    0.26
   4  -2  -6    1.41    0.60
  -1   2   7   18.50    0.77
  -1   2   7   17.94    0.87
  -1   2   7   18.39    0.82
   1  -2  -7   18.06    0.94
   1  -2  -7   18.07    0.62
   1  -2  -7   17.55    0.79
   1  -2  -7   17.91    0.57
   2   2   8    0.56    0.12
   2   2   8    0.96    0.31
   2   2   8    0.18    0.19
   2   2   8    1.34    0.36
   2   2   8    0.46    0.16
   2   2   8    0.45    0.26
   2   2   8    0.34    0.27
   2   2   8    0.93    0.30
  -2  -2  -8    0.49    0.21
  -2  -2  -8    0.60    0.29
  -2  -2  -8    0.40    0.25
   5   2   9    0.58    0.35
   5   2   9    0.46    0.25
   5   2   9    0.46    0.27
   5   2   9    0.96    0.34
  -5  -2  -9    0.39    0.16
  -5  -2  -9    0.31    0.30
  -5  -2  -9    0.31    0.35
  -6   1   5    0.02    0.22
  -6   1   5    0.19    0.21
  -6   1   5   -0.39    0.20
  -6   1   5    3.58    1.34
  -6   1   5    0.06    0.20
  -6   1   5    0.33    0.46
   6  -1  -5    0.35    0.23
   6  -1  -5    0.21    0.22
   6  -1  -5    0.09    0.18
   6  -1  -5   -0.10    0.41
   6  -1  -5    0.62    0.32
  -3   1   6    0.89    0.99
  -3   1   6    1.00    0.29
  -3   1   6    0.43    0.17
   3  -1  -6    1.05    0.56
   3  -1  -6    1.16    0.59
   3  -1  -6    1.14    0.30
   3  -1  -6    0.63    0.15
   0   1   7  109.57    2.31
   0   1   7  110.73    2.43
   0   1   7  112.56    2.19
   0  -1  -7  110.74    2.64
   0  -1  -7  110.63    2.04
   0  -1  -7  113.08    2.32
   0  -1  -7  117.03    2.53
   3   1   8    0.52    0.30
   3   1   8    0.17    0.15
   3   1   8    0.32    0.24
   3   1   8    0.35    0.20
   3   1   8    0.15    0.28
   3   1   8    0.27    0.12
  -3  -1  -8    0.29    0.17
  -3  -1  -8    0.36    0.33
  -3  -1  -8    0.17    0.23
   6   1   9    0.08    0.33
   6   1   9    0.10    0.14
   6   1   9   -0.16    0.26
   6   1   9    0.89    0.37
   6   1   9    0.09    0.22
  -6  -1  -9    0.59    0.36
  -6  -1  -9   -0.21    0.34
  -6  -1  -9    0.55    0.43
  -5   0   5    1.70    0.90
  -5   0   5    0.13    0.18
  -5   0   5    0.01    0.45
  -5   0   5   -0.21    0.19
  -5   0   5    0.35    0.24
   5   0  -5    0.31    0.44
   5   0  -5   -0.01    0.17
   5   0  -5    0.37    0.19
   5   0  -5   -0.03    0.24
   5   0  -5   -0.03    0.17
  -2   0   6    3.98    0.46
  -2   0   6    4.60    0.78
  -2   0   6    4.13    0.47
   2   0  -6    3.69    0.30
   2   0  -6    3.86    0.41
   2   0  -6    3.41    0.41
   2   0  -6    3.98    0.62
   1   0   7    1.47    0.28
   1   0   7    1.34    0.17
   1   0   7    1.55    0.28
   1   0   7    1.18    0.29
  -1   0  -7    1.50    0.30
  -1   0  -7    0.93    0.30
  -1   0  -7    1.12    0.23
  -1   0  -7    1.34    0.25
   4   0   8   31.80    1.28
   4   0   8   32.16    0.98
   4   0   8   30.22    1.30
   4   0   8   31.91    1.42
   4   0   8   32.72    1.22
  -4   0  -8   30.64    1.29
  -4   0  -8   32.01    1.46
  -4   0  -8   32.70    1.64
  -4   0  -8   32.76    1.20
  -4   0  -8   30.99    0.89
  -4   0  -8   29.08    1.30
  -7  -1   4    0.66    0.32
  -7  -1   4    0.93    0.38
  -7  -1   4    0.71    0.30
  -7  -1   4    1.15    0.43
   7   1  -4    0.78    0.34
   7   1  -4    0.57    0.50
   7   1  -4    0.93    0.31
   7   1  -4    0.33    0.29
   7   1  -4    0.12    0.24
  -4  -1   5   12.87    0.87
  -4  -1   5   15.17    1.39
  -4  -1   5   14.74    0.83
   4   1  -5   13.72    0.81
   4   1  -5   14.32    0.79
   4   1  -5   14.82    0.68
   4   1  -5   13.69    1.20
   4   1  -5   14.76    1.05
   4   1  -5   14.93    0.90
  -1  -1   6   11.98    0.68
  -1  -1   6   11.71    0.76
   1   1  -6   11.24    0.90
   1   1  -6   11.52    0.64
   1   1  -6   11.26    0.55
   2  -1   7    2.63    0.45
   2  -1   7    2.21    0.38
   2  -1   7    1.86    0.28
   2  -1   7    1.89    0.36
   2  -1   7    1.71    0.24
  -2   1  -7    2.43    0.42
  -2   1  -7    2.43    0.39
  -2   1  -7    2.12    0.32
   5  -1   8    3.49    0.45
   5  -1   8    4.47    0.65
   5  -1   8    2.69    0.42
  -5   1  -8    4.04    0.97
  -5   1  -8    2.38    0.58
  -5   1  -8    3.58    0.51
  -5   1  -8    5.28    0.71
  -6  -2   4    4.11    0.57
  -6  -2   4    3.09    0.85
  -6  -2   4    2.79    0.49
  -6  -2   4    2.66    0.44
  -6  -2   4    2.82    0.56
   6   2  -4    2.50    0.41
   6   2  -4    3.95    1.03
   6   2  -4    3.21    0.57
   6   2  -4    2.65    0.44
  -3  -2   5    2.93    0.59
  -3  -2   5    2.84    0.33
  -3  -2   5    2.36    0.37
  -3  -2   5    4.13    0.86
  -3  -2   5    2.53    0.40
  -3  -2   5    4.10    1.03
   3   2  -5    3.65    0.60
   3   2  -5    3.24    0.76
   3   2  -5    2.63    0.26
   3   2  -5    3.54    0.46
   3   2  -5    4.04    0.75
   3   2  -5    2.27    0.34
   0  -2   6    3.36    0.64
   0  -2   6    2.19    0.33
   0  -2   6    2.36    0.26
   0  -2   6    1.69    0.33
   0  -2   6    2.35    0.28
   0   2  -6    2.30    0.36
   0   2  -6    2.07    0.33
   0   2  -6    4.20    0.94
   0   2  -6    1.98    0.35
   3  -2   7    0.96    0.24
   3  -2   7    0.72    0.25
   3  -2   7    0.95    0.35
   3  -2   7    1.11    0.25
  -3   2  -7    1.43    0.37
  -3   2  -7    1.13    0.23
  -3   2  -7    0.65    0.32
   6  -2   8   -0.03    0.24
   6  -2   8    0.36    0.32
   6  -2   8   -0.03    0.30
   6  -2   8   -0.19    0.19
  -6   2  -8   -0.06    0.27
  -6   2  -8   -0.63    0.32
  -5  -3   4    0.55    0.29
  -5  -3   4    0.06    0.27
  -5  -3   4    1.08    0.32
  -5  -3   4    0.17    0.24
   5   3  -4    0.47    0.49
   5   3  -4    0.03    0.22
   5   3  -4    0.75    0.45
   5   3  -4    0.97    0.48
  -2  -3   5    2.59    0.38
  -2  -3   5    3.42    0.37
  -2  -3   5    3.15    0.30
  -2  -3   5    2.71    0.45
  -2  -3   5    5.13    0.94
  -2  -3   5    3.75    0.63
   2   3  -5    2.44    0.33
   2   3  -5    3.41    0.80
   2   3  -5    4.33    0.70
   2   3  -5    3.50    0.49
   2   3  -5    2.94    0.34
   1  -3   6    0.02    0.22
   1  -3   6    0.44    0.34
   1  -3   6    0.01    0.20
   1  -3   6    0.26    0.20
  -1   3  -6    0.22    0.18
  -1   3  -6    0.41    0.34
  -1   3  -6    0.25    0.18
   4  -3   7    0.03    0.16
   4  -3   7    0.06    0.19
   4  -3   7    0.36    0.28
  -4   3  -7   -0.26    0.42
  -4   3  -7   -0.05    0.19
  -4   3  -7    0.33    0.32
  -4   3  -7    0.10    0.27
  -4  -4   4    0.96    0.28
  -4  -4   4    1.37    0.56
  -4  -4   4    0.83    0.30
  -4  -4   4    1.33    0.22
  -4  -4   4    1.09    0.25
  -4  -4   4    0.98    0.25
   4   4  -4    0.83    0.53
   4   4  -4    0.70    0.24
   4   4  -4    1.60    0.56
   4   4  -4    0.80    0.27
   4   4  -4    1.28    0.44
   4   4  -4    1.37    0.22
  -1  -4   5    3.39    0.45
  -1  -4   5    2.61    0.41
  -1  -4   5    3.57    1.14
  -1  -4   5    2.95    0.40
   1   4  -5    3.05    0.45
   1   4  -5    2.53    0.38
   1   4  -5    4.44    1.05
   2  -4   6    7.31    0.69
   2  -4   6    7.64    0.70
   2  -4   6    7.80    0.64
   2  -4   6    8.42    0.60
  -2   4  -6    8.32    0.70
  -2   4  -6    7.98    0.81
  -2   4  -6    8.30    0.56
   5  -4   7    1.01    0.38
   5  -4   7    0.23    0.15
   5  -4   7    0.44    0.27
  -5   4  -7    0.52    0.39
  -5   4  -7    0.24    0.35
  -5   4  -7    1.42    0.64
  -6  -5   3    0.55    0.64
  -6  -5   3   -0.13    0.17
   6   5  -3    0.32    0.67
   6   5  -3   -0.05    0.28
   6   5  -3    0.14    0.38
   6   5  -3    0.06    0.41
  -3  -5   4   -0.12    1.03
  -3  -5   4    0.61    0.25
  -3  -5   4    1.12    0.22
  -3  -5   4    1.23    0.55
  -3  -5   4    1.02    0.31
  -3  -5   4    1.23    0.67
  -3  -5   4    0.78    0.32
  -3  -5   4    0.86    0.30
   3   5  -4    0.50    0.23
   3   5  -4    1.92    0.54
   3   5  -4    0.88    0.38
   3   5  -4    0.84    0.55
   3   5  -4    0.59    0.23
   3   5  -4    0.66    0.23
   0  -5   5    0.55    0.24
   0  -5   5    0.18    0.26
   0  -5   5    0.54    0.44
   0  -5   5    0.61    0.31
   0   5  -5    0.75    0.30
   0   5  -5    1.23    0.50
   0   5  -5    0.15    0.22
   0   5  -5    1.15    0.73
   0   5  -5    0.24    0.28
   3  -5   6   11.67    0.85
   3  -5   6   13.23    0.72
   3  -5   6   11.95    0.92
   3  -5   6   12.33    0.88
  -3   5  -6   12.32    1.20
  -3   5  -6   12.07    0.73
  -3   5  -6   11.51    0.96
  -3   5  -6   12.56    0.92
   6  -5   7   -0.32    0.31
   6  -5   7   -0.04    0.31
   6  -5   7   -0.54    0.28
   6  -5   7    0.68    0.41
  -6   5  -7    1.49    0.70
  -6   5  -7   -0.52    0.44
  -5  -6   3    0.05    0.37
  -5  -6   3   -0.11    0.19
  -5  -6   3    0.07    0.21
  -5  -6   3    0.02    0.20
  -5  -6   3   -0.30    0.25
  -5  -6   3    0.74    0.54
  -5  -6   3   -0.06    0.22
   5   6  -3    0.10    0.41
   5   6  -3    0.88    0.66
   5   6  -3    0.42    0.28
   5   6  -3    0.33    0.36
  -2  -6   4    7.74    0.90
  -2  -6   4    8.06    0.77
  -2  -6   4    7.09    0.68
  -2  -6   4    8.11    0.65
  -2  -6   4    7.61    0.95
  -2  -6   4    7.59    0.75
   2   6  -4    8.42    1.04
   2   6  -4    7.94    0.54
   2   6  -4    7.53    0.58
   2   6  -4    7.01    0.54
   2   6  -4    7.10    0.63
   2   6  -4    8.20    0.79
   1  -6   5   11.96    0.82
   1  -6   5   11.42    0.86
   1  -6   5   11.71    0.86
   1  -6   5   12.52    1.24
   1  -6   5   11.06    0.74
  -1   6  -5   11.91    0.80
  -1   6  -5   12.51    0.94
  -1   6  -5   12.17    0.88
  -1   6  -5   12.54    0.63
  -1   6  -5   11.28    0.58
   4  -6   6    2.62    0.49
   4  -6   6    3.64    0.63
   4  -6   6    2.23    0.43
   4  -6   6    3.27    0.43
  -4   6  -6    4.59    0.65
  -4   6  -6    3.69    0.60
  -4   6  -6    3.71    0.46
  -4   6  -6    2.50    0.58
  -4  -7   3    1.47    0.31
  -4  -7   3    1.22    0.43
  -4  -7   3    1.28    0.37
  -4  -7   3    0.88    0.37
  -4  -7   3    0.85    0.30
  -4  -7   3    1.62    0.39
   4   7  -3    2.18    0.61
   4   7  -3    1.48    0.51
   4   7  -3    1.13    0.61
   4   7  -3    0.92    0.29
   4   7  -3    1.28    0.33
  -1  -7   4    6.53    0.88
  -1  -7   4    5.40    0.67
  -1  -7   4    6.47    0.64
  -1  -7   4    6.26    0.64
   1   7  -4    6.40    0.96
   1   7  -4    6.42    0.46
   1   7  -4    6.75    0.62
   1   7  -4    5.94    0.78
   1   7  -4    6.94    0.68
   2  -7   5    0.66    0.27
   2  -7   5    0.60    0.31
   2  -7   5    0.58    0.31
   2  -7   5    0.19    0.31
  -2   7  -5    1.24    0.53
  -2   7  -5    1.43    0.36
  -2   7  -5    1.26    0.34
  -2   7  -5    0.54    0.35
   5  -7   6   -0.20    0.21
   5  -7   6    0.01    0.36
  -5   7  -6   -0.24    0.41
  -5   7  -6    1.24    0.49
  -5   7  -6    0.23    0.31
  -3  -8   3    7.84    1.63
  -3  -8   3    5.03    0.99
  -3  -8   3    3.12    0.56
  -3  -8   3    2.80    0.49
  -3  -8   3    3.51    0.50
  -3  -8   3    4.68    0.59
  -3  -8   3    2.94    0.52
  -3  -8   3    3.95    0.57
   3   8  -3    3.67    0.55
   3   8  -3    5.54    0.96
   3   8  -3    4.67    0.46
   3   8  -3    3.52    0.47
   3   8  -3    5.00    1.22
   0  -8   4    0.23    0.25
   0  -8   4    0.56    0.36
   0  -8   4    2.63    0.92
   0  -8   4    0.81    0.32
   0   8  -4    0.64    0.33
   0   8  -4    2.00    0.54
   0   8  -4    1.07    0.88
   0   8  -4    0.81    0.52
   3  -8   5    1.12    0.50
   3  -8   5    0.99    0.45
   3  -8   5    0.06    0.23
   3  -8   5   -0.19    0.43
   3  -8   5    0.26    0.27
  -3   8  -5    0.68    0.41
  -3   8  -5    0.76    0.48
  -3   8  -5    0.85    0.33
  -3   8  -5    1.55    0.45
  -2  -9   3   -0.15    0.27
  -2  -9   3   -0.12    0.32
  -2  -9   3    2.97    0.96
  -2  -9   3    0.28    0.31
   2   9  -3    0.52    0.60
   2   9  -3    0.09    0.47
   2   9  -3   -0.16    0.20
   2   9  -3    0.70    0.53
   2   9  -3    0.06    0.39
   2   9  -3    0.28    0.20
   1  -9   4    4.31    0.69
   1  -9   4    3.15    0.56
   1  -9   4    4.65    0.65
   1  -9   4    3.72    0.54
  -1   9  -4    5.44    0.77
  -1   9  -4    4.69    0.59
  -1   9  -4    3.98    0.59
   4  -9   5    0.58    0.41
   4  -9   5   -0.07    0.40
   4  -9   5    0.49    0.28
  -4   9  -5    1.23    0.55
  -4   9  -5   -0.09    0.38
  -4   9  -5    0.67    0.44
  -1 -10   3    1.27    0.46
  -1 -10   3    2.59    1.41
  -1 -10   3    0.08    0.28
  -1 -10   3    0.31    0.31
   1  10  -3    0.42    0.29
   1  10  -3    0.62    0.63
   1  10  -3    0.90    0.76
   1  10  -3    1.35    0.56
   2 -10   4    0.57    0.36
   2 -10   4    1.51    0.48
   2 -10   4    1.40    0.39
  -2  10  -4    2.68    0.79
  -2  10  -4    2.75    0.58
  -2  10  -4    0.93    0.42
   0 -11   3    0.57    0.41
   0 -11   3   -0.26    0.29
   0 -11   3   -0.35    0.30
   0  11  -3    0.65    0.59
   0  11  -3    1.08    0.47
   0  11  -3    0.39    0.59
   0  12  11    3.57    1.14
   0  12  11    3.43    0.48
   0  12  11    3.81    0.70
   0 -12 -11    2.50    0.62
   0 -12 -11    2.83    0.45
  -2  11  10    1.18    0.40
  -2  11  10    1.03    0.26
  -2  11  10    0.78    0.46
  -2  11  10    1.66    0.35
   2 -11 -10    0.96    0.35
   2 -11 -10    1.71    0.43
   1  11  11    0.17    0.25
   1  11  11    0.48    0.37
   1  11  11    0.39    0.60
  -1 -11 -11   -0.34    0.33
  -1 -11 -11   -0.41    0.42
  -1 -11 -11    0.12    0.31
  -4  10   9    0.83    0.34
  -4  10   9    0.25    0.36
   4 -10  -9    1.28    0.62
   4 -10  -9    0.43    0.33
  -1  10  10    0.54    0.26
  -1  10  10    0.20    0.22
  -1  10  10    0.34    0.32
  -1  10  10    0.19    0.25
   1 -10 -10    0.20    0.38
   1 -10 -10   -0.03    0.20
   1 -10 -10    0.49    0.33
   2  10  11    2.12    0.82
   2  10  11    2.11    0.77
   2  10  11    0.72    0.39
   2  10  11    1.16    0.49
  -2 -10 -11    1.03    0.53
  -2 -10 -11    1.36    0.46
  -2 -10 -11    0.64    0.61
  -2 -10 -11    0.62    0.35
  -3   9   9   -0.12    0.25
  -3   9   9    2.49    0.78
  -3   9   9    0.47    0.24
   3  -9  -9   -0.16    0.29
   3  -9  -9    0.58    0.70
   3  -9  -9    0.04    0.30
   0   9  10    0.58    0.26
   0   9  10    1.58    0.82
   0   9  10    1.13    0.31
   0   9  10    0.57    0.23
   0   9  10    0.96    0.33
   0  -9 -10    0.60    0.27
   0  -9 -10    0.66    0.21
   3   9  11    0.62    0.32
   3   9  11    0.35    0.24
   3   9  11    0.47    0.40
   3   9  11    1.09    0.51
  -3  -9 -11    0.36    0.30
  -3  -9 -11   -0.38    0.39
  -3  -9 -11   -0.16    0.35
  -3  -9 -11   -0.34    0.24
  -5   8   8    0.46    0.28
  -5   8   8    1.20    0.40
  -5   8   8    0.36    0.28
   5  -8  -8    0.32    0.49
   5  -8  -8    0.23    0.27
  -2   8   9    1.68    0.33
  -2   8   9    2.78    0.33
  -2   8   9    4.10    0.56
   2  -8  -9    2.46    0.47
   2  -8  -9    3.27    0.45
   2  -8  -9    2.27    0.40
   1   8  10    0.48    0.27
   1   8  10    1.30    0.41
   1   8  10    0.68    0.28
   1   8  10    0.77    0.51
  -1  -8 -10    0.65    0.33
  -1  -8 -10    0.91    0.28
  -1  -8 -10    0.26    0.23
  -1  -8 -10    0.62    0.29
  -1  -8 -10    0.35    0.15
   4   8  11    0.62    0.40
   4   8  11    0.67    0.31
   4   8  11    0.46    0.40
   4   8  11   -0.05    0.28
   4   8  11    0.14    0.30
  -4  -8 -11   -0.21    0.24
  -4  -8 -11    0.33    0.50
  -4  -8 -11    0.31    0.30
  -4  -8 -11    0.12    0.34
  -4  -8 -11    0.13    0.31
  -4   7   8    0.90    0.34
  -4   7   8    5.46    1.29
  -4   7   8    2.41    0.30
   4  -7  -8    1.84    0.38
   4  -7  -8    2.17    0.65
   4  -7  -8    2.11    0.42
   4  -7  -8    3.52    0.85
  -1   7   9    0.08    0.25
  -1   7   9    0.21    0.19
  -1   7   9    0.06    0.17
  -1   7   9   -0.11    0.23
   1  -7  -9    0.04    0.23
   1  -7  -9    0.24    0.24
   1  -7  -9   -0.03    0.14
   2   7  10    2.35    0.36
   2   7  10    3.43    0.82
   2   7  10    2.08    0.61
   2   7  10    1.48    0.35
   2   7  10    2.49    0.54
  -2  -7 -10    1.61    0.30
  -2  -7 -10    1.31    0.35
  -2  -7 -10    1.09    0.39
  -2  -7 -10    2.99    0.48
   5   7  11    1.77    0.58
   5   7  11    0.65    0.39
   5   7  11    1.64    0.57
   5   7  11    1.06    0.42
   5   7  11    1.77    0.47
  -5  -7 -11    1.59    0.54
  -5  -7 -11    0.74    0.41
  -5  -7 -11    0.66    0.28
  -6   6   7    1.09    0.36
  -6   6   7    2.35    0.59
  -6   6   7    0.94    0.40
   6  -6  -7    1.72    0.44
   6  -6  -7    1.51    0.41
   6  -6  -7    2.27    0.52
   6  -6  -7    2.66    0.88
  -3   6   8    1.34    0.67
  -3   6   8    0.02    0.35
  -3   6   8    0.05    0.21
   3  -6  -8    0.16    0.19
   3  -6  -8    1.08    0.55
   3  -6  -8    0.30    0.23
   3  -6  -8    0.45    0.23
   0   6   9    1.54    0.25
   0   6   9    0.84    0.30
   0   6   9    1.54    0.39
   0  -6  -9    0.91    0.27
   0  -6  -9    1.35    0.37
   0  -6  -9    1.14    0.21
   3   6  10    0.70    0.28
   3   6  10    0.32    0.25
   3   6  10    0.94    0.51
   3   6  10    0.82    0.37
   3   6  10    0.94    0.47
  -3  -6 -10    0.99    0.44
  -3  -6 -10    1.03    0.37
  -3  -6 -10    0.60    0.28
  -3  -6 -10    0.68    0.23
  -3  -6 -10    0.40    0.30
  -5   5   7    0.35    0.16
  -5   5   7    1.88    1.04
  -5   5   7    0.19    0.34
  -5   5   7    0.21    0.21
   5  -5  -7    0.04    0.18
   5  -5  -7    0.21    0.56
   5  -5  -7    0.25    0.29
  -2   5   8    4.88    0.47
  -2   5   8    5.00    0.57
  -2   5   8    5.07    0.67
   2  -5  -8    4.38    0.51
   2  -5  -8    5.08    0.57
   2  -5  -8    4.84    0.43
   1   5   9    2.81    0.48
   1   5   9    2.30    0.35
   1   5   9    2.54    0.28
  -1  -5  -9    2.54    0.29
  -1  -5  -9    1.89    0.35
  -1  -5  -9    2.08    0.28
  -1  -5  -9    2.92    0.49
   4   5  10    7.78    0.75
   4   5  10    7.64    0.78
   4   5  10    7.00    0.70
   4   5  10    8.30    0.78
   4   5  10    7.00    0.58
  -4  -5 -10    7.66    0.71
  -4  -5 -10    4.33    0.79
  -4  -5 -10    7.24    0.65
  -4  -5 -10    6.72    0.58
  -4  -5 -10    7.10    0.81
  -7   4   6    0.36    0.32
  -7   4   6    0.91    0.41
  -7   4   6    0.25    0.24
   7  -4  -6    0.89    0.65
   7  -4  -6    0.31    0.30
   7  -4  -6    0.18    0.26
   7  -4  -6   -0.01    0.24
   7  -4  -6   -0.07    0.32
  -4   4   7    3.23    0.43
  -4   4   7    4.76    0.62
  -4   4   7    5.35    0.96
  -4   4   7    3.98    0.46
  -4   4   7    4.32    0.37
   4  -4  -7    3.11    0.44
   4  -4  -7    5.26    0.96
   4  -4  -7    4.24    0.52
  -1   4   8   26.47    0.96
  -1   4   8   27.15    1.03
  -1   4   8   26.29    1.07
  -1   4   8   26.49    1.06
   1  -4  -8   26.52    1.03
   1  -4  -8   25.81    1.03
   1  -4  -8   27.62    0.96
   2   4   9   -0.08    0.32
   2   4   9    0.03    0.25
   2   4   9    0.42    0.39
   2   4   9    0.17    0.22
  -2  -4  -9    0.12    0.22
  -2  -4  -9    0.17    0.15
  -2  -4  -9    0.28    0.28
  -2  -4  -9    0.18    0.24
   5   4  10    1.85    0.51
   5   4  10    2.46    0.50
   5   4  10    1.22    0.29
   5   4  10    1.66    0.43
   5   4  10    2.59    0.66
  -5  -4 -10    1.85    0.50
  -5  -4 -10    1.83    0.49
  -5  -4 -10    3.98    0.75
  -5  -4 -10    2.26    0.52
  -5  -4 -10    1.53    0.27
  -6   3   6    1.52    0.48
  -6   3   6    0.42    0.23
   6  -3  -6    0.42    0.23
   6  -3  -6    0.87    0.63
  -3   3   7    1.35    0.29
  -3   3   7    1.06    0.62
  -3   3   7    0.90    0.28
   3  -3  -7    0.88    0.22
   3  -3  -7    2.36    0.70
   3  -3  -7    1.42    0.31
   0   3   8    0.47    0.24
   0   3   8    0.11    0.11
   0   3   8    0.00    0.19
   0   3   8    0.18    0.26
   0  -3  -8    0.08    0.08
   0  -3  -8   -0.23    0.15
   0  -3  -8    0.09    0.18
   0  -3  -8    0.14    0.33
   3   3   9   20.17    0.87
   3   3   9   19.17    0.89
   3   3   9   19.20    1.03
   3   3   9   19.80    1.02
   3   3   9   19.83    1.04
  -3  -3  -9   17.14    0.94
  -3  -3  -9   20.78    1.12
  -3  -3  -9   18.24    0.80
   6   3  10    0.24    0.26
   6   3  10    0.21    0.28
   6   3  10   -0.25    0.46
   6   3  10   -0.17    0.23
   6   3  10    0.19    0.42
  -6  -3 -10    0.10    0.12
  -6  -3 -10    0.32    0.36
  -5   2   6    3.02    0.48
  -5   2   6    3.66    0.65
  -5   2   6    3.60    0.47
  -5   2   6    5.14    0.63
   5  -2  -6    5.22    0.79
   5  -2  -6    4.81    0.50
   5  -2  -6    5.49    0.87
   5  -2  -6    3.76    0.55
   5  -2  -6    3.52    0.49
  -2   2   7    2.95    0.39
  -2   2   7    4.94    0.85
  -2   2   7    2.07    0.28
   2  -2  -7    3.34    0.33
   2  -2  -7    3.03    0.55
   2  -2  -7    3.02    0.40
   1   2   8   41.70    1.25
   1   2   8   40.50    0.98
   1   2   8   41.97    1.41
  -1  -2  -8   40.07    1.22
  -1  -2  -8   41.93    1.39
  -1  -2  -8   41.83    1.19
   4   2   9   11.26    0.80
   4   2   9   10.63    0.82
   4   2   9   10.88    0.72
   4   2   9   11.20    0.86
  -4  -2  -9   11.47    0.93
  -4  -2  -9   11.12    0.57
  -4  -2  -9   11.21    0.82
  -7   1   5   -0.24    0.25
  -7   1   5    0.06    0.49
  -7   1   5    0.37    0.24
  -7   1   5    0.10    0.28
   7  -1  -5    1.16    0.68
   7  -1  -5    0.87    0.40
   7  -1  -5    0.86    0.30
   7  -1  -5    0.31    0.26
   7  -1  -5    0.34    0.30
  -4   1   6    1.25    0.78
  -4   1   6    1.19    0.31
  -4   1   6    0.70    0.23
   4  -1  -6    1.32    0.44
   4  -1  -6    1.07    0.58
   4  -1  -6    1.31    0.22
   4  -1  -6    0.38    0.23
   4  -1  -6    0.92    0.57
   4  -1  -6    0.72    0.23
  -1   1   7    0.18    0.19
  -1   1   7    0.43    0.26
  -1   1   7    0.18    0.14
   1  -1  -7    0.03    0.38
   1  -1  -7    0.13    0.18
   1  -1  -7    0.16    0.11
   2   1   8    1.37    0.20
   2   1   8    1.59    0.36
   2   1   8    1.70    0.29
   2   1   8    2.32    0.41
   2   1   8    1.73    0.24
  -2  -1  -8    1.55    0.36
  -2  -1  -8    2.29    0.40
  -2  -1  -8    1.51    0.26
   5   1   9    1.21    0.53
   5   1   9    2.02    0.49
   5   1   9    1.29    0.18
   5   1   9    1.20    0.30
   5   1   9    2.11    0.48
  -5  -1  -9    1.36    0.20
  -5  -1  -9    1.61    0.58
  -5  -1  -9    1.00    0.38
  -5  -1  -9    1.62    0.51
  -6   0   5    0.33    0.25
  -6   0   5    0.10    0.24
  -6   0   5   -0.01    0.19
  -6   0   5    0.48    0.41
  -6   0   5   -0.05    0.23
   6   0  -5   -0.10    0.21
   6   0  -5    0.11    0.23
   6   0  -5   -0.15    0.43
   6   0  -5   -0.02    0.22
   6   0  -5   -0.13    0.17
  -3   0   6    1.38    0.27
  -3   0   6    2.20    0.75
  -3   0   6    1.69    0.33
   3   0  -6    1.23    0.26
   3   0  -6    2.46    0.73
   3   0  -6    1.64    0.59
   3   0  -6    1.59    0.21
   3   0  -6    2.79    0.50
   0   0   7   13.85    0.84
   0   0   7   14.04    0.72
   0   0   7   13.71    0.51
   0   0  -7   13.66    0.51
   0   0  -7   12.93    0.64
   0   0  -7   13.23    0.81
   0   0  -7   12.71    0.67
   0   0  -7   13.62    1.15
   3   0   8    1.73    0.23
   3   0   8    1.85    0.29
   3   0   8    1.91    0.35
   3   0   8    2.23    0.40
   3   0   8    2.93    0.51
  -3   0  -8    1.48    0.28
  -3   0  -8    1.39    0.37
  -3   0  -8    2.91    0.54
  -3   0  -8    1.90    0.27
   6   0   9   -0.03    0.31
   6   0   9   -0.21    0.31
   6   0   9   -0.32    0.24
   6   0   9   -0.09    0.15
  -6   0  -9   -0.41    0.34
  -5  -1   5    4.00    0.75
  -5  -1   5    2.69    0.49
  -5  -1   5    2.50    0.41
   5   1  -5    2.61    0.39
   5   1  -5    1.67    0.37
   5   1  -5    4.92    1.00
   5   1  -5    2.64    0.63
   5   1  -5    2.71    0.40
   5   1  -5    3.90    0.97
  -2  -1   6    1.34    0.31
  -2  -1   6    1.30    0.34
  -2  -1   6    0.82    0.23
   2   1  -6    1.68    0.26
   2   1  -6    1.02    0.22
   2   1  -6    2.10    0.49
   1  -1   7   35.77    1.06
   1  -1   7   35.86    1.33
   1  -1   7   36.18    1.09
   1  -1   7   37.89    1.17
  -1   1  -7   36.29    1.32
  -1   1  -7   37.50    1.31
  -1   1  -7   36.04    1.12
   4  -1   8    6.16    0.65
   4  -1   8    6.32    0.52
   4  -1   8    6.31    0.71
   4  -1   8    6.61    0.64
   4  -1   8    6.49    0.57
   4  -1   8    6.35    0.46
  -4   1  -8    5.95    0.62
  -4   1  -8    6.14    0.80
  -4   1  -8    5.85    0.41
  -4   1  -8    6.10    0.56
  -4   1  -8    6.68    0.81
  -7  -2   4    0.11    0.22
  -7  -2   4    0.36    0.36
  -7  -2   4   -0.43    0.24
  -7  -2   4    0.22    0.32
   7   2  -4   -0.29    0.29
   7   2  -4    0.25    0.46
   7   2  -4   -0.01    0.29
   7   2  -4   -0.26    0.19
  -4  -2   5   -0.33    0.31
  -4  -2   5    0.11    0.18
  -4  -2   5    0.21    0.22
  -4  -2   5    1.67    0.89
  -4  -2   5    1.19    0.68
   4   2  -5    0.73    0.63
   4   2  -5    0.60    0.35
   4   2  -5    0.36    0.24
   4   2  -5    0.50    0.26
   4   2  -5    0.48    0.45
  -1  -2   6    4.02    0.60
  -1  -2   6    4.19    0.48
  -1  -2   6    3.82    0.42
  -1  -2   6    4.00    0.24
   1   2  -6    4.34    0.41
   1   2  -6    3.66    0.44
   1   2  -6    3.69    0.75
   2  -2   7    0.14    0.21
   2  -2   7    0.37    0.21
   2  -2   7    0.60    0.29
   2  -2   7    0.43    0.22
  -2   2  -7    0.49    0.29
  -2   2  -7    0.44    0.33
  -2   2  -7    0.44    0.18
   5  -2   8    1.10    0.35
   5  -2   8    1.15    0.39
   5  -2   8    1.31    0.48
   5  -2   8    0.51    0.25
  -5   2  -8    1.36    0.35
  -5   2  -8    0.62    0.34
  -5   2  -8    1.01    0.45
  -5   2  -8    4.08    0.96
  -6  -3   4    0.00    0.22
  -6  -3   4    0.14    0.33
  -6  -3   4    0.09    0.24
  -6  -3   4    0.97    0.35
   6   3  -4    0.61    0.48
   6   3  -4    0.34    0.27
   6   3  -4    0.31    0.38
   6   3  -4    0.19    0.28
  -3  -3   5    0.84    0.22
  -3  -3   5    1.49    0.35
  -3  -3   5    1.58    0.49
  -3  -3   5    2.32    0.86
  -3  -3   5    1.19    0.23
  -3  -3   5    1.74    0.28
  -3  -3   5    1.32    0.53
   3   3  -5    1.96    0.76
   3   3  -5    1.63    0.51
   3   3  -5    0.69    0.27
   3   3  -5    1.49    0.35
   3   3  -5    1.43    0.24
   3   3  -5    3.03    0.68
   0  -3   6   39.13    1.43
   0  -3   6   38.94    1.05
   0  -3   6   42.10    1.28
   0  -3   6   40.76    1.46
   0  -3   6   40.40    1.32
   0  -3   6   40.34    1.04
   0   3  -6   38.83    1.82
   0   3  -6   40.41    1.42
   0   3  -6   40.42    1.27
   0   3  -6   42.29    1.32
   3  -3   7    5.05    0.56
   3  -3   7    4.78    0.64
   3  -3   7    4.82    0.44
   3  -3   7    5.47    0.58
  -3   3  -7    5.99    0.78
  -3   3  -7    4.73    0.67
  -3   3  -7    4.12    0.57
  -3   3  -7    4.31    0.40
   6  -3   8    0.72    0.34
   6  -3   8    0.68    0.40
   6  -3   8   -0.05    0.26
   6  -3   8    0.27    0.42
   6  -3   8   -0.25    0.29
  -6   3  -8    0.46    0.29
  -6   3  -8   -0.32    0.39
  -5  -4   4    3.28    0.53
  -5  -4   4    3.20    0.51
  -5  -4   4    4.86    0.60
  -5  -4   4    4.72    0.72
  -5  -4   4    4.34    0.58
  -5  -4   4    4.14    0.38
   5   4  -4    4.43    0.59
   5   4  -4    5.79    1.41
   5   4  -4    5.32    0.90
   5   4  -4    6.65    1.43
   5   4  -4    4.32    0.68
  -2  -4   5    1.18    0.22
  -2  -4   5    1.17    0.30
  -2  -4   5    1.28    0.66
  -2  -4   5    1.64    0.51
  -2  -4   5    0.51    0.28
  -2  -4   5    0.68    0.25
   2   4  -5    0.75    0.28
   2   4  -5    1.10    0.28
   2   4  -5    0.93    0.56
   2   4  -5    1.28    0.50
   2   4  -5    1.48    0.49
   2   4  -5    0.81    0.24
   1  -4   6    0.47    0.32
   1  -4   6    0.90    0.47
   1  -4   6    0.25    0.22
   1  -4   6    0.57    0.29
   1  -4   6    0.16    0.23
  -1   4  -6    0.48    0.33
  -1   4  -6    0.80    0.28
  -1   4  -6    0.37    0.23
   4  -4   7    0.14    0.19
   4  -4   7    0.34    0.31
   4  -4   7    0.45    0.23
   4  -4   7    0.19    0.34
  -4   4  -7    0.46    0.21
  -4   4  -7    0.33    0.39
  -4   4  -7    1.29    0.55
  -4   4  -7    0.52    0.37
  -4  -5   4    5.29    0.94
  -4  -5   4    4.71    0.60
  -4  -5   4    3.65    0.46
  -4  -5   4    4.10    0.33
  -4  -5   4    4.74    0.43
  -4  -5   4    3.08    0.49
   4   5  -4    4.33    0.41
   4   5  -4    5.89    1.25
   4   5  -4    3.84    0.59
   4   5  -4    4.47    0.56
   4   5  -4    4.36    0.51
   4   5  -4    5.84    0.99
  -1  -5   5   13.81    0.91
  -1  -5   5   13.59    0.78
  -1  -5   5   14.40    0.85
  -1  -5   5   13.58    1.07
  -1  -5   5   13.27    0.82
   1   5  -5   15.89    1.30
   1   5  -5   14.42    0.85
   1   5  -5   14.22    0.73
   1   5  -5   14.14    0.78
   1   5  -5   14.36    0.65
   2  -5   6   13.82    0.78
   2  -5   6   12.90    0.84
   2  -5   6   13.98    0.96
   2  -5   6   13.96    0.83
   2  -5   6   12.66    0.88
  -2   5  -6   13.21    1.02
  -2   5  -6   13.81    0.81
  -2   5  -6   13.22    0.95
  -2   5  -6   12.25    0.85
   5  -5   7    1.97    0.28
   5  -5   7    0.79    0.37
   5  -5   7    2.96    0.64
  -5   5  -7    1.56    0.31
  -5   5  -7    1.02    0.39
  -6  -6   3   -0.01    0.19
  -6  -6   3    0.52    0.51
  -6  -6   3    0.69    0.36
  -6  -6   3    0.70    0.37
  -6  -6   3    0.33    0.27
   6   6  -3    0.24    0.47
   6   6  -3    0.13    0.31
   6   6  -3    0.89    0.70
   6   6  -3    0.69    0.58
  -3  -6   4    3.30    0.52
  -3  -6   4    5.94    0.93
  -3  -6   4    3.96    0.54
  -3  -6   4    3.06    0.41
  -3  -6   4    8.27    1.56
  -3  -6   4    3.44    0.36
  -3  -6   4    3.98    0.49
   3   6  -4    5.26    1.16
   3   6  -4    4.59    0.80
   3   6  -4    4.09    0.46
   3   6  -4    4.25    0.51
   3   6  -4    4.59    0.49
   0  -6   5   12.68    0.86
   0  -6   5   13.47    0.85
   0  -6   5   12.74    1.04
   0  -6   5   13.46    0.85
   0   6  -5   12.34    0.80
   0   6  -5   12.70    0.53
   0   6  -5   12.26    0.90
   0   6  -5   13.46    1.30
   0   6  -5   12.71    0.99
   3  -6   6   -0.52    0.20
   3  -6   6   -0.15    0.22
   3  -6   6   -0.12    0.20
   3  -6   6   -0.05    0.29
  -3   6  -6    0.30    0.36
  -3   6  -6    0.39    0.38
  -3   6  -6    0.47    0.30
  -5  -7   3   -0.09    0.31
  -5  -7   3   -0.12    0.27
  -5  -7   3    0.40    0.27
  -5  -7   3   -0.57    0.25
  -5  -7   3    0.08    0.25
   5   7  -3    1.09    0.65
   5   7  -3    1.53    0.54
   5   7  -3    0.17    0.39
   5   7  -3    0.54    0.29
  -2  -7   4    3.51    0.53
  -2  -7   4    2.61    0.46
  -2  -7   4    2.51    0.45
  -2  -7   4    5.93    1.01
  -2  -7   4    7.15    1.36
   2   7  -4    3.18    0.46
   2   7  -4    3.82    0.41
   2   7  -4    3.37    0.39
   2   7  -4    4.85    1.18
   2   7  -4    4.74    0.93
   1  -7   5   25.90    1.16
   1  -7   5   26.38    1.27
   1  -7   5   25.87    1.23
   1  -7   5   24.70    1.29
   1  -7   5   24.09    1.46
  -1   7  -5   25.64    1.36
  -1   7  -5   25.91    1.00
  -1   7  -5   24.43    1.18
  -1   7  -5   24.74    1.29
   4  -7   6    0.12    0.34
   4  -7   6    0.93    0.40
   4  -7   6    0.39    0.28
   4  -7   6    1.27    0.52
  -4   7  -6    0.90    0.53
  -4   7  -6    0.08    0.37
  -4   7  -6    0.87    0.42
  -4  -8   3    2.36    0.81
  -4  -8   3    0.68    0.36
  -4  -8   3    0.02    0.31
  -4  -8   3    0.75    0.31
  -4  -8   3    0.99    0.31
  -4  -8   3    0.03    0.24
   4   8  -3    1.19    0.65
   4   8  -3    0.14    0.25
   4   8  -3    0.37    0.44
   4   8  -3    0.09    0.22
   4   8  -3    0.96    0.45
  -1  -8   4    0.04    0.25
  -1  -8   4    0.27    0.69
  -1  -8   4    0.20    0.25
  -1  -8   4    0.10    0.28
   1   8  -4   -0.26    0.28
   1   8  -4   -0.12    0.21
   1   8  -4    0.27    0.20
   1   8  -4    0.04    0.46
   1   8  -4   -0.15    0.44
   2  -8   5    1.62    0.43
   2  -8   5    1.11    0.38
   2  -8   5    0.64    0.34
   2  -8   5    1.22    0.32
  -2   8  -5    2.20    0.65
  -2   8  -5    0.87    0.38
  -3  -9   3   -0.20    0.26
  -3  -9   3    0.10    0.30
  -3  -9   3   -0.62    0.23
  -3  -9   3   -0.58    0.31
  -3  -9   3   -0.20    0.30
   3   9  -3    0.40    0.62
   3   9  -3    0.05    0.20
   3   9  -3   -0.19    0.31
   0  -9   4    0.28    0.34
   0  -9   4    0.36    0.28
   0  -9   4   -0.87    0.73
   0  -9   4   -0.34    0.25
   0   9  -4    0.84    0.56
   0   9  -4    0.10    0.26
   0   9  -4   -0.16    0.78
   0   9  -4    0.85    0.47
   3  -9   5   -0.29    0.24
   3  -9   5    0.21    0.32
   3  -9   5   -0.67    0.35
   3  -9   5    0.26    0.34
  -3   9  -5    0.32    0.45
  -3   9  -5    0.27    0.38
  -2 -10   3   -0.21    0.25
  -2 -10   3    0.29    0.39
  -2 -10   3   -0.25    0.29
   2  10  -3    1.01    0.73
   2  10  -3    0.26    0.33
   2  10  -3    0.61    0.59
   2  10  -3    0.74    0.55
   2  10  -3    0.26    0.65
   1 -10   4    1.01    0.41
   1 -10   4    0.59    0.33
   1 -10   4    0.18    0.30
  -1  10  -4    0.76    0.33
  -1  10  -4    0.98    0.78
  -1  10  -4    1.11    0.44
  -1  10  -4   -0.32    0.99
  -1 -11   3   -0.39    0.27
  -1 -11   3   -0.64    0.32
  -1 -11   3   -0.39    0.26
   1  11  -3    0.12    0.54
   1  11  -3    0.93    0.66
   1  11  -3    0.96    0.80
  -1  12  11    6.74    1.45
  -1  12  11    3.65    0.51
  -1  12  11    5.11    0.50
  -1  12  11    5.30    0.66
   1 -12 -11    3.34    0.52
   1 -12 -11    6.23    0.78
  -3  11  10    0.86    0.29
  -3  11  10    0.22    0.31
   3 -11 -10    0.61    0.37
   3 -11 -10    0.79    0.60
   0  11  11    1.18    0.76
   0  11  11    0.97    0.41
   0  11  11    0.62    0.24
   0 -11 -11    0.15    0.22
   0 -11 -11   -0.16    0.40
   0 -11 -11    0.56    0.36
   3  11  12    1.67    0.71
   3  11  12    0.89    0.31
   3  11  12    1.36    0.54
   3  11  12    2.06    0.67
  -3 -11 -12    0.31    0.34
  -2  10  10    0.52    0.31
  -2  10  10    0.64    0.30
  -2  10  10    0.00    0.17
  -2  10  10   -0.05    0.25
   2 -10 -10   -0.12    0.24
   2 -10 -10    0.18    0.26
   2 -10 -10    0.86    0.36
   1  10  11    0.11    0.26
   1  10  11    1.24    0.79
   1  10  11    0.03    0.22
  -1 -10 -11    0.23    0.18
  -1 -10 -11    0.58    0.34
  -1 -10 -11    0.76    0.38
  -1 -10 -11   -0.12    0.40
  -1 -10 -11   -0.29    0.29
  -1 -10 -11   -0.29    0.17
   4  10  12    1.09    0.57
   4  10  12    0.32    0.42
   4  10  12   -0.05    0.33
   4  10  12    0.30    0.47
  -4 -10 -12   -0.49    0.50
  -4 -10 -12    0.18    0.33
  -4   9   9    1.04    0.33
   4  -9  -9    0.80    0.58
   4  -9  -9    0.19    0.30
   4  -9  -9   -0.13    0.32
  -1   9  10    1.19    0.38
  -1   9  10    1.29    0.32
  -1   9  10    0.71    0.26
  -1   9  10    1.42    0.29
   1  -9 -10    1.28    0.38
   1  -9 -10    1.25    0.29
   2   9  11    3.83    1.00
   2   9  11    1.32    0.29
   2   9  11    1.53    0.40
   2   9  11    1.11    0.61
   2   9  11    2.55    0.60
  -2  -9 -11    2.10    0.56
  -2  -9 -11    1.80    0.41
  -2  -9 -11    1.23    0.47
  -2  -9 -11    1.34    0.35
  -3   8   9    0.87    0.31
  -3   8   9    2.87    0.89
  -3   8   9    1.51    0.34
   3  -8  -9    0.81    0.28
   3  -8  -9    1.11    0.37
   3  -8  -9    1.38    0.36
   3  -8  -9    1.45    0.78
   0   8  10    3.18    0.41
   0   8  10    4.10    0.55
   0   8  10    3.42    0.45
   0   8  10    3.71    0.48
   0  -8 -10    4.39    0.54
   0  -8 -10    3.13    0.57
   0  -8 -10    2.39    0.32
   3   8  11    0.38    0.40
   3   8  11    0.74    0.35
   3   8  11    0.14    0.26
   3   8  11    0.15    0.27
   3   8  11    0.34    0.47
  -3  -8 -11    0.05    0.32
  -3  -8 -11    0.37    0.24
  -3  -8 -11    0.32    0.35
  -3  -8 -11    0.37    0.28
  -3  -8 -11    0.70    0.29
  -3  -8 -11   -0.14    0.19
  -5   7   8   -0.25    0.26
  -5   7   8   -0.20    0.29
   5  -7  -8    0.17    0.22
   5  -7  -8    0.44    0.57
   5  -7  -8   -0.49    0.26
  -2   7   9    0.33    0.24
  -2   7   9    0.26    0.20
  -2   7   9    0.43    0.40
   2  -7  -9   -0.10    0.16
   2  -7  -9   -0.12    0.20
   2  -7  -9   -0.17    0.20
   1   7  10    8.52    0.73
   1   7  10    8.47    0.65
   1   7  10    8.21    0.89
   1   7  10    8.61    0.48
   1   7  10    7.86    0.66
  -1  -7 -10    8.80    0.62
  -1  -7 -10    8.42    0.69
  -1  -7 -10    8.62    0.72
  -1  -7 -10    7.94    0.43
  -1  -7 -10    8.44    0.73
   4   7  11    1.68    0.55
   4   7  11    1.65    0.57
   4   7  11    0.17    0.31
   4   7  11    1.00    0.36
   4   7  11    0.69    0.39
  -4  -7 -11    0.40    0.32
  -4  -7 -11    0.62    0.26
  -4  -7 -11    0.69    0.36
  -4  -7 -11    1.36    0.42
  -4  -7 -11    1.85    0.52
  -4   6   8    1.94    0.39
  -4   6   8    4.95    0.91
  -4   6   8    3.61    0.35
  -4   6   8    3.21    0.37
   4  -6  -8    3.73    0.64
   4  -6  -8    2.74    0.48
   4  -6  -8    4.36    1.05
  -1   6   9    0.55    0.21
  -1   6   9    0.63    0.30
  -1   6   9    0.80    0.33
   1  -6  -9    0.76    0.27
   1  -6  -9    0.40    0.19
   1  -6  -9    0.23    0.23
   2   6  10    4.83    0.56
   2   6  10    4.73    0.61
   2   6  10    5.62    0.68
   2   6  10    4.71    0.58
   2   6  10    5.21    0.66
  -2  -6 -10    5.30    0.47
  -2  -6 -10    6.17    0.66
  -2  -6 -10    4.58    0.59
  -2  -6 -10    5.41    0.57
  -2  -6 -10    5.55    0.51
   5   6  11    0.96    0.43
   5   6  11    1.54    0.43
   5   6  11    1.45    0.54
   5   6  11    0.43    0.32
  -5  -6 -11    0.49    0.26
  -5  -6 -11    2.82    0.95
  -5  -6 -11    0.80    0.40
  -6   5   7   -0.10    0.41
   6  -5  -7    0.09    0.52
   6  -5  -7    0.35    0.34
  -3   5   8    1.71    0.76
  -3   5   8    0.57    0.25
   3  -5  -8    1.37    0.35
   3  -5  -8    1.22    0.63
   3  -5  -8    1.12    0.26
   3  -5  -8    0.75    0.25
   0   5   9    0.42    0.16
   0   5   9    0.30    0.26
   0   5   9    0.64    0.30
   0  -5  -9    0.21    0.14
   0  -5  -9    0.67    0.27
   0  -5  -9    0.49    0.16
   0  -5  -9    0.17    0.23
   3   5  10   12.17    0.85
   3   5  10   12.00    0.86
   3   5  10   11.81    0.85
   3   5  10   11.40    0.82
   3   5  10   11.43    0.74
  -3  -5 -10   11.50    0.74
  -3  -5 -10   12.39    0.85
  -3  -5 -10   11.70    0.89
  -3  -5 -10   12.01    0.80
  -3  -5 -10   12.13    0.74
  -5   4   7    4.71    0.80
  -5   4   7    6.20    0.45
  -5   4   7    6.31    0.62
   5  -4  -7    6.97    0.66
   5  -4  -7    6.64    1.91
   5  -4  -7    6.34    0.55
   5  -4  -7    6.52    0.59
  -2   4   8   26.51    1.11
  -2   4   8   28.07    1.29
  -2   4   8   27.89    1.12
  -2   4   8   26.57    1.01
   2  -4  -8   27.83    1.16
   2  -4  -8   26.94    1.10
   2  -4  -8   27.21    0.89
   1   4   9   16.24    0.89
   1   4   9   14.69    0.87
   1   4   9   15.34    0.52
  -1  -4  -9   16.48    0.88
  -1  -4  -9   14.79    0.76
  -1  -4  -9   15.57    0.62
  -1  -4  -9   14.58    0.79
   4   4  10    0.77    0.27
   4   4  10    2.64    0.58
   4   4  10    1.63    0.44
   4   4  10    1.58    0.38
   4   4  10    1.97    0.47
   4   4  10    2.12    0.53
  -4  -4 -10    1.38    0.42
  -4  -4 -10    1.63    0.31
  -4  -4 -10    3.08    0.56
  -7   3   6   -0.22    0.22
  -7   3   6   -0.34    0.31
  -7   3   6    0.04    0.34
   7  -3  -6   -0.42    0.33
   7  -3  -6   -0.60    0.50
   7  -3  -6   -0.04    0.24
   7  -3  -6   -0.14    0.26
   7  -3  -6   -0.26    0.23
  -4   3   7    0.06    0.21
  -4   3   7   -0.07    0.30
  -4   3   7    0.10    0.20
  -4   3   7    0.91    0.69
   4  -3  -7    0.24    0.16
   4  -3  -7    0.58    0.52
   4  -3  -7    0.37    0.26
   4  -3  -7    0.52    0.22
   4  -3  -7    0.37    0.16
  -1   3   8    1.33    0.35
  -1   3   8    1.42    0.24
  -1   3   8    0.72    0.27
   1  -3  -8    2.20    0.28
   1  -3  -8    2.55    0.55
   1  -3  -8    1.99    0.29
   1  -3  -8    1.49    0.27
   2   3   9    2.38    0.40
   2   3   9    3.72    0.57
   2   3   9    3.31    0.57
   2   3   9    1.78    0.39
  -2  -3  -9    2.93    0.50
  -2  -3  -9    1.81    0.34
  -2  -3  -9    2.65    0.47
   5   3  10    1.31    0.58
   5   3  10    1.75    0.49
   5   3  10    1.79    0.51
   5   3  10    0.27    0.27
   5   3  10    1.05    0.39
  -5  -3 -10    0.94    0.23
  -5  -3 -10    1.13    0.45
  -5  -3 -10    1.12    0.41
  -6   2   6    0.12    0.22
  -6   2   6    0.07    0.23
  -6   2   6   -0.18    0.40
   6  -2  -6    0.16    0.29
   6  -2  -6    0.18    0.23
  -3   2   7    7.09    1.31
  -3   2   7    4.44    0.55
  -3   2   7    4.79    0.56
   3  -2  -7    4.65    0.43
   3  -2  -7    5.10    0.55
   3  -2  -7    5.83    0.98
   3  -2  -7    4.72    0.56
   3  -2  -7    4.53    0.33
   3  -2  -7    4.28    0.72
   0   2   8    0.12    0.12
   0   2   8    0.27    0.19
   0   2   8    0.07    0.21
   0  -2  -8    0.25    0.17
   0  -2  -8    0.14    0.38
   0  -2  -8    0.16    0.19
   3   2   9   56.28    1.52
   3   2   9   55.08    1.43
   3   2   9   52.82    1.70
   3   2   9   56.34    1.79
   3   2   9   57.67    1.86
  -3  -2  -9   53.54    1.44
  -3  -2  -9   55.63    1.84
  -3  -2  -9   54.98    1.72
   6   2  10    0.11    0.27
   6   2  10   -0.09    0.31
   6   2  10    0.10    0.34
   6   2  10   -0.19    0.30
  -6  -2 -10   -0.30    0.31
  -5   1   6    2.97    1.08
  -5   1   6    0.90    0.32
  -5   1   6    0.70    0.26
  -5   1   6    0.99    0.43
  -5   1   6    0.65    0.26
   5  -1  -6    0.98    0.24
   5  -1  -6    0.22    0.24
   5  -1  -6    1.84    0.63
   5  -1  -6    0.27    0.18
   5  -1  -6    1.13    0.36
  -2   1   7    0.63    0.56
  -2   1   7    0.49    0.25
  -2   1   7    0.68    0.22
   2  -1  -7    0.88    0.31
   2  -1  -7    0.31    0.42
   2  -1  -7    0.33    0.20
   2  -1  -7    0.96    0.21
   1   1   8    0.46    0.13
   1   1   8    0.23    0.21
   1   1   8    0.60    0.23
   1   1   8    0.51    0.33
  -1  -1  -8    0.01    0.25
  -1  -1  -8    0.30    0.18
  -1  -1  -8    0.34    0.21
   4   1   9   12.22    0.94
   4   1   9    9.70    0.79
   4   1   9   10.96    0.70
   4   1   9   10.95    0.84
   4   1   9   10.99    0.48
  -4  -1  -9    9.50    0.75
  -4  -1  -9    9.87    0.53
  -4  -1  -9    9.86    0.92
  -4  -1  -9   11.01    0.85
  -7   0   5    1.77    0.48
  -7   0   5    2.59    0.46
  -7   0   5    3.16    0.51
   7   0  -5    2.99    0.56
   7   0  -5    2.49    0.54
   7   0  -5    4.22    0.53
   7   0  -5    6.49    1.34
   7   0  -5    2.00    0.43
  -4   0   6    1.87    0.37
  -4   0   6    3.26    1.09
   4   0  -6    2.01    0.75
   4   0  -6    2.45    0.53
   4   0  -6    1.48    0.33
   4   0  -6    2.23    0.65
  -1   0   7    0.27    0.16
  -1   0   7    0.23    0.20
  -1   0   7    0.10    0.40
   1   0  -7    0.62    0.46
   1   0  -7    0.19    0.18
   2   0   8   -0.02    0.14
   2   0   8    0.13    0.19
   2   0   8    0.04    0.13
   2   0   8    0.15    0.19
   2   0   8    0.18    0.23
  -2   0  -8   -0.08    0.27
  -2   0  -8    0.29    0.17
  -2   0  -8    0.49    0.27
  -2   0  -8    0.20    0.25
   5   0   9    1.85    0.51
   5   0   9    2.36    0.70
   5   0   9    2.88    0.57
   5   0   9    1.32    0.22
   5   0   9    1.53    0.38
  -5   0  -9    1.77    0.43
  -5   0  -9    1.33    0.46
  -5   0  -9    2.17    0.26
  -5   0  -9    1.52    0.36
  -6  -1   5    0.39    0.27
  -6  -1   5    4.14    1.23
  -6  -1   5    1.11    0.36
  -6  -1   5    0.94    0.34
  -6  -1   5    0.82    0.68
  -6  -1   5    0.70    0.29
   6   1  -5    0.47    0.22
   6   1  -5    1.33    0.68
   6   1  -5   -0.03    0.25
   6   1  -5    0.39    0.29
  -3  -1   6    7.28    0.99
  -3  -1   6    7.56    0.67
  -3  -1   6    8.26    0.65
   3   1  -6    6.90    0.61
   3   1  -6    7.73    0.63
   3   1  -6    6.87    0.84
   3   1  -6    7.67    0.77
   0  -1   7   24.09    0.71
   0  -1   7   24.84    1.07
   0  -1   7   24.86    0.97
   0  -1   7   23.14    1.11
   0   1  -7   23.50    0.94
   0   1  -7   22.91    0.88
   0   1  -7   24.64    1.34
   0   1  -7   25.51    1.14
   3  -1   8    0.19    0.28
   3  -1   8    0.47    0.20
   3  -1   8    0.34    0.24
   3  -1   8    0.40    0.20
   3  -1   8    0.44    0.20
  -3   1  -8    0.07    0.30
  -3   1  -8    0.55    0.21
  -3   1  -8    0.26    0.22
   6  -1   9    0.97    0.30
   6  -1   9    0.86    0.25
   6  -1   9    0.44    0.30
   6  -1   9    1.49    0.47
   6  -1   9    0.50    0.40
  -6   1  -9    1.22    0.50
  -6   1  -9    0.13    0.40
  -5  -2   5    0.94    0.31
  -5  -2   5    1.49    0.38
  -5  -2   5    1.35    0.55
  -5  -2   5    0.56    0.21
   5   2  -5    0.91    0.30
   5   2  -5    1.94    0.77
   5   2  -5    1.30    0.51
   5   2  -5    1.34    0.33
   5   2  -5    2.67    0.73
  -2  -2   6    6.05    0.77
  -2  -2   6    5.57    0.66
  -2  -2   6    6.28    0.59
  -2  -2   6    6.01    0.59
  -2  -2   6    5.98    1.01
  -2  -2   6    5.98    0.33
   2   2  -6    6.57    0.44
   2   2  -6    6.73    0.61
   2   2  -6    6.33    0.82
   2   2  -6    6.70    0.67
   2   2  -6    6.71    0.57
   1  -2   7    5.99    0.66
   1  -2   7    6.07    0.53
   1  -2   7    6.37    0.53
   1  -2   7    6.46    0.48
  -1   2  -7    6.26    0.72
  -1   2  -7    5.92    0.50
  -1   2  -7    6.18    0.55
   4  -2   8    0.54    0.30
   4  -2   8    0.26    0.22
   4  -2   8    0.41    0.19
   4  -2   8   -0.09    0.17
  -4   2  -8    0.00    0.28
  -4   2  -8    0.50    0.24
  -4   2  -8    0.39    0.18
  -4   2  -8    0.61    0.52
  -4   2  -8    0.35    0.26
  -4  -3   5    0.05    0.22
  -4  -3   5    0.12    0.17
  -4  -3   5    0.72    0.39
  -4  -3   5    0.01    0.16
   4   3  -5    0.67    0.49
   4   3  -5    0.56    0.46
   4   3  -5    0.08    0.21
   4   3  -5    0.31    0.33
   4   3  -5    0.33    0.23
  -1  -3   6    7.46    0.77
  -1  -3   6    7.92    0.56
  -1  -3   6    7.78    0.34
  -1  -3   6    8.97    0.67
  -1  -3   6    7.15    0.73
  -1  -3   6    7.85    0.57
   1   3  -6    7.26    0.92
   1   3  -6    7.75    0.61
   1   3  -6    7.96    0.54
   2  -3   7    1.50    0.29
   2  -3   7    2.21    0.33
   2  -3   7    2.20    0.41
   2  -3   7    1.32    0.32
  -2   3  -7    1.62    0.39
  -2   3  -7    3.47    0.57
  -2   3  -7    2.17    0.32
   5  -3   8    0.86    0.37
   5  -3   8    1.15    0.48
   5  -3   8    1.30    0.21
   5  -3   8    1.31    0.42
   5  -3   8    0.55    0.25
  -5   3  -8    0.69    0.37
  -5   3  -8    1.00    0.50
  -5   3  -8    3.30    0.96
  -5   3  -8    1.82    0.36
  -6  -4   4    0.05    0.24
  -6  -4   4   -0.13    0.29
   6   4  -4    0.16    0.27
   6   4  -4    0.16    0.39
   6   4  -4    1.02    0.74
   6   4  -4    0.33    0.38
  -3  -4   5    0.65    0.31
  -3  -4   5    0.89    0.42
  -3  -4   5    1.15    0.22
  -3  -4   5    1.31    0.47
  -3  -4   5    1.36    1.19
  -3  -4   5    1.64    0.73
  -3  -4   5    0.75    0.30
   3   4  -5    2.02    0.56
   3   4  -5    1.00    0.30
   3   4  -5    1.55    0.48
   3   4  -5    0.51    0.54
   3   4  -5    0.88    0.30
   3   4  -5    1.31    0.27
   0  -4   6   12.65    0.86
   0  -4   6   13.98    0.95
   0  -4   6   12.13    0.76
   0  -4   6   14.83    0.80
   0  -4   6   13.83    0.63
   0   4  -6   14.65    0.78
   0   4  -6   13.30    0.91
   0   4  -6   13.22    1.21
   0   4  -6   13.14    0.78
   3  -4   7    2.56    0.37
   3  -4   7    2.89    0.52
   3  -4   7    2.04    0.46
   3  -4   7    2.19    0.40
  -3   4  -7    1.78    0.46
  -3   4  -7    2.15    0.35
  -3   4  -7    3.36    0.34
  -3   4  -7    3.92    0.78
   6  -4   8    0.51    0.33
   6  -4   8    0.46    0.38
   6  -4   8    0.63    0.45
   6  -4   8    1.55    0.48
  -6   4  -8    1.31    0.41
  -6   4  -8    0.22    0.47
  -5  -5   4    1.14    0.33
  -5  -5   4    1.47    0.47
  -5  -5   4    0.60    0.37
  -5  -5   4    2.63    0.55
  -5  -5   4    0.94    0.32
  -5  -5   4    1.67    0.27
  -5  -5   4    2.85    0.75
  -5  -5   4    3.68    2.42
  -5  -5   4    1.39    0.28
   5   5  -4    2.71    0.79
   5   5  -4    0.50    0.45
   5   5  -4    0.94    0.33
   5   5  -4    2.56    0.69
  -2  -5   5    2.29    0.38
  -2  -5   5    1.50    0.40
  -2  -5   5    4.09    0.92
  -2  -5   5    1.83    0.35
  -2  -5   5    1.77    0.26
  -2  -5   5    3.70    0.74
   2   5  -5    1.95    0.34
   2   5  -5    1.23    0.32
   2   5  -5    2.33    0.70
   2   5  -5    2.69    0.92
   2   5  -5    1.67    0.52
   2   5  -5    2.56    0.68
   1  -5   6    1.77    0.35
   1  -5   6    2.53    0.41
   1  -5   6    2.53    0.45
   1  -5   6    1.55    0.36
  -1   5  -6    1.92    0.31
  -1   5  -6    1.57    0.34
  -1   5  -6    1.74    0.45
   4  -5   7    0.28    0.26
   4  -5   7   -0.02    0.22
   4  -5   7   -0.27    0.18
  -4   5  -7    0.70    0.43
  -4   5  -7    0.29    0.18
  -4   5  -7    1.41    0.53
  -4   5  -7    0.01    0.32
  -4  -6   4    2.76    0.52
  -4  -6   4    2.11    0.45
  -4  -6   4    3.40    0.36
  -4  -6   4    0.86    2.08
  -4  -6   4    3.56    0.45
  -4  -6   4    3.70    0.85
  -4  -6   4    3.10    0.45
  -4  -6   4    1.87    0.44
   4   6  -4    3.99    0.92
   4   6  -4    3.95    0.73
   4   6  -4    3.01    0.47
   4   6  -4    4.26    0.84
   4   6  -4    3.78    0.56
  -1  -6   5   16.92    1.04
  -1  -6   5   17.21    1.24
  -1  -6   5   16.46    0.97
  -1  -6   5   17.26    0.90
   1   6  -5   16.68    0.95
   1   6  -5   17.00    0.76
   1   6  -5   16.42    1.40
   1   6  -5   16.62    0.70
   1   6  -5   15.88    0.87
   2  -6   6    1.85    0.40
   2  -6   6    2.16    0.42
   2  -6   6    3.26    0.53
   2  -6   6    1.69    0.40
   2  -6   6    3.11    0.46
  -2   6  -6    2.79    0.50
   5  -6   7    0.55    0.45
   5  -6   7    0.17    0.21
   5  -6   7    0.25    0.32
  -5   6  -7    2.09    0.62
  -5   6  -7    0.33    0.45
  -3  -7   4   10.98    0.89
  -3  -7   4   11.32    1.01
  -3  -7   4    9.13    0.56
  -3  -7   4    9.06    0.88
  -3  -7   4   10.30    0.73
  -3  -7   4    9.11    0.72
   3   7  -4    9.62    1.36
   3   7  -4   10.38    0.94
   3   7  -4    9.21    0.67
   3   7  -4    9.24    0.67
   3   7  -4    9.47    0.68
   0  -7   5   29.58    1.64
   0  -7   5   31.66    1.32
   0  -7   5   28.39    1.32
   0  -7   5   28.32    1.26
   0   7  -5   27.11    1.82
   0   7  -5   30.68    1.60
   0   7  -5   30.44    1.20
   0   7  -5   29.04    1.23
   0   7  -5   29.20    1.32
   3  -7   6    0.52    0.24
   3  -7   6    0.44    0.38
   3  -7   6    0.52    0.40
   3  -7   6    0.38    0.30
  -3   7  -6    1.47    0.53
  -3   7  -6    1.58    0.45
  -5  -8   3    0.13    0.37
  -5  -8   3   -0.16    0.23
  -5  -8   3    0.50    0.29
  -5  -8   3    0.68    0.27
  -5  -8   3   -0.24    0.25
  -5  -8   3   -0.07    0.30
   5   8  -3    0.65    0.56
   5   8  -3   -0.20    0.28
   5   8  -3    0.86    0.43
   5   8  -3    0.72    0.70
  -2  -8   4    0.48    0.35
  -2  -8   4    0.48    0.30
  -2  -8   4    1.54    0.43
   2   8  -4    1.72    0.72
   2   8  -4    1.43    0.32
   2   8  -4    0.82    0.29
   2   8  -4    1.47    0.55
   1  -8   5    0.45    0.38
   1  -8   5    0.76    0.31
   1  -8   5   -1.05    0.69
   1  -8   5   -0.03    0.27
  -1   8  -5    0.52    0.32
  -1   8  -5    0.80    0.50
  -1   8  -5    1.15    0.42
   4  -8   6   -0.50    0.35
  -4   8  -6   -0.29    0.39
  -4   8  -6    0.53    0.43
  -4   8  -6    0.77    0.49
  -4  -9   3    0.35    0.27
  -4  -9   3    0.62    0.37
  -4  -9   3    0.04    0.25
  -4  -9   3   -0.02    0.34
  -4  -9   3   -0.26    0.37
   4   9  -3   -0.41    0.22
   4   9  -3    1.36    0.65
   4   9  -3    0.52    0.51
   4   9  -3    0.42    0.51
  -1  -9   4    0.12    0.34
  -1  -9   4   -0.63    0.24
  -1  -9   4    0.23    0.28
   1   9  -4    0.61    0.42
   1   9  -4    0.36    0.56
   1   9  -4    0.17    0.64
   2  -9   5    0.39    0.36
   2  -9   5   -0.15    0.25
   2  -9   5    0.09    0.35
  -2   9  -5    0.73    0.37
  -2   9  -5    0.91    0.55
  -2   9  -5   -0.11    0.36
  -3 -10   3   -0.13    0.26
  -3 -10   3   -0.54    0.28
  -3 -10   3   -0.47    0.27
  -3 -10   3   -0.31    0.30
  -3 -10   3   -0.59    0.33
   3  10  -3   -0.24    0.22
   3  10  -3   -0.35    0.42
   3  10  -3    0.48    0.52
   0 -10   4   -0.06    0.33
   0 -10   4    1.10    0.40
   0 -10   4   -0.29    0.27
   0  10  -4    0.49    0.56
   0  10  -4    0.43    0.78
   0  10  -4    0.51    0.44
  -2  12  11    1.16    0.37
  -2  12  11    0.84    0.37
  -2  12  11    0.30    0.92
  -2  12  11    1.80    0.51
  -2  12  11    1.23    0.31
   2 -12 -11    2.17    0.47
   2 -12 -11    1.47    0.81
   2 -12 -11    2.50    0.57
   1  12  12   -0.33    0.34
   1  12  12    0.45    0.59
   1  12  12    0.82    0.32
  -1 -12 -12   -0.21    0.20
  -1 -12 -12   -0.34    0.41
  -1  11  11    0.11    0.26
  -1  11  11   -0.37    0.25
  -1  11  11    0.47    0.73
  -1  11  11    0.50    0.26
  -1  11  11    0.68    0.36
   1 -11 -11    0.51    0.27
   1 -11 -11    0.31    0.29
   2  11  12    4.68    1.09
   2  11  12    3.92    0.93
   2  11  12    2.68    0.55
   2  11  12    3.72    0.72
  -2 -11 -12    3.39    0.67
  -2 -11 -12    2.25    0.48
  -3  10  10    1.39    0.35
  -3  10  10    0.23    0.30
   3 -10 -10   -0.07    0.29
   3 -10 -10    0.71    0.39
   3 -10 -10    1.40    0.78
   0  10  11   -0.73    0.65
   0  10  11    0.22    0.22
   0  10  11   -0.24    0.26
   0  10  11   -0.03    0.29
   0  10  11    0.15    0.22
   0 -10 -11    0.13    0.20
   0 -10 -11    0.02    0.29
   3  10  12    0.22    0.48
   3  10  12   -0.17    0.28
   3  10  12    0.51    0.53
   3  10  12    0.03    0.30
  -3 -10 -12   -0.17    0.24
  -3 -10 -12    0.34    0.28
  -2   9  10    1.61    0.36
  -2   9  10    0.55    0.27
  -2   9  10    1.47    0.38
  -2   9  10    1.15    0.34
   2  -9 -10    1.72    0.40
   2  -9 -10    0.56    0.29
   1   9  11    0.10    0.23
   1   9  11   -0.14    0.51
   1   9  11   -0.31    0.21
   1   9  11    0.03    0.29
  -1  -9 -11   -0.26    0.19
  -1  -9 -11    0.09    0.23
  -1  -9 -11   -0.05    0.43
  -1  -9 -11    0.15    0.14
   4   9  12    1.34    0.53
   4   9  12   -0.05    0.33
   4   9  12    0.49    0.33
   4   9  12    0.14    0.38
   4   9  12    1.02    0.52
  -4  -9 -12    0.34    0.25
  -4  -9 -12   -0.34    0.27
  -4  -9 -12   -0.04    0.33
  -4  -9 -12    1.15    0.42
  -4   8   9   -0.03    0.25
  -4   8   9    2.74    1.04
  -4   8   9    0.20    0.23
   4  -8  -9    0.46    0.28
   4  -8  -9    0.21    0.53
   4  -8  -9   -0.06    0.26
  -1   8  10    0.62    0.25
  -1   8  10    2.30    0.50
  -1   8  10    1.51    0.31
   1  -8 -10    0.51    0.23
   1  -8 -10    1.21    0.33
   2   8  11    5.27    0.63
   2   8  11    4.66    0.73
   2   8  11    4.89    0.74
   2   8  11    4.52    0.61
   2   8  11    5.21    0.89
  -2  -8 -11    5.00    0.72
  -2  -8 -11    3.94    0.57
  -2  -8 -11    4.38    0.90
  -2  -8 -11    5.27    0.48
  -2  -8 -11    4.95    0.57
   5   8  12    0.66    0.41
   5   8  12    0.06    0.42
   5   8  12    0.85    0.47
   5   8  12    0.39    0.43
   5   8  12    0.55    0.49
  -5  -8 -12    0.57    0.36
  -5  -8 -12    2.34    0.53
   6  -7  -8    1.35    0.48
  -3   7   9    1.42    0.73
  -3   7   9    0.20    0.24
  -3   7   9   -0.05    0.20
   3  -7  -9    0.46    0.53
   3  -7  -9    0.36    0.22
   3  -7  -9   -0.21    0.24
   3  -7  -9    0.10    0.21
   0   7  10    0.61    0.25
   0   7  10    1.00    0.30
   0   7  10    0.93    0.32
   0   7  10    1.30    0.37
   0  -7 -10    0.55    0.18
   0  -7 -10    0.61    0.30
   0  -7 -10    1.12    0.32
   3   7  11    0.69    0.31
   3   7  11   -0.04    0.36
   3   7  11    0.27    0.32
   3   7  11    0.13    0.41
   3   7  11   -0.14    0.23
  -3  -7 -11    0.39    0.36
  -3  -7 -11    0.04    0.20
  -3  -7 -11    0.44    0.29
  -3  -7 -11    0.13    0.23
  -5   6   8    0.56    0.38
  -5   6   8    0.03    0.24
   5  -6  -8    0.39    0.32
   5  -6  -8    0.79    0.58
  -2   6   9    1.34    0.60
  -2   6   9    0.61    0.27
  -2   6   9    0.54    0.22
   2  -6  -9    0.56    0.24
   2  -6  -9    0.76    0.27
   2  -6  -9    0.87    0.30
   1   6  10    1.62    0.34
   1   6  10    1.42    0.19
   1   6  10    2.23    0.49
  -1  -6 -10    1.30    0.37
  -1  -6 -10    1.83    0.42
  -1  -6 -10    1.15    0.27
   4   6  11    1.32    0.45
   4   6  11    1.56    0.51
   4   6  11    1.55    0.54
   4   6  11    1.44    0.44
   4   6  11    0.99    0.37
  -4  -6 -11    1.44    0.44
  -4  -6 -11    0.88    0.29
  -4  -6 -11    1.01    0.42
  -4  -6 -11    0.88    0.30
  -4  -6 -11    0.58    0.37
  -4   5   8    0.62    0.28
  -4   5   8    0.64    0.25
   4  -5  -8    0.60    0.21
   4  -5  -8    0.69    0.27
   4  -5  -8    0.57    0.58
   4  -5  -8    0.51    0.26
  -1   5   9   10.46    0.66
  -1   5   9    9.93    0.69
  -1   5   9    8.76    0.84
   1  -5  -9   10.24    0.62
   1  -5  -9    9.73    0.71
   1  -5  -9   10.23    0.64
   2   5  10   32.67    1.38
   2   5  10   32.08    1.35
   2   5  10   30.68    1.33
   2   5  10   33.49    1.29
  -2  -5 -10   32.21    1.10
  -2  -5 -10   33.18    1.10
  -2  -5 -10   34.30    1.34
  -2  -5 -10   31.94    1.22
  -2  -5 -10   33.60    1.32
   5   5  11   -0.59    0.24
   5   5  11   -0.11    0.36
   5   5  11    0.17    0.37
   5   5  11   -0.13    0.27
  -5  -5 -11    0.62    0.51
  -5  -5 -11   -0.24    0.33
  -5  -5 -11   -0.14    0.20
  -6   4   7    0.28    0.45
   6  -4  -7   -0.19    0.50
  -3   4   8    5.98    0.62
  -3   4   8    6.04    0.65
  -3   4   8    6.84    0.93
  -3   4   8    5.60    0.49
   3  -4  -8    5.49    0.80
   3  -4  -8    6.95    0.65
   3  -4  -8    6.64    0.43
   3  -4  -8    6.50    0.64
   0   4   9    0.75    0.31
   0   4   9    0.65    0.18
   0   4   9    1.23    0.37
   0  -4  -9    0.89    0.29
   0  -4  -9    1.02    0.17
   0  -4  -9    1.01    0.29
   3   4  10   10.55    0.74
   3   4  10   10.05    0.83
   3   4  10   11.13    0.84
   3   4  10   11.21    0.62
  -3  -4 -10   10.77    0.78
  -3  -4 -10    9.72    0.67
  -3  -4 -10   11.80    0.94
  -3  -4 -10   10.80    0.68
   6   4  11    0.75    0.38
   6   4  11    0.15    0.25
   6   4  11    0.27    0.40
   6   4  11   -0.38    0.32
  -6  -4 -11    0.27    0.21
  -6  -4 -11    0.37    0.39
  -5   3   7    0.81    0.25
  -5   3   7    0.23    0.25
  -5   3   7    2.80    0.98
   5  -3  -7    0.54    0.26
   5  -3  -7    0.07    0.23
   5  -3  -7    0.12    0.17
  -2   3   8   17.51    0.93
  -2   3   8   15.88    1.06
  -2   3   8   17.30    0.88
   2  -3  -8   16.56    0.86
   2  -3  -8   17.08    1.05
   2  -3  -8   16.82    0.89
   2  -3  -8   16.89    0.61
   1   3   9   34.39    1.24
   1   3   9   38.45    1.59
   1   3   9   36.46    0.91
   1   3   9   37.74    1.37
  -1  -3  -9   38.11    1.36
  -1  -3  -9   36.88    1.19
  -1  -3  -9   36.49    1.22
  -1  -3  -9   37.43    1.35
  -1  -3  -9   36.48    0.94
   4   3  10    0.01    0.16
   4   3  10    0.40    0.30
   4   3  10    0.27    0.31
   4   3  10    0.05    0.27
   4   3  10    0.24    0.29
   4   3  10    0.17    0.32
  -4  -3 -10    0.42    0.19
  -4  -3 -10   -0.15    0.29
  -4  -3 -10    0.16    0.29
  -7   2   6   -0.03    0.23
  -7   2   6   -0.67    0.24
  -7   2   6   -1.15    0.54
  -7   2   6   -0.27    0.30
   7  -2  -6    1.13    0.70
   7  -2  -6    0.57    0.35
   7  -2  -6    0.61    0.31
   7  -2  -6   -0.04    0.22
   7  -2  -6    0.04    0.31
  -4   2   7    0.92    0.30
  -4   2   7    3.06    1.01
  -4   2   7    0.60    0.26
   4  -2  -7    0.74    0.25
   4  -2  -7    1.44    0.32
   4  -2  -7    1.90    0.28
   4  -2  -7    1.77    0.69
   4  -2  -7    1.35    0.27
  -1   2   8    3.41    0.45
  -1   2   8    3.86    0.44
  -1   2   8    3.28    0.48
   1  -2  -8    3.54    0.54
   1  -2  -8    3.39    0.28
   1  -2  -8    3.46    0.43
   2   2   9    0.04    0.09
   2   2   9    0.09    0.18
   2   2   9   -0.01    0.29
   2   2   9   -0.01    0.23
   2   2   9    0.01    0.10
   2   2   9    0.37    0.25
   2   2   9    0.12    0.13
   2   2   9   -0.01    0.21
  -2  -2  -9    0.19    0.25
  -2  -2  -9    0.17    0.29
  -2  -2  -9    0.11    0.17
   5   2  10    3.63    0.65
   5   2  10    2.87    0.59
   5   2  10    3.24    0.57
   5   2  10    2.00    0.35
  -5  -2 -10    2.02    0.57
  -5  -2 -10    2.72    0.34
  -5  -2 -10    3.60    0.64
  -5  -2 -10    6.14    1.32
  -6   1   6    0.61    0.30
  -6   1   6    1.00    0.28
  -6   1   6    0.63    0.51
  -6   1   6    0.51    0.28
  -6   1   6    0.93    0.31
   6  -1  -6    1.12    0.32
   6  -1  -6    0.60    0.32
   6  -1  -6    1.51    0.70
   6  -1  -6    1.53    0.30
   6  -1  -6    1.06    0.29
  -3   1   7    0.59    0.21
  -3   1   7    0.99    0.30
  -3   1   7    1.41    0.73
   3  -1  -7    0.85    0.26
   3  -1  -7    1.90    0.45
   3  -1  -7    0.81    0.15
   3  -1  -7    1.11    0.58
   3  -1  -7    2.65    0.75
   0   1   8   65.34    1.87
   0   1   8   62.82    1.67
   0   1   8   63.38    1.54
   0  -1  -8   60.31    1.36
   3   1   9   18.42    0.97
   3   1   9   17.11    0.99
   3   1   9   20.14    0.83
   3   1   9   19.65    1.12
   3   1   9   18.13    0.81
   3   1   9   19.52    0.65
  -3  -1  -9   17.14    0.76
  -3  -1  -9   19.54    1.18
  -3  -1  -9   17.55    0.95
   6   1  10   -0.09    0.24
   6   1  10   -0.31    0.32
   6   1  10   -0.01    0.12
   6   1  10   -0.41    0.28
   6   1  10    0.14    0.24
  -6  -1 -10    0.58    0.35
  -6  -1 -10   -0.06    0.32
  -5   0   6    1.58    0.37
  -5   0   6    1.24    0.34
  -5   0   6    1.31    0.29
   5   0  -6    1.42    0.41
   5   0  -6    2.19    0.69
   5   0  -6    2.14    0.43
   5   0  -6    1.54    0.30
   5   0  -6    1.81    0.25
  -2   0   7    9.50    0.68
  -2   0   7    9.26    0.66
  -2   0   7    8.81    0.74
   2   0  -7    8.66    0.61
   2   0  -7    8.46    0.45
   2   0  -7    8.80    0.63
   2   0  -7    7.70    0.83
   1   0   8    1.60    0.19
   1   0   8    1.69    0.30
   1   0   8    1.23    0.31
   1   0   8    1.82    0.31
  -1   0  -8    1.60    0.29
  -1   0  -8    2.41    0.37
  -1   0  -8    1.45    0.35
  -1   0  -8    1.39    0.29
   4   0   9    0.07    0.13
   4   0   9    0.14    0.27
   4   0   9    0.27    0.30
   4   0   9    0.14    0.24
   4   0   9    0.18    0.17
  -4   0  -9   -0.17    0.25
  -4   0  -9   -0.10    0.13
  -4   0  -9    0.55    0.28
  -4   0  -9   -0.22    0.29
  -7  -1   5    0.44    0.31
  -7  -1   5    0.47    0.30
  -7  -1   5    0.13    0.30
  -7  -1   5    1.49    0.36
   7   1  -5    0.01    0.31
   7   1  -5    0.64    0.55
   7   1  -5   -0.04    0.33
   7   1  -5    0.06    0.24
  -4  -1   6    4.87    0.61
  -4  -1   6    7.03    1.15
  -4  -1   6    6.46    0.64
   4   1  -6    4.80    0.83
   4   1  -6    5.11    0.56
   4   1  -6    5.83    0.60
   4   1  -6    5.89    0.76
   4   1  -6    5.89    0.59
  -1  -1   7   15.41    0.93
  -1  -1   7   16.10    0.82
   1   1  -7   16.13    1.12
   1   1  -7   16.26    0.82
   1   1  -7   16.77    0.71
   2  -1   8    0.14    0.19
   2  -1   8    0.04    0.23
   2  -1   8    0.16    0.13
   2  -1   8    0.22    0.20
   2  -1   8   -0.07    0.15
  -2   1  -8   -0.19    0.17
  -2   1  -8   -0.03    0.15
  -2   1  -8    0.21    0.34
   5  -1   9    1.76    0.30
   5  -1   9    2.89    0.59
   5  -1   9    1.36    0.31
   5  -1   9    2.39    0.50
   5  -1   9    2.13    0.53
  -5   1  -9    1.83    0.42
  -5   1  -9    1.95    0.37
  -5   1  -9    2.30    0.26
  -5   1  -9    0.53    0.38
  -6  -2   5   -0.16    0.22
  -6  -2   5   -0.27    0.28
  -6  -2   5   -0.24    0.28
  -6  -2   5    0.09    0.19
   6   2  -5    0.09    0.26
   6   2  -5   -0.14    0.25
   6   2  -5   -0.20    0.21
   6   2  -5   -0.14    0.41
  -3  -2   6    0.06    0.15
  -3  -2   6    0.33    0.73
  -3  -2   6    0.37    0.37
  -3  -2   6    0.10    0.23
  -3  -2   6    0.48    0.50
   3   2  -6    0.36    0.44
   3   2  -6    0.35    0.44
   3   2  -6    0.38    0.34
   3   2  -6   -0.03    0.17
   3   2  -6    0.01    0.13
   0  -2   7    0.36    0.24
   0  -2   7    0.52    0.32
   0  -2   7    0.84    0.25
   0  -2   7    0.86    0.44
   0  -2   7    0.70    0.19
   0   2  -7    0.20    0.16
   0   2  -7    0.32    0.22
   0   2  -7    0.49    0.56
   0   2  -7    0.57    0.28
   3  -2   8    0.41    0.24
   3  -2   8    0.76    0.31
   3  -2   8    0.52    0.21
   3  -2   8    0.70    0.24
  -3   2  -8    0.91    0.36
  -3   2  -8    0.66    0.20
  -3   2  -8    0.70    0.33
   6  -2   9    0.54    0.42
   6  -2   9    0.19    0.23
   6  -2   9    1.12    0.53
   6  -2   9    0.28    0.29
   6  -2   9    0.02    0.34
  -6   2  -9   -0.12    0.40
  -6   2  -9    0.04    0.31
  -5  -3   5    3.16    0.52
  -5  -3   5    2.47    0.42
  -5  -3   5    3.53    0.54
   5   3  -5    6.22    1.20
   5   3  -5    4.92    1.26
   5   3  -5    3.85    0.52
   5   3  -5    5.61    1.00
   5   3  -5    3.97    0.72
  -2  -3   6    3.46    0.64
  -2  -3   6    1.72    0.37
  -2  -3   6    2.56    0.42
  -2  -3   6    2.01    0.26
  -2  -3   6    3.72    0.80
   2   3  -6    4.21    0.71
   2   3  -6    2.61    0.37
   2   3  -6    2.87    0.78
   2   3  -6    3.20    0.49
   2   3  -6    4.79    0.82
   1  -3   7    1.91    0.37
   1  -3   7    2.91    0.38
   1  -3   7    3.22    0.48
   1  -3   7    2.70    0.37
  -1   3  -7    2.62    0.42
  -1   3  -7    2.38    0.34
  -1   3  -7    2.08    0.41
   4  -3   8    0.39    0.33
   4  -3   8   -0.05    0.20
   4  -3   8    0.01    0.19
  -4   3  -8   -0.15    0.49
  -4   3  -8   -0.02    0.27
  -4   3  -8    0.37    0.36
  -4  -4   5    0.14    0.18
  -4  -4   5    0.23    0.40
  -4  -4   5   -0.13    0.15
  -4  -4   5   -0.29    0.23
  -4  -4   5   -0.08    0.17
   4   4  -5    0.08    0.15
   4   4  -5    0.05    0.21
   4   4  -5    0.22    0.24
   4   4  -5    0.45    0.44
   4   4  -5    0.69    0.42
   4   4  -5   -0.42    0.26
  -1  -4   6   54.04    1.20
  -1  -4   6   56.43    1.56
  -1  -4   6   53.91    1.99
  -1  -4   6   54.19    1.80
  -1  -4   6   54.24    1.68
  -1  -4   6   51.25    1.55
   1   4  -6   55.58    1.58
   1   4  -6   53.94    2.32
   1   4  -6   54.66    1.67
   2  -4   7    0.99    0.33
   2  -4   7    0.46    0.22
   2  -4   7    0.48    0.31
   2  -4   7    1.12    0.29
  -2   4  -7    0.74    0.33
  -2   4  -7    0.91    0.27
  -2   4  -7    0.99    0.41
   5  -4   8    2.51    0.52
   5  -4   8    1.70    0.38
   5  -4   8    1.94    0.28
  -5   4  -8    2.56    0.40
  -5   4  -8    0.77    0.44
  -6  -5   4    0.56    0.35
  -6  -5   4    0.79    0.39
  -6  -5   4    0.82    0.36
   6   5  -4    0.40    0.31
   6   5  -4    1.62    0.78
   6   5  -4    0.67    0.47
   6   5  -4    0.66    0.55
  -3  -5   5    2.66    0.24
  -3  -5   5    2.37    0.38
  -3  -5   5    2.08    0.40
  -3  -5   5    3.80    1.04
  -3  -5   5    2.14    0.34
  -3  -5   5    3.62    0.80
  -3  -5   5    2.71    0.48
   3   5  -5    4.33    0.73
   3   5  -5    2.10    0.35
   3   5  -5    2.80    0.44
   3   5  -5    4.26    0.82
   3   5  -5    3.42    1.02
   3   5  -5    2.38    0.44
   0  -5   6   38.87    1.48
   0  -5   6   37.36    1.35
   0  -5   6   38.15    1.39
   0  -5   6   38.21    1.64
   0   5  -6   34.43    1.94
   0   5  -6   35.24    1.30
   0   5  -6   39.67    1.38
   0   5  -6   38.50    1.49
   3  -5   7    2.78    0.48
   3  -5   7    4.76    0.68
   3  -5   7    4.41    0.52
   3  -5   7    2.48    0.41
  -3   5  -7    3.43    0.30
  -3   5  -7    4.22    0.61
  -3   5  -7    3.28    0.55
  -5  -6   4    0.59    0.23
  -5  -6   4    0.26    0.28
  -5  -6   4    0.23    0.22
  -5  -6   4    1.05    0.41
  -5  -6   4   -0.24    0.27
  -5  -6   4    0.28    0.22
   5   6  -4    0.63    0.41
   5   6  -4    0.55    0.47
   5   6  -4    0.34    0.48
   5   6  -4    0.01    0.22
  -2  -6   5    6.38    1.18
  -2  -6   5    2.02    0.44
  -2  -6   5    2.92    0.49
  -2  -6   5    3.78    0.52
  -2  -6   5    4.88    0.82
  -2  -6   5    3.15    0.48
   2   6  -5    3.10    0.86
   2   6  -5    3.42    0.45
   2   6  -5    4.72    0.87
   2   6  -5    2.88    0.43
   2   6  -5    3.97    0.44
   1  -6   6    2.93    0.44
   1  -6   6    4.01    0.57
   1  -6   6    3.64    0.50
   1  -6   6    2.05    0.40
   1  -6   6    2.96    0.50
   1  -6   6    6.02    1.01
  -1   6  -6    2.54    0.47
  -1   6  -6    3.63    0.60
  -1   6  -6    4.29    0.65
   4  -6   7    1.18    0.31
   4  -6   7    1.51    0.48
  -4   6  -7    1.69    0.65
  -4   6  -7    0.77    0.45
  -4  -7   4    4.04    0.58
  -4  -7   4    4.11    0.52
  -4  -7   4    3.54    0.40
  -4  -7   4    5.07    1.11
  -4  -7   4    2.60    0.52
  -4  -7   4    4.41    0.56
   4   7  -4    4.07    0.58
   4   7  -4    4.52    0.52
   4   7  -4    5.45    1.03
   4   7  -4    4.18    0.98
   4   7  -4    4.75    0.55
  -1  -7   5    1.85    0.40
  -1  -7   5    1.83    0.39
  -1  -7   5    5.07    1.24
  -1  -7   5    2.63    0.49
   1   7  -5    2.34    0.34
   1   7  -5    3.40    1.07
   1   7  -5    2.62    0.50
   2  -7   6    0.07    0.31
   2  -7   6    0.01    0.22
   2  -7   6   -0.09    0.27
   2  -7   6    0.09    0.28
  -2   7  -6    0.39    0.29
  -2   7  -6    0.14    0.34
  -2   7  -6    0.33    0.42
  -3  -8   4    3.74    1.05
  -3  -8   4    1.99    0.46
  -3  -8   4    3.76    0.48
  -3  -8   4    2.24    0.48
  -3  -8   4    4.02    0.58
  -3  -8   4    2.98    0.44
   3   8  -4    3.71    0.78
   3   8  -4    6.94    1.50
   3   8  -4    3.14    0.46
   3   8  -4    2.54    0.44
   0  -8   5    3.37    0.79
   0  -8   5    3.30    0.51
   0  -8   5    4.29    0.63
   0   8  -5    5.69    1.10
   0   8  -5    3.32    0.52
   0   8  -5    5.48    1.38
   3  -8   6    0.28    0.28
   3  -8   6   -0.11    0.31
   3  -8   6    0.63    0.41
   3  -8   6    0.17    0.36
  -3   8  -6   -0.15    0.37
  -3   8  -6    1.59    0.48
  -3   8  -6    1.15    0.48
  -2  -9   4    0.14    0.33
  -2  -9   4    0.26    0.28
   2   9  -4    1.68    0.76
   2   9  -4    0.87    0.29
   2   9  -4    0.77    0.55
   1  -9   5    0.72    0.40
   1  -9   5    0.37    0.29
  -1   9  -5    0.00    0.31
  -1   9  -5    0.69    0.35
  -1   9  -5    0.39    0.81
  -1   9  -5    1.50    0.62
  -1 -10   4   -0.40    0.26
  -1 -10   4   -0.54    0.28
  -1 -10   4   -0.48    0.24
   1  10  -4    0.62    0.67
   1  10  -4    0.32    0.42
   1  10  -4    0.15    0.46
   2 -10   5   -0.03    0.27
   2 -10   5   -0.30    0.39
   2 -10   5   -0.52    0.28
  -2  10  -5    0.29    0.46
  -2  10  -5    0.02    0.34
  -2  10  -5    0.32    0.34
   0  12  12    2.43    0.60
   0  12  12    3.11    1.13
   0  12  12    2.15    0.38
   0 -12 -12    1.33    0.54
   0 -12 -12    1.07    0.32
  -2  11  11   -0.40    0.29
  -2  11  11    0.07    0.28
  -2  11  11    0.10    0.16
  -2  11  11   -0.32    0.30
   2 -11 -11   -0.26    0.29
   1  11  12    0.14    0.34
   1  11  12    0.89    0.30
   1  11  12    0.58    0.67
  -1 -11 -12    0.34    0.36
  -1 -11 -12    0.00    0.19
  -1 -11 -12   -0.14    0.34
  -1  10  11   -0.24    0.22
  -1  10  11    0.04    0.19
  -1  10  11   -0.13    0.26
   1 -10 -11    0.24    0.23
   1 -10 -11    0.14    0.53
   2  10  12    2.10    0.58
   2  10  12    3.12    0.86
   2  10  12    2.57    0.76
   2  10  12    1.45    0.39
  -2 -10 -12    0.70    0.36
  -3   9  10   -0.25    0.38
  -3   9  10    0.50    0.30
   3  -9 -10   -0.15    0.68
   3  -9 -10   -0.34    0.29
   3  -9 -10   -0.12    0.24
   0   9  11   -0.24    0.26
   0   9  11    0.11    0.19
   0   9  11   -0.02    0.19
   0   9  11   -0.13    0.28
   0  -9 -11   -0.18    0.20
   0  -9 -11   -0.25    0.16
   3   9  12    0.16    0.33
   3   9  12    1.19    0.58
   3   9  12    1.22    0.53
   3   9  12    0.35    0.35
  -3  -9 -12   -0.12    0.26
  -3  -9 -12    0.83    0.42
  -3  -9 -12    0.23    0.31
   5  -8  -9    0.92    0.60
  -2   8  10    0.39    0.24
  -2   8  10    0.65    0.28
  -2   8  10    1.09    0.36
  -2   8  10    0.61    0.22
   2  -8 -10    0.18    0.22
   2  -8 -10    0.85    0.30
   1   8  11   -0.05    0.26
   1   8  11    0.28    0.22
   1   8  11    0.10    0.31
   1   8  11   -0.02    0.51
  -1  -8 -11   -0.05    0.18
  -1  -8 -11    0.23    0.25
  -1  -8 -11    0.35    0.33
  -1  -8 -11    0.18    0.13
  -1  -8 -11   -0.06    0.31
   4   8  12   -0.31    0.28
   4   8  12   -0.51    0.31
   4   8  12    0.29    0.72
   4   8  12   -0.31    0.28
   4   8  12    1.24    0.53
  -4  -8 -12   -0.11    0.28
  -4  -8 -12    0.51    0.36
  -4  -8 -12   -0.12    0.27
  -4  -8 -12   -0.17    0.27
  -4   7   9    0.36    0.24
  -4   7   9    0.14    0.25
   4  -7  -9    0.30    0.23
   4  -7  -9    0.23    0.49
   4  -7  -9    0.40    0.27
   4  -7  -9    0.16    0.28
  -1   7  10    0.27    0.29
  -1   7  10    0.13    0.17
  -1   7  10    0.10    0.28
   1  -7 -10    0.16    0.17
   1  -7 -10   -0.05    0.24
   1  -7 -10   -0.13    0.19
   2   7  11    5.65    0.73
   2   7  11    6.32    0.67
   2   7  11    4.98    0.64
   2   7  11    5.40    0.73
   2   7  11    6.87    0.73
  -2  -7 -11    5.00    0.53
  -2  -7 -11    5.65    0.64
  -2  -7 -11    6.06    0.65
  -2  -7 -11    5.60    0.48
  -5  -7 -12    1.04    0.40
   6  -6  -8    0.89    0.67
  -3   6   9    1.50    0.34
  -3   6   9    0.49    0.24
  -3   6   9    2.68    0.83
   3  -6  -9    0.94    0.35
   3  -6  -9    1.19    0.30
   3  -6  -9    0.94    0.65
   3  -6  -9    0.55    0.23
   0   6  10    9.16    0.57
   0   6  10    8.30    0.70
   0  -6 -10    8.64    0.72
   0  -6 -10    8.17    0.52
   0  -6 -10    8.79    0.65
   0  -6 -10    8.61    0.53
   3   6  11    5.42    0.67
   3   6  11    6.16    0.72
   3   6  11    4.69    0.57
   3   6  11    5.94    0.62
   3   6  11    5.00    0.63
  -3  -6 -11    5.44    0.59
  -3  -6 -11    4.70    0.59
  -3  -6 -11    5.81    0.67
  -3  -6 -11    4.70    0.59
  -3  -6 -11    5.64    0.57
  -5   5   8    2.52    0.48
  -5   5   8    2.79    0.35
  -5   5   8    3.91    0.63
   5  -5  -8    4.46    1.08
   5  -5  -8    3.72    0.55
   5  -5  -8    1.81    0.41
   5  -5  -8    2.78    0.49
  -2   5   9    1.22    0.57
  -2   5   9    1.11    0.35
  -2   5   9    0.79    0.26
   2  -5  -9    0.84    0.29
   2  -5  -9    0.73    0.23
   2  -5  -9    1.05    0.27
   1   5  10    2.75    0.29
   1   5  10    3.17    0.53
   1   5  10    2.06    0.43
  -1  -5 -10    2.28    0.31
  -1  -5 -10    1.95    0.35
  -1  -5 -10    3.28    0.47
  -1  -5 -10    2.95    0.31
   4   5  11    8.06    0.74
   4   5  11    9.04    0.89
   4   5  11    8.15    0.79
   4   5  11    8.33    0.81
  -4  -5 -11    8.77    0.93
  -4  -5 -11    8.66    0.74
  -4  -5 -11    8.02    0.65
  -4   4   8    3.98    0.55
  -4   4   8    4.36    0.43
  -4   4   8    7.55    1.07
  -4   4   8    5.45    0.68
   4  -4  -8    6.17    1.16
   4  -4  -8    5.54    0.65
   4  -4  -8    5.21    0.60
  -1   4   9    1.50    0.34
  -1   4   9    1.39    0.33
  -1   4   9    2.04    0.29
  -1   4   9    2.92    0.50
   1  -4  -9    2.64    0.42
   1  -4  -9    2.38    0.30
   1  -4  -9    2.68    0.46
   1  -4  -9    2.67    0.35
   2   4  10   68.16    1.83
   2   4  10   66.91    2.05
   2   4  10   70.08    2.01
   2   4  10   66.43    1.89
  -2  -4 -10   66.53    1.90
  -2  -4 -10   65.06    1.61
  -2  -4 -10   70.47    2.01
  -2  -4 -10   66.75    1.82
   5   4  11    0.07    0.22
   5   4  11    0.47    0.40
   5   4  11    0.00    0.30
   5   4  11    0.24    0.36
  -5  -4 -11    0.35    0.46
  -5  -4 -11    0.27    0.47
  -5  -4 -11    0.09    0.18
   6  -3  -7    0.56    0.29
   6  -3  -7    0.20    0.54
  -3   3   8    1.98    0.37
  -3   3   8    1.48    0.31
  -3   3   8    3.10    0.82
   3  -3  -8    1.48    0.28
   3  -3  -8    1.86    0.37
   3  -3  -8    2.79    0.74
   3  -3  -8    1.77    0.24
   0   3   9    1.29    0.31
   0   3   9    1.12    0.21
   0   3   9    2.22    0.47
   0   3   9    1.73    0.41
   0  -3  -9    2.55    0.57
   0  -3  -9    2.03    0.34
   0  -3  -9    1.51    0.30
   3   3  10    1.97    0.45
   3   3  10    1.69    0.28
   3   3  10    1.48    0.37
   3   3  10    3.38    0.53
   3   3  10    2.83    0.59
  -3  -3 -10    2.28    0.46
  -3  -3 -10    2.01    0.43
  -3  -3 -10    1.48    0.30
   6   3  11    0.87    0.34
   6   3  11    0.51    0.39
   6   3  11    2.45    0.59
   6   3  11    2.12    0.57
  -6  -3 -11    0.48    0.48
  -6  -3 -11    0.74    0.22
  -5   2   7    0.08    0.19
  -5   2   7    0.20    0.46
   5  -2  -7    0.18    0.20
   5  -2  -7   -0.52    0.56
   5  -2  -7    0.24    0.24
  -2   2   8    0.48    0.21
  -2   2   8    0.28    0.23
  -2   2   8    0.18    0.54
  -2   2   8    0.14    0.25
   2  -2  -8    0.07    0.18
   2  -2  -8    0.67    0.28
   2  -2  -8    0.70    0.16
   2  -2  -8    0.20    0.37
   1   2   9    1.23    0.31
   1   2   9    1.64    0.37
   1   2   9    1.13    0.18
  -1  -2  -9    1.09    0.34
  -1  -2  -9    1.64    0.33
  -1  -2  -9    1.35    0.29
   4   2  10    0.14    0.30
   4   2  10    0.50    0.23
   4   2  10    0.42    0.34
   4   2  10    0.36    0.33
  -4  -2 -10    0.25    0.37
  -4  -2 -10    0.03    0.18
  -4  -2 -10    1.05    0.39
  -7   1   6    0.26    0.72
  -7   1   6    0.91    0.32
  -7   1   6    1.05    0.37
  -7   1   6    1.07    0.42
   7  -1  -6    1.30    0.43
   7  -1  -6    1.63    0.38
   7  -1  -6    1.00    0.37
   7  -1  -6    1.84    0.76
  -4   1   7    1.12    0.79
  -4   1   7    0.12    0.22
  -4   1   7    0.21    0.23
   4  -1  -7    0.50    0.34
   4  -1  -7    0.28    0.16
   4  -1  -7    0.43    0.47
   4  -1  -7    0.38    0.50
   4  -1  -7   -0.02    0.22
  -1   1   8    2.40    0.41
  -1   1   8    3.63    0.45
  -1   1   8    2.35    0.39
   1  -1  -8    4.41    0.83
   1  -1  -8    3.19    0.23
   1  -1  -8    2.37    0.36
   2   1   9    8.61    0.63
   2   1   9    8.69    0.61
   2   1   9    8.87    0.80
   2   1   9    8.26    0.48
   2   1   9    7.49    0.46
  -2  -1  -9    7.28    0.83
  -2  -1  -9    7.37    0.56
  -2  -1  -9    7.29    1.04
   5   1  10    1.39    0.18
   5   1  10    1.06    0.30
   5   1  10    1.64    0.44
   5   1  10    2.24    0.51
   5   1  10    2.58    0.57
   5   1  10    1.90    0.51
  -5  -1 -10    1.02    0.22
  -5  -1 -10    4.40    1.06
  -5  -1 -10    1.74    0.44
  -5  -1 -10    2.32    0.43
  -5  -1 -10    2.42    0.65
  -5  -1 -10    1.31    0.42
  -6   0   6    1.50    0.38
  -6   0   6    2.00    0.40
  -6   0   6    1.86    0.44
   6   0  -6    2.80    0.80
   6   0  -6    1.47    0.31
   6   0  -6    1.46    0.35
   6   0  -6    2.06    0.33
   6   0  -6    1.97    0.50
  -3   0   7    1.72    0.37
  -3   0   7    2.27    0.73
   3   0  -7    1.89    0.68
   3   0  -7    2.19    0.48
   3   0  -7    2.14    0.69
   0   0   8    0.25    0.16
   0   0   8    0.14    0.29
   0   0   8    0.23    0.22
   0   0  -8    0.08    0.47
   0   0  -8    0.06    0.18
   0   0  -8    0.01    0.15
   0   0  -8    0.09    0.14
   0   0  -8   -0.05    0.22
   3   0   9    7.83    0.57
   3   0   9    7.24    0.50
   3   0   9    7.83    0.57
   3   0   9    8.74    0.78
   3   0   9    7.25    0.65
  -3   0  -9    8.46    0.71
  -3   0  -9    7.70    0.85
  -3   0  -9    8.01    0.53
  -3   0  -9    7.43    0.66
   6   0  10   -0.19    0.30
   6   0  10    0.15    0.22
   6   0  10    0.26    0.38
   6   0  10    0.22    0.34
   6   0  10    0.00    0.15
  -6   0 -10    0.13    0.42
  -6   0 -10   -0.05    0.33
  -5  -1   6    0.36    0.27
  -5  -1   6    0.10    0.31
   5   1  -6    0.42    0.46
   5   1  -6    0.25    0.18
   5   1  -6    0.54    0.44
   5   1  -6    0.33    0.54
   5   1  -6   -0.17    0.21
  -2  -1   7    4.21    1.08
  -2  -1   7    2.46    0.45
  -2  -1   7    1.70    0.35
  -2  -1   7    1.83    0.31
   2   1  -7    3.97    0.62
   2   1  -7    3.06    0.35
   2   1  -7    3.89    0.85
   2   1  -7    3.36    0.48
   1  -1   8   13.38    0.68
   1  -1   8   12.67    0.50
   1  -1   8   13.30    0.71
   1  -1   8   13.15    0.76
   1  -1   8   14.74    0.93
  -1   1  -8   11.96    0.92
  -1   1  -8   12.83    0.73
  -1   1  -8   14.53    0.78
   4  -1   9    3.56    0.61
   4  -1   9    1.41    0.26
   4  -1   9    3.14    0.59
   4  -1   9    2.55    0.40
   4  -1   9    2.50    0.33
  -4   1  -9    3.73    0.98
  -4   1  -9    2.89    0.71
  -4   1  -9    2.30    0.32
  -4   1  -9    1.55    0.46
  -4   1  -9    2.02    0.38
  -4  -2   6    0.43    0.81
  -4  -2   6    0.66    0.82
  -4  -2   6    0.75    0.26
  -4  -2   6    0.29    0.24
  -4  -2   6    0.46    0.43
   4   2  -6    0.42    0.33
   4   2  -6    0.47    0.45
   4   2  -6    0.60    0.23
   4   2  -6    0.94    0.50
   4   2  -6    0.87    0.31
  -1  -2   7    9.55    0.70
  -1  -2   7    9.01    0.87
  -1  -2   7    9.50    0.81
  -1  -2   7    8.48    0.60
   1   2  -7    9.11    0.66
   1   2  -7    9.13    0.57
   1   2  -7    9.54    0.99
   2  -2   8    0.89    0.34
   2  -2   8    0.55    0.25
   2  -2   8    0.66    0.31
   2  -2   8    0.93    0.27
  -2   2  -8    0.62    0.41
  -2   2  -8    1.32    0.40
   5  -2   9    0.05    0.20
   5  -2   9    0.13    0.34
   5  -2   9    0.11    0.19
   5  -2   9   -0.13    0.31
  -5   2  -9    0.06    0.22
  -5   2  -9   -0.29    0.28
  -6  -3   5    1.05    0.33
  -6  -3   5    1.73    0.49
  -6  -3   5    1.00    0.34
   6   3  -5    2.34    0.85
   6   3  -5    1.64    0.42
   6   3  -5    2.94    0.85
   6   3  -5    2.10    0.71
  -3  -3   6    5.59    0.94
  -3  -3   6    3.68    0.37
  -3  -3   6    5.67    1.22
  -3  -3   6    3.20    0.48
  -3  -3   6    3.73    0.51
  -3  -3   6    2.68    0.44
  -3  -3   6    6.91    1.47
   3   3  -6    3.72    0.57
   3   3  -6    4.61    0.38
   3   3  -6    5.90    1.23
   3   3  -6    4.75    0.51
   3   3  -6    3.93    0.56
   3   3  -6    4.40    0.52
   0  -3   7    9.86    0.71
   0  -3   7   10.93    0.81
   0  -3   7   10.60    0.88
   0  -3   7   10.35    0.52
   0  -3   7    9.83    0.51
   0   3  -7    8.86    0.82
   0   3  -7   10.78    0.70
   0   3  -7   10.25    0.70
   0   3  -7   10.07    1.09
   3  -3   8    2.43    0.49
   3  -3   8    1.40    0.33
   3  -3   8    2.18    0.34
   3  -3   8    2.60    0.48
  -3   3  -8    1.96    0.42
  -3   3  -8    1.72    0.45
  -5  -4   5   -0.02    0.21
  -5  -4   5   -0.25    0.23
  -5  -4   5    1.53    0.61
  -5  -4   5    0.24    0.25
   5   4  -5    0.05    0.54
   5   4  -5    0.11    0.30
   5   4  -5   -0.07    0.20
   5   4  -5   -0.04    0.38
  -2  -4   6    8.36    0.72
  -2  -4   6    7.72    0.47
  -2  -4   6    8.90    0.84
  -2  -4   6    8.90    0.99
  -2  -4   6    8.02    1.05
  -2  -4   6    8.32    0.58
   2   4  -6    7.82    0.59
   2   4  -6    8.49    0.70
   2   4  -6    7.46    0.73
   2   4  -6    8.31    1.01
   2   4  -6    8.02    0.66
   2   4  -6    8.82    0.58
   1  -4   7    1.91    0.38
   1  -4   7    1.21    0.31
   1  -4   7    2.02    0.58
   1  -4   7    0.68    0.29
  -1   4  -7    1.30    0.28
  -1   4  -7    1.96    0.46
  -1   4  -7    1.37    0.44
   4  -4   8    0.70    0.26
   4  -4   8    0.91    0.31
   4  -4   8    1.45    0.46
   4  -4   8    0.94    0.42
  -4   4  -8    0.42    0.37
  -4   4  -8    1.41    0.28
  -4   4  -8    2.17    0.66
  -4   4  -8    0.65    0.45
  -4  -5   5    0.10    0.23
  -4  -5   5    0.83    0.45
  -4  -5   5   -0.02    0.17
  -4  -5   5    0.64    0.25
  -4  -5   5   -0.19    0.18
  -4  -5   5    0.61    0.35
   4   5  -5   -0.15    0.20
   4   5  -5   -0.03    0.43
   4   5  -5   -0.18    0.34
   4   5  -5    0.10    0.18
  -1  -5   6   29.15    1.24
  -1  -5   6   29.17    1.19
  -1  -5   6   32.51    1.59
  -1  -5   6   29.76    1.15
  -1  -5   6   30.58    1.37
   1   5  -6   30.12    1.15
   1   5  -6   28.52    1.21
   1   5  -6   30.56    1.00
   1   5  -6   28.93    1.12
   1   5  -6   28.00    1.77
   2  -5   7    6.53    0.63
   2  -5   7    8.24    0.66
   2  -5   7    6.42    0.78
   2  -5   7    7.89    0.78
  -2   5  -7    7.13    0.85
  -2   5  -7    6.89    0.61
  -2   5  -7    7.09    0.74
   5  -5   8    1.46    0.49
   5  -5   8    1.43    0.28
  -5   5  -8    0.67    0.52
  -5   5  -8    1.09    0.30
  -3  -6   5   -0.11    0.23
  -3  -6   5    0.10    0.15
  -3  -6   5   -0.35    0.15
  -3  -6   5   -0.19    0.27
  -3  -6   5    0.34    0.47
  -3  -6   5    0.08    0.36
   3   6  -5    0.31    0.37
   3   6  -5    0.29    0.44
   3   6  -5   -0.36    0.17
   3   6  -5    0.09    0.20
   0  -6   6    1.06    0.35
   0  -6   6    0.65    0.32
   0  -6   6    3.21    0.79
   0  -6   6    1.00    0.35
   0   6  -6    1.09    0.30
   0   6  -6    1.87    0.43
   0   6  -6    1.40    0.25
   0   6  -6    1.41    0.33
   0   6  -6    1.54    0.73
   3  -6   7    1.29    0.42
   3  -6   7    0.88    0.38
   3  -6   7    0.90    0.31
  -3   6  -7    0.86    0.49
  -3   6  -7    1.44    0.53
  -5  -7   4    0.10    0.28
  -5  -7   4   -0.02    0.36
  -5  -7   4    0.40    0.21
  -5  -7   4   -0.16    0.30
  -5  -7   4    0.00    0.25
  -5  -7   4   -0.21    0.26
   5   7  -4    0.45    0.55
   5   7  -4   -0.24    0.23
   5   7  -4    0.63    0.39
   5   7  -4   -0.04    0.36
  -2  -7   5    1.28    0.63
  -2  -7   5    1.20    0.35
  -2  -7   5    0.97    0.37
  -2  -7   5    1.26    0.31
  -2  -7   5    0.88    0.34
   2   7  -5    1.22    0.30
   2   7  -5    1.74    0.68
   2   7  -5    0.74    0.30
   2   7  -5    1.26    0.71
   2   7  -5    1.21    0.35
   1  -7   6    0.70    0.33
   1  -7   6    1.12    0.78
   1  -7   6    0.58    0.28
   1  -7   6    0.30    0.30
  -1   7  -6    1.25    0.57
  -1   7  -6    1.69    0.36
  -1   7  -6    0.78    0.34
   4  -7   7    0.47    0.28
   4  -7   7    0.50    0.38
  -4   7  -7   -0.41    0.32
  -4   7  -7    0.90    0.39
  -4   7  -7    1.08    0.55
  -4  -8   4   -0.45    0.19
  -4  -8   4   -0.03    0.26
  -4  -8   4   -0.13    0.30
  -4  -8   4   -0.22    0.26
   4   8  -4    0.72    0.54
   4   8  -4   -0.16    0.22
   4   8  -4    0.60    0.41
   4   8  -4   -0.13    0.41
  -1  -8   5    2.11    0.56
  -1  -8   5    0.67    0.32
  -1  -8   5    0.01    0.29
   1   8  -5    0.62    0.76
   1   8  -5    0.15    0.17
   2  -8   6   -0.18    0.34
   2  -8   6    0.35    0.24
   2  -8   6    0.02    0.27
   2  -8   6   -0.28    0.30
  -2   8  -6    0.06    0.32
  -2   8  -6    0.30    0.24
  -2   8  -6    0.12    0.45
  -3  -9   4    0.22    0.35
  -3  -9   4   -0.34    0.22
  -3  -9   4   -0.35    0.26
   3   9  -4    0.73    0.60
   3   9  -4   -0.34    0.41
   3   9  -4    0.02    0.25
   0  -9   5    1.56    0.45
   0  -9   5    1.16    0.39
   0  -9   5    0.43    0.35
   0   9  -5    1.14    0.49
   0   9  -5    1.60    0.90
   0   9  -5    1.22    0.76
   0   9  -5    0.93    0.49
   3  -9   6    1.89    0.60
   3  -9   6    1.15    0.38
   3  -9   6    1.65    0.55
  -3   9  -6    2.92    0.65
  -3   9  -6    1.37    0.53
  -2 -10   4   -0.33    0.31
  -2 -10   4    0.03    0.32
  -2 -10   4   -0.14    0.32
   2  10  -4    0.25    0.53
   2  10  -4   -0.40    0.52
   1 -10   5   -0.06    0.28
   1 -10   5   -0.15    0.38
  -1  10  -5   -0.51    0.52
  -1  10  -5   -1.06    0.74
  -1  10  -5    0.67    0.35
  -1  10  -5    0.75    0.38
  -1  12  12    2.03    0.36
  -1  12  12    2.53    1.15
  -1  12  12    2.79    0.58
   1 -12 -12    1.84    0.58
  -3  11  11   -0.63    0.27
  -3  11  11    0.32    0.29
   3 -11 -11   -0.51    0.27
   3 -11 -11   -0.02    0.63
   0  11  12    0.42    0.36
   0  11  12    0.11    0.23
   0  11  12    0.42    0.69
   0 -11 -12   -0.13    0.30
   0 -11 -12   -0.11    0.22
  -2  10  11    0.28    0.19
  -2  10  11   -0.05    0.28
  -2  10  11    0.15    0.27
  -2  10  11    0.09    0.25
   2 -10 -11   -0.05    0.23
   2 -10 -11    0.21    0.30
   1  10  12   -0.38    0.67
   1  10  12   -0.19    0.22
   1  10  12   -0.05    0.31
  -1 -10 -12    0.54    0.38
  -1 -10 -12   -0.59    0.21
  -1 -10 -12    0.00    0.35
  -4   9  10    2.01    0.36
   4  -9 -10    3.15    1.01
   4  -9 -10    2.37    0.46
  -1   9  11   -0.14    0.30
  -1   9  11   -0.26    0.26
  -1   9  11   -0.07    0.20
  -1   9  11    0.26    0.22
   1  -9 -11   -0.27    0.19
   1  -9 -11   -0.07    0.24
   2   9  12    0.23    0.26
   2   9  12    1.18    0.65
   2   9  12    1.23    0.41
   2   9  12    1.60    0.49
  -2  -9 -12    1.30    0.47
  -2  -9 -12    1.15    0.45
  -2  -9 -12    0.94    0.31
  -2  -9 -12    0.68    0.32
  -3   8  10    0.84    0.32
  -3   8  10    0.68    0.31
  -3   8  10    0.97    0.23
   3  -8 -10    0.33    0.25
   3  -8 -10    1.29    0.38
   3  -8 -10    1.47    1.17
   0   8  11    0.19    0.23
   0   8  11   -0.03    0.18
   0   8  11    0.35    0.31
   0  -8 -11   -0.36    0.22
   0  -8 -11    0.32    0.28
   0  -8 -11    0.19    0.16
   3   8  12    2.33    0.65
   3   8  12    0.94    0.44
   3   8  12    1.33    0.36
   3   8  12    1.53    0.45
   3   8  12    2.77    0.74
  -3  -8 -12    1.59    0.37
  -3  -8 -12    1.53    0.43
  -3  -8 -12    0.92    0.29
  -3  -8 -12    2.40    0.52
  -3  -8 -12    1.58    0.44
  -3  -8 -12    1.18    0.53
  -2   7  10    0.45    0.22
  -2   7  10    0.77    0.31
  -2   7  10    0.84    0.31
   2  -7 -10    0.04    0.24
   2  -7 -10    0.14    0.19
   2  -7 -10    0.26    0.29
   1   7  11    0.48    0.16
   1   7  11    0.70    0.62
   1   7  11    0.42    0.33
   1   7  11    0.56    0.32
   1   7  11    0.58    0.31
  -1  -7 -11    1.03    0.34
  -1  -7 -11    0.40    0.34
  -1  -7 -11    1.09    0.34
  -1  -7 -11    0.70    0.22
   4   7  12    1.06    0.41
   4   7  12    0.34    0.34
   4   7  12    0.32    0.43
   4   7  12    0.54    0.34
   4   7  12    0.30    0.33
  -4  -7 -12   -0.06    0.26
  -4  -7 -12    0.39    0.35
  -4  -7 -12    0.66    0.34
  -4   6   9    1.93    0.96
  -4   6   9    0.46    0.28
   4  -6  -9    0.20    0.29
   4  -6  -9    0.89    0.78
   4  -6  -9   -0.08    0.27
  -1   6  10    1.02    0.37
  -1   6  10    0.86    0.24
  -1   6  10    1.25    0.35
   1  -6 -10    0.89    0.24
   1  -6 -10    0.88    0.30
   1  -6 -10    0.64    0.28
   2   6  11    9.12    0.79
   2   6  11   10.27    0.79
   2   6  11    9.84    0.84
   2   6  11   10.79    0.86
   2   6  11   10.18    0.88
  -2  -6 -11   10.52    0.63
  -2  -6 -11   10.67    0.82
  -2  -6 -11   10.88    0.67
  -2  -6 -11   10.76    0.80
  -2  -6 -11   10.62    0.79
   5   6  12    0.74    0.41
  -5  -6 -12    1.67    0.45
  -6   5   8    0.57    0.53
  -6   5   8    0.59    0.21
  -6   5   8    0.32    0.35
   6  -5  -8    0.22    0.31
   6  -5  -8   -0.01    0.26
   6  -5  -8    0.32    0.25
   6  -5  -8    0.43    0.34
   6  -5  -8    1.08    0.68
  -3   5   9    0.43    0.21
  -3   5   9    0.26    0.26
  -3   5   9    1.60    0.73
   3  -5  -9    0.03    0.18
   3  -5  -9    0.39    0.24
   3  -5  -9    0.08    0.25
   3  -5  -9    1.08    0.71
   0   5  10    1.24    0.37
   0   5  10    2.23    0.48
   0   5  10    1.45    0.23
   0  -5 -10    2.24    0.50
   0  -5 -10    1.38    0.34
   0  -5 -10    1.57    0.23
   3   5  11    6.33    0.56
   3   5  11    6.37    0.70
   3   5  11    4.00    0.58
   3   5  11    5.76    0.63
   3   5  11    6.42    0.78
  -3  -5 -11    5.33    0.65
  -3  -5 -11    5.14    0.57
  -3  -5 -11    5.43    0.55
  -3  -5 -11    6.23    0.79
  -3  -5 -11    4.85    0.56
  -5   4   8    0.31    0.25
  -5   4   8    0.17    0.18
  -5   4   8   -0.15    0.38
  -5   4   8   -0.07    0.22
   5  -4  -8    0.06    0.17
   5  -4  -8    0.05    0.19
   5  -4  -8    0.15    0.23
   5  -4  -8   -0.07    0.40
   5  -4  -8    0.10    0.25
  -2   4   9    5.34    0.79
  -2   4   9    5.85    0.55
  -2   4   9    5.72    0.61
  -2   4   9    4.65    0.57
  -2   4   9    5.86    0.69
   2  -4  -9    5.77    0.57
   2  -4  -9    5.19    0.59
   2  -4  -9    5.68    0.68
   2  -4  -9    5.52    0.45
   1   4  10    4.23    0.33
   1   4  10    3.47    0.52
   1   4  10    3.22    0.52
  -1  -4 -10    3.21    0.34
  -1  -4 -10    3.43    0.44
  -1  -4 -10    4.62    0.70
  -1  -4 -10    3.54    0.62
   4   4  11    3.31    0.58
   4   4  11    4.08    0.84
   4   4  11    2.25    0.35
   4   4  11    3.50    0.51
   4   4  11    3.92    1.06
   4   4  11    2.83    0.53
  -4  -4 -11    2.55    0.36
  -4  -4 -11    2.46    0.51
  -4   3   8    1.96    0.39
  -4   3   8    2.14    0.43
   4  -3  -8    2.94    0.34
   4  -3  -8    4.63    1.02
   4  -3  -8    1.97    0.28
   4  -3  -8    2.81    0.47
   4  -3  -8    2.50    0.42
  -1   3   9   40.23    1.39
  -1   3   9   37.29    1.44
  -1   3   9   39.09    1.25
   1  -3  -9   38.41    1.32
   1  -3  -9   38.98    1.46
   1  -3  -9   37.66    1.02
   1  -3  -9   39.12    0.98
   2   3  10   17.30    1.02
   2   3  10   18.36    1.06
   2   3  10   18.78    0.86
  -2  -3 -10   16.68    0.86
  -2  -3 -10   16.79    1.03
  -2  -3 -10   17.11    0.88
   5   3  11   -0.02    0.29
   5   3  11   -0.12    0.17
   5   3  11    0.55    0.39
   5   3  11    0.32    0.32
   5   3  11   -0.40    0.25
  -5  -3 -11   -0.39    0.30
  -5  -3 -11    0.05    0.19
  -5  -3 -11   -0.22    0.35
  -6   2   7   -0.41    0.46
  -6   2   7    0.86    0.27
  -6   2   7    1.03    0.33
  -6   2   7    0.82    0.30
  -6   2   7    0.58    0.29
   6  -2  -7    0.54    0.33
   6  -2  -7    0.56    0.34
   6  -2  -7    0.69    0.25
   6  -2  -7    0.95    0.27
   6  -2  -7    0.76    0.57
  -3   2   8    1.81    0.33
  -3   2   8    1.82    0.37
  -3   2   8    3.23    0.96
   3  -2  -8    2.27    0.26
   3  -2  -8    1.99    0.35
   3  -2  -8    1.54    0.55
   3  -2  -8    2.23    0.49
   3  -2  -8    2.66    0.26
   3  -2  -8    2.40    0.26
   3  -2  -8    2.44    0.70
   0   2   9   11.51    0.62
   0   2   9   11.72    0.73
   0   2   9   11.15    0.84
   0  -2  -9   11.99    0.71
   0  -2  -9   12.13    0.90
   0  -2  -9   11.80    0.57
   3   2  10   11.52    0.80
   3   2  10   10.54    0.57
   3   2  10   11.59    0.87
   3   2  10   11.20    0.92
   3   2  10   10.99    0.65
  -3  -2 -10   10.80    0.98
  -3  -2 -10   10.84    0.78
  -3  -2 -10   11.10    0.78
   6   2  11    0.54    0.38
   6   2  11    0.48    0.41
   6   2  11    0.54    0.38
   6   2  11    0.57    0.28
  -6  -2 -11   -0.32    0.37
  -5   1   7    1.95    0.39
  -5   1   7    1.59    0.36
   5  -1  -7    2.18    0.32
   5  -1  -7    2.06    0.49
   5  -1  -7    1.54    0.37
  -2   1   8    3.20    0.44
  -2   1   8    3.77    0.54
  -2   1   8    3.84    0.50
   2  -1  -8    3.61    0.42
   2  -1  -8    2.64    0.37
   2  -1  -8    3.57    0.63
   2  -1  -8    3.58    0.35
   1   1   9    0.34    0.24
   1   1   9    0.21    0.19
   1   1   9    0.02    0.09
   1   1   9    0.08    0.22
  -1  -1  -9    0.07    0.18
  -1  -1  -9    0.17    0.31
  -1  -1  -9    0.01    0.17
   4   1  10    2.55    0.54
   4   1  10    2.38    0.36
   4   1  10    2.38    0.28
   4   1  10    1.99    0.51
   4   1  10    2.90    0.58
  -4  -1 -10    2.52    0.34
  -4  -1 -10    2.01    0.45
  -4  -1 -10    2.13    0.69
  -4  -1 -10    2.17    0.49
  -7   0   6    1.09    0.37
   7   0  -6    0.46    0.46
   7   0  -6    0.80    0.37
  -4   0   7    1.79    0.40
  -4   0   7    3.91    1.06
  -4   0   7    1.28    0.31
   4   0  -7    1.95    0.40
   4   0  -7    1.39    0.58
   4   0  -7    1.95    0.57
   4   0  -7    1.54    0.24
   4   0  -7    2.17    0.74
  -1   0   8    0.83    0.24
  -1   0   8    1.38    0.35
  -1   0   8    1.48    0.32
   1   0  -8    1.69    0.33
   1   0  -8    2.04    0.63
   1   0  -8    1.51    0.33
   2   0   9    0.04    0.22
   2   0   9    0.31    0.21
   2   0   9    0.20    0.20
   2   0   9    0.01    0.15
   2   0   9    0.00    0.12
  -2   0  -9    0.29    0.31
  -2   0  -9    0.03    0.21
  -2   0  -9    0.24    0.30
   5   0  10    0.81    0.46
   5   0  10    0.69    0.19
   5   0  10    0.75    0.27
   5   0  10    0.63    0.38
  -5   0 -10    2.63    0.77
  -5   0 -10    0.88    0.46
  -5   0 -10    1.81    0.43
  -5   0 -10    0.68    0.20
  -5   0 -10    1.00    0.45
  -6  -1   6    0.50    0.31
  -6  -1   6    0.13    0.25
  -6  -1   6   -0.15    0.19
   6   1  -6    0.01    0.48
   6   1  -6    0.13    0.20
   6   1  -6   -0.12    0.23
   6   1  -6    0.57    0.28
  -3  -1   7    1.00    0.33
  -3  -1   7    1.94    0.92
  -3  -1   7    1.32    0.30
   3   1  -7    2.49    0.75
   3   1  -7    1.44    0.63
   3   1  -7    1.06    0.20
   3   1  -7    1.55    0.44
   3   1  -7    1.52    0.36
   0  -1   8    1.41    0.33
   0  -1   8    2.09    0.59
   0  -1   8    0.52    0.33
   0  -1   8    1.18    0.25
   0   1  -8    0.81    0.24
   0   1  -8    0.51    0.33
   0   1  -8    1.30    0.39
   0   1  -8    2.04    0.83
   3  -1   9    1.80    0.29
   3  -1   9    1.47    0.42
   3  -1   9    2.33    0.36
   3  -1   9    2.27    0.34
   3  -1   9    2.86    0.51
  -3   1  -9    2.23    0.50
  -3   1  -9    1.91    0.31
   6  -1  10    0.58    0.40
   6  -1  10    0.02    0.23
   6  -1  10    0.27    0.34
   6  -1  10    0.32    0.23
   6  -1  10    0.73    0.40
  -6   1 -10   -0.37    0.36
  -5  -2   6    4.44    1.29
  -5  -2   6    0.72    0.33
  -5  -2   6    0.55    0.23
   5   2  -6    1.15    0.44
   5   2  -6    2.25    0.70
   5   2  -6    1.43    0.38
   5   2  -6    2.28    0.86
  -2  -2   7   14.10    0.86
  -2  -2   7   13.84    0.98
  -2  -2   7   14.16    1.12
  -2  -2   7   13.26    0.84
  -2  -2   7   13.85    0.88
   2   2  -7   13.84    0.82
   2   2  -7   13.26    0.85
   2   2  -7   15.06    0.66
   2   2  -7   14.09    1.19
   1  -2   8   -0.19    0.26
   1  -2   8   -0.05    0.32
   1  -2   8   -0.11    0.20
   1  -2   8    0.02    0.16
  -1   2  -8    0.20    0.22
  -1   2  -8    0.27    0.35
  -1   2  -8    0.19    0.17
   4  -2   9    0.92    0.35
   4  -2   9    0.08    0.17
   4  -2   9    0.10    0.19
   4  -2   9    0.75    0.23
  -4   2  -9    0.04    0.33
  -4   2  -9    0.46    0.25
  -4   2  -9    0.84    0.30
  -4   2  -9    1.42    0.64
  -4   2  -9    0.56    0.21
  -4  -3   6    0.06    0.38
  -4  -3   6    0.03    0.18
  -4  -3   6    1.52    0.61
  -4  -3   6    0.21    0.27
   4   3  -6   -0.21    0.44
   4   3  -6    0.10    0.30
   4   3  -6   -0.14    0.22
   4   3  -6   -0.04    0.29
   4   3  -6   -0.29    0.19
  -1  -3   7   58.17    1.66
  -1  -3   7   62.07    1.97
  -1  -3   7   60.57    1.18
  -1  -3   7   65.44    1.88
  -1  -3   7   64.98    2.18
   1   3  -7   62.59    1.82
   1   3  -7   58.62    2.43
   2  -3   8   12.78    0.84
   2  -3   8   13.52    0.78
   2  -3   8   13.63    0.70
   2  -3   8   12.08    0.75
   2  -3   8   13.63    0.99
  -2   3  -8   13.75    0.76
  -2   3  -8   13.37    0.87
  -2   3  -8   13.00    1.03
   5  -3   9    0.41    0.29
   5  -3   9   -0.19    0.31
   5  -3   9    0.11    0.17
   5  -3   9    0.13    0.31
  -5   3  -9   -0.26    0.36
  -5   3  -9    1.23    0.81
  -5   3  -9   -0.15    0.24
  -6  -4   5   -0.05    0.33
  -6  -4   5   -0.43    0.28
  -6  -4   5   -0.11    0.22
   6   4  -5    0.97    0.52
   6   4  -5   -0.18    0.36
   6   4  -5   -0.31    0.21
   6   4  -5   -0.09    0.55
   6   4  -5   -0.39    0.28
  -3  -4   6    0.23    0.31
  -3  -4   6    0.51    0.26
  -3  -4   6    2.03    0.77
  -3  -4   6    0.39    0.23
  -3  -4   6    1.45    0.56
  -3  -4   6    0.58    0.20
  -3  -4   6    0.33    0.28
   3   4  -6    0.39    0.61
   3   4  -6    0.14    0.19
   3   4  -6    0.65    0.27
   3   4  -6    0.53    0.23
   3   4  -6    0.75    0.44
   3   4  -6    0.12    0.34
   0  -4   7    2.75    0.52
   0  -4   7    4.18    0.40
   0  -4   7    3.53    0.48
   0   4  -7    2.66    0.39
   0   4  -7    3.61    0.49
   0   4  -7    3.91    0.55
   0   4  -7    6.50    1.36
   3  -4   8   19.05    0.91
   3  -4   8   16.43    1.00
   3  -4   8   17.57    1.00
  -3   4  -8   18.72    1.24
  -3   4  -8   17.91    1.13
  -3   4  -8   18.24    0.86
  -5  -5   5   -0.18    0.22
  -5  -5   5   -0.05    0.22
  -5  -5   5    0.11    0.27
  -5  -5   5    1.37    0.76
   5   5  -5    0.61    0.49
   5   5  -5    0.99    0.43
   5   5  -5    0.65    0.62
   5   5  -5    0.44    0.30
   5   5  -5    0.09    0.28
  -2  -5   6    0.09    0.14
  -2  -5   6   -0.12    0.30
  -2  -5   6   -0.13    0.22
  -2  -5   6    0.16    0.23
  -2  -5   6    1.32    0.47
  -2  -5   6    1.29    0.69
   2   5  -6    0.52    0.37
   2   5  -6    0.41    0.45
   2   5  -6    0.27    0.22
   2   5  -6    0.16    0.21
   2   5  -6    0.42    0.48
   1  -5   7    2.34    0.65
   1  -5   7    1.45    0.42
   1  -5   7    1.40    0.33
   1  -5   7    1.37    0.40
   1  -5   7    1.63    0.37
  -1   5  -7    1.14    0.34
  -1   5  -7    1.54    0.38
  -1   5  -7    0.87    0.34
   4  -5   8    0.16    0.27
   4  -5   8    1.48    0.50
   4  -5   8    0.59    0.25
  -4   5  -8    0.79    0.24
  -4   5  -8    0.95    0.51
  -4   5  -8    2.05    0.63
  -4  -6   5    7.16    0.57
  -4  -6   5    7.79    0.82
  -4  -6   5    7.04    0.93
  -4  -6   5    8.73    0.71
  -4  -6   5    8.61    0.90
   4   6  -5    7.73    1.02
   4   6  -5    6.45    0.79
   4   6  -5    7.25    0.72
   4   6  -5    6.60    0.73
   4   6  -5    7.84    0.68
   4   6  -5    6.92    0.55
  -1  -6   6    4.18    0.90
  -1  -6   6    1.77    0.45
  -1  -6   6    1.84    0.41
  -1  -6   6    1.79    0.42
   1   6  -6    2.40    0.36
   1   6  -6    1.33    0.30
   1   6  -6    1.66    0.71
   1   6  -6    2.31    0.45
   1   6  -6    2.62    0.50
   2  -6   7   -0.14    0.27
   2  -6   7    0.30    0.23
   2  -6   7    0.07    0.32
   2  -6   7    0.02    0.26
   2  -6   7    0.21    0.28
  -2   6  -7   -0.02    0.35
  -2   6  -7   -0.17    0.32
  -3  -7   5    4.50    0.57
  -3  -7   5    3.10    0.55
  -3  -7   5    4.54    0.58
  -3  -7   5    7.62    1.13
  -3  -7   5    4.37    0.40
  -3  -7   5    5.71    0.72
  -3  -7   5    6.76    1.13
   3   7  -5    4.41    0.56
   3   7  -5    5.44    0.57
   3   7  -5    3.92    0.47
   3   7  -5    5.19    0.90
   3   7  -5    5.16    0.93
   0  -7   6    0.28    0.34
   0  -7   6    0.37    0.29
   0  -7   6    0.15    0.65
   0  -7   6    0.66    0.34
   0   7  -6    0.56    0.17
   0   7  -6    0.50    0.33
   3  -7   7    0.69    0.32
   3  -7   7   -0.24    0.32
   3  -7   7   -0.58    0.26
   3  -7   7   -0.49    0.20
  -3   7  -7    0.89    0.42
  -3   7  -7   -0.07    0.34
  -2  -8   5   -0.20    0.27
  -2  -8   5   -0.01    0.21
  -2  -8   5   -0.68    0.28
  -2  -8   5    2.13    0.81
  -2  -8   5    0.04    0.28
   2   8  -5    0.23    0.54
   2   8  -5    0.27    0.21
   2   8  -5   -0.22    0.18
   2   8  -5    0.32    0.45
   1  -8   6    1.05    0.35
   1  -8   6    1.24    0.42
   1  -8   6    1.83    1.05
   1  -8   6    2.23    0.51
   1  -8   6    1.32    0.40
  -1   8  -6    1.32    0.45
  -1   8  -6    1.62    0.41
  -1   8  -6    2.79    0.74
  -1   8  -6    0.68    0.78
  -1  -9   5   -0.77    0.29
  -1  -9   5   -0.13    0.26
  -1  -9   5    0.11    0.27
  -1  -9   5    2.51    1.12
   1   9  -5   -0.14    0.25
   1   9  -5    0.33    0.22
   1   9  -5    0.95    0.64
   2  -9   6    0.38    0.31
   2  -9   6    0.79    0.44
   2  -9   6    0.58    0.35
   2  -9   6    0.31    0.33
  -2   9  -6    1.93    0.66
  -2   9  -6    0.25    0.36
   0 -10   5   -0.71    0.31
   0 -10   5    0.79    0.41
   0 -10   5   -0.44    0.28
   0  10  -5   -0.09    0.61
   0  10  -5    0.44    0.54
   0  10  -5    0.25    0.36
  -1  11  12    0.20    0.22
  -1  11  12   -0.43    0.30
  -1  11  12    0.14    0.31
  -1  11  12    0.02    0.23
  -1  11  12    0.13    0.95
   1 -11 -12    0.04    0.25
   1 -11 -12    0.21    0.34
   2  11  13    4.03    0.99
   2  11  13    2.87    0.66
   2  11  13    1.86    0.45
   2  11  13    3.28    0.87
  -2 -11 -13    2.64    0.62
  -3  10  11   -0.27    0.27
  -3  10  11    0.41    0.29
   3 -10 -11   -0.49    0.27
   3 -10 -11    0.34    0.33
   3 -10 -11    0.38    0.73
   0  10  12    0.81    0.43
   0  10  12    0.30    0.24
   0  10  12    0.90    0.33
   0  10  12    0.01    0.35
   0  10  12    1.02    0.81
   0 -10 -12    0.48    0.22
   0 -10 -12    0.09    0.28
   3  10  13   -0.35    0.42
   3  10  13    0.05    0.42
   3  10  13   -0.74    0.34
   3  10  13   -0.38    0.21
  -3 -10 -13   -0.37    0.33
  -2   9  11    0.45    0.32
  -2   9  11    0.66    0.24
  -2   9  11    0.21    0.26
  -2   9  11    0.56    0.31
   2  -9 -11    0.54    0.26
   2  -9 -11    0.74    0.34
   2  -9 -11    0.47    0.37
   1   9  12   -0.21    0.49
   1   9  12   -0.06    0.24
   1   9  12   -0.41    0.28
   1   9  12   -0.55    0.31
  -1  -9 -12   -0.36    0.19
  -1  -9 -12   -0.20    0.23
  -1  -9 -12   -0.01    0.13
  -1  -9 -12   -0.08    0.20
   4   9  13   -0.33    0.36
   4   9  13   -0.03    0.39
   4   9  13    0.99    0.40
   4   9  13   -0.73    0.38
   4   9  13   -0.21    0.35
  -4  -9 -13    1.10    0.43
  -4  -9 -13   -0.33    0.31
  -4   8  10   -0.04    0.27
  -4   8  10    0.46    0.24
   4  -8 -10    0.16    0.36
   4  -8 -10   -0.26    0.24
   4  -8 -10    0.78    0.32
   4  -8 -10    0.71    0.68
  -1   8  11    0.51    0.26
  -1   8  11    0.94    0.37
  -1   8  11    0.24    0.22
  -1   8  11    0.91    0.35
   1  -8 -11    0.56    0.27
   1  -8 -11    0.55    0.22
   2   8  12    1.24    0.59
   2   8  12    0.92    0.34
   2   8  12    1.08    0.41
   2   8  12    0.63    0.56
   2   8  12    0.15    0.27
  -2  -8 -12    0.64    0.34
  -2  -8 -12    1.09    0.36
  -2  -8 -12    0.35    0.27
  -2  -8 -12    0.66    0.27
  -3   7  10    1.51    0.35
  -3   7  10    2.26    0.39
   3  -7 -10    2.40    0.41
   3  -7 -10    1.35    0.34
   3  -7 -10    2.37    0.91
   0   7  11    3.79    0.50
   0   7  11    4.33    0.58
   0   7  11    4.58    0.47
   0  -7 -11    3.56    0.42
   0  -7 -11    3.81    0.56
   0  -7 -11    5.58    0.63
   0  -7 -11    4.44    0.47
   0  -7 -11    5.47    0.57
   3   7  12   -0.05    0.26
   3   7  12   -0.54    0.25
   3   7  12    0.80    0.49
   3   7  12   -0.11    0.34
   3   7  12    0.76    0.41
  -3  -7 -12    0.15    0.42
  -3  -7 -12    0.18    0.29
  -3  -7 -12   -0.02    0.19
  -3  -7 -12   -0.01    0.30
  -5   6   9    0.48    0.32
  -5   6   9    0.92    0.22
   5  -6  -9    1.65    0.87
  -2   6  10    0.23    0.25
  -2   6  10    0.52    0.28
  -2   6  10    1.15    0.61
  -2   6  10    0.77    0.28
   2  -6 -10    0.26    0.28
   2  -6 -10    0.95    0.31
   2  -6 -10    0.41    0.22
   1   6  11   10.77    0.87
   1   6  11   11.07    0.85
   1   6  11   11.76    0.51
  -1  -6 -11   13.06    0.85
  -1  -6 -11   11.86    0.65
  -1  -6 -11   10.66    0.78
   4   6  12    1.65    0.54
   4   6  12    0.90    0.43
   4   6  12    0.73    0.35
   4   6  12    1.03    0.47
  -4  -6 -12    0.82    0.38
  -4  -6 -12    1.04    0.35
  -4  -6 -12    3.04    0.64
  -4  -6 -12    1.88    0.54
  -4  -6 -12    1.10    0.30
  -4   5   9    2.89    1.04
  -4   5   9    0.51    0.26
  -4   5   9    0.69    0.27
   4  -5  -9    0.55    0.29
   4  -5  -9    1.02    0.23
   4  -5  -9    1.10    0.39
  -1   5  10    1.25    0.26
  -1   5  10    0.94    0.32
  -1   5  10    1.26    0.39
   1  -5 -10    1.53    0.34
   1  -5 -10    1.01    0.25
   1  -5 -10    1.20    0.34
   2   5  11    9.44    0.81
   2   5  11    8.39    0.77
   2   5  11    8.91    0.76
   2   5  11    8.08    0.75
  -2  -5 -11    8.59    0.58
  -2  -5 -11    8.47    0.81
  -2  -5 -11    7.85    0.67
  -2  -5 -11    9.23    0.74
   5   5  12    1.71    0.46
   5   5  12    2.99    0.73
   5   5  12    2.66    0.56
  -5  -5 -12    0.90    0.44
  -5  -5 -12    2.30    0.59
  -5  -5 -12    1.32    0.33
  -6   4   8   -0.66    0.48
  -6   4   8   -0.37    0.24
   6  -4  -8    0.35    0.59
   6  -4  -8    0.08    0.34
   6  -4  -8   -0.14    0.27
   6  -4  -8    0.40    0.25
   6  -4  -8   -0.19    0.18
  -3   4   9    7.67    1.04
  -3   4   9    6.32    0.66
  -3   4   9    6.72    0.57
  -3   4   9    7.28    0.71
   3  -4  -9    6.94    0.47
   3  -4  -9    7.47    0.94
   3  -4  -9    6.68    0.66
   3  -4  -9    6.99    0.67
   0   4  10    2.65    0.43
   0   4  10    3.44    0.50
   0   4  10    3.27    0.38
   0   4  10    3.75    0.60
   0  -4 -10    2.81    0.49
   0  -4 -10    3.46    0.28
   0  -4 -10    3.41    0.42
   0  -4 -10    2.79    0.38
   3   4  11    5.21    0.77
   3   4  11    4.08    0.53
   3   4  11    3.39    0.53
  -3  -4 -11    4.30    0.57
  -3  -4 -11    3.99    0.49
  -3  -4 -11    4.00    0.56
  -5   3   8   -0.15    0.21
  -5   3   8   -0.06    0.24
   5  -3  -8   -0.10    0.40
   5  -3  -8   -0.16    0.23
   5  -3  -8    0.48    0.28
   5  -3  -8   -0.08    0.20
  -2   3   9   64.56    1.97
  -2   3   9   64.70    1.90
  -2   3   9   61.49    2.15
  -2   3   9   66.65    1.86
   2  -3  -9   63.81    1.37
   2  -3  -9   63.94    1.43
   2  -3  -9   64.59    2.16
   2  -3  -9   62.96    1.85
   1   3  10    6.81    0.62
   1   3  10    6.07    0.40
   1   3  10    6.01    0.64
   1   3  10    6.97    0.76
  -1  -3 -10    5.74    0.73
  -1  -3 -10    5.69    0.73
  -1  -3 -10    5.11    0.50
  -1  -3 -10    6.49    0.60
   4   3  11    0.81    0.40
   4   3  11    0.37    0.21
   4   3  11   -0.06    0.28
   4   3  11    0.71    0.36
  -4  -3 -11    0.38    0.21
  -4  -3 -11   -0.21    0.32
  -4   2   8    3.80    0.53
  -4   2   8    2.62    0.42
  -4   2   8    6.26    1.09
   4  -2  -8    7.15    1.21
   4  -2  -8    4.25    0.38
   4  -2  -8    3.31    0.45
  -1   2   9    0.23    0.16
  -1   2   9    0.10    0.29
  -1   2   9    0.12    0.22
   1  -2  -9   -0.10    0.18
   1  -2  -9    0.01    0.39
   1  -2  -9   -0.05    0.13
   2   2  10    1.25    0.45
   2   2  10    1.05    0.39
   2   2  10    1.03    0.32
   2   2  10    1.26    0.35
   2   2  10    0.50    0.26
   2   2  10    0.90    0.20
   2   2  10    0.69    0.14
  -2  -2 -10    1.50    0.46
  -2  -2 -10    0.97    0.24
  -2  -2 -10    1.03    0.31
   5   2  11   -0.52    0.30
   5   2  11   -0.26    0.27
   5   2  11    0.16    0.32
   5   2  11    0.18    0.20
   5   2  11   -0.48    0.39
  -5  -2 -11   -0.39    0.14
  -5  -2 -11    0.10    0.29
  -5  -2 -11   -0.46    0.33
  -6   1   7    1.32    0.36
  -6   1   7    1.72    0.42
  -6   1   7    1.72    0.38
   6  -1  -7    1.56    0.30
   6  -1  -7    1.65    0.34
   6  -1  -7    2.84    0.83
   6  -1  -7    1.75    0.36
   6  -1  -7    1.50    0.44
  -3   1   8    3.21    0.46
  -3   1   8    3.66    0.49
  -3   1   8    7.65    1.34
   3  -1  -8    5.56    0.99
   3  -1  -8    4.02    0.31
   3  -1  -8    4.15    0.48
   3  -1  -8    4.41    0.53
   3  -1  -8    4.76    0.75
   0   1   9    2.10    0.28
   0   1   9    2.98    0.44
   0   1   9    1.68    0.35
   0  -1  -9    3.87    0.83
   0  -1  -9    2.67    0.43
   0  -1  -9    3.20    0.32
   3   1  10    3.82    0.52
   3   1  10    4.57    0.47
   3   1  10    5.63    0.60
   3   1  10    5.62    0.54
   3   1  10    4.75    0.38
   3   1  10    6.00    0.80
  -3  -1 -10    4.91    0.48
  -3  -1 -10    5.16    0.60
  -3  -1 -10    5.01    0.70
   6   1  11   -0.38    0.34
   6   1  11    0.51    0.40
   6   1  11    0.05    0.23
   6   1  11    0.93    0.46
  -6  -1 -11    0.27    0.50
  -5   0   7   -0.24    0.14
  -5   0   7   -0.12    0.21
   5   0  -7    0.45    0.27
   5   0  -7   -0.13    0.15
   5   0  -7   -0.37    0.25
   5   0  -7    0.33    0.38
  -2   0   8    0.72    0.29
  -2   0   8    0.58    0.29
  -2   0   8    0.56    0.22
   2   0  -8    1.25    0.42
   2   0  -8    1.00    0.30
   2   0  -8    0.74    0.23
   2   0  -8    1.74    0.68
   1   0   9    1.37    0.32
   1   0   9    1.72    0.32
   1   0   9    1.41    0.39
   1   0   9    1.51    0.18
  -1   0  -9    1.35    0.38
  -1   0  -9    1.30    0.29
  -1   0  -9    0.97    0.26
  -1   0  -9    1.97    0.36
   4   0  10   -0.09    0.14
   4   0  10    0.38    0.21
   4   0  10    0.44    0.34
   4   0  10    0.47    0.34
  -4   0 -10    0.46    0.64
  -4   0 -10    0.18    0.19
  -4   0 -10    0.25    0.26
  -4  -1   7    7.08    1.20
  -4  -1   7    5.24    0.62
  -4  -1   7    5.93    0.69
   4   1  -7    5.99    0.94
   4   1  -7    5.60    0.60
   4   1  -7    5.73    0.62
   4   1  -7    5.62    0.76
  -1  -1   8    7.96    0.69
  -1  -1   8    8.41    0.84
   1   1  -8    8.71    0.68
   1   1  -8    8.34    0.57
   1   1  -8    8.67    0.96
   2  -1   9    0.13    0.24
   2  -1   9   -0.02    0.17
   2  -1   9    0.28    0.16
   2  -1   9    0.02    0.22
   2  -1   9    0.08    0.24
  -2   1  -9    0.25    0.22
  -2   1  -9    0.17    0.34
  -2   1  -9   -0.02    0.16
   5  -1  10    0.12    0.20
   5  -1  10    0.40    0.36
   5  -1  10    0.01    0.48
  -5   1 -10   -0.40    0.59
  -5   1 -10   -0.10    0.32
  -5   1 -10   -0.19    0.24
  -5   1 -10   -0.10    0.14
  -6  -2   6    1.57    0.42
  -6  -2   6    1.06    0.38
  -6  -2   6    3.13    0.52
  -6  -2   6    1.88    0.49
   6   2  -6    2.66    0.80
   6   2  -6    1.82    0.50
   6   2  -6    2.65    0.64
  -3  -2   7    5.23    1.22
  -3  -2   7    6.09    1.30
  -3  -2   7    2.74    0.44
  -3  -2   7    2.04    0.38
  -3  -2   7    2.49    0.45
  -3  -2   7    3.99    0.73
   3   2  -7    1.83    0.36
   3   2  -7    3.19    0.33
   3   2  -7    3.31    0.62
   3   2  -7    4.14    0.96
   3   2  -7    4.53    0.84
   0  -2   8    0.74    0.25
   0  -2   8    0.63    0.20
   0  -2   8    0.93    0.51
   0  -2   8    0.68    0.29
   0  -2   8   -0.09    0.29
   0   2  -8    0.49    0.24
   0   2  -8    1.02    0.77
   0   2  -8    0.26    0.28
   0   2  -8    0.55    0.28
   3  -2   9   -0.18    0.16
   3  -2   9    0.17    0.20
   3  -2   9    0.25    0.30
   3  -2   9    0.24    0.21
  -3   2  -9    0.03    0.34
  -3   2  -9    0.05    0.19
  -5  -3   6    7.22    0.89
  -5  -3   6    8.43    0.87
  -5  -3   6    5.73    0.99
   5   3  -6    8.28    0.90
   5   3  -6    7.27    0.73
   5   3  -6    7.34    1.06
   5   3  -6    6.39    0.82
  -2  -3   7   13.28    0.88
  -2  -3   7   13.92    1.08
  -2  -3   7   12.63    0.98
  -2  -3   7   12.67    1.12
  -2  -3   7   12.82    0.51
   2   3  -7   11.96    0.79
   2   3  -7   13.91    0.95
   2   3  -7   12.99    0.91
   2   3  -7   12.82    1.20
   2   3  -7   13.41    0.69
   1  -3   8    1.78    0.42
   1  -3   8    3.05    0.40
   1  -3   8    2.89    0.49
   1  -3   8    2.84    0.43
  -1   3  -8    2.70    0.48
  -1   3  -8    2.17    0.51
  -1   3  -8    2.92    0.45
   4  -3   9   -0.04    0.20
   4  -3   9   -0.02    0.28
   4  -3   9    0.00    0.22
   4  -3   9   -0.39    0.17
  -4   3  -9    0.25    0.35
  -4   3  -9    0.01    0.23
  -4   3  -9    0.30    0.44
  -4   3  -9    0.68    0.56
  -4  -4   6    1.34    0.45
  -4  -4   6    0.91    0.30
  -4  -4   6    0.93    0.35
  -4  -4   6    0.60    0.39
  -4  -4   6    2.12    0.70
   4   4  -6    1.62    0.37
   4   4  -6    1.41    0.45
   4   4  -6    1.95    0.76
   4   4  -6    0.98    0.24
   4   4  -6    2.04    0.62
  -1  -4   7    0.12    0.25
  -1  -4   7    0.20    0.34
  -1  -4   7   -0.12    0.28
  -1  -4   7    0.87    0.60
  -1  -4   7    0.53    0.16
   1   4  -7    0.47    0.27
   1   4  -7    1.28    0.78
   1   4  -7    0.37    0.23
   2  -4   8   19.03    1.20
   2  -4   8   17.47    1.02
   2  -4   8   17.09    0.91
   2  -4   8   18.56    0.93
   2  -4   8   16.06    0.87
  -2   4  -8   17.85    0.90
  -2   4  -8   16.81    0.99
  -2   4  -8   18.98    1.26
   5  -4   9    2.00    0.44
   5  -4   9    3.15    0.60
   5  -4   9    1.45    0.39
   5  -4   9    2.84    0.35
  -5   4  -9    1.94    0.61
  -5   4  -9    2.45    0.42
  -3  -5   6    4.31    0.48
  -3  -5   6    6.08    0.94
  -3  -5   6    3.60    0.56
  -3  -5   6    5.04    0.66
  -3  -5   6    4.70    0.50
   3   5  -6    4.71    1.39
   3   5  -6    5.05    0.49
   3   5  -6    4.72    0.52
   3   5  -6    4.66    0.60
   3   5  -6    5.83    0.88
   0  -5   7    5.78    0.61
   0  -5   7    5.75    0.47
   0  -5   7    6.84    0.83
   0  -5   7    4.60    0.61
   0  -5   7    6.23    0.64
   0   5  -7    6.04    0.98
   0   5  -7    6.15    0.61
   0   5  -7    6.52    0.63
   0   5  -7    6.45    0.76
   3  -5   8    1.13    0.32
   3  -5   8    2.21    0.50
   3  -5   8    1.24    0.33
   3  -5   8    1.20    0.40
  -3   5  -8    2.61    0.68
  -3   5  -8    1.98    0.28
  -3   5  -8    2.13    0.60
  -5  -6   5    1.07    0.41
  -5  -6   5    0.20    0.29
  -5  -6   5    0.15    0.27
  -5  -6   5   -0.14    0.29
  -5  -6   5    0.43    0.24
   5   6  -5    1.04    0.50
   5   6  -5   -0.38    0.17
   5   6  -5    0.43    0.67
   5   6  -5    1.31    0.50
  -2  -6   6    0.27    0.31
  -2  -6   6    2.21    0.72
  -2  -6   6    1.04    0.33
  -2  -6   6    0.67    0.43
  -2  -6   6    0.70    0.39
  -2  -6   6   -0.03    0.39
   2   6  -6    0.45    0.33
   2   6  -6    0.35    0.24
   2   6  -6    0.30    0.44
   2   6  -6    0.33    0.28
   1  -6   7    0.04    0.25
   1  -6   7   -0.06    0.18
   1  -6   7    0.19    0.25
   1  -6   7    0.21    0.31
   1  -6   7    0.61    0.54
  -1   6  -7    0.33    0.35
  -1   6  -7   -0.32    0.18
  -1   6  -7    0.22    0.26
   4  -6   8   -0.52    0.24
   4  -6   8    0.51    0.26
   4  -6   8    0.17    0.38
  -4   6  -8    0.90    0.50
  -4   6  -8    0.02    0.44
  -4  -7   5    0.54    0.29
  -4  -7   5    0.58    0.31
  -4  -7   5    1.97    0.76
  -4  -7   5    0.46    0.34
  -4  -7   5    0.36    0.48
  -4  -7   5    1.05    0.31
   4   7  -5    0.52    0.44
   4   7  -5    0.92    0.47
   4   7  -5    1.66    0.77
   4   7  -5    0.75    0.51
   4   7  -5    0.90    0.33
  -1  -7   6    2.91    0.51
  -1  -7   6    2.96    0.50
  -1  -7   6    3.82    0.56
  -1  -7   6    7.13    1.32
   1   7  -6    3.63    0.40
   1   7  -6    4.02    0.40
   1   7  -6    4.86    1.34
   2  -7   7    0.02    0.31
   2  -7   7    0.47    0.34
   2  -7   7    0.26    0.27
   2  -7   7    0.03    0.23
   2  -7   7    0.62    0.33
  -2   7  -7    0.72    0.36
  -3  -8   5   -0.13    0.22
  -3  -8   5    0.02    0.21
  -3  -8   5   -0.02    0.28
  -3  -8   5   -0.30    0.25
   3   8  -5    0.36    0.24
   3   8  -5    0.24    0.33
   3   8  -5    0.16    0.24
   3   8  -5   -0.31    0.41
   3   8  -5    0.66    0.45
   0  -8   6    0.95    0.39
   0  -8   6    1.59    0.42
   0  -8   6    2.30    0.53
   0   8  -6    1.09    0.32
   0   8  -6    3.05    1.19
   3  -8   7   -0.10    0.27
   3  -8   7    0.51    0.42
  -3   8  -7   -0.13    0.37
  -3   8  -7    0.66    0.47
  -3   8  -7    0.98    0.42
  -2  -9   5    0.13    0.29
  -2  -9   5   -0.51    0.22
  -2  -9   5   -0.39    0.28
   2   9  -5   -0.27    0.52
   2   9  -5    0.42    0.48
   2   9  -5   -0.08    0.20
   2   9  -5    0.06    0.27
   1  -9   6   -0.16    0.31
   1  -9   6    0.11    0.27
   1  -9   6    0.30    0.35
  -1   9  -6   -1.20    0.73
  -1   9  -6    0.39    0.46
  -1 -10   5    0.63    0.42
  -1 -10   5   -0.41    0.33
  -1 -10   5    1.35    0.43
   1  10  -5    1.09    0.70
  -2  11  12    0.31    0.34
  -2  11  12   -0.14    0.28
  -2  11  12    0.90    0.27
  -2  11  12   -0.38    0.33
   2 -11 -12    0.07    0.29
   2 -11 -12   -0.12    0.31
   1  11  13    1.54    0.47
   1  11  13    0.62    0.30
   1  11  13    0.56    0.71
  -1 -11 -13   -0.29    0.26
  -1 -11 -13    0.47    0.20
  -1 -11 -13    0.33    0.40
  -1  10  12    0.48    0.38
  -1  10  12    0.74    0.28
  -1  10  12   -0.32    0.33
  -1  10  12    0.18    0.25
   1 -10 -12   -0.06    0.21
   1 -10 -12   -0.05    0.26
   2  10  13    0.44    0.32
   2  10  13   -0.49    0.45
   2  10  13   -0.38    0.29
   2  10  13   -0.07    0.30
  -2 -10 -13   -0.54    0.27
  -3   9  11    0.79    0.20
  -3   9  11    0.14    0.25
  -3   9  11    0.23    0.26
   3  -9 -11    0.06    0.28
   3  -9 -11    1.14    0.86
   3  -9 -11    0.79    0.37
   0   9  12    1.10    0.50
   0   9  12    1.87    0.39
   0   9  12    0.86    0.41
   0   9  12    1.39    0.29
   0  -9 -12    1.12    0.48
   0  -9 -12    1.24    0.31
   0  -9 -12    2.10    0.61
   0  -9 -12    1.19    0.30
   0  -9 -12    1.53    0.40
   3   9  13    0.51    0.37
   3   9  13    0.68    0.51
   3   9  13    1.27    0.58
   3   9  13   -0.22    0.27
   3   9  13    0.00    0.36
  -3  -9 -13    0.44    0.42
  -3  -9 -13    0.78    0.40
  -2   8  11    0.02    0.23
  -2   8  11   -0.23    0.26
  -2   8  11    0.11    0.26
  -2   8  11   -0.05    0.21
   2  -8 -11   -0.09    0.19
   2  -8 -11    0.11    0.25
   2  -8 -11    0.28    0.32
   1   8  12    0.39    0.60
   1   8  12    0.36    0.27
   1   8  12   -0.15    0.30
  -1  -8 -12    0.82    0.24
  -1  -8 -12    0.98    0.49
  -1  -8 -12    0.52    0.33
  -1  -8 -12    0.71    0.40
   4   8  13    0.59    0.43
   4   8  13    0.85    0.42
   4   8  13    0.07    0.36
   4   8  13    0.12    0.42
   4   8  13   -0.50    0.38
  -4  -8 -13    0.73    0.33
  -4  -8 -13   -0.35    0.27
  -4  -8 -13   -0.16    0.25
  -4  -8 -13    0.39    0.35
  -4   7  10   -0.02    0.19
  -4   7  10    2.66    1.14
  -4   7  10    0.05    0.25
   4  -7 -10   -0.38    0.21
   4  -7 -10    0.17    0.61
   4  -7 -10    0.14    0.26
  -1   7  11    0.50    0.31
  -1   7  11    0.03    0.18
  -1   7  11    0.27    0.26
   1  -7 -11    0.51    0.27
   1  -7 -11    0.21    0.18
   2   7  12    3.30    0.80
   2   7  12    2.02    0.53
   2   7  12    1.82    0.43
   2   7  12    3.70    0.86
   2   7  12    2.22    0.42
  -2  -7 -12    1.60    0.42
  -2  -7 -12    3.08    0.39
  -2  -7 -12    2.28    0.40
  -2  -7 -12    2.74    0.53
  -3   6  10    5.84    0.54
  -3   6  10    5.78    0.70
   3  -6 -10    5.46    0.66
   3  -6 -10    5.14    0.50
   3  -6 -10    3.56    0.52
   0   6  11    2.08    0.33
   0   6  11    2.82    0.57
   0   6  11    1.56    0.38
   0  -6 -11    2.28    0.44
   0  -6 -11    2.10    0.28
   0  -6 -11    2.59    0.48
   3   6  12    0.58    0.33
   3   6  12    1.42    0.56
   3   6  12    1.10    0.46
   3   6  12    1.13    0.46
   3   6  12    0.76    0.37
  -3  -6 -12    1.02    0.41
  -3  -6 -12    0.17    0.28
  -3  -6 -12    0.62    0.34
  -3  -6 -12    0.52    0.25
  -2   5  10    3.59    0.87
  -2   5  10    1.85    0.38
  -2   5  10    1.49    0.30
  -2   5  10    2.53    0.47
   2  -5 -10    1.95    0.36
   2  -5 -10    2.45    0.48
   2  -5 -10    1.41    0.29
   1   5  11    0.17    0.12
   1   5  11   -0.29    0.25
   1   5  11    0.15    0.33
  -1  -5 -11   -0.34    0.20
  -1  -5 -11    0.02    0.25
  -1  -5 -11    0.01    0.13
   4   5  12    0.88    0.46
   4   5  12    1.85    0.51
   4   5  12    1.10    0.37
   4   5  12    1.60    0.51
  -4  -5 -12    2.41    0.51
  -4  -5 -12    0.63    0.40
  -4  -5 -12    0.90    0.33
  -4   4   9    1.52    0.35
  -4   4   9    1.24    0.35
  -4   4   9    4.22    1.17
  -4   4   9    1.19    0.36
   4  -4  -9    1.62    0.26
   4  -4  -9    1.88    0.43
   4  -4  -9    3.49    1.29
   4  -4  -9    0.91    0.30
  -1   4  10    1.17    0.24
  -1   4  10    1.10    0.37
  -1   4  10    0.93    0.38
  -1   4  10    1.26    0.34
   1  -4 -10    1.16    0.29
   1  -4 -10    1.96    0.55
   1  -4 -10    1.95    0.33
   2   4  11    4.65    0.57
   2   4  11    4.22    0.62
   2   4  11    5.48    0.67
   2   4  11    4.10    0.55
  -2  -4 -11    5.74    0.62
  -2  -4 -11    5.84    0.58
  -2  -4 -11    3.58    0.54
   5   4  12    3.06    0.67
   5   4  12    2.39    0.59
   5   4  12    2.45    0.62
   5   4  12    1.53    0.35
   5   4  12    2.34    0.53
  -5  -4 -12    1.45    0.32
  -5  -4 -12    1.12    0.46
  -6   3   8    0.11    0.23
  -6   3   8    0.18    0.24
  -6   3   8   -0.01    0.21
  -6   3   8    0.16    0.27
   6  -3  -8    0.30    0.56
   6  -3  -8    0.02    0.19
   6  -3  -8    0.05    0.18
   6  -3  -8   -0.33    0.28
  -3   3   9   11.71    1.12
  -3   3   9   10.95    0.80
  -3   3   9   10.22    0.80
   3  -3  -9   10.86    0.46
   3  -3  -9   10.05    0.78
   3  -3  -9   10.97    1.01
   3  -3  -9    9.49    1.03
   3  -3  -9    9.84    0.50
   0   3  10   -0.05    0.21
   0   3  10    0.04    0.25
   0   3  10    0.09    0.22
   0  -3 -10    0.22    0.40
   0  -3 -10   -0.16    0.16
   3   3  11   12.83    0.70
   3   3  11   10.76    0.81
   3   3  11   12.92    0.93
   3   3  11   12.55    0.69
   3   3  11   13.08    1.04
  -3  -3 -11   13.23    0.87
  -3  -3 -11   12.23    0.73
  -3  -3 -11   11.12    1.00
  -5   2   8   -0.27    0.14
  -5   2   8   -0.15    0.23
   5  -2  -8    0.15    0.15
   5  -2  -8   -0.06    0.46
   5  -2  -8    0.28    0.24
   5  -2  -8    0.20    0.17
  -2   2   9    2.22    0.48
  -2   2   9    1.83    0.33
  -2   2   9    1.38    0.34
   2  -2  -9    2.74    0.45
   2  -2  -9    1.22    0.32
   2  -2  -9    2.59    0.70
   1   2  10    1.20    0.40
   1   2  10    1.21    0.20
   1   2  10    1.41    0.32
  -1  -2 -10    2.98    0.78
  -1  -2 -10    1.40    0.31
  -1  -2 -10    1.75    0.34
  -1  -2 -10    1.27    0.39
   4   2  11   -0.08    0.26
   4   2  11    0.24    0.20
   4   2  11    0.87    0.45
  -4  -2 -11    0.01    0.18
  -4  -2 -11   -0.02    0.38
  -4   1   8    2.56    1.01
  -4   1   8    0.92    0.31
  -4   1   8    0.87    0.33
   4  -1  -8    1.01    0.62
   4  -1  -8    0.67    0.17
   4  -1  -8    0.55    0.25
   4  -1  -8    0.89    0.61
   4  -1  -8    0.56    0.39
  -1   1   9    0.81    0.22
  -1   1   9    0.73    0.30
  -1   1   9    1.04    0.42
   1  -1  -9    1.17    0.57
   1  -1  -9    0.56    0.23
   1  -1  -9    1.23    0.20
   1  -1  -9    1.14    0.30
   2   1  10    2.52    0.44
   2   1  10    3.64    0.47
   2   1  10    3.45    0.34
   2   1  10    4.13    0.49
  -2  -1 -10    4.03    0.47
  -2  -1 -10    4.16    0.58
  -2  -1 -10    2.93    0.59
   5   1  11    0.52    0.38
   5   1  11    0.78    0.40
   5   1  11    0.59    0.29
  -5  -1 -11    0.44    0.20
  -5  -1 -11    0.65    0.42
  -6   0   7    0.13    0.30
  -6   0   7   -0.05    0.20
  -6   0   7    0.24    0.28
   6   0  -7   -0.03    0.18
   6   0  -7    0.08    0.45
   6   0  -7   -0.05    0.28
  -3   0   8   13.51    0.91
  -3   0   8   13.10    0.88
  -3   0   8   12.79    1.36
  -3   0   8   12.00    0.91
   3   0  -8   13.22    0.81
   3   0  -8   12.66    0.52
   3   0  -8   12.28    0.82
   3   0  -8   11.84    1.10
   3   0  -8   14.29    1.11
   0   0   9    0.22    0.28
   0   0   9    0.07    0.22
   0   0  -9   -0.02    0.17
   0   0  -9   -0.17    0.52
   0   0  -9   -0.07    0.20
   3   0  10    1.57    0.28
   3   0  10    0.79    0.31
   3   0  10    1.47    0.25
   3   0  10    1.93    0.40
   3   0  10    1.97    0.35
  -3   0 -10    2.05    0.48
  -3   0 -10    1.49    0.44
  -3   0 -10    1.90    0.33
  -5  -1   7    4.79    1.43
  -5  -1   7    0.95    0.32
  -5  -1   7    0.85    0.34
   5   1  -7    1.21    0.61
   5   1  -7    1.90    1.02
   5   1  -7    1.03    0.36
   5   1  -7    0.94    0.32
   5   1  -7    0.47    0.38
  -2  -1   8    6.88    0.69
  -2  -1   8    6.60    0.77
  -2  -1   8    5.63    0.61
   2   1  -8    6.15    0.47
   2   1  -8    5.88    0.62
   2   1  -8    5.59    0.60
   2   1  -8    5.32    0.81
   1  -1   9    0.27    0.12
   1  -1   9    0.17    0.26
   1  -1   9   -0.21    0.23
   1  -1   9    0.07    0.32
   1  -1   9    0.17    0.19
  -1   1  -9   -0.14    0.25
  -1   1  -9    0.09    0.30
  -1   1  -9    0.22    0.19
   4  -1  10   -0.01    0.21
   4  -1  10    0.51    0.30
   4  -1  10   -0.06    0.18
   4  -1  10   -0.18    0.29
   4  -1  10   -0.21    0.16
  -4   1 -10    0.55    0.42
  -4   1 -10   -0.12    0.15
  -4   1 -10   -0.31    0.35
  -4  -2   7    0.17    0.26
  -4  -2   7    0.51    0.41
  -4  -2   7    1.16    0.47
  -4  -2   7    0.31    0.22
   4   2  -7   -0.09    0.21
   4   2  -7    0.24    0.25
   4   2  -7    0.42    0.39
   4   2  -7    0.07    0.37
   4   2  -7    0.24    0.51
  -1  -2   8    3.81    0.55
  -1  -2   8    5.53    0.79
  -1  -2   8    5.24    0.52
  -1  -2   8    5.64    0.64
   1   2  -8    4.50    0.56
   1   2  -8    4.42    0.81
   2  -2   9    5.74    0.54
   2  -2   9    5.74    0.59
   2  -2   9    5.02    0.43
   2  -2   9    4.78    0.57
   2  -2   9    5.69    0.75
  -2   2  -9    4.72    0.57
  -2   2  -9    4.38    0.64
  -2   2  -9    4.96    0.52
   5  -2  10    0.11    0.36
   5  -2  10    0.11    0.22
   5  -2  10    0.16    0.32
   5  -2  10   -0.23    0.27
  -5   2 -10    1.67    0.72
  -5   2 -10    0.13    0.43
  -5   2 -10   -0.01    0.23
  -6  -3   6    0.49    0.32
  -6  -3   6    2.30    0.51
  -6  -3   6    0.83    0.38
   6   3  -6    2.19    0.52
   6   3  -6   -0.02    0.33
   6   3  -6    1.45    0.60
   6   3  -6    1.41    0.78
   6   3  -6    2.20    0.71
  -3  -3   7    1.15    0.33
  -3  -3   7    1.39    0.42
  -3  -3   7    3.31    0.91
  -3  -3   7    1.63    0.40
  -3  -3   7    1.68    0.25
  -3  -3   7    2.66    0.69
   3   3  -7    2.47    0.89
   3   3  -7    2.96    0.69
   3   3  -7    1.21    0.26
   3   3  -7    1.31    0.33
   3   3  -7    2.38    0.73
   3   3  -7    1.56    0.37
   0  -3   8    9.65    0.85
   0  -3   8   10.58    0.54
   0  -3   8   10.39    0.78
   0  -3   8   10.80    0.97
   0  -3   8   10.79    0.53
   0   3  -8   10.93    0.73
   0   3  -8   11.06    1.18
   0   3  -8   10.71    0.89
   0   3  -8   10.64    0.76
   3  -3   9    0.65    0.25
   3  -3   9    1.38    0.45
   3  -3   9    0.69    0.27
  -3   3  -9    1.00    0.27
  -5  -4   6    0.24    0.26
  -5  -4   6    0.19    0.27
  -5  -4   6    0.97    0.63
   5   4  -6    1.03    0.59
   5   4  -6    1.00    0.71
   5   4  -6    0.49    0.26
   5   4  -6    0.15    0.26
   5   4  -6    0.88    0.59
  -2  -4   7    2.52    0.87
  -2  -4   7    0.99    0.21
  -2  -4   7    1.97    0.54
  -2  -4   7    0.81    0.31
  -2  -4   7    0.91    0.43
   2   4  -7    1.38    0.77
   2   4  -7    1.26    0.32
   2   4  -7    1.75    0.59
   2   4  -7    2.50    0.70
   1  -4   8    1.81    0.56
   1  -4   8    0.94    0.30
   1  -4   8    0.89    0.41
   1  -4   8    1.04    0.31
  -1   4  -8    0.93    0.27
  -1   4  -8    0.99    0.38
  -1   4  -8    0.57    0.27
   4  -4   9    0.17    0.33
   4  -4   9   -0.32    0.20
  -4   4  -9   -0.35    0.38
  -4   4  -9    1.01    0.56
  -4  -5   6    2.88    0.52
  -4  -5   6    3.12    0.50
  -4  -5   6    3.32    0.40
  -4  -5   6    3.52    0.43
  -4  -5   6    6.47    1.09
   4   5  -6    3.98    0.59
   4   5  -6    3.65    0.57
   4   5  -6    6.28    1.47
   4   5  -6    4.58    0.89
   4   5  -6    4.07    0.42
   4   5  -6    5.00    0.86
  -1  -5   7    8.83    1.01
  -1  -5   7    9.11    0.49
  -1  -5   7    8.67    0.72
  -1  -5   7    9.09    0.71
  -1  -5   7    9.31    0.94
  -1  -5   7    9.25    0.78
   1   5  -7    8.94    0.70
   1   5  -7   10.22    0.78
   1   5  -7    9.14    1.15
   2  -5   8   -0.07    0.27
   2  -5   8   -0.29    0.19
   2  -5   8    0.02    0.23
   2  -5   8   -0.11    0.32
  -2   5  -8    0.25    0.40
  -2   5  -8   -0.37    0.13
  -3  -6   6    6.28    0.57
  -3  -6   6    5.92    0.58
  -3  -6   6    6.15    0.70
  -3  -6   6    6.38    0.84
  -3  -6   6    4.96    0.63
   3   6  -6    6.53    1.03
   3   6  -6    5.49    0.55
   3   6  -6    5.67    0.75
   3   6  -6    6.59    0.58
   3   6  -6    6.00    0.69
   3   6  -6    6.00    0.65
   0  -6   7    0.40    0.28
   0  -6   7    0.68    0.55
   0  -6   7   -0.08    0.22
   0  -6   7    0.38    0.30
   0  -6   7   -0.17    0.29
   0   6  -7   -0.30    0.17
   0   6  -7    0.47    0.22
   0   6  -7    0.08    0.68
   0   6  -7    0.19    0.22
   3  -6   8    0.61    0.43
   3  -6   8   -0.13    0.21
   3  -6   8   -0.28    0.44
  -3   6  -8   -0.25    0.38
  -3   6  -8    0.05    0.45
  -2  -7   6    0.48    0.31
  -2  -7   6    0.23    0.22
  -2  -7   6   -0.30    0.53
  -2  -7   6    0.34    0.28
  -2  -7   6   -0.15    0.33
   2   7  -6    0.05    0.26
   2   7  -6    0.28    0.22
   2   7  -6    0.63    0.55
   2   7  -6    0.18    0.64
   1  -7   7   -0.16    0.27
   1  -7   7   -0.18    0.27
   1  -7   7    0.22    0.27
   1  -7   7    0.45    0.69
   1  -7   7   -0.27    0.24
   1  -7   7   -0.56    0.24
  -1   7  -7    0.20    0.31
  -1   7  -7   -0.44    0.68
  -1   7  -7   -0.57    0.27
  -1   7  -7   -0.14    0.29
  -4  -8   5    0.89    0.37
  -4  -8   5    0.37    0.22
  -4  -8   5    0.85    0.33
  -4  -8   5    0.00    0.31
  -4  -8   5   -0.64    0.39
   4   8  -5   -0.41    0.24
   4   8  -5    1.92    0.84
   4   8  -5    0.31    0.52
   4   8  -5    0.63    0.42
   4   8  -5    0.95    0.35
  -1  -8   6   -0.23    0.26
  -1  -8   6   -0.50    0.30
  -1  -8   6    0.28    0.32
   1   8  -6    0.19    0.18
   1   8  -6    0.25    0.74
   2  -8   7    0.17    0.29
   2  -8   7    0.07    0.36
   2  -8   7    0.52    0.35
   2  -8   7   -0.36    0.32
  -2   8  -7    0.16    0.32
  -3  -9   5    0.14    0.31
  -3  -9   5   -0.65    0.31
  -3  -9   5   -0.24    0.25
  -3  -9   5   -0.23    0.29
   3   9  -5    0.05    0.53
   3   9  -5   -0.40    0.20
   3   9  -5    0.18    0.55
   3   9  -5   -0.61    0.28
   0  -9   6    0.27    0.31
   0  -9   6    0.28    0.35
   0  -9   6    0.54    1.12
   0   9  -6    0.18    0.62
   0  11  13   -0.94    0.39
   0  11  13   -0.14    0.64
   0  11  13    0.64    0.41
   0  11  13    0.33    0.25
   0 -11 -13   -0.26    0.28
   0 -11 -13    0.20    0.22
  -2  10  12    0.67    0.24
  -2  10  12    1.18    0.38
  -2  10  12    0.75    0.32
  -2  10  12    0.22    0.28
   2 -10 -12   -0.29    0.32
   2 -10 -12    0.83    0.40
   1  10  13   -0.20    0.24
   1  10  13   -0.12    0.54
   1  10  13   -0.22    0.28
   1  10  13   -0.58    0.28
  -1 -10 -13   -0.54    0.20
  -1 -10 -13   -0.02    0.14
  -1 -10 -13    0.45    0.35
   4  -9 -11    1.27    0.75
  -1   9  12    0.79    0.29
  -1   9  12    0.33    0.33
  -1   9  12    0.67    0.27
  -1   9  12    0.86    0.40
   1  -9 -12    0.39    0.24
   1  -9 -12    1.47    0.40
   2   9  13   -0.03    0.41
   2   9  13    0.48    0.29
   2   9  13    0.06    0.52
   2   9  13   -0.24    0.44
  -2  -9 -13    0.24    0.38
  -2  -9 -13   -0.38    0.21
  -3   8  11    3.84    0.49
  -3   8  11    1.86    0.40
   3  -8 -11    1.57    0.43
   3  -8 -11    2.45    0.45
   3  -8 -11    3.78    1.14
   3  -8 -11    2.63    0.56
   0   8  12   -0.30    0.29
   0   8  12    0.03    0.18
   0   8  12   -0.02    0.29
   0   8  12    0.07    0.24
   0  -8 -12   -0.01    0.15
   0  -8 -12   -0.03    0.23
   0  -8 -12    0.02    0.20
   0  -8 -12    0.01    0.21
   0  -8 -12    0.04    0.32
   3   8  13   -0.10    0.22
   3   8  13    0.05    0.45
   3   8  13    0.03    0.33
   3   8  13    0.29    0.42
   3   8  13    0.15    0.33
  -3  -8 -13    1.26    0.40
  -3  -8 -13   -0.12    0.25
  -2   7  11    0.89    0.29
  -2   7  11    0.70    0.32
  -2   7  11    1.20    0.35
   2  -7 -11    0.56    0.27
   2  -7 -11    0.21    0.22
   1   7  12    0.90    0.19
   1   7  12    1.23    0.48
   1   7  12    1.13    0.39
   1   7  12    1.78    0.40
  -1  -7 -12    1.29    0.26
  -1  -7 -12    0.96    0.35
  -1  -7 -12    1.21    0.41
   4   7  13   -0.11    0.33
   4   7  13    0.64    0.40
   4   7  13    0.00    0.33
   4   7  13    0.02    0.41
   4   7  13    0.44    0.30
  -4  -7 -13    0.08    0.30
  -4  -7 -13    0.09    0.33
  -4   6  10   -0.10    0.21
  -4   6  10   -0.17    0.25
   4  -6 -10    0.11    0.24
   4  -6 -10   -0.14    0.49
   4  -6 -10   -0.31    0.18
  -1   6  11    0.46    0.31
  -1   6  11   -0.01    0.17
  -1   6  11    0.05    0.26
   1  -6 -11    0.30    0.21
   1  -6 -11    0.04    0.23
   1  -6 -11    0.00    0.15
   2   6  12    2.34    0.72
   2   6  12    3.94    0.80
   2   6  12    1.70    0.46
   2   6  12    2.86    0.77
  -2  -6 -12    2.94    0.54
  -2  -6 -12    2.10    0.35
  -2  -6 -12    1.77    0.40
  -2  -6 -12    1.49    0.36
  -2  -6 -12    3.06    0.51
  -6   5   9    0.46    0.36
  -6   5   9    0.09    0.22
   6  -5  -9    0.07    0.20
   6  -5  -9    0.60    0.61
   6  -5  -9    0.77    0.34
   6  -5  -9    0.23    0.33
   6  -5  -9   -0.26    0.32
  -3   5  10    4.15    0.55
  -3   5  10    6.80    1.23
  -3   5  10    2.21    0.38
   3  -5 -10    3.56    0.42
   3  -5 -10    3.46    0.55
   0   5  11    0.22    0.32
   0   5  11    0.23    0.32
   0   5  11    0.21    0.19
   0  -5 -11    0.71    0.28
   0  -5 -11    0.47    0.28
   0  -5 -11    0.18    0.12
   3   5  12    1.84    0.45
   3   5  12    3.65    0.67
   3   5  12    2.64    0.58
   3   5  12    1.57    0.44
   3   5  12    2.82    0.42
  -3  -5 -12    2.80    0.53
  -3  -5 -12    2.19    0.47
  -3  -5 -12    1.66    0.38
  -5   4   9    0.69    0.30
   5  -4  -9    0.55    0.54
  -2   4  10    2.05    0.34
  -2   4  10    2.74    0.47
  -2   4  10    4.02    0.97
  -2   4  10    1.83    0.40
  -2   4  10    2.16    0.44
   2  -4 -10    3.41    0.75
   2  -4 -10    2.70    0.36
   2  -4 -10    2.08    0.42
   1   4  11   -0.11    0.27
   1   4  11    0.08    0.12
   1   4  11    0.05    0.32
  -1  -4 -11   -0.12    0.21
  -1  -4 -11    0.35    0.26
  -1  -4 -11   -0.03    0.13
  -1  -4 -11    0.30    0.43
   4   4  12    2.73    0.61
   4   4  12    1.69    0.48
   4   4  12    3.73    0.64
  -4  -4 -12    2.75    0.56
  -4  -4 -12    1.75    0.35
  -4  -4 -12    1.88    0.51
  -4   3   9    3.54    1.11
  -4   3   9    1.12    0.32
  -4   3   9    1.57    0.41
   4  -3  -9    2.57    0.97
   4  -3  -9    1.81    0.26
   4  -3  -9    0.91    0.35
   4  -3  -9    1.69    0.25
  -1   3  10    2.41    0.45
  -1   3  10    2.00    0.31
  -1   3  10    2.84    0.52
   1  -3 -10    3.69    0.72
   1  -3 -10    2.57    0.32
   1  -3 -10    1.97    0.37
   1  -3 -10    3.40    0.44
   2   3  11    3.48    0.53
   2   3  11    4.12    0.48
   2   3  11    4.84    0.75
  -2  -3 -11    4.64    0.54
  -2  -3 -11    3.43    0.55
  -2  -3 -11    4.63    0.55
   5   3  12    0.57    0.37
   5   3  12    0.40    0.32
   5   3  12    0.86    0.45
  -5  -3 -12    0.48    0.41
  -5  -3 -12    0.41    0.21
  -6   2   8    0.42    0.45
  -6   2   8    0.42    0.29
  -6   2   8    0.32    0.28
   6  -2  -8   -0.22    0.17
   6  -2  -8   -0.01    0.24
   6  -2  -8    0.52    0.42
   6  -2  -8    0.11    0.20
  -3   2   9   -0.14    0.23
  -3   2   9    0.13    0.18
  -3   2   9    0.97    0.69
   3  -2  -9    0.35    0.21
   3  -2  -9    0.33    0.24
   3  -2  -9    0.61    0.17
   3  -2  -9    0.94    0.60
   3  -2  -9   -0.08    0.41
   0   2  10   14.30    0.85
   0   2  10   15.53    0.75
   0   2  10   12.63    0.94
   0  -2 -10   14.74    1.04
   0  -2 -10   14.51    0.84
   0  -2 -10   14.13    0.65
   3   2  11    0.08    0.32
   3   2  11    0.12    0.23
   3   2  11    0.41    0.36
   3   2  11   -0.16    0.14
  -3  -2 -11   -0.08    0.18
  -3  -2 -11    0.34    0.28
  -3  -2 -11    0.16    0.32
  -5   1   8    0.73    0.32
  -5   1   8    0.62    0.30
   5  -1  -8    1.81    0.70
   5  -1  -8    1.12    0.38
   5  -1  -8    0.71    0.29
   5  -1  -8    1.40    0.28
  -2   1   9    1.06    0.28
  -2   1   9    1.12    0.36
  -2   1   9    0.83    0.33
   2  -1  -9    1.95    0.42
   2  -1  -9    1.37    0.55
   2  -1  -9    0.52    0.21
   2  -1  -9    1.28    0.29
   1   1  10    6.78    0.78
   1   1  10    5.11    0.48
   1   1  10    5.37    0.47
   1   1  10    5.82    0.61
  -1  -1 -10    4.01    0.54
  -1  -1 -10    5.25    0.55
  -1  -1 -10    5.47    0.55
  -1  -1 -10    5.69    0.49
  -1  -1 -10    5.31    0.84
   4   1  11    5.35    0.65
   4   1  11    4.54    0.51
   4   1  11    4.72    0.94
   4   1  11    3.89    0.33
  -4  -1 -11    2.31    0.51
  -4  -1 -11    3.50    0.42
  -4   0   8    1.93    0.39
  -4   0   8    1.43    0.30
  -4   0   8    3.08    1.01
   4   0  -8    1.45    0.33
   4   0  -8    2.61    0.81
   4   0  -8    2.25    0.58
   4   0  -8    2.50    0.82
  -1   0   9    1.11    0.33
  -1   0   9    0.73    0.22
  -1   0   9    1.09    0.39
   1   0  -9    1.93    0.68
   1   0  -9    0.74    0.24
   1   0  -9    0.75    0.30
   2   0  10    0.17    0.12
   2   0  10    0.39    0.27
   2   0  10    0.21    0.22
   2   0  10   -0.04    0.23
  -2   0 -10    0.29    0.25
  -2   0 -10   -0.02    0.25
  -2   0 -10   -0.01    0.17
  -2   0 -10    0.17    0.33
   5   0  11    0.49    0.35
   5   0  11    0.44    0.22
   5   0  11    1.38    0.49
   5   0  11    0.17    0.17
  -5   0 -11   -0.01    0.20
  -5   0 -11   -0.44    0.35
  -6  -1   7    0.39    0.30
  -6  -1   7    0.05    0.29
  -6  -1   7    0.26    0.30
   6   1  -7    0.49    0.32
   6   1  -7    0.86    0.58
   6   1  -7    0.77    0.38
  -3  -1   8    1.08    0.39
  -3  -1   8    1.28    0.34
  -3  -1   8    1.24    0.32
  -3  -1   8    2.37    1.11
   3   1  -8    2.14    0.55
   3   1  -8    2.09    0.39
   3   1  -8    2.48    0.73
   3   1  -8    1.77    0.28
   3   1  -8    1.31    0.59
   0  -1   9    0.34    0.17
   0  -1   9    0.36    0.22
   0  -1   9   -0.01    0.39
   0  -1   9    0.12    0.22
   0  -1   9    0.00    0.29
   0   1  -9    0.06    0.53
   0   1  -9    0.11    0.17
   0   1  -9    0.43    0.22
   3  -1  10    1.29    0.25
   3  -1  10    1.68    0.34
   3  -1  10    2.43    0.48
   3  -1  10    0.91    0.26
  -3   1 -10    1.42    0.29
  -3   1 -10    1.73    0.46
  -5  -2   7    5.04    0.94
  -5  -2   7    1.49    0.46
   5   2  -7    2.80    0.57
   5   2  -7    3.17    0.72
   5   2  -7    2.29    0.81
   5   2  -7    2.95    0.97
  -2  -2   8   12.22    1.11
  -2  -2   8   11.06    0.83
  -2  -2   8   11.12    0.84
  -2  -2   8   11.84    0.96
  -2  -2   8   11.36    1.19
   2   2  -8   10.95    0.79
   2   2  -8   11.26    0.63
   2   2  -8   10.41    1.09
   2   2  -8   10.63    0.80
   1  -2   9    1.45    0.34
   1  -2   9    2.98    0.60
   1  -2   9    1.95    0.36
   1  -2   9    1.48    0.40
  -1   2  -9    1.52    0.42
  -1   2  -9    1.17    0.30
  -1   2  -9    1.34    0.30
   4  -2  10    0.31    0.22
   4  -2  10   -0.22    0.18
   4  -2  10    0.30    0.50
  -4   2 -10   -0.40    0.29
  -4   2 -10    1.76    0.63
  -4   2 -10   -0.01    0.17
  -4   2 -10   -0.48    0.24
  -4  -3   7    0.21    0.41
  -4  -3   7   -0.02    0.19
  -4  -3   7    1.16    1.61
  -4  -3   7    0.27    0.49
  -4  -3   7    0.03    0.30
   4   3  -7   -0.19    0.49
   4   3  -7    0.07    0.41
   4   3  -7    0.29    0.24
   4   3  -7    0.90    0.44
  -1  -3   8   19.74    1.28
  -1  -3   8   19.68    1.05
  -1  -3   8   18.63    1.16
  -1  -3   8   18.52    0.90
   1   3  -8   20.16    1.02
   1   3  -8   18.56    1.45
   1   3  -8   17.79    0.89
   2  -3   9    2.80    0.42
   2  -3   9    3.78    0.56
   2  -3   9    2.30    0.39
   2  -3   9    2.83    0.41
   2  -3   9    2.61    0.53
  -2   3  -9    1.94    0.50
  -2   3  -9    3.06    0.56
  -2   3  -9    2.66    0.44
   5  -3  10    0.66    0.47
   5  -3  10    1.04    0.44
   5  -3  10    0.75    0.27
   5  -3  10    0.33    0.24
   5  -3  10    0.20    0.28
  -5   3 -10    0.91    0.32
  -5   3 -10    2.23    1.02
  -5   3 -10   -0.09    0.41
  -3  -4   7    1.08    0.36
  -3  -4   7    0.41    0.18
  -3  -4   7    0.94    0.33
  -3  -4   7    0.66    0.33
  -3  -4   7    1.19    0.51
   3   4  -7    1.24    0.44
   3   4  -7    0.58    0.22
   3   4  -7    0.18    0.48
   3   4  -7    1.12    0.51
   3   4  -7    0.33    0.21
   0  -4   8    0.58    0.28
   0  -4   8    0.95    0.27
   0  -4   8    0.60    0.31
   0  -4   8    2.13    0.68
   0   4  -8    2.01    0.92
   0   4  -8    0.28    0.23
   0   4  -8    0.61    0.24
   3  -4   9    1.27    0.47
   3  -4   9    1.32    0.40
   3  -4   9    0.20    0.24
   3  -4   9    0.87    0.31
  -3   4  -9    0.89    0.45
  -3   4  -9    0.92    0.28
  -3   4  -9    2.25    0.67
  -5  -5   6    0.25    0.29
  -5  -5   6    0.12    0.33
   5   5  -6    0.86    0.91
   5   5  -6    1.09    0.50
   5   5  -6    0.79    0.53
   5   5  -6    0.39    0.29
  -2  -5   7    1.46    0.35
  -2  -5   7    0.36    0.38
  -2  -5   7    0.58    0.32
  -2  -5   7    1.70    0.57
  -2  -5   7    2.73    0.90
  -2  -5   7    0.86    0.21
   2   5  -7    1.91    0.56
   2   5  -7    1.21    0.33
   2   5  -7    0.74    0.56
   2   5  -7    1.59    0.68
   2   5  -7    0.85    0.31
   1  -5   8    0.08    0.21
   1  -5   8    0.60    0.59
   1  -5   8   -0.20    0.22
   1  -5   8   -0.30    0.23
  -1   5  -8    0.10    0.23
  -1   5  -8   -0.05    0.19
  -1   5  -8   -0.13    0.29
   4  -5   9    0.22    0.24
   4  -5   9    0.06    0.31
  -4   5  -9   -0.55    0.34
  -4   5  -9   -0.14    0.20
  -4   5  -9   -0.06    0.43
  -4  -6   6    2.16    0.55
  -4  -6   6    1.22    0.39
  -4  -6   6    2.03    0.37
  -4  -6   6    1.97    0.42
  -4  -6   6    3.18    0.85
  -4  -6   6    1.11    0.44
   4   6  -6    3.17    0.70
   4   6  -6    3.22    0.73
   4   6  -6    2.56    0.89
   4   6  -6    1.74    0.36
   4   6  -6    1.69    0.35
  -1  -6   7    2.06    0.42
  -1  -6   7    1.97    0.35
  -1  -6   7    1.13    0.46
  -1  -6   7    5.12    1.31
  -1  -6   7    1.33    0.47
   1   6  -7    2.27    0.35
   1   6  -7    4.41    1.11
   1   6  -7    3.42    0.63
   1   6  -7    2.21    0.49
   1   6  -7    2.30    0.48
   2  -6   8   -0.47    0.25
   2  -6   8    0.05    0.27
   2  -6   8   -0.22    0.24
  -2   6  -8   -0.06    0.34
  -3  -7   6   -0.27    0.37
  -3  -7   6   -0.16    0.22
  -3  -7   6   -0.20    0.27
  -3  -7   6    0.16    0.47
  -3  -7   6    0.82    0.39
   3   7  -6   -0.03    0.37
   3   7  -6   -0.51    0.21
   3   7  -6    0.63    0.51
   3   7  -6   -0.45    0.18
   3   7  -6   -0.01    0.43
   0  -7   7    1.18    0.80
   0  -7   7    0.45    0.32
   0  -7   7    0.28    0.29
   0  -7   7    0.68    0.32
   0  -7   7   -0.14    0.31
   0   7  -7    0.44    0.34
   0   7  -7   -0.18    0.32
   0   7  -7    0.92    0.83
   3  -7   8    0.08    0.36
   3  -7   8    0.60    0.31
  -3   7  -8    0.74    0.48
  -3   7  -8    0.21    0.47
  -2  -8   6   -0.10    0.21
  -2  -8   6    0.44    0.47
  -2  -8   6   -0.08    0.27
  -2  -8   6   -0.81    0.30
   2   8  -6    0.29    0.49
   2   8  -6    0.21    0.20
   2   8  -6    0.22    0.28
   2   8  -6   -0.53    0.34
   1  -8   7   -0.30    0.31
   1  -8   7   -0.13    1.05
   1  -8   7   -0.02    0.33
   1  -8   7    0.45    0.31
   1  -8   7   -0.28    0.29
  -1   8  -7    0.46    0.34
  -1   8  -7    0.62    0.98
  -1  -9   6    0.55    0.38
  -1  -9   6    0.29    0.36
   1   9  -6    0.68    0.23
   1   9  -6    0.94    0.65
  -1  11  13    0.27    0.24
  -1  11  13   -0.06    0.33
  -1  11  13   -0.29    0.23
   1 -11 -13   -0.68    0.27
   1 -11 -13   -0.12    0.23
   3 -10 -12   -0.45    0.62
   3 -10 -12   -0.31    0.35
   0  10  13    0.91    0.87
   0  10  13   -0.02    0.35
   0  10  13    0.11    0.20
   0  10  13    0.48    0.29
   0  10  13   -0.21    0.34
   0 -10 -13   -0.14    0.19
   0 -10 -13   -0.48    0.35
   0 -10 -13    0.26    0.29
   0 -10 -13   -0.25    0.21
  -2   9  12    0.25    0.32
  -2   9  12   -0.10    0.27
  -2   9  12   -0.18    0.19
  -2   9  12   -0.20    0.20
   2  -9 -12   -0.08    0.23
   2  -9 -12    0.01    0.26
   1   9  13    0.07    0.38
   1   9  13    1.31    0.47
   1   9  13    1.58    0.82
   1   9  13    2.05    0.57
  -1  -9 -13    1.46    0.52
  -1  -9 -13    0.49    0.28
  -1  -9 -13    1.46    0.45
  -4   8  11    0.19    0.26
  -4   8  11    0.34    0.31
   4  -8 -11    0.53    0.30
   4  -8 -11    0.89    0.75
  -1   8  12    0.05    0.29
  -1   8  12    0.08    0.32
  -1   8  12    0.19    0.22
   1  -8 -12    0.24    0.20
   1  -8 -12    0.41    0.31
   2   8  13   -0.12    0.33
   2   8  13   -0.27    0.24
   2   8  13   -0.67    0.31
   2   8  13    0.31    0.52
   2   8  13   -0.08    0.47
  -2  -8 -13    0.04    0.29
  -2  -8 -13    0.00    0.22
  -2  -8 -13    0.11    0.29
  -2  -8 -13   -0.14    0.28
  -2  -8 -13    0.11    0.38
  -3   7  11    2.16    0.40
  -3   7  11    3.74    0.54
   3  -7 -11    2.80    0.44
   3  -7 -11    3.69    0.50
   3  -7 -11    2.80    0.54
   0   7  12    1.06    0.38
   0   7  12    0.73    0.23
   0   7  12    0.70    0.36
   0  -7 -12    0.85    0.35
   0  -7 -12    0.45    0.19
   0  -7 -12    1.10    0.40
   0  -7 -12    0.62    0.29
   3   7  13    1.28    0.45
   3   7  13    3.39    0.82
   3   7  13    1.66    0.50
   3   7  13    1.95    0.54
   3   7  13    3.09    0.73
  -3  -7 -13    2.51    0.54
  -3  -7 -13    0.80    0.32
  -3  -7 -13    2.68    0.57
  -3  -7 -13    1.87    0.44
  -3  -7 -13    1.02    0.36
   5  -6 -10    1.59    0.78
  -2   6  11    0.06    0.29
  -2   6  11    0.20    0.28
  -2   6  11   -0.10    0.17
   2  -6 -11   -0.13    0.18
   2  -6 -11   -0.31    0.18
   2  -6 -11   -0.34    0.15
   1   6  12   17.02    1.14
   1   6  12   16.30    0.61
   1   6  12   17.80    1.10
  -1  -6 -12   17.09    1.01
  -1  -6 -12   16.89    0.97
  -1  -6 -12   16.47    0.76
   4   6  13    0.41    0.42
   4   6  13    1.03    0.43
   4   6  13    0.66    0.41
   4   6  13    0.19    0.42
  -4  -6 -13    0.57    0.36
  -4  -6 -13   -0.30    0.22
  -4  -6 -13    1.64    0.47
  -4   5  10    1.10    0.35
  -4   5  10    0.68    0.28
   4  -5 -10    2.23    0.78
   4  -5 -10    0.91    0.25
   4  -5 -10    0.59    0.27
  -1   5  11    0.07    0.18
  -1   5  11    0.12    0.28
  -1   5  11    0.15    0.30
   1  -5 -11    0.31    0.25
   1  -5 -11    0.28    0.40
   2   5  12    1.59    0.50
   2   5  12    2.47    0.66
   2   5  12    2.26    0.60
   2   5  12    1.05    0.37
  -2  -5 -12    1.51    0.29
  -2  -5 -12    2.61    0.53
  -2  -5 -12    1.53    0.41
  -2  -5 -12    1.15    0.33
   5   5  13    0.61    0.39
   5   5  13    0.03    0.41
  -5  -5 -13    0.26    0.47
  -5  -5 -13    0.45    0.25
  -5  -5 -13    2.08    0.51
  -6   4   9    0.40    0.34
  -6   4   9    0.77    0.30
   6  -4  -9    0.17    0.55
   6  -4  -9    0.33    0.23
   6  -4  -9    1.43    0.36
   6  -4  -9    1.24    0.47
   6  -4  -9    0.28    0.36
  -3   4  10    4.11    1.03
  -3   4  10    3.84    0.57
  -3   4  10    2.57    0.47
  -3   4  10    1.46    0.32
   3  -4 -10    2.69    0.30
   3  -4 -10    2.28    0.45
   0   4  11   -0.08    0.29
   0   4  11   -0.17    0.20
   0   4  11   -0.09    0.13
   0   4  11   -0.33    0.30
   0  -4 -11    0.29    0.35
   0  -4 -11    0.15    0.23
   0  -4 -11    0.60    0.29
   3   4  12    0.50    0.33
   3   4  12   -0.15    0.29
   3   4  12    0.32    0.32
  -3  -4 -12    0.25    0.22
  -3  -4 -12    0.25    0.30
  -3  -4 -12    0.03    0.34
  -5   3   9    0.02    0.23
  -5   3   9    0.20    0.31
   5  -3  -9   -0.08    0.16
   5  -3  -9    0.24    0.53
   5  -3  -9   -0.15    0.14
  -2   3  10   12.53    0.89
  -2   3  10   14.01    0.95
  -2   3  10   13.81    0.86
   2  -3 -10   13.20    0.89
   2  -3 -10   12.91    0.61
   2  -3 -10   12.33    0.52
   2  -3 -10   13.29    1.00
   1   3  11    2.77    0.47
   1   3  11    2.99    0.35
   1   3  11    2.62    0.43
   1   3  11    4.76    0.72
  -1  -3 -11    3.60    0.66
  -1  -3 -11    3.35    0.49
  -1  -3 -11    3.62    0.47
  -1  -3 -11    2.42    0.48
   4   3  12    0.25    0.22
   4   3  12    0.56    0.37
   4   3  12    0.85    0.39
  -4  -3 -12    0.29    0.41
  -4  -3 -12    0.22    0.20
  -4  -3 -12    0.02    0.41
  -4   2   9    0.07    0.21
  -4   2   9    0.57    0.79
  -4   2   9   -0.14    0.23
   4  -2  -9    0.10    0.43
   4  -2  -9   -0.17    0.18
   4  -2  -9   -0.08    0.41
   4  -2  -9   -0.14    0.12
  -1   2  10    0.70    0.30
  -1   2  10    0.84    0.25
  -1   2  10    0.61    0.35
   1  -2 -10    0.99    0.21
   1  -2 -10    1.16    0.53
   1  -2 -10    0.78    0.29
   2   2  11    8.52    0.65
   2   2  11    8.31    0.47
   2   2  11    8.60    0.80
   2   2  11    9.02    0.69
   2   2  11    8.79    0.53
   2   2  11    8.13    0.88
  -2  -2 -11    8.63    0.66
  -2  -2 -11    7.35    0.63
  -2  -2 -11    8.71    0.92
   5   2  12    0.63    0.41
   5   2  12    0.31    0.35
   5   2  12    0.58    0.39
   5   2  12    0.51    0.27
  -5  -2 -12    0.53    0.39
  -5  -2 -12    0.85    0.25
  -6   1   8    0.21    0.27
  -6   1   8    0.07    0.28
  -6   1   8   -0.07    0.26
   6  -1  -8    0.28    0.47
   6  -1  -8    0.13    0.19
   6  -1  -8    0.04    0.28
   6  -1  -8   -0.08    0.24
  -3   1   9    0.68    0.72
  -3   1   9    0.09    0.15
  -3   1   9    0.37    0.26
   3  -1  -9    0.08    0.44
   3  -1  -9   -0.05    0.19
   3  -1  -9   -0.02    0.51
   3  -1  -9    0.23    0.30
   3  -1  -9    0.20    0.15
   0   1  10    1.87    0.29
   0   1  10    1.90    0.42
   0   1  10    1.91    0.38
   0  -1 -10    4.11    0.90
   0  -1 -10    2.50    0.33
   0  -1 -10    1.89    0.35
   0  -1 -10    2.55    0.41
   3   1  11    1.86    0.33
   3   1  11    1.16    0.34
   3   1  11    3.30    0.67
   3   1  11    1.41    0.22
   3   1  11    2.93    0.51
   3   1  11    2.32    0.33
  -3  -1 -11    2.32    0.48
  -3  -1 -11    1.67    0.30
  -3  -1 -11    1.91    0.49
  -5   0   8   -0.09    0.33
  -5   0   8   -0.07    0.22
   5   0  -8    0.15    0.35
   5   0  -8    0.83    0.61
   5   0  -8    0.51    0.51
  -2   0   9    2.01    0.43
  -2   0   9    1.56    0.37
  -2   0   9    2.24    0.35
   2   0  -9    4.11    0.94
   2   0  -9    3.39    0.37
   2   0  -9    3.93    0.62
   2   0  -9    2.69    0.47
   1   0  10    8.56    0.56
   1   0  10    8.29    0.68
   1   0  10    9.07    0.69
   1   0  10    7.63    0.84
  -1   0 -10    7.63    0.99
  -1   0 -10    7.29    0.62
  -1   0 -10    7.21    0.61
  -1   0 -10    8.15    0.87
   4   0  11    0.47    0.56
   4   0  11    0.23    0.20
   4   0  11   -0.18    0.13
   4   0  11    0.31    0.39
   4   0  11   -0.11    0.20
   4   0  11   -0.10    0.31
  -4   0 -11    0.12    0.36
  -4   0 -11    0.13    0.17
  -4  -1   8    0.89    0.33
  -4  -1   8    1.22    0.37
   4   1  -8    1.49    0.39
   4   1  -8    2.03    0.69
   4   1  -8    1.33    0.53
   4   1  -8    1.68    0.72
  -1  -1   9    3.28    0.52
  -1  -1   9    3.18    0.58
  -1  -1   9    2.15    0.32
   1   1  -9    3.24    0.45
   1   1  -9    3.92    0.57
   2  -1  10    0.00    0.21
   2  -1  10    0.34    0.20
   2  -1  10   -0.03    0.18
   2  -1  10   -0.28    0.18
  -2   1 -10    0.32    0.31
  -2   1 -10    0.00    0.24
  -2   1 -10    0.12    0.18
   5  -1  11   -0.29    0.18
   5  -1  11   -0.24    0.29
   5  -1  11   -0.73    0.26
   5  -1  11    0.09    0.37
  -5   1 -11   -0.42    0.41
  -5   1 -11   -0.29    0.16
  -5   1 -11    0.32    0.27
  -6  -2   7    0.03    0.26
  -6  -2   7    0.82    0.34
   6   2  -7    0.76    0.42
   6   2  -7    1.28    0.72
   6   2  -7    1.11    0.54
   6   2  -7    1.16    0.59
  -3  -2   8    1.94    0.43
  -3  -2   8    3.29    0.67
  -3  -2   8    2.16    0.38
  -3  -2   8    1.96    0.43
   3   2  -8    2.78    0.37
   3   2  -8    3.79    0.74
   3   2  -8    1.39    0.32
   3   2  -8    3.78    0.88
   3   2  -8    3.70    0.93
   0  -2   9   -0.10    0.22
   0  -2   9    0.08    0.15
   0  -2   9   -0.30    0.27
   0  -2   9   -0.27    0.39
   0   2  -9   -0.17    0.54
   0   2  -9    0.17    0.21
   0   2  -9   -0.07    0.17
   3  -2  10    0.87    0.23
   3  -2  10    0.63    0.27
   3  -2  10    0.70    0.27
   3  -2  10    1.43    0.41
  -3   2 -10    0.72    0.38
  -3   2 -10    1.10    0.28
  -5  -3   7    0.37    0.54
  -5  -3   7   -0.22    0.22
  -5  -3   7    0.15    0.20
   5   3  -7   -0.15    0.23
   5   3  -7   -0.23    0.24
   5   3  -7    0.06    0.62
   5   3  -7   -0.03    0.30
   5   3  -7    0.29    0.49
  -2  -3   8   17.30    1.20
  -2  -3   8   17.96    1.05
  -2  -3   8   16.43    0.96
  -2  -3   8   20.22    1.37
   2   3  -8   16.89    1.11
   2   3  -8   16.57    1.41
   2   3  -8   17.08    1.07
   2   3  -8   16.34    0.82
   1  -3   9    6.13    0.66
   1  -3   9    5.81    0.60
   1  -3   9    6.18    0.50
   1  -3   9    4.17    0.57
  -1   3  -9    5.08    0.58
  -1   3  -9    4.82    0.68
  -1   3  -9    5.25    0.57
   4  -3  10   -0.26    0.20
   4  -3  10    0.24    0.32
   4  -3  10   -0.45    0.17
   4  -3  10   -0.15    0.18
  -4   3 -10   -0.27    0.21
  -4   3 -10    0.08    0.20
  -4   3 -10   -0.32    0.28
  -4  -4   7    0.19    0.37
  -4  -4   7    0.10    0.24
  -4  -4   7    1.43    0.53
  -4  -4   7   -0.18    0.26
   4   4  -7   -0.14    0.16
   4   4  -7    0.08    0.40
   4   4  -7    0.97    0.76
   4   4  -7    0.04    0.28
   4   4  -7   -0.43    0.32
   4   4  -7    0.43    0.41
  -1  -4   8    4.47    0.29
  -1  -4   8    4.49    0.35
  -1  -4   8    3.43    0.52
  -1  -4   8    5.28    0.86
  -1  -4   8    2.79    0.49
  -1  -4   8    4.78    0.54
   1   4  -8    4.68    1.01
   1   4  -8    3.95    0.50
   1   4  -8    4.86    0.58
   2  -4   9    6.34    0.66
   2  -4   9    8.41    0.70
   2  -4   9    7.85    0.65
   2  -4   9    6.95    0.75
   2  -4   9    6.95    0.86
  -2   4  -9    7.09    0.63
  -3  -5   7    5.06    0.84
  -3  -5   7    3.68    0.59
  -3  -5   7    4.27    0.45
  -3  -5   7    3.57    0.63
   3   5  -7    6.08    1.39
   3   5  -7    4.38    0.60
   3   5  -7    3.95    0.48
   3   5  -7    4.58    0.85
   3   5  -7    4.32    0.59
   3   5  -7    4.47    0.67
   0  -5   8    7.41    0.86
   0  -5   8    4.28    0.63
   0  -5   8    5.75    0.47
   0  -5   8    5.26    0.65
   0   5  -8    7.50    1.50
   0   5  -8    4.95    0.64
   0   5  -8    5.04    0.59
   3  -5   9    0.45    0.39
   3  -5   9    1.21    0.44
   3  -5   9    0.58    0.26
  -3   5  -9    1.17    0.28
  -3   5  -9    1.63    0.60
  -3   5  -9    1.18    0.54
  -5  -6   6    1.90    0.43
  -2  -6   7    2.50    0.56
  -2  -6   7    2.91    0.46
  -2  -6   7    4.66    0.84
  -2  -6   7    3.21    0.55
   2   6  -7    3.89    0.46
   2   6  -7    3.13    0.48
   2   6  -7    5.98    1.36
   2   6  -7    5.36    0.99
   2   6  -7    2.31    0.41
   1  -6   8    0.26    0.57
   1  -6   8   -0.37    0.26
   1  -6   8    0.20    0.28
   1  -6   8   -0.44    0.23
  -1   6  -8   -0.47    0.71
  -1   6  -8    0.28    0.37
  -1   6  -8    0.27    0.31
   4  -6   9    0.19    0.38
  -4  -7   6    0.63    0.28
  -4  -7   6    0.05    0.25
  -4  -7   6   -0.10    0.25
  -4  -7   6    0.25    0.30
  -4  -7   6   -0.87    0.44
   4   7  -6   -0.09    0.23
   4   7  -6   -0.10    0.31
   4   7  -6   -0.45    0.22
   4   7  -6   -0.46    0.48
   4   7  -6    1.13    0.69
  -1  -7   7    1.13    0.43
  -1  -7   7    1.27    0.42
  -1  -7   7    2.20    0.39
  -1  -7   7    2.43    0.49
   1   7  -7    1.85    0.33
   1   7  -7    3.24    0.53
   1   7  -7    3.04    1.02
   2  -7   8   -0.06    0.27
   2  -7   8   -0.58    0.27
  -2   7  -8    0.73    0.39
  -2   7  -8   -0.19    0.33
  -3  -8   6    0.27    0.31
  -3  -8   6   -0.61    0.39
  -3  -8   6   -0.18    0.19
  -3  -8   6   -0.05    0.32
  -3  -8   6   -0.46    0.21
   3   8  -6   -0.09    0.23
   3   8  -6    0.53    0.50
   3   8  -6   -0.24    0.30
   3   8  -6   -0.23    0.28
   3   8  -6    0.13    0.46
   0  -8   7    0.35    0.34
   0  -8   7    0.16    0.36
   0  -8   7   -0.42    0.28
   0   8  -7   -0.16    0.60
  -2  -9   6    1.24    0.41
  -2  -9   6    0.80    0.42
  -2  -9   6    0.73    0.29
   2   9  -6    0.44    0.30
   2   9  -6    1.64    0.73
   2   9  -6   -0.78    0.51
   1  -9   7   -0.34    0.35
   1  -9   7    0.09    0.32
  -1   9  -7    0.19    0.34
  -1   9  -7   -0.16    0.82
  -1  10  13    0.00    0.24
  -1  10  13   -0.03    0.24
  -1  10  13   -0.62    0.33
  -1  10  13   -0.43    0.26
   1 -10 -13   -0.04    0.33
   1 -10 -13   -0.02    0.21
   2  10  14   -0.43    0.36
   2  10  14    1.12    0.65
   2  10  14    0.31    0.33
   2  10  14    0.24    0.41
   2  10  14    0.22    0.56
  -2 -10 -14    0.86    0.36
  -3   9  12   -0.10    0.18
  -3   9  12    0.34    0.27
  -3   9  12   -0.08    0.28
   3  -9 -12    0.40    0.31
   3  -9 -12    0.36    0.28
   0   9  13    0.81    0.27
   0   9  13   -0.02    0.42
   0   9  13    1.56    0.51
   0   9  13    1.44    0.42
   0  -9 -13    0.68    0.29
   0  -9 -13    0.97    0.41
   0  -9 -13    1.51    0.39
   3   9  14    0.73    0.45
   3   9  14    0.47    0.45
   3   9  14   -0.09    0.33
   3   9  14   -0.51    0.33
   3   9  14    0.58    0.53
  -3  -9 -14   -0.02    0.33
  -3  -9 -14    0.19    0.40
  -3  -9 -14   -0.59    0.26
  -2   8  12    1.43    0.42
  -2   8  12    0.69    0.35
  -2   8  12    0.34    0.26
   2  -8 -12    0.88    0.35
   2  -8 -12    0.78    0.26
   1   8  13    9.18    0.88
   1   8  13    6.47    0.73
   1   8  13    8.05    1.00
   1   8  13    7.19    0.72
   1   8  13    7.53    0.45
  -1  -8 -13    6.69    0.75
  -1  -8 -13    8.79    0.79
  -1  -8 -13    8.28    0.66
  -4   7  11    0.59    0.30
  -4   7  11    1.08    0.33
   4  -7 -11    1.70    0.80
   4  -7 -11    0.36    0.26
  -1   7  12    0.19    0.33
  -1   7  12    0.10    0.30
  -1   7  12   -0.05    0.20
   1  -7 -12   -0.21    0.26
   1  -7 -12    0.13    0.26
   1  -7 -12    0.23    0.18
   2   7  13    5.59    0.92
   2   7  13    5.76    0.98
   2   7  13    2.73    0.55
   2   7  13    4.20    0.71
   2   7  13    3.88    0.63
  -2  -7 -13    3.63    0.61
  -2  -7 -13    4.44    0.54
  -2  -7 -13    4.94    0.45
  -3   6  11    1.10    0.24
  -3   6  11    2.30    0.80
  -3   6  11    1.13    0.38
  -3   6  11    0.63    0.29
   3  -6 -11    0.71    0.28
   3  -6 -11    0.95    0.30
   0   6  12    1.56    0.41
   0   6  12    2.14    0.51
   0   6  12    1.45    0.27
   0  -6 -12    2.08    0.27
   0  -6 -12    2.17    0.44
   0  -6 -12    3.32    0.54
   3   6  13    0.90    0.44
   3   6  13    0.32    0.36
   3   6  13   -0.61    0.34
   3   6  13    0.77    0.40
   3   6  13    0.64    0.42
  -3  -6 -13    0.22    0.23
  -3  -6 -13    0.41    0.35
  -3  -6 -13   -0.04    0.29
  -3  -6 -13    0.57    0.38
  -3  -6 -13    0.17    0.24
  -5   5  10    0.04    0.22
  -5   5  10    0.15    0.23
   5  -5 -10   -0.10    0.23
   5  -5 -10    0.28    0.20
   5  -5 -10    0.82    0.69
   5  -5 -10    0.32    0.35
  -2   5  11    1.30    0.38
  -2   5  11    2.56    0.52
  -2   5  11    1.65    0.33
  -2   5  11    2.34    0.50
   2  -5 -11    2.38    0.38
   2  -5 -11    1.93    0.51
   2  -5 -11    2.19    0.37
   1   5  12    7.22    0.77
   1   5  12    6.74    0.84
   1   5  12    7.26    0.44
  -1  -5 -12    6.14    0.66
  -1  -5 -12    7.05    0.47
  -1  -5 -12    7.67    0.67
   4   5  13    2.12    0.59
   4   5  13    0.94    0.38
   4   5  13    2.17    0.57
  -4  -5 -13    0.21    0.28
  -4  -5 -13    0.73    0.40
  -4  -5 -13    1.78    0.54
  -4   4  10    1.77    0.44
  -4   4  10    0.78    0.31
  -4   4  10    0.88    0.46
   4  -4 -10    2.01    0.81
  -1   4  11    0.11    0.24
  -1   4  11   -0.11    0.28
  -1   4  11    0.22    0.30
  -1   4  11    0.23    0.18
   1  -4 -11   -0.18    0.30
   1  -4 -11    0.04    0.20
   1  -4 -11   -0.02    0.32
   2   4  12    3.43    0.70
   2   4  12    3.00    0.58
   2   4  12    2.01    0.45
   2   4  12    2.65    0.62
  -2  -4 -12    2.25    0.46
  -2  -4 -12    2.23    0.45
  -2  -4 -12    3.44    0.58
   5   4  13   -0.71    0.30
   5   4  13    0.05    0.38
  -5  -4 -13    0.12    0.26
  -5  -4 -13   -0.84    0.39
  -6   3   9    0.25    0.27
  -6   3   9   -0.50    0.27
  -6   3   9    0.18    0.30
  -6   3   9   -0.04    0.26
   6  -3  -9   -0.08    0.31
   6  -3  -9   -0.31    0.30
   6  -3  -9   -0.10    0.19
   6  -3  -9    0.23    0.56
  -3   3  10   12.67    1.25
  -3   3  10   10.95    0.84
  -3   3  10   12.30    0.92
  -3   3  10   11.81    0.91
   3  -3 -10   11.78    0.57
   3  -3 -10   10.97    1.08
   3  -3 -10   10.95    0.62
   3  -3 -10   10.70    0.83
   0   3  11    0.75    0.31
   0   3  11    0.03    0.15
   0   3  11   -0.02    0.24
   0  -3 -11   -0.14    0.16
   0  -3 -11    0.04    0.39
   0  -3 -11   -0.25    0.17
   3   3  12    3.06    0.39
   3   3  12    3.03    0.58
   3   3  12    1.55    0.46
  -3  -3 -12    3.28    0.51
  -3  -3 -12    2.19    0.47
  -3  -3 -12    2.60    0.44
  -5   2   9    0.20    0.28
  -5   2   9   -0.34    0.20
   5  -2  -9    0.40    0.49
   5  -2  -9    0.31    0.17
  -2   2  10    0.84    0.28
  -2   2  10    0.11    0.32
  -2   2  10    0.45    0.19
   2  -2 -10    0.77    0.50
   2  -2 -10    0.51    0.27
   2  -2 -10    0.68    0.25
   2  -2 -10    1.08    0.57
   1   2  11    3.41    0.50
   1   2  11    5.30    0.63
   1   2  11    3.93    0.56
  -1  -2 -11    4.50    0.79
  -1  -2 -11    2.86    0.46
  -1  -2 -11    5.06    0.51
  -1  -2 -11    4.90    0.57
   4   2  12    0.38    0.37
   4   2  12    0.13    0.20
   4   2  12    0.29    0.34
   4   2  12    0.23    0.37
  -4  -2 -12   -0.76    0.34
  -4  -2 -12   -0.36    0.31
  -4  -2 -12    0.38    0.22
  -4   1   9    1.16    0.37
  -4   1   9    3.64    1.14
   4  -1  -9    1.26    0.38
   4  -1  -9    2.32    0.77
   4  -1  -9    1.65    0.74
   4  -1  -9    2.00    0.50
  -1   1  10    0.36    0.28
  -1   1  10   -0.07    0.29
  -1   1  10    0.15    0.17
   1  -1 -10    0.14    0.21
   1  -1 -10   -0.08    0.45
   1  -1 -10    0.08    0.24
   2   1  11    1.38    0.23
   2   1  11    1.11    0.32
   2   1  11    2.02    0.43
   2   1  11    1.17    0.42
  -2  -1 -11    1.78    0.45
  -2  -1 -11    0.66    0.42
  -2  -1 -11    1.31    0.31
  -2  -1 -11    1.52    0.43
   5   1  12    2.09    0.60
   5   1  12    2.34    0.69
   5   1  12    1.48    0.51
  -5  -1 -12    1.27    0.28
  -5  -1 -12    2.11    0.47
  -5  -1 -12    1.35    0.57
  -6   0   8    0.18    0.29
  -6   0   8    0.52    0.33
  -6   0   8    0.81    0.34
   6   0  -8    0.39    0.23
   6   0  -8    0.51    0.61
   6   0  -8    0.40    0.32
   6   0  -8    0.57    0.37
  -3   0   9   13.06    0.93
  -3   0   9   11.58    0.87
  -3   0   9    9.24    1.41
   3   0  -9   10.39    0.81
   3   0  -9   10.47    0.53
   3   0  -9   12.03    0.80
   3   0  -9   11.93    1.08
   3   0  -9   12.05    1.16
   0   0  10   -0.09    0.29
   0   0  10    0.24    0.28
   0   0  10   -0.11    0.15
   0   0 -10    0.27    0.24
   0   0 -10   -0.10    0.22
   0   0 -10   -0.46    0.44
   3   0  11   -0.04    0.17
   3   0  11    0.56    0.27
   3   0  11    0.45    0.28
   3   0  11    0.09    0.17
  -3   0 -11    0.25    0.47
  -3   0 -11    0.19    0.19
  -5  -1   8    0.54    0.28
  -5  -1   8    1.94    0.68
  -5  -1   8    0.45    0.33
   5   1  -8    0.40    0.33
   5   1  -8    0.95    0.48
   5   1  -8    0.36    0.27
   5   1  -8    0.44    0.54
   5   1  -8    1.62    0.63
  -2  -1   9   37.41    1.60
  -2  -1   9   40.19    1.54
  -2  -1   9   38.22    1.53
   2   1  -9   40.76    2.03
   2   1  -9   38.43    1.47
   2   1  -9   39.42    1.21
   1  -1  10    4.37    0.56
   1  -1  10    3.92    0.53
   1  -1  10    4.60    0.44
  -1   1 -10    4.13    0.50
  -1   1 -10    3.18    0.45
  -1   1 -10    5.48    1.10
  -1   1 -10    3.28    0.54
   4  -1  11    1.32    0.32
   4  -1  11    1.39    0.31
   4  -1  11    2.07    0.55
   4  -1  11    0.43    0.28
   4  -1  11    1.45    0.45
  -4   1 -11    1.44    0.53
  -4   1 -11    1.11    0.28
  -4  -2   8    0.27    0.22
  -4  -2   8    0.04    0.29
  -4  -2   8    0.63    0.37
  -4  -2   8    0.99    0.74
  -4  -2   8    0.71    0.47
  -4  -2   8    0.69    1.38
   4   2  -8   -0.11    0.43
   4   2  -8    0.33    0.35
   4   2  -8    0.52    0.44
   4   2  -8    0.91    0.53
  -1  -2   9    9.02    0.92
  -1  -2   9    9.89    0.79
  -1  -2   9    9.20    0.96
  -1  -2   9    9.10    0.67
   1   2  -9    9.16    0.75
   1   2  -9    8.79    1.05
   1   2  -9    8.64    0.64
   2  -2  10   12.66    0.84
   2  -2  10   11.83    0.81
   2  -2  10   12.10    0.62
   2  -2  10   12.43    0.78
  -2   2 -10   12.43    0.81
  -2   2 -10   12.15    1.07
   5  -2  11    0.31    0.23
   5  -2  11   -0.36    0.38
   5  -2  11    0.08    0.36
   5  -2  11    0.07    0.25
  -5   2 -11   -0.15    0.30
  -5   2 -11    0.66    0.47
  -3  -3   8    0.37    0.35
  -3  -3   8    0.49    0.39
  -3  -3   8    2.28    0.65
   3   3  -8    0.99    0.48
   3   3  -8    0.33    0.55
   3   3  -8    1.02    0.29
   3   3  -8    0.43    0.45
   0  -3   9    0.90    0.40
   0  -3   9    2.74    0.70
   0  -3   9    1.98    0.42
   0  -3   9    1.85    0.31
   0   3  -9    1.88    0.76
   0   3  -9    1.72    0.44
   0   3  -9    1.79    0.38
   3  -3  10    1.48    0.31
   3  -3  10    1.02    0.32
   3  -3  10    1.59    0.46
   3  -3  10    1.70    0.35
   3  -3  10    1.39    0.49
  -3   3 -10    2.11    0.63
  -3   3 -10    1.92    0.36
  -5  -4   7    0.04    0.24
  -5  -4   7   -0.13    0.30
   5   4  -7    0.23    0.44
   5   4  -7    0.22    0.71
   5   4  -7   -0.04    0.21
   5   4  -7    0.61    0.45
  -2  -4   8    0.12    0.34
  -2  -4   8    1.22    0.74
  -2  -4   8    0.80    0.43
  -2  -4   8    0.02    0.31
   2   4  -8    0.66    0.73
   2   4  -8    0.92    0.45
   2   4  -8    0.89    0.29
   2   4  -8    0.18    0.46
   1  -4   9    2.72    0.47
   1  -4   9    2.77    0.51
   1  -4   9    3.81    0.45
   1  -4   9    4.12    0.62
  -1   4  -9    2.15    0.38
  -1   4  -9    2.79    0.42
  -1   4  -9    2.44    0.52
   4  -4  10   -0.02    0.22
   4  -4  10    0.39    0.26
   4  -4  10    1.01    0.43
  -4   4 -10    0.28    0.28
  -4   4 -10   -0.04    0.46
  -4  -5   7    0.22    0.24
  -4  -5   7    0.40    0.31
  -4  -5   7    0.99    0.48
  -4  -5   7    0.54    0.28
   4   5  -7    1.77    0.82
   4   5  -7    1.04    0.50
   4   5  -7    0.61    0.27
   4   5  -7    0.75    0.31
   4   5  -7    1.30    0.57
  -1  -5   8    0.59    0.47
  -1  -5   8    0.06    0.42
  -1  -5   8    1.32    0.63
  -1  -5   8    0.41    0.18
  -1  -5   8    0.44    0.41
   1   5  -8    0.38    0.67
   1   5  -8    0.52    0.27
   1   5  -8    0.48    0.26
   2  -5   9   -0.16    0.25
   2  -5   9   -0.51    0.20
   2  -5   9   -0.39    0.28
   2  -5   9   -0.23    0.25
  -2   5  -9   -0.22    0.22
  -2   5  -9    0.22    0.37
  -2   5  -9    0.03    0.23
  -3  -6   7    3.20    0.56
  -3  -6   7    5.03    0.76
  -3  -6   7    2.14    0.54
  -3  -6   7    3.48    0.49
  -3  -6   7    3.60    0.44
   3   6  -7    4.08    0.50
   3   6  -7    4.44    1.08
   3   6  -7    5.04    0.99
   3   6  -7    3.85    0.57
   3   6  -7    2.95    0.45
   0  -6   8    5.15    0.49
   0  -6   8    5.33    0.70
   0   6  -8    6.53    1.15
   0   6  -8    3.40    0.50
   3  -6   9    0.09    0.27
   3  -6   9   -0.53    0.22
   3  -6   9   -0.15    0.30
  -3   6  -9    0.62    0.55
  -3   6  -9    0.21    0.40
  -2  -7   7    0.23    0.32
  -2  -7   7    0.32    0.23
  -2  -7   7    0.00    0.23
  -2  -7   7    0.29    0.32
   2   7  -7    0.13    0.24
   2   7  -7    0.02    0.23
   2   7  -7    0.82    0.41
   2   7  -7    0.03    0.46
   2   7  -7    0.52    0.53
   1  -7   8   -0.07    0.30
   1  -7   8    0.25    0.67
   1  -7   8   -0.32    0.26
   1  -7   8    0.48    0.34
  -1   7  -8    0.35    0.34
  -1   7  -8    0.31    0.98
  -1  -8   7    0.15    0.31
  -1  -8   7    0.28    0.32
   1   8  -7    0.76    0.23
   1   8  -7    0.99    0.66
   1   8  -7   -0.15    0.33
   2  -8   8   -0.53    0.28
   2  -8   8   -0.61    0.28
  -2   8  -8    0.25    0.38
  -2   8  -8    1.11    0.45
   0  -9   7   -0.54    0.33
   0  -9   7    0.22    0.37
   0  -9   7    0.15    0.35
   0  -9   7   -0.69    0.32
   0  -9   7   -1.11    1.18
   0   9  -7   -0.52    0.66
  -2  10  13   -0.20    0.36
  -2  10  13   -0.19    0.22
   2 -10 -13   -0.04    0.27
   2 -10 -13   -0.22    0.29
   1  10  14    0.43    0.35
   1  10  14    0.76    0.75
   1  10  14   -0.69    0.37
   1  10  14   -0.36    0.37
  -1 -10 -14   -0.43    0.28
  -1 -10 -14   -0.19    0.26
  -1   9  13    0.63    0.25
  -1   9  13    0.06    0.33
  -1   9  13    0.34    0.26
  -1   9  13    0.43    0.34
   1  -9 -13    0.36    0.32
   1  -9 -13    0.68    0.26
   2   9  14    0.78    0.46
   2   9  14    0.70    0.36
   2   9  14    1.08    0.64
   2   9  14    2.72    0.85
   2   9  14    1.19    0.55
  -2  -9 -14    0.63    0.31
  -2  -9 -14    1.09    0.45
  -3   8  12    1.26    0.91
  -3   8  12   -0.02    0.28
  -3   8  12    0.25    0.26
   3  -8 -12    0.40    0.27
   3  -8 -12   -0.37    0.25
   0   8  13   12.16    0.86
   0   8  13   11.62    0.73
   0   8  13   12.86    0.97
   0   8  13   11.39    1.09
   0  -8 -13   12.12    0.92
   0  -8 -13   13.15    0.75
   0  -8 -13   13.37    0.94
   3   8  14   -0.10    0.36
   3   8  14    0.91    0.41
   3   8  14    0.25    0.37
   3   8  14   -0.10    0.48
   3   8  14   -0.58    0.31
  -3  -8 -14   -0.25    0.22
  -3  -8 -14    1.06    0.39
  -2   7  12    0.18    0.33
  -2   7  12    0.16    0.21
  -2   7  12    0.27    0.32
   2  -7 -12    0.00    0.24
   2  -7 -12   -0.01    0.18
   2  -7 -12   -0.12    0.29
   1   7  13    4.90    0.40
   1   7  13    5.68    0.71
   1   7  13    4.29    0.63
  -1  -7 -13    3.91    0.56
  -1  -7 -13    5.89    0.55
  -1  -7 -13    6.53    0.73
   4   7  14    0.52    0.49
   4   7  14    1.05    0.47
   4   7  14    1.62    0.56
  -4  -7 -14    1.00    0.45
  -4  -7 -14    0.38    0.34
   4  -6 -11   -0.29    0.32
   4  -6 -11   -0.28    0.20
   4  -6 -11    0.05    0.23
   4  -6 -11   -0.06    0.60
  -1   6  12    0.73    0.24
  -1   6  12    0.80    0.37
  -1   6  12    0.35    0.29
   1  -6 -12    0.82    0.20
   1  -6 -12    0.66    0.31
   1  -6 -12    1.01    0.36
   2   6  13    3.21    0.77
   2   6  13    1.92    0.52
   2   6  13    3.28    0.62
   2   6  13    4.02    0.78
  -2  -6 -13    3.90    0.57
  -2  -6 -13    3.61    0.59
  -3   5  11    1.60    0.38
  -3   5  11    2.91    0.97
  -3   5  11    1.61    0.44
  -3   5  11    1.96    0.45
   3  -5 -11    2.17    0.37
   3  -5 -11    1.17    0.31
   0   5  12    0.40    0.33
   0   5  12    0.71    0.37
   0   5  12    0.49    0.19
   0  -5 -12    0.85    0.34
   0  -5 -12    0.40    0.26
   3   5  13    0.57    0.42
   3   5  13   -0.57    0.31
   3   5  13    0.70    0.36
   3   5  13    0.39    0.40
  -3  -5 -13    0.39    0.26
  -3  -5 -13    0.04    0.33
  -5   4  10    0.08    0.27
  -5   4  10    0.01    0.25
  -5   4  10    0.32    0.29
   5  -4 -10    0.09    0.15
   5  -4 -10    0.54    0.34
   5  -4 -10    0.70    0.62
   5  -4 -10    0.39    0.22
  -2   4  11    4.08    0.61
  -2   4  11    2.53    0.45
  -2   4  11    2.78    0.56
  -2   4  11    2.58    0.39
   2  -4 -11    3.77    0.38
   2  -4 -11    3.91    0.68
   1   4  12    2.99    0.35
   1   4  12    2.75    0.59
   1   4  12    2.27    0.51
  -1  -4 -12    1.95    0.36
  -1  -4 -12    3.48    0.52
   4   4  13    0.58    0.37
   4   4  13    1.13    0.51
   4   4  13    1.47    0.45
   4   4  13    0.28    0.35
  -4  -4 -13    0.69    0.44
  -4  -4 -13    0.30    0.24
  -4   3  10    7.94    1.17
   4  -3 -10    6.92    0.97
  -1   3  11    0.05    0.22
  -1   3  11    0.04    0.17
  -1   3  11   -0.09    0.28
   1  -3 -11    0.17    0.24
   1  -3 -11    0.08    0.23
   1  -3 -11    0.32    0.41
   1  -3 -11   -0.04    0.17
   2   3  12    1.38    0.40
   2   3  12    3.70    0.57
   2   3  12    2.27    0.27
   2   3  12    2.53    0.60
  -2  -3 -12    1.90    0.44
  -2  -3 -12    2.09    0.42
  -2  -3 -12    2.71    0.50
   5   3  13    0.04    0.36
   5   3  13    0.63    0.40
   5   3  13   -0.01    0.38
  -5  -3 -13   -0.16    0.20
  -5  -3 -13   -0.27    0.37
  -6   2   9    0.75    0.33
  -6   2   9    0.27    0.27
  -6   2   9   -0.10    0.29
   6  -2  -9    0.56    0.67
   6  -2  -9   -0.51    0.30
   6  -2  -9   -0.08    0.21
  -3   2  10    6.64    1.17
  -3   2  10    6.54    0.71
  -3   2  10    8.03    0.80
   3  -2 -10    7.23    0.45
   3  -2 -10    7.59    0.95
   3  -2 -10    6.24    0.67
   3  -2 -10    8.49    0.61
   3  -2 -10    7.15    0.99
   0   2  11    2.29    0.32
   0   2  11    2.75    0.46
   0   2  11    2.56    0.52
   0  -2 -11    2.11    0.41
   0  -2 -11    3.15    0.41
   0  -2 -11    4.35    0.88
   3   2  12   -0.22    0.31
   3   2  12    0.03    0.18
   3   2  12   -0.05    0.35
  -3  -2 -12    0.00    0.19
  -3  -2 -12    0.19    0.32
  -5   1   9    0.97    0.36
  -5   1   9    0.52    0.27
   5  -1  -9    0.87    0.23
   5  -1  -9    1.90    0.74
   5  -1  -9    0.51    0.34
  -2   1  10    0.21    0.27
  -2   1  10    0.42    0.20
   2  -1 -10    0.69    0.53
   2  -1 -10    0.62    0.24
   2  -1 -10    0.63    0.34
   1   1  11    0.26    0.32
   1   1  11    0.46    0.18
   1   1  11    1.06    0.33
  -1  -1 -11    0.77    0.35
  -1  -1 -11    0.83    0.28
  -1  -1 -11    0.82    0.27
  -1  -1 -11    1.33    0.34
  -1  -1 -11    1.54    0.78
   4   1  12    0.37    0.20
   4   1  12    0.42    0.34
   4   1  12    0.20    0.39
  -4  -1 -12   -0.02    0.21
  -4  -1 -12    0.12    0.38
  -4  -1 -12    0.33    0.41
  -4   0   9    0.16    0.20
   4   0  -9    0.34    0.37
   4   0  -9    0.95    0.79
   4   0  -9    0.22    0.49
  -1   0  10    1.52    0.33
  -1   0  10    1.22    0.37
   1   0 -10    1.62    0.30
   1   0 -10    2.03    0.67
   1   0 -10    1.12    0.27
   2   0  11   -0.46    0.21
   2   0  11   -0.18    0.21
   2   0  11   -0.38    0.18
   2   0  11    0.16    0.13
  -2   0 -11    0.26    0.20
  -2   0 -11    0.10    0.32
  -2   0 -11    0.14    0.19
   5   0  12    0.16    0.36
   5   0  12    0.19    0.38
   5   0  12   -0.07    0.16
   5   0  12   -0.06    0.27
  -5   0 -12    0.05    0.19
  -5   0 -12    0.43    0.37
  -5   0 -12    0.21    0.46
  -6  -1   8    0.46    0.33
  -6  -1   8    0.25    0.30
   6   1  -8    0.26    0.32
   6   1  -8    0.80    0.61
  -3  -1   9   19.62    1.16
  -3  -1   9   19.89    1.15
   3   1  -9   17.23    0.71
   3   1  -9   17.06    1.39
   3   1  -9   17.32    1.26
   3   1  -9   19.36    1.07
   0  -1  10    4.82    0.40
   0  -1  10    5.18    0.61
   0  -1  10    4.41    0.72
   0  -1  10    4.14    0.36
   0   1 -10    4.50    0.53
   0   1 -10    6.28    1.25
   0   1 -10    3.17    0.51
   3  -1  11   -0.03    0.19
   3  -1  11    0.03    0.20
   3  -1  11    0.42    0.28
   3  -1  11   -0.16    0.16
  -3   1 -11   -0.11    0.18
  -3   1 -11    0.35    0.45
  -5  -2   8    0.03    0.23
  -5  -2   8   -0.23    0.29
   5   2  -8    0.44    0.46
   5   2  -8    0.01    0.28
   5   2  -8    0.29    0.60
   5   2  -8    1.18    0.59
  -2  -2   9    1.24    0.47
  -2  -2   9    0.73    0.33
  -2  -2   9    0.14    0.33
  -2  -2   9    0.75    0.58
  -2  -2   9    0.09    0.18
   2   2  -9    0.46    0.40
   2   2  -9    0.23    0.56
   2   2  -9    0.50    0.30
   1  -2  10    4.62    0.59
   1  -2  10    4.39    0.44
   1  -2  10    4.84    0.60
   1  -2  10    4.12    0.33
  -1   2 -10    4.84    1.08
  -1   2 -10    4.00    0.57
  -1   2 -10    4.16    0.65
   4  -2  11   -0.39    0.20
   4  -2  11   -0.02    0.24
   4  -2  11    0.07    0.29
   4  -2  11   -0.11    0.20
  -4   2 -11    0.08    0.37
  -4   2 -11    0.00    0.17
  -4   2 -11   -0.35    0.58
  -4  -3   8    0.87    0.55
  -4  -3   8    0.14    0.21
  -4  -3   8    0.61    0.44
  -4  -3   8    0.05    0.30
   4   3  -8    0.41    0.64
   4   3  -8   -0.17    0.28
   4   3  -8    0.00    0.41
   4   3  -8   -0.03    0.26
  -1  -3   9    3.21    0.97
  -1  -3   9    1.58    0.39
  -1  -3   9    1.14    0.40
  -1  -3   9    2.82    0.53
   1   3  -9    0.85    0.25
   1   3  -9    1.37    0.32
   1   3  -9    3.63    1.08
   2  -3  10    4.73    0.51
   2  -3  10    5.70    0.64
   2  -3  10    5.72    0.69
   2  -3  10    3.18    0.53
   2  -3  10    5.27    0.56
  -2   3 -10    4.04    0.69
  -2   3 -10    4.22    0.52
  -3  -4   8    0.38    0.24
  -3  -4   8    0.31    0.42
  -3  -4   8    0.36    0.30
  -3  -4   8   -0.59    0.29
  -3  -4   8   -0.11    0.14
   3   4  -8   -0.19    0.21
   3   4  -8    0.60    0.43
   3   4  -8   -0.27    0.18
   3   4  -8    0.41    0.52
   3   4  -8    0.28    0.42
   3   4  -8   -0.11    0.21
   0  -4   9    5.78    0.49
   0  -4   9    4.26    0.56
   0  -4   9    3.86    0.59
   0  -4   9    6.78    0.87
   0   4  -9    5.91    1.16
   0   4  -9    6.37    0.67
   0   4  -9    5.08    0.60
   3  -4  10    0.14    0.26
   3  -4  10   -0.13    0.22
   3  -4  10   -0.16    0.22
  -3   4 -10    0.11    0.21
  -3   4 -10   -0.74    0.31
  -5  -5   7    0.67    0.41
  -5  -5   7   -0.22    0.26
   5   5  -7    0.48    0.43
   5   5  -7    0.27    0.57
   5   5  -7   -0.14    0.44
   5   5  -7   -0.35    0.22
  -2  -5   8    4.55    0.44
  -2  -5   8    4.39    0.67
  -2  -5   8    4.14    0.61
   2   5  -8    5.39    0.75
   2   5  -8    3.98    0.51
   2   5  -8    4.92    0.89
   2   5  -8    4.23    0.52
   2   5  -8    3.83    0.59
   1  -5   9    0.84    0.57
   1  -5   9    0.16    0.27
   1  -5   9   -0.38    0.28
   1  -5   9    0.20    0.28
  -1   5  -9    0.11    0.29
  -1   5  -9    0.47    0.35
  -1   5  -9   -0.46    0.78
  -4  -6   7    1.39    0.42
  -4  -6   7    1.76    0.38
  -4  -6   7    1.94    0.53
  -4  -6   7    4.46    0.96
   4   6  -7    1.48    0.39
   4   6  -7    2.79    0.69
   4   6  -7    1.19    0.35
   4   6  -7    3.27    1.11
   4   6  -7    3.12    0.79
  -1  -6   8    1.14    0.38
  -1  -6   8    3.38    0.81
  -1  -6   8    0.26    0.36
  -1  -6   8    1.10    0.27
   1   6  -8    1.04    0.28
   1   6  -8    1.04    0.62
   1   6  -8    0.45    0.25
   1   6  -8    1.30    0.51
   1   6  -8    0.72    0.37
   2  -6   9    0.12    0.28
   2  -6   9   -0.12    0.28
  -2   6  -9    0.06    0.39
  -2   6  -9    0.28    0.42
  -3  -7   7    0.28    0.27
  -3  -7   7    0.07    0.30
  -3  -7   7   -0.77    0.40
  -3  -7   7    0.16    0.28
   3   7  -7   -0.45    0.22
   3   7  -7    0.42    0.25
   3   7  -7    0.44    0.40
   3   7  -7    0.61    0.52
   3   7  -7    0.24    0.61
   0  -7   8    0.68    0.33
   0  -7   8    1.11    0.39
   0  -7   8    0.49    0.41
   0  -7   8    0.75    0.37
   0   7  -8    0.91    0.25
   0   7  -8   -0.03    0.23
   0   7  -8    1.46    0.66
   0   7  -8    0.22    0.66
  -2  -8   7    0.24    0.40
  -2  -8   7    0.09    0.30
  -2  -8   7   -0.30    0.23
  -2  -8   7   -0.68    0.37
   2   8  -7    1.02    0.61
   2   8  -7    1.14    0.65
   2   8  -7   -0.31    0.19
   2   8  -7    0.06    0.29
   1  -8   8    0.00    0.42
   1  -8   8    0.26    0.34
   1  -8   8   -0.28    0.33
  -1   8  -8   -1.17    0.81
  -1   8  -8   -0.23    0.27
   0  10  14    0.73    0.27
   0  10  14   -0.16    0.42
   0  10  14    1.30    0.91
   0  10  14    1.27    0.59
   0  10  14    2.47    0.61
   0 -10 -14    0.91    0.27
   0 -10 -14    0.66    0.31
   0 -10 -14    1.68    0.48
  -2   9  13   -0.17    0.25
  -2   9  13   -0.04    0.23
  -2   9  13    0.23    0.32
  -2   9  13   -0.68    0.29
   2  -9 -13    0.10    0.37
   2  -9 -13    0.06    0.26
   1   9  14   -0.15    0.26
   1   9  14    1.16    0.45
   1   9  14    0.33    0.77
   1   9  14   -0.57    0.40
  -1  -9 -14    0.79    0.54
  -1  -9 -14    0.39    0.33
  -1  -9 -14    0.19    0.24
   4  -8 -12    0.61    0.75
  -1   8  13    2.81    0.40
  -1   8  13    4.99    0.83
  -1   8  13    2.80    0.53
   1  -8 -13    5.12    0.60
   1  -8 -13    3.28    0.51
   1  -8 -13    5.50    0.78
   1  -8 -13    2.81    0.47
   2   8  14    0.63    0.56
   2   8  14    0.98    0.36
   2   8  14    2.12    0.59
   2   8  14    1.70    0.64
   2   8  14    0.65    0.43
  -2  -8 -14    0.82    0.27
  -2  -8 -14    1.56    0.79
  -3   7  12    0.40    0.29
  -3   7  12   -0.23    0.31
   3  -7 -12    0.31    0.21
   3  -7 -12   -0.10    0.24
   0   7  13    0.15    0.57
   0   7  13    0.37    0.21
   0   7  13   -0.10    0.32
   0  -7 -13   -0.01    0.17
   0  -7 -13   -0.26    0.30
   0  -7 -13    0.88    0.37
   0  -7 -13    0.06    0.23
   3   7  14    1.32    0.44
   3   7  14    1.09    0.55
   3   7  14    1.41    0.55
   3   7  14    0.45    0.41
   3   7  14    2.52    0.63
  -3  -7 -14    1.91    0.50
  -3  -7 -14    1.20    0.39
  -3  -7 -14    0.87    0.40
  -3  -7 -14    1.14    0.32
  -5   6  11   -0.15    0.22
  -5   6  11   -0.20    0.28
   5  -6 -11    0.16    0.24
   5  -6 -11    0.80    0.78
  -2   6  12   -0.13    0.30
  -2   6  12    0.13    0.31
  -2   6  12    0.16    0.22
   2  -6 -12   -0.33    0.23
   2  -6 -12   -0.22    0.20
   2  -6 -12   -0.12    0.29
   1   6  13   -0.10    0.27
   1   6  13   -0.21    0.12
   1   6  13   -0.78    0.30
  -1  -6 -13   -0.20    0.20
  -1  -6 -13   -0.07    0.15
  -1  -6 -13   -0.29    0.24
   4   6  14    0.40    0.40
   4   6  14    0.29    0.38
   4   6  14   -0.13    0.33
  -4  -6 -14   -0.30    0.32
  -4  -6 -14    0.94    0.34
  -4  -6 -14    0.15    0.29
  -4   5  11    0.10    0.26
  -4   5  11    0.37    0.33
   4  -5 -11    0.08    0.25
   4  -5 -11    0.22    0.17
   4  -5 -11   -0.36    0.55
   4  -5 -11    0.27    0.22
   4  -5 -11    0.03    0.33
  -1   5  12    0.66    0.25
  -1   5  12    0.76    0.37
  -1   5  12    0.70    0.37
   1  -5 -12    1.10    0.34
   1  -5 -12    1.09    0.69
   2   5  13    6.40    0.82
   2   5  13    6.22    0.70
   2   5  13    6.39    0.76
   2   5  13    6.80    0.71
  -2  -5 -13    8.29    0.93
  -2  -5 -13    6.58    0.71
  -2  -5 -13    7.57    0.72
  -3   4  11    3.09    0.47
  -3   4  11    7.16    1.50
  -3   4  11    4.07    0.62
  -3   4  11    4.90    0.67
   3  -4 -11    4.10    0.37
   3  -4 -11    4.02    0.41
   0   4  12    0.18    0.34
   0   4  12    0.39    0.34
   0   4  12    0.45    0.18
   0   4  12    0.55    0.29
   0  -4 -12    0.67    0.43
   0  -4 -12    0.64    0.28
   0  -4 -12    1.46    0.52
   3   4  13    0.66    0.35
   3   4  13    0.40    0.36
  -3  -4 -13   -0.15    0.22
  -2   3  11    0.85    0.31
  -2   3  11    1.37    0.38
  -2   3  11    0.81    0.25
   2  -3 -11    0.76    0.18
   2  -3 -11    0.99    0.54
   2  -3 -11    1.69    0.35
   1   3  12    2.77    0.59
   1   3  12    2.28    0.47
   1   3  12    2.94    0.38
   1   3  12    3.39    0.47
  -1  -3 -12    2.23    0.38
  -1  -3 -12    2.94    0.49
  -1  -3 -12    4.56    0.88
   4   3  13    1.23    0.48
   4   3  13    1.27    0.55
  -4  -3 -13    0.28    0.44
  -4  -3 -13    0.74    0.26
  -4  -3 -13    1.55    0.64
  -4   2  10   11.91    0.96
  -4   2  10   14.61    1.45
  -4   2  10   12.03    1.00
   4  -2 -10   13.98    1.31
   4  -2 -10   12.63    1.21
   4  -2 -10   12.81    0.81
  -1   2  11   -0.04    0.15
  -1   2  11   -0.46    0.24
  -1   2  11   -0.02    0.23
   1  -2 -11    0.14    0.15
   1  -2 -11    0.09    0.41
   1  -2 -11   -0.06    0.18
   1  -2 -11    0.23    0.22
   2   2  12    2.45    0.83
   2   2  12    1.42    0.35
   2   2  12    1.23    0.20
  -2  -2 -12    1.64    0.43
  -2  -2 -12    1.85    0.46
  -2  -2 -12    1.84    0.36
  -6   1   9    1.01    0.34
  -6   1   9    0.48    0.34
  -6   1   9    0.17    0.34
   6  -1  -9    1.22    0.47
   6  -1  -9    0.77    0.71
   6  -1  -9    0.31    0.24
  -3   1  10    8.33    1.45
  -3   1  10   10.97    0.90
  -3   1  10   12.32    0.91
   3  -1 -10   11.24    0.74
   3  -1 -10   10.97    1.13
   3  -1 -10   11.75    1.14
   3  -1 -10   10.14    0.55
   0   1  11    0.60    0.19
   0   1  11    0.86    0.40
   0   1  11    0.07    0.24
   0  -1 -11    0.54    0.23
   0  -1 -11    1.20    0.61
   0  -1 -11    0.97    0.27
   0  -1 -11    0.14    0.21
   3   1  12    0.09    0.22
   3   1  12    0.18    0.18
   3   1  12    0.18    0.28
   3   1  12   -0.16    0.15
   3   1  12   -0.23    0.29
   3   1  12    0.05    0.36
  -3  -1 -12   -0.19    0.17
  -3  -1 -12    0.02    0.34
  -3  -1 -12    0.64    0.39
  -3  -1 -12   -0.39    0.27
  -5   0   9    0.12    0.32
   5   0  -9    0.24    0.35
   5   0  -9    0.86    0.61
   5   0  -9   -0.52    0.23
   5   0  -9    0.51    0.51
   5   0  -9    0.47    0.34
  -2   0  10   -0.03    0.26
  -2   0  10   -0.10    0.17
   2   0 -10    0.02    0.35
   2   0 -10    0.16    0.21
   2   0 -10    0.54    0.46
   1   0  11    1.97    0.44
   1   0  11    2.41    0.37
   1   0  11    3.40    0.71
  -1   0 -11    2.69    0.88
  -1   0 -11    2.20    0.49
  -1   0 -11    1.35    0.43
  -1   0 -11    2.04    0.39
   4   0  12    0.01    0.38
   4   0  12    0.56    0.25
   4   0  12   -0.23    0.17
   4   0  12    0.31    0.20
   4   0  12    0.03    0.33
  -4   0 -12   -0.17    0.37
  -4   0 -12   -0.02    0.20
  -4  -1   9    0.23    0.20
  -4  -1   9    0.27    0.34
  -4  -1   9    1.19    0.48
  -4  -1   9    0.54    1.35
  -4  -1   9    0.22    0.29
   4   1  -9    1.44    0.65
   4   1  -9    0.02    0.23
   4   1  -9    1.14    0.44
  -1  -1  10   21.77    1.02
  -1  -1  10   22.41    1.18
  -1  -1  10   23.63    1.42
  -1  -1  10   24.09    1.17
   1   1 -10   21.99    1.11
   1   1 -10   20.71    0.96
   1   1 -10   22.79    1.55
   2  -1  11    3.17    0.43
   2  -1  11    3.28    0.47
   2  -1  11    3.21    0.51
  -2   1 -11    2.27    0.55
  -2   1 -11    2.29    0.41
  -3  -2   9    0.84    0.41
  -3  -2   9    1.63    0.42
  -3  -2   9    0.92    0.35
  -3  -2   9    1.96    0.60
   3   2  -9    1.32    0.29
   3   2  -9    1.40    0.52
   3   2  -9    1.58    0.82
   3   2  -9    1.56    0.65
   0  -2  10    0.40    0.50
   0  -2  10   -0.21    0.33
   0  -2  10   -0.17    0.15
   0  -2  10    0.07    0.23
   0   2 -10    0.09    0.24
   0   2 -10   -0.12    0.61
   0   2 -10    0.15    0.21
   3  -2  11    1.08    0.32
   3  -2  11    1.06    0.26
   3  -2  11    1.63    0.38
   3  -2  11    1.70    0.46
  -3   2 -11    1.38    0.56
  -3   2 -11    1.04    0.30
  -5  -3   8    0.12    0.30
  -5  -3   8    0.13    0.26
   5   3  -8    0.94    0.46
   5   3  -8    0.38    0.66
   5   3  -8    0.54    0.50
   5   3  -8    0.19    0.27
  -2  -3   9    5.66    0.69
  -2  -3   9    5.11    0.64
  -2  -3   9    4.63    0.65
  -2  -3   9    7.33    1.01
   2   3  -9    5.11    0.90
   2   3  -9    5.27    0.79
   2   3  -9    5.00    0.66
   2   3  -9    4.76    0.52
   1  -3  10    0.44    0.43
   1  -3  10    0.08    0.23
   1  -3  10   -0.14    0.31
   1  -3  10   -0.10    0.25
  -1   3 -10   -0.29    0.18
  -1   3 -10    0.17    0.26
  -1   3 -10    0.06    0.78
   4  -3  11    0.14    0.32
   4  -3  11    0.00    0.23
   4  -3  11   -0.36    0.23
   4  -3  11   -0.17    0.18
  -4   3 -11   -0.54    0.19
  -4   3 -11    0.06    0.45
  -4   3 -11    0.77    0.72
  -4   3 -11   -0.28    0.26
  -4  -4   8   -0.08    0.33
  -4  -4   8    0.46    0.30
   4   4  -8    1.13    0.57
   4   4  -8    0.19    0.44
   4   4  -8    0.68    0.64
   4   4  -8    0.69    0.25
   4   4  -8    0.57    0.32
  -1  -4   9    1.04    0.39
  -1  -4   9    1.19    0.71
  -1  -4   9    1.57    0.46
   1   4  -9    0.95    1.17
   1   4  -9    0.70    0.28
   1   4  -9    0.92    0.32
   2  -4  10    0.15    0.25
   2  -4  10    1.40    0.37
   2  -4  10    0.61    0.44
   2  -4  10    1.22    0.58
   2  -4  10    1.05    0.37
  -2   4 -10    0.64    0.47
  -2   4 -10    0.59    0.31
  -2   4 -10    0.46    0.25
  -3  -5   8   -0.05    0.18
  -3  -5   8    1.09    0.55
  -3  -5   8    0.15    0.23
  -3  -5   8    0.33    0.34
  -3  -5   8    0.38    0.44
   3   5  -8    0.42    0.48
   3   5  -8    0.73    0.47
   3   5  -8    0.01    0.24
   3   5  -8    0.39    0.27
   3   5  -8    0.79    0.58
   0  -5   9    0.42    0.23
   0  -5   9   -0.19    0.27
   0  -5   9    2.44    0.77
   0  -5   9   -0.33    0.38
   0   5  -9    0.86    0.90
   0   5  -9    0.37    0.30
   3  -5  10    0.56    0.39
   3  -5  10    0.07    0.32
   3  -5  10    0.15    0.27
  -3   5 -10    1.57    0.72
  -3   5 -10    0.34    0.26
  -3   5 -10    0.77    0.50
  -2  -6   8    0.34    0.31
  -2  -6   8    0.12    0.42
  -2  -6   8    0.38    0.63
   2   6  -8    0.91    0.44
   2   6  -8    0.91    0.57
   2   6  -8    0.01    0.30
   2   6  -8    1.19    0.71
   1  -6   9   -0.15    0.34
   1  -6   9    0.28    0.30
   1  -6   9    0.97    0.70
   1  -6   9    0.95    0.34
  -1   6  -9    0.28    0.35
  -1   6  -9    0.18    0.25
  -1   6  -9   -0.64    0.70
  -1  -7   8    0.62    0.25
  -1  -7   8    0.10    0.38
  -1  -7   8   -0.19    0.41
  -1  -7   8    0.23    0.27
   1   7  -8    0.56    0.22
   1   7  -8    0.51    0.68
   1   7  -8    0.69    0.35
   1   7  -8    0.04    0.32
   2  -7   9   -0.01    0.32
   2  -7   9    0.19    0.31
  -2   7  -9    1.50    0.50
  -2   7  -9    0.32    0.39
   0  -8   8    0.14    0.27
   0  -8   8    0.35    0.31
   0  -8   8   -0.37    0.29
   0  -8   8    0.87    1.48
   0   8  -8    0.66    0.78
  -1  10  14    2.16    0.38
  -1  10  14    0.75    0.33
  -1  10  14    0.21    0.43
  -1  10  14    2.14    0.58
   1 -10 -14    0.95    0.33
   1 -10 -14    1.95    0.53
  -3   9  13   -0.03    0.23
   0   9  14   -0.16    0.46
   0   9  14    0.23    0.23
   0   9  14    0.22    0.41
   0  -9 -14    0.63    0.30
   0  -9 -14    0.58    0.37
   0  -9 -14    0.48    0.46
  -2   8  13   -0.26    0.21
  -2   8  13   -0.01    0.31
   2  -8 -13    0.07    0.30
   1   8  14   -0.55    0.26
   1   8  14    0.53    0.46
   1   8  14   -0.77    0.61
  -1  -8 -14    0.13    0.28
  -1  -8 -14    0.25    0.23
  -4   7  12    0.80    0.32
  -4   7  12    0.45    0.29
   4  -7 -12    0.36    0.30
   4  -7 -12    1.60    0.94
  -1   7  13   -0.27    0.18
  -1   7  13    0.20    0.34
  -1   7  13   -0.30    0.31
   1  -7 -13   -0.21    0.25
   1  -7 -13   -0.19    0.15
   1  -7 -13    0.15    0.32
   2   7  14    2.46    0.61
   2   7  14    1.75    0.55
   2   7  14    3.33    0.79
   2   7  14    0.66    0.46
   2   7  14    2.18    0.68
  -2  -7 -14    3.16    0.49
  -2  -7 -14    1.86    0.48
  -2  -7 -14    3.19    0.65
  -2  -7 -14    1.80    0.36
  -3   6  12   -1.33    0.91
  -3   6  12    0.62    0.36
  -3   6  12    0.84    0.34
  -3   6  12    0.07    0.30
   3  -6 -12    0.09    0.23
   3  -6 -12   -0.25    0.22
   0   6  13   -0.19    0.15
   0   6  13    0.19    0.43
   0   6  13   -0.66    0.25
   0  -6 -13    0.08    0.25
   0  -6 -13    0.27    0.30
   0  -6 -13    0.03    0.15
   3   6  14    7.58    0.76
   3   6  14    7.52    0.89
   3   6  14    7.52    0.62
  -3  -6 -14    9.97    1.20
  -3  -6 -14    8.03    0.70
   5  -5 -11    1.27    0.75
  -2   5  12    3.77    0.66
  -2   5  12    2.39    0.38
  -2   5  12    3.06    0.51
   2  -5 -12    3.47    0.43
   2  -5 -12    3.30    0.50
   1   5  13    1.03    0.45
   1   5  13    0.52    0.17
   1   5  13    0.01    0.36
  -1  -5 -13    1.00    0.51
  -1  -5 -13    0.66    0.35
   4   5  14   -0.55    0.28
   4   5  14   -0.31    0.46
   4   5  14    0.47    0.38
  -4  -5 -14    0.11    0.37
  -4  -5 -14    1.59    0.46
  -4   4  11    5.41    0.73
  -4   4  11    7.70    1.21
  -4   4  11    5.79    0.64
  -4   4  11    6.37    0.80
   4  -4 -11    4.63    0.62
   4  -4 -11    8.66    1.49
  -1   4  12    0.23    0.35
  -1   4  12    0.00    0.27
  -1   4  12   -0.08    0.28
  -1   4  12    0.23    0.16
   1  -4 -12    0.48    0.42
   1  -4 -12    0.46    0.23
   2   4  13    0.50    0.38
   2   4  13    0.36    0.67
   2   4  13    0.03    0.35
   2   4  13    0.79    0.42
  -2  -4 -13    0.46    0.26
  -2  -4 -13    0.28    0.62
  -2  -4 -13    0.76    0.40
  -2  -4 -13    1.19    0.36
  -3   3  11    2.28    1.20
  -3   3  11    1.85    0.44
  -3   3  11    1.30    0.32
   3  -3 -11    2.06    0.33
   3  -3 -11    3.07    0.66
   3  -3 -11    1.86    0.31
   3  -3 -11    3.65    0.91
   0   3  12    5.34    0.53
   0   3  12    4.08    0.55
   0   3  12    3.46    0.56
   0  -3 -12    5.50    0.76
   0  -3 -12    3.79    0.58
   0  -3 -12    5.44    0.50
   3   3  13    0.06    0.39
   3   3  13    0.31    0.38
  -3  -3 -13    0.27    0.25
  -3  -3 -13    0.92    0.31
  -3  -3 -13    0.72    0.38
  -5   2  10    3.63    1.05
  -5   2  10    1.02    0.36
  -5   2  10    0.53    0.31
   5  -2 -10    1.62    0.76
  -2   2  11    3.28    0.48
  -2   2  11    2.83    0.46
   2  -2 -11    4.28    0.46
   2  -2 -11    4.97    0.76
   1   2  12    0.82    0.33
   1   2  12    0.92    0.22
   1   2  12    0.57    0.39
  -1  -2 -12    1.46    0.39
  -1  -2 -12    1.92    0.39
  -1  -2 -12    1.05    0.34
  -1  -2 -12    1.98    0.76
   4   2  13    1.92    0.54
   4   2  13    1.38    0.29
   4   2  13    1.45    0.52
  -4  -2 -13    1.30    0.53
  -4  -2 -13    1.24    0.32
  -4  -2 -13    0.96    0.59
  -4   1  10    6.22    0.76
  -4   1  10    6.81    0.77
   4  -1 -10    4.73    0.58
   4  -1 -10    7.05    1.53
   4  -1 -10    6.02    0.73
   4  -1 -10    5.31    0.84
  -1   1  11    0.77    0.22
  -1   1  11    0.68    0.37
  -1   1  11    1.16    0.32
   1  -1 -11    1.55    0.70
   1  -1 -11    1.12    0.29
   1  -1 -11    0.70    0.22
   2   1  12    0.49    0.18
   2   1  12    0.87    0.32
   2   1  12    0.64    0.29
  -2  -1 -12    1.23    0.41
  -2  -1 -12    0.57    0.77
  -2  -1 -12    1.16    0.32
  -3   0  10    0.24    0.30
  -3   0  10    0.35    0.24
   3   0 -10    0.41    0.32
   3   0 -10    0.13    0.38
   3   0 -10    0.09    0.18
   3   0 -10    0.28    0.54
   0   0  11    5.15    0.65
   0   0  11    6.76    0.99
   0   0  11    5.20    0.57
   0   0 -11    5.33    0.62
   0   0 -11    5.18    0.53
   0   0 -11    5.07    0.85
   3   0  12    0.18    0.19
   3   0  12    0.23    0.19
   3   0  12    0.16    0.51
   3   0  12    0.61    0.27
   3   0  12    0.64    0.32
  -3   0 -12    0.57    0.22
  -3   0 -12    0.49    0.42
  -5  -1   9   -0.25    0.22
  -5  -1   9   -0.50    0.26
   5   1  -9   -0.07    0.44
   5   1  -9    0.53    0.55
   5   1  -9    0.70    0.65
   5   1  -9    0.57    0.31
  -2  -1  10    1.30    0.79
  -2  -1  10    0.36    0.23
  -2  -1  10    0.64    0.33
   2   1 -10    0.91    0.29
   2   1 -10    1.51    0.69
   2   1 -10    1.27    0.52
   1  -1  11    0.80    0.31
   1  -1  11    1.25    0.32
   1  -1  11    2.35    0.55
  -1   1 -11    0.79    0.42
  -1   1 -11    0.78    0.28
  -1   1 -11    0.32    0.22
  -1   1 -11    1.29    0.86
   4  -1  12    0.13    0.45
   4  -1  12    1.02    0.40
   4  -1  12   -0.14    0.21
   4  -1  12    0.54    0.28
   4  -1  12    0.15    0.20
  -4   1 -12    0.61    0.52
  -4   1 -12    0.20    0.23
  -4  -2   9   -0.23    0.25
  -4  -2   9    0.10    0.23
   4   2  -9    0.33    0.45
   4   2  -9   -0.67    0.60
   4   2  -9   -0.16    0.31
   4   2  -9    0.25    0.33
  -1  -2  10    7.18    1.27
  -1  -2  10    3.50    0.54
  -1  -2  10    3.62    0.47
   1   2 -10    4.06    0.59
   1   2 -10    5.01    1.07
   2  -2  11    6.95    0.49
   2  -2  11    5.80    0.69
   2  -2  11    7.36    0.63
   2  -2  11    7.13    0.70
  -2   2 -11    7.21    0.73
  -2   2 -11    6.18    0.63
  -2   2 -11    4.57    0.72
  -3  -3   9    1.23    0.54
  -3  -3   9    0.94    0.38
  -3  -3   9    0.63    0.29
  -3  -3   9    1.19    0.50
   3   3  -9    1.21    0.58
   3   3  -9    1.35    0.69
   3   3  -9    2.15    0.72
   3   3  -9    0.95    0.34
   0  -3  10    1.93    0.31
   0  -3  10    3.70    0.88
   0  -3  10    0.69    0.36
   0  -3  10    1.25    0.39
   0   3 -10    0.89    0.29
   0   3 -10    1.80    0.46
   0   3 -10    3.41    1.17
   3  -3  11    0.94    0.26
   3  -3  11    0.54    0.30
   3  -3  11    0.97    0.41
   3  -3  11    0.99    0.35
  -3   3 -11    0.65    0.31
  -3   3 -11    0.24    0.37
  -2  -4   9   -0.46    0.36
  -2  -4   9    0.58    0.46
  -2  -4   9    0.21    0.30
   2   4  -9   -0.02    0.23
   2   4  -9   -0.09    0.49
   2   4  -9   -0.26    0.51
   2   4  -9   -0.62    0.37
   1  -4  10    0.42    0.30
   1  -4  10    0.66    0.31
   1  -4  10    1.23    0.62
   1  -4  10   -0.14    0.31
  -1   4 -10    0.17    0.40
  -1   4 -10    0.41    0.36
  -1   4 -10    0.59    0.75
  -4  -5   8    0.07    0.34
  -4  -5   8    0.13    0.26
   4   5  -8   -0.16    0.20
   4   5  -8    0.59    0.66
   4   5  -8   -0.14    0.44
   4   5  -8    0.11    0.41
   4   5  -8   -0.09    0.27
  -1  -5   9   -0.58    0.35
  -1  -5   9    0.09    0.17
  -1  -5   9   -0.19    0.44
  -1  -5   9    0.34    0.33
   1   5  -9    0.18    0.22
   1   5  -9    0.38    0.24
   1   5  -9    0.68    0.61
   2  -5  10    0.09    0.27
  -2   5 -10   -0.22    0.32
  -2   5 -10    0.15    0.26
  -3  -6   8    3.16    0.81
  -3  -6   8    1.33    0.45
  -3  -6   8    1.29    0.32
   3   6  -8    0.94    0.35
   3   6  -8    2.47    0.64
   3   6  -8    1.58    0.75
   3   6  -8    2.51    0.76
   3   6  -8    1.76    0.52
   0  -6   9    3.16    0.82
   0  -6   9    1.18    0.29
   0  -6   9    0.60    0.35
   0  -6   9   -0.23    0.35
   0   6  -9    2.28    1.09
   0   6  -9    0.79    0.31
  -2  -7   8    3.26    0.61
  -2  -7   8    6.22    0.69
  -2  -7   8    2.81    0.86
   2   7  -8    5.13    0.58
   2   7  -8    5.67    1.43
   2   7  -8    5.30    1.12
   2   7  -8    5.68    0.54
   1  -7   9   -0.57    0.25
   1  -7   9   -1.24    0.70
   1  -7   9   -0.23    0.33
  -1   7  -9   -0.23    0.32
  -1   7  -9    0.12    0.83
  -1  -8   8    0.11    0.33
  -1  -8   8   -0.35    0.23
   1   8  -8    0.04    0.68
   1   8  -8    0.15    0.25
  -1   9  14    1.26    0.44
  -1   9  14    0.69    0.34
  -1   9  14   -0.01    0.42
  -1   9  14    0.59    0.31
   1  -9 -14    0.92    0.27
   1  -9 -14    0.72    0.30
   1  -9 -14    1.15    0.43
  -3   8  13    0.23    0.45
  -3   8  13    0.82    0.37
   3  -8 -13    0.13    0.28
   3  -8 -13   -0.21    0.25
   0   8  14   -0.65    0.42
   0   8  14    1.00    0.40
   0   8  14    0.16    0.23
   0  -8 -14    0.19    0.31
   0  -8 -14    0.46    0.21
   0  -8 -14    1.09    0.41
  -2   7  13   -0.16    0.18
  -2   7  13    0.13    0.33
   2  -7 -13   -0.04    0.32
   2  -7 -13   -0.11    0.23
   1   7  14    1.41    0.55
   1   7  14    0.60    0.47
  -1  -7 -14    1.49    0.50
  -4   6  12    0.26    0.28
  -4   6  12    0.79    0.31
  -4   6  12    2.42    0.96
   4  -6 -12    0.44    0.24
   4  -6 -12    0.06    0.17
   4  -6 -12    0.84    0.81
  -1   6  13   -0.02    0.32
  -1   6  13    0.59    0.39
  -1   6  13    0.06    0.19
   1  -6 -13    0.90    0.36
   1  -6 -13    0.54    0.26
   2   6  14    2.36    0.56
   2   6  14    3.53    0.77
   2   6  14    4.54    0.92
   2   6  14    1.57    0.63
  -2  -6 -14    2.41    0.46
  -2  -6 -14    4.03    0.60
  -3   5  12    2.84    0.54
  -3   5  12    2.54    0.53
  -3   5  12    1.47    1.34
  -3   5  12    1.38    0.43
   3  -5 -12    2.06    0.58
   3  -5 -12    2.64    0.40
   3  -5 -12    2.76    0.39
   0   5  13   -0.32    0.13
   0   5  13   -0.07    0.58
   0   5  13   -0.49    0.27
   0  -5 -13   -0.19    0.24
   0  -5 -13    0.41    0.38
   0  -5 -13   -0.10    0.23
   3   5  14    0.89    0.42
   3   5  14    0.87    0.46
   3   5  14    0.94    0.52
  -3  -5 -14    0.82    0.43
  -3  -5 -14    1.58    0.45
  -3  -5 -14    0.44    0.27
  -5   4  11    0.67    0.39
  -5   4  11    0.11    0.33
  -5   4  11    0.09    0.34
   5  -4 -11    1.12    0.78
   5  -4 -11    0.40    0.21
  -2   4  12    7.42    0.71
  -2   4  12    7.36    0.82
  -2   4  12    7.43    0.76
   2  -4 -12    7.49    0.92
   2  -4 -12    7.45    0.49
   1   4  13    0.50    0.37
   1   4  13    0.51    0.17
   1   4  13    0.05    0.33
  -1  -4 -13    0.49    0.29
  -1  -4 -13    1.23    0.55
   4   4  14    0.52    0.49
  -4  -4 -14   -0.06    0.24
  -4  -4 -14   -0.34    0.37
  -4   3  11    7.31    0.84
  -4   3  11    7.43    1.20
  -4   3  11    6.88    0.82
   4  -3 -11    6.64    0.98
   4  -3 -11    4.60    0.73
  -1   3  12   -0.21    0.28
  -1   3  12    0.38    0.22
  -1   3  12    0.10    0.24
   1  -3 -12    0.51    0.43
   1  -3 -12    0.50    0.22
   1  -3 -12    0.24    0.26
   2   3  13   -0.08    0.12
   2   3  13   -0.39    0.32
   2   3  13    0.14    0.12
   2   3  13    0.29    0.28
  -2  -3 -13   -0.03    0.22
  -2  -3 -13    0.10    0.68
  -2  -3 -13    0.04    0.19
  -3   2  11    0.05    0.24
  -3   2  11   -0.14    0.26
  -3   2  11    0.12    0.22
   3  -2 -11    0.42    0.21
   3  -2 -11    0.07    0.21
   3  -2 -11    0.22    0.28
   3  -2 -11   -0.12    0.43
   0   2  12   15.53    1.01
   0   2  12   13.56    1.05
   0   2  12   15.73    0.85
   0  -2 -12   14.96    0.72
   0  -2 -12   14.52    0.94
   0  -2 -12   15.33    1.20
   0  -2 -12   15.13    0.87
   3   2  13   -0.73    0.35
   3   2  13    0.40    0.34
   3   2  13   -0.27    0.33
  -3  -2 -13    0.50    0.36
  -3  -2 -13   -0.30    0.19
  -3  -2 -13    0.30    0.41
  -5   1  10    0.10    0.31
  -5   1  10    0.14    0.25
   5  -1 -10    0.26    0.59
   5  -1 -10    0.33    0.54
  -2   1  11    0.36    0.20
   2  -1 -11    1.47    0.42
   2  -1 -11    0.61    0.22
   2  -1 -11    1.21    0.62
   1   1  12    1.21    0.25
   1   1  12    1.55    0.36
  -1  -1 -12    1.46    0.41
  -1  -1 -12    2.27    0.85
  -1  -1 -12    1.90    0.54
  -1  -1 -12    1.52    0.30
  -1  -1 -12    1.24    0.30
   4   1  13    2.39    0.39
   4   1  13    3.44    0.76
   4   1  13    3.87    0.66
  -4  -1 -13    2.15    0.61
  -4  -1 -13    3.04    0.44
  -4   0  10    0.36    0.24
  -4   0  10    0.12    0.29
  -4   0  10   -0.77    1.10
   4   0 -10    0.40    0.52
   4   0 -10    0.96    0.43
   4   0 -10    0.41    0.30
   4   0 -10    0.56    0.63
  -1   0  11    0.33    0.31
  -1   0  11    0.13    0.18
   1   0 -11    0.58    0.25
   1   0 -11    1.02    0.64
   1   0 -11    0.89    0.40
   2   0  12    0.03    0.24
   2   0  12    0.19    0.20
   2   0  12    0.21    0.28
   2   0  12   -0.47    0.33
   2   0  12    0.15    0.15
  -2   0 -12    0.20    0.36
  -2   0 -12    0.04    0.34
  -3  -1  10    0.25    0.23
  -3  -1  10    0.45    0.29
  -3  -1  10    0.33    0.38
   3   1 -10    0.22    0.23
   3   1 -10    0.51    0.39
   3   1 -10    0.70    0.26
   3   1 -10    1.62    0.75
   3   1 -10    1.16    0.86
   0  -1  11    2.21    0.47
   0   1 -11    1.33    0.34
   0   1 -11    2.96    0.86
   0   1 -11    1.84    0.34
   3  -1  12    0.03    0.25
   3  -1  12   -0.09    0.19
   3  -1  12   -0.17    0.15
   3  -1  12    0.62    0.35
  -3   1 -12    0.02    0.21
  -3   1 -12    0.24    0.38
  -5  -2   9    0.23    0.35
   5   2  -9    1.37    0.59
   5   2  -9    1.73    0.91
   5   2  -9    1.30    0.53
  -2  -2  10   10.05    0.86
  -2  -2  10    7.18    0.97
  -2  -2  10    9.31    0.80
  -2  -2  10    9.49    0.84
  -2  -2  10   12.06    1.18
   2   2 -10    9.27    1.11
   2   2 -10    7.83    0.63
   2   2 -10    9.12    0.83
   1  -2  11    7.01    0.56
   1  -2  11    6.22    0.67
  -1   2 -11    6.13    1.11
  -1   2 -11    6.68    0.68
  -1   2 -11    4.55    0.64
   4  -2  12   -0.49    0.22
   4  -2  12    0.13    0.26
   4  -2  12    0.62    0.25
   4  -2  12   -0.19    0.30
  -4   2 -12   -0.42    0.18
  -4   2 -12    0.19    0.50
  -4  -3   9    0.30    0.27
  -4  -3   9   -0.37    0.29
   4   3  -9   -0.06    0.36
   4   3  -9   -0.18    0.42
   4   3  -9    0.59    0.48
   4   3  -9   -0.08    0.19
   4   3  -9   -0.16    0.20
  -1  -3  10    3.64    0.64
  -1  -3  10    1.63    0.42
  -1  -3  10    1.76    0.52
   1   3 -10    1.43    0.35
   1   3 -10    2.28    0.47
   2  -3  11    4.88    0.46
   2  -3  11    4.68    0.60
   2  -3  11    5.59    0.67
   2  -3  11    5.49    0.57
  -2   3 -11    4.90    0.58
  -2   3 -11    5.05    0.80
  -3  -4   9    1.13    0.35
  -3  -4   9    0.53    0.37
  -3  -4   9    2.49    0.62
   3   4  -9    1.26    0.61
   3   4  -9    1.34    0.60
   3   4  -9    0.98    0.31
   3   4  -9    0.57    0.40
   3   4  -9    1.74    0.94
   0  -4  10    0.41    0.32
   0  -4  10    0.02    0.39
   0  -4  10    0.61    0.38
   0  -4  10    2.42    0.87
   0   4 -10    0.19    0.27
   0   4 -10    0.71    0.67
   3  -4  11   -0.11    0.29
   3  -4  11    0.52    0.50
   3  -4  11   -0.22    0.19
  -3   4 -11    0.07    0.39
  -2  -5   9    1.50    0.41
  -2  -5   9    0.21    0.40
  -2  -5   9    2.54    0.72
   2   5  -9    1.41    0.56
   2   5  -9    0.95    0.30
   2   5  -9    1.17    0.36
   2   5  -9    2.38    0.71
   2   5  -9    1.70    0.78
   1  -5  10    0.07    0.31
   1  -5  10    0.96    0.32
   1  -5  10    0.59    0.61
  -1   5 -10    0.00    0.32
  -1   5 -10    0.55    0.83
  -1   5 -10    0.25    0.22
  -1  -6   9    0.99    0.23
  -1  -6   9    0.64    0.22
  -1  -6   9    0.49    0.38
  -1  -6   9    0.26    0.49
   1   6  -9    1.12    0.55
   1   6  -9    1.06    0.31
   1   6  -9    1.33    0.58
   2  -6  10    0.75    0.39
   2  -6  10    0.34    0.31
  -2   6 -10    0.21    0.46
   0  -7   9   -0.53    0.29
   0  -7   9    0.31    0.27
   0   7  -9   -0.56    0.41
   0   7  -9    0.02    0.20
   0   7  -9    0.33    0.73
  -1   8  14   -0.22    0.19
  -1   8  14    0.13    0.33
   1  -8 -14    0.28    0.35
   1  -8 -14    0.08    0.21
   1  -8 -14    0.45    0.38
   2   8  15    0.15    0.34
   2   8  15    1.46    0.64
   2   8  15    1.13    0.75
   2   8  15    2.33    0.61
  -2  -8 -15    0.52    0.31
  -3   7  13    0.19    0.32
  -3   7  13   -0.14    0.25
   3  -7 -13   -0.13    0.26
   3  -7 -13    0.06    0.25
   0   7  14    5.19    0.82
   0   7  14    3.27    0.66
   0   7  14    4.88    0.54
   0  -7 -14    5.25    0.47
   0  -7 -14    4.84    0.64
   0  -7 -14    5.98    0.68
  -2   6  13   -0.27    0.19
  -2   6  13   -0.06    0.34
   2  -6 -13   -0.07    0.29
   2  -6 -13    0.18    0.25
   1   6  14    0.12    0.14
   1   6  14    0.65    0.43
  -1  -6 -14    0.10    0.29
  -1  -6 -14    0.23    0.21
  -1  -6 -14    0.87    0.36
  -4   5  12    1.06    0.41
  -4   5  12    3.06    1.07
  -4   5  12    2.06    0.46
  -4   5  12    0.98    0.35
   4  -5 -12    0.48    0.80
  -1   5  13    0.50    0.22
  -1   5  13    1.78    0.55
   1  -5 -13    2.25    0.65
   1  -5 -13    0.92    0.38
   2   5  14   -0.06    0.37
   2   5  14    0.05    0.50
   2   5  14   -0.20    0.38
  -2  -5 -14   -0.42    0.22
  -2  -5 -14   -0.01    0.33
  -3   4  12    9.79    0.92
  -3   4  12    8.74    0.93
  -3   4  12    8.32    0.78
   3  -4 -12   10.78    1.08
   3  -4 -12    9.79    0.61
   0   4  13    2.09    0.31
   0   4  13    1.87    0.40
   0  -4 -13    2.75    0.55
   0  -4 -13    3.35    0.49
   3   4  14    1.41    0.37
   3   4  14    0.85    0.45
   3   4  14   -0.32    0.48
  -3  -4 -14    0.66    0.36
  -3  -4 -14    1.45    0.49
  -3  -4 -14    0.37    0.29
  -5   3  11    0.24    0.34
  -5   3  11   -0.11    0.30
   5  -3 -11    0.10    0.66
  -2   3  12    0.35    0.20
  -2   3  12    0.20    0.29
   2  -3 -12    0.80    0.23
   2  -3 -12    0.61    0.27
   2  -3 -12    0.93    0.59
   1   3  13    1.93    0.42
   1   3  13    2.63    0.64
   1   3  13    1.77    0.26
  -1  -3 -13    2.39    0.46
   4   3  14    0.42    0.48
  -4  -3 -14    0.22    0.26
  -4  -3 -14   -0.12    0.37
  -4   2  11    0.15    0.24
   4  -2 -11    0.49    0.64
   4  -2 -11    0.47    0.36
  -1   2  12    0.80    0.24
   1  -2 -12    1.28    0.25
   1  -2 -12    0.93    0.35
   1  -2 -12    2.01    0.69
   1  -2 -12    1.16    0.29
   2   2  13   -0.27    0.22
   2   2  13    0.03    0.24
   2   2  13    0.30    0.43
   2   2  13   -0.51    0.30
  -2  -2 -13   -0.82    0.66
  -2  -2 -13   -0.03    0.22
  -2  -2 -13    0.11    0.30
  -2  -2 -13    0.34    0.33
  -2  -2 -13   -0.44    0.25
  -3   1  11    4.40    0.62
  -3   1  11    3.67    0.66
   3  -1 -11    5.51    0.57
   3  -1 -11    5.21    0.46
   3  -1 -11    8.22    1.47
   3  -1 -11    3.11    0.46
   3  -1 -11    6.59    0.96
   0   1  12   10.78    0.84
   0   1  12    9.34    0.71
   0  -1 -12    9.08    1.00
   0  -1 -12    8.52    0.67
   0  -1 -12    8.25    0.88
   3   1  13    1.23    0.50
   3   1  13    1.31    0.45
   3   1  13    0.57    0.22
   3   1  13    0.38    0.21
   3   1  13    0.67    0.29
  -3  -1 -13    0.68    0.27
  -3  -1 -13    1.20    0.51
  -3  -1 -13   -0.07    0.36
  -5   0  10    0.44    0.32
  -5   0  10    0.14    0.32
   5   0 -10    0.41    0.41
   5   0 -10    1.11    0.69
   5   0 -10    0.49    0.41
   5   0 -10    0.58    0.64
  -2   0  11    0.64    0.36
  -2   0  11    0.86    0.28
   2   0 -11    0.46    0.26
   2   0 -11    2.58    0.60
   2   0 -11    2.61    0.79
   1   0  12    1.24    0.34
   1   0  12    2.13    0.71
   1   0  12    0.84    0.34
   1   0  12    0.94    0.26
  -1   0 -12    0.58    0.27
  -1   0 -12    0.95    0.42
  -1   0 -12    0.97    0.77
   4   0  13    0.53    0.34
   4   0  13    0.44    0.29
   4   0  13   -0.32    0.17
   4   0  13    0.14    0.21
   4   0  13   -0.78    0.34
  -4   0 -13   -0.07    0.23
  -4   0 -13   -0.25    0.45
  -4  -1  10    0.05    0.23
  -4  -1  10   -0.07    0.30
   4   1 -10    0.16    0.34
   4   1 -10    0.29    0.42
   4   1 -10    1.42    0.66
  -1  -1  11    0.32    0.30
  -1  -1  11    0.25    0.33
  -1  -1  11    1.46    0.92
  -1  -1  11    0.01    0.20
   1   1 -11   -0.14    0.20
   1   1 -11    0.38    0.63
   1   1 -11    0.02    0.25
   2  -1  12    0.91    0.35
   2  -1  12    0.39    0.30
   2  -1  12    0.30    0.17
   2  -1  12   -0.02    0.22
  -2   1 -12    1.00    0.35
  -2   1 -12    0.27    0.22
  -2   1 -12   -0.04    0.35
  -3  -2  10    0.62    0.39
  -3  -2  10    2.27    0.66
  -3  -2  10    0.48    0.28
  -3  -2  10    3.33    1.27
   3   2 -10    1.10    0.50
   3   2 -10    3.04    0.94
   3   2 -10    1.69    0.56
   3   2 -10    1.25    0.59
   0  -2  11    4.94    0.77
   0  -2  11    3.92    0.36
   0  -2  11    2.73    0.53
   0   2 -11    3.66    0.59
   0   2 -11    5.71    1.15
   0   2 -11    2.48    0.40
   3  -2  12    0.05    0.28
   3  -2  12   -0.16    0.19
   3  -2  12   -0.29    0.22
   3  -2  12   -0.34    0.23
  -3   2 -12    0.01    0.22
  -3   2 -12    0.29    0.45
  -2  -3  10   -0.31    0.37
  -2  -3  10    0.17    0.45
  -2  -3  10    0.18    0.22
  -2  -3  10    0.63    0.35
   2   3 -10    0.37    0.56
   2   3 -10   -0.12    0.24
   2   3 -10   -0.08    0.47
   2   3 -10    0.33    0.47
   1  -3  11    5.62    0.70
   1  -3  11    4.68    0.49
   1  -3  11    4.72    1.02
   1  -3  11    2.63    0.71
  -1   3 -11    3.61    0.58
  -1   3 -11    6.76    1.60
  -1   3 -11    3.32    0.57
  -1   3 -11    4.12    0.73
  -4  -4   9    0.92    0.46
  -4  -4   9    0.28    0.28
   4   4  -9    1.60    0.68
   4   4  -9    1.39    0.56
   4   4  -9    0.38    0.32
   4   4  -9    0.81    0.31
   4   4  -9    2.18    0.90
  -1  -4  10    0.88    0.37
  -1  -4  10    1.47    0.54
  -1  -4  10    0.64    0.46
   1   4 -10    0.90    0.66
   1   4 -10    1.05    0.33
   2  -4  11   -0.18    0.20
   2  -4  11   -0.60    0.24
  -2   4 -11   -0.04    0.21
  -2   4 -11    0.15    0.39
  -3  -5   9    2.75    0.75
  -3  -5   9    2.24    0.52
  -3  -5   9    1.33    0.42
   3   5  -9    3.79    0.81
   3   5  -9    2.32    0.48
   3   5  -9    2.80    0.80
   3   5  -9    1.60    0.37
   3   5  -9    2.86    0.90
   0  -5  10    2.91    0.55
   0  -5  10    3.46    0.40
   0   5 -10    4.20    1.31
  -2  -6   9    1.26    0.71
  -2  -6   9    1.32    0.50
  -2  -6   9    1.05    0.25
   2   6  -9    0.74    0.54
   2   6  -9    1.83    0.86
   2   6  -9    0.88    0.29
   2   6  -9    1.91    0.60
   1  -6  10    0.39    0.36
   1  -6  10    2.30    0.85
   1  -6  10    0.86    0.34
  -1   6 -10    0.69    0.41
  -1   6 -10    1.13    1.08
   1   7  -9    1.11    0.83
   1   7  -9    2.34    0.58
  -2   8  14    0.20    0.34
  -2   8  14    0.25    0.46
  -2   8  14   -0.05    0.24
   2  -8 -14   -0.35    0.25
   2  -8 -14    0.23    0.38
   2  -8 -14   -0.22    0.19
   1   8  15    0.24    0.39
   1   8  15   -0.63    0.30
   1   8  15   -1.19    0.56
  -1  -8 -15    0.20    0.43
  -1  -8 -15   -0.34    0.21
  -1  -8 -15   -0.49    0.25
  -1   7  14    1.27    0.47
  -1   7  14    0.46    0.25
   1  -7 -14    0.87    0.32
   1  -7 -14    0.36    0.37
   2   7  15   -0.07    0.36
   2   7  15    1.01    0.53
   2   7  15    0.64    0.47
   2   7  15    0.67    0.56
  -2  -7 -15    1.95    0.63
  -3   6  13   -0.10    0.24
  -3   6  13    0.39    0.36
   3  -6 -13    0.15    0.26
   0   6  14    0.79    0.46
   0   6  14    0.65    0.23
   0  -6 -14    2.24    0.46
   3   6  15    2.08    0.69
   3   6  15    2.19    0.55
   3   6  15    2.89    0.44
  -3  -6 -15    2.43    0.55
  -3  -6 -15    4.15    0.57
  -2   5  13    0.86    0.41
  -2   5  13    0.88    0.43
  -2   5  13    0.33    0.40
  -2   5  13    0.37    0.23
   2  -5 -13    1.55    0.34
   2  -5 -13    0.83    0.28
   1   5  14    0.24    0.37
   1   5  14   -0.12    0.13
  -1  -5 -14    0.02    0.24
  -1  -5 -14    0.17    0.29
  -4   4  12    0.30    0.32
  -4   4  12   -0.40    0.23
  -4   4  12   -0.58    0.32
  -4   4  12    1.23    0.89
   4  -4 -12    0.61    0.72
  -1   4  13    3.19    0.70
  -1   4  13    1.82    0.33
  -1   4  13    1.95    0.44
   1  -4 -13    2.57    0.71
   1  -4 -13    2.01    0.36
   1  -4 -13    1.48    0.37
   1  -4 -13    2.35    0.31
   2   4  14   -0.48    0.38
   2   4  14    0.46    0.39
   2   4  14    0.13    0.38
   2   4  14   -0.04    0.47
  -2  -4 -14    0.16    0.30
  -2  -4 -14    0.79    0.56
  -2  -4 -14   -0.21    0.28
  -2  -4 -14    0.05    0.30
  -3   3  12   -0.12    0.20
  -3   3  12    0.23    0.30
   3  -3 -12   -0.31    0.52
   3  -3 -12    0.04    0.27
   3  -3 -12    0.03    0.18
   0   3  13    5.55    0.84
   0   3  13    5.74    0.70
   0   3  13    5.04    0.55
   0  -3 -13    6.02    0.84
   0  -3 -13    4.76    0.51
   3   3  14    0.34    0.37
  -3  -3 -14    0.88    0.38
  -3  -3 -14    1.00    0.45
  -5   2  11    0.56    0.40
  -5   2  11    0.25    0.31
   5  -2 -11    1.21    0.66
  -2   2  12    0.18    0.37
  -2   2  12    0.53    0.23
  -2   2  12    0.14    0.24
   2  -2 -12    0.61    0.25
   2  -2 -12    0.73    0.35
   2  -2 -12    0.87    0.53
   1   2  13    0.82    0.22
   1   2  13    1.09    0.37
   1   2  13    0.87    0.56
  -1  -2 -13    1.67    0.77
  -1  -2 -13    1.01    0.36
  -1  -2 -13    1.11    0.39
   4   2  14    1.74    0.64
   4   2  14    1.13    0.29
   4   2  14    1.77    0.54
  -4  -2 -14    1.62    0.33
  -4  -2 -14    0.75    0.45
  -4   1  11    1.28    0.38
  -4   1  11    0.44    1.44
  -4   1  11    1.45    0.43
   4  -1 -11    3.03    0.97
   4  -1 -11    3.34    0.91
  -1   1  12    0.00    0.19
  -1   1  12    0.03    0.26
   1  -1 -12   -0.19    0.24
   1  -1 -12    0.43    0.24
   1  -1 -12    0.32    0.47
   2   1  13    0.28    0.20
   2   1  13   -0.09    0.24
   2   1  13    0.14    0.15
   2   1  13   -0.25    0.44
   2   1  13    0.16    0.29
  -2  -1 -13   -0.42    0.75
  -2  -1 -13    0.27    0.36
  -2  -1 -13    0.33    0.27
  -2  -1 -13    0.19    0.23
  -2  -1 -13    0.28    0.35
  -3   0  11    2.15    0.44
  -3   0  11    1.70    0.47
   3   0 -11    2.62    0.40
   3   0 -11    2.38    0.55
   3   0 -11    3.62    0.97
   0   0  12    3.65    0.94
   0   0 -12    1.75    0.40
   0   0 -12    2.34    0.80
   0   0 -12    0.98    0.29
   3   0  13   -0.42    0.28
   3   0  13    0.12    0.17
   3   0  13   -0.35    0.22
   3   0  13   -0.27    0.25
  -3   0 -13   -0.49    0.21
  -3   0 -13    0.06    0.40
  -5  -1  10    0.31    0.35
   5   1 -10    0.48    0.37
   5   1 -10    1.47    0.68
   5   1 -10   -0.11    0.37
   5   1 -10    0.65    0.69
  -2  -1  11    1.02    0.39
  -2  -1  11    1.07    0.41
  -2  -1  11    1.20    0.44
  -2  -1  11    1.98    0.61
   2   1 -11    2.28    0.81
   2   1 -11    2.18    0.58
   2   1 -11    1.52    0.36
   1  -1  12    4.03    0.65
   1  -1  12    3.24    0.46
   1  -1  12    3.47    0.58
  -1   1 -12    1.97    0.40
  -1   1 -12    2.58    0.60
  -1   1 -12    4.22    1.17
  -4  -2  10    0.31    0.26
  -4  -2  10   -0.17    0.31
  -4  -2  10    1.84    0.55
   4   2 -10    0.00    0.48
   4   2 -10    0.17    0.35
   4   2 -10    0.32    0.56
   4   2 -10   -0.30    0.26
  -1  -2  11    0.20    0.29
  -1  -2  11    0.37    0.35
  -1  -2  11    1.50    0.71
  -1  -2  11   -0.03    0.36
   1   2 -11    0.01    0.22
   1   2 -11   -0.15    0.17
   2  -2  12    3.64    0.55
   2  -2  12    3.53    0.41
   2  -2  12    2.26    0.43
   2  -2  12    2.73    0.49
  -2   2 -12    2.45    0.52
  -2   2 -12    3.39    0.74
  -3  -3  10    4.11    0.81
  -3  -3  10    1.50    0.39
  -3  -3  10    1.54    0.44
   3   3 -10    0.90    0.28
   3   3 -10    2.30    0.64
   3   3 -10    2.52    0.80
   3   3 -10    2.34    0.89
   0  -3  11    0.49    0.30
   0  -3  11    1.75    0.69
   0  -3  11    0.35    0.20
   0   3 -11    0.29    0.56
   0   3 -11    0.24    0.23
   3  -3  12    0.45    0.44
   3  -3  12   -0.27    0.18
   3  -3  12    0.02    0.30
  -3   3 -12   -0.11    0.37
  -2  -4  10    2.11    0.62
   2   4 -10    0.62    0.48
   2   4 -10    1.91    0.77
   2   4 -10    1.85    0.71
   1  -4  11    3.64    0.84
   1  -4  11    2.60    0.52
   1  -4  11    2.58    0.45
  -1   4 -11    3.60    1.34
  -1   4 -11    1.81    0.50
  -1   4 -11    1.12    0.34
  -1  -5  10    0.93    0.43
   1   5 -10    1.87    0.72
   2  -5  11    0.07    0.28
   2  -5  11   -0.28    0.26
  -2   5 -11   -0.39    0.36
   0  -6  10    1.13    0.27
   0  -6  10    0.40    0.34
   0  -6  10    3.72    0.93
   0   6 -10    1.31    0.86
   0   8  15    0.46    0.24
   0   8  15    1.53    0.52
   0  -8 -15    0.62    0.26
   0  -8 -15    0.56    0.33
  -2   7  14   -0.17    0.25
  -2   7  14    0.47    0.36
  -2   7  14    0.00    0.54
   2  -7 -14    0.21    0.39
   2  -7 -14   -0.11    0.24
   1   7  15   -0.18    0.37
  -1  -7 -15    0.16    0.19
  -1   6  14   -0.27    0.34
  -1   6  14   -0.39    0.17
  -1   6  14   -0.55    0.34
   1  -6 -14    0.19    0.34
   2   6  15   -0.14    0.41
   2   6  15   -0.80    0.40
   2   6  15    0.93    0.61
   2   6  15    0.36    0.44
  -2  -6 -15    0.87    0.40
  -2  -6 -15    0.93    0.35
  -3   5  13    0.77    0.39
  -3   5  13    0.01    0.31
  -3   5  13    0.07    0.23
   3  -5 -13    0.05    0.22
   3  -5 -13    0.39    0.26
   0   5  14    0.65    0.41
   0   5  14    0.58    0.21
   0  -5 -14    0.74    0.36
   3   5  15    1.02    0.38
   3   5  15    0.52    0.49
  -3  -5 -15    0.69    0.39
  -3  -5 -15    0.68    0.68
  -2   4  13    2.02    0.40
  -2   4  13    2.20    0.54
  -2   4  13    2.28    0.47
  -2   4  13    3.80    0.69
   2  -4 -13    3.49    0.38
   2  -4 -13    3.93    0.93
   1   4  14    0.32    0.42
   1   4  14   -0.35    0.42
   1   4  14    0.24    0.17
  -1  -4 -14    1.61    0.52
  -1  -4 -14    0.72    0.35
  -1  -4 -14    0.43    0.28
  -4   3  12    0.86    0.33
  -4   3  12    1.39    0.46
   4  -3 -12    4.17    1.20
  -1   3  13    5.99    0.73
  -1   3  13    4.73    0.58
  -1   3  13    3.55    0.64
   1  -3 -13    5.83    0.82
   1  -3 -13    4.50    0.46
   1  -3 -13    4.06    0.62
   1  -3 -13    5.20    0.43
   2   3  14    0.25    0.17
   2   3  14    0.10    0.37
   2   3  14    0.23    0.14
  -2  -3 -14    1.20    0.35
  -2  -3 -14    0.71    0.29
  -2  -3 -14    0.34    0.35
  -2  -3 -14    1.04    0.78
  -3   2  12    0.50    0.27
  -3   2  12    0.70    0.38
   3  -2 -12    1.47    0.30
   3  -2 -12    2.03    0.46
   3  -2 -12    1.33    0.60
   0   2  13    0.74    0.33
   0   2  13    0.77    0.24
   0   2  13   -0.13    0.48
   0  -2 -13    1.18    0.33
   0  -2 -13    0.62    0.36
   0  -2 -13    1.10    0.37
   0  -2 -13    2.08    0.71
   3   2  14    1.33    0.56
  -3  -2 -14    1.17    0.57
  -3  -2 -14    0.85    0.33
  -2   1  12   -0.01    0.18
  -2   1  12    0.30    0.30
   2  -1 -12   -0.23    0.19
   2  -1 -12    0.57    0.56
   2  -1 -12    0.32    0.36
   1   1  13    2.79    0.80
   1   1  13    0.72    0.36
   1   1  13    0.30    0.19
  -1  -1 -13    1.17    0.65
  -1  -1 -13    0.20    0.20
  -4   0  11    0.44    0.29
  -4   0  11    0.50    0.38
   4   0 -11    1.48    0.72
   4   0 -11    2.88    0.92
   4   0 -11    1.57    0.44
  -1   0  12    0.36    0.32
  -1   0  12    3.56    1.05
   1   0 -12    1.43    0.63
   1   0 -12    0.39    0.26
   2   0  13    0.18    0.33
   2   0  13    0.52    0.24
   2   0  13    0.73    0.31
   2   0  13    0.04    0.20
  -2   0 -13    0.77    0.44
  -2   0 -13    0.64    0.96
  -2   0 -13    0.35    0.26
  -3  -1  11    0.35    0.34
  -3  -1  11    1.33    0.53
   3   1 -11    0.51    0.49
   3   1 -11    0.22    0.58
   3   1 -11    0.70    0.42
   0  -1  12    0.96    0.39
   0  -1  12    0.80    0.27
   0  -1  12    3.09    0.92
   0   1 -12    0.57    0.26
   0   1 -12    1.76    0.78
   0   1 -12    1.48    0.40
   3  -1  13   -0.07    0.28
   3  -1  13   -0.51    0.22
   3  -1  13    0.53    0.41
   3  -1  13   -0.27    0.16
  -3   1 -13    0.12    0.44
  -2  -2  11    0.33    0.33
  -2  -2  11    1.14    0.58
  -2  -2  11    0.30    0.26
   2   2 -11    0.40    0.50
   2   2 -11    0.48    0.27
   2   2 -11    0.57    0.44
   1  -2  12    2.46    0.42
   1  -2  12    2.00    0.44
  -1   2 -12    1.79    0.91
  -1   2 -12    1.82    0.40
  -1   2 -12    1.51    0.44
  -1   2 -12    1.87    0.52
  -4  -3  10   -0.40    0.31
  -4  -3  10    1.00    0.59
  -4  -3  10    0.28    0.31
   4   3 -10    1.00    0.54
   4   3 -10   -0.12    0.25
   4   3 -10    1.20    0.61
   4   3 -10    0.30    0.40
   4   3 -10    0.27    0.26
  -1  -3  11   -0.06    0.28
  -1  -3  11    2.43    0.78
  -1  -3  11    0.82    0.44
   1   3 -11    0.24    0.65
   1   3 -11    0.26    0.27
   2  -3  12    0.85    0.23
   2  -3  12    0.86    0.33
   2  -3  12    1.22    0.40
   2  -3  12    0.00    0.26
  -2   3 -12    1.27    0.55
  -2   3 -12    0.64    0.29
  -3  -4  10    0.83    0.42
  -3  -4  10    1.57    0.61
   3   4 -10    0.34    0.32
   3   4 -10    1.12    0.61
   3   4 -10    1.05    0.48
   3   4 -10    0.79    0.69
   0  -4  11    1.07    0.42
   0   4 -11    2.73    0.98
   0   4 -11    2.01    0.53
  -2  -5  10    0.80    0.59
  -2  -5  10    0.03    0.38
   2   5 -10   -0.36    0.46
   2   5 -10   -0.50    0.22
   2   5 -10    0.79    0.77
   2   5 -10    0.27    0.41
   2   5 -10    0.25    0.26
   1  -5  11    0.69    0.65
   1  -5  11    0.07    0.24
   1  -5  11   -0.33    0.30
  -1   5 -11    0.30    0.38
  -1   5 -11   -0.58    0.79
  -1  -6  10    0.78    0.39
   1   6 -10   -0.63    0.48
   1   6 -10    1.32    0.77
   1   6 -10    0.49    0.29
  -1   8  15    2.10    0.50
   1  -8 -15    2.45    0.53
   1  -8 -15    1.83    0.56
   0   7  15   -0.25    0.18
   0   7  15    0.43    0.40
   0   7  15   -1.21    0.45
   0  -7 -15   -0.56    0.37
  -2   6  14   -0.28    0.20
  -2   6  14   -0.54    0.34
   2  -6 -14    0.54    0.34
   2  -6 -14   -0.06    0.25
   1   6  15    1.08    0.47
  -1  -6 -15    1.05    0.40
  -1   5  14   -0.30    0.35
  -1   5  14   -0.59    0.32
  -1   5  14   -0.36    0.17
   1  -5 -14    0.85    0.47
   1  -5 -14    0.25    0.26
   2   5  15    0.00    0.48
   2   5  15    0.05    0.42
   2   5  15    1.14    0.54
  -2  -5 -15    0.72    0.48
  -3   4  13    2.60    0.58
  -3   4  13    1.97    0.48
   3  -4 -13    3.21    0.40
   3  -4 -13    2.99    0.45
   3  -4 -13    4.43    0.76
   0   4  14    1.74    0.46
   0   4  14    0.92    0.51
   0   4  14    1.30    0.52
   0   4  14    0.86    0.25
   0  -4 -14    1.99    0.39
   0  -4 -14    2.67    0.71
   3   4  15    0.87    0.33
   3   4  15    0.33    0.45
  -3  -4 -15   -0.30    0.23
  -3  -4 -15    0.30    0.35
  -2   3  13    0.40    0.35
  -2   3  13   -0.11    0.16
   2  -3 -13    0.03    0.24
   2  -3 -13    0.27    0.25
   2  -3 -13    1.07    0.52
   1   3  14    1.38    0.26
   1   3  14    3.28    0.77
   1   3  14    1.09    0.59
   1   3  14    1.32    0.45
  -1  -3 -14    2.00    0.45
  -1  -3 -14    0.70    0.35
  -4   2  12    1.66    0.47
  -4   2  12   -0.01    1.46
  -4   2  12    1.24    0.39
   4  -2 -12    2.49    0.54
   4  -2 -12    2.83    0.92
  -1   2  13    0.01    0.35
  -1   2  13    0.17    0.18
  -1   2  13   -0.21    0.25
   1  -2 -13   -0.26    0.23
   1  -2 -13    0.17    0.20
   1  -2 -13   -0.33    0.31
   1  -2 -13    0.29    0.42
   2   2  14    1.11    0.52
   2   2  14    1.18    0.26
   2   2  14    0.94    0.35
   2   2  14    1.05    0.22
  -2  -2 -14    1.33    0.55
  -2  -2 -14    0.57    0.42
  -2  -2 -14    0.64    0.28
  -2  -2 -14    1.43    0.81
  -3   1  12    0.04    0.22
  -3   1  12   -0.26    0.28
   3  -1 -12    0.39    0.55
   3  -1 -12   -0.14    0.31
   3  -1 -12    0.07    0.24
   3  -1 -12   -0.31    0.60
   0   1  13    0.81    0.59
   0   1  13   -0.20    0.24
   0   1  13    0.58    0.24
   0  -1 -13    1.79    0.74
   0  -1 -13    0.63    0.27
   0  -1 -13    0.30    0.30
   3   1  14   -0.35    0.18
   3   1  14   -0.52    0.29
   3   1  14   -0.08    0.32
   3   1  14   -0.76    0.40
   3   1  14    0.06    0.13
  -3  -1 -14   -0.26    0.23
  -3  -1 -14    0.11    0.38
  -2   0  12    1.27    0.36
  -2   0  12    1.55    0.41
   2   0 -12    1.41    0.36
   2   0 -12    2.07    0.60
   2   0 -12    1.92    0.70
   1   0  13    0.37    0.22
   1   0  13    1.20    0.59
   1   0  13    0.36    0.32
  -1   0 -13    0.07    0.23
  -1   0 -13   -0.44    0.20
  -1   0 -13    0.29    0.62
  -4  -1  11    0.13    0.34
  -4  -1  11    0.20    0.25
   4   1 -11    0.56    0.54
   4   1 -11    0.23    0.63
   4   1 -11    0.51    0.62
  -1  -1  12    0.19    0.29
  -1  -1  12   -0.12    0.18
  -1  -1  12    0.57    0.36
  -1  -1  12    2.72    0.94
   1   1 -12    0.00    0.22
   2  -1  13    0.53    0.33
   2  -1  13    0.49    0.28
   2  -1  13    0.85    0.34
  -2   1 -13   -0.10    0.84
  -2   1 -13    0.18    0.28
  -2   1 -13    1.35    0.54
  -3  -2  11    0.58    0.31
  -3  -2  11   -0.26    0.32
  -3  -2  11    0.52    0.54
   3   2 -11    0.79    0.53
   3   2 -11    0.45    0.58
   3   2 -11    0.20    0.28
   3   2 -11    0.14    0.59
   0  -2  12    4.01    0.96
   0  -2  12    1.14    0.41
   0   2 -12    1.80    0.89
  -2  -3  11    0.51    0.29
  -2  -3  11    0.43    0.33
  -2  -3  11    1.13    0.58
   2   3 -11    0.36    0.49
   2   3 -11   -0.08    0.28
   2   3 -11    0.54    0.69
   2   3 -11    0.88    0.56
   1  -3  12    7.41    0.80
   1  -3  12    4.74    0.52
   1  -3  12    5.56    0.71
  -1   3 -12    4.97    0.77
  -1   3 -12    7.18    1.52
   2  -4  12   -0.06    0.28
   2  -4  12    0.28    0.31
   2  -4  12    0.10    0.18
  -2   4 -12   -1.12    1.02
  -2   4 -12   -0.05    0.41
   0  -5  11    0.61    0.25
   0  -5  11   -0.06    0.35
   0   5 -11    1.23    0.82
  -1   7  15    0.25    0.25
  -1   7  15    0.54    0.44
   1  -7 -15    0.33    0.32
   1  -7 -15    1.38    0.45
   0   6  15   -0.10    0.19
   0   6  15   -0.94    0.52
   0   6  15   -0.57    0.34
   0  -6 -15    0.64    0.37
  -2   5  14    0.27    0.41
  -2   5  14    0.28    0.26
  -2   5  14    0.25    0.35
   2  -5 -14    0.63    0.26
   2  -5 -14    0.56    0.29
   2  -5 -14    1.08    0.57
   1   5  15    0.63    0.46
  -1  -5 -15    0.15    0.30
  -1   4  14    1.33    0.56
  -1   4  14    1.27    0.39
   1  -4 -14    2.85    0.71
   1  -4 -14    2.42    0.38
   1  -4 -14    2.17    0.40
   2   4  15   -0.71    0.42
   2   4  15    0.28    0.36
   2   4  15    0.46    0.43
  -2  -4 -15    0.99    0.58
  -3   3  13    0.71    0.36
   3  -3 -13    0.22    0.23
   3  -3 -13    0.52    0.30
   3  -3 -13    0.97    0.49
   0   3  14   -0.09    0.18
   0   3  14   -0.52    0.24
   0   3  14   -0.16    0.42
   0  -3 -14    0.75    0.50
  -2   2  13   -0.29    0.22
  -2   2  13    0.24    0.30
   2  -2 -13    0.02    0.27
   2  -2 -13    0.65    0.53
   2  -2 -13    0.03    0.25
   1   2  14    0.01    0.17
   1   2  14   -0.09    0.27
  -1  -2 -14    0.15    0.24
  -1  -2 -14   -0.05    0.21
  -1  -2 -14   -0.28    0.28
  -1  -2 -14   -0.06    0.46
  -4   1  12    0.05    0.35
  -4   1  12    0.51    0.34
   4  -1 -12    0.60    0.79
   4  -1 -12    0.58    0.34
   4  -1 -12    2.11    0.76
  -1   1  13    0.06    0.20
  -1   1  13    0.10    0.28
   1  -1 -13    0.20    0.20
   1  -1 -13    0.60    0.49
   2   1  14   -0.40    0.26
   2   1  14    0.25    0.19
   2   1  14   -0.06    0.22
  -2  -1 -14    0.63    0.42
  -2  -1 -14    0.06    0.25
  -2  -1 -14    0.08    0.72
  -3   0  12    0.98    0.43
  -3   0  12    0.38    0.27
   3   0 -12    0.49    0.29
   3   0 -12    1.12    0.71
   3   0 -12    1.65    0.92
   3   0 -12    1.67    0.50
   0   0  13   -0.06    0.18
   0   0  13    2.57    0.91
   0   0  13   -0.40    0.26
   0   0 -13    0.05    0.51
   3   0  14    0.06    0.28
   3   0  14   -0.12    0.19
   3   0  14    0.43    0.23
   3   0  14    0.66    0.37
   3   0  14    0.52    0.56
  -2  -1  12    0.24    0.23
  -2  -1  12    0.80    0.36
  -2  -1  12    1.13    0.52
   2   1 -12    0.17    0.53
   2   1 -12   -0.20    0.38
   2   1 -12    0.34    0.28
   1  -1  13    1.59    0.34
   1  -1  13    2.84    0.45
   1  -1  13    2.10    0.45
  -1   1 -13    2.82    0.52
  -1   1 -13    2.90    0.98
  -1  -2  12    0.03    0.30
  -1  -2  12    0.92    0.40
   1   2 -12    0.34    0.56
   2  -2  13    0.17    0.36
   2  -2  13    0.26    0.32
   2  -2  13    0.53    0.29
  -2   2 -13   -0.44    0.24
  -2   2 -13   -0.60    0.97
  -2   2 -13    0.28    0.46
  -3  -3  11    0.90    0.58
  -3  -3  11    0.10    0.41
  -3  -3  11   -0.27    0.23
   3   3 -11    1.10    0.58
   3   3 -11    1.33    0.72
   3   3 -11   -0.54    0.26
   3   3 -11    0.38    0.45
   0  -3  12    0.42    0.37
   0   3 -12    0.45    0.32
   0   3 -12    0.40    0.74
  -2  -4  11    0.01    0.37
  -2  -4  11    0.45    0.29
  -2  -4  11    1.47    0.62
   2   4 -11   -0.15    0.47
   2   4 -11   -0.24    0.32
   2   4 -11   -0.83    0.46
   2   4 -11    0.80    0.73
   1  -4  12   -0.67    0.28
   1  -4  12    0.74    0.58
   1  -4  12   -0.46    0.24
  -1   4 -12   -0.68    0.71
   1   5 -11    1.05    0.85
  -1   6  15    0.33    0.45
  -1   6  15   -0.14    0.22
   1  -6 -15    0.75    0.44
  -3   5  14   -0.18    0.36
  -3   5  14    0.06    0.43
  -3   5  14   -0.15    0.26
   3  -5 -14    0.03    0.27
   0   5  15    0.63    0.47
   0  -5 -15    1.86    0.56
   0  -5 -15    1.51    0.42
  -2   4  14    0.32    0.45
  -2   4  14   -0.25    0.26
  -2   4  14    0.01    0.35
   2  -4 -14    1.13    0.47
   2  -4 -14    0.03    0.19
   1   4  15    0.08    0.16
   1   4  15   -0.18    0.39
  -1  -4 -15    0.33    0.30
  -1  -4 -15    1.55    0.53
  -1   3  14   -0.10    0.19
  -1   3  14    0.16    0.33
   1  -3 -14    0.66    0.32
   1  -3 -14    0.44    0.26
   1  -3 -14    1.07    0.48
   1  -3 -14    0.31    0.25
   2   3  15    0.11    0.15
   2   3  15   -0.37    0.39
   2   3  15    0.09    0.19
  -2  -3 -15    0.90    0.63
  -2  -3 -15    0.21    0.38
  -3   2  13    0.18    0.26
  -3   2  13    0.14    0.34
   3  -2 -13    0.21    0.24
   3  -2 -13    1.40    0.64
   3  -2 -13    1.02    0.36
   0   2  14    0.03    0.26
   0   2  14   -0.08    0.19
   0  -2 -14    0.45    0.51
  -2   1  13    0.27    0.31
  -2   1  13    0.04    0.21
   2  -1 -13    0.57    0.56
   2  -1 -13   -0.08    0.34
   2  -1 -13   -0.04    0.22
   1   1  14    0.28    0.22
   1   1  14    0.89    0.38
   1   1  14    3.80    1.07
  -1  -1 -14    1.49    0.76
   2   0  14    0.33    0.34
   2   0  14   -0.41    0.26
   2   0  14    0.20    0.27
   2   0  14   -0.16    0.15
  -2   0 -14    0.55    0.45
  -2   0 -14   -0.98    0.66
  -3  -1  12    0.05    0.22
  -3  -1  12   -0.05    0.35
   3   1 -12    0.05    0.61
   3   1 -12   -0.53    0.23
   3   1 -12    0.16    0.57
   3   1 -12    0.20    0.34
   0  -1  13    1.50    0.45
   0  -1  13    6.04    1.00
   0   1 -13    3.18    1.04
  -2  -2  12    0.82    0.57
  -2  -2  12    0.63    0.33
  -2  -2  12    0.05    0.34
   2   2 -12    0.54    0.30
   2   2 -12    0.23    0.48
   2   2 -12    1.46    0.68
   1  -2  13    0.14    0.27
   1  -2  13    0.29    0.36
  -1   2 -13    0.35    0.69
   0  -4  12    0.48    0.42
   0   4 -12    0.69    0.68
  -1   5  15    1.57    0.56
   1  -5 -15    1.77    0.38
  -3   4  14    0.03    0.41
  -3   4  14   -0.17    0.40
   3  -4 -14    1.55    0.62
   3  -4 -14    0.20    0.29
   0   4  15    0.17    0.28
   0   4  15    0.04    0.19
   0   4  15   -0.52    0.36
   0  -4 -15    0.13    0.30
   0  -4 -15    1.00    0.48
  -2   3  14   -0.13    0.23
  -2   3  14    0.00    0.36
   2  -3 -14    0.41    0.26
   2  -3 -14    1.23    0.47
   2  -3 -14   -0.20    0.22
   1   3  15    1.30    0.58
   1   3  15    0.46    0.21
   1   3  15   -0.02    0.31
  -1  -3 -15    0.78    0.40
  -1   2  14    0.28    0.21
  -1   2  14    0.42    0.36
   1  -2 -14    0.49    0.26
   1  -2 -14    1.31    0.57
   1  -2 -14   -0.25    0.37
   2   2  15   -0.03    0.21
   2   2  15   -0.35    0.25
   2   2  15   -0.05    0.58
   2   2  15   -0.07    0.17
  -2  -2 -15    0.15    0.33
  -2  -2 -15    0.18    0.58
  -2  -2 -15   -0.91    0.37
  -3   1  13   -0.14    0.20
  -3   1  13   -0.23    0.31
   3  -1 -13    0.70    0.62
   3  -1 -13    0.19    0.32
   3  -1 -13   -0.81    0.70
   3  -1 -13    0.32    0.27
   0   1  14    0.25    0.31
   0   1  14    0.65    0.23
   0  -1 -14    0.41    0.25
   0  -1 -14    0.78    0.54
  -2   0  13    0.97    0.41
   2   0 -13    1.79    0.57
   2   0 -13    2.36    0.76
   2   0 -13    0.89    0.31
   1   0  14   -0.47    0.26
   1   0  14   -0.02    0.18
  -1   0 -14    0.50    0.65
   0  -2  13    2.51    0.58
   0   2 -13    3.36    1.09
  -2  -3  12   -0.21    0.25
  -2  -3  12    2.07    0.65
  -2  -3  12    0.32    0.43
   2   3 -12   -0.49    0.60
   2   3 -12   -0.57    0.26
   2   3 -12    0.95    0.63
   2   3 -12    0.03    0.51
  -1   4  15   -0.40    0.27
  -1   4  15   -0.27    0.19
  -1   4  15    0.30    0.50
   1  -4 -15    0.17    0.22
   0   3  15    0.19    0.19
   0   3  15    0.82    0.39
   0   3  15   -0.08    0.51
   0  -3 -15    0.68    0.34
   0  -3 -15    1.52    0.53
   0  -3 -15    0.01    0.31
  -2   2  14    0.65    0.40
   2  -2 -14    0.53    0.34
   2  -2 -14   -0.11    0.24
  -1  -2 -15    1.67    0.62
  -1   1  14   -0.07    0.32
   1  -1 -14   -0.12    0.37
   0   0 -14    0.48    0.33
   0   0 -14    1.81    0.75
  -2  -1  13    1.71    0.57
   2   1 -13    0.57    0.52
   1  -1  14    3.81    0.65
   1  -1  14    3.11    0.47
  -1   1 -14    5.86    1.34
  -1  -2  13    0.40    0.27
  -1  -2  13    0.12    0.40
   1   2 -13    0.21    0.32
   1   2 -13    0.64    0.55
  -1   3  15    0.10    0.35
  -1   3  15    1.07    0.62
   1  -3 -15    0.59    0.32
   1  -3 -15    1.28    0.40
   0   2  15    0.31    0.40
   0   2  15   -0.21    0.18
   0  -2 -15    1.01    0.50
  -2   1  14    0.36    0.39
  -2   1  14    0.04    0.24
   2  -1 -14    0.08    0.25
   2  -1 -14    0.87    0.51
   2  -1 -14   -0.05    0.29
  -1   0  14    0.80    0.29
  -1   0  14    1.90    0.59
  -1   0  14    0.70    0.44
   1   0 -14    1.90    0.71
   0  -1  14    7.35    0.79
   0  -1  14    6.18    0.83
   0   0   0    0.00    0.00
;
_shelx_hkl_checksum              74717
loop_
_space_group_symop_operation_xyz
'x, y, z'
'-x, -y, -z'
loop_
_atom_site_label
_atom_site_type_symbol
_atom_site_fract_x
_atom_site_fract_y
_atom_site_fract_z
_atom_site_U_iso_or_equiv
_atom_site_adp_type
_atom_site_occupancy
_atom_site_site_symmetry_order
_atom_site_calc_flag
_atom_site_refinement_flags_posn
_atom_site_refinement_flags_adp
_atom_site_refinement_flags_occupancy
_atom_site_disorder_assembly
_atom_site_disorder_group
C1 C 0.3531(5) 0.5478(2) 0.1142(2) 0.0607(7) Uani 1 1 d . . . . .
C2 C 0.2057(6) 0.4575(3) 0.1165(3) 0.0863(10) Uani 1 1 d . . . . .
H2 H 0.0876 0.4856 0.0786 0.104 Uiso 1 1 calc R U . . .
C3 C 0.2310(8) 0.3293(3) 0.1730(3) 0.1089(14) Uani 1 1 d . . . . .
H3 H 0.1298 0.2689 0.1752 0.131 Uiso 1 1 calc R U . . .
C4 C 0.4054(9) 0.2875(3) 0.2272(3) 0.1117(16) Uani 1 1 d . . . . .
H4 H 0.4227 0.1983 0.2648 0.134 Uiso 1 1 calc R U . . .
C5 C 0.5503(7) 0.3711(3) 0.2276(3) 0.0906(11) Uani 1 1 d . . . . .
H5 H 0.6669 0.3403 0.2660 0.109 Uiso 1 1 calc R U . . .
C6 C 0.5290(5) 0.5058(2) 0.1704(2) 0.0645(7) Uani 1 1 d . . . . .
C7 C 0.6711(4) 0.5971(3) 0.1713(2) 0.0635(7) Uani 1 1 d . . . . .
H7 H 0.7886 0.5694 0.2097 0.076 Uiso 1 1 calc R U . . .
C8 C 0.6434(4) 0.7246(2) 0.11806(19) 0.0514(6) Uani 1 1 d . . . . .
H8 H 0.7412 0.7846 0.1202 0.062 Uiso 1 1 calc R U . . .
C9 C 0.4696(3) 0.7691(2) 0.05922(17) 0.0409(5) Uani 1 1 d . . . . .
C10 C 0.3296(4) 0.6816(2) 0.05812(19) 0.0488(6) Uani 1 1 d . . . . .
H10 H 0.2133 0.7107 0.0189 0.059 Uiso 1 1 calc R U . . .
C11 C 0.4277(3) 0.90923(18) 0.00422(16) 0.0346(5) Uani 1 1 d . . . . .
H11 H 0.3009 0.9175 -0.0340 0.042 Uiso 1 1 calc R U . . .
C12 C 0.4079(3) 0.99259(19) 0.07960(17) 0.0356(5) Uani 1 1 d . . . . .
C13 C 0.2035(3) 1.0422(2) 0.08247(18) 0.0401(5) Uani 1 1 d . . . . .
C14 C 0.4513(3) 0.92661(19) 0.20239(17) 0.0373(5) Uani 1 1 d . . . . .
C15 C 0.3299(3) 0.8198(2) 0.27031(18) 0.0464(6) Uani 1 1 d . . . . .
H15 H 0.2238 0.7915 0.2398 0.056 Uiso 1 1 calc R U . . .
C16 C 0.3627(4) 0.7548(2) 0.3815(2) 0.0536(6) Uani 1 1 d . . . . .
C17 C 0.5127(4) 0.7958(2) 0.4284(2) 0.0574(6) Uani 1 1 d . . . . .
H17 H 0.5352 0.7507 0.5049 0.069 Uiso 1 1 calc R U . . .
C18 C 0.6298(3) 0.9039(2) 0.36202(19) 0.0488(6) Uani 1 1 d . . . . .
C19 C 0.5993(3) 0.9689(2) 0.24960(17) 0.0411(5) Uani 1 1 d . . . . .
H19 H 0.6810 1.0430 0.2050 0.049 Uiso 1 1 calc R U . . .
C20 C 0.2301(6) 0.6382(3) 0.4502(3) 0.0817(9) Uani 1 1 d . . . . .
C21 C 0.7879(4) 0.9564(3) 0.4105(2) 0.0647(7) Uani 1 1 d . . . . .
F1 F 0.252(3) 0.5484(13) 0.4086(9) 0.136(7) Uani 0.490(18) 1 d . . P A 1
F2 F 0.0452(17) 0.6597(15) 0.450(3) 0.203(10) Uani 0.490(18) 1 d . . P A 1
F3 F 0.279(4) 0.5809(13) 0.5506(8) 0.140(6) Uani 0.490(18) 1 d . . P A 1
F1' F 0.316(2) 0.5354(8) 0.471(3) 0.223(10) Uani 0.510(18) 1 d . . P A 2
F2' F 0.063(2) 0.6321(14) 0.4096(8) 0.128(7) Uani 0.510(18) 1 d . . P A 2
F3' F 0.157(3) 0.645(2) 0.5473(10) 0.154(6) Uani 0.510(18) 1 d . . P A 2
F4 F 0.9574(16) 0.9840(18) 0.3513(8) 0.130(6) Uani 0.46(2) 1 d . . P B 1
F5 F 0.7245(18) 1.041(2) 0.440(2) 0.151(6) Uani 0.46(2) 1 d . . P B 1
F6 F 0.839(3) 0.8621(16) 0.5057(14) 0.147(6) Uani 0.46(2) 1 d . . P B 1
F4' F 0.9670(12) 0.9383(17) 0.3774(14) 0.140(5) Uani 0.54(2) 1 d . . P B 2
F5' F 0.787(2) 1.0849(7) 0.3763(12) 0.115(4) Uani 0.54(2) 1 d . . P B 2
F6' F 0.770(2) 0.9161(18) 0.5179(6) 0.129(5) Uani 0.54(2) 1 d . . P B 2
N1 N 0.0428(3) 1.0771(2) 0.08803(18) 0.0570(6) Uani 1 1 d . . . . .
loop_
_atom_site_aniso_label
_atom_site_aniso_U_11
_atom_site_aniso_U_22
_atom_site_aniso_U_33
_atom_site_aniso_U_23
_atom_site_aniso_U_13
_atom_site_aniso_U_12
C1 0.093(2) 0.0434(14) 0.0457(14) -0.0188(11) 0.0026(13) -0.0044(13)
C2 0.130(3) 0.0522(18) 0.080(2) -0.0311(16) -0.0010(19) -0.0218(17)
C3 0.182(4) 0.052(2) 0.093(3) -0.035(2) 0.015(3) -0.024(2)
C4 0.203(5) 0.0416(19) 0.080(3) -0.0186(17) 0.019(3) 0.010(3)
C5 0.153(3) 0.0519(19) 0.0560(18) -0.0120(14) 0.0056(19) 0.027(2)
C6 0.099(2) 0.0455(15) 0.0419(14) -0.0124(11) 0.0061(14) 0.0157(14)
C7 0.0721(17) 0.0635(17) 0.0472(14) -0.0127(13) -0.0080(12) 0.0251(14)
C8 0.0517(13) 0.0510(14) 0.0468(13) -0.0124(11) -0.0095(10) 0.0104(11)
C9 0.0442(12) 0.0396(12) 0.0360(11) -0.0118(9) -0.0013(9) 0.0024(9)
C10 0.0600(14) 0.0429(13) 0.0430(13) -0.0160(10) -0.0049(10) -0.0027(11)
C11 0.0286(10) 0.0378(11) 0.0355(11) -0.0115(9) -0.0047(8) -0.0014(8)
C12 0.0273(10) 0.0383(11) 0.0385(11) -0.0112(9) -0.0052(8) -0.0003(8)
C13 0.0317(11) 0.0459(12) 0.0431(12) -0.0174(10) -0.0049(9) -0.0029(9)
C14 0.0307(10) 0.0415(12) 0.0372(11) -0.0129(9) -0.0008(8) -0.0019(8)
C15 0.0422(12) 0.0506(13) 0.0430(13) -0.0145(10) -0.0022(9) -0.0089(10)
C16 0.0601(15) 0.0497(14) 0.0425(13) -0.0097(11) 0.0017(11) -0.0100(11)
C17 0.0643(16) 0.0640(16) 0.0378(13) -0.0119(12) -0.0081(11) -0.0017(12)
C18 0.0450(12) 0.0618(15) 0.0406(12) -0.0200(11) -0.0070(10) -0.0009(11)
C19 0.0355(11) 0.0464(12) 0.0391(12) -0.0147(10) -0.0003(9) -0.0046(9)
C20 0.093(3) 0.072(2) 0.058(2) -0.0017(17) -0.0021(18) -0.0250(19)
C21 0.0606(17) 0.090(2) 0.0449(16) -0.0254(16) -0.0110(13) -0.0052(16)
F1 0.218(17) 0.085(7) 0.101(5) -0.042(5) 0.038(6) -0.082(10)
F2 0.077(7) 0.114(6) 0.31(2) 0.020(11) 0.057(11) -0.029(5)
F3 0.232(15) 0.092(7) 0.053(4) 0.025(3) -0.032(6) -0.078(7)
F1' 0.154(7) 0.050(5) 0.37(3) 0.022(10) 0.011(16) -0.004(4)
F2' 0.129(11) 0.123(9) 0.083(4) 0.020(4) -0.031(5) -0.092(9)
F3' 0.169(9) 0.188(12) 0.066(5) -0.017(6) 0.041(5) -0.108(8)
F4 0.082(7) 0.252(13) 0.065(4) -0.075(5) 0.018(3) -0.098(9)
F5 0.101(5) 0.204(15) 0.249(16) -0.194(14) -0.036(9) 0.011(8)
F6 0.165(9) 0.156(9) 0.105(8) -0.016(6) -0.096(8) -0.019(7)
F4' 0.051(4) 0.219(9) 0.218(13) -0.153(9) -0.047(5) 0.037(5)
F5' 0.137(8) 0.072(3) 0.145(6) -0.036(4) -0.084(6) -0.013(4)
F6' 0.156(8) 0.181(10) 0.041(3) -0.032(5) -0.007(4) -0.089(8)
N1 0.0351(10) 0.0709(14) 0.0680(14) -0.0299(11) -0.0051(9) 0.0050(9)
loop_
_atom_type_symbol
_atom_type_description
_atom_type_scat_dispersion_real
_atom_type_scat_dispersion_imag
_atom_type_scat_source
C C 0.0033 0.0016 'International Tables Vol C Tables 4.2.6.8 and 6.1.1.4'
H H 0.0000 0.0000 'International Tables Vol C Tables 4.2.6.8 and 6.1.1.4'
N N 0.0061 0.0033 'International Tables Vol C Tables 4.2.6.8 and 6.1.1.4'
F F 0.0171 0.0103 'International Tables Vol C Tables 4.2.6.8 and 6.1.1.4'
loop_
_geom_angle_atom_site_label_1
_geom_angle_atom_site_label_2
_geom_angle_atom_site_label_3
_geom_angle
_geom_angle_site_symmetry_1
_geom_angle_site_symmetry_3
_geom_angle_publ_flag
C2 C1 C6 119.7(3) . . ?
C2 C1 C10 121.8(3) . . ?
C6 C1 C10 118.5(2) . . ?
C3 C2 C1 120.4(4) . . ?
C3 C2 H2 119.8 . . ?
C1 C2 H2 119.8 . . ?
C2 C3 C4 120.0(4) . . ?
C2 C3 H3 120.0 . . ?
C4 C3 H3 120.0 . . ?
C5 C4 C3 121.4(3) . . ?
C5 C4 H4 119.3 . . ?
C3 C4 H4 119.3 . . ?
C4 C5 C6 120.3(4) . . ?
C4 C5 H5 119.8 . . ?
C6 C5 H5 119.8 . . ?
C7 C6 C1 119.1(2) . . ?
C7 C6 C5 122.8(3) . . ?
C1 C6 C5 118.1(3) . . ?
C8 C7 C6 121.1(2) . . ?
C8 C7 H7 119.4 . . ?
C6 C7 H7 119.4 . . ?
C7 C8 C9 120.8(2) . . ?
C7 C8 H8 119.6 . . ?
C9 C8 H8 119.6 . . ?
C10 C9 C8 118.8(2) . . ?
C10 C9 C11 118.62(19) . . ?
C8 C9 C11 122.46(19) . . ?
C9 C10 C1 121.7(2) . . ?
C9 C10 H10 119.2 . . ?
C1 C10 H10 119.2 . . ?
C9 C11 C12 121.39(16) . 2_675 ?
C9 C11 C12 118.82(16) . . ?
C12 C11 C12 90.33(14) 2_675 . ?
C9 C11 H11 108.3 . . ?
C12 C11 H11 108.3 2_675 . ?
C12 C11 H11 108.3 . . ?
C13 C12 C14 105.87(16) . . ?
C13 C12 C11 114.95(16) . 2_675 ?
C14 C12 C11 117.92(15) . 2_675 ?
C13 C12 C11 111.05(16) . . ?
C14 C12 C11 117.08(16) . . ?
C11 C12 C11 89.67(14) 2_675 . ?
N1 C13 C12 177.6(2) . . ?
C19 C14 C15 118.70(19) . . ?
C19 C14 C12 123.69(18) . . ?
C15 C14 C12 117.60(18) . . ?
C16 C15 C14 120.5(2) . . ?
C16 C15 H15 119.7 . . ?
C14 C15 H15 119.7 . . ?
C17 C16 C15 120.8(2) . . ?
C17 C16 C20 121.0(2) . . ?
C15 C16 C20 118.2(2) . . ?
C16 C17 C18 118.8(2) . . ?
C16 C17 H17 120.6 . . ?
C18 C17 H17 120.6 . . ?
C17 C18 C19 120.7(2) . . ?
C17 C18 C21 120.9(2) . . ?
C19 C18 C21 118.4(2) . . ?
C14 C19 C18 120.4(2) . . ?
C14 C19 H19 119.8 . . ?
C18 C19 H19 119.8 . . ?
F1' C20 F2' 109.1(11) . . ?
F2 C20 F3 111.0(9) . . ?
F2 C20 F1 104.6(11) . . ?
F3 C20 F1 102.4(7) . . ?
F1' C20 F3' 108.3(10) . . ?
F2' C20 F3' 99.5(8) . . ?
F1' C20 C16 114.4(6) . . ?
F2 C20 C16 113.2(6) . . ?
F2' C20 C16 114.3(5) . . ?
F3 C20 C16 113.5(6) . . ?
F1 C20 C16 111.1(5) . . ?
F3' C20 C16 110.0(7) . . ?
F5 C21 F4 114.0(9) . . ?
F4' C21 F6' 108.7(7) . . ?
F4' C21 F5' 102.4(7) . . ?
F6' C21 F5' 104.2(7) . . ?
F5 C21 F6 105.4(8) . . ?
F4 C21 F6 101.1(8) . . ?
F5 C21 C18 112.4(5) . . ?
F4' C21 C18 112.7(5) . . ?
F4 C21 C18 114.0(5) . . ?
F6' C21 C18 114.9(4) . . ?
F5' C21 C18 112.9(4) . . ?
F6 C21 C18 108.8(6) . . ?
loop_
_geom_bond_atom_site_label_1
_geom_bond_atom_site_label_2
_geom_bond_distance
_geom_bond_site_symmetry_2
_geom_bond_publ_flag
C1 C2 1.406(4) . ?
C1 C6 1.414(4) . ?
C1 C10 1.422(3) . ?
C2 C3 1.370(5) . ?
C2 H2 0.9500 . ?
C3 C4 1.394(6) . ?
C3 H3 0.9500 . ?
C4 C5 1.351(6) . ?
C4 H4 0.9500 . ?
C5 C6 1.430(4) . ?
C5 H5 0.9500 . ?
C6 C7 1.404(4) . ?
C7 C8 1.361(3) . ?
C7 H7 0.9500 . ?
C8 C9 1.422(3) . ?
C8 H8 0.9500 . ?
C9 C10 1.364(3) . ?
C9 C11 1.507(3) . ?
C10 H10 0.9500 . ?
C11 C12 1.569(3) 2_675 ?
C11 C12 1.593(3) . ?
C11 H11 1.0000 . ?
C12 C13 1.467(3) . ?
C12 C14 1.529(3) . ?
C12 C11 1.569(3) 2_675 ?
C13 N1 1.140(3) . ?
C14 C19 1.379(3) . ?
C14 C15 1.393(3) . ?
C15 C16 1.380(3) . ?
C15 H15 0.9500 . ?
C16 C17 1.378(3) . ?
C16 C20 1.506(4) . ?
C17 C18 1.383(3) . ?
C17 H17 0.9500 . ?
C18 C19 1.390(3) . ?
C18 C21 1.501(3) . ?
C19 H19 0.9500 . ?
C20 F1' 1.237(10) . ?
C20 F2 1.248(12) . ?
C20 F2' 1.284(9) . ?
C20 F3 1.281(9) . ?
C20 F1 1.322(10) . ?
C20 F3' 1.335(11) . ?
C21 F5 1.214(10) . ?
C21 F4' 1.267(8) . ?
C21 F4 1.267(8) . ?
C21 F6' 1.279(8) . ?
C21 F5' 1.349(8) . ?
C21 F6 1.357(11) . ?
