#------------------------------------------------------------------------------
#$Date: 2021-12-07 04:20:48 +0200 (Tue, 07 Dec 2021) $
#$Revision: 271151 $
#$URL: file:///home/coder/svn-repositories/cod/cif/1/56/50/1565040.cif $
#------------------------------------------------------------------------------
#
# This file is available in the Crystallography Open Database (COD),
# http://www.crystallography.net/
#
# All data on this site have been placed in the public domain by the
# contributors.
#
data_1565040
loop_
_publ_author_name
'Zhang, Rui'
'Tan, Jiamu'
'Luo, Zhenzhen'
'Dong, Haihong'
'Ma, Ningshan'
'Liao, Cangsong'
_publ_section_title
;
 Stereo-selective synthesis of non-canonical \g-hydroxy-\a-amino acids by
 enzymatic carbon--carbon bond formation
;
_journal_issue                   22
_journal_name_full               'Catalysis Science &amp; Technology'
_journal_page_first              7380
_journal_page_last               7385
_journal_paper_doi               10.1039/D1CY00955A
_journal_volume                  11
_journal_year                    2021
_chemical_absolute_configuration rmad
_chemical_formula_moiety         'C10 H12 F N O3'
_chemical_formula_sum            'C10 H12 F N O3'
_chemical_formula_weight         213.21
_space_group_crystal_system      monoclinic
_space_group_IT_number           4
_space_group_name_Hall           'P 2yb'
_space_group_name_H-M_alt        'P 1 21 1'
_atom_sites_solution_hydrogens   mixed
_atom_sites_solution_primary     dual
_audit_creation_date             2021-04-27
_audit_creation_method
;
Olex2 1.2
(compiled 2018.05.29 svn.r3508 for OlexSys, GUI svn.r5506)
;
_audit_update_record
;
2021-05-18 deposited with the CCDC.	2021-10-20 downloaded from the CCDC.
;
_cell_angle_alpha                90
_cell_angle_beta                 93.2890(10)
_cell_angle_gamma                90
_cell_formula_units_Z            2
_cell_length_a                   5.93840(10)
_cell_length_b                   5.30530(10)
_cell_length_c                   15.9518(4)
_cell_measurement_reflns_used    4835
_cell_measurement_temperature    170
_cell_measurement_theta_max      74.544
_cell_measurement_theta_min      2.775
_cell_volume                     501.734(18)
_computing_cell_refinement       'SAINT V8.40A (?, 2016)'
_computing_data_reduction        'SAINT V8.40A (?, 2016)'
_computing_molecular_graphics    'Olex2 (Dolomanov et al., 2009)'
_computing_publication_material  'Olex2 (Dolomanov et al., 2009)'
_computing_structure_refinement  'ShelXL (Sheldrick, 2015)'
_computing_structure_solution    'ShelXT (Sheldrick, 2015)'
_diffrn_ambient_temperature      170.0
_diffrn_measured_fraction_theta_full 0.992
_diffrn_measured_fraction_theta_max 0.992
_diffrn_measurement_device_type  'D8 VENTURE'
_diffrn_measurement_method       '\f and \w scans'
_diffrn_radiation_type           CuK\a
_diffrn_radiation_wavelength     1.54178
_diffrn_reflns_av_R_equivalents  0.0275
_diffrn_reflns_av_unetI/netI     0.0272
_diffrn_reflns_Laue_measured_fraction_full 0.992
_diffrn_reflns_Laue_measured_fraction_max 0.992
_diffrn_reflns_limit_h_max       6
_diffrn_reflns_limit_h_min       -6
_diffrn_reflns_limit_k_max       6
_diffrn_reflns_limit_k_min       -6
_diffrn_reflns_limit_l_max       18
_diffrn_reflns_limit_l_min       -18
_diffrn_reflns_number            5180
_diffrn_reflns_point_group_measured_fraction_full 0.967
_diffrn_reflns_point_group_measured_fraction_max 0.967
_diffrn_reflns_theta_full        63.685
_diffrn_reflns_theta_max         63.685
_diffrn_reflns_theta_min         2.775
_diffrn_standards_number         0
_exptl_absorpt_coefficient_mu    0.993
_exptl_absorpt_correction_T_max  0.7543
_exptl_absorpt_correction_T_min  0.6922
_exptl_absorpt_correction_type   multi-scan
_exptl_absorpt_process_details
'SADABS-2016/2 (Bruker,2016/2) was used for absorption correction. wR2(int) was 0.1097 before and 0.0639 after correction. The Ratio of minimum to maximum transmission is 0.8794. The \l/2 correction factor is Not present.'
_exptl_crystal_colour            colourless
_exptl_crystal_colour_primary    colourless
_exptl_crystal_density_diffrn    1.411
_exptl_crystal_description       block
_exptl_crystal_F_000             224
_exptl_crystal_size_max          0.15
_exptl_crystal_size_mid          0.08
_exptl_crystal_size_min          0.05
_refine_diff_density_max         0.148
_refine_diff_density_min         -0.132
_refine_diff_density_rms         0.032
_refine_ls_abs_structure_details
;
 Flack x determined using 653 quotients [(I+)-(I-)]/[(I+)+(I-)]
 (Parsons, Flack and Wagner, Acta Cryst. B69 (2013) 249-259).
;
_refine_ls_abs_structure_Flack   0.13(8)
_refine_ls_extinction_method     none
_refine_ls_goodness_of_fit_ref   1.095
_refine_ls_hydrogen_treatment    mixed
_refine_ls_matrix_type           full
_refine_ls_number_parameters     149
_refine_ls_number_reflns         1596
_refine_ls_number_restraints     1
_refine_ls_restrained_S_all      1.095
_refine_ls_R_factor_all          0.0268
_refine_ls_R_factor_gt           0.0260
_refine_ls_shift/su_max          0.000
_refine_ls_shift/su_mean         0.000
_refine_ls_structure_factor_coef Fsqd
_refine_ls_weighting_details
'w=1/[\s^2^(Fo^2^)+(0.0365P)^2^+0.0545P] where P=(Fo^2^+2Fc^2^)/3'
_refine_ls_weighting_scheme      calc
_refine_ls_wR_factor_gt          0.0656
_refine_ls_wR_factor_ref         0.0676
_reflns_Friedel_coverage         0.739
_reflns_Friedel_fraction_full    0.935
_reflns_Friedel_fraction_max     0.935
_reflns_number_gt                1564
_reflns_number_total             1596
_reflns_threshold_expression     'I > 2\s(I)'
_iucr_refine_instructions_details
;
TITL cu_2021524_0m_a.res in P2(1)
    cu_2021524_0m.res
    created by SHELXL-2018/3 at 13:39:12 on 27-Apr-2021
REM Old TITL cu_2021524_0m in P2(1)
REM SHELXT solution in P2(1)
REM R1 0.092, Rweak 0.026, Alpha 0.001, Orientation as input
REM Flack x = 0.161 ( 0.070 ) from Parsons' quotients
REM Formula found by SHELXT: C10 O F4
CELL 1.54178 5.9384 5.3053 15.9518 90 93.289 90
ZERR 2 0.0001 0.0001 0.0004 0 0.001 0
LATT -1
SYMM -X,0.5+Y,-Z
SFAC C H F N O
UNIT 20 24 2 2 6

L.S. 4
PLAN  20
SIZE 0.15 0.08 0.05
TEMP -103.15
BOND $H
list 4
fmap 2
acta
SHEL 999 0.86
REM <olex2.extras>
REM <HklSrc "%.\\cu_2021524_0m.hkl">
REM </olex2.extras>

WGHT    0.036500    0.054500
FVAR       1.62819
O2    5   -0.022306    0.942317    0.627113    11.00000    0.02372    0.02347 =
         0.03411   -0.00314    0.00507    0.00141
O3    5    0.636962    0.614649    0.645956    11.00000    0.02167    0.03848 =
         0.02650    0.00103    0.00202   -0.00766
AFIX 147
H3    2    0.744078    0.717739    0.651780    11.00000   -1.50000
AFIX   0
O1    5    0.255554    0.938112    0.538721    11.00000    0.03404    0.01998 =
         0.03536    0.00335    0.01073    0.00034
F1    3    1.010533    0.056427    0.862700    11.00000    0.05242    0.05469 =
         0.04899    0.00701   -0.00618    0.02131
N1    4    0.299170    0.445033    0.538086    11.00000    0.02190    0.01742 =
         0.02745    0.00146   -0.00014   -0.00136
C1    1    0.130811    0.835582    0.589731    11.00000    0.01948    0.02118 =
         0.02274   -0.00012   -0.00274   -0.00230
C1'   1    0.608527    0.536786    0.795202    11.00000    0.02127    0.03172 =
         0.02782    0.00198   -0.00034   -0.00563
C2    1    0.165085    0.553599    0.605407    11.00000    0.01811    0.02034 =
         0.02515    0.00030    0.00078   -0.00198
AFIX  13
H2    2    0.013355    0.471271    0.601811    11.00000   -1.20000
AFIX   0
C4    1    0.495424    0.639078    0.714330    11.00000    0.02321    0.02472 =
         0.02483    0.00011    0.00009   -0.00182
AFIX  13
H4    2    0.458673    0.821193    0.722194    11.00000   -1.20000
AFIX   0
C3    1    0.277941    0.494221    0.692292    11.00000    0.02160    0.02359 =
         0.02613    0.00452    0.00236   -0.00240
AFIX  23
H3A   2    0.169123    0.531309    0.735398    11.00000   -1.20000
H3B   2    0.311454    0.311518    0.695083    11.00000   -1.20000
AFIX   0
C2'   1    0.758831    0.336850    0.792118    11.00000    0.02788    0.03165 =
         0.02814   -0.00034   -0.00082   -0.00205
AFIX  43
H2'   2    0.791967    0.263275    0.739946    11.00000   -1.20000
AFIX   0
C6'   1    0.560278    0.638271    0.872224    11.00000    0.03249    0.03869 =
         0.03184   -0.00228    0.00190    0.00264
AFIX  43
H6'   2    0.456697    0.774189    0.874628    11.00000   -1.20000
AFIX   0
C3'   1    0.858907    0.247441    0.866379    11.00000    0.02914    0.03764 =
         0.03913    0.00623   -0.00379    0.00234
C4'   1    0.814568    0.344526    0.943490    11.00000    0.03981    0.04872 =
         0.02867    0.00608   -0.00790   -0.00004
AFIX  43
H4'   2    0.885927    0.278075    0.993542    11.00000   -1.20000
AFIX   0
C5'   1    0.663115    0.541725    0.946183    11.00000    0.04335    0.05309 =
         0.02414   -0.00187   -0.00154   -0.00057
AFIX  43
H5'   2    0.628853    0.611937    0.998736    11.00000   -1.20000
AFIX   0
H1A   2    0.441158    0.492604    0.546426    11.00000    0.02969
H1B   2    0.249400    0.500548    0.486855    11.00000    0.02467
H1C   2    0.283413    0.279418    0.538986    11.00000    0.02992
HKLF 4




REM  cu_2021524_0m_a.res in P2(1)
REM wR2 = 0.0676, GooF = S = 1.095, Restrained GooF = 1.095 for all data
REM R1 = 0.0260 for 1564 Fo > 4sig(Fo) and 0.0268 for all 1596 data
REM 149 parameters refined using 1 restraints

END  
     
WGHT      0.0365      0.0545 

REM Highest difference peak  0.148,  deepest hole -0.132,  1-sigma level  0.032
Q1    1   0.5673  0.5963  0.7597  11.00000  0.05    0.15
Q2    1  -0.0616  0.9244  0.5583  11.00000  0.05    0.12
Q3    1   0.3534  0.8406  0.8692  11.00000  0.05    0.12
Q4    1   0.2073  0.5480  0.6528  11.00000  0.05    0.11
Q5    1   0.8634  0.3359  0.7335  11.00000  0.05    0.11
Q6    1   0.9467  0.1449  1.0031  11.00000  0.05    0.11
Q7    1   0.3917  0.5561  0.7014  11.00000  0.05    0.11
Q8    1   0.6306  0.6245  0.8254  11.00000  0.05    0.10
Q9    1   0.8842  0.3556  0.8155  11.00000  0.05    0.09
Q10   1   0.5827  0.5426  0.8990  11.00000  0.05    0.09
Q11   1   0.7171  0.4146  0.6393  11.00000  0.05    0.09
Q12   1   0.6284  0.5888  0.8990  11.00000  0.05    0.08
Q13   1   0.2053  0.9296  0.4586  11.00000  0.05    0.08
Q14   1   0.3446  1.0100  0.6348  11.00000  0.05    0.08
Q15   1   1.1883  0.0149  0.9014  11.00000  0.05    0.08
Q16   1  -0.0705  0.8543  0.6735  11.00000  0.05    0.08
Q17   1   0.6439  0.0465  0.7397  11.00000  0.05    0.08
Q18   1   0.1394  0.6756  0.5981  11.00000  0.05    0.08
Q19   1   0.2446  0.7288  0.9257  11.00000  0.05    0.08
Q20   1   0.4700  0.8357  0.7570  11.00000  0.05    0.08

  REM The information below was added by Olex2.
  REM
  REM R1 = 0.0260 for 1564 Fo > 4sig(Fo) and 0.0268 for all 5976 data
  REM n/a parameters refined using n/a restraints
  REM Highest difference peak 0.15, deepest hole -0.13
  REM Mean Shift 0, Max Shift 0.000.

  REM +++ Tabular Listing of Refinement Information +++
  REM R1_all = 0.0268
  REM R1_gt = 0.0260
  REM wR_ref = 0.0676
  REM GOOF = 1.095
  REM Shift_max = 0.000
  REM Shift_mean = 0
  REM Reflections_all = 5976
  REM Reflections_gt = 1564
  REM Parameters = n/a
  REM Hole = -0.13
  REM Peak = 0.15
  REM Flack = 0.13(8)

  
;
_cod_data_source_file            d1cy00955a2.cif
_cod_data_source_block           cu_2021524_0m
_cod_depositor_comments          'Adding full bibliography for 1565040.cif.'
_cod_database_code               1565040
_shelx_shelxl_version_number     2018/3
_shelx_space_group_comment
;
The symmetry employed for this shelxl refinement is uniquely defined
by the following loop, which should always be used as a source of
symmetry information in preference to the above space-group names.
They are only intended as comments.
;
_shelx_estimated_absorpt_t_max   0.952
_shelx_estimated_absorpt_t_min   0.865
_olex2_refinement_description
;
1. Fixed Uiso
 At 1.2 times of:
  All C(H) groups, All C(H,H) groups
 At 1.5 times of:
  All O(H) groups
2.a Ternary CH refined with riding coordinates:
 C2(H2), C4(H4)
2.b Secondary CH2 refined with riding coordinates:
 C3(H3A,H3B)
2.c Aromatic/amide H refined with riding coordinates:
 C2'(H2'), C6'(H6'), C4'(H4'), C5'(H5')
2.d Idealised tetrahedral OH refined as rotating group:
 O3(H3)
;
_olex2_submission_special_instructions 'No special instructions were received'
loop_
_space_group_symop_operation_xyz
'x, y, z'
'-x, y+1/2, -z'
loop_
_atom_site_label
_atom_site_type_symbol
_atom_site_fract_x
_atom_site_fract_y
_atom_site_fract_z
_atom_site_U_iso_or_equiv
_atom_site_adp_type
_atom_site_occupancy
_atom_site_site_symmetry_order
_atom_site_calc_flag
_atom_site_refinement_flags_posn
_atom_site_refinement_flags_adp
_atom_site_refinement_flags_occupancy
_atom_site_disorder_assembly
_atom_site_disorder_group
O2 O -0.0223(2) 0.9423(3) 0.62711(9) 0.0270(3) Uani 1 1 d . . . . .
O3 O 0.6370(2) 0.6146(3) 0.64596(9) 0.0289(4) Uani 1 1 d . . . . .
H3 H 0.744078 0.717739 0.651780 0.043 Uiso 1 1 calc GR . . . .
O1 O 0.2556(2) 0.9381(3) 0.53872(9) 0.0295(4) Uani 1 1 d . . . . .
F1 F 1.0105(3) 0.0564(3) 0.86270(9) 0.0524(4) Uani 1 1 d . . . . .
N1 N 0.2992(3) 0.4450(4) 0.53809(11) 0.0223(4) Uani 1 1 d . . . . .
C1 C 0.1308(3) 0.8356(4) 0.58973(12) 0.0213(4) Uani 1 1 d . . . . .
C1' C 0.6085(3) 0.5368(5) 0.79520(13) 0.0270(5) Uani 1 1 d . . . . .
C2 C 0.1651(3) 0.5536(4) 0.60541(12) 0.0212(4) Uani 1 1 d . . . . .
H2 H 0.013355 0.471271 0.601811 0.025 Uiso 1 1 calc R . . . .
C4 C 0.4954(3) 0.6391(4) 0.71433(12) 0.0243(4) Uani 1 1 d . . . . .
H4 H 0.458673 0.821193 0.722194 0.029 Uiso 1 1 calc R . . . .
C3 C 0.2779(3) 0.4942(4) 0.69229(12) 0.0237(5) Uani 1 1 d . . . . .
H3A H 0.169123 0.531309 0.735398 0.028 Uiso 1 1 calc R . . . .
H3B H 0.311454 0.311518 0.695083 0.028 Uiso 1 1 calc R . . . .
C2' C 0.7588(4) 0.3368(5) 0.79212(13) 0.0293(5) Uani 1 1 d . . . . .
H2' H 0.791967 0.263275 0.739946 0.035 Uiso 1 1 calc R . . . .
C6' C 0.5603(4) 0.6383(5) 0.87222(13) 0.0343(6) Uani 1 1 d . . . . .
H6' H 0.456697 0.774189 0.874628 0.041 Uiso 1 1 calc R . . . .
C3' C 0.8589(4) 0.2474(5) 0.86638(16) 0.0355(6) Uani 1 1 d . . . . .
C4' C 0.8146(4) 0.3445(6) 0.94349(14) 0.0394(6) Uani 1 1 d . . . . .
H4' H 0.885927 0.278075 0.993542 0.047 Uiso 1 1 calc R . . . .
C5' C 0.6631(4) 0.5417(6) 0.94618(14) 0.0403(6) Uani 1 1 d . . . . .
H5' H 0.628853 0.611937 0.998736 0.048 Uiso 1 1 calc R . . . .
H1A H 0.441(5) 0.493(5) 0.5464(14) 0.030(6) Uiso 1 1 d . . . . .
H1B H 0.249(4) 0.501(5) 0.4869(16) 0.025(6) Uiso 1 1 d . . . . .
H1C H 0.283(4) 0.279(7) 0.5390(16) 0.030(7) Uiso 1 1 d . . . . .
loop_
_atom_site_aniso_label
_atom_site_aniso_U_11
_atom_site_aniso_U_22
_atom_site_aniso_U_33
_atom_site_aniso_U_23
_atom_site_aniso_U_13
_atom_site_aniso_U_12
O2 0.0237(7) 0.0235(8) 0.0341(8) -0.0031(7) 0.0051(5) 0.0014(6)
O3 0.0217(7) 0.0385(9) 0.0265(7) 0.0010(6) 0.0020(5) -0.0077(6)
O1 0.0340(8) 0.0200(8) 0.0354(8) 0.0034(7) 0.0107(6) 0.0003(6)
F1 0.0524(8) 0.0547(10) 0.0490(9) 0.0070(8) -0.0062(7) 0.0213(8)
N1 0.0219(9) 0.0174(10) 0.0275(10) 0.0015(8) -0.0001(6) -0.0014(8)
C1 0.0195(9) 0.0212(10) 0.0227(10) -0.0001(8) -0.0027(8) -0.0023(8)
C1' 0.0213(9) 0.0317(12) 0.0278(10) 0.0020(9) -0.0003(7) -0.0056(8)
C2 0.0181(9) 0.0203(10) 0.0252(10) 0.0003(8) 0.0008(7) -0.0020(8)
C4 0.0232(10) 0.0247(11) 0.0248(10) 0.0001(8) 0.0001(8) -0.0018(8)
C3 0.0216(9) 0.0236(12) 0.0261(10) 0.0045(8) 0.0024(7) -0.0024(8)
C2' 0.0279(10) 0.0316(11) 0.0281(11) -0.0003(10) -0.0008(8) -0.0021(9)
C6' 0.0325(11) 0.0387(15) 0.0318(12) -0.0023(10) 0.0019(9) 0.0026(10)
C3' 0.0291(11) 0.0376(14) 0.0391(13) 0.0062(10) -0.0038(9) 0.0023(10)
C4' 0.0398(13) 0.0487(15) 0.0287(11) 0.0061(12) -0.0079(9) 0.0000(12)
C5' 0.0434(13) 0.0531(17) 0.0241(11) -0.0019(11) -0.0015(9) -0.0006(12)
loop_
_atom_type_symbol
_atom_type_description
_atom_type_scat_dispersion_real
_atom_type_scat_dispersion_imag
_atom_type_scat_source
C C 0.0181 0.0091 'International Tables Vol C Tables 4.2.6.8 and 6.1.1.4'
H H 0.0000 0.0000 'International Tables Vol C Tables 4.2.6.8 and 6.1.1.4'
F F 0.0727 0.0534 'International Tables Vol C Tables 4.2.6.8 and 6.1.1.4'
N N 0.0311 0.0180 'International Tables Vol C Tables 4.2.6.8 and 6.1.1.4'
O O 0.0492 0.0322 'International Tables Vol C Tables 4.2.6.8 and 6.1.1.4'
loop_
_geom_angle_atom_site_label_1
_geom_angle_atom_site_label_2
_geom_angle_atom_site_label_3
_geom_angle
_geom_angle_site_symmetry_1
_geom_angle_site_symmetry_3
_geom_angle_publ_flag
C4 O3 H3 109.5 . . ?
C2 N1 H1A 109.0(16) . . ?
C2 N1 H1B 111.5(15) . . ?
C2 N1 H1C 108.1(17) . . ?
H1A N1 H1B 108(2) . . ?
H1A N1 H1C 113(3) . . ?
H1B N1 H1C 108(2) . . ?
O2 C1 O1 125.8(2) . . ?
O2 C1 C2 117.30(18) . . ?
O1 C1 C2 116.88(19) . . ?
C2' C1' C4 119.75(19) . . ?
C6' C1' C4 120.6(2) . . ?
C6' C1' C2' 119.6(2) . . ?
N1 C2 C1 109.41(17) . . ?
N1 C2 H2 107.9 . . ?
N1 C2 C3 110.33(16) . . ?
C1 C2 H2 107.9 . . ?
C1 C2 C3 113.28(16) . . ?
C3 C2 H2 107.9 . . ?
O3 C4 C1' 111.53(16) . . ?
O3 C4 H4 109.1 . . ?
O3 C4 C3 107.90(15) . . ?
C1' C4 H4 109.1 . . ?
C1' C4 C3 110.03(17) . . ?
C3 C4 H4 109.1 . . ?
C2 C3 H3A 108.5 . . ?
C2 C3 H3B 108.5 . . ?
C4 C3 C2 115.08(16) . . ?
C4 C3 H3A 108.5 . . ?
C4 C3 H3B 108.5 . . ?
H3A C3 H3B 107.5 . . ?
C1' C2' H2' 120.7 . . ?
C3' C2' C1' 118.6(2) . . ?
C3' C2' H2' 120.7 . . ?
C1' C6' H6' 119.9 . . ?
C1' C6' C5' 120.3(2) . . ?
C5' C6' H6' 119.9 . . ?
F1 C3' C2' 118.3(2) . . ?
F1 C3' C4' 118.7(2) . . ?
C4' C3' C2' 123.1(2) . . ?
C3' C4' H4' 121.0 . . ?
C3' C4' C5' 118.1(2) . . ?
C5' C4' H4' 121.0 . . ?
C6' C5' H5' 119.8 . . ?
C4' C5' C6' 120.4(2) . . ?
C4' C5' H5' 119.8 . . ?
loop_
_geom_bond_atom_site_label_1
_geom_bond_atom_site_label_2
_geom_bond_distance
_geom_bond_site_symmetry_2
_geom_bond_publ_flag
O2 C1 1.251(3) . ?
O3 H3 0.8400 . ?
O3 C4 1.421(2) . ?
O1 C1 1.255(3) . ?
F1 C3' 1.359(3) . ?
N1 C2 1.489(3) . ?
N1 H1A 0.88(3) . ?
N1 H1B 0.90(3) . ?
N1 H1C 0.88(3) . ?
C1 C2 1.528(3) . ?
C1' C4 1.520(3) . ?
C1' C2' 1.389(3) . ?
C1' C6' 1.386(3) . ?
C2 H2 1.0000 . ?
C2 C3 1.537(3) . ?
C4 H4 1.0000 . ?
C4 C3 1.526(3) . ?
C3 H3A 0.9900 . ?
C3 H3B 0.9900 . ?
C2' H2' 0.9500 . ?
C2' C3' 1.379(3) . ?
C6' H6' 0.9500 . ?
C6' C5' 1.394(3) . ?
C3' C4' 1.373(4) . ?
C4' H4' 0.9500 . ?
C4' C5' 1.382(4) . ?
C5' H5' 0.9500 . ?
loop_
_refln_index_h
_refln_index_k
_refln_index_l
_refln_F_squared_meas
_refln_F_squared_sigma
_refln_scale_group_code
3 0 0 420.092 20.7197 4
3 0 0 430.534 17.2918 7
4 0 0 192.042 11.9342 7
-4 0 0 202.604 10.413 11
4 0 0 213.156 16.9975 4
-4 0 0 203.74 8.95197 5
-4 0 0 210.105 15.0821 8
-4 0 0 191.193 8.9275 13
-5 0 0 40.4699 3.73226 5
-5 0 0 45.2757 3.94773 13
-5 0 0 46.1001 4.45398 12
-5 0 0 42.1275 6.42513 8
-5 0 0 40.5999 3.52675 9
-5 0 0 37.565 3.55271 11
-7 0 0 80.7702 3.37211 5
-7 0 0 76.6257 4.23723 9
-7 0 0 83.5712 4.00638 11
0 -1 0 0.70194 0.89832 4
0 -1 0 0.13672 0.81697 1
0 -1 0 -0.2136 0.50768 7
0 1 0 2.42071 1.09689 4
0 1 0 0.62303 1.09285 7
-1 -1 0 1603.56 44.6544 1
1 -1 0 1567.2 45.2421 1
1 -1 0 1614.7 45.3209 7
1 -1 0 1659.3 49.0322 4
1 1 0 1638.45 44.6339 1
-1 1 0 1553.11 45.8532 7
1 1 0 1590.76 44.3307 4
2 -1 0 4164.58 120.433 4
2 -1 0 4071.79 113.756 7
-2 1 0 4174.06 112.321 1
2 1 0 4185.36 115.968 4
2 1 0 4312.82 110.395 1
-2 1 0 4205.55 112.545 1
2 1 0 4117.37 110.195 1
3 -1 0 425.656 23.9879 4
3 -1 0 423.255 17.5593 7
3 1 0 511.417 23.6798 4
3 1 0 404.654 18.3117 4
-3 1 0 429.146 13.7457 1
-4 -1 0 360.063 20.1163 8
-4 -1 0 347.341 12.7673 11
-4 -1 0 345.77 12.723 5
4 -1 0 347.387 17.001 7
-4 -1 0 337.052 12.3492 9
4 -1 0 349.743 25.184 4
-4 -1 0 334.541 13.0001 13
-4 -1 0 346.794 14.5196 12
-4 1 0 351.454 13.2336 9
-4 1 0 369.213 18.8777 8
-4 1 0 347.129 12.8503 11
4 1 0 351.721 19.5262 4
4 1 0 340.074 18.8918 7
-4 1 0 341.239 12.8404 5
-5 -1 0 45.2778 3.59152 9
-5 -1 0 40.4752 3.68073 5
-5 -1 0 43.7812 4.67925 12
-5 -1 0 40.8944 3.78037 11
-5 -1 0 43.3822 3.9485 13
-5 -1 0 40.7776 6.62867 8
-5 1 0 42.1987 3.8752 9
-5 1 0 44.694 3.78291 5
-5 1 0 41.1032 3.72869 11
-5 1 0 38.5053 6.16773 8
-6 -1 0 121.532 5.68986 9
-6 -1 0 123.262 9.44209 11
-6 -1 0 110.179 6.85174 12
-6 -1 0 118.138 9.85713 8
-6 1 0 122.82 6.41098 9
-6 1 0 121.443 6.21778 5
-6 1 0 113.965 6.04376 11
-7 -1 0 109.883 4.22958 11
-7 1 0 106.348 4.93226 11
-7 1 0 120.34 4.85807 5
-7 1 0 114.994 4.83092 9
0 -2 0 4227.94 115.084 4
0 -2 0 4191.19 113.741 1
0 2 0 4056.43 113.376 1
0 2 0 3862.29 114.857 4
1 -2 0 1644.84 50.3083 1
1 -2 0 1628.32 54.5116 4
-1 -2 0 1625.1 46.8864 4
1 -2 0 1651.41 50.1967 7
-1 -2 0 1686.49 49.5038 1
1 2 0 1600.82 49.1149 1
-1 2 0 1624.17 50.1266 1
2 -2 0 1398.3 43.7386 7
2 -2 0 1353.65 50.919 4
-2 2 0 1282.99 42.7096 1
-2 2 0 1359.03 43.3006 1
3 -2 0 1750.07 66.8307 4
-3 -2 0 1686.32 50.6083 12
3 -2 0 1696.56 54.9147 7
-3 2 0 1624.58 47.9344 5
-4 -2 0 459.925 16.4322 13
-4 -2 0 449.907 17.293 11
-4 -2 0 491.543 25.7463 8
-4 -2 0 468.271 18.7376 12
-4 2 0 451.713 16.4615 9
-4 2 0 454.086 16.2149 5
-4 2 0 462.226 22.547 8
-5 -2 0 57.0084 5.36719 12
-5 -2 0 53.22 8.02741 8
-5 -2 0 58.3154 6.22675 11
-5 2 0 59.4347 4.47625 9
-5 2 0 54.4245 4.4287 11
-5 2 0 54.396 4.29619 5
-6 -2 0 60.399 10.3134 8
-6 -2 0 61.5843 5.02558 12
-6 -2 0 65.7649 4.09556 11
-6 2 0 63.9404 4.1261 5
-6 2 0 63.1971 4.0648 11
-6 2 0 65.1959 4.23564 9
-7 2 0 70.5167 3.19846 5
-7 2 0 71.9892 3.22543 9
0 -3 0 -2.0391 3.03529 1
0 -3 0 -1.2486 3.12933 4
1 -3 0 1173.75 45.784 4
-1 -3 0 1005.35 34.6985 4
-1 3 0 1109.4 40.862 1
2 -3 0 387.729 25.7444 4
2 -3 0 364.921 20.0756 7
-2 -3 0 349.226 14.6917 12
2 -3 0 341.414 12.4198 6
-2 -3 0 345.196 12.7842 11
3 -3 0 369.328 20.8741 7
-3 -3 0 399.065 16.7211 12
-3 -3 0 386.969 13.7721 11
3 -3 0 388.04 13.8567 6
-3 3 0 417.008 20.7262 8
-3 3 0 373.53 13.8665 9
-3 3 0 380.007 13.779 5
4 -3 0 119.894 6.30316 6
-4 -3 0 136.352 8.85641 12
-4 -3 0 131.407 6.65739 11
-4 -3 0 129.264 12.8145 8
-4 3 0 125.741 6.69615 5
-4 3 0 119.606 6.50281 9
5 -3 0 10.9718 2.08267 6
-5 -3 0 12.3994 4.51033 8
-5 -3 0 11.524 2.42148 12
-5 -3 0 9.35032 1.64057 11
-5 3 0 13.8377 2.34166 9
-5 3 0 10.3609 1.86773 11
-5 3 0 8.76216 1.65421 5
-6 -3 0 19.0205 3.46585 8
-6 -3 0 25.7857 2.78144 12
-6 -3 0 22.9366 2.95819 11
-6 3 0 24.5696 2.15956 11
-6 3 0 23.972 1.99439 9
-6 3 0 26.5027 2.31272 5
0 4 0 63.4458 4.88345 3
0 4 0 72.2231 4.33281 6
1 -4 0 136.173 6.29478 6
1 -4 0 128.798 17.3575 4
-1 -4 0 135.341 6.6168 11
-1 -4 0 120.193 7.9441 12
1 4 0 137.658 6.80184 6
1 4 0 135.016 7.6729 3
-1 4 0 137.295 5.6097 6
-1 4 0 137.025 7.28621 3
-2 -4 0 51.7615 5.97353 12
2 -4 0 63.3239 4.34645 6
-2 -4 0 63.5925 4.33582 11
2 4 0 59.6421 4.90022 3
2 4 0 67.6295 4.49655 6
-3 -4 0 130.325 7.10323 11
3 -4 0 134.821 6.8891 6
-3 -4 0 141.915 8.91529 12
3 4 0 129.995 7.37021 3
-3 4 0 124.935 6.13333 5
3 4 0 136.47 6.93132 6
4 -4 0 232.155 9.46055 6
-4 -4 0 227.317 17.0731 8
-4 -4 0 248.992 11.6798 11
-4 -4 0 242.75 11.756 12
-4 4 0 234.04 8.97805 9
4 4 0 234.808 9.77329 3
-4 4 0 228.198 9.07648 5
4 4 0 239.246 9.68027 6
-5 -4 0 56.6715 6.1844 11
-5 -4 0 56.5263 6.82666 8
-5 -4 0 63.5682 5.86047 12
-5 4 0 57.4477 3.6256 11
-5 4 0 63.2889 3.69132 5
-5 4 0 59.0853 3.12317 9
5 4 0 68.9091 3.6914 6
-6 -4 0 15.1726 1.50682 12
0 5 0 1.71018 1.08046 3
0 5 0 0.54249 0.91002 6
1 5 0 42.8373 3.60042 6
-1 5 0 44.6292 4.70681 3
1 5 0 44.8788 4.21903 3
-2 -5 0 31.3524 3.77959 12
2 5 0 43.7018 3.63278 6
2 5 0 38.2159 3.78912 3
-3 -5 0 6.83903 1.82962 12
-3 -5 0 5.208 2.93066 8
3 5 0 7.0463 1.54104 3
3 5 0 5.34703 1.36532 6
-4 -5 0 80.3492 4.83091 12
4 5 0 82.8313 4.16287 3
4 5 0 85.6505 4.28247 6
0 6 0 53.5182 3.64204 3
1 -6 0 44.0249 2.88167 3
-1 6 0 41.419 2.48109 3
1 6 0 42.0388 3.30114 3
-2 -6 0 1.62806 1.49475 8
2 6 0 1.2538 0.63249 6
2 6 0 1.43847 0.71652 3
3 -6 0 57.6932 2.89983 3
3 6 0 52.6421 2.69965 3
3 6 0 58.0547 2.45598 6
-7 0 1 55.2962 4.52057 11
-7 0 1 59.198 3.33029 9
-6 0 1 176.448 7.99459 9
-6 0 1 174.191 8.1565 11
-6 0 1 188.312 7.94539 5
-5 0 1 62.7846 4.3976 5
-5 0 1 64.0104 4.69801 11
-5 0 1 61.2195 4.36307 9
-5 0 1 48.7774 8.68863 12
-4 0 1 260.494 10.1997 5
4 0 -1 259.003 15.0586 7
4 0 -1 267.279 19.7067 4
3 0 -1 76.3683 8.37715 4
3 0 -1 69.6746 6.21235 7
2 0 -1 58.6996 4.49044 7
-2 0 1 57.7447 2.24579 1
-2 0 1 59.0105 2.32023 1
-1 0 1 321.357 9.4213 1
1 0 -1 316.65 9.40334 1
0 0 -1 1486.24 37.423 1
0 0 1 1407.27 37.8855 4
0 0 1 1361.89 37.392 1
0 0 -1 1390.92 37.3237 7
0 0 1 1403.33 37.3557 7
0 0 -1 1390.13 37.8886 4
1 0 1 687.812 18.7556 1
1 0 1 699.049 21.6673 4
-1 0 -1 698.467 18.7836 1
2 0 1 3269.99 92.6377 4
3 0 1 973.507 36.8407 4
3 0 1 966.985 31.2514 7
-4 0 -1 8.0822 2.99196 5
-4 0 -1 8.78674 2.58976 12
4 0 1 12.2033 5.67937 4
-4 0 -1 11.2755 3.55778 9
-4 0 -1 9.68795 3.29112 8
-5 0 -1 173.128 8.28469 9
-5 0 -1 169.072 9.15955 12
-5 0 -1 177.116 8.59906 13
-5 0 -1 173.269 8.05553 11
-5 0 -1 172.858 8.17763 5
-5 0 -1 163.335 13.7771 8
-6 0 -1 165.311 7.53088 5
-6 0 -1 168.438 7.4453 11
-6 0 -1 142.102 11.4973 8
-6 0 -1 166.516 7.62949 9
-7 0 -1 0.24545 0.69053 5
-7 0 -1 1.51503 0.75504 9
-7 -1 1 164.987 6.35777 11
-7 1 1 184.194 6.80522 9
-7 1 1 170.526 7.58297 11
-7 1 1 213.375 8.31503 5
-6 -1 1 62.1422 3.89738 9
-6 -1 1 59.3032 4.83466 12
-6 -1 1 65.0656 7.77931 11
-6 1 1 68.2602 4.47579 9
-6 1 1 66.0007 4.34033 5
-6 1 1 68.3666 4.53573 11
-5 -1 1 49.5634 7.16057 8
-5 -1 1 44.2868 3.66086 9
-5 -1 1 54.8989 4.15135 11
-5 -1 1 54.4907 3.93751 5
-5 -1 1 53.3513 5.03654 12
-5 1 1 55.4058 4.29975 11
-5 1 1 49.7846 4.01334 5
-5 1 1 48.8618 4.0878 9
4 -1 -1 291.261 23.5542 4
-4 -1 1 272.144 10.5783 9
-4 -1 1 271.057 12.5832 12
4 -1 -1 295.113 15.8781 7
-4 -1 1 279.559 10.9703 11
-4 -1 1 303.1 17.8467 8
4 1 -1 276.41 16.9884 7
-4 1 1 271.137 10.9654 11
4 1 -1 284.267 17.8773 4
-4 1 1 276.542 10.9858 5
-4 1 1 288.507 11.3191 9
3 -1 -1 340.307 15.5878 7
3 -1 -1 340.336 20.4894 4
3 1 -1 335.503 17.1026 4
-3 1 1 362.867 12.3347 1
-2 -1 1 1743.77 47.1029 1
2 -1 -1 1714.24 55.5832 4
2 -1 -1 1675.14 50.1811 7
2 1 -1 1738.7 46.7023 1
-2 1 1 1700.42 48.224 1
-2 1 1 1754.13 48.7939 1
2 1 -1 1601.82 49.9677 4
-1 -1 1 9999.99 259.725 1
-1 1 1 9757.87 260.063 1
0 -1 -1 2909.69 80.3287 1
0 -1 1 2822.69 82.6326 1
0 -1 -1 3014.19 80.5079 4
0 -1 1 3008.2 81.869 4
0 -1 -1 3096.56 81.1204 7
0 1 -1 2995.71 82.2521 4
0 1 -1 2840.14 80.8227 7
0 1 1 2892.79 81.0864 7
0 1 -1 3031.15 80.2953 1
0 1 1 3007.94 80.4058 1
1 -1 1 3376.98 97.9992 4
1 -1 1 3447.56 94.199 1
1 -1 1 3451.26 93.4498 7
1 1 1 3572 93.3865 1
-1 1 -1 3523.91 93.7263 7
1 1 1 3460.56 93.0832 1
-1 1 -1 3479.3 98.2756 4
2 -1 1 2110.86 67.9357 4
2 -1 1 2219.37 60.7433 1
2 1 1 2088.2 59.8988 4
2 1 1 2227.26 58.128 1
-2 1 -1 2207.81 60.3202 1
2 1 1 2158.58 59.5083 4
2 1 1 2194.89 58.2069 1
3 -1 1 47.8057 7.50804 4
3 -1 1 36.1082 4.20632 7
3 1 1 43.3989 4.73915 4
3 1 1 42.9111 4.78026 4
4 -1 1 145.568 16.4149 4
-4 -1 -1 141.79 8.26992 12
-4 -1 -1 143.3 7.04878 9
-4 -1 -1 142.602 7.51506 5
-4 -1 -1 149.393 6.99371 11
-4 -1 -1 143.082 7.7776 13
-4 -1 -1 156.085 12.8998 8
4 1 1 145.894 11.3488 7
-4 1 -1 149 7.38135 5
-4 1 -1 149.728 7.50393 13
-4 1 -1 147.123 7.46642 9
-4 1 -1 147.088 7.11225 11
-5 -1 -1 21.5351 3.18172 11
-5 -1 -1 20.576 3.63276 12
-5 -1 -1 20.7077 2.63081 9
-5 -1 -1 23.0784 3.11662 13
-5 -1 -1 24.3559 5.54102 8
-5 -1 -1 20.6911 2.9998 5
-5 1 -1 26.4657 5.36412 8
-5 1 -1 27.825 3.03421 5
-5 1 -1 30.1355 3.18233 9
-5 1 -1 26.9209 3.18505 11
-6 -1 -1 6.64406 1.5421 5
-6 -1 -1 7.96637 1.51917 9
-6 -1 -1 8.80944 3.94612 11
-6 -1 -1 6.9265 1.73866 12
-6 -1 -1 7.2782 2.86494 8
-6 1 -1 12.4431 2.13743 5
-6 1 -1 11.5752 1.92973 11
-6 1 -1 7.55606 1.71461 9
-7 1 -1 59.5689 3.14647 9
-7 1 -1 61.241 3.26286 5
-7 2 1 37.9369 2.35196 5
-7 2 1 40.7743 2.29283 9
-6 -2 1 84.4323 7.94176 8
-6 -2 1 105.342 6.57217 12
-6 -2 1 107.038 5.47339 11
-6 2 1 100.705 5.43543 9
-6 2 1 102.345 5.52529 11
-6 2 1 106.054 5.41198 5
-5 -2 1 154.18 9.3424 12
-5 -2 1 155.462 13.2572 8
-5 -2 1 167.009 10.0812 11
-5 2 1 161.219 7.84706 5
-5 2 1 155.368 7.77831 9
-5 2 1 160.743 8.04739 11
-4 -2 1 127.749 7.42674 13
-4 -2 1 144.372 8.81259 12
-4 -2 1 154.725 10.1954 11
-4 -2 1 142.701 12.7353 8
4 -2 -1 118.304 11.3105 7
-4 2 1 136.886 7.05855 5
-4 2 1 143.83 7.34556 9
-3 -2 1 1289 40.7153 12
-3 -2 1 1256.24 38.0596 11
3 -2 -1 1408.05 56.5117 4
3 -2 -1 1372.64 45.401 7
-3 2 1 1277.47 37.9507 5
2 -2 -1 480.068 20.5963 7
2 -2 -1 475.533 25.3248 4
-2 -2 1 538.489 20.1643 1
2 2 -1 480.417 19.0635 4
-2 2 1 451.821 19.2916 1
-2 2 1 483.105 20.0324 1
1 -2 -1 1137.29 41.218 4
-1 -2 1 1216.51 36.5453 4
1 -2 -1 1125.45 37.9864 7
-1 -2 1 1172.52 37.5029 1
-1 2 1 1213.35 38.1758 1
1 2 -1 1174.08 37.0072 1
1 2 -1 1166.69 38.0654 4
0 -2 1 2520.43 74.857 4
0 -2 -1 2620.03 73.6361 1
0 -2 1 2628.29 73.9517 1
0 -2 -1 2370.38 74.3719 7
0 -2 -1 2558.77 73.7783 4
0 2 -1 2480.73 75.7292 4
0 2 1 2561.21 73.2333 1
0 2 -1 2568.2 73.0153 1
1 -2 1 174.552 10.4379 1
1 -2 1 196.782 10.5768 7
-1 -2 -1 190.137 7.03472 4
1 -2 1 193.993 12.9859 4
1 2 1 189.211 9.93616 1
-1 2 -1 190.75 10.3743 1
2 -2 1 2495.17 72.9815 7
2 -2 1 2451.14 74.1482 1
2 -2 1 2574.29 83.2218 4
2 2 1 2489.83 71.4511 1
-2 2 -1 2579.46 74.0722 1
-3 -2 -1 161.118 8.8387 12
3 -2 1 167.507 16.3302 4
3 -2 1 165.903 10.1117 7
-3 2 -1 156.464 7.1427 5
-3 2 -1 154.126 9.00548 9
-4 -2 -1 207.199 10.5153 11
-4 -2 -1 246.255 17.4345 8
-4 -2 -1 226.332 10.1959 13
-4 -2 -1 220.786 11.5107 12
-4 2 -1 236.019 10.0573 5
-4 2 -1 219.549 14.7358 8
-4 2 -1 234.915 10.1595 9
-5 -2 -1 31.3295 3.4041 13
-5 -2 -1 24.2115 5.51139 8
-5 -2 -1 32.0054 3.97216 11
-5 -2 -1 24.8285 3.68942 12
-5 2 -1 23.731 3.00681 5
-5 2 -1 34.4191 3.45071 9
-5 2 -1 18.6176 4.63792 8
-5 2 -1 27.3345 3.15783 11
-6 -2 -1 44.5874 4.08059 12
-6 -2 -1 40.7903 5.8736 8
-6 2 -1 42.9694 3.42295 9
-6 2 -1 45.8739 3.44989 11
-6 2 -1 47.3965 3.50976 5
-7 2 -1 153.433 5.39881 5
-7 2 -1 154.513 5.53736 9
-6 -3 1 33.23 3.27105 12
-6 -3 1 30.0048 2.73211 11
-6 -3 1 22.2878 3.78985 8
-6 3 1 31.5318 2.51788 5
-6 3 1 31.0666 2.45706 11
-6 3 1 27.1173 2.23716 9
-5 -3 1 18.5513 4.64534 8
-5 -3 1 24.0396 3.42076 12
-5 -3 1 21.3736 2.59211 11
5 -3 -1 19.7314 2.34992 6
-5 3 1 20.3497 2.51614 5
-5 3 1 22.8221 2.80789 11
-5 3 1 21.1444 2.44115 9
-4 -3 1 384.244 13.8769 11
4 -3 -1 358.099 13.4573 6
-4 -3 1 384.23 23.001 8
-4 -3 1 385.685 16.7088 12
-4 3 1 365.463 13.7384 5
-4 3 1 355.577 13.4971 9
-3 -3 1 35.1606 3.03881 11
3 -3 -1 32.1933 7.41667 7
3 -3 -1 34.356 3.09119 6
-3 3 1 28.4298 2.95749 9
-3 3 1 25.951 5.63833 8
-3 3 1 31.6723 3.0197 5
3 3 -1 40.7542 4.74142 6
3 3 -1 32.6946 4.60017 3
2 -3 -1 150.275 11.6465 7
2 -3 -1 127.224 6.25443 6
2 -3 -1 145.948 15.1502 4
-1 -3 1 516.593 21.2015 4
1 -3 -1 536.085 27.3509 4
1 -3 -1 471.596 24.4194 7
-1 3 1 524.344 24.6022 1
-1 3 1 518.196 24.7383 1
0 -3 1 973.075 37.5234 4
0 -3 -1 983.497 36.5472 4
0 -3 1 954.337 36.8349 1
0 3 1 976.291 37.2987 1
0 3 -1 948.683 41.283 1
0 3 1 975.251 36.8346 1
0 3 -1 954.749 29.4991 10
1 -3 1 118.307 16.3318 1
1 -3 1 93.2384 11.8436 4
-1 3 -1 139.852 11.7964 1
2 -3 1 278.708 21.8748 4
2 -3 1 270.906 10.5124 6
-2 -3 -1 275.624 10.3799 11
-2 -3 -1 273.27 12.5776 12
-2 3 -1 309.306 16.9037 8
-3 -3 -1 55.956 5.14351 12
-3 -3 -1 55.5771 3.9378 11
3 -3 1 61.7793 4.29119 6
-3 3 -1 62.8713 7.93126 8
3 3 1 47.458 6.73272 6
-3 3 -1 65.5743 4.16594 5
-3 3 -1 61.7776 4.49547 9
-4 -3 -1 285.597 13.5961 12
4 -3 1 264.246 10.7818 6
-4 -3 -1 276.028 10.883 11
-4 -3 -1 272.17 11.589 13
-4 -3 -1 288.382 19.8833 8
-4 3 -1 277.775 11.3934 9
-4 3 -1 267.752 11.032 5
-4 3 -1 280.605 17.1918 8
5 -3 1 140.786 6.72917 6
-5 -3 -1 150.709 6.92205 11
-5 -3 -1 155.291 13.3161 8
-5 -3 -1 148.609 8.81491 12
-5 3 -1 139.722 6.94178 9
-5 3 -1 136.087 6.88604 11
-5 3 -1 149.222 7.12984 5
-6 -3 -1 19.8089 3.23216 11
-6 -3 -1 29.1979 2.93849 12
-6 -3 -1 20.2124 3.5904 8
-6 3 -1 25.4536 2.13406 9
-6 3 -1 26.8851 2.07336 11
-6 3 -1 26.8841 2.29488 5
-6 -4 1 10.6674 1.26346 12
-5 -4 1 16.5713 3.93619 11
-5 -4 1 23.6419 4.51549 8
-5 4 1 25.8 2.78563 11
-5 4 1 26.1376 2.77646 5
5 4 -1 28.444 2.45531 6
-5 4 1 24.7207 2.14713 9
-4 -4 1 280.787 19.0126 8
4 -4 -1 295.034 11.1698 6
-4 -4 1 311.052 12.5519 11
-4 -4 1 298.09 13.6742 12
-4 4 1 279.037 10.7818 5
4 4 -1 298.856 11.583 3
-4 4 1 294.383 10.3656 9
4 4 -1 291.496 11.2267 6
3 -4 -1 159.911 7.48069 6
-3 -4 1 149.867 7.50404 11
-3 -4 1 160.04 9.66075 12
-3 4 1 152.447 7.06234 5
3 4 -1 152.07 8.14709 3
3 4 -1 163.023 8.03045 6
2 -4 -1 352.705 12.8159 6
-2 -4 1 367.118 15.9594 12
-2 -4 1 339.198 12.8631 11
-2 4 1 331.469 12.0884 5
2 4 -1 348.372 14.3088 3
2 4 -1 363.13 13.5674 6
-1 -4 1 115.148 6.03987 11
1 -4 -1 89.7541 15.9853 4
-1 -4 1 121.526 7.51708 12
-1 4 1 118.152 6.47374 3
1 4 -1 121.181 6.35882 6
1 4 -1 120.939 7.16924 3
-1 4 1 107.391 5.04299 6
0 -4 1 546.182 29.5585 4
0 4 1 537.343 19.3081 3
0 4 -1 555.848 17.9087 6
0 4 1 576.147 18.1157 6
0 4 -1 562.274 19.7398 3
-1 -4 -1 62.7606 4.27729 11
-1 -4 -1 58.2809 5.37423 12
1 -4 1 66.2646 4.12869 6
1 -4 1 114.109 26.2832 4
-1 4 -1 64.1547 3.67839 6
-1 4 -1 69.7278 4.91257 3
1 4 1 65.0756 4.5089 6
1 4 1 69.1329 5.17706 3
-2 -4 -1 89.509 5.2286 11
-2 -4 -1 70.8677 7.40345 12
2 -4 1 88.5461 5.2102 6
2 4 1 82.7069 5.29809 6
2 4 1 88.6092 5.95532 3
-3 -4 -1 566.312 18.7963 11
3 -4 1 559.824 18.6971 6
-3 -4 -1 557.157 21.2688 12
3 4 1 548.69 19.3126 3
-3 4 -1 525.02 17.6927 5
3 4 1 565.266 18.9683 6
-4 -4 -1 253.618 18.0435 8
4 -4 1 251.359 10.0457 6
-4 -4 -1 252.944 12.1818 11
-4 -4 -1 264.393 12.2693 12
4 4 1 253.531 10.0135 6
-4 4 -1 253.363 9.63137 5
-4 4 -1 243.401 9.49196 9
4 4 1 241.687 10.0997 3
-5 -4 -1 6.02189 2.76515 8
-5 -4 -1 5.01683 2.67826 11
-5 -4 -1 6.40355 1.69927 12
5 4 1 8.55589 1.41322 6
-5 4 -1 6.48054 1.25805 5
-5 4 -1 5.57026 1.10566 9
-5 4 -1 6.16464 1.34886 11
-6 -4 -1 3.19555 0.82762 12
-5 5 1 53.4924 2.48225 11
-4 -5 1 48.1978 3.68643 12
-4 -5 1 44.5336 5.97794 8
4 5 -1 46.9852 3.48772 3
4 5 -1 52.4072 3.17223 6
-3 -5 1 127.672 6.33824 11
-3 -5 1 129.085 7.19404 12
3 5 -1 137.6 6.48099 6
3 5 -1 138.184 6.97143 3
-2 -5 1 36.4305 4.14898 12
2 5 -1 34.8735 3.29937 6
2 5 -1 41.5372 3.9395 3
1 5 -1 3.00124 1.05139 6
1 5 -1 1.43251 1.09951 3
-1 5 1 2.96882 1.40191 3
0 5 1 6.88498 1.49762 6
0 5 1 5.28258 1.49815 3
0 5 -1 3.99769 1.29226 6
0 5 -1 3.60378 1.33594 3
-1 5 -1 123.477 10.0206 3
1 5 1 117.448 6.41238 6
1 5 1 128.656 7.40585 3
-2 -5 -1 153.216 7.72892 12
2 5 1 153.447 7.36945 6
2 5 1 155.275 7.97193 3
-3 -5 -1 5.17401 1.7455 13
-3 -5 -1 6.1147 2.31941 12
-3 -5 -1 9.67294 3.60277 8
3 5 1 6.10632 1.45022 3
3 5 1 8.19649 1.67983 6
-4 -5 -1 43.6021 3.34814 12
-4 -5 -1 33.6261 5.20774 8
4 5 1 46.0444 2.92666 6
-4 5 -1 45.0419 3.04885 11
4 5 1 42.4752 2.85797 3
-5 -5 -1 23.5979 2.84008 8
3 -6 -1 56.3284 2.88412 3
3 6 -1 57.2951 2.45303 6
3 6 -1 55.1797 2.76501 3
2 -6 -1 55.6415 3.29041 3
2 6 -1 54.4928 2.66498 6
2 6 -1 53.6975 3.43961 3
1 -6 -1 6.22458 1.1681 3
-1 6 1 9.78545 1.31918 3
1 6 -1 10.7005 1.6576 3
0 6 -1 138.238 6.3632 3
0 6 1 144.428 6.43804 3
-1 6 -1 1.38434 0.66961 3
1 6 1 1.49977 0.74439 3
-2 -6 -1 4.17158 1.90701 8
2 6 1 6.84976 1.075 6
2 6 1 6.77978 1.31827 3
3 -6 1 158.263 5.69589 3
-3 -6 -1 148.825 8.93984 8
3 6 1 156.525 5.06081 6
3 6 1 152.599 5.41234 3
-7 0 2 7.44089 1.90722 9
-7 0 2 10.5042 2.99874 11
-6 0 2 274.192 10.8827 11
-6 0 2 270.04 10.5774 9
-6 0 2 247.427 9.83998 5
5 0 -2 97.003 13.1631 7
-5 0 2 84.8928 5.29275 5
-5 0 2 88.515 5.43039 9
-5 0 2 88.4602 5.62747 11
4 0 -2 534.363 23.959 7
-4 0 2 526.305 17.4816 11
-4 0 2 530.813 17.4307 5
-4 0 2 508.838 18.4386 9
4 0 -2 517.753 28.632 4
3 0 -2 89.6723 7.41728 7
2 0 -2 237.993 8.37904 1
-2 0 2 249.061 8.38475 1
2 0 -2 242.73 11.2548 7
0 0 -2 75.2336 3.32252 1
0 0 -2 68.229 3.72548 4
0 0 -2 70.8611 3.15047 7
0 0 2 68.4127 3.13639 7
0 0 2 74.7351 3.77945 4
0 0 2 70.8597 3.21287 1
1 0 2 3231.94 85.7258 4
-1 0 -2 3149.08 82.8727 1
-1 0 -2 3209.24 85.8264 4
1 0 2 3086.23 82.3929 7
1 0 2 2975.98 85.3793 1
2 0 2 2764.88 79.8129 4
3 0 2 298.643 12.1411 7
3 0 2 304.486 16.8825 4
-4 0 -2 235.723 9.92442 9
-4 0 -2 226.05 9.90623 13
-4 0 -2 224.634 9.80317 5
-4 0 -2 227.457 9.42154 11
4 0 2 235.642 17.4008 4
-4 0 -2 250.075 16.1065 8
-4 0 -2 225.603 12.0544 12
-5 0 -2 0.66716 2.06 8
-5 0 -2 0.92935 1.26114 12
-5 0 -2 -2.2866 1.04916 11
-5 0 -2 -0.7281 0.93782 9
-5 0 -2 0.22766 1.01699 13
-5 0 -2 -0.8418 1.05591 5
-6 0 -2 433.348 22.2101 8
-6 0 -2 474.515 15.854 9
-6 0 -2 465.42 15.2163 11
-6 0 -2 441.195 16.0191 12
-6 0 -2 449.273 15.6458 5
-7 0 -2 55.8204 2.74514 9
-7 0 -2 55.2243 2.66877 5
-7 -1 2 0.05095 0.72843 11
-7 1 2 1.51304 1.25283 5
-7 1 2 2.70517 0.97952 9
-7 1 2 1.7069 0.98087 11
-6 -1 2 54.0723 3.70277 9
-6 -1 2 57.9799 7.18963 11
-6 -1 2 50.272 4.45491 12
-6 1 2 57.8868 3.96169 5
-6 1 2 56.2575 4.13168 11
-6 1 2 58.5667 4.08089 9
-5 -1 2 50.3785 4.09537 11
-5 -1 2 45.9708 3.49073 9
-5 -1 2 52.1167 4.9841 12
-5 -1 2 43.9936 6.63277 8
-5 1 2 54.2775 4.33754 11
-5 1 2 47.4471 3.84414 5
-5 1 2 45.3753 3.8158 9
5 1 -2 28.371 11.0094 7
-4 -1 2 -0.4119 1.20502 11
-4 -1 2 1.36441 1.46464 12
4 -1 -2 -2.4279 7.25473 4
4 -1 -2 -0.9161 3.20696 7
-4 -1 2 6.18599 3.38175 8
4 1 -2 4.00745 3.65293 7
4 1 -2 2.82186 6.34148 4
-4 1 2 3.05859 1.31303 5
-4 1 2 1.13724 1.36271 11
-4 1 2 6.21882 1.61682 9
3 -1 -2 223.236 16.2642 4
3 -1 -2 210.327 12.2033 7
-3 1 2 231.438 9.87773 1
2 -1 -2 281.325 12.7334 7
-2 -1 2 287.218 10.5191 1
-2 1 2 275.099 10.7716 1
-2 1 2 251.676 13.9061 1
2 1 -2 286.749 10.0469 1
2 1 -2 259.375 12.9213 4
1 -1 -2 1509.92 44.2174 7
-1 -1 2 1517.8 42.9041 1
1 1 -2 1507.6 44.9988 4
-1 1 2 1498.58 42.994 1
-1 1 2 1449.43 43.1811 1
1 1 -2 1520.81 42.522 1
0 -1 2 4248.34 111.994 4
0 -1 2 3998.49 109.903 1
0 -1 -2 3926.23 111.049 7
0 1 2 4043.83 109.956 1
0 1 -2 4098.41 112.811 4
0 1 -2 4168.3 109.905 1
0 1 2 4102.81 109.597 1
1 -1 2 1728.51 54.2086 4
-1 1 -2 1805.94 48.7106 7
-1 1 -2 1781.05 54.7971 4
1 1 2 1830.43 49.3096 1
1 1 2 1729.56 49.6075 1
2 -1 2 214.018 13.7851 4
2 -1 2 223.032 9.38274 1
2 -1 2 227.45 8.43178 7
2 1 2 214.276 7.54922 1
2 1 2 218.31 7.87038 1
-2 1 -2 221.602 9.07483 1
3 -1 2 444.518 15.6387 7
3 -1 2 420.206 23.8346 4
3 1 2 409.247 15.9379 4
-4 -1 -2 67.8681 5.12693 13
-4 -1 -2 68.0073 5.46361 12
4 -1 2 49.5725 10.108 4
-4 -1 -2 68.3735 4.94266 5
-4 -1 -2 72.9739 8.73774 8
-4 -1 -2 65.3095 6.59857 9
-4 -1 -2 64.9162 4.49549 11
-4 1 -2 70.4229 7.949 8
-4 1 -2 68.3954 5.06735 13
-4 1 -2 56.9384 7.09766 12
-4 1 -2 74.1442 4.94111 9
-4 1 -2 61.2497 4.61668 5
-4 1 -2 66.1442 4.31903 11
4 1 2 77.0199 8.18536 7
-5 -1 -2 35.3115 3.27412 9
-5 -1 -2 31.5936 4.35725 12
-5 -1 -2 33.6696 6.29174 8
-5 -1 -2 36.3931 3.70333 5
-5 -1 -2 39.0882 3.99963 13
-5 -1 -2 39.2763 4.69516 11
-5 1 -2 35.8976 3.4091 5
-5 1 -2 36.4256 6.3113 8
-5 1 -2 31.0831 3.20998 11
-5 1 -2 32.5911 3.49805 9
-6 -1 -2 194.342 7.63914 9
-6 -1 -2 193.32 7.91634 5
-6 -1 -2 199.566 13.8589 8
-6 -1 -2 187.194 9.43109 12
-6 -1 -2 200.336 8.30088 11
-6 1 -2 197.22 8.11933 11
-6 1 -2 206.824 8.83167 5
-6 1 -2 200.475 8.73915 9
-7 1 -2 1.12441 0.6518 5
-7 1 -2 0.14719 0.47121 9
-7 -2 2 28.5669 2.14723 11
-7 2 2 30.3576 1.8049 11
-7 2 2 29.8187 2.21706 5
-7 2 2 33.9054 2.23725 9
-6 -2 2 17.7102 2.48941 11
-6 -2 2 15.2303 2.73363 12
-6 2 2 19.0695 2.31556 5
-6 2 2 20.4992 2.31875 9
-6 2 2 17.3704 2.43328 11
-5 -2 2 117.267 9.85064 11
-5 -2 2 102.712 10.4692 8
-5 -2 2 100.651 7.33962 12
-5 2 2 103.722 6.27551 11
-5 2 2 101.328 6.04171 9
-5 2 2 97.7897 5.82941 5
-4 -2 2 215.426 15.4092 8
-4 -2 2 198.321 11.532 11
4 -2 -2 180.723 15.5597 7
-4 -2 2 211.768 11.1311 12
-4 2 2 199.518 8.78856 5
-4 2 2 200.338 8.86912 9
3 -2 -2 257.144 20.9557 4
-3 -2 2 247.264 10.6022 11
3 -2 -2 258.782 15.0774 7
-3 2 2 255.886 9.82201 5
2 -2 -2 1262.2 42.2611 7
2 -2 -2 1233.11 47.6332 4
2 2 -2 1246.91 42.9622 4
-2 2 2 1267.42 40.7837 1
-1 -2 2 293.532 13.4841 4
1 -2 -2 290.949 14.4726 7
-1 -2 2 285.708 13.7462 1
1 -2 -2 292.964 16.0674 4
-1 2 2 297.291 14.2161 1
1 2 -2 278.456 13.0598 1
1 2 -2 294.231 15.3852 4
-1 2 2 293.257 13.5271 1
0 -2 -2 1440.45 45.8159 7
0 -2 2 1412.86 46.6308 4
0 -2 2 1482.36 45.2318 1
0 -2 -2 1455.13 44.5737 4
0 2 -2 1353.96 47.8317 4
0 2 2 1423.47 45.4968 1
0 2 -2 1439.97 44.2197 1
0 2 2 1397.41 44.1057 1
1 -2 2 1381.89 43.4605 1
1 -2 2 1300.93 47.2642 4
1 2 2 1315.68 41.937 1
-1 2 -2 1353.8 42.5152 1
1 2 2 1375.2 41.8044 1
2 -2 2 24.698 4.20684 1
2 -2 2 14.9345 4.7911 4
-2 2 -2 22.7307 2.62619 10
-2 2 -2 26.1693 4.65607 1
2 2 2 22.262 3.36451 1
3 -2 2 182.277 17.0887 4
-3 -2 -2 197.481 14.0807 8
-3 -2 -2 181.616 9.74486 12
-3 2 -2 184.591 8.37122 5
-3 2 -2 184.934 8.63273 9
-3 2 -2 194.703 15.9448 8
-4 -2 -2 70.71 9.2391 8
-4 -2 -2 71.284 5.21244 11
-4 -2 -2 66.6347 5.97114 12
-4 -2 -2 70.6424 5.27721 13
-4 2 -2 70.482 8.23775 8
-4 2 -2 72.5283 5.07577 9
-4 2 -2 67.0124 4.69606 5
-5 -2 -2 36.0979 3.84737 13
-5 -2 -2 42.4093 6.846 8
-5 -2 -2 36.9244 3.52664 11
-5 -2 -2 53.1949 5.13548 12
-5 2 -2 53.5256 3.96807 11
-5 2 -2 42.8525 3.91856 5
-5 2 -2 41.3849 3.93789 9
-5 2 -2 38.5291 6.47651 8
-6 -2 -2 14.5048 2.4061 12
-6 -2 -2 8.78615 3.55185 8
-6 -2 -2 11.3171 1.69302 11
-6 -2 -2 11.3584 1.82782 13
-6 2 -2 12.119 1.76603 11
-6 2 -2 12.0416 1.85783 9
-6 2 -2 8.81149 1.64293 5
-7 2 -2 23.9275 1.52342 5
-7 2 -2 22.9333 1.55116 9
-6 -3 2 6.62349 1.73714 12
-6 -3 2 9.17653 1.73067 11
-6 -3 2 4.76101 2.03929 8
-6 3 2 6.2199 1.26607 11
-6 3 2 9.09496 1.52604 9
-6 3 2 9.9129 1.84861 5
-5 -3 2 61.9778 4.31984 11
-5 -3 2 57.796 7.69663 8
-5 -3 2 68.498 5.81257 12
-5 3 2 58.1654 4.44098 11
-5 3 2 67.3121 4.29221 9
-5 3 2 64.5604 4.45676 5
-4 -3 2 289.946 11.3294 11
4 -3 -2 272.994 10.8996 6
-4 -3 2 281.869 13.999 12
-4 -3 2 291.873 19.2793 8
-4 3 2 278.048 11.143 5
4 3 -2 258.97 11.5493 6
-4 3 2 285.496 11.1177 9
3 -3 -2 624.279 19.9392 6
-3 -3 2 610.134 19.8515 11
3 -3 -2 594.117 29.1468 7
-3 -3 2 638.331 23.3318 12
-3 3 2 581.696 19.406 9
-3 3 2 612.004 19.7617 5
3 3 -2 610.895 21.4501 3
3 3 -2 623.452 21.0176 6
2 -3 -2 171.531 17.3945 4
-2 -3 2 231.908 11.6895 11
2 -3 -2 200.229 14.2617 7
-2 3 2 181.867 7.85405 5
1 -3 -2 437.212 22.2732 7
-1 -3 2 434.519 20.0658 4
1 -3 -2 422.533 23.8545 4
-1 3 2 438.856 22.539 1
-1 3 2 449.578 22.4992 1
0 -3 -2 813.877 31.5395 4
0 -3 2 830.197 34.2462 4
0 -3 2 864.21 34.7062 1
0 3 -2 809.651 32.5846 1
0 3 2 842.565 33.157 1
0 3 2 792.9 32.3888 1
0 3 -2 773.39 24.9409 10
1 -3 2 735.071 34.2605 4
-1 3 -2 702.664 22.6569 10
-2 -3 -2 196.796 8.38061 11
-2 -3 -2 206.461 10.3567 12
2 -3 2 223.165 19.1728 4
-2 3 -2 231.24 15.1077 8
-3 -3 -2 133.163 6.38896 11
-3 -3 -2 126.577 8.23334 12
3 -3 2 121.654 6.45682 6
-3 3 -2 121.983 6.64428 9
3 3 2 108.672 6.80362 6
-3 3 -2 138.395 11.6768 8
3 3 2 138.203 8.40772 3
-3 3 -2 122.524 6.41957 5
-4 -3 -2 21.1898 2.71643 11
-4 -3 -2 17.7178 5.56268 8
4 -3 2 15.8597 2.43259 6
-4 -3 -2 17.0129 3.42955 12
-4 -3 -2 11.2541 2.41171 13
-4 3 -2 18.4696 5.02547 8
-4 3 -2 19.664 2.39011 5
-4 3 -2 22.0117 2.75232 9
5 -3 2 186.762 7.93952 6
-5 -3 -2 192.525 8.40627 13
-5 -3 -2 202.823 15.4401 8
-5 -3 -2 192.332 10.3715 12
-5 -3 -2 198.029 8.04736 11
-5 3 -2 181.018 8.28214 9
-5 3 -2 190.88 8.3856 5
-5 3 -2 183.773 12.4932 8
-5 3 -2 190.483 8.25385 11
-6 -3 -2 91.6039 5.33458 12
-6 -3 -2 72.7771 6.99331 8
-6 3 -2 91.3239 4.3176 9
-6 3 -2 86.0786 3.70905 11
-6 3 -2 95.2737 4.46129 5
-6 -4 2 106.556 4.53169 12
-6 4 2 100.157 3.82643 11
-5 -4 2 93.8702 7.32593 11
-5 -4 2 71.6202 7.35504 8
-5 -4 2 87.4565 7.70367 12
5 4 -2 82.3887 4.27798 6
-5 4 2 95.3706 5.34641 11
-5 4 2 64.1457 4.22428 9
-5 4 2 85.2218 4.68788 5
-4 -4 2 248.268 12.2672 12
-4 -4 2 235.588 17.0258 8
-4 -4 2 255.133 10.8888 11
4 4 -2 245.938 10.3162 3
-4 4 2 233.817 9.48797 5
-4 4 2 238.883 8.91973 9
4 4 -2 246.206 10.174 6
-3 -4 2 7.07181 2.14018 12
-3 -4 2 5.98196 1.65536 11
3 4 -2 7.88426 1.95884 3
-3 4 2 6.41161 1.59204 5
3 4 -2 7.19304 1.87012 6
-2 -4 2 426.485 17.6237 12
-2 -4 2 417.848 14.9017 11
2 4 -2 422.003 16.5807 3
-2 4 2 426.164 15.3366 3
2 4 -2 414.672 15.4644 6
1 -4 -2 100.923 17.7653 4
-1 -4 2 91.1369 5.22946 11
-1 4 2 94.3348 5.79002 3
1 4 -2 96.0944 5.5292 6
-1 4 2 87.8094 4.4415 6
1 4 -2 99.59 6.45786 3
0 -4 2 158.557 19.2276 4
0 4 -2 157.682 8.33272 3
0 4 2 157.522 7.14702 6
0 4 -2 162.024 7.10677 6
0 4 2 146.766 7.95893 3
1 -4 2 229.762 9.10349 6
1 4 2 222.695 9.31081 6
1 4 2 232.055 10.3759 3
-1 4 -2 214.548 9.92473 3
-1 4 -2 216.675 7.84137 6
2 -4 2 72.7122 4.59796 6
-2 -4 -2 65.2231 5.43392 12
-2 -4 -2 64.9861 4.37951 11
2 4 2 70.4985 4.78244 6
2 4 2 60.0413 4.9258 3
3 -4 2 190.274 8.40182 6
-3 -4 -2 202.112 9.34608 11
-3 -4 -2 195.973 16.3725 8
-3 -4 -2 195.247 10.2727 12
-3 4 -2 179.202 7.78788 5
3 4 2 181.627 8.87597 3
3 4 2 178.226 8.35284 6
-3 4 -2 162.201 7.56916 9
4 -4 2 5.95265 1.50981 6
-4 -4 -2 6.77199 4.33748 11
-4 -4 -2 9.72722 2.29757 12
-4 -4 -2 4.63595 1.59419 13
-4 -4 -2 6.56317 2.80186 8
-4 4 -2 4.00935 1.34191 9
-4 4 -2 4.59564 1.26266 5
4 4 2 7.10924 1.79562 3
4 4 2 7.84767 1.71269 6
5 -4 2 27.1412 2.2392 6
-5 -4 -2 34.1501 3.36817 12
-5 -4 -2 27.8371 2.61784 11
-5 -4 -2 27.061 4.58066 8
5 4 2 26.9694 2.52072 6
-5 4 -2 30.0352 2.21479 9
-5 4 -2 28.4473 2.38207 11
-5 4 -2 27.6601 2.16436 5
-6 -4 -2 15.4317 1.45389 12
-5 5 2 5.70154 1.14054 11
4 -5 -2 164.37 6.84634 3
-4 -5 2 166.152 7.50354 12
-4 -5 2 132.072 10.5088 8
4 5 -2 165.734 7.17427 3
-4 5 2 166.113 6.86381 11
4 5 -2 159.514 6.44267 6
-3 -5 2 7.06234 1.67426 12
-3 -5 2 10.4922 2.1998 11
3 5 -2 13.8925 2.13551 6
3 5 -2 11.6898 2.1387 3
-2 -5 2 73.5991 5.49252 12
2 5 -2 71.2945 4.64701 6
2 5 -2 76.5808 5.49466 3
1 5 -2 138.973 8.4239 3
1 5 -2 151.807 8.19517 6
0 5 2 37.9841 2.91659 6
0 5 2 35.4239 3.70697 3
0 5 -2 35.2081 3.77359 3
0 5 -2 34.9264 3.4123 6
1 5 2 156.504 11.5962 3
2 5 2 49.3914 4.0118 6
2 5 2 55.08 4.42183 3
-3 -5 -2 1.84592 2.08456 8
-3 -5 -2 1.63828 1.08022 12
-3 -5 -2 2.60079 1.1507 13
3 5 2 3.01795 1.12886 6
3 5 2 1.94263 1.00943 3
-4 -5 -2 17.9871 3.67386 8
-4 -5 -2 18.9911 2.36225 12
-4 5 -2 18.8607 1.99611 11
4 5 2 21.1345 1.86071 6
4 5 2 18.148 1.88447 3
3 -6 -2 1.26658 0.52712 3
-3 -6 2 -0.3024 0.72301 8
3 6 -2 0.89617 0.5234 3
3 6 -2 0.81124 0.48329 6
2 -6 -2 86.7193 4.24503 3
2 6 -2 89.4035 4.59391 3
2 6 -2 85.435 3.48497 6
1 -6 -2 59.7339 3.32465 3
1 6 -2 58.1339 3.80706 3
-1 6 2 54.5748 2.97372 3
0 6 -2 60.9505 3.8375 3
0 6 2 57.9816 3.68755 3
-1 -6 -2 12.4792 3.7379 8
1 6 2 14.1188 1.88929 3
-2 -6 -2 25.096 4.0103 8
2 6 2 33.6348 1.92838 6
2 6 2 31.0571 2.42881 3
-7 0 3 0.77188 2.24083 9
-7 0 3 0.19125 2.625 11
-6 0 3 277.878 11.1276 11
-6 0 3 279.82 10.8518 9
-6 0 3 272.76 10.2106 5
-5 0 3 10.4311 2.3309 5
-5 0 3 9.87372 2.11528 9
-5 0 3 11.3501 2.28454 11
-4 0 3 86.4016 5.14218 11
4 0 -3 95.8357 12.8542 4
4 0 -3 81.6382 8.62425 7
-4 0 3 82.1737 4.95883 9
-4 0 3 83.7378 5.0283 5
-3 0 3 349.077 11.3834 1
3 0 -3 344.572 16.9289 7
-3 0 3 342.87 11.2259 1
-2 0 3 45.6274 3.21864 1
2 0 -3 47.8176 3.35041 1
2 0 -3 51.8861 4.74825 7
1 0 -3 615.504 18.4274 1
-1 0 3 553.112 18.0827 1
1 0 -3 605.871 19.8402 7
0 0 -3 84.9643 5.18989 4
0 0 -3 99.9545 4.5765 1
0 0 3 96.4416 5.27859 4
0 0 3 94.5756 4.48497 1
0 0 -3 90.3728 4.27918 7
1 0 3 87.8379 5.47202 4
-1 0 -3 83.7883 6.02053 4
1 0 3 83.719 4.16335 1
-1 0 -3 86.4252 4.1643 1
1 0 3 83.8212 3.02576 7
2 0 3 322.407 10.4485 7
2 0 3 329.161 14.8976 4
2 0 3 313.725 10.0778 7
-2 0 -3 328.657 10.301 1
2 0 3 314.48 10.3063 1
3 0 3 139.783 6.30777 7
3 0 3 132.486 10.6373 4
-4 0 -3 130.993 7.02621 13
-4 0 -3 123.019 6.90005 9
-4 0 -3 141.448 11.9163 8
4 0 3 96.8757 12.8679 4
-4 0 -3 131.135 7.57399 12
-4 0 -3 125.241 6.34199 11
-4 0 -3 123.334 6.72895 5
-5 0 -3 2.22035 1.54737 11
-5 0 -3 0.68169 1.35667 13
-5 0 -3 -0.1532 1.22199 12
-5 0 -3 1.62768 1.96467 8
-5 0 -3 0.88021 1.20602 5
-5 0 -3 0.6286 1.05118 9
-6 0 -3 49.972 4.11206 12
-6 0 -3 48.1068 6.78734 8
-6 0 -3 54.6948 4.03965 5
-6 0 -3 49.5202 3.70999 9
-7 0 -3 182.731 6.08823 5
-7 0 -3 178.746 6.92624 9
-7 -1 3 63.0878 3.29658 11
-7 1 3 56.3315 3.12907 5
-7 1 3 59.1234 3.52376 9
-7 1 3 55.4155 3.28575 11
-6 -1 3 105.633 6.43907 12
-6 -1 3 111.101 8.17755 11
-6 -1 3 114.485 5.94517 9
-6 1 3 111.074 5.7423 5
-6 1 3 105.271 5.83852 9
-6 1 3 111.074 6.04743 11
-5 -1 3 231.555 10.0244 11
-5 -1 3 222.938 11.1881 12
-5 -1 3 233.468 9.47815 9
5 1 -3 240.342 22.1835 7
-5 1 3 238.45 10.1497 9
-5 1 3 230.378 10.1646 11
-5 1 3 218.711 9.63681 5
-4 -1 3 642.942 27.7837 8
-4 -1 3 612.558 19.6186 9
-4 -1 3 640.91 20.3567 11
-4 -1 3 613.288 22.3248 12
4 -1 -3 594.652 27.6674 7
-4 1 3 620.153 20.3459 11
-4 1 3 604.862 19.9154 5
-4 1 3 597.864 20.013 9
4 1 -3 640.99 31.3795 7
3 -1 -3 239.699 13.6442 7
-3 1 3 233.982 11.2072 1
2 -1 -3 60.7419 5.60312 7
2 1 -3 60.7407 4.11305 1
-2 1 3 48.7784 4.51411 1
2 1 -3 56.0696 5.81833 4
-2 1 3 57.6174 4.26719 1
1 -1 -3 428.803 16.198 7
-1 -1 3 418.902 14.9648 1
-1 1 3 395.28 14.7196 1
1 1 -3 414.673 17.3713 4
1 1 -3 422.22 14.6159 1
0 -1 3 609.276 20.0455 1
0 -1 -3 636.759 19.9964 1
0 -1 3 589.701 21.5654 4
0 -1 -3 596.861 20.3368 7
0 1 -3 579.108 19.5713 1
0 1 3 605.989 19.542 1
0 1 -3 585.277 22.8352 4
1 -1 3 1637.08 51.5028 4
1 -1 3 1595.9 46.3193 1
1 1 3 1601.17 45.2857 1
1 1 3 1571.66 45.6678 1
-1 1 -3 1603.84 43.4507 7
-1 1 -3 1578.53 51.4613 4
2 -1 3 1164.3 42.393 4
2 -1 3 1169.23 35.717 1
-2 1 -3 1197.6 35.1914 1
2 1 3 1185.84 34.2429 1
2 1 3 1180.43 33.5338 1
3 -1 3 21.5045 6.53126 4
-4 -1 -3 163.132 7.97783 11
-4 -1 -3 171.763 9.34627 12
-4 -1 -3 171.502 8.07686 5
-4 -1 -3 177.631 8.71353 13
-4 -1 -3 177.059 13.812 8
-4 -1 -3 166.31 7.96032 9
4 -1 3 148.606 21.7256 4
-4 1 -3 178.697 8.48361 13
-4 1 -3 165.447 8.39948 9
-4 1 -3 169.586 8.29996 5
4 1 3 112.808 18.2415 7
-4 1 -3 177.844 13.2692 8
-4 1 -3 160.905 7.60453 11
-5 -1 -3 379.802 22.1934 8
-5 -1 -3 360.678 13.5587 5
-5 -1 -3 337.397 15.1558 12
-5 -1 -3 347.109 13.965 13
-5 -1 -3 338.361 14.0188 11
-5 -1 -3 322.938 12.5747 9
-5 1 -3 344.254 13.948 9
-5 1 -3 354.659 13.8866 5
-5 1 -3 339.099 12.8247 11
-5 1 -3 376.359 21.6601 8
-6 -1 -3 31.7087 3.17634 13
-6 -1 -3 31.975 3.4816 12
-6 -1 -3 36.0004 5.68705 8
-6 -1 -3 30.0481 2.77192 5
-6 1 -3 32.3858 3.09066 9
-6 1 -3 33.6065 3.11121 5
-6 1 -3 30.3872 4.92584 8
-7 1 -3 6.19405 0.95133 9
-7 1 -3 5.6266 0.94592 5
-7 -2 3 128.055 4.58894 11
-7 2 3 129.805 5.05076 9
-7 2 3 121.912 4.60482 11
-6 -2 3 64.9158 5.0163 12
-6 -2 3 64.7755 4.36234 11
-6 2 3 66.612 4.18607 9
-6 2 3 64.8413 4.36069 11
-6 2 3 65.0748 4.16693 5
-5 -2 3 45.1054 6.55003 11
-5 -2 3 47.2166 5.08692 12
-5 -2 3 40.724 6.35805 8
-5 2 3 51.3328 4.31969 11
-5 2 3 50.6028 3.91111 5
-5 2 3 48.7147 3.8904 9
-4 -2 3 21.4614 5.54142 11
-4 -2 3 13.6418 4.42029 8
4 -2 -3 13.574 6.76513 7
-4 -2 3 18.4964 3.26483 12
-4 2 3 21.6446 2.4151 9
-4 2 3 19.9545 2.57094 5
-3 -2 3 40.7829 5.3378 11
3 -2 -3 35.7451 5.98128 7
3 -2 -3 27.3088 7.9196 4
-3 2 3 33.746 3.08535 5
-3 2 3 29.262 2.94247 9
2 -2 -3 2008.99 67.5698 4
2 -2 -3 2023.65 62.1288 7
-2 2 3 1858.46 61.0098 1
-1 -2 3 83.499 6.99302 4
1 -2 -3 77.7102 7.52836 4
1 -2 -3 82.9198 7.23109 7
-1 -2 3 94.3929 7.00987 1
1 2 -3 84.3238 6.39808 1
-1 2 3 80.5401 6.98565 1
-1 2 3 82.7611 6.77893 1
1 2 -3 84.5523 8.70179 4
0 -2 -3 195.241 11.3079 7
0 -2 3 189.05 11.7622 4
0 -2 3 182.619 10.5727 1
0 -2 -3 195.206 10.4175 4
0 2 -3 189.181 10.3174 1
0 2 3 189.321 10.8361 1
0 2 3 179.017 9.96547 1
1 -2 3 2513.55 73.6208 1
1 -2 3 2444.03 78.3766 4
1 2 3 2450.28 71.5317 1
-1 2 -3 2499.8 72.7439 1
1 2 3 2485.42 72.7897 1
2 -2 3 199.557 11.8997 1
2 2 3 197.588 9.92307 1
-2 2 -3 201.985 8.54654 10
3 -2 3 78.3817 11.6884 4
-3 -2 -3 80.0665 7.7193 12
-3 -2 -3 57.8101 8.05631 8
-3 2 -3 61.567 7.25425 8
-3 2 -3 64.7862 5.18783 9
-3 2 -3 60.0433 4.38269 5
-4 -2 -3 199.769 8.76457 5
-4 -2 -3 209.963 16.4363 8
-4 -2 -3 185.798 8.23758 11
-4 -2 -3 197.014 11.5434 12
-4 -2 -3 192.673 13.4485 13
-4 2 -3 176.194 8.48212 11
-4 2 -3 193.175 12.1154 5
-4 2 -3 180.257 12.8534 9
-4 2 -3 192.041 14.1483 8
-5 -2 -3 121.977 7.21877 13
-5 -2 -3 129.039 8.45703 12
-5 -2 -3 122.029 11.6903 8
-5 2 -3 125.451 11.3367 8
-5 2 -3 120.79 8.71091 11
-5 2 -3 123.83 6.9025 5
-5 2 -3 126.858 7.1413 9
-6 -2 -3 58.3551 7.20635 8
-6 -2 -3 66.2536 3.93755 13
-6 -2 -3 66.184 4.91007 12
-6 2 -3 69.0466 4.25545 9
-6 2 -3 55.6713 3.48166 11
-6 2 -3 67.2854 4.14562 5
-7 2 -3 5.76765 0.79572 5
-7 2 -3 5.33462 0.74892 9
-6 -3 3 63.2599 3.70227 11
-6 -3 3 62.652 4.44211 12
-6 3 3 59.1896 3.64605 11
-6 3 3 67.2655 3.50352 9
-6 3 3 64.8923 4.08774 5
-5 -3 3 169.289 7.6968 11
-5 -3 3 137.821 11.5291 8
-5 -3 3 173.292 9.65874 12
5 3 -3 164.061 7.8809 6
-5 3 3 172.684 8.15706 11
-5 3 3 163.273 7.31323 9
-5 3 3 174.554 7.80137 5
4 -3 -3 89.6811 5.23141 6
-4 -3 3 90.8908 10.1574 8
-4 -3 3 86.2206 5.44673 11
-4 -3 3 87.2442 7.04682 12
-4 3 3 86.1201 5.0961 9
-4 3 3 87.6348 5.48041 5
4 3 -3 77.3013 6.13924 6
-3 -3 3 82.7346 4.98576 11
3 -3 -3 69.2182 9.05316 7
3 -3 -3 82.0536 4.80321 6
3 3 -3 90.0577 6.39092 3
-3 3 3 74.3207 4.71113 9
3 3 -3 78.5403 5.87593 6
-3 3 3 84.4517 5.00411 5
-2 -3 3 15.3016 2.33539 11
2 -3 -3 13.7162 5.80099 4
2 -3 -3 16.8512 2.65673 6
2 -3 -3 18.1207 4.63939 7
2 3 -3 12.9241 3.05104 6
-2 3 3 17.8756 2.55437 5
2 3 -3 21.4384 3.16983 3
-2 3 3 13.4799 2.20658 3
-1 -3 3 92.916 8.83345 4
1 -3 -3 79.4806 8.82207 7
1 -3 -3 80.1459 10.0335 4
1 3 -3 80.067 4.79289 10
-1 3 3 78.7337 15.1919 1
-1 3 3 56.5536 12.1208 1
0 -3 3 187.896 14.4844 4
0 -3 -3 199.369 12.852 4
0 -3 3 177.234 26.1232 1
0 3 -3 181.324 8.3559 10
0 3 -3 204.443 14.0063 1
0 3 3 201.161 13.785 1
1 -3 3 120.267 12.8477 4
1 -3 3 131.069 7.05409 6
-1 3 -3 121.621 6.56316 10
-1 3 -3 124.346 10.4518 8
2 -3 3 231.001 9.36264 6
-2 -3 -3 234.113 11.7014 12
2 -3 3 271.668 22.5535 4
-2 -3 -3 213.166 8.83658 11
2 3 3 206.483 9.14592 6
2 3 3 220.248 9.88927 3
-2 3 -3 267.151 16.1328 8
3 -3 3 153.238 7.19104 6
-3 -3 -3 170.892 14.6261 8
-3 -3 -3 158.473 9.01527 12
-3 -3 -3 152.623 6.98723 11
3 3 3 148.564 7.50511 6
-3 3 -3 162.941 12.9622 8
-3 3 -3 146.11 7.19107 5
-3 3 -3 148.79 7.71611 9
3 3 3 144.4 7.55338 3
-4 -3 -3 15.0969 2.74633 13
-4 -3 -3 12.6142 4.48338 8
-4 -3 -3 14.4247 3.05697 12
-4 -3 -3 13.1402 2.08 11
4 -3 3 16.8189 2.46565 6
-4 3 -3 19.5664 2.53298 5
-4 3 -3 14.9072 4.64787 8
-4 3 -3 21.2762 2.78539 9
-5 -3 -3 58.3298 4.67358 11
5 -3 3 49.9466 3.64748 6
-5 -3 -3 48.1774 3.90457 13
-5 -3 -3 56.2774 5.15966 12
-5 -3 -3 53.5356 7.44821 8
-5 3 -3 55.9161 4.06092 9
-5 3 -3 49.0566 3.60856 11
-5 3 -3 45.8997 5.96951 8
-5 3 -3 51.2986 3.81555 5
-6 -3 -3 44.708 5.32859 8
-6 -3 -3 51.7005 3.79314 12
-6 3 -3 49.5822 2.93223 5
-6 3 -3 50.5113 3.09711 9
-6 4 3 69.2881 2.8311 11
5 -4 -3 25.9981 2.43405 3
-5 -4 3 39.3457 3.77577 12
-5 -4 3 30.9073 4.26099 11
-5 -4 3 30.7871 4.5658 8
-5 4 3 33.9266 2.70739 9
5 4 -3 40.1863 2.77634 6
-5 4 3 34.9038 2.77947 11
-5 4 3 31.7289 3.41995 5
-4 -4 3 149.055 12.8397 8
-4 -4 3 140.193 7.73685 11
-4 -4 3 150.895 9.01658 12
-4 4 3 148.404 6.89674 5
4 4 -3 146.391 7.26922 6
4 4 -3 148.189 7.46732 3
-4 4 3 139.56 6.0366 9
-3 -4 3 243.979 10.046 11
-3 -4 3 239.537 12.6024 12
3 4 -3 237.105 10.5172 6
3 4 -3 237.124 11.0795 3
-3 4 3 240.256 9.71368 5
-2 -4 3 844.908 25.8601 11
2 4 -3 870.625 28.1443 3
2 4 -3 846.759 26.6134 6
-2 4 3 795.358 25.1778 3
-2 4 3 779.534 24.7626 5
-1 -4 3 85.9032 6.28601 11
-1 4 3 80.4232 5.47448 3
1 4 -3 92.4592 7.88568 3
-1 4 3 73.028 3.87087 6
0 -4 3 49.4199 11.8509 4
0 -4 3 48.5544 3.28033 6
0 4 3 53.0474 4.28742 3
0 4 -3 48.098 3.73352 6
0 4 3 53.4052 3.71256 6
0 4 -3 51.9112 4.17146 10
0 4 -3 57.9575 4.6864 3
-1 -4 -3 125.478 6.20331 3
-1 4 -3 131.664 7.45587 3
1 4 3 121.158 8.5145 3
-2 -4 -3 203.404 10.2543 12
-2 -4 -3 219.165 8.90547 11
2 4 3 218.112 9.90431 3
2 4 3 206.852 9.08634 6
-2 4 -3 198.853 8.74736 3
3 -4 3 38.9221 3.36409 6
-3 -4 -3 40.2811 5.02978 11
-3 -4 -3 42.0114 7.36348 8
-3 -4 -3 36.8809 4.07034 12
-3 4 -3 30.8378 3.0069 5
3 4 3 36.9254 3.39359 6
-3 4 -3 32.3855 3.21515 9
3 4 3 37.7208 3.75112 3
-4 -4 -3 143.098 8.37039 12
-4 -4 -3 151.951 13.3978 8
-4 -4 -3 140.332 7.34928 11
-4 -4 -3 142.514 7.2514 13
-4 4 -3 135.268 6.29177 9
4 4 3 132.773 6.50051 6
-4 4 -3 125.643 8.06045 5
-5 -4 -3 66.3213 4.61952 12
-5 -4 -3 62.4854 6.71479 8
5 -4 3 69.3197 3.65428 6
-5 4 -3 68.0143 3.31821 5
-5 4 -3 66.7977 3.5982 11
-5 4 -3 65.441 4.2676 9
-5 5 3 6.9561 0.80326 11
4 -5 -3 77.4849 4.20266 3
-4 -5 3 64.9095 6.8364 8
-4 -5 3 69.1769 4.43222 12
-4 -5 3 79.5876 4.09861 11
4 5 -3 74.9488 4.18423 3
-4 5 3 75.4886 4.24656 11
4 5 -3 73.1784 3.87672 6
-3 -5 3 16.016 2.51571 11
-3 -5 3 18.6397 2.68221 12
3 5 -3 14.5803 2.29221 6
3 5 -3 16.6356 2.30058 3
-2 -5 3 27.2343 3.58174 12
2 5 -3 32.2441 3.53273 3
2 5 -3 33.7235 3.29836 6
-2 5 3 30.553 2.68282 3
-1 -5 3 25.4601 3.46953 12
-1 5 3 31.0748 3.4106 3
1 5 -3 35.2989 4.75666 6
0 5 3 11.7062 2.38588 3
0 5 -3 7.63542 2.01087 3
1 5 3 4.77083 1.83859 6
-1 5 -3 6.5034 1.54751 3
1 5 3 11.3359 3.17429 3
2 5 3 113.499 6.54042 3
-3 -5 -3 4.76559 2.09468 13
-3 -5 -3 8.53746 3.25267 8
-3 -5 -3 5.5564 1.39204 12
3 5 3 7.23537 1.52306 6
3 5 3 6.37001 2.20358 3
-4 -5 -3 27.5123 4.36226 8
-4 -5 -3 29.9528 2.39883 12
4 5 3 21.9985 2.70428 3
4 5 3 33.9457 2.27841 6
-4 5 -3 31.5019 2.99728 11
3 -6 -3 113.669 4.35944 3
-3 -6 3 109.218 7.20686 8
-3 6 3 117.555 4.49485 11
3 6 -3 117.178 4.46413 3
2 -6 -3 175.36 6.6265 3
2 6 -3 165.987 6.33464 6
2 6 -3 174.11 7.02769 3
1 -6 -3 1.24531 0.68599 3
1 6 -3 1.68092 0.83653 3
-1 6 3 0.30673 0.61178 3
0 -6 -3 16.528 4.4304 8
0 6 3 27.0388 2.28035 3
0 6 -3 23.6975 2.26335 3
-1 -6 -3 1.88968 1.66999 8
1 6 3 1.49808 0.74208 3
-2 -6 -3 46.0601 3.0386 13
2 6 3 42.7511 2.78671 3
2 6 3 47.5857 3.04261 6
-3 -6 -3 1.78335 1.43333 8
-7 0 4 -0.7765 2.57377 11
-6 0 4 189.081 7.6701 5
-6 0 4 195.642 8.43479 9
-6 0 4 198.304 8.80963 11
-5 0 4 753.03 24.1362 11
-5 0 4 741.306 23.6183 9
-5 0 4 718.178 22.9284 5
4 0 -4 311.395 18.313 7
-4 0 4 303.373 11.6333 9
-4 0 4 322.662 12.0107 11
3 0 -4 277.069 15.1683 7
-2 0 4 2057.07 56.7967 1
2 0 -4 2005.79 56.7822 1
2 0 -4 1952.17 59.9779 7
-1 0 4 241.525 9.68529 1
1 0 -4 237.903 11.7561 4
1 0 -4 259.792 10.9967 7
1 0 -4 235.617 9.69608 1
0 0 -4 2546.84 75.6715 4
0 0 -4 2663.43 73.3273 1
0 0 4 2621.25 74.8246 4
0 0 4 2728.76 73.4042 1
0 0 -4 2837.35 73.1551 7
-1 0 -4 8426.27 217.905 1
1 0 4 8116.35 217.868 1
-1 0 -4 8215.97 221.761 4
-2 0 -4 3232.42 88.124 1
2 0 4 3315.96 88.4804 1
2 0 4 3260.9 93.6361 4
3 0 4 73.5753 7.71484 4
-4 0 -4 45.2567 6.85158 8
-4 0 -4 42.9078 4.32314 12
-4 0 -4 36.7343 3.8735 9
-4 0 -4 44.9823 3.89907 13
-4 0 -4 39.643 4.21931 11
4 0 4 25.5609 7.85259 4
-4 0 -4 41.0907 3.87828 5
-5 0 -4 14.3628 2.54948 9
-5 0 -4 13.2262 2.64882 13
-5 0 -4 15.0486 4.97565 8
-5 0 -4 13.995 3.02301 12
-5 0 -4 16.7566 3.13384 5
-6 0 -4 102.949 5.39101 9
-6 0 -4 100.797 5.67569 5
-6 0 -4 101.466 9.82374 8
-6 0 -4 103.849 5.92925 12
-7 0 -4 210.198 6.80356 5
-7 -1 4 20.1498 1.95477 11
-7 1 4 23.9879 3.11112 9
-7 1 4 18.2842 2.57329 5
-7 1 4 21.7188 2.08134 11
-6 -1 4 88.4705 7.77381 11
-6 -1 4 91.5998 6.64978 9
-6 -1 4 85.6367 5.61009 12
-6 1 4 89.869 5.34624 11
-6 1 4 88.8894 5.20962 9
-6 1 4 88.4507 4.97675 5
-5 -1 4 168.227 8.16599 11
-5 -1 4 158.407 8.99559 12
-5 -1 4 162.401 7.55866 9
-5 1 4 166.36 7.68841 5
-5 1 4 162.99 8.15182 11
-5 1 4 165.601 7.95308 9
-4 -1 4 202.958 8.96368 11
-4 -1 4 204.558 10.5661 12
4 -1 -4 187.641 19.4807 4
-4 -1 4 208.88 8.61135 9
-4 1 4 210.787 8.96093 9
-4 1 4 204.79 8.92138 11
-4 1 4 203.787 8.75831 5
4 1 -4 228.34 16.1126 7
3 -1 -4 225.377 13.9595 7
-3 1 4 225.539 12.852 1
2 -1 -4 1163.9 38.419 7
2 1 -4 1113.31 34.5247 1
-2 1 4 1155.8 36.4172 1
-2 1 4 1123.93 35.1782 1
1 -1 -4 142.945 10.0574 1
-1 -1 4 153.527 8.30242 1
1 -1 -4 161.363 8.92653 7
1 1 -4 139.939 7.36167 1
-1 1 4 154.185 7.79141 1
1 1 -4 157.69 10.3057 4
0 -1 4 1252.23 38.6252 1
0 -1 -4 1304.37 39.2398 7
0 -1 -4 1317.34 38.796 1
0 -1 4 1307.6 41.2395 4
0 -1 -4 1267.29 38.2753 4
0 1 4 1303.89 38.2788 1
0 1 -4 1301.72 43.4085 4
0 1 -4 1264.54 38.4185 1
-1 -1 -4 496.539 18.7105 7
1 -1 4 494.933 21.6025 4
1 -1 4 528.321 18.4218 1
-1 -1 -4 517.299 15.862 4
-1 -1 -4 524.245 18.0204 1
-1 1 -4 515.813 22.9996 4
1 1 4 494.743 17.2831 1
-1 1 -4 540.277 18.2919 1
-1 1 -4 500.228 14.5217 7
2 -1 4 718.677 24.3679 1
2 -1 4 712.205 30.3144 4
2 1 4 716.042 23.1064 1
-2 1 -4 731.065 23.8384 1
2 1 4 726.21 22.513 1
3 -1 4 96.8396 11.0503 4
-3 1 -4 94.1452 7.43116 1
-4 -1 -4 56.8995 6.23374 11
-4 -1 -4 53.2137 4.32239 9
4 -1 4 40.7273 10.3039 4
-4 -1 -4 55.6658 4.66006 13
-4 -1 -4 55.6822 5.11449 12
-4 -1 -4 54.529 7.57227 8
-4 -1 -4 55.4131 4.49135 5
-4 1 -4 55.4609 4.73741 12
-4 1 -4 54.8108 4.42829 13
-4 1 -4 54.3248 4.22876 11
-4 1 -4 53.7392 4.32652 5
-4 1 -4 59.0878 7.6354 8
-4 1 -4 54.7333 4.63579 9
-5 -1 -4 247.28 12.2083 12
-5 -1 -4 228.701 9.78286 9
-5 -1 -4 265.26 18.4231 8
-5 -1 -4 234.824 10.9676 13
-5 -1 -4 247.254 10.7347 5
-5 1 -4 235.009 10.8962 9
-5 1 -4 252.05 11.1702 5
-5 1 -4 261.757 18.0102 8
-6 -1 -4 106.434 10.0389 8
-6 -1 -4 117.722 6.2845 13
-6 -1 -4 120.643 5.86527 5
-6 -1 -4 117.659 6.92903 12
-6 1 -4 115.699 9.81595 8
-6 1 -4 120.235 6.2058 9
-6 1 -4 131.021 6.3927 5
-7 1 -4 21.5672 1.55753 5
-7 1 -4 22.1513 1.49405 9
-7 -2 4 27.2902 1.89955 11
-7 2 4 36.5125 3.91497 5
-7 2 4 25.3713 2.97998 9
-7 2 4 25.0355 1.67079 11
-6 -2 4 132.785 6.43112 11
-6 2 4 128.218 6.12009 5
-6 2 4 132.731 6.62472 11
-6 2 4 131.298 6.2372 9
-5 -2 4 123.554 10.3647 11
-5 -2 4 128.934 8.38873 12
-5 2 4 126.223 7.13998 11
-5 2 4 126.625 6.74849 5
-5 2 4 132.645 6.78727 9
4 -2 -4 73.4638 4.7453 6
-4 -2 4 64.2457 8.22547 8
4 -2 -4 54.9371 8.73756 7
-4 2 4 56.3125 6.28824 5
3 -2 -4 376.349 25.8808 4
3 -2 -4 376.734 20.2373 7
-3 2 4 360.541 13.0075 9
3 2 -4 346.6 12.8089 10
-3 2 4 391.169 13.8274 5
2 -2 -4 820.127 31.9789 7
2 -2 -4 837.786 36.7012 4
-1 -2 4 237.869 13.5833 4
-1 -2 4 226.225 12.5419 1
1 -2 -4 231.801 13.7208 7
1 -2 -4 231.041 14.295 4
1 2 -4 235.013 12.2503 1
-1 2 4 241.307 13.2202 1
-1 2 4 225.33 12.1328 1
0 -2 4 893.807 34.143 4
0 -2 -4 872.539 32.225 7
0 -2 4 910.868 31.9727 1
0 -2 -4 917.313 30.5076 4
0 2 4 888.501 31.7699 1
0 2 -4 887.716 31.004 1
0 2 4 895.775 30.7959 1
1 -2 4 1571.72 50.7617 1
1 -2 4 1625.37 56.3875 4
1 2 4 1584.95 50.217 1
-1 2 -4 1573.9 45.5356 10
1 2 4 1612.7 49.2508 1
-1 2 -4 1633.7 50.4319 1
2 -2 4 1058.17 43.2582 4
2 -2 4 981.528 35.7832 1
-2 2 -4 962.16 30.1434 10
2 2 4 978.679 32.3868 1
-3 -2 -4 79.408 6.25689 12
3 -2 4 105.821 13.4287 4
-3 -2 -4 97.7767 10.1919 8
-3 -2 -4 73.8954 8.2694 5
-3 2 -4 94.4059 9.32438 8
-3 2 -4 85.6403 5.58488 9
-3 2 -4 86.8037 5.63005 5
-4 -2 -4 282.173 12.5521 13
-4 -2 -4 282.162 10.6928 11
-4 -2 -4 283.856 13.5794 12
-4 -2 -4 317.111 20.2964 8
-4 -2 -4 291.814 12.1317 5
-4 2 -4 297.53 12.6251 9
-4 2 -4 309.875 18.8143 8
-4 2 -4 280.39 11.9495 5
-4 2 -4 287.696 12.5014 11
-5 -2 -4 98.8612 9.86794 12
-5 2 -4 114.589 10.9626 8
-5 2 -4 105.774 5.60979 11
-6 -2 -4 40.6655 5.19214 12
-6 -2 -4 38.666 6.09537 8
-6 -2 -4 41.7497 3.14069 13
-6 2 -4 40.3042 3.18535 9
-6 2 -4 33.8678 4.57647 8
-6 2 -4 38.4291 3.05097 5
-6 -3 4 173.753 6.74052 11
-6 -3 4 172.46 7.79635 12
-6 3 4 168.963 7.12814 5
-6 3 4 168.088 6.53912 9
-6 3 4 165.379 6.85618 11
-5 -3 4 -0.268 0.7693 11
-5 -3 4 -1.0423 0.90378 12
-5 -3 4 1.26708 1.65313 8
5 -3 -4 1.68539 1.05145 3
-5 3 4 0.4687 1.27231 5
-5 3 4 -1.2756 0.63736 11
-5 3 4 -0.0003 0.72178 9
5 3 -4 1.34147 1.47295 6
-4 -3 4 256.924 13.1689 12
-4 -3 4 250.584 10.3751 11
-4 -3 4 254.656 17.2277 8
-4 3 4 230.951 10.0681 5
4 3 -4 227.686 10.9635 3
4 3 -4 251.974 11.0063 6
-4 3 4 240.982 9.74469 9
-3 -3 4 290.125 11.4865 11
3 -3 -4 299.83 20.0765 7
3 3 -4 273.093 11.7868 6
-3 3 4 275.065 10.7445 5
-3 3 4 259.074 10.2341 9
3 3 -4 278.424 12.3702 3
2 -3 -4 119.46 11.2434 7
-2 -3 4 126.646 6.1473 11
2 -3 -4 125.896 15.5484 4
2 3 -4 121.112 6.48603 10
-2 3 4 125.629 5.98596 5
-2 3 4 126.775 5.91501 3
-1 -3 4 58.0624 8.38848 4
-1 -3 4 34.7935 3.02524 11
1 -3 -4 37.3362 6.30663 7
1 -3 -4 35.4519 8.20978 4
1 3 -4 34.8711 3.78919 6
1 3 -4 29.0888 3.91361 3
-1 3 4 44.3209 3.53563 3
1 3 -4 41.0477 3.63684 10
0 -3 -4 66.0669 8.31726 7
0 -3 4 64.6665 8.5551 4
0 -3 4 48.7219 8.93283 1
0 3 -4 47.094 7.32802 3
0 3 -4 70.0648 9.93629 1
0 3 -4 61.102 4.27979 10
1 -3 4 250.491 9.90603 6
1 -3 4 272.429 19.8493 4
1 3 4 284.528 12.0463 3
-1 3 -4 280.775 11.3896 10
-1 3 -4 290.324 16.7547 8
1 3 4 239.674 10.0935 6
-1 3 -4 255.699 10.9421 3
-2 -3 -4 164.304 8.6052 11
2 -3 4 170.067 17.6852 4
2 -3 4 154.363 7.31253 6
-2 -3 -4 137.31 8.34595 12
-2 3 -4 164.702 8.49925 10
-2 3 -4 157.824 8.24329 9
-2 3 -4 183.686 13.3087 8
-3 -3 -4 606.046 29.8636 8
-3 -3 -4 535.667 17.8499 11
3 -3 4 548.138 19.3364 6
-3 3 -4 597.486 20.5261 9
3 3 4 513.441 18.2261 6
3 3 4 535.796 19.049 3
-3 3 -4 531.46 18.4317 5
-3 3 -4 660.452 36.4384 8
-4 -3 -4 104.951 7.47065 12
-4 -3 -4 98.0783 5.54197 11
-4 -3 -4 96.7761 6.33528 13
-4 -3 -4 91.9229 11.1295 8
4 -3 4 96.7021 5.67896 6
4 3 4 92.5148 5.75825 6
-4 3 -4 99.2293 5.8379 5
-4 3 -4 94.4575 10.0429 8
-4 3 -4 101.496 6.15307 9
-5 -3 -4 98.4558 6.73252 12
-5 -3 -4 94.7804 5.582 13
5 -3 4 96.2902 5.07662 6
-5 -3 -4 96.2536 9.97516 8
-5 3 -4 98.759 6.48933 11
-5 3 -4 92.021 5.18902 5
-5 3 -4 95.8686 5.60339 9
-5 3 -4 91.3716 8.90565 8
-6 -3 -4 32.0531 4.37696 8
-6 -3 -4 38.553 3.13679 12
-6 3 -4 40.4716 2.46219 5
-6 3 -4 40.3805 2.57712 9
-5 -4 4 22.0419 4.23352 8
5 -4 -4 24.0877 2.351 3
-5 -4 4 25.8816 3.06301 12
-5 -4 4 30.5507 4.34545 11
-5 4 4 33.5758 3.41836 5
-5 4 4 27.3999 2.48024 11
5 4 -4 25.9974 2.33368 6
-4 -4 4 46.2299 6.88974 8
-4 -4 4 49.1004 5.0254 12
-4 -4 4 50.3405 5.12196 11
-4 4 4 48.0272 3.70889 5
4 4 -4 39.8365 3.97801 3
4 4 -4 52.2037 4.103 6
-3 -4 4 161.841 7.63249 11
-3 -4 4 160.269 9.91667 12
3 4 -4 149.595 8.01274 6
3 4 -4 156.635 8.61764 3
-3 4 4 154.919 7.17263 5
-2 -4 4 297.059 11.4232 11
2 4 -4 307.288 13.3505 3
-2 4 4 284.698 10.9194 3
-2 4 4 277.269 10.6937 5
2 4 -4 293.331 12.1538 6
-1 -4 4 330.066 12.9683 11
1 4 -4 304.84 12.1427 10
-1 4 4 302.371 10.2935 6
1 4 -4 328.475 12.6856 6
1 4 -4 305.919 14.1011 3
-1 4 4 305.354 14.3393 3
0 -4 4 74.1091 3.99974 6
0 4 -4 82.3126 5.3083 10
0 4 4 81.1964 6.45234 6
0 4 -4 79.8283 4.79791 6
0 4 -4 80.9754 8.85944 3
1 -4 4 13.7736 2.12906 6
-1 -4 -4 10.7736 1.96573 3
1 4 4 17.4601 2.51378 6
-1 4 -4 9.17083 2.26533 3
-1 4 -4 18.5137 2.87391 10
1 4 4 19.1481 2.75746 3
-2 -4 -4 0.96144 1.77005 12
2 -4 4 0.45841 1.00631 6
-2 4 -4 1.24759 1.37525 3
2 4 4 2.12128 1.35816 6
2 4 4 0.94157 1.19995 3
-3 -4 -4 108.283 7.31551 12
-3 -4 -4 112.499 7.22601 11
-3 -4 -4 117.284 12.1916 8
3 -4 4 107.545 5.90392 6
3 4 4 108.234 6.04713 6
3 4 4 109.995 7.63289 3
-4 -4 -4 49.6674 4.59596 12
-4 -4 -4 45.1946 7.22266 8
-4 -4 -4 53.7737 4.26824 13
4 -4 4 50.5638 3.62518 6
4 4 4 50.2043 3.61228 6
4 4 4 51.4573 3.72386 3
-4 4 -4 50.2176 3.47501 9
-4 4 -4 45.687 3.18987 5
5 -4 4 175.105 6.63654 6
-5 -4 -4 164.196 11.1723 8
-5 -4 -4 164.976 7.70068 12
-5 -4 -4 176.516 6.37655 13
-5 4 -4 175.483 7.02479 9
-5 4 -4 174.568 6.07529 5
5 4 4 174.447 6.30392 6
-4 -5 4 2.15516 0.95807 11
-4 -5 4 0.23115 0.6286 12
4 -5 -4 1.00872 0.61165 3
-4 -5 4 1.09542 1.25875 8
4 5 -4 0.77388 0.66055 6
-4 5 4 1.1693 0.72519 11
3 -5 -4 6.55881 1.38712 3
-3 -5 4 12.094 2.44031 11
-3 -5 4 10.8451 2.20748 12
3 5 -4 9.33182 1.94586 3
3 5 -4 8.69893 1.70736 6
-2 -5 4 20.4926 3.01709 12
2 5 -4 24.7716 3.04766 3
2 5 -4 23.7172 2.74542 6
-2 5 4 24.0765 2.32184 3
1 -5 -4 3.58706 1.37118 3
-1 -5 4 2.54377 1.59971 12
1 5 -4 3.62176 1.22486 6
1 5 -4 2.88243 1.36502 3
-1 5 4 3.29039 1.07108 3
0 -5 -4 1.71484 1.13321 3
0 5 -4 1.84969 1.15808 6
0 5 -4 -0.4406 1.87924 3
0 5 4 4.40456 1.11281 6
-1 5 -4 220.033 9.64952 3
1 5 4 222.937 8.88643 6
1 5 4 216.916 10.0339 3
-2 -5 -4 52.6559 7.51066 8
2 5 4 56.3509 4.35085 3
2 5 4 58.1121 3.90749 6
-3 -5 -4 33.7226 3.37263 13
3 -5 4 25.6655 2.25191 6
-3 -5 -4 34.2699 5.49691 8
-3 -5 -4 29.4208 2.7479 12
3 5 4 29.8032 2.60327 6
3 5 4 28.6576 2.93632 3
-4 -5 -4 96.7829 8.21747 8
-4 5 -4 131.333 5.68543 11
4 5 4 120.023 4.72513 6
3 -6 -4 78.9951 3.25413 3
-3 -6 4 81.0762 5.51253 8
3 6 -4 67.0628 4.23277 3
-3 6 4 85.8195 3.77139 11
2 -6 -4 173.541 7.30695 3
2 6 -4 163.505 6.69329 3
1 -6 -4 46.475 3.72383 3
1 6 -4 42.4717 3.03877 3
0 6 4 18.9733 1.90106 3
0 6 -4 19.6275 1.96615 3
-1 -6 -4 59.4859 5.57412 8
1 6 4 83.5568 4.12091 3
-2 -6 -4 5.40218 1.05292 13
-2 -6 -4 6.57826 1.71488 8
2 6 4 7.6121 1.17412 3
2 6 4 7.27864 0.86113 6
-7 0 5 2.23855 2.45681 9
-7 0 5 4.15418 2.66449 11
-6 0 5 39.8502 3.25185 5
-6 0 5 36.8911 3.48278 11
-6 0 5 38.149 3.66723 9
-5 0 5 131.358 6.47353 5
-5 0 5 136.725 7.1929 11
-5 0 5 138.937 7.06226 9
-4 0 5 589.97 18.75 9
-4 0 5 585.371 19.1618 11
-4 0 5 552.003 18.048 5
4 0 -5 543.321 27.2266 7
3 0 -5 24.2581 5.42887 7
2 0 -5 284.897 14.3155 1
-2 0 5 286.471 12.19 1
2 0 -5 280.229 14.1921 7
-1 0 5 3.42462 1.40353 1
1 0 -5 4.13648 1.96367 7
1 0 -5 1.68884 1.02671 1
1 0 -5 2.5715 1.68062 4
0 0 5 0.74129 0.78172 4
0 0 5 3.25042 1.21752 1
0 0 -5 3.02932 1.94996 4
0 0 -5 1.60786 1.14906 7
0 0 -5 1.1708 0.84543 1
-1 0 -5 3573.62 101.681 4
1 0 5 3657.36 99.2848 4
-1 0 -5 3449.83 94.2266 7
-1 0 -5 3465.28 96.9853 1
1 0 5 3599.39 97.1814 1
-2 0 -5 191.819 8.53158 1
-2 0 -5 192.49 13.1389 4
2 0 5 189.622 8.7356 1
2 0 5 184.421 10.9465 4
3 0 5 22.1279 5.07425 4
-4 0 -5 149.481 7.77852 5
-4 0 -5 159.322 13.4926 8
-4 0 -5 143.217 7.90189 13
-4 0 -5 152.599 8.06253 9
-4 0 -5 140.537 8.36704 12
-5 0 -5 282.249 12.4065 13
-5 0 -5 300.896 19.5505 8
-5 0 -5 268.276 11.708 9
-5 0 -5 265.966 12.6585 12
-5 0 -5 288.453 12.1549 5
-6 0 -5 40.7223 3.24037 9
-6 0 -5 41.8939 3.27413 5
-6 0 -5 48.3471 5.53245 12
-6 0 -5 33.7845 5.7447 8
-7 0 -5 4.27225 0.80807 5
-7 -1 5 127.247 5.35331 11
-7 1 5 142.756 7.20129 9
-7 1 5 134.419 5.67414 11
-6 -1 5 222.034 10.6336 9
-6 -1 5 223.179 11.0923 11
-6 1 5 231.128 9.54374 11
-6 1 5 228.197 8.87529 5
-6 1 5 222.53 9.2065 9
-5 -1 5 41.8851 4.51289 12
-5 -1 5 44.1928 4.24495 9
-5 -1 5 44.4342 4.00976 11
-5 1 5 45.7746 3.75036 5
-5 1 5 45.9369 4.11354 11
-5 1 5 45.5822 3.75077 9
-4 -1 5 32.8846 3.09718 11
-4 -1 5 25.1792 2.8025 9
-4 -1 5 27.0295 3.78411 12
4 -1 -5 41.8753 8.16098 7
-4 1 5 26.4723 2.65798 9
4 1 -5 22.5144 5.54875 7
-4 1 5 31.0006 3.19892 11
-4 1 5 25.615 2.62337 5
3 -1 -5 559.635 26.1472 7
3 1 -5 649.678 27.5055 7
-2 -1 5 2049.73 59.4082 1
2 1 -5 1959.58 58.5344 1
-2 1 5 2009.4 59.3342 1
1 -1 -5 863.857 28.8103 1
-1 -1 5 876.464 28.6814 1
1 -1 -5 847.268 29.6874 7
1 1 -5 831.342 27.9036 1
-1 1 5 865.965 29.2694 1
0 -1 -5 944.261 30.8248 7
0 -1 5 941.869 30.6349 1
0 -1 -5 948.614 30.8227 4
0 -1 5 934.337 32.9353 4
0 -1 -5 937.166 30.4958 1
0 1 -5 915.427 35.6253 4
0 1 5 947.123 30.1085 1
0 1 -5 986.501 30.526 1
1 -1 5 1954.78 60.0722 4
1 -1 5 1834.87 55.6116 1
-1 -1 -5 1930.87 55.628 7
-1 -1 -5 1868.22 55.9381 1
-1 -1 -5 1898.81 53.8992 4
1 1 5 1848.09 54.5969 1
-1 1 -5 1895.78 55.3244 1
2 -1 5 17.3638 3.27937 1
2 -1 5 15.4957 4.81029 4
-2 1 -5 18.2745 2.27407 10
-2 1 -5 22.7987 3.43267 1
2 1 5 14.0969 2.31422 1
-3 -1 -5 139.839 11.8058 8
-3 -1 -5 131.26 7.24866 13
-3 -1 -5 131.578 7.79525 12
3 -1 5 139.081 13.2089 4
-3 1 -5 131.253 7.21906 13
-3 1 -5 144.532 11.2497 8
-3 1 -5 145.845 8.82879 1
-3 1 -5 138.539 7.05925 5
-4 -1 -5 285.02 18.3623 8
-4 -1 -5 259.636 12.3436 12
-4 -1 -5 265.171 11.3706 5
-4 -1 -5 249.378 10.625 9
-4 -1 -5 269.008 11.852 13
-4 1 -5 261.946 17.3537 8
-4 1 -5 239.047 11.1584 12
-4 1 -5 251.227 11.3162 13
-4 1 -5 264.904 11.4752 5
-4 1 -5 267.583 11.7421 9
-5 -1 -5 72.4977 5.91968 12
-5 -1 -5 74.0342 9.66942 8
-5 -1 -5 72.4617 5.41127 13
-5 -1 -5 66.7905 5.00908 5
-5 -1 -5 66.7391 4.61962 9
-5 1 -5 71.0906 5.22814 9
-5 1 -5 78.1107 9.51251 8
-5 1 -5 64.0408 4.92652 12
-5 1 -5 71.7108 5.28034 5
-6 -1 -5 63.5577 5.29258 5
-6 -1 -5 52.4249 6.94468 8
-6 -1 -5 56.5957 4.10365 13
-6 -1 -5 54.7247 4.45246 12
-6 1 -5 62.3736 4.15247 9
-6 1 -5 45.4313 6.10283 8
-6 1 -5 54.2869 3.90485 5
-7 1 -5 33.429 1.85697 9
-7 1 -5 40.1761 2.01181 5
-7 -2 5 12.6285 1.96737 11
-7 2 5 9.8949 1.04853 11
-7 2 5 7.43899 1.78404 9
-6 -2 5 36.1278 3.40464 12
-6 -2 5 40.5373 3.3395 11
-6 2 5 40.2231 3.70336 5
-6 2 5 40.5537 3.18847 9
-6 2 5 37.3481 3.16259 11
-5 -2 5 102.653 9.4434 12
-5 -2 5 91.7577 8.50903 11
-5 2 5 95.5057 5.62368 5
-5 2 5 90.772 5.60697 9
-5 2 5 98.1763 6.02715 11
-4 -2 5 193.762 10.7103 12
-4 -2 5 190.262 11.4901 11
4 -2 -5 180.193 16.2326 7
4 -2 -5 182.337 8.73053 3
-4 -2 5 181.439 8.7962 9
-4 2 5 189.373 8.38254 9
4 2 -5 175.085 8.37911 10
-4 2 5 198.953 8.68424 5
4 2 -5 186.839 15.4494 7
-4 2 5 203.409 9.25687 11
3 -2 -5 58.7461 7.46558 7
3 -2 -5 63.1163 13.7864 4
-3 -2 5 45.107 6.06325 11
-3 2 5 41.2911 3.56995 5
-3 2 5 43.2635 5.18092 9
3 2 -5 49.5917 3.76612 10
2 -2 -5 496.92 23.4377 7
2 -2 -5 510.934 27.9547 4
-1 -2 5 71.8163 7.21873 1
-1 -2 5 59.6291 6.69681 4
1 -2 -5 69.7325 7.32374 7
1 2 -5 71.9167 6.58663 1
1 2 -5 64.1367 4.26885 10
-1 2 5 75.6867 7.74095 1
-1 2 5 80.2146 6.94277 1
0 -2 5 321.423 17.3448 4
0 -2 5 290.777 15.3051 1
0 -2 -5 296.347 16.8624 7
0 -2 -5 288.392 13.9116 4
0 2 -5 317.808 15.0975 1
0 2 5 283.919 14.9557 1
0 2 5 281.791 13.9307 1
0 2 -5 285.975 11.0947 10
1 -2 5 99.1697 9.88479 4
1 -2 5 89.4509 8.50923 1
1 2 5 102.913 7.64406 1
-1 2 -5 96.3405 8.2401 1
-1 2 -5 94.798 5.39811 10
2 -2 5 863.276 39.8008 4
-2 2 -5 863.926 27.2849 10
3 -2 5 329.003 25.4194 4
3 -2 5 339.416 12.5874 6
-3 -2 -5 381.979 21.773 8
-3 -2 -5 332.072 14.5204 12
-3 2 -5 350.761 13.938 9
-3 2 -5 358.581 20.0495 8
-3 2 -5 320.695 12.898 12
-3 2 -5 345.557 13.13 5
-4 -2 -5 547.004 19.0064 5
-4 -2 -5 577.966 29.6424 8
-4 -2 -5 551.72 21.4014 12
-4 -2 -5 538.146 20.027 13
-4 2 -5 528.918 19.7994 9
-4 2 -5 544.175 19.2896 5
-4 2 -5 537.811 27.2496 8
-5 -2 -5 281.542 11.017 5
-5 -2 -5 277.089 12.0522 13
-5 -2 -5 291.043 13.4526 12
-5 -2 -5 280.906 19.0987 8
5 -2 5 281.423 10.955 6
-5 2 -5 286.233 11.7472 5
-5 2 -5 297.964 12.2464 9
-5 2 -5 283.843 18.1613 8
-6 -2 -5 61.5762 4.53331 12
-6 -2 -5 56.2306 6.64347 8
-6 -2 -5 67.8797 3.97716 13
-6 2 -5 65.3899 3.91227 9
-6 2 -5 50.8283 5.78442 8
-6 2 -5 62.2686 3.82646 5
-6 -3 5 116.536 5.89224 12
-6 -3 5 120.046 5.23241 11
-6 3 5 117.101 5.66693 9
-6 3 5 118.742 5.30752 11
-6 3 5 125.954 6.13932 5
-5 -3 5 21.143 2.57732 11
-5 -3 5 24.702 3.65862 12
-5 3 5 24.8766 2.8596 11
-5 3 5 27.728 3.86254 5
5 3 -5 27.4697 3.11977 6
-5 3 5 23.7804 2.40883 9
-4 -3 5 102.903 10.1589 8
-4 -3 5 111.276 8.22057 12
4 -3 -5 101.088 6.12564 3
-4 -3 5 100.435 5.93058 11
-4 3 5 109.128 6.1844 5
4 3 -5 98.6617 6.73019 3
4 3 -5 105.072 6.56459 6
-4 3 5 97.4418 5.46103 9
-3 -3 5 207.167 9.05666 11
3 -3 -5 169.505 16.4537 7
3 3 -5 209.998 9.90205 6
-3 3 5 205.913 9.07125 5
-3 3 5 203.565 8.36682 9
3 3 -5 205.775 10.1668 3
2 -3 -5 760.535 41.7784 4
-2 -3 5 698.555 22.3949 11
2 -3 -5 755.249 34.3469 7
-2 3 5 723.382 22.389 3
2 3 -5 718.412 23.83 6
-2 3 5 702.264 22.2438 5
2 3 -5 710.648 24.4307 3
2 3 -5 727.793 23.2169 10
-1 -3 5 36.9747 7.74978 4
-1 -3 5 21.1415 2.68168 11
1 -3 -5 20.69 5.52677 7
1 -3 -5 12.9119 5.80038 4
1 3 -5 29.8355 3.22354 10
-1 3 5 27.3062 2.30064 6
1 3 -5 33.245 6.56405 3
-1 3 5 23.4238 2.46428 5
0 -3 -5 184.657 14.7971 7
0 -3 5 187.718 7.51741 6
0 -3 5 203.479 15.6213 4
0 3 5 185.598 8.54417 3
0 3 5 185.353 7.60972 6
0 3 -5 202.287 9.0432 10
0 3 -5 199.602 9.50569 3
0 3 -5 183.337 8.09693 6
1 -3 5 20.9429 2.44916 6
1 -3 5 28.7387 7.76037 4
-1 3 -5 17.29 3.93644 8
1 3 5 19.1728 3.068 3
-1 3 -5 27.8799 3.31721 3
-1 3 -5 18.7195 2.64155 10
2 -3 5 66.7045 4.42793 6
-2 -3 -5 66.1435 8.42583 8
-2 -3 -5 72.7372 5.9805 12
-2 3 -5 73.8142 5.27847 10
-2 3 -5 57.1532 4.78732 9
2 3 5 66.3271 6.12009 6
2 3 5 67.4484 4.91483 3
-2 3 -5 72.8172 8.44396 8
-2 3 -5 57.0584 4.93641 3
-2 3 -5 52.4163 4.71703 5
-3 -3 -5 284.54 19.3337 8
3 -3 5 254.501 10.4758 6
-3 -3 -5 260.801 12.5963 12
-3 3 -5 263.464 11.4629 9
3 3 5 267.888 11.0556 3
3 3 5 242.113 13.611 6
-3 3 -5 226.971 11.6352 5
-3 3 -5 274.205 18.1868 8
-4 -3 -5 176.471 10.0537 12
4 -3 5 159.518 7.65915 6
-4 -3 -5 165.78 8.85517 13
-4 -3 -5 167.76 14.7143 8
-4 3 -5 171.198 7.99204 5
-4 3 -5 169.87 14.0401 8
-4 3 -5 168.282 8.57415 9
-5 -3 -5 47.8965 3.87181 13
-5 -3 -5 52.537 4.64945 12
-5 -3 -5 46.6912 6.82898 8
5 -3 5 46.2747 3.32083 6
-5 3 -5 46.1122 3.42653 5
-5 3 -5 51.2796 3.83954 9
-5 3 -5 46.5214 6.20868 8
-6 -3 -5 5.14923 2.09035 8
-6 -3 -5 2.8958 1.03959 12
-6 3 -5 3.42366 0.67961 5
-5 -4 5 9.79478 3.63073 8
5 -4 -5 13.2489 1.80367 3
-5 -4 5 11.6651 3.46397 11
-5 -4 5 14.3604 2.24102 12
5 4 -5 12.4552 1.7374 6
-5 4 5 17.8179 2.59506 5
-5 4 5 16.2492 1.88686 11
-4 -4 5 3.84912 1.67297 12
4 -4 -5 0.70161 1.0157 3
-4 -4 5 0.25288 1.55582 8
-4 -4 5 3.20364 2.91634 11
4 4 -5 0.92423 1.20759 6
-4 4 5 1.38953 1.37238 5
4 4 -5 2.90827 1.26372 3
-3 -4 5 244.145 12.6285 12
-3 -4 5 236.061 9.8834 11
-3 4 5 246.682 9.70414 5
3 4 -5 241.905 10.6679 6
3 4 -5 241.532 11.3889 3
-2 -4 5 214.51 9.12501 11
-2 4 5 198.677 8.43153 5
2 4 -5 212.84 11.0076 3
-2 4 5 209.771 8.8081 3
2 4 -5 214.045 9.8561 6
-1 -4 5 134.619 6.82951 11
1 4 -5 148.95 8.60389 3
-1 4 5 146.156 7.38963 3
1 4 -5 144.166 7.43015 6
1 4 -5 138.713 7.48194 10
0 -4 5 170.848 6.99664 6
0 -4 -5 174.604 8.83199 3
0 4 5 191.384 9.02699 3
0 4 -5 187.927 9.61153 3
0 4 -5 177.112 9.02857 10
0 4 5 189.678 7.79323 6
0 4 -5 183.694 8.83739 6
1 -4 5 655.98 20.9818 6
1 4 5 658.281 21.3515 6
-1 4 -5 676.874 23.3128 10
-1 4 -5 662.441 22.5263 3
1 4 5 671.688 22.677 3
-2 -4 -5 669.536 23.6566 12
-2 -4 -5 693.582 33.3993 8
2 -4 5 708.307 22.2194 6
2 4 5 690.849 22.4511 6
2 4 5 694.809 23.2273 3
-3 -4 -5 59.0817 5.14013 12
-3 4 -5 58.0704 4.16676 9
3 4 5 55.9299 4.30529 3
4 -4 5 79.1832 4.44887 6
-4 -4 -5 73.7487 5.02388 13
-4 -4 -5 72.9242 8.68381 8
-4 -4 -5 79.8027 5.61725 12
-4 4 -5 59.0457 5.27592 9
-4 4 -5 72.9925 3.87073 5
4 4 5 75.6289 4.37825 3
4 4 5 78.2201 4.34059 6
-4 4 -5 63.0607 5.53543 11
5 -4 5 74.2644 3.65796 6
-5 -4 -5 72.2399 3.54278 13
-5 -4 -5 77.8166 4.57375 12
5 4 5 79.476 3.35202 6
-5 4 -5 74.6829 3.36449 9
4 -5 -5 12.04 1.56311 3
-4 -5 5 12.7708 1.8564 12
-4 5 5 11.8199 1.57382 11
4 5 -5 14.6736 1.58705 3
4 5 -5 12.8969 1.56322 6
3 -5 -5 35.6779 3.22276 3
-3 -5 5 40.5308 3.21139 11
-3 -5 5 46.1403 6.50708 12
3 5 -5 36.8186 3.07689 6
2 -5 -5 31.2936 3.20384 3
-2 -5 5 29.639 3.59445 12
2 5 -5 28.1032 3.35873 3
-2 5 5 27.6159 2.54011 3
2 5 -5 29.152 2.89115 6
1 -5 -5 150.411 7.47518 3
-1 -5 5 144.115 8.20164 12
-1 5 5 135.308 6.87667 3
1 5 -5 151.849 6.71125 6
1 5 -5 153.908 8.32631 3
0 -5 -5 81.858 4.94763 3
0 5 5 86.9582 4.29913 6
0 5 5 87.609 5.61973 3
0 5 -5 84.1786 5.76543 3
-1 -5 -5 24.807 5.12716 8
1 5 5 27.159 2.53406 6
-1 5 -5 26.9927 3.13358 3
1 5 5 26.9161 3.09069 3
2 -5 5 21.6715 2.06716 6
-2 -5 -5 20.325 4.66856 8
2 5 5 26.331 2.74581 3
2 5 5 23.2553 2.48085 6
-3 -5 -5 12.8441 2.06749 13
-3 -5 -5 5.90252 2.33303 8
3 5 5 9.16043 1.5224 3
-4 -5 -5 4.16882 1.58693 8
2 -6 -5 70.6398 3.26217 3
2 6 -5 67.8065 3.56699 3
1 -6 -5 92.9474 4.37691 3
1 6 -5 106.635 4.93344 3
-1 6 5 110.167 3.88028 3
0 6 5 80.8351 3.97747 3
0 6 -5 75.4742 3.8515 3
1 6 5 267.203 9.43846 3
-2 -6 -5 8.62746 1.29833 13
2 6 5 6.04585 0.85161 6
-7 0 6 11.0266 2.38734 11
-6 0 6 23.1165 2.65946 11
-6 0 6 21.6381 3.91077 9
-5 0 6 196.959 9.02132 11
-5 0 6 200.888 8.91037 9
-5 0 6 187.777 7.99212 5
-4 0 6 806.99 24.6811 9
4 0 -6 754.439 35.0811 7
-4 0 6 780.547 24.0613 5
-4 0 6 805.994 25.0665 11
3 0 -6 50.87 6.51809 7
2 0 -6 1267.35 42.5111 7
-2 0 6 1222.54 39.2238 1
2 0 -6 1247.36 39.5843 1
1 0 -6 3646.82 102.992 7
-1 0 6 3722.61 102.021 1
1 0 -6 3631.16 101.628 1
0 0 -6 71.0482 7.04168 4
0 0 6 72.092 5.40178 1
0 0 -6 76.5322 5.33104 7
0 0 -6 80.3648 5.55303 1
-1 0 -6 5417.62 137.298 7
1 0 6 5324.52 141.015 1
-1 0 -6 4690.62 143.322 1
1 0 6 5276.13 143.307 4
2 0 6 1413.13 44.405 1
-2 0 -6 1516.73 44.5289 1
2 0 6 1510.38 48.2884 4
3 0 6 1927.45 62.8616 4
-3 0 -6 1907.98 55.3481 13
-3 0 -6 1906.09 55.2176 5
-3 0 -6 1878.51 56.1175 12
-3 0 -6 2033.33 65.5241 8
-4 0 -6 192.717 10.292 12
-4 0 -6 216.423 11.0422 5
-4 0 -6 220.478 16.4618 8
-4 0 -6 217.828 10.506 13
-4 0 -6 199.165 9.84631 9
-5 0 -6 75.782 5.30313 9
-5 0 -6 76.175 5.45878 5
-5 0 -6 79.01 6.06201 12
-5 0 -6 80.541 5.77669 13
-5 0 -6 78.8872 9.47284 8
-6 0 -6 182.948 8.03982 12
-6 0 -6 171.677 7.67574 5
-6 0 -6 208.567 10.2103 9
-6 0 -6 178.037 12.9493 8
-7 -1 6 66.8946 3.28594 11
-7 1 6 68.4683 4.37568 9
-7 1 6 69.551 3.74962 11
-6 -1 6 83.6314 7.47567 9
-6 -1 6 89.4374 8.70389 11
-6 1 6 96.4314 5.38876 11
-6 1 6 96.4501 5.67508 9
-6 1 6 92.0888 5.47444 5
-5 -1 6 315.687 13.0059 9
-5 -1 6 328.842 12.8521 11
-5 -1 6 311.57 13.8554 12
-5 1 6 317.782 12.0073 5
-5 1 6 333.134 12.6488 9
-5 1 6 337.282 13.136 11
-4 -1 6 216.231 9.4017 11
4 -1 -6 227.537 17.1544 7
-4 -1 6 214.213 11.0085 12
-4 -1 6 219.025 9.38451 9
-4 1 6 225.102 9.45349 9
-4 1 6 226.72 9.71294 11
4 1 -6 218.094 17.0412 7
-4 1 6 225.149 9.26548 5
-3 -1 6 192.93 8.14961 11
3 -1 -6 207.591 14.1806 7
-3 1 6 198.692 8.18632 5
-3 1 6 195.325 8.11027 9
3 1 -6 196.308 14.2543 7
-3 1 6 198.879 9.04326 11
2 -1 -6 272.227 15.2652 7
-2 1 6 269.554 13.2001 1
1 -1 -6 66.7001 6.29878 7
1 -1 -6 61.8626 5.74634 1
-1 -1 6 70.5759 5.69446 1
1 1 -6 57.8846 5.37623 1
-1 1 6 54.4963 5.4194 1
0 -1 6 696.952 26.9638 4
0 -1 -6 642.803 23.6641 1
0 -1 -6 661.18 24.7999 4
0 -1 -6 650.436 23.9356 7
0 -1 6 641.39 23.9443 1
0 1 -6 686.05 23.9752 1
0 1 6 646.887 23.4574 1
1 -1 6 1561.4 48.8549 1
-1 -1 -6 1618.52 48.5054 7
-1 -1 -6 1556.01 48.0631 4
1 -1 6 1640.34 53.5607 4
-1 1 -6 1588.89 48.5933 1
1 1 6 1547.01 47.713 1
2 -1 6 357.056 16.7068 1
2 -1 6 367.837 20.3112 4
2 1 6 372.773 15.0418 1
-2 1 -6 378.549 14.393 10
-3 -1 -6 624.591 28.332 8
-3 -1 -6 585.958 21.2778 12
-3 -1 -6 585.537 20.4755 13
3 -1 6 586.362 30.7211 4
-3 1 -6 611.372 20.2506 10
-3 1 -6 568.289 20.3039 12
-3 1 -6 600.221 20.5771 5
-3 1 -6 607.53 21.3929 13
-3 1 -6 620.486 27.5723 8
-4 -1 -6 468.64 19.0137 12
-4 -1 -6 450.459 20.0867 5
-4 -1 -6 511.815 26.7428 8
-4 -1 -6 475.401 18.3256 13
-4 -1 -6 471.417 17.0248 9
-4 1 -6 492.906 18.3812 9
-4 1 -6 499.741 18.0442 5
-4 1 -6 502.321 26.1261 8
-4 1 -6 548.935 22.6946 12
-4 1 -6 482.574 18.0066 13
-5 -1 -6 163.041 8.95753 13
-5 -1 -6 179.406 14.8712 8
-5 -1 -6 161.191 9.70639 12
-5 -1 -6 143.008 7.2207 9
-5 1 -6 141.083 8.88098 12
-5 1 -6 157.153 8.4543 5
-5 1 -6 160.009 8.66921 9
-5 1 -6 180.303 14.644 8
-6 -1 -6 48.4077 5.17262 13
-6 -1 -6 60.8489 7.00589 8
-6 -1 -6 60.3931 6.4948 12
-6 -1 -6 66.3103 3.7709 5
-6 1 -6 62.787 4.08467 5
-6 1 -6 59.246 4.46762 9
-6 1 -6 58.6587 7.50586 8
-7 -2 6 6.95013 2.33704 11
-7 2 6 7.02353 1.16259 11
-6 -2 6 40.8383 3.41201 12
-6 2 6 46.3722 6.02627 9
-6 2 6 52.9717 6.97306 5
5 -2 -6 78.2527 5.44194 3
-5 -2 6 90.2831 7.7609 11
-5 -2 6 88.91 6.6228 12
-5 2 6 90.0512 5.43045 9
5 2 -6 79.9044 6.02162 6
-5 2 6 86.9413 5.76735 11
-5 2 6 86.0858 5.53824 5
4 -2 -6 300.022 23.6247 7
-4 -2 6 298.404 14.1355 11
-4 -2 6 243.593 13.1526 9
4 -2 -6 267.902 11.801 3
4 2 -6 249.922 20.3527 7
-4 2 6 303.246 11.7875 11
-4 2 6 303.135 11.4053 9
4 2 -6 275.351 11.4508 10
-4 2 6 298.721 11.3013 5
3 -2 -6 387.783 27.7943 4
3 -2 -6 377.697 21.6123 7
-3 -2 6 366.389 14.3197 11
-3 -2 6 369.342 12.8222 9
3 -2 -6 362.307 13.5924 3
-3 2 6 375.268 13.0669 9
3 2 -6 350.134 13.8864 6
3 2 -6 350.748 14.8217 3
-3 2 6 371.927 12.9662 5
2 -2 -6 200.097 13.803 7
2 2 -6 192.028 8.53939 10
1 -2 -6 1368.28 47.231 7
-1 -2 6 1349.69 46.6003 1
-1 -2 6 1422.05 48.4018 4
-1 2 6 1314.34 44.8339 1
1 2 -6 1312.5 39.0004 10
1 2 -6 1294.5 44.8809 1
-1 2 6 1316.03 46.0811 1
0 -2 -6 289.083 14.7103 4
0 -2 6 301.778 16.4386 1
0 -2 6 313.896 18.3087 4
0 -2 -6 322.511 16.9672 7
0 2 -6 290.111 11.7487 10
0 2 -6 313.352 16.1993 1
0 2 6 323.577 16.909 1
0 2 6 336.119 16.1522 1
1 -2 6 1263.29 44.0044 1
1 -2 6 1225.2 47.5555 4
1 2 6 1263.95 41.5516 1
-1 2 -6 1152.93 36.1991 10
2 -2 6 283.939 20.5393 4
-2 -2 -6 291.066 17.637 8
-2 2 -6 285.123 11.963 10
-2 2 -6 299.368 17.1683 8
-3 -2 -6 185.882 9.86882 12
-3 -2 -6 186.4 14.5965 8
-3 -2 -6 171.303 9.02833 13
3 -2 6 172.868 7.67118 6
-3 2 -6 175.626 9.17973 9
-3 2 -6 184.146 13.9466 8
-3 2 -6 161.079 8.31607 12
-3 2 -6 177.389 8.3539 5
4 -2 6 198.979 8.97813 6
-4 -2 -6 210.513 10.5118 13
-4 -2 -6 230.647 17.0622 8
-4 -2 -6 230.714 11.6435 12
-4 -2 -6 204.788 9.7056 5
-4 2 -6 203.279 9.7275 5
-4 2 -6 204.956 10.3842 9
-4 2 -6 212.415 15.9126 8
5 -2 6 178.269 7.69375 6
-5 -2 -6 170.761 7.85854 5
-5 -2 -6 170.797 9.57159 12
-5 -2 -6 150.68 13.4777 8
-5 -2 -6 175.518 8.7466 13
-5 2 -6 169.599 8.13392 5
-5 2 -6 177.483 14.1121 8
-5 2 -6 174.06 8.57869 9
-6 -2 -6 11.2016 2.94748 8
-6 -2 -6 15.5482 1.95219 13
-6 -2 -6 16.458 2.23338 12
-6 2 -6 19.1744 2.03421 5
-6 2 -6 14.3491 1.83314 9
-6 2 -6 11.1462 2.72498 8
-6 -3 6 58.5865 3.44517 11
-6 3 6 58.7692 4.23873 9
-6 3 6 59.2644 3.27862 11
-6 3 6 58.8697 4.22399 5
6 3 -6 64.3908 4.02588 6
-5 -3 6 128.777 6.29067 11
-5 -3 6 135.075 8.12681 12
5 3 -6 129.853 7.2396 6
-5 3 6 135.191 7.41612 5
-5 3 6 121.913 6.43981 11
-5 3 6 126.19 6.30085 9
-4 -3 6 11.2491 2.09622 11
4 -3 -6 10.808 2.19301 3
-4 -3 6 6.11312 3.11694 8
-4 -3 6 11.0575 2.64938 12
4 3 -6 10.8117 2.67216 6
4 3 -6 9.77374 2.51414 3
-4 3 6 17.514 3.26177 5
-4 3 6 8.79439 1.81095 9
-4 3 6 13.4628 2.47311 11
-3 -3 6 393.478 14.142 11
-3 3 6 412.267 14.4237 5
3 3 -6 387.732 15.4068 6
3 3 -6 387.732 15.9925 3
3 3 -6 380.947 14.4693 10
2 -3 -6 112.822 11.9378 7
-2 -3 6 99.1377 5.58559 11
2 3 -6 98.6348 6.68117 3
-2 3 6 101.478 5.53206 5
-2 3 6 105.434 5.44843 3
2 3 -6 104.184 6.31656 10
2 3 -6 98.2484 6.40245 6
-1 -3 6 92.6623 6.09292 11
-1 -3 6 84.7961 10.6317 4
1 -3 -6 83.3644 11.474 4
-1 3 6 78.6447 4.91553 3
-1 3 6 84.6411 4.55777 6
1 3 -6 79.4324 5.90095 6
1 3 -6 92.6573 6.1122 3
-1 3 6 77.0225 4.49908 5
1 3 -6 86.0923 6.7224 10
0 -3 -6 286.677 18.8417 7
0 -3 6 251.538 9.74084 11
0 -3 6 283.298 19.7643 4
0 3 -6 265.473 11.6974 3
0 3 6 271.67 10.9036 3
0 3 6 250.448 9.64524 6
0 3 -6 258.723 10.591 6
0 3 -6 264.87 14.3118 10
1 -3 6 294.145 11.1833 6
-1 -3 -6 258.855 10.7267 3
1 -3 6 323.531 23.4546 4
1 3 6 305.956 12.0117 3
1 3 6 300.361 11.1598 6
-1 3 -6 312.238 12.6512 3
-1 3 -6 318.426 13.1448 10
-1 3 -6 322.557 18.5376 8
-2 -3 -6 1014.35 40.4981 8
2 -3 6 907.644 28.6318 6
-2 -3 -6 913.175 30.7418 12
2 3 6 946.968 28.9396 6
-2 3 -6 928.754 30.5721 10
-2 3 -6 1008.45 40.1075 8
2 3 6 930.069 29.4554 3
-3 -3 -6 761.646 35.0863 8
-3 -3 -6 743.869 25.7161 12
3 -3 6 672.479 22.5204 6
3 3 6 694.716 22.6307 6
-3 3 -6 666.671 22.3456 5
-3 3 -6 788.844 34.2655 8
3 3 6 639.122 22.4803 3
-3 3 -6 719.042 24.1203 9
-4 -3 -6 130.267 10.5015 13
-4 -3 -6 101.83 14.7655 8
-4 -3 -6 141.151 11.2508 12
4 -3 6 116.916 6.31839 6
-4 3 -6 123.529 13.1209 8
4 3 6 120.493 6.08096 6
-4 3 -6 115.811 6.236 5
-5 -3 -6 23.4333 4.7727 8
-5 -3 -6 25.1703 2.80936 13
-5 -3 -6 24.0978 3.16709 12
5 -3 6 22.8133 2.35286 6
-5 3 -6 22.6243 2.34067 5
-5 3 -6 22.7716 2.49504 9
-5 3 -6 22.0229 4.40205 8
5 3 6 23.0302 2.40317 6
-6 -3 -6 52.2345 3.18021 12
-6 3 -6 49.5549 2.58392 9
-6 3 -6 50.8527 2.38303 5
-5 -4 6 7.05732 3.38264 11
5 -4 -6 6.2709 1.27394 3
5 4 -6 3.69927 1.10564 6
-5 4 6 5.45684 1.84109 5
-5 4 6 5.68597 1.1835 11
4 -4 -6 24.0973 2.74488 3
-4 -4 6 22.1349 4.39372 8
-4 -4 6 27.2654 4.17798 11
-4 -4 6 25.6445 3.59274 12
-4 4 6 20.6114 2.72465 5
4 4 -6 25.9086 3.1273 3
-4 4 6 25.4435 2.75712 11
4 4 -6 29.3384 3.12252 6
3 4 -6 212.944 10.9902 3
-3 4 6 235.468 11.4603 5
2 -4 -6 98.6775 6.12046 3
-2 -4 6 90.6574 5.42935 11
-2 4 6 96.435 5.18929 5
2 4 -6 93.3633 6.16587 6
2 4 -6 91.4494 6.79884 3
-2 4 6 90.4345 5.12494 3
-1 -4 6 75.7749 4.75776 11
1 -4 -6 75.0143 5.22837 3
1 4 -6 82.6793 6.34609 3
-1 4 6 75.7565 3.81053 6
-1 4 6 74.9004 5.04135 3
1 4 -6 81.4048 5.55956 10
1 4 -6 82.635 5.41738 6
0 -4 6 67.6347 3.8896 6
0 -4 -6 71.9673 4.93608 3
0 4 -6 73.8123 4.55071 6
0 4 -6 75.1 5.53474 10
0 4 6 73.5795 4.30659 6
0 4 6 70.9558 5.08898 3
0 4 -6 74.0096 5.74923 3
1 -4 6 43.5094 3.3757 6
-1 4 -6 41.0476 4.55123 10
1 4 6 42.3011 3.49809 6
1 4 6 39.3621 4.00068 3
-1 4 -6 49.3715 4.27986 3
-2 -4 -6 228.793 16.7213 8
-2 -4 -6 196.7 9.71577 12
2 -4 6 209.162 9.03055 6
2 4 6 213.688 9.12245 6
2 4 6 218.203 9.81737 3
-2 4 -6 203.198 8.97029 9
-3 -4 -6 22.0358 5.13583 8
-3 -4 -6 19.4387 3.0456 12
3 -4 6 21.8687 2.43851 6
3 4 6 22.2984 2.46333 6
-3 4 -6 16.8252 2.60115 9
-4 -4 -6 76.5939 8.59484 8
-4 -4 -6 88.7277 5.51692 13
4 -4 6 84.6895 4.67437 6
-4 -4 -6 91.391 5.69966 12
4 4 6 90.7794 4.95153 3
-4 4 -6 86.1136 4.65076 9
-5 -4 -6 46.8809 5.25166 8
5 -4 6 64.9507 3.08271 6
-5 -4 -6 45.3316 3.64092 12
-5 -4 -6 65.921 3.0792 13
5 4 6 61.9978 2.78766 6
-5 4 -6 48.392 3.09133 9
-4 -5 6 3.75617 1.02997 12
4 -5 -6 5.67413 1.02653 3
-4 -5 6 3.76664 1.82101 8
-4 5 6 4.49627 0.90215 11
4 5 -6 6.91712 1.08172 3
-3 -5 6 18.316 2.65572 12
3 -5 -6 22.3247 2.4974 3
3 5 -6 20.9469 2.58619 6
3 5 -6 20.3549 2.54624 3
-2 -5 6 69.4873 5.40224 12
2 -5 -6 80.5962 5.0339 3
2 5 -6 71.1675 4.36471 6
2 5 -6 72.8872 5.26978 3
1 -5 -6 42.313 3.65888 3
-1 5 6 44.3203 3.50501 3
1 5 -6 35.6801 2.95762 6
1 5 -6 39.7915 4.03534 3
0 -5 -6 569.503 25.9757 8
0 -5 -6 639.282 19.8478 3
0 5 6 642.948 18.7029 6
0 5 6 650.795 20.925 3
0 5 -6 662.742 21.7804 3
-1 -5 -6 37.6392 5.8843 8
1 5 6 48.0576 3.1747 6
1 5 6 53.2022 4.06266 3
-1 5 -6 45.903 3.61517 3
2 -5 6 46.8744 2.85949 6
-2 -5 -6 42.7731 6.27582 8
2 5 6 45.3705 3.25977 6
2 5 6 49.9348 3.67803 3
3 -5 6 10.6994 1.35479 6
-3 -5 -6 7.34494 2.56876 8
-3 -5 -6 7.87279 1.67572 13
3 5 6 12.379 1.67317 3
3 5 6 11.6124 1.51145 6
4 5 6 10.0074 1.03534 6
-2 6 6 2.56424 0.96356 11
2 6 -6 1.7763 0.60385 3
1 6 -6 29.6996 2.29472 3
0 6 6 29.7119 2.17272 3
0 6 -6 33.2652 2.6539 3
1 6 6 55.2878 3.09414 3
2 6 6 50.104 2.59407 3
-7 0 7 97.0205 3.72213 9
-7 0 7 93.2648 4.48502 11
-6 0 7 100.772 8.67341 9
-6 0 7 91.1828 5.25157 11
-5 0 7 1164.72 34.3943 9
-5 0 7 1132.89 33.2772 5
-5 0 7 1136.02 34.5877 11
-4 0 7 20.7934 2.50514 9
-4 0 7 19.174 2.85669 5
4 0 -7 8.56785 4.20017 7
-4 0 7 18.6608 2.55168 11
-3 0 7 45.8707 4.02577 11
3 0 -7 47.9038 6.67787 7
-3 0 7 47.4966 3.52874 9
2 0 -7 1653.04 54.2202 7
1 0 -7 0.41338 1.68873 7
-1 0 7 2.95092 1.71483 1
0 0 -7 26.5698 3.2945 7
0 0 7 23.9489 3.65022 1
0 0 -7 30.2793 3.90477 1
1 0 7 415.382 18.1931 4
-1 0 -7 400.636 16.6188 1
-1 0 -7 383.035 13.2541 7
1 0 7 386.119 16.4619 1
2 0 7 76.5026 7.15238 4
2 0 7 82.3236 6.85752 1
-3 0 -7 1196.15 36.5153 13
3 0 7 1124.27 42.6754 4
-3 0 -7 1181.03 37.1942 12
-3 0 -7 1290.22 46.7293 8
-3 0 -7 1185.34 36.4521 5
-4 0 -7 520.82 20.1108 12
-4 0 -7 511.839 19.1248 13
-4 0 -7 513.847 19.0901 5
-4 0 -7 575.398 29.1262 8
-4 0 -7 512.279 19.0389 9
-5 0 -7 7.07252 1.83816 9
-5 0 -7 8.11116 5.03564 8
-5 0 -7 6.52939 1.95657 12
-6 0 -7 14.002 1.98175 12
-6 0 -7 14.3154 1.82814 9
-6 0 -7 7.97047 3.67738 8
-6 0 -7 13.3649 2.61436 5
-7 -1 7 22.7435 1.71207 11
-7 1 7 19.2842 2.21715 9
-7 1 7 18.9144 2.77904 11
-6 -1 7 56.4443 7.56276 11
-6 1 7 62.2455 4.17192 11
-6 1 7 60.8181 6.42376 9
-6 1 7 50.435 6.87676 5
-5 -1 7 268.939 14.4681 12
-5 -1 7 287.775 11.6633 11
-5 -1 7 276.236 13.6373 9
-5 1 7 278.247 11.2437 9
-5 1 7 266.172 10.8935 5
-5 1 7 287.153 11.7187 11
4 -1 -7 26.2688 3.54109 3
4 -1 -7 18.4043 6.38116 7
-4 1 7 22.5345 2.92732 9
4 1 -7 22.4916 8.82602 7
3 -1 -7 671.924 30.262 7
-3 -1 7 666.947 21.2992 11
-3 -1 7 651.736 24.9373 9
3 1 -7 647.207 29.951 7
-3 1 7 646.257 20.4926 9
-3 1 7 617.604 20.7876 11
2 -1 -7 302.713 17.0125 7
2 1 -7 300.823 16.6885 7
-1 -1 7 611.463 23.7753 1
1 -1 -7 635.561 24.2564 1
-1 1 7 605.424 23.3478 1
1 1 -7 578.324 19.0737 10
1 1 -7 605.529 23.7895 7
1 1 -7 572.12 22.8655 1
0 -1 7 792.273 30.7852 4
0 -1 -7 789.295 28.1838 7
0 -1 7 739.749 28.0501 1
0 -1 -7 753.521 29.7447 4
0 -1 -7 784.297 28.2651 1
0 1 -7 766.889 25.9083 7
0 1 -7 788.919 28.1545 1
0 1 7 790.928 27.7144 1
0 1 -7 738.932 23.6853 10
-1 -1 -7 632.786 23.4412 7
1 -1 7 644.956 24.8272 1
-1 -1 -7 600.941 24.4314 4
1 -1 7 586.578 26.5092 4
-1 -1 -7 623.541 24.0646 1
-1 1 -7 589.529 19.8392 10
-1 1 -7 628.164 24.1375 1
1 1 7 645.255 24.0171 1
2 -1 7 533.054 26.7436 4
-2 1 -7 512.575 17.9097 10
-3 -1 -7 721.085 23.4688 9
3 -1 7 689.087 34.7914 4
-3 -1 -7 697.082 24.5087 12
-3 -1 -7 691.508 23.608 13
-3 -1 -7 779.393 32.3303 8
-3 1 -7 651.141 23.3178 12
-3 1 -7 788.823 32.2154 8
-3 1 -7 723.879 23.6371 13
-3 1 -7 709.666 23.5244 5
-3 1 -7 648.44 24.3754 10
-4 -1 -7 10.9654 2.6461 13
-4 -1 -7 9.26031 2.44317 12
-4 -1 -7 10.7754 4.2371 8
-4 -1 -7 12.2608 2.6419 5
-4 1 -7 10.0768 3.74519 8
-4 1 -7 6.82943 2.10644 13
-4 1 -7 10.6735 2.55357 5
-4 1 -7 9.59831 2.55197 9
-4 1 -7 9.09853 2.14217 12
-5 -1 -7 142.424 8.6832 12
-5 -1 -7 143.882 7.966 13
-5 -1 -7 141.514 7.60615 5
-5 -1 -7 150.056 13.3709 8
-5 1 -7 158.659 8.03509 5
-5 1 -7 144.111 13.1306 8
-5 1 -7 145.457 7.83586 9
-5 1 -7 134.547 7.3968 12
-6 -1 -7 0.84604 0.81388 12
-6 -1 -7 1.1155 1.49015 8
-6 -1 -7 0.11493 0.66696 13
-6 -1 -7 0.56514 0.63482 5
-6 1 -7 0.9968 1.33397 8
-6 1 -7 1.10065 0.84634 5
-6 1 -7 0.00637 0.54301 9
-6 -2 7 7.89779 1.56827 11
-6 -2 7 5.84936 1.2811 12
-6 2 7 8.15441 3.48991 9
-6 2 7 10.9448 3.08255 5
6 2 -7 9.9235 2.01835 6
-6 2 7 10.4519 1.73432 11
5 -2 -7 148.435 7.53495 3
-5 -2 7 137.54 8.50666 12
-5 -2 7 134.546 7.8382 11
5 2 -7 144.435 7.66124 6
-5 2 7 142.925 7.74624 5
-5 2 7 139.253 7.09816 11
-5 2 7 143.321 7.12651 9
-4 -2 7 927.185 28.2357 9
4 -2 -7 1006.73 62.0749 7
4 -2 -7 924.454 29.7142 3
-4 -2 7 981.117 30.2844 11
-4 2 7 966.763 29.7026 11
4 2 -7 937.995 29.7213 6
-4 2 7 976.371 29.3119 5
4 2 -7 908.422 30.5124 3
-4 2 7 965.911 29.1474 9
4 2 -7 961.957 35.6882 10
-3 -2 7 450.203 15.0213 9
3 -2 -7 450.255 16.2685 3
3 -2 -7 427.204 24.9478 7
-3 -2 7 465.772 16.3657 11
3 2 -7 461.944 16.3995 6
-3 2 7 461.49 15.5071 9
-3 2 7 480.859 15.7972 5
3 2 -7 437.496 17.2289 3
3 2 -7 464.029 16.5517 10
2 -2 -7 83.1162 9.42192 7
2 -2 -7 74.2784 4.98614 3
-2 -2 7 92.0486 7.26619 11
2 2 -7 82.4822 5.23403 10
2 2 -7 80.3047 5.30533 6
2 2 -7 86.7594 5.83636 3
-2 2 7 81.0474 6.37549 5
1 -2 -7 674.385 29.1014 7
-1 2 7 644.034 29.0822 1
-1 2 7 630.795 27.1938 1
1 2 -7 647.727 21.3716 10
0 -2 -7 290.484 15.8232 4
0 -2 7 284.792 17.1342 1
0 -2 -7 294.288 16.7408 7
0 -2 7 261.898 17.5057 4
0 2 -7 285.318 16.1795 1
0 2 7 267.18 16.3371 1
0 2 -7 286.971 11.5041 10
0 2 7 284.134 15.7894 1
1 -2 7 278.117 19.2038 4
-1 -2 -7 307.925 17.9445 7
-1 2 -7 298.539 11.9934 10
-2 -2 -7 386.764 19.2597 12
2 -2 7 483.99 28.6871 4
2 -2 7 436.258 15.7315 6
-2 -2 -7 486.582 24.395 8
-2 2 -7 493.106 17.493 10
-2 2 -7 461.461 20.4799 5
-2 2 -7 511.371 23.9574 8
-2 2 -7 471.318 16.6397 12
3 -2 7 62.9152 4.29259 6
-3 -2 -7 71.6649 8.8502 8
-3 -2 -7 65.8853 5.64991 12
-3 -2 -7 67.766 5.26088 13
-3 2 -7 73.6446 5.54217 10
-3 2 -7 64.6741 4.70742 5
-3 2 -7 74.9515 8.86149 8
-3 2 -7 54.0751 4.60606 12
-4 -2 -7 693.473 32.2279 8
-4 -2 -7 641.59 22.1871 5
-4 -2 -7 672.323 24.2741 12
-4 -2 -7 666.422 23.3743 13
4 -2 7 623.206 21.0196 6
-4 2 -7 677.426 31.7675 8
-4 2 -7 670.004 23.3275 9
-4 2 -7 646.213 22.2357 5
-4 2 -7 626.826 21.7611 12
-5 -2 -7 114.128 7.43609 12
5 -2 7 115.463 5.77346 6
-5 -2 -7 114.499 6.71004 13
-5 -2 -7 115.637 6.00548 5
-5 -2 -7 106.447 11.0037 8
-5 2 -7 103.996 10.5617 8
-5 2 -7 112.961 6.51206 9
-5 2 -7 111.41 6.06127 5
-6 -2 -7 48.5449 3.49757 12
-6 -2 -7 45.664 3.00124 13
-6 2 -7 47.6018 2.96843 9
-6 2 -7 33.3145 4.18072 8
-6 2 -7 44.907 2.83393 5
-6 -3 7 50.1799 3.19883 11
-6 -3 7 51.7843 3.04722 12
-6 3 7 46.7028 2.95797 9
-6 3 7 45.9255 3.15289 11
-6 3 7 50.9973 3.82064 5
-5 -3 7 24.9442 3.32389 12
-5 -3 7 21.7804 2.43615 11
-5 3 7 19.3429 2.3452 11
-5 3 7 17.3966 3.52841 5
-5 3 7 18.9455 3.79115 9
-4 -3 7 79.7934 6.92605 11
-4 3 7 67.8999 5.92645 9
4 3 -7 62.1909 6.59215 6
-4 3 7 75.8928 7.35425 5
4 3 -7 60.3168 5.37574 3
3 -3 -7 437.357 16.4285 3
-3 -3 7 461.001 15.6613 11
3 -3 -7 447.088 28.0901 7
3 3 -7 442.06 16.368 10
-3 3 7 415.841 14.6318 9
-3 3 7 462.534 15.8269 5
3 3 -7 440.106 16.9828 6
3 3 -7 448.736 17.5333 3
2 -3 -7 170.128 16.1901 7
2 -3 -7 206.356 9.54236 3
-2 -3 7 212.632 8.73066 11
2 3 -7 211.101 9.87657 10
2 3 -7 213.555 10.5212 3
2 3 -7 201.241 9.87208 6
-2 3 7 202.039 8.60095 5
-2 3 7 210.266 8.6428 3
1 -3 -7 60.5612 12.2478 4
-1 -3 7 79.5247 4.72174 11
1 -3 -7 88.6187 5.44724 3
1 -3 -7 100.079 10.4742 7
1 3 -7 83.0691 6.19577 3
1 3 -7 85.6814 6.24307 6
-1 3 7 84.8094 5.07032 3
-1 3 7 86.5163 4.15366 6
1 3 -7 86.6784 5.74395 10
0 -3 -7 45.2947 9.75441 7
0 -3 7 43.4397 9.72159 4
0 -3 -7 34.1396 3.3162 3
0 -3 7 32.1881 2.97033 6
0 3 -7 35.5233 3.59177 10
0 3 -7 34.2873 3.34061 6
0 3 7 39.526 3.47335 3
0 3 7 34.1214 2.87614 6
0 3 -7 35.6411 3.97658 3
1 -3 7 160.609 7.13714 6
-1 -3 -7 153.883 12.3617 8
1 3 7 145.393 7.46567 3
-1 3 -7 162.464 8.87823 10
1 3 7 148.708 6.88741 6
-1 3 -7 161.033 12.6656 8
-1 3 -7 144.56 8.11899 3
-2 -3 -7 163.863 8.98252 12
-2 -3 -7 176.428 14.2885 8
-2 3 -7 168.607 16.7034 8
2 3 7 164.162 7.65509 6
-2 3 -7 162.833 9.02773 10
2 3 7 162.52 7.98096 3
3 -3 7 31.7845 3.12189 6
-3 -3 -7 30.6275 5.91849 8
-3 -3 -7 32.4366 4.03348 12
3 3 7 31.4966 3.31847 3
-3 3 -7 22.7119 2.9074 5
3 3 7 25.5299 2.94742 6
-3 3 -7 31.3088 3.56127 9
-3 3 -7 31.3087 6.0806 8
4 -3 7 8.73451 1.90726 6
-4 -3 -7 10.3846 3.94261 8
-4 -3 -7 7.94619 2.04091 13
-4 -3 -7 10.7676 2.50876 12
-4 3 -7 14.5238 4.61592 8
-4 3 -7 16.614 2.58768 9
-4 3 -7 11.99 2.04832 5
4 3 7 15.0047 2.3691 6
-5 -3 -7 11.9463 2.47403 13
-5 -3 -7 9.23968 3.24375 8
5 -3 7 13.0032 1.76218 6
-5 3 -7 9.57099 2.46523 9
-5 3 -7 14.3817 1.66347 5
-6 -3 -7 54.7062 4.35746 8
-5 -4 7 8.08623 3.14541 11
5 -4 -7 9.23491 1.50144 3
-5 -4 7 9.59022 1.64331 12
-5 4 7 5.76199 1.00993 11
5 4 -7 5.0046 1.12199 6
-4 -4 7 49.5774 5.88177 11
-4 -4 7 37.1279 5.08911 8
-4 -4 7 57.1321 5.02015 12
4 -4 -7 49.8159 3.84909 3
4 4 -7 48.1572 5.55508 3
-4 4 7 51.4272 3.67693 5
4 4 -7 47.4198 3.83007 6
-4 4 7 50.2046 3.50198 11
-3 -4 7 67.4285 4.36855 11
3 -4 -7 72.6678 5.09037 3
3 4 -7 69.5372 5.58279 3
-3 4 7 65.6965 4.34335 5
3 4 -7 74.7365 5.25354 6
2 -4 -7 361.836 14.3119 3
-2 -4 7 350.437 13.0992 11
2 4 -7 364.126 15.4049 3
2 4 -7 376.046 14.2452 6
-2 4 7 363.714 12.9246 3
2 4 -7 358.519 13.9341 10
1 -4 -7 1420.98 42.2147 3
-1 -4 7 1422.75 40.837 11
1 4 -7 1436.85 44.1842 3
-1 4 7 1453.8 41.7618 3
-1 4 7 1342.95 38.7162 6
1 4 -7 1380.41 42.8091 10
1 4 -7 1451.94 41.6768 6
0 -4 7 15.5199 2.1921 6
0 -4 -7 13.2069 2.29332 3
0 4 -7 16.468 2.38039 6
0 4 7 19.5929 2.68247 3
0 4 -7 18.3247 3.61973 10
0 4 -7 18.7711 2.88841 3
0 4 7 15.4326 1.94741 6
-1 -4 -7 185.439 14.3062 8
1 -4 7 197.733 8.32897 6
-1 4 -7 205.581 10.2308 10
1 4 7 201.661 9.44783 3
-1 4 -7 206.22 9.60501 3
1 4 7 207.567 8.60891 6
2 -4 7 146.978 7.12592 6
-2 -4 -7 145.004 12.8981 8
2 4 7 154.095 7.17311 6
-2 4 -7 134.615 9.26873 9
2 4 7 151.93 7.63063 3
-3 -4 -7 57.9682 4.75293 12
-3 -4 -7 58.1375 7.74524 8
3 4 7 60.7561 4.02006 6
-3 4 -7 57.8351 4.09088 9
3 4 7 56.0161 3.99164 3
4 -4 7 1.93407 0.96523 6
-4 -4 -7 2.25563 1.13434 12
-4 -4 -7 1.74141 1.9815 8
-4 4 -7 3.44127 0.99453 9
4 4 7 2.48278 0.80733 6
5 -4 7 8.82221 1.10984 6
-5 -4 -7 11.353 1.43742 13
-5 -4 -7 7.63498 1.13193 12
-5 -4 -7 4.79027 1.93655 8
-4 -5 7 12.9545 1.57392 12
4 -5 -7 12.7914 1.55408 3
-4 5 7 9.85957 1.10817 11
4 5 -7 15.1841 2.21903 6
-3 -5 7 20.9893 2.74541 12
3 -5 -7 24.659 2.45648 3
3 5 -7 23.2552 2.45026 3
-3 5 7 19.5789 2.03776 11
3 5 -7 21.1476 2.14355 6
-2 -5 7 15.7079 2.40733 12
2 -5 -7 18.5125 2.39467 3
2 5 -7 15.4185 2.07171 6
2 5 -7 17.0558 2.50335 3
1 -5 -7 20.175 2.49863 3
1 5 -7 20.383 2.13941 6
-1 5 7 22.0821 2.37493 3
1 5 -7 23.1212 3.08117 3
0 -5 -7 44.1524 3.1566 3
0 5 7 42.4281 3.55344 3
0 5 -7 35.0799 3.6079 3
0 5 7 39.0931 2.46764 6
1 5 7 102.286 5.72689 3
-1 5 -7 90.967 5.00572 3
1 5 7 98.107 4.74872 6
-2 -5 -7 25.5024 4.37088 8
2 5 7 28.9717 2.74837 3
2 5 7 29.3622 2.35985 6
-3 -5 -7 9.41396 2.38966 8
-3 -5 -7 9.84208 1.85511 13
3 -5 7 11.6504 1.27564 6
3 5 7 10.9897 1.52662 3
3 5 7 11.9904 1.37951 6
-4 -5 -7 0.19709 0.8676 8
4 5 7 1.86034 0.48446 6
-2 -6 7 20.1218 3.03892 8
2 6 -7 30.8613 1.87846 3
1 6 -7 344.467 11.2102 3
0 6 7 4.78326 1.12587 3
1 6 7 45.4857 3.00447 3
2 6 7 0.88397 0.46504 3
-7 0 8 24.6399 1.93437 11
-6 0 8 0.88792 4.00524 9
-6 0 8 1.05955 1.05629 11
-5 0 8 395.756 15.5417 9
-5 0 8 391.197 14.5273 11
4 0 -8 38.1615 8.95968 7
4 0 -8 38.1441 4.30595 3
-4 0 8 36.4409 4.36523 5
-4 0 8 39.3777 5.09604 9
-4 0 8 46.3926 3.70532 11
-3 0 8 250.513 9.74872 5
-3 0 8 263.179 10.3542 9
-3 0 8 263.417 10.8025 11
3 0 -8 249.623 10.5799 3
3 0 -8 265.618 20.1218 7
2 0 -8 1612.08 54.3826 7
-1 0 8 462.058 20.1267 1
1 0 -8 470.207 20.1861 1
1 0 -8 483.662 20.8979 7
0 0 -8 131.985 8.20692 7
0 0 8 127.25 8.81239 1
0 0 -8 133.522 9.08579 1
0 0 -8 131.787 6.95845 10
1 0 8 1152.02 38.5091 1
-1 0 -8 1088.65 32.6328 7
1 0 8 1113.5 39.1003 4
-2 0 -8 1836.18 53.7316 12
-2 0 -8 1795.37 51.6 10
2 0 8 1839.52 59.3744 4
-3 0 -8 397.121 15.7574 5
-3 0 -8 410.628 16.3969 12
-3 0 -8 404.248 15.6995 13
-3 0 -8 446.476 23.2958 8
-4 0 -8 69.2202 5.28255 9
-4 0 -8 71.3394 9.11878 8
-4 0 -8 67.5587 5.24005 5
-4 0 -8 62.5149 5.40122 12
-4 0 -8 62.1965 4.97734 13
-5 0 -8 10.9269 2.30557 9
-5 0 -8 9.68295 3.5813 8
-5 0 -8 8.10664 1.89173 5
-5 0 -8 13.7397 2.66464 13
-5 0 -8 11.1641 2.48428 12
-6 0 -8 145.851 6.42651 12
-6 0 -8 163.147 6.62782 5
-6 0 -8 135.052 10.3584 8
-6 0 -8 146.897 5.81602 9
-7 -1 8 1.51491 0.78612 11
-7 1 8 0.31376 1.48319 11
-7 1 8 1.4629 0.63128 9
-6 -1 8 79.4895 4.73896 9
-6 -1 8 79.7707 6.73572 11
-6 1 8 80.8208 7.44949 9
-6 1 8 85.8505 5.35328 11
-6 1 8 78.061 5.35502 5
6 1 -8 86.9056 4.77645 6
-5 -1 8 235.949 12.436 9
5 -1 -8 218.363 9.9815 3
-5 -1 8 272.127 12.2237 11
5 1 -8 215.155 9.99526 10
-5 1 8 267.233 13.9877 9
-5 1 8 222.505 10.0621 5
-5 1 8 198.432 10.4843 11
-4 -1 8 111.636 5.99427 11
4 -1 -8 83.4341 11.1898 7
4 -1 -8 92.106 8.52106 3
-4 -1 8 108.407 10.1941 9
4 1 -8 93.8985 12.2651 7
-4 1 8 106.284 6.48711 5
-4 1 8 96.5464 5.84054 11
-4 1 8 107.151 6.10666 9
-3 -1 8 446.762 16.0249 9
3 -1 -8 447.06 24.6025 7
3 -1 -8 412.774 15.5698 3
-3 -1 8 435.189 14.9121 11
3 1 -8 448.876 24.4465 7
-3 1 8 434.992 15.0142 9
-3 1 8 435.958 15.0724 11
-3 1 8 442.206 14.9532 5
2 -1 -8 65.9672 7.99756 7
2 1 -8 54.3843 7.10733 7
1 -1 -8 194.108 12.4491 7
1 -1 -8 162.282 17.8414 1
-1 -1 8 168 11.5511 1
1 1 -8 173.571 7.9512 10
1 1 -8 193.638 11.8611 1
-1 1 8 167.116 11.5326 1
1 1 -8 174.9 11.2499 7
0 -1 8 75.1066 7.80009 1
0 -1 -8 69.7715 6.70842 7
0 -1 -8 76.6663 7.46067 1
0 -1 8 85.0297 8.30129 4
0 1 -8 59.6291 7.1598 1
0 1 -8 71.398 5.8855 7
0 1 8 66.9174 7.37068 1
0 1 -8 64.5457 4.61849 10
-1 -1 -8 39.9637 4.81756 7
1 -1 8 38.4278 6.77681 4
-1 -1 -8 38.7893 7.64772 4
1 -1 8 36.6769 6.07201 1
-1 1 -8 47.3419 3.74082 10
1 1 8 33.8821 5.41194 1
-2 -1 -8 225.073 19.9335 8
2 -1 8 273.436 17.7157 4
-2 -1 -8 246.528 10.6788 13
-2 -1 -8 244.124 11.1282 12
-2 1 -8 243.255 10.524 12
-2 1 -8 263.625 10.952 10
-2 1 -8 230.807 10.6535 5
-2 1 -8 277.595 16.6191 8
-3 -1 -8 422.352 17.1601 12
3 -1 8 404.231 14.8382 6
-3 -1 -8 445.233 23.8933 8
-3 -1 -8 421.363 16.3114 13
3 -1 8 389.409 25.478 4
-3 1 -8 427.242 15.9941 13
-3 1 -8 443.823 16.2462 5
-3 1 -8 415.056 16.1042 12
-3 1 -8 482.601 24.3025 8
-3 1 -8 417.112 15.786 10
-4 -1 -8 128.023 7.53408 5
-4 -1 -8 127.634 8.40287 12
-4 -1 -8 142.068 13.4056 8
-4 -1 -8 136.739 7.22976 9
-4 -1 -8 128.541 7.92952 13
4 -1 8 124.674 6.58452 6
-4 1 -8 127.591 7.39045 13
-4 1 -8 133.138 7.64791 5
-4 1 -8 132.425 7.77234 12
-4 1 -8 139.521 13.3362 8
-4 1 -8 133.607 7.89275 9
-5 -1 -8 5.07871 1.77832 5
-5 -1 -8 3.70862 1.7663 12
-5 -1 -8 1.4033 2.15166 8
-5 -1 -8 1.42901 1.13535 9
-5 -1 -8 2.44463 1.27809 13
-5 1 -8 2.01681 1.21364 12
-5 1 -8 3.55104 1.17055 5
-5 1 -8 2.31986 2.17286 8
-5 1 -8 2.98314 1.33384 9
-6 -1 -8 56.0968 3.54844 13
-6 -1 -8 52.9596 3.5546 12
-6 -1 -8 50.0581 3.02429 5
-6 -1 -8 38.2818 5.25723 8
-6 1 -8 48.6863 3.26075 5
-6 1 -8 55.9917 3.31733 9
-6 -2 8 14.9823 2.09319 12
-6 -2 8 18.8052 1.98232 11
-6 2 8 21.0602 3.23418 5
-6 2 8 18.3501 3.90127 9
6 2 -8 15.8508 2.4489 6
-6 2 8 18.0725 1.86008 11
-5 -2 8 232.592 9.53643 11
5 -2 -8 217.886 9.66391 3
-5 -2 8 217.175 10.943 12
-5 -2 8 209.96 8.08823 9
-5 2 8 225.686 10.2098 9
-5 2 8 215.94 9.31965 11
5 2 -8 232.198 10.0218 6
-5 2 8 217.912 10.117 5
-4 -2 8 180.978 9.17165 11
-4 -2 8 168.491 7.45615 9
4 -2 -8 177.757 8.57996 3
-4 2 8 164.533 8.19211 9
-4 2 8 174.549 8.85055 5
4 2 -8 181.89 9.33265 3
-4 2 8 172.273 8.20262 11
4 2 -8 153.294 8.27589 10
4 2 -8 172.599 8.54689 6
-3 -2 8 81.4476 4.79832 9
3 -2 -8 86.9676 5.64373 3
3 -2 -8 85.8064 11.156 7
-3 -2 8 85.3231 5.67239 11
-3 2 8 89.3471 5.66408 5
3 2 -8 91.458 5.93885 6
-3 2 8 89.536 5.37107 11
-3 2 8 85.7191 5.23583 9
3 2 -8 95.5755 6.00604 10
3 2 -8 75.2812 10.5869 7
3 2 -8 94.4544 6.36431 3
-2 -2 8 168.19 7.45727 11
2 -2 -8 174.135 17.0724 7
-2 -2 8 186.084 7.55446 9
2 -2 -8 170.829 8.18904 3
2 2 -8 182.852 8.38045 6
-2 2 8 179.031 7.9041 5
2 2 -8 192.684 8.89373 10
-2 2 8 161.858 7.532 9
2 2 -8 172.816 9.1078 3
1 -2 -8 988.829 29.9208 3
1 -2 -8 1005.33 39.9621 7
1 2 -8 971.339 31.2293 3
1 2 -8 1019.75 30.8473 10
-1 2 8 978.832 29.2955 3
-1 2 8 979.731 28.8848 5
1 2 -8 953.852 30.2587 6
0 -2 8 483.317 16.2672 6
0 -2 8 537.828 27.7076 4
0 -2 -8 508.08 24.5423 7
0 2 -8 532.285 21.0594 7
0 2 8 506.294 16.9388 3
0 2 -8 517 18.138 10
0 2 8 482.146 15.8155 6
0 2 -8 487.836 18.1499 3
1 -2 8 352.863 22.5048 4
1 -2 8 285.566 12.6496 6
1 2 8 312.956 12.0132 3
-1 2 -8 337.851 13.8842 3
-1 2 -8 312.027 12.567 12
-1 2 -8 373.681 19.1982 8
1 2 8 317.924 11.4442 6
2 -2 8 803.364 39.8667 4
-2 -2 -8 846.81 34.2693 8
2 -2 8 770.892 24.0851 6
-2 -2 -8 763.265 26.0938 12
-2 2 -8 774.994 26.1295 10
-2 2 -8 845.228 33.7978 8
2 2 8 760.216 23.8457 6
2 2 8 745.598 24.8866 3
-2 2 -8 733.814 24.9883 12
-3 -2 -8 153.453 13.1743 8
-3 -2 -8 135.29 8.01103 13
-3 -2 -8 149.171 8.70713 12
3 2 8 123.798 6.79429 3
-3 2 -8 136.083 7.69675 5
3 2 8 124.318 6.55781 6
-3 2 -8 133.396 7.91949 12
-3 2 -8 152.36 8.40433 10
-3 2 -8 151.974 12.9708 8
-4 -2 -8 8.44383 2.51825 13
-4 -2 -8 6.6984 2.3144 12
-4 -2 -8 7.5545 1.82961 5
4 -2 8 8.75454 1.96972 6
-4 -2 -8 5.9095 3.01381 8
-4 2 -8 3.4416 1.55592 12
4 2 8 7.94852 3.14856 6
-4 2 -8 6.35202 2.25229 9
-4 2 -8 7.70358 1.93999 5
-4 2 -8 4.47051 2.78205 8
-5 -2 -8 12.1144 2.67996 12
5 -2 8 15.9318 3.03328 6
-5 -2 -8 15.4567 2.38333 13
-5 -2 -8 18.3375 4.54657 8
-5 -2 -8 16.5745 2.25872 5
-5 2 -8 16.4405 2.1929 5
-5 2 -8 14.4995 2.67479 9
-6 -2 -8 100.405 4.67881 12
-6 -2 -8 67.578 6.13474 8
-6 2 -8 89.1862 4.03692 9
-6 2 -8 80.7157 6.29507 8
-6 -3 8 12.1936 2.03505 11
-6 3 8 11.0644 1.13423 11
5 -3 -8 110.687 5.86738 3
-5 -3 8 122.737 5.84948 11
-5 3 8 130.437 7.03336 9
-5 3 8 134.319 7.32488 5
5 3 -8 122.479 6.41714 6
-5 3 8 130.008 6.0614 11
4 -3 -8 39.2519 3.63803 3
-4 -3 8 36.8952 3.27672 11
-4 -3 8 42.8196 4.60553 12
4 3 -8 31.4672 4.01134 3
-4 3 8 36.2888 5.38384 9
-4 3 8 47.2926 5.65057 5
-4 3 8 38.1478 3.31205 11
3 -3 -8 281.174 12.0068 3
3 3 -8 285.581 12.8731 3
3 3 -8 272.811 12.3858 6
-3 3 8 292.441 11.5245 5
-3 3 8 267.65 10.6024 9
3 3 -8 278.842 11.9394 10
2 -3 -8 439.112 27.2705 7
2 -3 -8 447.739 16.4626 3
2 3 -8 447.846 16.9673 6
2 3 -8 433.364 16.8312 10
2 3 -8 444.379 17.8432 3
-2 3 8 434.949 15.2396 5
-1 -3 8 56.2728 3.81071 11
1 -3 -8 58.4619 4.41641 3
-1 3 8 56.9437 3.34874 6
1 3 -8 65.2657 5.12886 10
-1 3 8 56.7947 4.25244 3
1 3 -8 59.3489 5.1032 3
1 3 -8 65.0532 5.75317 6
0 -3 -8 62.2586 4.5864 3
0 -3 8 70.8505 4.19693 6
0 -3 -8 76.6544 10.3501 7
0 3 8 69.4272 4.05345 6
0 3 -8 78.0746 5.647 10
0 3 -8 73.4393 5.66617 3
0 3 -8 73.9037 4.63006 6
0 3 8 68.2726 4.6736 3
-1 -3 -8 81.485 8.87923 8
1 -3 8 75.7961 4.62853 6
-1 -3 -8 67.9938 5.02397 3
-1 3 -8 73.1642 5.58406 3
-1 3 -8 85.1252 6.37648 10
-1 3 -8 76.917 8.7833 8
1 3 8 74.6877 4.96755 3
1 3 8 78.9325 4.61246 6
-2 -3 -8 27.1112 3.57725 12
2 -3 8 38.1416 3.31733 6
-2 -3 -8 29.6794 5.57975 8
-2 3 -8 35.5816 4.09017 10
2 3 8 28.6644 3.08626 3
-2 3 -8 32.7059 6.01801 8
2 3 8 31.4293 3.09757 6
3 -3 8 213.616 9.17698 6
-3 -3 -8 217.319 10.8831 12
-3 -3 -8 216.295 10.7673 13
-3 -3 -8 201.018 16.0556 8
3 3 8 211.97 8.8293 6
-3 3 -8 201.243 8.68064 5
3 3 8 203.419 9.12263 3
-3 3 -8 222.388 10.4164 9
-3 3 -8 211.093 16.0238 8
4 -3 8 18.4906 2.40356 6
-4 -3 -8 17.8799 2.51789 5
-4 -3 -8 26.3318 3.51333 12
-4 -3 -8 26.8514 3.23806 13
-4 -3 -8 24.7333 5.14271 8
-4 3 -8 23.5147 2.89487 9
4 3 8 28.4267 2.47235 6
-4 3 -8 20.3315 2.39206 5
-4 3 -8 20.6396 4.80975 8
-5 -3 -8 14.1032 2.11386 12
-5 -3 -8 13.2683 3.36883 8
-5 -3 -8 13.4799 2.0095 13
5 -3 8 12.2135 1.61498 6
-5 3 -8 13.6185 3.08575 8
5 3 8 15.6388 1.75004 6
-5 3 -8 14.566 1.81787 9
-5 3 -8 14.6101 1.5766 5
5 -4 -8 20.2382 1.73135 3
-5 -4 8 20.036 2.13003 12
-5 4 8 17.861 1.4945 11
5 4 -8 19.4128 1.73137 6
4 -4 -8 6.55177 1.59653 3
-4 -4 8 5.68106 1.77965 12
-4 -4 8 7.00656 3.26897 11
4 4 -8 5.59728 1.5186 3
4 4 -8 6.20075 1.71542 6
3 -4 -8 43.2467 3.97081 3
-3 -4 8 42.4866 3.35308 11
3 4 -8 42.7031 3.95895 6
3 4 -8 41.1199 4.12349 3
-2 -4 8 27.5656 3.11583 11
2 -4 -8 32.3231 3.58796 3
2 4 -8 26.921 3.40414 10
2 4 -8 33.2681 3.7432 6
2 4 -8 26.6414 3.57883 3
1 -4 -8 607.573 20.9648 3
1 4 -8 622.839 22.5899 3
1 4 -8 593.272 20.1288 6
1 4 -8 610.457 21.7842 10
-1 4 8 617.394 20.3905 3
0 -4 -8 20.1224 2.76551 3
0 4 -8 22.574 2.55843 6
0 4 8 18.8335 2.62309 3
0 4 8 22.4676 2.26427 6
0 4 -8 22.8955 3.27808 3
0 4 -8 23.2976 4.16103 10
1 -4 8 381.604 13.1547 6
-1 -4 -8 377.683 20.8648 8
-1 4 -8 378.415 14.4805 3
-1 4 -8 380.182 15.6045 10
1 4 8 366.521 14.206 3
1 4 8 377.303 13.2171 6
2 -4 8 4.02685 1.41374 6
-2 -4 -8 1.86184 2.18692 8
-2 4 -8 3.78895 1.77903 9
2 4 8 1.0597 1.11435 3
2 4 8 2.51149 2.15702 6
-3 -4 -8 129.078 11.4482 8
-3 -4 -8 125.131 7.27193 13
-3 -4 -8 134.826 7.0293 12
3 -4 8 123.263 6.09485 6
-3 4 -8 132.029 6.42072 9
3 4 8 124.088 5.91535 6
3 4 8 122.831 6.15845 3
4 -4 8 6.98643 1.31458 6
-4 -4 -8 5.07532 2.07434 8
-4 -4 -8 6.8728 1.62421 13
-4 -4 -8 7.1567 1.52231 12
-4 4 -8 9.80085 1.42257 9
4 4 8 9.7703 1.33739 6
-5 -4 -8 10.0273 1.86024 8
-4 -5 8 101.491 4.70772 12
4 -5 -8 118.981 4.61793 3
4 5 -8 112.799 4.06727 6
-3 -5 8 105.133 5.90413 12
3 -5 -8 110.091 5.24319 3
-3 -5 8 83.3336 6.73979 8
-3 5 8 101.941 4.44794 11
3 5 -8 106.157 5.31795 3
3 5 -8 108.322 4.67852 6
-2 -5 8 36.9903 3.95237 12
2 -5 -8 37.9917 3.15046 3
2 5 -8 31.9874 3.5707 6
2 5 -8 30.3155 3.15627 3
1 -5 -8 85.5209 4.87025 3
-1 5 8 84.3323 4.68423 3
1 5 -8 83.5173 5.5264 3
0 5 -8 66.8271 4.64684 3
0 5 8 65.1226 4.33161 3
1 5 8 130.871 5.3645 6
-1 5 -8 128.116 5.5888 3
-2 -5 -8 7.92093 2.64048 8
-3 -5 -8 2.59847 1.44516 8
-3 -5 -8 2.79603 0.8486 13
3 5 8 3.7149 0.81036 6
3 5 8 3.72666 0.96907 3
1 6 -8 143.994 5.18488 3
0 6 8 74.3423 3.02876 3
-1 -6 -8 61.0665 3.11797 13
1 6 8 60.1508 2.73675 3
-6 0 9 339.246 12.5758 9
-6 0 9 327.947 11.8625 11
6 0 -9 319.922 12.1534 10
-5 0 9 122.398 10.5056 9
-5 0 9 116.68 6.28669 11
5 0 -9 116.087 6.97488 3
-4 0 9 7.41039 5.42919 9
-4 0 9 1.65286 3.31122 5
4 0 -9 1.39894 1.67523 3
-4 0 9 1.91725 1.17595 11
4 0 -9 3.11273 5.32026 7
3 0 -9 832.308 32.6608 3
-3 0 9 917.357 27.4477 11
-3 0 9 952.505 28.4527 9
3 0 -9 962.188 40.6587 7
-3 0 9 914.056 27.2586 5
2 0 -9 29.764 4.1043 3
2 0 -9 28.1202 6.40879 7
-2 0 9 36.9232 4.58504 9
1 0 -9 116.972 9.8455 1
1 0 -9 110.246 9.19754 7
-1 0 9 94.7257 9.12887 1
0 0 -9 19.6135 4.34579 7
0 0 9 11.6574 4.81181 1
0 0 -9 14.6775 4.43492 1
0 0 -9 13.2912 2.16981 10
2 0 9 324.699 18.654 4
-2 0 -9 320.16 12.7534 13
-2 0 -9 333.673 13.511 12
-2 0 -9 365.418 19.6295 8
-2 0 -9 331.818 12.7666 10
-3 0 -9 20.4169 2.95423 12
3 0 9 12.78 2.43994 6
-3 0 -9 16.7608 3.98107 8
-3 0 -9 20.2109 2.93508 5
-3 0 -9 11.4414 2.51665 13
-4 0 -9 11.3753 2.60076 13
-4 0 -9 7.85554 3.46851 8
-4 0 -9 11.844 2.38752 5
-4 0 -9 16.0642 2.75465 12
-4 0 -9 9.08477 2.49394 9
-5 0 -9 79.298 5.36884 13
-5 0 -9 77.0272 5.2198 5
-5 0 -9 77.0161 4.9929 9
-5 0 -9 74.0449 5.36984 12
-5 0 -9 75.6866 9.22683 8
-6 0 -9 60.7582 6.26516 8
-6 0 -9 73.283 3.77852 5
-6 0 -9 74.2929 3.22048 9
-6 -1 9 15.9182 1.86103 9
-6 -1 9 10.278 2.03278 11
-6 1 9 12.2192 3.78167 9
-6 1 9 13.9951 1.76333 11
6 1 -9 10.8012 2.5058 6
-5 -1 9 246.097 11.7243 11
-5 -1 9 232.728 11.0766 9
5 -1 -9 234.341 10.2616 3
-5 1 9 241.711 9.89547 11
-5 1 9 238.547 12.6141 9
-5 1 9 235.296 10.5793 5
5 1 -9 230.355 10.5373 10
4 -1 -9 291.635 12.4062 3
-4 -1 9 317.778 12.1288 11
-4 -1 9 317.077 13.8027 9
-4 1 9 310.587 13.3303 9
-4 1 9 305.396 11.9856 11
-4 1 9 303.418 12.4148 5
4 1 -9 286.353 12.8008 3
3 -1 -9 141.832 13.273 7
-3 -1 9 159.253 8.73625 9
3 -1 -9 143.193 7.57971 3
-3 -1 9 140.778 6.98937 11
-3 1 9 153.28 8.23093 9
3 1 -9 146.73 8.09218 3
3 1 -9 150.424 13.5599 7
-3 1 9 138.232 6.88126 11
-3 1 9 142.532 7.54523 5
2 -1 -9 95.0404 10.1235 7
-2 1 9 92.0257 6.03323 5
2 1 -9 87.2626 5.96927 3
2 1 -9 100.325 6.13351 10
-2 1 9 95.8071 6.79481 9
2 1 -9 93.6326 9.92715 7
1 -1 -9 1142.31 42.257 7
-1 1 9 1135.34 42.1165 1
1 1 -9 1115.97 34.0925 10
1 1 -9 1155.95 40.5091 7
0 -1 -9 626.9 27.1195 1
0 -1 9 613.643 27.4243 1
0 -1 -9 595.801 19.4944 10
0 -1 9 617.892 29.0595 4
0 -1 -9 623.901 25.8465 7
0 1 9 640.933 27.0003 1
0 1 -9 614.095 26.9019 1
0 1 -9 617.653 20.6207 10
0 1 -9 611.364 23.1297 7
1 -1 9 231.716 16.3445 4
-1 -1 -9 227.092 12.5884 7
-1 1 -9 225.651 10.012 10
-1 1 -9 235.013 10.1729 12
2 -1 9 45.391 9.24866 4
-2 -1 -9 41.4985 4.00512 13
-2 -1 -9 41.7823 4.02677 12
-2 -1 -9 44.9922 12.867 8
2 1 9 41.7743 3.27475 6
-2 1 -9 37.5136 3.97798 13
2 1 9 32.793 3.43747 3
-2 1 -9 38.2756 6.08585 8
-2 1 -9 37.8934 4.19166 10
-2 1 -9 34.2873 3.92493 5
-2 1 -9 37.2955 3.79793 12
-3 -1 -9 222.249 15.3781 12
3 -1 9 201.233 8.48479 6
-3 -1 -9 214.018 18.4934 8
3 1 9 190.548 8.11577 6
-3 1 -9 196.394 21.4042 8
-3 1 -9 210.066 9.92126 13
-3 1 -9 202.001 9.54701 10
-3 1 -9 196.212 13.5684 5
3 1 9 190.49 8.65247 3
-4 -1 -9 581.678 21.1359 13
-4 -1 -9 578.221 19.7925 9
-4 -1 -9 581.206 29.8137 8
-4 -1 -9 571.433 20.7149 5
4 -1 9 551.847 18.8124 6
-4 -1 -9 587.166 22.0122 12
-4 1 -9 648.611 30.8313 8
-4 1 -9 571.841 21.0149 9
-4 1 -9 582.45 20.8288 12
-4 1 -9 558.81 20.3093 13
-4 1 -9 576.568 20.6169 5
-5 -1 -9 16.472 2.51817 5
-5 -1 -9 13.5195 2.4342 13
-5 -1 -9 11.9541 3.77932 8
5 -1 9 18.5441 2.50514 6
-5 -1 -9 21.0389 3.09308 12
-5 1 -9 17.1199 4.26032 8
-5 1 -9 14.4019 2.3427 12
-5 1 -9 11.8454 2.16197 5
-5 1 -9 16.938 2.46922 9
-6 -1 -9 61.0008 3.47818 5
-6 -1 -9 59.6929 3.56818 12
-6 1 -9 55.967 3.11387 9
-6 1 -9 60.6181 3.31075 5
-6 -2 9 2.64322 0.81675 11
-6 2 9 4.91444 2.15869 9
-6 2 9 1.79159 0.77187 11
6 2 -9 4.33462 1.21673 6
-5 -2 9 105.694 5.53424 11
5 -2 -9 100.712 5.84824 3
-5 -2 9 100.549 6.53009 12
5 2 -9 93.6119 6.64906 10
-5 2 9 98.6457 8.8616 9
5 2 -9 93.0937 5.9319 6
5 2 -9 94.4051 6.85671 3
-5 2 9 96.5511 7.56664 5
-5 2 9 94.6995 5.376 11
-4 -2 9 115.633 5.74806 9
4 -2 -9 112.157 6.55145 3
-4 -2 9 102.161 6.08501 11
4 2 -9 111.671 6.56845 6
-4 2 9 112.549 6.1215 11
-4 2 9 122 8.23584 5
4 2 -9 95.0746 6.25565 10
-4 2 9 108.496 8.60851 9
4 2 -9 105.66 7.00781 3
-3 -2 9 32.4706 3.31592 11
3 -2 -9 35.5819 3.52203 3
-3 -2 9 30.0118 4.58943 9
3 -2 -9 24.1201 9.91488 7
3 2 -9 37.9109 3.7303 6
-3 2 9 30.5834 4.35991 9
3 2 -9 34.1072 4.07108 3
-3 2 9 32.4305 4.67583 5
3 2 -9 35.367 3.69344 10
2 -2 -9 59.6126 4.5053 3
-2 -2 9 53.7179 3.82279 11
2 -2 -9 57.1968 8.40903 7
-2 2 9 62.7352 4.11567 3
-2 2 9 62.085 4.85865 5
2 2 -9 58.5856 5.41411 3
2 2 -9 68.1072 5.13 10
2 2 -9 58.6992 4.5878 6
2 2 -9 57.3304 8.37727 7
-2 2 9 64.1087 4.53538 9
1 -2 -9 722.033 33.0264 7
1 -2 -9 654.878 22.4924 3
1 2 -9 713.676 24.33 3
1 2 -9 738.346 30.69 7
-1 2 9 706.339 22.3003 3
-1 2 9 709.066 21.892 6
1 2 -9 699.223 23.4189 6
1 2 -9 728.771 23.9447 10
0 -2 9 12.08 4.46731 4
0 -2 9 21.7774 2.31155 6
0 -2 -9 10.2436 4.01787 7
0 2 -9 13.6795 3.42408 8
0 2 -9 11.7793 4.35144 6
0 2 9 18.7645 2.42127 3
0 2 9 18.2085 1.99096 6
0 2 -9 16.7442 3.47818 10
0 2 -9 12.6798 2.47815 3
1 -2 9 64.9739 4.05925 6
-1 -2 -9 51.9965 4.67832 3
-1 -2 -9 59.0564 4.91538 12
1 -2 9 58.2507 9.65875 4
-1 2 -9 60.9467 4.75017 12
-1 2 -9 63.9846 5.08155 10
1 2 9 64.6819 3.86246 6
1 2 9 62.9323 4.37975 3
-1 2 -9 65.565 5.27623 3
-1 2 -9 73.7987 7.96172 8
-2 -2 -9 540.804 25.6864 8
-2 -2 -9 556.025 19.6472 12
2 -2 9 522.886 17.311 6
2 2 9 510.345 17.5786 3
-2 2 -9 526.571 19.4711 10
-2 2 -9 490.805 17.6139 5
2 2 9 480.95 16.6379 6
-2 2 -9 518.789 18.4872 12
3 -2 9 135.068 6.64351 6
-3 -2 -9 143.244 8.58199 12
-3 -2 -9 128.194 7.87732 13
-3 -2 -9 139.15 12.5498 8
-3 2 -9 125.683 7.15335 5
3 2 9 122.006 6.08236 6
3 2 9 124.899 6.6439 3
-3 2 -9 137.052 8.2102 10
-3 2 -9 140.801 12.6304 8
-3 2 -9 129.202 7.48674 12
-4 -2 -9 29.7668 3.21439 5
-4 -2 -9 29.4507 5.76378 8
4 -2 9 25.1142 2.86387 6
-4 -2 -9 28.702 3.63155 13
-4 -2 -9 29.3131 3.95416 12
4 2 9 24.4882 2.7661 6
-4 2 -9 33.9996 6.29722 8
-4 2 -9 24.7275 3.0138 5
-4 2 -9 28.4842 3.09775 12
-4 2 -9 26.4572 3.7409 9
-5 -2 -9 86.6667 5.32941 13
-5 -2 -9 92.7396 9.37377 8
5 -2 9 89.974 4.70338 6
-5 -2 -9 99.8924 5.16692 5
-5 -2 -9 87.7611 5.86648 12
-5 2 -9 98.3607 5.6391 9
-5 2 -9 93.0201 5.07382 5
-5 2 -9 89.8697 8.98476 8
5 2 9 89.3903 4.99467 6
-6 -2 -9 36.1567 3.93195 8
-6 -2 -9 37.921 2.28335 13
-6 -2 -9 37.9737 2.3919 12
-6 2 -9 40.8422 2.24776 9
-6 2 -9 39.2005 2.08306 5
-6 -3 9 -0.7371 1.81395 11
5 -3 -9 49.773 3.46251 3
-5 -3 9 46.8456 4.00884 12
-5 -3 9 51.3087 3.30527 11
-5 3 9 45.5796 3.18045 11
-5 3 9 48.6478 4.57458 5
5 3 -9 43.631 3.64606 3
5 3 -9 49.9169 4.02692 6
-5 3 9 47.3975 3.52064 9
4 -3 -9 73.8731 5.11815 3
-4 -3 9 69.8236 4.4201 11
-4 3 9 76.6665 4.67084 11
-4 3 9 75.6614 6.10533 5
-4 3 9 71.513 5.28284 9
4 3 -9 77.968 5.91905 6
4 3 -9 72.4679 5.3749 3
3 -3 -9 60.0606 4.74928 3
-3 -3 9 54.926 4.01454 11
-3 3 9 57.0182 4.24246 11
-3 3 9 63.9998 5.32068 5
3 3 -9 55.4323 5.19385 3
3 3 -9 48.4526 4.41943 10
3 3 -9 67.1209 6.07143 6
-3 3 9 56.7336 3.9619 9
2 -3 -9 204.474 9.68054 3
2 -3 -9 157.406 16.4341 7
-2 -3 9 203.746 8.35641 11
2 3 -9 158.008 16.6751 7
-2 3 9 198.493 8.37098 3
2 3 -9 204.535 10.626 3
2 3 -9 223.445 10.8127 10
2 3 -9 205.911 10.6723 6
1 -3 -9 36.5484 9.04439 7
-1 -3 9 38.1864 3.08332 11
1 -3 -9 28.6338 3.07377 3
1 3 -9 34.3909 3.84365 3
-1 3 9 27.0404 2.97561 3
1 3 -9 28.7957 3.58764 10
-1 3 9 31.5308 2.43129 6
1 3 -9 26.9111 4.23028 6
0 -3 -9 423.289 26.219 7
0 -3 9 387.556 13.3727 6
0 -3 -9 389.875 14.5738 3
0 3 -9 371.989 13.3392 6
0 3 -9 395.071 16.1314 10
-1 -3 -9 33.3437 5.27758 8
1 -3 9 31.9989 2.99299 6
1 3 9 34.7108 2.94168 6
-1 3 -9 35.084 4.88741 3
-1 3 -9 35.744 6.14504 8
-1 3 -9 35.0575 4.23477 10
1 3 9 31.4657 3.39595 3
-2 -3 -9 47.0698 6.97566 8
-2 -3 -9 49.859 4.4875 12
2 -3 9 52.3884 3.99346 6
-2 3 -9 54.9114 7.94356 8
2 3 9 54.8829 3.86293 6
-2 3 -9 49.7825 4.86842 10
2 3 9 55.159 4.31618 3
-3 -3 -9 12.5423 5.5964 8
3 -3 9 22.1655 4.33299 6
-3 -3 -9 18.7193 3.54094 13
3 3 9 19.4196 2.77769 3
-3 3 -9 18.6301 4.72954 8
-3 3 -9 13.7556 2.20544 5
-4 -3 -9 49.0895 6.873 8
-4 -3 -9 49.3391 4.21702 13
4 -3 9 50.185 3.56915 6
-4 -3 -9 48.1248 4.42096 12
4 3 9 44.916 3.16787 6
-4 3 -9 46.0463 3.72946 5
-4 3 -9 53.79 4.18213 9
-4 3 -9 48.6362 6.95696 8
5 -3 9 75.9651 3.66992 6
-5 -3 -9 67.3255 6.72235 8
-5 -3 -9 69.6106 4.04384 13
-5 -3 -9 73.8902 4.3437 12
-5 3 -9 76.9407 3.97946 9
-5 3 -9 73.4 3.89464 5
5 3 9 70.4051 3.26197 6
-5 3 -9 68.9075 6.6839 8
-5 -4 9 2.1671 0.68268 12
-5 -4 9 2.11268 0.8096 11
5 4 -9 1.12508 0.5319 6
4 -4 -9 48.9938 3.54551 3
-4 -4 9 54.7801 5.33337 11
-4 -4 9 53.6603 4.68692 12
4 4 -9 49.1106 3.69492 3
4 4 -9 48.314 3.56902 6
-4 4 9 48.5133 3.04412 11
3 -4 -9 197.804 8.92863 3
-3 -4 9 179.997 7.64253 11
-3 4 9 179.162 7.62016 11
3 4 -9 184.16 8.48463 6
3 4 -9 197.172 9.55943 3
2 -4 -9 230.046 10.1595 3
-2 -4 9 217.852 8.79443 11
2 4 -9 203.041 10.0315 10
2 4 -9 228.167 9.84804 6
-2 4 9 224.901 8.68036 3
2 4 -9 222.12 11.053 3
1 -4 -9 61.9071 4.67805 3
-1 4 9 57.503 4.33117 3
1 4 -9 50.5429 4.77645 10
1 4 -9 58.6106 5.21743 3
1 4 -9 53.6818 4.11265 6
0 -4 -9 50.0449 3.99907 3
0 4 9 45.9103 3.25856 6
0 4 -9 53.2758 4.82507 10
0 4 9 49.8139 4.12237 3
0 4 -9 54.4751 4.80157 3
-1 -4 -9 27.1752 6.64807 8
1 4 9 38.8793 3.97224 3
1 4 9 31.9377 3.02656 6
-1 4 -9 38.3497 3.83245 9
-1 4 -9 34.8019 4.0074 10
-2 -4 -9 123.63 11.189 8
2 4 9 124.213 6.05511 6
2 4 9 132.599 6.81886 3
-2 4 -9 130.745 6.78612 9
-3 -4 -9 83.623 4.92644 12
-3 -4 -9 80.0217 7.89771 8
-3 -4 -9 86.753 5.69598 13
3 -4 9 87.0594 4.61024 6
3 4 9 86.6534 4.52129 6
-3 4 -9 82.0842 5.10772 9
-4 -4 -9 4.35164 1.04036 12
-4 -4 -9 6.43825 1.47584 13
4 -4 9 5.93008 1.11843 6
-4 -4 -9 3.87953 1.91016 8
4 4 9 5.50266 0.97349 6
-4 4 -9 3.66788 0.86415 9
4 -5 -9 25.3973 1.58601 3
3 -5 -9 5.90048 1.11535 3
-3 -5 9 5.65248 1.28815 12
3 5 -9 7.97212 1.17279 6
3 5 -9 4.1714 0.88623 3
2 -5 -9 14.7462 1.94006 3
-2 -5 9 13.2128 2.06895 12
2 5 -9 15.6327 1.59453 6
-2 5 9 14.137 1.94046 11
2 5 -9 12.2669 2.03094 3
1 -5 -9 62.5761 3.91405 3
1 5 -9 61.8661 4.41957 3
0 5 -9 43.3002 3.51701 3
0 5 9 47.1784 3.47382 3
1 5 9 20.3538 2.28973 3
2 5 9 16.782 1.90188 3
2 5 9 19.3432 1.67505 6
-3 -5 -9 34.4065 2.89432 13
3 5 9 45.4268 2.3375 3
-6 0 10 120.757 6.69998 11
6 0 -10 115.945 5.74422 10
-6 0 10 123.795 5.63762 9
-5 0 10 0.35173 4.62368 9
-5 0 10 1.36763 0.96165 11
5 0 -10 0.03691 1.49333 3
4 0 -10 85.0614 5.8995 3
-4 0 10 91.7249 10.2743 9
-4 0 10 81.0422 5.04258 11
3 0 -10 624.167 21.4051 3
3 0 -10 642.264 32.8586 7
-3 0 10 617.459 21.2143 9
-3 0 10 607.629 19.7842 11
-2 0 10 2.81725 2.13871 9
2 0 -10 6.19297 3.61351 7
2 0 -10 0.0191 1.44128 3
1 0 -10 72.221 5.06965 3
-1 0 10 79.6895 4.48769 9
1 0 -10 80.0678 5.07273 10
1 0 -10 81.2273 8.58963 7
0 0 -10 233.202 9.66047 10
0 0 10 208.261 8.93006 3
0 0 10 207.458 7.4683 2
0 0 -10 222.594 12.6858 7
0 0 10 207.4 8.05319 6
1 0 10 118.561 4.87268 2
-1 0 -10 113.377 6.59864 12
-1 0 -10 124.348 6.48976 10
1 0 10 118.519 6.15878 3
1 0 10 116.894 5.51237 6
2 0 10 63.0336 4.57092 3
-2 0 -10 62.3147 4.92052 12
-2 0 -10 64.4805 4.87424 10
2 0 10 69.8132 3.50081 2
-2 0 -10 73.8908 8.04523 8
-2 0 -10 69.2056 4.93057 13
2 0 10 65.1715 4.11105 6
-3 0 -10 200.257 10.3208 12
-3 0 -10 203.796 10.2069 5
-3 0 -10 201.875 9.67487 13
-3 0 -10 216.702 15.6824 8
-4 0 -10 51.5892 4.70308 12
-4 0 -10 52.9102 4.60217 9
-4 0 -10 48.4324 7.42277 8
-4 0 -10 46.3296 4.53774 5
-4 0 -10 52.2236 4.59796 13
-5 0 -10 26.8741 3.08576 12
-5 0 -10 28.2813 3.03797 13
5 0 10 23.5763 2.70673 6
-5 0 -10 27.8749 2.97199 5
-5 0 -10 24.2782 2.69898 9
-5 0 -10 23.5952 5.13289 8
-6 0 -10 -0.2358 0.47429 12
-6 0 -10 0.29997 0.64162 8
-6 -1 10 55.3347 3.18489 9
-6 -1 10 56.7397 3.25836 11
-6 1 10 51.0883 3.14439 11
6 1 -10 54.2392 4.79585 6
-6 1 10 54.7057 4.30771 9
-5 -1 10 12.8377 4.37436 11
5 -1 -10 11.6238 2.2466 3
-5 -1 10 9.16264 2.42241 9
5 1 -10 15.0128 2.94226 10
-5 1 10 12.0994 3.65804 5
-5 1 10 13.6368 5.8251 9
5 1 -10 7.6951 2.88175 3
-5 1 10 11.2948 1.92514 11
-4 -1 10 81.3376 6.72965 9
4 -1 -10 69.3411 5.42396 3
-4 -1 10 79.6239 7.16 11
4 1 -10 81.28 5.87965 10
-4 1 10 77.9794 9.65328 9
4 1 -10 86.4682 6.14532 3
-4 1 10 81.5016 7.38128 5
-4 1 10 79.7674 4.97677 11
3 -1 -10 6.77561 5.72122 7
3 -1 -10 10.6414 3.08116 3
-3 -1 10 9.12679 2.97594 11
-3 1 10 8.93804 2.09304 11
-3 1 10 8.40246 4.00242 5
3 1 -10 8.12257 1.99677 3
-3 1 10 9.11926 6.25779 9
3 1 -10 7.78653 2.17319 10
3 1 -10 14.3605 6.57683 7
2 -1 -10 62.3374 8.83861 7
-2 -1 10 59.8393 3.92894 9
2 -1 -10 55.9604 4.39424 3
-2 1 10 54.5582 2.92539 2
2 1 -10 59.961 12.9914 7
-2 1 10 53.5221 4.06286 3
-2 1 10 49.7294 4.84611 9
2 1 -10 52.7417 4.75276 3
2 1 -10 54.9264 4.45873 10
1 -1 -10 269.167 12.139 3
1 -1 -10 287.564 17.4999 7
1 1 -10 286.185 11.7444 10
-1 1 10 267.706 9.82464 9
1 1 -10 251.928 12.4081 3
1 1 -10 291.956 16.399 7
-1 1 10 268.718 9.33901 6
1 1 -10 244.771 12.1428 6
0 -1 10 80.1177 5.90055 6
0 -1 -10 91.2687 5.62451 3
0 -1 -10 92.6296 5.43226 10
0 -1 -10 88.0474 8.75939 7
0 1 -10 99.5427 6.11125 10
0 1 -10 91.1412 6.0035 3
0 1 -10 83.452 5.7775 12
0 1 -10 98.2675 6.84965 6
0 1 10 78.8197 5.93914 3
0 1 10 91.1405 6.07162 6
1 -1 10 457.108 25.7045 4
-1 -1 -10 432.131 17.1136 12
1 -1 10 421.35 14.5039 6
-1 1 -10 417.627 15.6911 3
1 1 10 421.319 14.4816 6
-1 1 -10 426.559 16.3589 10
-1 1 -10 437.225 16.1641 12
-1 1 -10 447.318 21.6456 8
1 1 10 447.606 16.99 3
-2 -1 -10 2.90264 1.35308 13
2 -1 10 8.43124 4.30104 4
-2 -1 -10 4.61732 1.50573 12
2 -1 10 2.92525 1.2048 6
-2 -1 -10 3.84632 2.5329 8
2 1 10 1.73137 1.35 6
-2 1 -10 -0.2476 1.46905 5
2 1 10 4.56444 1.5983 3
-2 1 -10 -1.3614 1.6654 13
-2 1 -10 2.08603 2.16248 8
-2 1 -10 3.36078 1.50155 12
-2 1 -10 3.09621 1.88452 10
3 -1 10 89.865 5.13414 6
-3 -1 -10 85.2424 10.0499 8
-3 -1 -10 82.9038 5.92492 13
-3 -1 -10 94.6832 6.66669 12
-3 1 -10 93.8236 10.2013 8
3 1 10 82.3061 4.12192 2
3 1 10 84.46 4.94752 6
3 1 10 99.5275 6.30396 3
-3 1 -10 87.0896 5.73776 13
-3 1 -10 82.1852 5.87036 10
-3 1 -10 94.0531 6.15981 5
-3 1 -10 89.5382 6.19487 12
-4 -1 -10 100.228 8.82483 12
-4 -1 -10 123.937 9.79415 13
-4 -1 -10 127.919 9.23005 5
4 -1 10 97.6613 5.55841 6
-4 -1 -10 88.9194 5.72311 9
-4 -1 -10 119.85 15.5737 8
-4 1 -10 112.102 12.846 8
-4 1 -10 115.822 8.81724 5
4 1 10 92.5135 5.08244 6
5 -1 10 50.4815 3.27133 6
-5 -1 -10 44.446 4.02251 12
-5 -1 -10 38.2331 5.82444 8
-5 -1 -10 41.2863 3.60208 5
-5 -1 -10 46.2825 4.00102 13
-5 1 -10 42.6715 6.24025 8
5 1 10 46.7661 3.15249 6
-5 1 -10 44.2226 3.6596 9
-5 1 -10 48.6593 3.72846 5
-5 1 -10 46.7258 4.80301 12
-6 -1 -10 76.6317 3.61673 12
-6 -1 -10 69.9454 3.07741 5
-6 1 -10 71.7574 3.3698 5
-6 1 -10 64.2018 5.54442 8
-6 1 -10 73.0868 3.11776 9
-6 -2 10 3.28321 0.84546 11
-6 2 10 3.79104 0.74321 11
-6 2 10 4.31848 1.01842 9
6 2 -10 1.99707 1.11407 6
-5 -2 10 4.56255 1.31219 11
-5 -2 10 5.16998 2.21161 12
5 -2 -10 5.20372 1.51328 3
5 2 -10 5.82981 1.93714 6
-5 2 10 5.41955 1.29976 11
-5 2 10 5.03705 3.66981 9
5 2 -10 4.85082 1.85853 10
-5 2 10 4.28479 3.49782 5
4 -2 -10 80.4712 6.26013 3
-4 -2 10 76.0179 5.13464 11
-4 2 10 75.3969 4.81707 11
4 2 -10 71.5325 5.45447 10
4 2 -10 72.1058 5.65797 3
4 2 -10 80.3377 6.88675 6
-4 2 10 93.0291 13.8494 9
3 -2 -10 145.326 20.9504 7
-3 -2 10 164.335 7.39517 11
3 -2 -10 158.051 8.26729 3
-3 2 10 151.378 9.01507 9
3 2 -10 178.92 21.9413 7
-3 2 10 158.199 7.39154 11
3 2 -10 173.34 9.04978 10
3 2 -10 166.779 8.42094 6
-3 2 10 169.792 8.57611 5
3 2 -10 156.022 9.06089 3
2 -2 -10 14.4465 2.6696 3
2 -2 -10 22.8665 6.79339 7
-2 -2 10 12.9226 2.16562 11
-2 2 10 11.5113 1.89342 3
-2 2 10 15.2808 2.31499 9
2 2 -10 11.5606 2.71638 3
2 2 -10 15.7076 3.23025 6
2 2 -10 13.9584 5.86617 7
2 2 -10 15.1399 3.20432 10
1 -2 -10 19.2732 2.84144 3
1 -2 -10 11.9073 4.95206 7
-1 2 10 22.0297 2.21715 6
-1 2 10 25.5091 2.55831 9
1 2 -10 22.4612 3.32491 10
1 2 -10 26.4986 4.27269 6
1 2 -10 28.4753 6.1738 7
-1 2 10 22.8099 2.5809 3
1 2 -10 27.489 3.53026 3
0 -2 10 33.6398 2.90288 6
0 -2 10 23.4442 8.18062 4
0 -2 -10 32.6533 9.26758 7
0 2 -10 39.3314 4.22167 3
0 2 -10 37.3212 3.95494 10
0 2 -10 31.5651 4.0602 6
0 2 -10 32.8952 5.73092 8
0 2 10 34.7291 2.7649 6
0 2 10 30.8661 3.12548 3
-1 -2 -10 11.0948 2.24826 12
-1 -2 -10 11.2721 2.35445 3
1 -2 10 12.8861 2.00579 6
-1 2 -10 16.0472 3.21009 10
-1 2 -10 16.0211 4.86767 8
-1 2 -10 11.4695 2.42909 3
1 2 10 14.8276 2.4428 3
1 2 10 12.7311 2.07347 6
-2 -2 -10 53.2665 6.03709 12
2 -2 10 51.8274 3.88259 6
-2 -2 -10 49.96 7.36594 8
-2 2 -10 53.4533 4.35296 5
2 2 10 51.2089 4.58079 6
-2 2 -10 58.7284 5.25351 10
-2 2 -10 67.8434 8.44838 8
-2 2 -10 54.9328 4.59906 12
-3 -2 -10 390.512 15.6964 13
-3 -2 -10 391.311 22.6305 8
-3 -2 -10 408.158 16.5787 12
3 -2 10 403.681 14.3058 6
-3 2 -10 404.082 14.9933 5
-3 2 -10 392.126 15.9789 10
-3 2 -10 409.681 23.4744 8
3 2 10 369.299 13.4203 6
3 2 10 376.317 14.1309 3
-3 2 -10 393.56 15.3636 12
-4 -2 -10 179.513 8.69653 5
-4 -2 -10 180.879 14.4327 8
-4 -2 -10 181.012 9.63298 12
-4 -2 -10 187.532 9.31057 13
4 -2 10 170.554 7.7953 6
-4 2 -10 159.625 13.9166 8
-4 2 -10 180.724 8.35007 5
-4 2 -10 175.338 8.36475 12
-4 2 -10 176.682 9.17818 9
4 2 10 178.778 7.51889 6
-5 -2 -10 32.0131 3.01809 13
-5 -2 -10 30.2112 4.68005 8
-5 -2 -10 31.9103 3.14097 12
-5 -2 -10 31.0774 2.60264 5
5 -2 10 32.1387 2.48109 6
-5 2 -10 32.389 2.89281 9
-5 2 -10 24.0034 4.56456 8
-5 2 -10 35.7554 2.73183 5
5 2 10 29.8152 2.34719 6
-5 -3 10 131.163 6.5678 12
5 -3 -10 135.649 5.99754 3
-5 -3 10 132.127 5.65433 11
-5 3 10 126.688 5.39567 9
5 3 -10 134.373 6.18342 6
5 3 -10 113.54 6.89347 3
-5 3 10 128.85 5.17782 11
-4 -3 10 35.6327 2.92251 11
4 -3 -10 39.3133 3.70401 3
4 3 -10 35.063 4.88874 6
4 3 -10 35.4222 3.81024 3
-4 3 10 35.8852 2.97395 11
-4 3 10 40.7309 3.55743 9
4 3 -10 45.8705 4.95774 10
-3 -3 10 107.641 6.82995 11
3 3 -10 90.0628 6.09049 10
-3 3 10 90.4256 4.74264 9
3 3 -10 90.5223 11.9176 6
-3 3 10 89.9955 5.17873 11
2 -3 -10 116.249 6.84957 3
-2 -3 10 103.309 5.44618 11
-2 3 10 100.839 5.65637 11
2 3 -10 125.546 7.57351 10
2 3 -10 108.761 8.34859 6
-2 3 10 112.23 5.75339 3
2 3 -10 107.299 7.46941 3
1 -3 -10 72.719 5.32603 3
1 -3 -10 73.8098 11.1726 7
-1 -3 10 77.8902 5.45395 11
-1 3 10 77.4382 5.03289 3
-1 3 10 79.0368 3.92097 6
1 3 -10 81.751 5.9919 6
1 3 -10 86.539 6.33815 3
1 3 -10 72.4773 13.1713 7
0 -3 -10 118.505 14.6857 7
0 -3 10 122.77 5.8631 6
0 -3 -10 122.707 6.81628 3
0 3 -10 117.138 5.66209 6
0 3 10 123.217 5.86048 6
0 3 -10 128.287 7.93509 3
0 3 10 132.382 6.93501 3
0 3 -10 119.929 8.20338 10
1 -3 10 221.234 9.27291 6
-1 3 -10 228.598 10.5539 3
-1 3 -10 227.033 11.8171 10
1 3 10 226.974 10.0473 3
1 3 10 223.089 9.06378 6
-1 3 -10 241.47 17.2072 8
-2 -3 -10 68.7419 5.15442 12
2 -3 10 70.9114 4.61664 6
-2 -3 -10 63.4602 7.70857 8
2 3 10 66.927 4.36577 6
2 3 10 64.0271 4.80151 3
-2 3 -10 69.1327 8.66606 8
-2 3 -10 69.763 5.83211 10
3 -3 10 107.465 5.8956 6
-3 -3 -10 122.585 6.7629 5
-3 -3 -10 111.299 7.11443 13
-3 -3 -10 112.501 7.02876 12
-3 -3 -10 113.864 10.7174 8
-3 3 -10 114.341 5.73248 5
-3 3 -10 113.123 6.98476 9
3 3 10 112.714 6.06229 3
3 3 10 117.66 5.72133 6
-3 3 -10 112.902 11.2402 8
-4 -3 -10 142.273 11.6673 8
-4 -3 -10 154.272 7.85229 12
-4 -3 -10 151.598 6.49716 5
-4 -3 -10 147.33 7.54149 13
4 -3 10 148.894 6.5619 6
-4 3 -10 117.413 10.6064 8
4 3 10 149.216 6.15134 6
-4 3 -10 139.921 5.90415 5
-4 3 -10 155.73 7.38601 9
-5 -3 -10 21.4889 2.09458 12
-5 -3 -10 18.8377 1.93815 13
5 -3 10 19.6605 1.60924 6
5 3 10 20.2832 1.90393 6
-5 3 -10 16.1273 3.26476 8
-5 3 -10 18.0799 2.25485 9
-5 -4 10 1.79749 0.95353 12
5 4 -10 2.3187 0.82967 6
-4 -4 10 8.44744 1.67926 11
4 -4 -10 6.9096 1.35831 3
4 4 -10 7.44023 1.47161 6
-4 4 10 8.87554 1.30432 11
4 4 -10 11.1009 1.64687 3
3 -4 -10 62.4011 4.40044 3
3 4 -10 61.0403 4.76439 3
-3 4 10 51.9202 3.37954 11
3 4 -10 59.8934 4.25059 6
2 -4 -10 43.3543 3.91646 3
2 4 -10 42.6274 4.34914 3
-2 4 10 35.028 2.92548 11
2 4 -10 37.6542 3.81022 10
-2 4 10 39.8471 2.91655 3
2 4 -10 44.7341 3.77083 6
1 -4 -10 33.2924 3.33938 3
1 4 -10 28.1516 3.54868 3
1 4 -10 28.7577 2.78264 6
-1 4 10 30.193 2.93867 3
1 4 -10 31.1659 3.68153 10
0 -4 -10 120.969 6.18159 3
0 4 10 122.513 6.91917 3
0 4 10 118.274 5.34098 6
0 4 -10 124.169 7.76114 10
0 4 -10 126.119 7.47707 3
1 -4 10 50.8058 3.29043 6
-1 4 -10 44.6453 3.96881 9
-1 4 -10 50.709 3.9557 3
1 4 10 52.6869 3.40312 6
-1 4 -10 52.8539 4.81 10
1 4 10 54.7715 4.1382 3
-2 -4 -10 170.273 14.0707 8
2 -4 10 179.9 7.38833 6
2 4 10 182.98 8.20701 3
2 4 10 179.527 7.38591 6
-2 4 -10 181.665 8.0646 9
3 -4 10 39.2167 2.8829 6
-3 -4 -10 43.1469 3.67719 13
-3 -4 -10 34.1559 4.5717 8
3 4 10 43.0131 2.98148 3
-3 4 -10 40.8533 3.01765 9
3 4 10 40.8266 3.73104 6
4 -4 10 15.9678 1.41734 6
-4 -4 -10 15.4684 1.72036 13
-4 4 -10 15.7518 1.98354 9
-3 -5 10 4.0917 1.03691 12
3 -5 -10 4.92346 1.10114 3
3 5 -10 7.81182 1.09867 6
3 5 -10 6.86432 1.14499 3
-2 -5 10 -0.1777 0.62009 12
2 -5 -10 1.49161 0.72134 3
2 5 -10 0.21804 0.60745 3
1 -5 -10 140.343 5.76246 3
-1 5 10 145.325 5.79736 3
1 5 -10 139.689 6.7616 3
0 5 -10 77.2109 4.26668 3
0 5 10 72.3371 5.42498 3
1 5 10 60.2014 3.6153 3
1 5 10 56.4145 2.60126 6
-2 -5 -10 18.7612 2.1346 13
2 5 10 16.3023 1.70542 3
2 5 10 18.4581 1.43576 6
-3 -5 -10 33.7317 2.12295 13
3 5 10 31.3378 1.55055 6
-6 0 11 6.45819 1.16975 9
6 0 -11 8.4446 2.1707 10
-6 0 11 6.85898 2.37242 11
6 0 -11 9.64726 2.22752 6
-5 0 11 27.3311 3.58675 11
5 0 -11 25.6859 3.1538 10
-5 0 11 30.6174 4.27489 9
4 0 -11 26.7894 3.57032 3
-4 0 11 34.4759 5.43532 9
-4 0 11 29.1488 3.05447 11
3 0 -11 462.437 17.0734 3
-3 0 11 443.559 14.9682 11
-3 0 11 460.091 16.355 9
3 0 -11 377.336 38.2596 7
2 0 -11 0.3769 0.9968 3
2 0 -11 1.42128 3.37038 7
-2 0 11 -0.4226 1.04708 9
1 0 -11 819.696 27.3686 3
1 0 -11 901.663 27.7401 10
1 0 -11 867.71 35.2077 7
0 0 11 57.7798 3.6416 6
0 0 -11 57.4909 7.26667 7
0 0 -11 64.2802 4.55106 6
0 0 -11 70.1057 7.64455 12
0 0 11 59.003 4.29282 3
0 0 -11 51.0368 4.62434 3
0 0 11 56.9773 3.14479 2
-1 0 -11 3.238 3.4822 8
1 0 11 3.43972 1.32891 3
-1 0 -11 7.66805 1.90319 12
1 0 11 4.39853 1.1965 2
1 0 11 7.79347 1.60563 6
-2 0 -11 10.0115 1.94994 13
-2 0 -11 9.29307 3.47969 8
-2 0 -11 9.98598 2.19529 12
-3 0 -11 7.81693 2.06591 12
-3 0 -11 9.17533 2.14586 5
-3 0 -11 10.5941 3.89741 8
3 0 11 7.21588 1.90847 6
-3 0 -11 7.89942 2.08526 13
-4 0 -11 121.491 7.29804 5
-4 0 -11 122.105 7.36875 12
4 0 11 123.551 6.09618 6
-4 0 -11 130.888 7.32534 9
-4 0 -11 123.29 7.25688 13
-4 0 -11 137.565 12.73 8
-5 0 -11 100.088 5.63731 5
-5 0 -11 112.037 6.63239 13
-5 0 -11 100.612 5.19751 9
5 0 11 108.856 4.95954 6
-5 0 -11 108.494 9.87489 8
-6 0 -11 24.4938 2.98049 8
-6 0 -11 25.727 1.59504 5
6 -1 -11 14.3366 2.63297 10
-6 -1 11 12.1343 1.26486 11
-6 1 11 11.4208 2.06223 11
-6 1 11 12.6786 1.53649 9
6 1 -11 12.4473 1.87087 6
-5 -1 11 115.786 5.54667 9
-5 -1 11 107.833 5.68474 11
-5 1 11 111.832 5.42306 11
-5 1 11 112.888 7.53191 9
5 1 -11 111.927 6.49792 3
5 1 -11 115.848 6.15137 6
5 1 -11 107.969 6.31082 10
-4 -1 11 8.09457 2.28261 9
4 -1 -11 11.3211 3.3546 3
4 1 -11 16.0657 3.34905 10
-4 1 11 12.4431 5.19815 9
3 -1 -11 109.354 6.78789 3
-3 -1 11 107.446 6.3076 11
3 -1 -11 101.81 13.5277 7
-3 -1 11 119.104 6.28461 9
-3 1 11 124.271 8.27059 9
3 1 -11 119.485 7.39578 3
-3 1 11 99.3777 5.75071 11
3 1 -11 127.461 14.5214 7
-2 -1 11 0.79836 0.84985 9
2 -1 -11 8.39268 5.067 7
2 -1 -11 -0.9791 0.97531 3
2 1 -11 1.49832 1.40289 10
2 1 -11 -2.4174 1.13988 3
-2 1 11 0.15611 0.98523 9
2 1 -11 11.5732 5.29028 7
1 -1 -11 223.652 10.2182 3
-1 -1 11 241.271 8.57866 6
1 1 -11 237.558 9.8498 6
1 1 -11 236.346 10.9362 10
1 1 -11 231.196 10.9582 3
1 1 -11 222.058 15.4132 7
-1 1 11 235.15 8.51274 6
-1 1 11 228.003 8.05998 2
-1 1 11 234.362 9.6489 3
-1 1 11 234.728 9.15417 9
0 -1 -11 61.3269 4.56146 3
0 -1 -11 54.8852 4.84745 12
0 -1 -11 54.6557 4.39922 6
0 -1 11 59.6848 3.86846 6
0 -1 -11 58.2968 4.57123 10
0 -1 -11 64.6533 8.05438 7
0 1 11 59.9069 4.29556 3
0 1 -11 61.5856 5.00792 3
0 1 -11 68.8183 5.33589 10
0 1 -11 55.1066 5.26964 6
0 1 11 64.4294 3.80969 6
0 1 -11 69.0268 5.02547 12
-1 -1 -11 141.653 7.47671 13
-1 -1 -11 146.128 7.732 12
-1 -1 -11 140.495 7.54262 3
1 -1 11 148.037 6.83887 6
-1 1 -11 162.868 12.1267 8
-1 1 -11 155.032 8.09692 12
1 1 11 143.74 7.12053 3
-1 1 -11 143.227 7.98034 10
-1 1 -11 134.168 7.6563 3
1 1 11 144.51 6.51163 6
-2 -1 -11 280.921 17.6966 8
-2 -1 -11 258.125 16.5616 12
-2 -1 -11 298.497 13.5006 13
2 1 11 283.994 11.7647 3
-2 1 -11 284.971 12.5588 10
-2 1 -11 296.973 13.5807 5
-2 1 -11 291.825 12.6915 12
-2 1 -11 250.767 10.9076 13
-2 1 -11 295.407 18.7653 8
-3 -1 -11 205.33 15.6503 8
-3 -1 -11 188.886 10.1926 12
-3 -1 -11 194.156 9.80345 13
3 -1 11 194.238 8.55872 6
3 1 11 198.487 7.33346 2
-3 1 -11 201.346 10.0504 12
-3 1 -11 211.839 16.0125 8
3 1 11 198.993 8.95524 3
-3 1 -11 201.722 9.87575 5
-3 1 -11 194.239 9.47951 10
-3 1 -11 187.876 8.99857 13
3 1 11 197.514 8.23265 6
-4 -1 -11 0.73544 1.26239 9
4 -1 11 5.79799 1.37488 6
-4 -1 -11 2.49844 1.302 13
-4 -1 -11 2.80252 2.08736 8
-4 -1 -11 3.32708 1.50956 12
-4 -1 -11 1.8087 1.0523 5
-4 1 -11 2.327 1.22079 5
-4 1 -11 3.92052 1.51718 12
4 1 11 4.84309 1.35573 6
-4 1 -11 2.70687 2.07212 8
-5 -1 -11 69.9058 4.41797 5
-5 -1 -11 76.4424 5.09654 12
-5 -1 -11 64.6367 7.35131 8
5 -1 11 72.4715 3.97217 6
-5 -1 -11 78.274 5.35002 13
-5 1 -11 70.9925 4.31666 9
-5 1 -11 71.0329 4.28787 12
-5 1 -11 72.5526 4.50613 5
-6 -1 -11 2.40021 1.0224 8
-6 1 -11 2.68035 0.47256 5
-6 1 -11 1.06537 0.79338 8
-6 2 11 19.2233 1.74948 9
6 2 -11 15.8315 1.62386 6
5 -2 -11 2.15809 1.07722 3
-5 -2 11 2.01893 0.83849 11
-5 -2 11 0.79951 1.0122 12
-5 2 11 3.29212 2.0111 9
5 2 -11 2.13278 1.36924 3
5 2 -11 0.97416 1.54334 10
5 2 -11 0.37376 1.71436 6
-5 2 11 1.99277 0.90121 11
-4 -2 11 140.879 6.54364 11
4 -2 -11 147.985 7.78566 3
4 2 -11 142.519 8.12546 10
-4 2 11 150.245 8.05058 9
4 2 -11 150.498 8.36397 3
4 2 -11 146.362 8.05919 6
-4 2 11 153.058 6.89502 11
-3 -2 11 109.336 5.67791 11
3 -2 -11 121.537 7.22656 3
-3 2 11 112.917 5.80169 11
3 2 -11 120.104 7.27335 6
3 2 -11 122.065 7.64199 10
3 2 -11 117.418 7.74605 3
-3 2 11 116.753 6.41014 9
2 -2 -11 44.9406 4.26023 3
-2 2 11 44.1317 3.1942 9
-2 2 11 45.2175 2.60698 2
2 2 -11 44.4565 5.42274 6
2 2 -11 42.5073 4.66609 10
2 2 -11 30.1735 9.22408 7
-2 2 11 44.4002 3.65125 3
2 2 -11 55.4722 5.01597 3
1 -2 -11 127.34 14.0335 7
1 2 -11 125.744 7.95669 10
-1 2 11 122.303 5.3596 6
0 -2 -11 77.041 5.14667 3
0 -2 -11 74.8076 9.85927 7
0 -2 11 71.8121 4.30479 6
0 2 -11 70.8008 5.86506 10
0 2 -11 68.4432 4.644 6
0 2 11 70.9263 4.09846 6
0 2 11 73.9695 5.13371 3
0 2 -11 70.8523 5.66288 3
1 -2 11 118.824 6.11212 6
-1 -2 -11 120.459 6.92923 12
-1 2 -11 129.803 8.03673 10
-1 2 -11 127.913 11.6134 8
-1 2 -11 122.144 7.36238 3
1 2 11 127.839 6.17038 6
1 2 11 119.737 6.96685 3
2 -2 11 12.0836 2.35429 6
-2 -2 -11 11.7262 2.44238 13
-2 -2 -11 10.7088 2.28688 12
-2 -2 -11 7.21966 3.60181 8
-2 2 -11 13.5161 4.51136 8
-2 2 -11 18.459 3.59013 10
2 2 11 11.9457 2.21391 3
2 2 11 14.6204 1.97813 6
-2 2 -11 10.9871 2.50183 12
-2 2 -11 7.04886 2.0106 5
3 -2 11 264.004 10.774 6
-3 -2 -11 268.457 19.3524 8
-3 -2 -11 276.461 12.3518 13
-3 -2 -11 274.723 12.5266 12
-3 2 -11 258.03 11.8622 12
-3 2 -11 271.575 12.1936 10
-3 2 -11 291.009 19.0979 8
3 2 11 259.433 11.6496 6
-4 -2 -11 38.3893 6.24304 8
4 -2 11 44.8808 3.32991 6
-4 -2 -11 40.5314 4.0071 12
-4 -2 -11 43.6377 4.10249 13
-4 -2 -11 46.3311 3.82934 5
-4 2 -11 45.556 4.1046 9
-4 2 -11 36.9152 6.19829 8
4 2 11 40.512 2.92271 6
-4 2 -11 39.8339 3.40243 5
-5 -2 -11 18.4672 2.18372 13
-5 -2 -11 18.8149 2.199 12
-5 -2 -11 15.9627 3.1307 8
-5 -2 -11 18.8336 2.13381 5
5 -2 11 22.9139 1.85784 6
-5 2 -11 20.6321 1.73842 5
5 2 11 14.3942 1.70967 6
-5 2 -11 20.758 2.07794 9
-5 2 -11 13.6365 3.03154 8
5 -3 -11 56.8914 3.32194 3
-5 -3 11 52.91 3.79095 11
-5 -3 11 56.4332 3.86073 12
5 3 -11 52.59 3.37611 6
-4 -3 11 3.46885 1.66321 12
-4 -3 11 2.96644 1.27345 11
4 -3 -11 2.13318 1.0176 3
4 3 -11 6.81652 1.98912 10
-4 3 11 1.82804 1.0957 11
4 3 -11 3.79119 2.01445 3
4 3 -11 5.69718 2.8175 6
-4 3 11 2.86712 1.05631 9
3 -3 -11 99.1924 6.28147 3
-3 -3 11 96.3674 4.87239 11
-3 3 11 101.394 5.01001 11
3 3 -11 101.023 6.87726 3
-3 3 11 98.4537 4.79655 9
3 3 -11 102.834 7.9706 6
3 3 -11 90.9421 6.20866 10
-2 -3 11 192.15 8.06317 11
2 -3 -11 198.724 9.59359 3
-2 3 11 198.775 8.424 3
2 3 -11 207.653 10.8009 3
2 3 -11 204.534 10.8792 6
2 3 -11 210.099 10.4759 10
1 -3 -11 57.7249 4.82346 3
1 3 -11 57.1454 4.80805 6
-1 3 11 57.5863 3.12122 6
1 3 -11 54.3992 5.19837 3
-1 3 11 56.8427 4.23439 3
1 3 -11 58.0932 5.1871 10
0 -3 -11 53.3179 4.30538 3
0 -3 11 54.3379 3.50598 6
0 3 -11 59.3729 5.22409 3
0 3 11 54.6974 3.55962 6
0 3 -11 54.0139 5.14526 10
0 3 11 51.4136 4.2373 3
1 -3 11 63.7788 4.23601 6
-1 3 -11 62.5536 4.9782 3
-1 3 -11 68.2711 5.88365 10
1 3 11 63.6365 4.15414 6
1 3 11 68.3604 4.82656 3
-2 -3 -11 8.74325 3.48337 8
-2 -3 -11 13.589 2.46015 12
-2 3 -11 12.6184 2.7242 10
-2 3 -11 14.9205 5.78303 8
-3 -3 -11 29.9048 5.34355 8
-3 -3 -11 37.6027 3.74375 13
-3 -3 -11 35.2605 3.33343 12
-3 -3 -11 31.1669 3.36056 5
3 -3 11 36.0966 3.02504 6
3 3 11 34.061 2.82781 6
-3 3 -11 33.5942 5.76172 8
3 3 11 30.5046 2.91107 3
-3 3 -11 36.0471 3.51729 9
-4 -3 -11 169.454 7.48914 12
-4 -3 -11 171.822 6.72488 5
-4 -3 -11 150.482 10.6041 8
4 -3 11 174.692 6.8734 6
-4 3 -11 147.645 11.2263 8
4 3 11 168.615 6.38859 6
-4 3 -11 183.102 7.66075 9
-5 -3 -11 26.2387 1.85223 12
-5 -3 -11 24.4165 1.76929 13
5 -3 11 26.9856 1.61353 6
-5 3 -11 26.9345 1.63073 9
4 -4 -11 17.4652 1.80543 3
-4 -4 11 15.6722 2.12601 12
4 4 -11 10.8557 1.66519 3
4 4 -11 13.9713 1.62319 6
3 -4 -11 53.3485 3.99978 3
3 4 -11 51.7221 3.95772 6
2 -4 -11 3.48566 1.10221 3
2 4 -11 3.05397 1.29433 6
2 4 -11 1.27976 1.35854 10
2 4 -11 4.43741 1.43342 3
1 -4 -11 31.6468 3.18324 3
1 4 -11 24.0613 2.37486 6
1 4 -11 28.3275 3.49977 3
-1 4 11 30.9918 2.90475 3
1 4 -11 29.8168 3.71123 10
0 -4 -11 441.576 14.8703 3
0 4 -11 452.615 17.6132 10
0 4 11 463.516 15.8045 3
0 4 -11 459.109 16.7716 3
0 4 11 435.343 13.8524 6
1 -4 11 111.905 4.75489 6
-1 4 -11 119.311 8.54206 10
-1 4 -11 108.631 5.474 3
1 4 11 118.45 6.26438 3
1 4 11 119.081 5.41664 6
-1 4 -11 119.304 7.88071 9
-2 -4 -11 50.7984 4.36154 13
2 -4 11 52.63 3.21065 6
2 4 11 54.3877 3.73513 3
-2 4 -11 46.6179 3.59731 9
2 4 11 52.3889 3.36262 6
-3 -4 -11 49.6395 3.7404 13
3 -4 11 60.7166 3.16205 6
3 4 11 56.2339 3.06935 6
3 4 11 56.5797 3.22324 3
-4 -4 -11 34.0375 2.24314 13
4 -4 11 33.6723 1.78055 6
4 4 11 32.0092 1.74463 6
3 -5 -11 21.3749 1.88956 3
-3 -5 11 21.9767 1.8045 12
3 5 -11 24.1119 1.64489 3
-2 -5 11 19.4696 2.73108 12
2 -5 -11 18.7801 1.86955 3
2 5 -11 18.1019 1.85524 3
-1 5 11 54.8063 3.4335 3
1 5 -11 51.1872 3.32751 3
0 5 11 40.0842 2.70199 3
1 5 11 3.73374 0.89903 3
-2 -5 -11 12.8559 1.89119 13
2 5 11 10.6397 0.9373 6
2 5 11 10.0326 1.16222 3
6 0 -12 0.20077 0.78349 6
-5 0 12 12.1532 2.88991 11
5 0 -12 7.78691 1.94399 3
-5 0 12 8.94989 1.78558 9
5 0 -12 11.2867 2.25 10
-4 0 12 126.06 6.47648 11
-4 0 12 128.425 7.01348 9
4 0 -12 120.984 7.35789 3
-3 0 12 104.243 5.94558 9
3 0 -12 86.9599 6.29834 3
2 0 -12 15.2735 6.61874 7
2 0 -12 16.9721 3.47281 10
-2 0 12 16.678 2.25573 9
2 0 -12 9.15476 2.46237 3
1 0 -12 327.826 19.939 7
-1 0 12 329.495 11.1912 6
1 0 -12 331.914 12.4414 6
1 0 -12 343.004 13.8537 10
1 0 -12 335.928 13.7336 3
0 0 12 2481.31 66.4286 6
0 0 -12 2321.38 66.1602 6
0 0 -12 2455.48 68.5663 12
0 0 -12 2438.96 68.7954 10
0 0 -12 2398.35 68.7575 3
-1 0 -12 16.9962 2.9369 3
-1 0 -12 29.9416 5.65375 8
-1 0 -12 24.7728 3.14427 10
-1 0 -12 28.8861 3.45236 12
1 0 12 25.7372 2.69371 6
-2 0 -12 23.3942 3.25939 12
-2 0 -12 14.6084 4.36143 8
-2 0 -12 23.1956 2.80188 13
2 0 12 23.043 2.50709 6
-3 0 -12 100.909 10.4794 8
3 0 12 93.4944 5.28099 6
-3 0 -12 95.2398 6.50954 5
-3 0 -12 89.2741 6.47177 12
-3 0 -12 90.1423 5.94956 13
-4 0 -12 345.027 20.7094 8
-4 0 -12 355.957 13.6689 9
-4 0 -12 354.317 14.1359 12
4 0 12 344.806 12.3321 6
-4 0 -12 345.909 13.3902 13
-4 0 -12 348.874 13.8171 5
-5 0 -12 1.75112 0.87697 9
-5 0 -12 3.73117 1.98009 8
-5 0 -12 1.48036 0.84709 12
-5 0 -12 1.76744 0.80825 5
6 -1 -12 5.83604 1.0486 6
-6 1 12 4.78515 1.28043 9
6 1 -12 6.27394 1.24542 6
-5 -1 12 25.6238 2.27474 11
5 -1 -12 27.7437 3.02862 3
5 1 -12 24.1381 3.16133 3
5 1 -12 28.3469 2.9521 10
-5 1 12 26.8045 3.09596 9
-5 1 12 29.1133 2.48617 11
4 -1 -12 78.2026 5.54379 3
-4 -1 12 73.6828 4.38893 11
-4 -1 12 80.1533 4.92174 9
-4 1 12 75.9071 4.52415 11
-4 1 12 78.7309 5.89542 9
4 1 -12 85.1077 5.43381 6
4 1 -12 74.6528 5.84745 3
4 1 -12 86.8965 5.98209 10
3 -1 -12 141.492 8.07303 3
-3 -1 12 142.792 7.02782 9
3 1 -12 139.542 7.51413 6
-3 1 12 135.126 6.99493 9
3 1 -12 134.018 8.26172 3
3 1 -12 140.455 8.26818 10
2 -1 -12 13.4426 7.23068 7
2 -1 -12 22.6402 3.11798 3
2 1 -12 23.5847 4.2674 10
2 1 -12 22.7691 7.05014 7
-2 1 12 23.1227 2.42645 9
2 1 -12 19.853 3.42099 6
2 1 -12 23.9919 3.49617 3
-1 -1 12 42.5914 3.32043 6
1 -1 -12 55.6247 4.60876 3
1 -1 -12 53.8479 10.3182 7
1 -1 -12 51.9294 4.61271 10
1 1 -12 57.1341 8.82453 7
-1 1 12 49.6175 2.96966 2
1 1 -12 49.0082 4.62587 3
-1 1 12 51.4163 4.11836 3
-1 1 12 48.0174 3.29592 6
1 1 -12 55.4202 5.22124 10
1 1 -12 43.4463 4.92171 6
0 -1 -12 107.021 6.62888 10
0 -1 -12 96.2687 15.6735 7
0 -1 -12 97.0305 6.19804 3
0 -1 12 113.149 5.55286 6
0 -1 -12 91.2958 5.90217 12
0 1 -12 115.691 7.30053 10
0 1 12 113.898 6.21876 3
0 1 12 110.156 5.31885 6
0 1 -12 101.538 6.85091 3
0 1 -12 103.912 6.01285 6
-1 -1 -12 32.5882 3.87983 3
1 -1 12 37.8427 4.75648 6
-1 -1 -12 40.6743 3.74489 13
-1 -1 -12 35.5113 3.8172 12
-1 1 -12 39.7481 4.12248 10
-1 1 -12 34.8597 5.84993 8
-1 1 -12 35.3918 5.10052 12
-1 1 -12 39.8585 3.87502 3
2 -1 12 346.689 12.4854 6
-2 -1 -12 283.464 17.5153 8
-2 -1 -12 326.012 13.2742 13
-2 -1 -12 330.842 13.9059 12
-2 1 -12 338.99 13.5625 5
2 1 12 333.135 12.9621 3
2 1 12 322.102 11.8347 6
-2 1 -12 335.484 14.1178 12
-2 1 -12 304.675 12.1766 13
2 1 12 332.979 10.9465 2
-2 1 -12 335.313 19.5088 8
-3 -1 -12 71.2203 5.47761 5
-3 -1 -12 63.2374 5.13917 13
-3 -1 -12 71.5543 5.53895 12
3 -1 12 70.0223 4.50524 6
-3 -1 -12 64.5651 7.99996 8
-3 1 -12 61.1847 4.97879 5
-3 1 -12 65.8267 8.48759 8
-3 1 -12 61.1165 4.6595 13
-3 1 -12 69.235 5.4456 12
3 1 12 65.443 4.1624 6
-4 -1 -12 50.2234 4.41716 12
-4 -1 -12 46.4078 3.92852 13
-4 -1 -12 49.3342 4.18747 5
4 -1 12 47.9674 3.45692 6
-4 -1 -12 42.668 6.33435 8
-4 1 -12 44.4608 6.61764 8
-4 1 -12 46.0973 4.11527 9
-4 1 -12 50.4146 4.09425 5
4 1 12 46.1539 3.20595 6
-4 1 -12 51.6143 4.27848 12
-5 -1 -12 7.62241 1.46758 5
-5 -1 -12 8.75385 1.51961 12
-5 -1 -12 4.25151 1.89233 8
-5 -1 -12 7.97404 1.49202 13
-5 1 -12 5.96087 1.14914 5
-5 1 -12 5.06738 1.17792 12
-5 1 -12 6.83632 2.53291 8
-5 1 -12 9.59558 1.3925 9
5 -2 -12 12.5546 1.92674 3
-5 -2 12 9.90539 1.68162 11
-5 -2 12 7.41012 1.45428 12
-5 2 12 7.25515 1.24002 11
5 2 -12 7.92594 1.64147 3
5 2 -12 7.14324 2.4254 6
-5 2 12 7.12807 1.23964 9
-4 -2 12 47.9272 3.37563 11
4 -2 -12 53.6339 4.39313 3
4 2 -12 52.2789 4.44752 3
4 2 -12 53.1599 5.79563 6
4 2 -12 49.2089 4.18988 10
-4 2 12 45.1323 3.51498 9
3 -2 -12 312.087 13.7952 3
-3 -2 12 314.037 11.2488 11
3 2 -12 331.328 16.6912 3
3 2 -12 342.372 14.532 6
3 2 -12 333.477 14.2012 10
2 -2 -12 286.676 12.3066 3
-2 2 12 264.999 10.287 9
-2 2 12 268.105 9.19935 2
-2 2 12 273.745 10.7893 3
2 2 -12 283.657 13.1385 3
2 2 -12 285.334 13.1114 10
2 2 -12 285.185 13.5643 6
1 -2 -12 180.68 17.5927 7
1 -2 -12 173.245 8.39394 10
1 -2 -12 165.24 8.59742 3
-1 2 12 157.008 6.35667 6
-1 2 12 163.606 8.02269 3
1 2 -12 163.933 9.58717 6
1 2 -12 173.161 9.52224 3
0 -2 12 311.169 11.2619 6
0 -2 -12 307.954 12.5718 3
0 -2 -12 296.49 21.6225 7
0 2 12 316.213 12.4484 3
0 2 -12 315.71 13.5222 3
0 2 -12 322.456 14.205 10
0 2 12 306.367 11.1057 6
-1 -2 -12 108.119 6.53134 12
1 -2 12 110.828 5.84485 6
-1 2 -12 113.667 7.53601 10
-1 2 -12 111.583 6.68567 3
1 2 12 108.924 6.35667 3
1 2 12 109.938 5.6283 6
-1 2 -12 116.957 10.875 8
-2 -2 -12 205.607 9.96973 13
-2 -2 -12 166.202 13.1242 8
-2 -2 -12 199.168 9.56042 12
2 -2 12 200.355 8.63015 6
-2 2 -12 178.614 8.46329 5
2 2 12 206.796 8.39623 6
-2 2 -12 198.871 10.316 10
2 2 12 187.529 8.75616 3
-3 -2 -12 154.433 8.05727 13
3 -2 12 134.87 6.69942 6
-3 -2 -12 140.026 7.83709 12
-3 -2 -12 141.625 11.6742 8
-3 2 -12 134.468 7.60417 12
-3 2 -12 139.812 6.86931 5
3 2 12 130.975 5.40725 2
3 2 12 128.997 6.73018 3
-3 2 -12 142.71 12.5414 8
3 2 12 139.615 6.37882 6
-4 -2 -12 96.1615 5.51169 5
4 -2 12 98.6199 5.40069 6
-4 -2 -12 104.187 11.1243 8
-4 -2 -12 95.4615 5.75203 12
-4 -2 -12 100.061 5.75247 13
-4 2 -12 84.6565 8.7959 8
4 2 12 93.043 4.52185 6
-4 2 -12 95.1126 5.06483 5
-4 2 -12 97.7593 5.91198 9
-5 -2 -12 30.0969 2.82324 12
5 -2 12 34.5529 2.03112 6
-5 -2 -12 25.1223 3.2736 8
-5 -2 -12 32.6801 1.97769 5
5 2 12 25.4505 2.01709 6
-5 2 -12 33.8792 4.64229 8
-5 2 -12 30.494 1.82342 5
-5 -3 12 0.99396 1.10075 12
5 -3 -12 0.14095 0.64116 3
5 3 -12 2.42909 0.80688 6
-4 -3 12 21.9313 2.97218 11
4 -3 -12 29.7569 3.02514 3
-4 -3 12 27.2373 3.13131 12
4 3 -12 29.0023 2.96979 3
4 3 -12 26.461 4.72996 6
3 -3 -12 301.873 12.1301 3
3 3 -12 273.867 11.771 10
3 3 -12 264.472 12.1562 3
3 3 -12 295.264 12.4987 6
2 -3 -12 25.1181 3.1408 3
-2 3 12 27.8573 1.90417 2
2 3 -12 26.7612 3.44748 10
2 3 -12 31.1677 5.0837 6
2 3 -12 28.7376 3.73646 3
-2 3 12 31.4771 2.73657 3
1 -3 -12 7.00011 1.92619 3
-1 3 12 6.45998 1.45079 3
1 3 -12 4.86437 2.06945 10
1 3 -12 7.61727 1.85295 6
1 3 -12 6.12746 1.9353 3
0 -3 12 70.6719 3.82066 6
0 -3 -12 65.8708 4.85524 3
0 3 -12 66.7955 5.60255 3
0 3 -12 85.886 6.4501 10
0 3 12 74.567 4.14032 6
0 3 12 70.857 4.89556 3
-1 3 -12 55.0279 4.21309 3
1 3 12 52.5021 4.44848 6
1 3 12 50.4664 5.65139 3
-1 3 -12 53.9148 5.14557 10
-2 -3 -12 68.1958 5.13373 13
-2 -3 -12 64.203 4.5428 12
2 -3 12 62.556 4.15042 6
2 3 12 66.1591 4.08322 6
-2 3 -12 63.3795 8.09626 8
2 3 12 61.9764 4.38518 3
-2 3 -12 68.9495 5.36665 10
-3 -3 -12 31.6613 4.79792 8
-3 -3 -12 39.108 3.47035 5
3 -3 12 39.583 3.0757 6
-3 -3 -12 39.8469 3.59004 13
-3 -3 -12 50.097 4.71792 12
3 3 12 36.7388 4.32943 3
3 3 12 42.1232 2.93093 6
-3 3 -12 42.6107 6.22708 8
-3 3 -12 41.1694 3.60506 9
-4 -3 -12 4.86107 1.27529 13
-4 -3 -12 2.93023 1.37204 8
4 -3 12 4.51396 0.98161 6
-4 -3 -12 3.89217 1.43474 12
-4 -3 -12 4.19535 1.07551 5
-4 3 -12 2.23475 1.76643 8
-4 3 -12 3.76484 1.13598 9
4 3 12 4.01407 0.84594 6
4 -4 -12 21.2736 1.83913 3
-4 -4 12 21.5891 2.08087 12
4 4 -12 19.3829 1.61698 3
4 4 -12 19.9246 1.49729 6
3 -4 -12 119.51 5.79268 3
3 4 -12 113.343 5.07618 6
3 4 -12 113.157 6.05965 3
2 -4 -12 35.4902 3.22405 3
2 4 -12 30.0634 3.19056 10
2 4 -12 33.9822 3.59586 3
1 -4 -12 33.2903 3.10005 3
1 4 -12 33.4225 3.56368 10
-1 4 12 35.0105 2.83131 3
1 4 -12 34.0005 3.64233 3
0 4 -12 50.1235 4.47974 10
0 4 -12 44.4451 3.85757 3
0 4 12 48.4515 2.69419 6
0 4 12 48.1582 3.59577 3
-1 4 -12 19.5023 2.52086 9
-1 4 -12 18.0175 2.65925 10
1 4 12 26.1409 2.67125 3
1 4 12 23.8237 2.00931 6
2 -4 12 20.5541 1.7297 6
-2 -4 -12 20.7585 2.70246 13
2 4 12 20.4769 2.17858 3
-2 4 -12 21.7919 2.3537 9
3 -4 12 15.3909 1.36183 6
-3 -4 -12 17.3113 1.98212 13
3 4 12 17.7512 1.19462 2
-3 4 -12 14.6825 1.93079 9
3 4 12 18.0952 1.49912 6
3 4 12 15.7362 1.56912 3
-2 -5 12 7.86106 1.15869 12
2 5 -12 9.09065 1.17291 3
1 5 -12 21.2267 2.08928 3
0 5 12 23.4664 1.81598 3
-1 -5 -12 10.4779 1.51878 13
2 5 12 55.5687 2.2541 2
6 0 -13 7.98881 1.79335 6
-5 0 13 2.2042 1.05164 9
5 0 -13 1.63348 1.04705 3
5 0 -13 0.74714 1.01618 6
5 0 -13 1.33729 1.06266 10
4 0 -13 385.361 15.4044 10
-4 0 13 371.737 13.4498 9
4 0 -13 377.527 15.0835 3
-3 0 13 0.67251 1.06605 9
3 0 -13 0.71924 1.26004 3
3 0 -13 0.63885 1.3705 10
2 0 -13 138.332 16.8314 7
2 0 -13 143.542 8.68084 10
2 0 -13 149.569 8.46792 3
1 0 -13 184.612 17.1837 7
-1 0 13 243.769 8.74688 6
1 0 -13 223.212 11.0614 10
1 0 -13 222.404 10.8081 3
1 0 -13 224.156 9.69548 6
0 0 -13 52.1869 6.77837 12
0 0 13 53.5518 3.67809 6
0 0 -13 43.0085 4.69495 10
0 0 -13 48.8472 5.17363 3
-1 0 -13 1262.97 39.3531 10
-1 0 -13 1343.47 40.3623 12
2 0 13 47.8018 3.63595 6
-2 0 -13 46.7591 6.79503 8
-2 0 -13 48.9598 4.84392 12
-2 0 -13 53.3586 4.26994 13
-3 0 -13 134.075 7.86228 12
-3 0 -13 134.738 7.18176 13
-3 0 -13 131.768 7.76681 5
-3 0 -13 135.798 11.9499 8
3 0 13 136.845 6.62514 6
-4 0 -13 33.4289 3.06811 13
-4 0 -13 37.7905 3.52767 5
-4 0 -13 36.1889 3.40778 9
-4 0 -13 35.2545 5.45347 8
-4 0 -13 41.9809 3.77775 12
4 0 13 40.6738 3.10804 6
5 0 13 138.196 5.09966 6
-5 0 -13 132.126 5.82681 12
5 -1 -13 2.65456 1.90076 10
5 -1 -13 3.2343 1.07653 3
5 1 -13 1.06792 1.51636 6
5 1 -13 -0.1219 0.9802 10
-5 1 13 1.43621 0.78482 9
5 1 -13 -0.3349 1.12375 3
4 -1 -13 160.372 8.17607 3
4 1 -13 147.237 8.27591 3
4 1 -13 154.807 8.44259 10
-4 1 13 153.956 6.95706 9
4 1 -13 154.978 7.79966 6
3 -1 -13 102.505 6.68487 3
-3 1 13 107.163 5.78676 9
3 1 -13 104.295 7.10844 3
3 1 -13 107.104 7.3223 10
3 1 -13 112.494 6.80973 6
2 -1 -13 241.318 11.3331 3
2 -1 -13 242.751 11.336 10
2 1 -13 247.559 12.0682 10
2 1 -13 244.798 11.8638 3
2 1 -13 236.817 10.724 6
1 -1 -13 1426.64 42.7238 3
1 -1 -13 1227.33 56.7686 7
1 -1 -13 1445.41 42.6089 10
1 1 -13 1419.27 44.796 10
1 1 -13 1393.5 41.9483 6
-1 1 13 1442.51 39.2936 2
1 1 -13 1476.79 43.9056 3
-1 1 13 1400.43 41.5815 3
-1 1 13 1427.27 39.2942 6
0 -1 -13 83.5566 6.55296 12
0 -1 -13 78.0376 5.60897 10
0 -1 13 77.8932 4.53167 6
0 -1 -13 80.3642 5.57975 3
0 1 -13 89.9592 6.21415 3
0 1 13 86.1056 4.72092 6
0 1 -13 82.8076 6.23451 10
0 1 13 79.5981 5.33587 3
0 1 13 86.773 4.24505 2
1 -1 13 260.479 10.2235 6
-1 -1 -13 264.45 11.5529 12
-1 -1 -13 246.85 10.5479 13
1 1 13 257.748 9.10089 2
-1 1 -13 274.694 12.1383 12
-1 1 -13 225.19 15.5892 10
-1 1 -13 238.189 10.6256 3
1 1 13 257.061 11.022 3
1 1 13 255.309 9.89736 6
-1 1 -13 248.961 15.7435 8
-2 -1 -13 252.537 16.2241 8
-2 -1 -13 253.552 11.0732 13
-2 -1 -13 265.635 11.7751 12
2 -1 13 266.608 10.558 6
2 1 13 257.458 9.21944 2
-2 1 -13 247.258 11.4657 10
-2 1 -13 257.569 16.9941 8
-2 1 -13 268.657 12.0813 12
2 1 13 253.667 10.9726 3
-2 1 -13 256.56 11.3557 5
2 1 13 258.295 10.1287 6
3 -1 13 81.6862 4.92739 6
-3 -1 -13 84.0451 5.50496 13
-3 -1 -13 92.5723 6.22178 12
-3 -1 -13 87.0468 5.42334 9
-3 -1 -13 80.6716 8.82401 8
-3 -1 -13 83.6914 6.02541 5
-3 1 -13 75.6628 8.58776 8
3 1 13 84.2559 4.79925 6
-3 1 -13 84.1672 5.59852 5
-3 1 -13 84.9221 5.90271 12
-4 -1 -13 14.9331 2.42946 13
-4 -1 -13 11.7765 4.70969 8
-4 -1 -13 14.6676 2.29903 12
-4 -1 -13 18.1626 2.4858 5
4 1 13 17.0654 1.93731 6
-4 1 -13 17.0211 2.40324 12
-4 1 -13 14.8681 2.05579 5
-4 1 -13 16.1509 2.45159 9
-4 1 -13 15.1939 3.81115 8
-5 -1 -13 50.5144 3.71673 12
-5 -1 -13 32.6242 3.70517 8
5 -1 13 43.8978 2.31872 6
-5 1 -13 35.3354 4.67978 8
-5 1 -13 41.8317 2.444 5
-5 1 -13 40.9472 2.39674 9
5 -2 -13 39.5174 3.06026 10
5 -2 -13 41.3007 2.86472 3
5 2 -13 39.4652 3.71755 6
5 2 -13 35.703 3.18908 3
4 -2 -13 37.4103 3.529 3
-4 2 13 33.2688 2.61851 9
4 2 -13 37.3417 3.73119 3
4 2 -13 31.1887 3.36529 10
4 2 -13 42.5524 5.86929 6
3 -2 -13 214.9 10.2184 3
3 2 -13 212.674 11.5793 6
3 2 -13 211.502 10.6751 3
3 2 -13 222.312 10.8587 10
-3 2 13 209.148 8.49092 9
2 -2 -13 177.542 9.23429 3
2 2 -13 173.314 10.8561 6
2 2 -13 182.704 10.1063 10
2 2 -13 179.719 10.012 3
1 -2 -13 121.412 7.33994 3
-1 2 13 117.878 5.14381 2
1 2 -13 117.478 7.89084 10
1 2 -13 117.858 7.84978 6
-1 2 13 120.568 6.58269 3
1 2 -13 115.148 7.89707 3
0 -2 13 375.312 13.1138 6
0 -2 -13 386.446 14.7141 3
0 2 13 389.747 13.2359 6
0 2 -13 398.216 16.4607 10
0 2 -13 389.634 15.8615 3
0 2 13 402.488 14.9172 3
-1 -2 -13 57.9733 4.62342 12
-1 -2 -13 53.6356 4.48549 13
1 -2 13 57.2681 4.06512 6
1 2 13 56.4626 4.44018 3
-1 2 -13 49.8701 4.59715 3
-1 2 -13 60.2959 7.43937 8
-1 2 -13 54.2822 5.17834 10
1 2 13 56.291 3.8512 6
-2 -2 -13 312.72 12.8485 13
-2 -2 -13 302.028 12.4954 12
2 -2 13 320.763 13.8461 6
2 2 13 306.47 12.1899 3
2 2 13 346.734 12.8973 6
-2 2 -13 284.369 18.0651 8
-2 2 -13 298.585 13.3556 10
-2 2 -13 293.215 11.4021 5
-3 -2 -13 25.4251 4.39952 8
-3 -2 -13 34.187 3.55707 5
-3 -2 -13 33.4046 3.49198 13
-3 -2 -13 27.4696 3.13311 12
3 -2 13 32.1264 2.92165 6
-3 2 -13 28.3891 5.31327 8
3 2 13 29.2481 2.06628 2
3 2 13 34.2363 3.02816 3
3 2 13 32.9377 2.74105 6
-3 2 -13 28.3766 2.78632 5
-4 -2 -13 106.088 5.38619 5
-4 -2 -13 109.384 5.42499 13
4 -2 13 102.375 4.8184 6
-4 -2 -13 88.3819 7.41077 8
-4 -2 -13 105.874 5.51378 12
-4 2 -13 92.0406 4.40409 5
-4 2 -13 113.086 5.80062 9
4 2 13 103.655 4.56857 6
5 -2 13 23.6491 1.43056 6
-5 -2 -13 16.2414 1.55177 12
-5 -2 -13 20.6256 1.73478 13
-5 2 -13 24.8119 1.94156 9
5 3 -13 0.8863 0.50844 6
-4 -3 13 84.1579 5.17497 12
4 -3 -13 87.3102 4.71289 10
4 -3 -13 89.2443 4.85451 3
4 3 -13 89.3122 4.80351 6
4 3 -13 86.8847 4.95606 3
3 -3 -13 108.508 5.96538 10
3 -3 -13 110.685 6.27981 3
3 3 -13 111.799 6.54854 6
3 3 -13 104.678 6.15522 10
2 -3 -13 27.3919 3.18515 3
2 3 -13 23.5767 3.54377 6
2 3 -13 22.2199 3.29632 3
2 3 -13 36.2148 7.0216 10
1 -3 -13 146.877 7.74781 3
-1 3 13 139.052 7.05545 3
1 3 -13 145.316 8.32612 3
1 3 -13 155.08 8.78183 10
1 3 -13 143.826 6.2074 6
0 -3 -13 299.009 11.5117 3
0 3 -13 317.475 14.0186 10
0 3 13 302.242 10.416 6
0 3 -13 299.055 12.8432 3
0 3 13 308.629 12.0042 3
-1 -3 -13 10.4405 2.3515 13
1 -3 13 9.00782 1.56905 6
1 3 13 12.4089 2.05088 3
-1 3 -13 6.11592 2.00509 10
1 3 13 12.3367 1.70192 6
2 -3 13 18.0154 2.04749 6
-2 -3 -13 12.3599 2.10254 12
-2 -3 -13 17.3774 2.42462 13
-2 3 -13 15.201 3.15394 10
2 3 13 17.9902 2.30802 3
2 3 13 18.2372 1.94997 6
3 -3 13 48.0685 4.26637 6
-3 -3 -13 39.5948 3.35753 13
-3 -3 -13 38.8803 2.98454 12
-3 -3 -13 37.9986 3.1083 5
3 3 13 35.7833 2.05185 2
3 3 13 34.5126 2.72 3
-3 3 -13 37.761 3.3562 9
3 3 13 38.5634 2.64121 6
-4 -3 -13 53.7865 3.13936 13
4 3 13 54.2552 2.61432 6
-4 3 -13 55.5718 2.99746 9
3 -4 -13 39.3959 2.81048 3
3 4 -13 35.3505 2.78946 3
3 4 -13 32.1858 2.6657 6
2 -4 -13 33.0464 2.77534 3
2 4 -13 27.0859 2.65316 10
2 4 -13 32.0649 3.15122 3
1 -4 -13 56.8686 3.60557 3
-1 4 13 51.2268 2.7388 2
-1 4 13 53.4335 3.70745 3
1 4 -13 54.033 4.22149 10
0 4 13 206.613 8.33556 3
0 4 -13 198.202 8.18397 3
0 4 -13 208.574 9.58274 10
-1 -4 -13 89.236 5.07324 13
-1 4 -13 83.9533 4.72581 9
1 4 13 92.9617 3.90341 6
-2 -4 -13 34.626 2.38187 5
2 -4 13 30.5308 1.83447 6
-2 -4 -13 36.5673 2.87137 13
-2 4 -13 34.6362 2.82226 9
2 4 13 37.9824 2.23028 6
2 4 13 36.0173 2.60693 3
-3 -4 -13 57.579 3.01604 13
3 4 13 54.1711 2.44393 6
0 5 13 2.97002 0.8208 3
0 5 13 3.2384 0.65442 2
1 5 13 54.8401 2.36365 2
1 5 13 54.6933 3.04262 3
5 0 -14 23.1934 2.58196 10
5 0 -14 26.7805 2.63286 6
5 0 -14 24.6775 3.08313 3
4 0 -14 -0.7738 1.01676 6
4 0 -14 1.77945 1.7482 10
4 0 -14 -1.0304 1.00158 3
3 0 -14 58.568 5.04308 3
3 0 -14 52.6676 5.25292 10
2 0 -14 922.365 28.5558 6
2 0 -14 893.485 30.2757 10
2 0 -14 909.618 30.3784 3
1 0 -14 424.792 15.7313 6
1 0 -14 454.729 17.8992 10
1 0 -14 451.549 17.6693 3
0 0 -14 102.168 6.8018 3
0 0 14 114.54 5.68492 6
0 0 -14 116.879 7.28221 10
-1 0 -14 175.11 9.1674 12
-1 0 -14 164.179 8.65236 10
1 0 14 181.033 7.99842 6
-2 0 -14 3.58748 1.64456 12
2 0 14 3.54952 1.18624 6
-2 0 -14 3.23525 2.3736 8
-2 0 -14 4.97601 1.56155 13
3 0 14 10.7025 1.74521 6
-3 0 -14 6.84256 2.68948 8
-3 0 -14 9.34821 2.00897 5
-3 0 -14 4.99308 1.55063 12
-3 0 -14 5.76605 1.57621 13
-4 0 -14 15.5576 2.15333 5
-4 0 -14 13.6702 3.11371 8
4 0 14 13.4134 1.74582 6
-4 0 -14 9.98363 1.74171 9
-4 0 -14 16.2671 2.3994 12
-5 0 -14 29.5628 1.86884 5
-5 0 -14 27.425 1.88217 12
5 -1 -14 21.0632 2.39438 10
5 -1 -14 21.7941 2.22691 3
5 -1 -14 21.2963 2.19721 6
5 1 -14 17.1461 2.35463 10
5 1 -14 16.8084 2.88288 6
5 1 -14 19.647 2.08237 3
4 -1 -14 27.0282 3.18536 3
4 -1 -14 23.7543 3.26705 10
4 1 -14 21.1637 3.19506 10
-4 1 14 20.1998 2.21377 9
4 1 -14 21.9203 3.50163 6
4 1 -14 25.425 3.23872 3
3 -1 -14 65.5385 5.64099 10
3 -1 -14 64.4176 5.1506 3
3 1 -14 66.3992 5.46633 3
3 1 -14 66.0213 5.66379 6
3 1 -14 63.2066 5.68758 10
2 -1 -14 9.93088 2.96346 10
2 1 -14 13.3195 4.03237 6
2 1 -14 12.2033 3.52374 10
2 1 -14 7.0024 2.44792 3
1 -1 -14 128.853 7.59242 3
1 -1 -14 119.809 6.21182 6
1 -1 -14 126.896 7.84526 10
1 1 -14 115.58 8.10662 6
1 1 -14 132.283 8.26208 3
1 1 -14 123.563 8.18152 10
0 -1 -14 103.141 6.67741 3
0 -1 14 106.301 5.38799 6
0 1 -14 108.604 7.40181 10
0 1 14 116.7 6.65735 3
0 1 14 111.192 5.09751 2
0 1 14 111.695 5.53443 6
0 1 -14 112.874 7.16248 3
1 -1 14 260.541 10.1322 6
-1 -1 -14 257.21 11.2085 12
1 1 14 250.874 10.973 3
1 1 14 255.633 9.94394 6
1 1 14 251.949 9.10301 2
-1 1 -14 226.896 15.452 8
-1 1 -14 259.398 11.9222 10
-1 1 -14 240.21 10.6997 5
2 -1 14 94.539 7.40305 6
-2 -1 -14 96.9023 6.5675 12
-2 -1 -14 104.623 6.00503 13
-2 1 -14 100.544 9.67676 8
2 1 14 102.425 5.95563 6
-2 1 -14 96.9061 6.34375 10
-2 1 -14 104.64 6.07966 5
-2 1 -14 104.751 8.40807 12
-3 -1 -14 7.41125 3.09481 8
-3 -1 -14 6.64765 2.56155 9
-3 -1 -14 5.53276 1.32352 13
-3 -1 -14 8.46141 2.1038 12
-3 -1 -14 6.84793 1.73525 5
3 -1 14 11.1529 1.86116 6
-3 1 -14 3.68399 2.20927 8
-3 1 -14 8.22931 1.83237 5
-3 1 -14 8.76809 2.08789 12
3 1 14 7.4225 1.47778 6
-4 -1 -14 39.4781 2.92754 13
-4 -1 -14 41.2564 3.4137 12
4 -1 14 37.8999 2.67253 6
-4 -1 -14 42.3045 3.28164 5
-4 1 -14 41.2356 2.99408 5
4 1 14 41.1566 2.72976 6
-4 1 -14 38.6472 3.2167 9
-4 1 -14 34.6958 4.83327 8
-5 -1 -14 113.429 4.58019 5
-5 -1 -14 125.083 5.08896 12
5 -2 -14 46.6821 2.49217 6
5 2 -14 48.3633 3.09437 6
4 -2 -14 38.4565 4.28761 10
-4 -2 14 38.0474 3.2695 12
4 -2 -14 42.3832 3.55214 3
4 2 -14 43.7712 5.15075 6
4 2 -14 50.3193 4.5393 10
4 2 -14 46.7521 3.82773 3
3 -2 -14 77.7138 5.53629 10
3 -2 -14 79.6429 5.47556 3
3 2 -14 77.4065 7.6561 6
3 2 -14 78.6369 5.80403 3
3 2 -14 69.3864 5.46398 10
2 -2 -14 426.433 16.4397 3
2 -2 -14 438.213 16.4751 10
2 2 -14 451.858 17.6871 3
2 2 -14 418.575 17.2109 10
2 2 -14 428.109 16.5826 6
1 -2 -14 152.909 10.6949 3
1 2 -14 122.976 7.86846 3
1 2 -14 133.331 8.36018 10
-1 2 14 110.961 6.20994 2
-1 2 14 111.997 8.75298 3
0 2 -14 259.281 12.2658 10
0 2 14 243.613 10.6852 3
0 2 -14 238.881 11.7204 3
0 2 14 252.846 9.43134 6
0 2 14 260.025 9.00813 2
-1 -2 -14 92.9461 5.58814 12
-1 -2 -14 87.0769 5.70752 13
1 -2 14 96.9672 5.32767 6
-1 2 -14 97.4354 6.8345 10
1 2 14 94.3765 5.98541 3
1 2 14 99.2456 4.62428 2
1 2 14 96.227 5.19463 6
2 -2 14 4.66812 1.28925 6
-2 -2 -14 5.37198 1.47938 12
-2 -2 -14 5.01344 1.42969 13
-2 2 -14 2.63518 1.87859 8
-2 2 -14 2.28638 2.49843 5
2 2 14 8.03298 1.55829 2
2 2 14 5.95196 1.43779 3
-2 2 -14 6.00405 2.01807 10
2 2 14 6.18493 1.44597 6
-3 -2 -14 240.882 12.9791 12
3 -2 14 253.142 9.50142 6
-3 -2 -14 266.189 10.7172 5
-3 -2 -14 251.626 11.5803 13
3 2 14 249.624 9.18638 6
-3 2 -14 251.539 9.03994 5
4 -2 14 9.69858 1.19915 6
-4 -2 -14 5.54166 1.21433 13
-4 -2 -14 7.53266 1.34514 5
-4 -2 -14 10.0603 1.58764 12
-4 2 -14 9.08373 1.67854 9
4 2 14 6.9146 1.13578 6
4 -3 -14 140.108 6.05571 3
-4 -3 14 131.05 5.96059 12
4 3 -14 128.769 5.78378 3
4 3 -14 131.797 6.34175 6
3 -3 -14 10.617 4.0902 10
3 -3 -14 12.7867 2.06029 3
3 3 -14 8.38581 1.79779 10
3 3 -14 8.7575 1.77393 3
3 3 -14 15.4811 2.29608 6
2 -3 -14 24.9049 2.92844 3
2 3 -14 26.4745 3.37427 10
2 3 -14 27.7694 2.62227 6
2 3 -14 26.4294 3.28322 3
1 -3 -14 8.3547 1.7909 3
1 3 -14 7.66053 1.86178 3
1 3 -14 8.61668 2.58468 10
-1 3 14 8.77189 1.21574 2
-1 3 14 4.86134 1.20738 3
0 -3 -14 4.77719 1.33741 13
0 3 14 2.66479 0.8796 6
0 3 14 3.03356 1.15704 3
0 3 -14 1.7748 1.2007 3
0 3 -14 1.34903 1.42223 10
-1 -3 -14 220.102 9.38516 13
1 -3 14 218.085 7.88496 6
1 3 14 232.297 9.57086 3
1 3 14 221.503 8.23795 6
-1 3 -14 227.246 10.7789 10
2 -3 14 57.7843 3.9088 6
-2 -3 -14 60.5068 4.00125 13
-2 3 -14 57.2808 4.48009 10
2 3 14 60.9598 4.201 2
2 3 14 55.9809 3.35788 6
2 3 14 60.4743 5.52797 3
-3 -3 -14 34.416 2.51651 5
3 -3 14 32.1082 2.16097 6
-3 -3 -14 30.7166 2.50311 13
-3 3 -14 30.0855 2.53719 9
3 3 14 29.9215 2.09828 6
4 -3 14 42.583 2.06994 6
4 3 14 46.8086 1.99341 6
3 -4 -14 54.5977 2.85348 3
-3 -4 14 55.2844 3.38253 12
3 4 -14 52.1274 2.99815 3
2 -4 -14 12.6173 1.84376 3
2 4 -14 12.6403 1.70646 3
1 -4 -14 8.60751 1.27812 3
-1 4 14 9.29704 1.29418 3
-1 4 14 7.47107 0.80088 2
1 4 -14 5.53556 1.21258 3
1 4 -14 7.90795 1.74822 10
0 -4 -14 100.438 6.56231 13
0 4 14 100.473 3.96514 2
0 4 14 99.8978 4.87233 3
0 4 -14 110.067 6.83017 10
0 4 -14 109.554 5.70306 3
-1 -4 -14 75.9831 5.12371 13
1 4 14 67.8129 3.73563 3
1 4 14 71.0759 3.01619 2
-1 4 -14 65.3721 4.41163 10
1 4 14 62.7256 3.00857 6
-2 -4 -14 67.0731 3.3547 13
2 4 14 69.1067 2.78696 6
2 4 14 70.5658 2.99136 2
2 4 14 70.1949 3.89183 3
5 0 -15 0.59188 0.92768 10
5 0 -15 0.56599 0.90812 3
4 0 -15 0.47288 1.38854 10
4 0 -15 0.99308 0.97777 3
4 0 -15 0.97041 2.01405 6
3 0 -15 204.294 10.1386 3
3 0 -15 190.901 9.06037 6
3 0 -15 196.89 10.7501 10
2 0 -15 263.731 11.1812 6
2 0 -15 267.812 12.6874 3
2 0 -15 271.43 12.7067 10
1 0 -15 74.2083 6.06155 10
1 0 -15 69.9228 5.66293 3
0 0 -15 616.003 21.7512 10
0 0 15 587.619 18.9098 6
0 0 -15 619.234 21.4816 3
-1 0 -15 -1.8116 1.73471 10
-2 0 -15 2.05748 1.29604 5
2 0 15 1.80041 0.96278 6
-2 0 -15 -0.0159 0.78189 12
-3 0 -15 0.99806 0.86734 12
-3 0 -15 0.65232 0.86654 9
3 0 15 0.40433 0.64409 6
-3 0 -15 1.12632 1.0571 5
-3 0 -15 1.5801 1.33595 8
-4 0 -15 44.2156 2.56455 9
-4 0 -15 33.2869 3.77115 8
-4 0 -15 41.9835 2.93018 5
-4 0 -15 43.9348 3.16241 12
4 0 15 47.6582 2.68352 6
5 -1 -15 42.4181 3.16803 3
5 -1 -15 54.3188 2.98096 6
5 1 -15 59.6239 3.59653 6
4 -1 -15 35.6887 3.09717 6
4 -1 -15 37.9702 3.42595 3
4 -1 -15 36.0816 3.68391 10
4 1 -15 31.8998 3.27904 3
4 1 -15 37.324 4.99604 6
4 1 -15 33.0858 3.35825 10
3 -1 -15 27.1464 3.93509 10
3 -1 -15 23.7974 3.21828 3
3 1 -15 26.344 3.3512 3
3 1 -15 20.2661 4.24653 6
3 1 -15 25.545 3.94891 10
2 -1 -15 158.55 8.91908 10
2 -1 -15 150.507 8.40233 3
2 -1 -15 161.004 7.63464 6
2 1 -15 150.67 8.99035 10
2 1 -15 153.979 9.55792 6
2 1 -15 162.025 9.20516 3
1 -1 -15 131.811 7.61422 10
1 1 -15 100.676 6.03028 6
1 1 -15 113.448 10.6496 3
1 1 -15 124.597 7.87899 10
-1 -1 -15 109.677 6.45055 12
1 -1 15 111.704 5.68486 6
-1 1 -15 117.818 7.11639 10
1 1 15 113.561 5.7092 6
-1 1 -15 96.1553 5.98409 5
-2 -1 -15 63.572 4.79508 12
2 -1 15 68.0839 4.20804 6
-2 -1 -15 61.4762 4.12826 13
-2 1 -15 61.4393 4.33042 5
-2 1 -15 53.4345 6.48449 8
2 1 15 72.7817 4.27725 6
-2 1 -15 62.7096 4.58389 10
-3 -1 -15 7.72916 1.48723 13
-3 -1 -15 2.58265 2.24808 8
-3 -1 -15 6.73401 1.90706 9
-3 -1 -15 5.54092 1.35531 12
3 -1 15 7.67549 1.57138 6
-3 -1 -15 6.93823 1.6039 5
-3 1 -15 8.24355 1.83952 9
-3 1 -15 5.27113 1.97082 8
-3 1 -15 7.52958 1.58049 5
3 1 15 10.2269 1.60646 6
-4 -1 -15 4.91414 1.14031 12
-4 -1 -15 4.00132 0.98645 5
4 -1 15 2.54411 0.71674 6
-4 1 -15 4.45667 1.23554 9
4 1 15 3.489 0.90709 6
-4 1 -15 4.16456 0.97653 5
-4 1 -15 2.61944 1.59929 8
4 -2 -15 11.9327 1.88298 3
4 -2 -15 8.75643 1.74955 10
-4 -2 15 7.95347 1.81097 12
4 -2 -15 13.0067 1.77968 6
4 2 -15 10.9936 1.78976 3
4 2 -15 12.2852 2.43802 6
4 2 -15 8.01354 1.7007 10
3 -2 -15 46.8935 4.15643 10
3 -2 -15 55.2944 4.36594 3
3 2 -15 44.051 4.09366 3
3 2 -15 52.8212 5.44612 6
3 2 -15 49.1931 4.30212 10
2 -2 -15 230.682 10.2088 3
2 -2 -15 213.99 9.68825 10
2 -2 -15 204.523 8.82424 6
2 2 -15 226.269 11.037 10
2 2 -15 232.365 9.47396 6
2 2 -15 205.371 10.2736 3
1 -2 -15 26.7815 3.13246 3
1 2 -15 28.3562 3.62324 3
1 2 -15 26.3136 3.47056 10
0 -2 -15 4.01459 1.56418 3
0 2 -15 11.4597 2.97528 10
0 2 15 3.55769 1.14737 3
0 2 -15 5.41279 1.59434 3
0 2 15 6.81839 1.47205 2
0 2 15 5.35445 1.12254 6
1 -2 15 72.5085 4.17085 6
-1 2 -15 82.9822 6.17725 10
1 2 15 82.4885 4.0277 2
1 2 15 82.0381 5.21347 3
1 2 15 75.2669 4.26022 6
-2 -2 -15 37.8671 3.16314 12
2 -2 15 38.9278 2.96347 6
-2 -2 -15 42.0927 3.43603 13
-2 2 -15 42.589 3.71751 10
2 2 15 45.3541 3.10257 6
-3 -2 -15 29.1766 2.39689 13
-3 -2 -15 32.44 2.79579 5
-3 -2 -15 35.9706 2.79667 12
3 -2 15 33.8567 2.44503 6
-3 2 -15 26.3573 3.90996 8
-3 2 -15 34.0145 3.06606 9
3 2 15 35.4526 2.41139 6
-4 -2 -15 4.46988 0.76071 5
4 -2 15 5.14215 0.80733 6
4 2 15 3.04645 0.64189 6
-4 2 -15 3.57275 0.79074 9
4 -3 -15 77.2949 3.57629 3
4 3 -15 75.2026 3.83849 3
3 -3 -15 16.7412 2.01259 3
3 3 -15 19.0388 2.2957 3
3 3 -15 16.0017 1.85852 10
2 -3 -15 58.2066 4.00262 3
2 3 -15 53.1346 4.25358 10
2 3 -15 59.7912 5.47133 3
1 -3 -15 91.1158 5.60387 3
1 3 -15 87.3359 5.53566 3
1 3 -15 79.778 5.568 10
0 3 -15 15.8384 3.1371 10
0 3 15 13.9302 1.39929 2
0 3 15 13.486 1.902 3
0 3 -15 10.0618 1.76915 3
-1 -3 -15 31.2522 2.71052 13
1 3 15 35.0933 2.95215 3
1 3 15 36.9322 3.42133 6
-1 3 -15 31.6861 3.36316 10
1 3 15 33.0163 2.143 2
-2 -3 -15 25.5172 3.13342 13
2 -3 15 24.8813 1.76441 6
2 3 15 24.2621 2.22549 3
2 3 15 24.0286 1.86857 6
-2 3 -15 24.3189 2.53663 9
2 3 15 23.8631 1.65528 2
-3 -3 -15 26.2566 2.62752 13
3 -3 15 30.9296 1.62364 6
-3 -3 -15 27.0134 1.91703 5
-3 3 -15 31.4914 2.12743 9
2 4 -15 43.4385 2.56675 3
1 4 -15 10.7507 1.32172 3
1 4 -15 16.5475 2.66026 10
0 4 15 33.3335 1.69357 2
0 4 15 32.3016 2.19488 3
4 0 -16 5.37574 1.17023 3
4 0 -16 4.35184 2.26905 6
4 0 -16 4.17617 1.77628 10
3 0 -16 50.7943 4.86127 10
3 0 -16 53.1626 5.36047 6
3 0 -16 55.6529 4.64673 3
2 0 -16 72.0311 5.89058 10
2 0 -16 70.9104 5.46165 3
2 0 -16 69.0381 5.96419 6
1 0 -16 1.30738 1.20451 3
1 0 -16 -0.3024 1.46023 10
0 0 -16 -1.0014 1.93242 10
0 0 -16 0.65106 1.23289 3
0 0 16 0.4065 0.77519 6
2 0 16 5.63419 1.29342 6
-2 0 -16 8.47049 1.90423 12
-2 0 -16 5.23697 1.36091 5
3 0 16 3.09925 0.94261 6
-3 0 -16 2.11181 0.84087 12
-3 0 -16 5.57527 1.45927 9
-3 0 -16 2.57895 0.88108 5
4 0 16 23.9522 1.60115 6
-4 0 -16 22.1153 1.65103 5
4 -1 -16 1.519 1.39504 6
4 -1 -16 1.84627 0.86636 3
4 -1 -16 3.30772 1.50555 10
4 1 -16 2.17418 2.04588 6
4 1 -16 0.94592 1.00989 10
4 1 -16 3.15976 0.99151 3
3 -1 -16 76.6526 5.47993 6
3 -1 -16 81.8455 5.4074 3
3 -1 -16 73.1903 5.35375 10
3 1 -16 76.2769 5.3251 3
3 1 -16 73.8857 5.51483 10
2 -1 -16 2.54289 1.13174 3
2 -1 -16 1.66679 1.90736 10
2 1 -16 4.44113 1.47998 3
2 1 -16 1.72063 2.48101 6
2 1 -16 2.83503 1.87402 10
1 -1 -16 13.6434 2.85428 10
1 -1 -16 8.89266 2.00063 3
1 1 -16 17.2207 4.10982 10
1 1 -16 7.14222 1.79294 3
0 -1 -16 61.7867 4.43591 3
0 -1 16 55.1033 3.02614 6
0 1 16 61.6159 3.35483 6
0 1 -16 58.5836 4.52288 3
0 1 -16 60.7398 7.16924 10
1 -1 16 3.89802 1.07866 6
-1 1 -16 1.84818 1.50196 5
-1 1 -16 3.89072 1.43431 10
1 1 16 3.38865 1.0553 6
2 -1 16 5.49969 1.33066 6
-2 -1 -16 6.70838 1.59712 12
-2 1 -16 8.25335 1.52834 5
2 1 16 5.82014 1.25616 6
-3 -1 -16 10.852 1.6412 12
3 -1 16 15.2492 1.71006 6
-3 -1 -16 13.6186 2.22306 5
-3 1 -16 13.7069 1.79969 5
-3 1 -16 12.7367 1.8423 9
3 1 16 12.896 1.53324 6
4 -1 16 37.7191 1.91688 6
-4 -1 -16 40.3883 2.23193 5
-4 1 -16 31.0986 2.02969 9
4 2 -16 5.08101 0.82765 6
4 2 -16 2.79202 0.79939 3
3 -2 -16 33.3253 3.67723 10
3 -2 -16 41.1779 3.45618 3
3 2 -16 49.7625 4.18151 10
3 2 -16 39.655 3.47594 3
3 2 -16 41.1183 2.91064 6
2 -2 -16 28.0411 3.54483 10
2 -2 -16 33.6213 3.2846 3
2 2 -16 27.3311 2.07989 6
2 2 -16 29.5437 3.27539 10
2 2 -16 29.4128 3.2859 3
1 -2 -16 35.1523 3.38742 3
1 2 -16 37.6005 3.92734 10
1 2 -16 32.3948 3.4774 3
0 2 -16 4.21448 1.37364 3
0 2 -16 6.89806 2.13249 10
1 2 16 81.9013 4.04408 6
-1 2 -16 76.7942 5.35677 10
2 -2 16 64.3675 3.39307 6
-2 2 -16 61.8918 4.16703 10
2 2 16 65.4589 3.44244 6
3 -2 16 11.7572 1.19754 6
-3 -2 -16 10.2696 1.48858 5
-3 2 -16 10.2533 1.55153 9
3 2 16 11.6931 1.26375 6
-3 -3 16 69.1562 3.74514 12
3 -3 -16 73.0803 3.68389 3
3 3 -16 77.2995 3.89161 3
2 -3 -16 50.5868 3.2513 3
2 3 -16 48.6344 3.46857 3
2 3 -16 48.712 3.63099 10
1 -3 -16 9.93952 1.92198 3
1 3 -16 10.6057 1.81308 3
0 3 -16 -0.6569 0.94706 10
-1 3 -16 21.3474 2.36821 10
1 3 16 20.0561 1.71326 6
-2 -3 -16 12.8936 2.45218 5
-2 3 -16 16.227 1.58812 9
2 3 16 15.7947 1.4307 6
4 0 -17 39.5586 2.89951 10
4 0 -17 45.7617 2.9949 3
3 0 -17 6.06041 2.32504 10
3 0 -17 3.28042 1.12299 3
3 0 -17 5.04282 1.9248 6
2 0 -17 1.43498 1.07186 3
2 0 -17 2.07688 1.35618 10
1 0 -17 0.34412 0.89141 3
1 0 -17 -0.0611 1.2819 10
0 0 -17 105.235 7.67381 3
0 0 -17 102.341 5.95135 10
1 0 17 150.322 6.30698 6
-1 0 -17 187.207 11.1206 5
-2 0 -17 60.9964 3.9043 5
2 0 17 68.4954 3.70652 6
3 0 17 49.5787 2.65422 6
-3 0 -17 48.4348 2.70931 9
-3 0 -17 54.2309 3.62377 5
4 -1 -17 0.24172 0.50293 3
4 1 -17 -0.0726 0.50412 3
3 -1 -17 36.0549 3.16427 3
3 -1 -17 33.4724 3.09323 10
3 1 -17 31.9798 3.20264 10
3 1 -17 39.4273 3.39014 3
2 -1 -17 97.752 8.60757 10
2 -1 -17 105.069 6.11125 3
2 1 -17 96.7153 6.2143 10
2 1 -17 98.8568 6.16373 3
1 -1 -17 88.7354 6.48665 10
1 -1 -17 114.074 6.22064 3
1 1 -17 106.7 6.49701 10
1 1 -17 120.918 6.48971 3
0 1 -17 53.4765 3.58808 3
0 1 -17 44.3805 4.1299 10
1 -1 17 2.9002 1.1343 6
-1 1 -17 4.85913 1.85047 10
1 1 17 4.05685 1.42648 6
-2 -1 -17 49.3124 3.25064 9
-2 -1 -17 55.4047 3.83898 5
2 -1 17 55.096 3.0616 6
-2 1 -17 51.5832 3.00971 5
2 1 17 55.756 3.09956 6
3 -1 17 4.91655 1.0356 6
-3 -1 -17 2.63969 1.23127 5
3 1 17 4.72551 1.16261 6
-3 1 -17 4.75575 1.08632 9
3 -2 -17 44.8468 3.03772 3
3 2 -17 43.43 3.05403 3
3 2 -17 39.4817 3.09547 10
2 -2 -17 44.7839 3.35689 3
2 2 -17 43.7494 3.45952 3
2 2 -17 46.2297 4.46575 10
1 -2 -17 50.2721 3.3834 3
1 2 -17 52.3244 3.78888 3
1 2 -17 52.723 4.27545 10
0 2 -17 2.87668 1.41702 10
1 2 17 54.9036 2.64771 6
-1 2 -17 56.8045 4.01885 10
-2 -2 -17 50.2862 3.31658 5
2 -2 17 49.8992 2.28819 6
2 2 17 53.2807 2.59545 6
-2 2 -17 51.4899 3.44096 9
2 3 -17 44.0966 2.64614 3
1 3 -17 3.1288 1.12578 3
1 3 -17 1.46753 0.94315 10
0 3 -17 -0.0712 0.72325 10
-1 3 -17 35.6194 2.28716 9
3 0 -18 4.51486 0.99921 3
3 0 -18 2.94487 1.1709 10
2 0 -18 4.62507 1.45579 10
2 0 -18 4.04698 1.0352 3
1 0 -18 135.744 6.75645 10
1 0 -18 141.836 6.58162 3
0 0 -18 46.8827 3.15945 5
1 0 18 30.0913 2.29864 6
-1 0 -18 30.6873 2.43722 5
-2 0 -18 0.58742 0.64179 5
-2 0 -18 0.96946 0.76761 9
3 1 -18 32.0496 3.04479 3
3 1 -18 39.2114 2.75471 10
2 -1 -18 88.4943 4.82503 3
2 1 -18 83.918 5.11172 10
2 1 -18 90.4728 4.94513 3
1 -1 -18 8.65636 1.41541 3
1 1 -18 10.2847 2.22566 10
0 1 -18 57.8616 4.01587 10
-1 -1 -18 28.6622 2.62795 5
-2 -1 -18 9.85506 2.06308 5
2 -1 18 9.80771 0.9139 6
2 1 18 9.92568 1.21913 6
3 2 -18 47.3148 2.99653 3
2 -2 -18 10.5235 1.43182 3
2 2 -18 12.8359 1.6672 3
2 2 -18 9.81089 1.56124 10
1 2 -18 73.1498 4.55964 10
1 2 -18 78.1448 3.58095 3
0 2 -18 4.05597 1.22724 10
-2 -2 -18 2.66915 0.70739 5
-2 2 -18 1.9119 0.75155 9
2 0 -19 10.2528 1.39694 3
2 1 -19 4.70474 0.84063 3
0 -1 -19 16.518 1.61389 5
-1 -1 -19 74.6301 3.43868 5
-1 2 -19 69.5113 3.16268 9
