#------------------------------------------------------------------------------
#$Date: 2021-12-10 11:16:28 +0200 (Fri, 10 Dec 2021) $
#$Revision: 271325 $
#$URL: file:///home/coder/svn-repositories/cod/cif/1/56/56/1565657.cif $
#------------------------------------------------------------------------------
#
# This file is available in the Crystallography Open Database (COD),
# http://www.crystallography.net/
#
# All data on this site have been placed in the public domain by the
# contributors.
#
data_1565657
loop_
_publ_author_name
'Shakirova, Olga'
'Protsenko, Alexandra'
'Protsenko, Alexander'
'Kuratieva, Natalia'
'Fowles, Samantha'
'Turnbull, Mark M.'
_publ_section_title
;
 Syntheses, structures and properties of copper(II) and cobalt(II)
 complexes with 5(3)-amino-2-chloro-3(5)-methylpyridine isomer cations
;
_journal_name_full               'Inorganica Chimica Acta'
_journal_page_first              119246
_journal_paper_doi               10.1016/j.ica.2019.119246
_journal_volume                  500
_journal_year                    2020
_chemical_formula_moiety         '2(C6 H8 Cl N2), Cl4 Cu, 2(H2 O)'
_chemical_formula_sum            'C12 H20 Cl6 Cu N4 O2'
_chemical_formula_weight         528.56
_space_group_crystal_system      triclinic
_space_group_IT_number           2
_space_group_name_Hall           '-P 1'
_space_group_name_H-M_alt        'P -1'
_atom_sites_solution_hydrogens   mixed
_atom_sites_solution_primary     direct
_atom_sites_solution_secondary   difmap
_cell_angle_alpha                85.183(7)
_cell_angle_beta                 89.169(6)
_cell_angle_gamma                89.977(7)
_cell_formula_units_Z            1
_cell_length_a                   7.0774(15)
_cell_length_b                   7.9387(18)
_cell_length_c                   9.1489(19)
_cell_measurement_reflns_used    3323
_cell_measurement_temperature    150(2)
_cell_measurement_theta_max      27.60
_cell_measurement_theta_min      2.57
_cell_volume                     512.16(19)
_computing_cell_refinement       'Bruker SAINT'
_computing_data_collection       'Bruker APEX2'
_computing_data_reduction        'Bruker SAINT'
_computing_molecular_graphics    'Bruker SHELXTL'
_computing_publication_material  'Bruker SHELXTL'
_computing_structure_refinement  'Bruker SHELXTL'
_computing_structure_solution    'Bruker SHELXTL'
_diffrn_ambient_temperature      150(2)
_diffrn_detector_area_resol_mean 25
_diffrn_measured_fraction_theta_full 0.998
_diffrn_measured_fraction_theta_max 0.995
_diffrn_measurement_device_type  'Bruker Apex DUO CCD area-detector'
_diffrn_measurement_method       '\f scans'
_diffrn_radiation_monochromator  graphite
_diffrn_radiation_probe          x-ray
_diffrn_radiation_type           MoK\a
_diffrn_radiation_wavelength     0.71073
_diffrn_reflns_av_R_equivalents  0.0240
_diffrn_reflns_av_unetI/netI     0.0291
_diffrn_reflns_Laue_measured_fraction_full 0.998
_diffrn_reflns_Laue_measured_fraction_max 0.995
_diffrn_reflns_limit_h_max       9
_diffrn_reflns_limit_h_min       -9
_diffrn_reflns_limit_k_max       9
_diffrn_reflns_limit_k_min       -10
_diffrn_reflns_limit_l_max       11
_diffrn_reflns_limit_l_min       -11
_diffrn_reflns_number            4462
_diffrn_reflns_point_group_measured_fraction_full 0.998
_diffrn_reflns_point_group_measured_fraction_max 0.995
_diffrn_reflns_theta_full        25.250
_diffrn_reflns_theta_max         27.596
_diffrn_reflns_theta_min         2.234
_exptl_absorpt_coefficient_mu    1.863
_exptl_absorpt_correction_T_max  0.746
_exptl_absorpt_correction_T_min  0.646
_exptl_absorpt_correction_type   multi-scan
_exptl_absorpt_process_details   'Bruker SADABS'
_exptl_crystal_colour            green
_exptl_crystal_density_diffrn    1.714
_exptl_crystal_description       plate
_exptl_crystal_F_000             267
_exptl_crystal_size_max          0.240
_exptl_crystal_size_mid          0.220
_exptl_crystal_size_min          0.160
_refine_diff_density_max         0.366
_refine_diff_density_min         -0.291
_refine_diff_density_rms         0.058
_refine_ls_extinction_coef       .
_refine_ls_extinction_method     none
_refine_ls_goodness_of_fit_ref   1.076
_refine_ls_hydrogen_treatment    mixed
_refine_ls_matrix_type           full
_refine_ls_number_parameters     124
_refine_ls_number_reflns         2360
_refine_ls_number_restraints     2
_refine_ls_restrained_S_all      1.077
_refine_ls_R_factor_all          0.0233
_refine_ls_R_factor_gt           0.0218
_refine_ls_shift/su_max          0.001
_refine_ls_shift/su_mean         0.000
_refine_ls_structure_factor_coef Fsqd
_refine_ls_weighting_details
'w=1/[\s^2^(Fo^2^)+(0.0271P)^2^+0.1755P] where P=(Fo^2^+2Fc^2^)/3'
_refine_ls_weighting_scheme      calc
_refine_ls_wR_factor_gt          0.0604
_refine_ls_wR_factor_ref         0.0613
_reflns_Friedel_coverage         0.000
_reflns_Friedel_fraction_full    .
_reflns_Friedel_fraction_max     .
_reflns_number_gt                2206
_reflns_number_total             2360
_reflns_threshold_expression     >2\s(I)
_cod_data_source_file            ICA-2020-500-119246.cif
_cod_data_source_block           shak117
_cod_database_code               1565657
_shelx_space_group_comment
;
The symmetry employed for this shelxl refinement is uniquely defined
by the following loop, which should always be used as a source of
symmetry information in preference to the above space-group names.
They are only intended as comments.
;
_shelx_estimated_absorpt_t_min   0.663
_shelx_estimated_absorpt_t_max   0.755
_shelx_res_file
;

    D:\Job\SHAKIR~1\shak117\shak117.res created by SHELXL-2014/7

TITL shak117 in P-1
CELL 0.71073 7.0774 7.9387 9.1489 85.183 89.169 89.977
ZERR 1.0000 0.0015 0.0018 0.0019 0.007 0.006 0.007
LATT 1
SFAC C H N O CL CU
UNIT 12 20 4 2 6 1
MERG 2
OMIT 0 180
FMAP 2
GRID
PLAN 5
TEMP -123
SIZE 0.24 0.22 0.16
OMIT  1 1 4
OMIT  -1 -2 3
OMIT  -2 1 0
DFIX 0.980 0.005 O1W H1W
DFIX 0.980 0.005 O1W H2W
BOND $H
HTAB
L.S. 10
ACTA 50.5
WGHT    0.027100    0.175500
FVAR       0.23569
CU1   6    0.000000    0.000000    0.000000    10.50000    0.01789    0.01446 =
         0.01508   -0.00161   -0.00161   -0.00152
CL1   5    0.258078    0.168903   -0.001472    11.00000    0.02669    0.02598 =
         0.02078    0.00130   -0.00409   -0.01068
CL2   5    0.001964   -0.024152    0.249688    11.00000    0.02847    0.02798 =
         0.01541   -0.00256   -0.00116   -0.00692
CL3   5    0.263160    0.532295    0.219242    11.00000    0.02942    0.03897 =
         0.01129   -0.00654   -0.00120   -0.00031
O1W   4    0.472439   -0.055947    0.260641    11.00000    0.02357    0.02646 =
         0.01753    0.00288   -0.00062   -0.00256
N1    3    0.322350    0.700412    0.447564    11.00000    0.01772    0.01903 =
         0.01336    0.00118    0.00045   -0.00140
AFIX  43
H1    2    0.356230    0.781258    0.380618    11.00000   -1.20000
AFIX   0
N2    3    0.171447    0.262679    0.462563    11.00000    0.03479    0.02203 =
         0.02363   -0.00691   -0.00159   -0.00663
AFIX  93
H2A   2    0.171551    0.245144    0.368856    11.00000   -1.20000
H2B   2    0.140738    0.180222    0.528975    11.00000   -1.20000
AFIX   0
C1    1    0.268390    0.551652    0.403406    11.00000    0.01553    0.02390 =
         0.01109   -0.00423   -0.00103    0.00110
C2    1    0.218635    0.416844    0.504646    11.00000    0.01366    0.01943 =
         0.01812   -0.00401   -0.00198    0.00034
C3    1    0.222553    0.449603    0.653231    11.00000    0.01696    0.01881 =
         0.01538    0.00074   -0.00047    0.00024
AFIX  43
H3    2    0.188674    0.362020    0.726052    11.00000   -1.20000
AFIX   0
C4    1    0.274523    0.606298    0.696544    11.00000    0.01588    0.02107 =
         0.01328   -0.00237   -0.00108    0.00164
C5    1    0.327212    0.732101    0.589397    11.00000    0.01840    0.01915 =
         0.01537   -0.00382   -0.00138   -0.00169
AFIX  43
H5    2    0.366372    0.839665    0.616038    11.00000   -1.20000
AFIX   0
C6    1    0.273016    0.638753    0.855775    11.00000    0.03319    0.02682 =
         0.01186   -0.00390   -0.00113    0.00114
AFIX 137
H6A   2    0.352482    0.737047    0.869653    11.00000   -1.50000
H6B   2    0.322285    0.539460    0.913890    11.00000   -1.50000
H6C   2    0.143297    0.660950    0.887783    11.00000   -1.50000
AFIX   0
H1W   2    0.377958    0.002802    0.199275    11.00000    0.04931
H2W   2    0.565784   -0.095519    0.192213    11.00000    0.07598
HKLF 4

REM  shak117 in P-1
REM R1 =  0.0218 for    2206 Fo > 4sig(Fo)  and  0.0233 for all    2360 data
REM    124 parameters refined using      2 restraints

END

WGHT      0.0271      0.1776

REM Instructions for potential hydrogen bonds
EQIV $1 x, y+1, z
HTAB N1 O1W_$1
HTAB N2 Cl2
EQIV $2 -x, -y, -z+1
HTAB N2 Cl2_$2
EQIV $3 x, y, z+1
HTAB C3 Cl1_$3
EQIV $4 -x+1, -y+1, -z+1
HTAB C5 O1W_$4
HTAB O1W Cl1
HTAB O1W Cl2
EQIV $5 -x+1, -y, -z
HTAB O1W Cl1_$5

REM Highest difference peak  0.366,  deepest hole -0.291,  1-sigma level  0.058
Q1    1   0.2257  0.4342  0.5761  11.00000  0.05    0.37
Q2    1   0.1835  0.3505  0.4863  11.00000  0.05    0.34
Q3    1   0.2809  0.6204  0.7766  11.00000  0.05    0.34
Q4    1   0.3361  0.6993  0.5222  11.00000  0.05    0.32
Q5    1   0.2451  0.5371  0.6783  11.00000  0.05    0.32
;
_shelx_hkl_file
;
   1   0   0   64.54    2.22
   1   0   0   59.28    2.01
   1   0   0   63.27    2.01
  -1   0   0   58.57    2.01
  -1   0   0   62.14    2.03
  -1   0   0   64.42    2.22
   2   0   0  139.33    4.75
   2   0   0  146.14    5.28
   2   0   0  145.45    4.72
  -2   0   0  150.25    4.76
  -2   0   0  147.68    4.76
  -2   0   0  148.90    5.27
   3   0   0  142.10    4.24
   3   0   0  140.11    4.55
   3   0   0  141.82    4.97
  -3   0   0  138.31    4.61
  -3   0   0  143.20    4.97
  -3   0   0  142.53    4.57
   4   0   0  384.52   11.74
   4   0   0  391.74   12.44
   4   0   0  379.52   13.59
  -4   0   0  381.91   13.54
  -4   0   0  404.35   12.56
  -4   0   0  385.40   12.53
   5   0   0    9.60    0.44
  -5   0   0    9.73    0.36
  -5   0   0    8.85    0.35
   6   0   0    2.06    0.19
  -6   0   0    2.26    0.14
  -6   0   0    2.43    0.14
  -7   0   0   36.55    1.25
  -8   0   0   35.21    1.22
  -9   0   0    2.62    0.18
  -9  -1   0    5.28    0.26
  -8  -1   0    6.27    0.28
   8   1   0    6.73    0.41
  -7  -1   0   30.27    1.06
   7   1   0   32.01    1.26
  -6  -1   0   40.56    1.39
  -6  -1   0   43.60    1.40
  -5  -1   0   25.78    0.90
  -5  -1   0   27.20    0.90
   5   1   0   27.84    1.06
  -4  -1   0   76.86    2.57
  -4  -1   0   83.39    2.58
   4   1   0   79.67    2.87
  -3  -1   0   84.78    2.63
  -3  -1   0   85.22    2.78
  -3  -1   0   89.16    2.78
   3   1   0   87.51    3.08
  -2  -1   0  328.49   10.03
  -2  -1   0  332.93   10.65
  -2  -1   0  336.33   10.66
  -1  -1   0  105.00    3.44
  -1  -1   0  105.28    3.42
   1   1   0  108.11    3.42
   1   1   0  105.13    3.43
   0  -1   0    3.49    0.14
   0   1   0    3.63    0.14
   0   1   0    3.72    0.14
   1  -1   0  110.09    3.47
   1  -1   0  110.23    4.29
  -1   1   0  104.44    3.43
  -1   1   0   97.41    3.40
   2  -1   0  900.23   32.30
  -2   1   0 1000.00   33.34
  -2   1   0  951.10   32.58
  -2   1   0  951.95   32.96
   3  -1   0   19.59    0.67
  -3   1   0   20.18    0.75
  -3   1   0   19.04    0.68
  -3   1   0   20.44    0.68
   4  -1   0    0.95    0.08
  -4   1   0    0.88    0.11
  -4   1   0    0.87    0.08
  -4   1   0    1.02    0.09
   5  -1   0   77.26    2.48
  -5   1   0   73.49    2.51
  -5   1   0   78.98    2.51
  -6   1   0   86.77    3.01
  -6   1   0   97.16    3.02
  -7   1   0    2.06    0.15
  -8   1   0    9.05    0.40
  -9   1   0   14.22    0.59
  -9  -2   0    0.82    0.09
   9   2   0    0.68    0.18
  -8  -2   0    5.44    0.24
   8   2   0    5.67    0.38
  -7  -2   0   54.19    1.77
  -7  -2   0   53.15    1.76
   7   2   0   53.82    2.05
  -6  -2   0   30.64    0.99
  -6  -2   0   28.77    0.99
   6   2   0   29.84    1.18
  -5  -2   0    8.11    0.29
  -5  -2   0    7.70    0.28
   5   2   0    7.28    0.38
  -4  -2   0   59.90    1.93
  -4  -2   0   62.84    1.94
  -4  -2   0   57.05    1.86
   4   2   0   59.47    2.18
  -3  -2   0  229.77    7.24
  -3  -2   0  218.81    7.24
  -3  -2   0  224.36    6.78
  -2  -2   0  207.68    6.94
  -2  -2   0  220.88    6.92
   2   2   0  215.56    6.89
  -1  -2   0    2.00    0.09
  -1  -2   0    1.94    0.10
   1   2   0    1.94    0.09
   0  -2   0  214.01    6.83
   0  -2   0  202.98    6.87
   0   2   0  204.02    6.82
   0   2   0  218.45    6.88
   1  -2   0  434.88   13.40
   1  -2   0  399.75   13.38
  -1   2   0  404.41   13.41
  -1   2   0  411.42   13.36
   2  -2   0   40.27    1.37
  -2   2   0   43.13    1.38
  -2   2   0   40.66    1.37
   3  -2   0    0.71    0.08
  -3   2   0    1.06    0.09
  -3   2   0    0.85    0.09
   4  -2   0  311.60   10.38
  -4   2   0  337.58   11.48
  -4   2   0  310.28   10.66
  -4   2   0  337.87   10.40
   5  -2   0   81.92    2.70
  -5   2   0   86.21    2.73
  -5   2   0   79.56    2.72
  -6   2   0    1.93    0.15
  -7   2   0    2.62    0.19
  -8   2   0   52.13    1.80
  -9   2   0    8.00    0.40
  -8  -3   0    6.62    0.26
   8   3   0    6.38    0.41
  -7  -3   0    2.87    0.14
   7   3   0    2.84    0.25
  -6  -3   0   55.13    1.75
  -6  -3   0   52.94    1.74
   6   3   0   52.12    2.01
  -5  -3   0   81.53    2.56
  -5  -3   0   80.11    2.56
  -5  -3   0   78.97    2.47
   5   3   0   76.09    2.88
  -4  -3   0    0.53    0.05
  -4  -3   0    0.61    0.05
  -4  -3   0    0.46    0.08
  -3  -3   0   33.16    1.12
  -3  -3   0   35.01    1.12
  -2  -3   0  329.33   10.94
  -2  -3   0  347.71   10.97
   2   3   0  338.75   10.92
  -1  -3   0  141.14    4.82
  -1  -3   0  156.00    4.82
   1   3   0  147.74    4.83
   0  -3   0   24.75    0.79
   0  -3   0   21.60    0.78
   0   3   0   22.07    0.78
   1  -3   0   24.39    0.85
  -1   3   0   24.73    0.85
   2  -3   0  238.00    7.66
  -2   3   0  230.21    7.61
   3  -3   0   82.94    2.74
  -3   3   0   83.83    2.74
   4  -3   0    1.77    0.13
  -4   3   0    1.82    0.14
   5  -3   0    6.02    0.28
  -5   3   0    5.89    0.29
  -6   3   0  135.86    4.45
  -7   3   0   14.62    0.61
  -8   3   0    4.09    0.27
  -8  -4   0    0.12    0.04
   8   4   0    0.12    0.11
  -7  -4   0   14.88    0.53
   7   4   0   15.00    0.71
  -6  -4   0   42.38    1.40
  -6  -4   0   41.09    1.38
  -6  -4   0   43.11    1.39
   6   4   0   40.99    1.63
  -5  -4   0   44.24    1.42
  -5  -4   0   43.38    1.41
  -5  -4   0   41.52    1.42
  -4  -4   0   17.93    0.64
  -4  -4   0   18.79    0.64
  -3  -4   0   34.65    1.14
  -3  -4   0   32.72    1.13
   3   4   0   33.92    1.11
  -2  -4   0   41.87    1.46
  -2  -4   0   46.29    1.46
   2   4   0   43.16    1.44
  -1  -4   0  132.33    4.44
  -1  -4   0  147.78    4.45
   1   4   0  132.00    4.43
   0  -4   0  113.78    3.69
   0   4   0  113.04    3.68
   1  -4   0   18.45    0.68
  -1   4   0   19.03    0.68
   2  -4   0   60.80    1.99
  -2   4   0   58.04    1.99
   3  -4   0   50.53    1.68
  -3   4   0   48.34    1.68
   4  -4   0   29.16    1.00
  -4   4   0   26.46    1.00
   5  -4   0   14.56    0.59
  -5   4   0   15.28    0.61
  -6   4   0   19.16    0.76
  -7   4   0    3.89    0.27
  -8   4   0   16.59    0.71
  -8  -5   0   22.29    0.76
   8   5   0   22.39    1.01
  -7  -5   0    1.93    0.12
  -7  -5   0    2.27    0.21
   7   5   0    1.67    0.23
  -6  -5   0    1.39    0.18
  -6  -5   0    0.88    0.09
  -5  -5   0   85.87    2.77
  -5  -5   0   83.11    2.76
  -4  -5   0   89.97    3.03
  -4  -5   0   96.01    3.04
  -3  -5   0    2.62    0.15
  -3  -5   0    2.33    0.15
   3   5   0    2.69    0.13
  -2  -5   0    4.22    0.21
  -2  -5   0    4.03    0.21
   2   5   0    3.95    0.19
  -1  -5   0  135.59    4.56
  -1  -5   0  149.27    4.56
   1   5   0  136.40    4.54
   0  -5   0   45.35    1.52
   0   5   0   43.65    1.50
   1  -5   0   10.44    0.44
  -1   5   0   10.55    0.43
   2  -5   0   57.44    1.96
  -2   5   0   58.61    1.97
   3  -5   0   53.16    1.79
  -3   5   0   50.93    1.79
   4  -5   0   14.46    0.59
  -4   5   0   14.26    0.60
   5  -5   0    2.41    0.19
  -5   5   0    2.34    0.20
  -6   5   0   15.10    0.65
  -7   5   0   14.69    0.66
  -8   5   0    4.69    0.33
  -7  -6   0   22.62    0.80
  -7  -6   0   23.55    0.88
   7   6   0   22.42    1.03
  -6  -6   0    1.34    0.17
  -6  -6   0    1.23    0.12
  -5  -6   0    5.46    0.26
  -4  -6   0   18.22    0.68
  -3  -6   0   69.01    2.30
  -2  -6   0   15.89    0.64
  -2  -6   0   17.43    0.64
   2   6   0   16.98    0.62
  -1  -6   0    8.64    0.39
   1   6   0    9.20    0.38
   0  -6   0   36.47    1.26
   0   6   0   34.95    1.24
   1  -6   0   53.71    1.82
  -1   6   0   52.29    1.81
   2  -6   0    1.64    0.16
  -2   6   0    1.61    0.16
   3  -6   0   16.13    0.65
  -3   6   0   15.41    0.65
   4  -6   0   57.84    1.97
  -4   6   0   55.73    1.98
   5  -6   0    6.08    0.34
  -5   6   0    6.05    0.36
  -6   6   0    0.06    0.09
  -7   6   0    6.61    0.40
  -6  -7   0    5.61    0.34
  -6  -7   0    5.19    0.27
  -5  -7   0    6.30    0.30
  -4  -7   0    9.51    0.42
  -3  -7   0   31.28    1.12
  -2  -7   0    2.13    0.17
  -1  -7   0   18.69    0.75
   1   7   0   20.22    0.74
   0  -7   0   39.03    1.41
   0   7   0   40.16    1.39
   1  -7   0   18.96    0.76
  -1   7   0   19.32    0.75
   2  -7   0    1.18    0.17
  -2   7   0    1.05    0.14
   3  -7   0   12.32    0.55
  -3   7   0   12.32    0.56
   4  -7   0   14.01    0.61
  -4   7   0   13.39    0.62
   5  -7   0    9.28    0.48
  -5   7   0   10.02    0.50
  -6   7   0    5.64    0.38
  -5  -8   0    0.02    0.06
  -4  -8   0    0.56    0.11
  -3  -8   0   39.14    1.40
  -2  -8   0   13.09    0.57
  -1  -8   0    0.67    0.12
   0  -8   0    1.01    0.15
   0   8   0    1.29    0.16
   1  -8   0   44.05    1.59
  -1   8   0   44.43    1.57
   2  -8   0   19.00    0.80
  -2   8   0   19.68    0.79
   3  -8   0    0.06    0.08
  -3   8   0    0.08    0.08
   4  -8   0    0.46    0.14
  -4   8   0    0.26    0.11
  -5   8   0   18.11    0.80
  -4  -9   0    1.50    0.19
  -3  -9   0    0.00    0.07
  -2  -9   0    9.53    0.47
  -1  -9   0   20.85    0.85
   0  -9   0    0.15    0.09
   1  -9   0    2.26    0.25
   2  -9   0   10.11    0.52
  -2   9   0   10.39    0.51
   3  -9   0   11.29    0.57
  -3   9   0   11.24    0.56
   4  -9   0    0.80    0.16
  -4   9   0    1.03    0.18
  -2 -10   0   10.68    0.54
  -1 -10   0    2.80    0.26
   0 -10   0   -0.02    0.09
   1 -10   0    4.94    0.36
   2 -10   0    4.27    0.34
   2 -10  -1   15.50    0.72
   1 -10  -1    2.91    0.28
   0 -10  -1    4.99    0.35
  -1 -10  -1   28.32    1.12
  -2 -10  -1    9.48    0.50
  -4   9   1    7.70    0.45
   4  -9  -1    7.25    0.44
  -3   9   1    7.52    0.43
   3  -9  -1    7.53    0.43
  -2   9   1   13.06    0.60
   2  -9  -1   12.67    0.61
  -1   9   1   11.24    0.53
   1  -9  -1   10.78    0.54
   0  -9  -1    9.86    0.50
  -1  -9  -1   14.77    0.66
  -2  -9  -1   21.99    0.88
  -3  -9  -1   14.65    0.64
  -4  -9  -1    1.80    0.20
  -5   8   1   10.97    0.56
  -4   8   1    6.16    0.37
   4  -8  -1    5.53    0.36
  -3   8   1    4.94    0.32
   3  -8  -1    4.81    0.32
  -2   8   1   37.26    1.38
   2  -8  -1   38.56    1.40
  -1   8   1   26.79    1.02
   1  -8  -1   27.43    1.04
   0   8   1    3.05    0.22
   0  -8  -1    2.80    0.23
  -1  -8  -1    7.65    0.39
  -2  -8  -1   53.41    1.86
  -3  -8  -1   29.43    1.09
  -4  -8  -1    1.17    0.15
  -5  -8  -1    8.15    0.39
  -6   7   1    0.40    0.12
  -5   7   1    7.44    0.42
  -4   7   1   43.58    1.58
   4  -7  -1   43.81    1.57
  -3   7   1    5.68    0.33
   3  -7  -1    5.72    0.33
  -2   7   1   10.97    0.49
   2  -7  -1   10.46    0.49
  -1   7   1   45.71    1.59
   1  -7  -1   45.20    1.60
   0   7   1   57.43    1.97
   0  -7  -1   58.02    1.99
   1   7   1    2.64    0.18
  -1  -7  -1    2.76    0.20
  -2  -7  -1    7.12    0.35
  -3  -7  -1   49.14    1.70
  -4  -7  -1   45.10    1.56
  -5  -7  -1    1.70    0.16
  -6  -7  -1    2.51    0.23
  -6  -7  -1    2.67    0.19
  -7   6   1    0.60    0.15
  -6   6   1   19.72    0.82
  -5   6   1   27.60    1.05
   5  -6  -1   26.47    1.02
  -4   6   1   12.72    0.56
   4  -6  -1   12.74    0.55
  -3   6   1    2.88    0.21
   3  -6  -1    2.97    0.21
  -2   6   1   38.56    1.40
   2  -6  -1   41.39    1.42
  -1   6   1   34.82    1.24
   1  -6  -1   35.56    1.25
   0   6   1   63.83    2.21
   0  -6  -1   68.10    2.23
   1   6   1   20.35    0.74
  -1  -6  -1   20.18    0.76
   2   6   1   19.20    0.70
  -2  -6  -1   20.31    0.75
  -2  -6  -1   18.42    0.72
  -3  -6  -1   21.83    0.80
  -4  -6  -1   35.69    1.24
  -5  -6  -1   12.12    0.48
  -6  -6  -1    9.64    0.45
  -6  -6  -1    9.37    0.40
   7   6   1   12.23    0.64
  -7  -6  -1   11.54    0.46
  -7  -6  -1   11.46    0.54
  -8   5   1    6.10    0.38
  -7   5   1   29.57    1.14
  -6   5   1    4.32    0.29
  -5   5   1    1.80    0.20
   5  -5  -1    1.76    0.16
  -4   5   1   87.43    2.90
   4  -5  -1   85.79    2.89
  -3   5   1  120.62    3.96
   3  -5  -1  120.07    3.95
  -2   5   1    0.31    0.08
   2  -5  -1    0.55    0.09
  -1   5   1    6.17    0.29
   1  -5  -1    6.23    0.30
   0   5   1  205.14    6.81
   0  -5  -1  217.43    6.82
   1   5   1  110.67    3.62
  -1  -5  -1  111.92    3.64
   2   5   1    7.05    0.29
  -2  -5  -1    6.33    0.30
  -2  -5  -1    7.27    0.31
   3   5   1    2.08    0.12
  -3  -5  -1    2.02    0.14
  -3  -5  -1    2.33    0.14
  -4  -5  -1   82.87    2.64
  -4  -5  -1   77.45    2.63
  -5  -5  -1   30.14    1.05
  -5  -5  -1   30.50    1.04
  -6  -5  -1    1.41    0.17
  -6  -5  -1    1.31    0.11
   7   5   1    3.32    0.29
  -7  -5  -1    3.62    0.26
  -7  -5  -1    3.63    0.19
   8   5   1   23.88    1.08
  -8  -5  -1   24.61    0.85
  -8   4   1    1.58    0.20
  -7   4   1    5.58    0.33
  -6   4   1   22.83    0.88
  -5   4   1   23.03    0.88
   5  -4  -1   23.71    0.86
  -4   4   1   11.37    0.49
   4  -4  -1   12.03    0.48
  -3   4   1    8.14    0.37
   3  -4  -1    8.91    0.37
  -2   4   1  173.41    5.72
   2  -4  -1  180.18    5.72
  -1   4   1   72.17    2.37
   1  -4  -1   71.84    2.38
   0   4   1    0.09    0.04
   0  -4  -1    0.06    0.04
   1   4   1    3.37    0.17
  -1  -4  -1    3.50    0.18
  -1  -4  -1    3.14    0.17
   2   4   1  256.18    8.39
  -2  -4  -1  250.85    8.36
  -2  -4  -1  267.90    8.29
   3   4   1   26.10    0.88
  -3  -4  -1   27.85    0.90
  -3  -4  -1   24.42    0.89
  -4  -4  -1    6.01    0.26
  -4  -4  -1    6.79    0.27
  -5  -4  -1   27.61    0.96
  -5  -4  -1   27.42    0.96
  -5  -4  -1   28.93    0.96
   6   4   1   31.65    1.26
  -6  -4  -1   31.30    1.06
  -6  -4  -1   30.44    1.07
   7   4   1    0.57    0.14
  -7  -4  -1    0.54    0.07
   8   4   1    4.01    0.33
  -8  -4  -1    3.99    0.20
  -8   3   1    4.16    0.27
  -7   3   1   12.93    0.55
  -6   3   1   22.64    0.85
  -5   3   1    8.49    0.38
   5  -3  -1    8.64    0.36
  -4   3   1    4.26    0.22
  -4   3   1    3.78    0.21
   4  -3  -1    4.00    0.20
  -3   3   1   84.01    2.52
  -3   3   1   69.85    2.47
   3  -3  -1   71.65    2.46
  -2   3   1  173.09    5.58
   2  -3  -1  173.09    5.58
  -1   3   1    0.77    0.08
   1  -3  -1    0.57    0.07
   0   3   1   63.05    2.00
   0  -3  -1   58.96    2.00
   1   3   1  195.43    6.39
  -1  -3  -1  205.06    6.29
  -1  -3  -1  183.42    6.24
   2   3   1   70.27    2.26
  -2  -3  -1   72.28    2.27
  -2  -3  -1   66.07    2.26
   3   3   1   12.89    0.44
  -3  -3  -1   12.45    0.46
  -3  -3  -1   13.40    0.46
  -4  -3  -1   65.51    2.08
  -4  -3  -1   62.00    2.07
  -4  -3  -1   63.03    1.98
   5   3   1   62.85    2.38
  -5  -3  -1   69.23    2.12
  -5  -3  -1   64.27    2.04
  -5  -3  -1   62.46    2.11
   6   3   1   17.53    0.78
  -6  -3  -1   19.02    0.65
  -6  -3  -1   17.80    0.64
   7   3   1   -0.02    0.07
  -7  -3  -1    0.01    0.04
   8   3   1    3.88    0.31
  -8  -3  -1    3.55    0.19
  -9   2   1   14.74    0.62
  -8   2   1    1.91    0.17
  -7   2   1    0.17    0.07
  -6   2   1   30.66    1.08
  -5   2   1   74.93    2.56
  -5   2   1   79.88    2.57
   5  -2  -1   78.43    2.54
  -4   2   1    2.29    0.14
  -4   2   1    2.05    0.13
  -4   2   1    2.08    0.15
   4  -2  -1    1.94    0.12
  -3   2   1    0.36    0.07
  -3   2   1    0.37    0.06
  -3   2   1    0.27    0.05
   3  -2  -1    0.29    0.05
  -2   2   1  103.22    3.20
  -2   2   1   96.04    3.19
   2  -2  -1   96.60    3.19
  -1   2   1  276.60    8.58
  -1   2   1  256.80    8.63
   1  -2  -1  258.31    8.56
   0   2   1  100.38    3.29
   0  -2  -1   99.46    3.25
   0  -2  -1  103.02    3.30
   1   2   1   56.33    1.81
  -1  -2  -1   55.52    1.82
   2   2   1  165.23    5.36
  -2  -2  -1  174.69    5.37
  -2  -2  -1  156.13    5.35
   3   2   1  197.79    6.40
  -3  -2  -1  210.48    6.45
  -3  -2  -1  193.22    6.48
  -3  -2  -1  195.08    5.96
   4   2   1    1.18    0.13
  -4  -2  -1    1.16    0.08
  -4  -2  -1    1.20    0.08
  -4  -2  -1    1.23    0.11
   5   2   1   16.02    0.68
  -5  -2  -1   16.36    0.57
  -5  -2  -1   15.85    0.57
   6   2   1   88.35    3.26
  -6  -2  -1   91.24    2.91
  -6  -2  -1   88.38    2.90
   7   2   1   40.38    1.57
  -7  -2  -1   39.63    1.35
   8   2   1    0.68    0.15
  -8  -2  -1    0.70    0.09
   9   2   1    0.33    0.15
  -9  -2  -1    0.33    0.07
  -9   1   1    6.61    0.33
  -8   1   1    3.13    0.20
  -7   1   1    9.22    0.39
  -6   1   1    0.84    0.10
  -6   1   1    0.90    0.10
  -5   1   1   30.33    1.02
  -5   1   1   29.02    1.01
  -4   1   1  116.48    3.79
  -4   1   1  118.46    3.80
  -4   1   1  120.12    4.15
   4  -1  -1  114.71    3.77
  -3   1   1   22.53    0.78
  -3   1   1   23.99    0.78
   3  -1  -1   22.64    0.77
  -2   1   1   19.18    0.62
  -2   1   1   18.41    0.68
  -2   1   1   17.42    0.62
   2  -1  -1   18.29    0.61
  -1   1   1   90.91    3.04
  -1   1   1   93.73    3.05
   1  -1  -1   93.44    3.02
   1  -1  -1   92.82    2.98
   0   1   1  222.80    7.50
   0   1   1  232.93    7.48
   0  -1  -1  246.69    7.50
   0  -1  -1  221.98    7.49
   1   1   1   11.91    0.40
  -1  -1  -1   12.60    0.41
  -1  -1  -1   11.17    0.40
   2   1   1   73.21    2.35
   2   1   1   71.99    2.56
  -2  -1  -1   70.93    2.33
  -2  -1  -1   74.06    2.33
  -2  -1  -1   71.66    2.19
   3   1   1   19.17    0.75
   3   1   1   19.67    0.64
  -3  -1  -1   19.01    0.65
  -3  -1  -1   19.47    0.65
   4   1   1   42.82    1.63
   4   1   1   44.74    1.43
  -4  -1  -1   45.20    1.45
  -4  -1  -1   43.55    1.45
   5   1   1   11.60    0.53
  -5  -1  -1   11.75    0.43
  -5  -1  -1   12.28    0.44
   6   1   1    6.34    0.36
  -6  -1  -1    6.32    0.26
  -6  -1  -1    5.92    0.26
   7   1   1    0.94    0.16
  -7  -1  -1    1.05    0.11
   8   1   1   17.70    0.80
  -8  -1  -1   16.44    0.63
  -9  -1  -1    2.49    0.17
  -9   0   1    2.00    0.15
  -8   0   1   23.25    0.83
  -7   0   1   11.93    0.46
  -6   0   1    7.28    0.30
  -6   0   1    7.58    0.30
   6   0  -1    7.48    0.38
  -5   0   1   28.18    0.92
  -5   0   1   26.42    0.91
   5   0  -1   26.88    1.05
  -4   0   1   65.52    2.07
  -4   0   1   62.01    2.07
   4   0  -1   63.14    1.96
   4   0  -1   64.95    2.30
  -3   0   1   28.96    0.91
  -3   0   1   28.13    0.91
   3   0  -1   27.17    0.87
   3   0  -1   26.62    1.02
  -2   0   1   24.51    0.82
  -2   0   1   25.80    0.82
   2   0  -1   26.08    0.92
   2   0  -1   24.58    0.78
  -1   0   1   78.08    2.45
  -1   0   1   74.70    2.45
   1   0  -1   75.71    2.44
   1   0  -1   74.00    2.44
   0   0   1    3.50    0.13
   0   0   1    3.65    0.13
   0   0  -1    3.28    0.13
   0   0  -1    3.58    0.13
   1   0   1   12.63    0.49
   1   0   1   14.02    0.45
  -1   0  -1   14.22    0.45
  -1   0  -1   12.42    0.49
  -1   0  -1   13.91    0.45
   2   0   1   48.72    1.60
  -2   0  -1   51.53    1.60
  -2   0  -1   47.94    1.60
   3   0   1   44.56    1.43
   3   0   1   47.74    1.68
   3   0   1   45.69    1.51
  -3   0  -1   46.52    1.52
  -3   0  -1   44.40    1.51
  -3   0  -1   48.82    1.68
   4   0   1   74.14    2.62
   4   0   1   71.24    2.35
  -4   0  -1   70.60    2.36
  -4   0  -1   73.28    2.36
  -4   0  -1   73.31    2.61
   5   0   1    0.20    0.08
  -5   0  -1    0.25    0.05
  -5   0  -1    0.15    0.05
   6   0   1    0.82    0.14
  -6   0  -1    0.76    0.09
  -6   0  -1    0.85    0.09
  -7   0  -1   18.79    0.69
  -8   0  -1   12.90    0.52
  -9   0  -1    2.11    0.18
  -9  -1   1    0.13    0.05
  -8  -1   1    0.24    0.06
   8   1  -1    0.29    0.12
  -7  -1   1   27.83    0.97
  -7  -1   1   29.30    0.97
   7   1  -1   29.61    1.18
  -6  -1   1   13.77    0.50
  -6  -1   1   15.02    0.51
   6   1  -1   14.85    0.64
  -5  -1   1    0.22    0.03
  -5  -1   1    0.25    0.03
   5   1  -1    0.25    0.07
  -4  -1   1    1.12    0.06
  -4  -1   1    0.99    0.05
   4   1  -1    0.99    0.11
  -3  -1   1  153.54    4.39
   3   1  -1  139.18    5.14
  -2  -1   1   15.35    0.50
  -1  -1   1    1.56    0.07
  -1  -1   1    1.56    0.07
   1   1  -1    1.58    0.06
   1   1  -1    1.64    0.07
   0  -1   1  189.60    6.03
   0  -1   1  180.14    6.01
   0   1  -1  176.06    5.99
   0   1  -1  193.70    6.02
   1  -1   1  187.67    6.21
   1  -1   1  199.11    6.14
  -1   1  -1  174.67    6.15
  -1   1  -1  197.97    6.20
   2  -1   1   98.43    3.20
  -2   1  -1  102.47    3.20
  -2   1  -1   96.72    3.20
   3  -1   1    3.48    0.16
  -3   1  -1    3.66    0.17
  -3   1  -1    3.44    0.16
  -3   1  -1    3.50    0.19
   4  -1   1  152.37    4.90
  -4   1  -1  154.52    5.37
  -4   1  -1  157.58    4.91
  -4   1  -1  144.07    4.90
   5  -1   1   34.42    1.18
  -5   1  -1   37.18    1.20
  -5   1  -1   33.04    1.19
  -6   1  -1    0.61    0.09
  -7   1  -1    0.82    0.11
  -8   1  -1   10.94    0.47
  -9   1  -1    6.18    0.33
  -8  -2   1    0.45    0.06
   8   2  -1    0.28    0.12
  -7  -2   1    7.63    0.27
  -7  -2   1    7.21    0.27
   7   2  -1    6.94    0.41
  -6  -2   1    6.33    0.22
  -6  -2   1    5.71    0.22
   6   2  -1    6.17    0.34
  -5  -2   1    7.26    0.24
  -5  -2   1    6.74    0.24
   5   2  -1    7.14    0.36
  -4  -2   1    2.50    0.09
  -4  -2   1    2.48    0.09
  -4  -2   1    2.44    0.15
  -3  -2   1   57.33    1.83
  -3  -2   1   58.02    1.83
  -3  -2   1   55.44    1.75
  -2  -2   1    1.71    0.08
  -2  -2   1    1.75    0.08
  -1  -2   1   16.82    0.57
  -1  -2   1   17.53    0.58
   1   2  -1   16.83    0.57
   0  -2   1   11.13    0.38
   0  -2   1   10.22    0.38
   0   2  -1   10.62    0.38
   1  -2   1   58.42    1.79
   1  -2   1   52.84    1.78
  -1   2  -1   52.23    1.78
   2  -2   1   43.51    1.49
  -2   2  -1   47.23    1.49
  -2   2  -1   43.88    1.49
   3  -2   1    8.54    0.35
  -3   2  -1    8.62    0.35
  -3   2  -1    9.51    0.36
   4  -2   1   14.90    0.55
  -4   2  -1   16.36    0.56
  -4   2  -1   13.24    0.55
   5  -2   1    9.88    0.40
  -5   2  -1    9.68    0.41
  -5   2  -1   10.75    0.42
  -6   2  -1   42.54    1.47
  -7   2  -1    0.13    0.07
  -8   2  -1    0.55    0.11
  -9   2  -1    1.93    0.21
   8   3  -1   12.14    0.62
   7   3  -1    8.60    0.46
  -6  -3   1   32.09    1.00
  -6  -3   1   30.56    1.00
   6   3  -1   29.21    1.21
  -5  -3   1    4.60    0.17
  -5  -3   1    4.67    0.24
  -5  -3   1    4.37    0.17
  -4  -3   1   13.32    0.49
  -4  -3   1   13.01    0.45
  -4  -3   1   13.59    0.45
  -3  -3   1   30.97    1.05
  -3  -3   1   33.14    1.06
  -2  -3   1   54.32    1.72
  -2  -3   1   51.06    1.72
   2   3  -1   53.07    1.71
  -1  -3   1   11.69    0.42
  -1  -3   1   11.21    0.42
   1   3  -1   11.58    0.41
   0  -3   1   88.05    2.86
   0  -3   1   90.97    2.86
   0   3  -1   84.84    2.85
   1  -3   1   64.32    2.16
  -1   3  -1   66.92    2.16
   2  -3   1   98.44    3.23
  -2   3  -1   99.74    3.23
   3  -3   1    0.09    0.05
  -3   3  -1    0.02    0.04
   4  -3   1    3.20    0.19
  -4   3  -1    3.20    0.19
   5  -3   1   26.39    0.94
  -5   3  -1   25.88    0.95
  -6   3  -1    1.09    0.14
  -7   3  -1    0.68    0.12
  -8   3  -1    6.47    0.36
   8   4  -1   22.20    0.99
   7   4  -1    6.65    0.40
  -6  -4   1   13.11    0.53
  -6  -4   1   12.91    0.45
  -6  -4   1   12.29    0.44
   6   4  -1   12.78    0.61
  -5  -4   1   57.34    1.80
  -5  -4   1   54.55    1.80
  -5  -4   1   53.47    1.76
  -4  -4   1   15.92    0.54
  -4  -4   1   14.85    0.54
  -3  -4   1    6.37    0.26
  -3  -4   1    6.81    0.27
  -2  -4   1    0.12    0.04
  -2  -4   1    0.07    0.04
   2   4  -1    0.26    0.04
  -1  -4   1  119.35    3.67
  -1  -4   1  107.81    3.66
   1   4  -1  111.61    3.65
   0  -4   1    0.04    0.04
   0   4  -1    0.15    0.05
   1  -4   1    3.71    0.20
  -1   4  -1    3.86    0.20
   2  -4   1    0.18    0.06
  -2   4  -1    0.14    0.05
   3  -4   1   57.36    1.92
  -3   4  -1   56.35    1.92
   4  -4   1    3.63    0.21
  -4   4  -1    3.57    0.22
   5  -4   1    3.53    0.22
  -5   4  -1    3.69    0.24
  -6   4  -1    1.93    0.19
  -7   4  -1   16.26    0.69
  -8   4  -1    1.46    0.20
  -7  -5   1    0.00    0.08
  -7  -5   1    0.05    0.03
   7   5  -1    0.04    0.09
  -6  -5   1   17.20    0.67
  -6  -5   1   16.93    0.59
  -5  -5   1    2.95    0.15
  -5  -5   1    2.56    0.14
  -4  -5   1   15.53    0.58
  -4  -5   1   16.66    0.59
  -3  -5   1    5.39    0.25
  -3  -5   1    5.45    0.25
  -2  -5   1   16.22    0.58
  -2  -5   1   14.71    0.57
   2   5  -1   15.34    0.55
  -1  -5   1   13.38    0.50
  -1  -5   1   12.16    0.49
   1   5  -1   12.04    0.47
   0  -5   1    1.71    0.14
   0   5  -1    1.87    0.13
   1  -5   1    3.70    0.21
  -1   5  -1    3.45    0.20
   2  -5   1    0.54    0.10
  -2   5  -1    0.56    0.10
  -3   5  -1   11.38    0.48
   4  -5   1    0.15    0.07
  -4   5  -1    0.14    0.08
   5  -5   1    1.28    0.16
  -5   5  -1    1.04    0.15
  -6   5  -1    2.85    0.24
  -7   5  -1    1.07    0.17
  -8   5  -1   -0.11    0.08
  -7  -6   1    4.04    0.29
  -7  -6   1    4.26    0.19
   7   6  -1    4.10    0.34
  -6  -6   1   17.02    0.62
  -6  -6   1   17.63    0.69
  -5  -6   1    0.21    0.06
  -4  -6   1   73.05    2.42
  -3  -6   1    1.36    0.13
  -2  -6   1  104.12    3.45
  -2  -6   1  108.48    3.46
   2   6  -1  102.34    3.42
  -1  -6   1   10.85    0.45
   1   6  -1   10.69    0.43
   0  -6   1   96.61    3.27
   0   6  -1  101.00    3.26
   1  -6   1    0.20    0.07
  -1   6  -1    0.34    0.08
   2  -6   1   37.48    1.34
  -2   6  -1   37.61    1.34
   3  -6   1   10.36    0.46
  -3   6  -1    9.11    0.45
   4  -6   1   15.99    0.66
  -4   6  -1   16.07    0.68
   5  -6   1    0.28    0.10
  -5   6  -1    0.30    0.11
  -6   6  -1    4.55    0.32
  -7   6  -1    2.87    0.27
  -6  -7   1    0.63    0.09
  -6  -7   1    0.68    0.16
  -5  -7   1    0.21    0.07
  -4  -7   1    1.16    0.13
  -3  -7   1    3.75    0.23
  -2  -7   1   18.20    0.71
  -1  -7   1    1.44    0.16
   1   7  -1    1.35    0.13
   0  -7   1   24.14    0.95
   0   7  -1   26.90    0.95
   1  -7   1   17.98    0.72
  -1   7  -1   17.31    0.70
   2  -7   1   24.78    0.95
  -2   7  -1   24.59    0.94
   3  -7   1    1.98    0.20
  -3   7  -1    1.96    0.20
   4  -7   1    5.39    0.34
  -4   7  -1    6.01    0.36
   5  -7   1    8.46    0.46
  -5   7  -1    9.21    0.48
  -6   7  -1    0.90    0.17
  -5  -8   1    2.89    0.20
  -4  -8   1    0.70    0.12
  -3  -8   1    9.63    0.45
  -2  -8   1    0.81    0.13
  -1  -8   1    7.00    0.37
   0  -8   1    4.74    0.30
   0   8  -1    4.42    0.27
   1  -8   1   10.77    0.52
  -1   8  -1   10.91    0.50
   2  -8   1   10.22    0.51
  -2   8  -1   10.21    0.49
   3  -8   1    0.05    0.08
  -3   8  -1    0.15    0.09
   4  -8   1   14.68    0.67
  -4   8  -1   14.50    0.67
  -5   8  -1    2.36    0.27
  -4  -9   1    2.19    0.20
  -3  -9   1    0.71    0.13
  -2  -9   1    5.63    0.34
  -1  -9   1    2.82    0.24
   0  -9   1    1.81    0.22
   1  -9   1    1.02    0.17
   2  -9   1   10.87    0.55
  -2   9  -1   11.30    0.54
   3  -9   1    3.09    0.28
  -3   9  -1    2.79    0.27
   4  -9   1    9.94    0.54
  -4   9  -1   10.42    0.55
  -1 -10   1    2.59    0.26
   0 -10   1    0.14    0.11
   1 -10   1    0.08    0.11
   2 -10  -2    6.64    0.43
   1 -10  -2    0.23    0.12
   0 -10  -2    1.79    0.24
  -1 -10  -2   10.27    0.54
  -2 -10  -2    5.35    0.36
  -4   9   2    0.09    0.10
   4  -9  -2    0.13    0.11
  -3   9   2    1.34    0.21
   3  -9  -2    1.20    0.19
  -2   9   2   13.38    0.63
   2  -9  -2   14.28    0.65
  -1   9   2    3.53    0.27
   1  -9  -2    3.89    0.29
   0  -9  -2    0.18    0.10
  -1  -9  -2    0.26    0.10
  -2  -9  -2   11.87    0.56
  -3  -9  -2    2.60    0.23
  -4  -9  -2    0.11    0.08
  -5   8   2    3.65    0.30
  -4   8   2    0.55    0.14
   4  -8  -2    0.47    0.13
  -3   8   2    0.10    0.08
   3  -8  -2    0.03    0.08
  -2   8   2    8.62    0.44
   2  -8  -2    8.84    0.45
  -1   8   2    5.87    0.34
   1  -8  -2    5.97    0.35
   0   8   2    2.32    0.20
   0  -8  -2    2.15    0.20
  -1  -8  -2    0.34    0.10
  -2  -8  -2   10.93    0.51
  -3  -8  -2    1.16    0.16
  -4  -8  -2    0.05    0.07
  -5  -8  -2    0.28    0.10
  -6   7   2    0.09    0.10
  -5   7   2   11.09    0.54
  -4   7   2   11.66    0.55
   4  -7  -2   12.06    0.55
  -3   7   2    0.90    0.14
   3  -7  -2    0.81    0.14
  -2   7   2    0.12    0.08
   2  -7  -2    0.22    0.09
  -1   7   2   14.23    0.60
   1  -7  -2   14.40    0.61
   0   7   2   15.19    0.62
   0  -7  -2   15.52    0.64
   1   7   2    3.96    0.23
  -1  -7  -2    3.93    0.25
   2   7   2    2.24    0.16
  -2  -7  -2    2.31    0.19
  -3  -7  -2   16.37    0.66
  -4  -7  -2    4.05    0.25
  -5  -7  -2    7.55    0.37
  -6  -7  -2    1.40    0.20
  -6  -7  -2    1.31    0.15
  -7   6   2    4.31    0.31
  -6   6   2    0.05    0.08
  -5   6   2    0.02    0.07
  -4   6   2    5.99    0.33
   4  -6  -2    5.70    0.32
  -3   6   2   13.28    0.56
   3  -6  -2   12.75    0.55
  -2   6   2    0.28    0.08
   2  -6  -2    0.46    0.09
  -1   6   2    0.17    0.07
   1  -6  -2    0.02    0.05
   0   6   2    7.74    0.35
   0  -6  -2    7.36    0.36
   1   6   2    2.34    0.16
  -1  -6  -2    2.06    0.17
   2   6   2    0.85    0.10
  -2  -6  -2    0.65    0.10
   3   6   2    0.43    0.07
  -3  -6  -2    0.26    0.07
  -4  -6  -2   16.64    0.64
  -5  -6  -2    0.03    0.05
  -6  -6  -2    1.03    0.16
  -6  -6  -2    1.24    0.14
   7   6   2    0.07    0.11
  -7  -6  -2    0.13    0.07
  -7  -6  -2    0.11    0.10
  -7   5   2    5.42    0.34
  -6   5   2    0.60    0.12
  -5   5   2    0.37    0.10
   5  -5  -2    0.36    0.08
  -4   5   2    4.70    0.27
   4  -5  -2    4.72    0.26
  -3   5   2    5.01    0.27
   3  -5  -2    4.62    0.25
  -2   5   2    0.21    0.06
   2  -5  -2    0.15    0.05
  -1   5   2    4.34    0.23
   1  -5  -2    4.05    0.23
   0   5   2   20.21    0.73
   0  -5  -2   19.60    0.74
   1   5   2    2.57    0.16
  -1  -5  -2    2.68    0.17
   2   5   2    6.27    0.28
  -2  -5  -2    6.43    0.30
  -2  -5  -2    6.98    0.30
   3   5   2    0.99    0.09
  -3  -5  -2    0.70    0.09
  -3  -5  -2    1.00    0.10
  -4  -5  -2   30.45    1.07
  -5  -5  -2    2.45    0.19
  -5  -5  -2    1.92    0.15
   6   5   2    1.56    0.21
  -6  -5  -2    2.03    0.15
  -6  -5  -2    2.30    0.19
   7   5   2    0.72    0.16
  -7  -5  -2    0.72    0.10
  -7  -5  -2    0.89    0.16
  -8   4   2    2.47    0.22
  -7   4   2    4.01    0.27
  -6   4   2   10.84    0.49
  -5   4   2    0.16    0.07
   5  -4  -2    0.21    0.06
  -4   4   2   10.80    0.46
   4  -4  -2   10.61    0.44
  -3   4   2   25.42    0.92
   3  -4  -2   25.36    0.90
  -2   4   2    8.70    0.38
   2  -4  -2    9.72    0.38
  -1   4   2   14.89    0.56
   1  -4  -2   14.79    0.56
   0   4   2    0.72    0.09
   0  -4  -2    0.42    0.07
   1   4   2   84.17    2.68
  -1  -4  -2   79.43    2.68
   2   4   2    7.62    0.30
  -2  -4  -2    7.48    0.31
  -2  -4  -2    6.87    0.30
   3   4   2   33.51    1.13
  -3  -4  -2   31.12    1.14
  -3  -4  -2   35.87    1.15
   4   4   2    0.91    0.07
  -4  -4  -2    0.98    0.10
  -4  -4  -2    0.89    0.10
  -5  -4  -2   18.73    0.71
  -5  -4  -2   20.74    0.72
  -5  -4  -2   19.77    0.72
   6   4   2    7.44    0.43
  -6  -4  -2    7.58    0.33
  -6  -4  -2    8.03    0.37
   7   4   2    8.04    0.46
  -7  -4  -2    7.96    0.35
   8   4   2    0.06    0.10
  -8  -4  -2    0.06    0.05
  -8   3   2    0.13    0.08
  -7   3   2    0.93    0.13
  -6   3   2    0.17    0.08
  -5   3   2    4.42    0.25
  -5   3   2    5.45    0.27
   5  -3  -2    4.94    0.23
  -4   3   2    0.14    0.05
  -4   3   2    0.08    0.04
  -4   3   2    0.10    0.05
   4  -3  -2    0.17    0.05
  -3   3   2    4.47    0.23
  -3   3   2    5.10    0.23
   3  -3  -2    4.50    0.22
  -2   3   2    0.56    0.08
   2  -3  -2    0.53    0.07
  -1   3   2    5.89    0.26
   1  -3  -2    6.20    0.26
   0   3   2   18.81    0.66
   0  -3  -2   18.32    0.66
   1   3   2    0.32    0.05
  -1  -3  -2    0.15    0.04
  -1  -3  -2    0.25    0.05
   2   3   2   31.68    1.08
  -2  -3  -2   31.55    1.09
  -2  -3  -2   33.33    1.09
   3   3   2   14.86    0.54
  -3  -3  -2   15.92    0.55
  -3  -3  -2   15.12    0.55
   4   3   2   11.45    0.42
  -4  -3  -2   12.20    0.44
  -4  -3  -2   11.29    0.44
  -4  -3  -2   11.56    0.44
   5   3   2    1.93    0.18
  -5  -3  -2    1.86    0.13
  -5  -3  -2    1.98    0.16
  -5  -3  -2    2.17    0.13
   6   3   2    7.36    0.41
  -6  -3  -2    7.24    0.31
   7   3   2    0.31    0.12
  -7  -3  -2    0.20    0.06
   8   3   2    0.31    0.12
  -8  -3  -2    0.17    0.06
  -8   2   2    0.81    0.12
  -7   2   2    1.38    0.14
  -6   2   2    1.36    0.13
  -5   2   2   20.27    0.72
  -5   2   2   18.47    0.71
   5  -2  -2   19.72    0.68
  -4   2   2   12.45    0.49
  -4   2   2   13.56    0.49
  -4   2   2   12.68    0.53
   4  -2  -2   13.00    0.47
  -3   2   2    0.67    0.07
  -3   2   2    1.10    0.09
  -3   2   2    1.08    0.09
   3  -2  -2    1.00    0.08
  -2   2   2   25.55    0.83
  -2   2   2   23.13    0.82
   2  -2  -2   23.52    0.82
  -1   2   2   58.38    2.01
  -1   2   2   64.89    2.01
   1  -2  -2   61.30    2.00
   0   2   2  143.70    4.74
   0  -2  -2  149.03    4.65
   0  -2  -2  140.55    4.69
   1   2   2    8.03    0.30
  -1  -2  -2    7.79    0.30
   2   2   2   24.55    0.84
  -2  -2  -2   24.52    0.84
  -2  -2  -2   25.40    0.84
   3   2   2    7.08    0.28
  -3  -2  -2    7.35    0.29
  -3  -2  -2    7.67    0.29
  -3  -2  -2    6.98    0.28
   4   2   2    9.27    0.34
   4   2   2    8.72    0.42
  -4  -2  -2    9.00    0.35
  -4  -2  -2    9.05    0.36
  -4  -2  -2    9.53    0.35
   5   2   2    1.32    0.17
  -5  -2  -2    1.13    0.10
  -5  -2  -2    1.17    0.10
   6   2   2    4.31    0.29
  -6  -2  -2    4.24    0.21
   7   2   2    0.13    0.09
  -7  -2  -2    0.09    0.05
   8   2   2    1.29    0.22
  -8  -2  -2    0.98    0.12
  -9   1   2   -0.02    0.05
  -8   1   2   12.28    0.49
  -7   1   2    0.71    0.10
  -6   1   2   15.44    0.56
  -6   1   2   14.26    0.55
  -5   1   2    4.97    0.23
  -5   1   2    5.06    0.23
  -4   1   2    9.02    0.33
  -4   1   2    7.81    0.33
  -4   1   2    9.26    0.38
   4  -1  -2    8.62    0.31
  -3   1   2    0.75    0.06
  -3   1   2    0.55    0.06
  -3   1   2    0.41    0.06
   3  -1  -2    0.44    0.04
  -2   1   2   54.96    1.69
  -2   1   2   48.81    1.83
  -2   1   2   52.41    1.69
   2  -1  -2   51.33    1.68
  -1   1   2   89.31    2.76
  -1   1   2   83.50    2.76
   1  -1  -2   84.05    2.76
   0   1   2   15.60    0.51
   0   1   2   13.39    0.51
   0  -1  -2   13.96    0.51
   0  -1  -2   15.39    0.51
   1   1   2   19.02    0.65
  -1  -1  -2   19.03    0.65
   2   1   2  118.78    4.37
   2   1   2  126.78    4.04
  -2  -1  -2  123.38    3.73
  -2  -1  -2  122.59    4.00
  -2  -1  -2  130.31    4.00
   3   1   2   49.94    1.64
   3   1   2   49.03    1.82
  -3  -1  -2   53.26    1.65
  -3  -1  -2   48.11    1.64
   4   1   2   20.49    0.80
   4   1   2   19.61    0.68
  -4  -1  -2   19.52    0.70
  -4  -1  -2   20.53    0.70
  -4  -1  -2   19.90    0.70
   5   1   2   13.83    0.62
   5   1   2   14.23    0.50
  -5  -1  -2   14.48    0.52
  -5  -1  -2   14.49    0.52
  -5  -1  -2   14.02    0.52
   6   1   2    2.74    0.23
  -6  -1  -2    3.01    0.17
  -6  -1  -2    2.86    0.17
  -6  -1  -2    2.81    0.17
   7   1   2   19.10    0.83
  -7  -1  -2   17.86    0.68
   8   1   2    0.23    0.12
  -8  -1  -2    0.13    0.06
  -9  -1  -2    7.00    0.34
  -9   0   2    1.35    0.12
  -8   0   2    0.94    0.10
  -7   0   2    1.75    0.12
  -6   0   2    3.55    0.17
  -6   0   2    3.73    0.17
   6   0  -2    3.76    0.24
  -5   0   2    7.77    0.29
  -5   0   2    7.71    0.29
   5   0  -2    7.64    0.37
  -4   0   2    2.59    0.12
  -4   0   2    2.74    0.12
   4   0  -2    2.47    0.16
   4   0  -2    2.59    0.14
  -3   0   2    0.05    0.02
  -3   0   2    0.08    0.02
   3   0  -2    0.07    0.03
   3   0  -2    0.01    0.03
  -2   0   2   35.70    1.18
  -2   0   2   37.21    1.18
   2   0  -2   37.16    1.18
   2   0  -2   35.73    1.11
   2   0  -2   35.63    1.30
  -1   0   2   11.82    0.40
  -1   0   2   12.07    0.40
   1   0  -2   11.66    0.39
   1   0  -2   11.79    0.40
   1   0  -2   11.07    0.36
   0   0   2    2.55    0.13
   0   0  -2    2.58    0.13
   0   0  -2    2.57    0.13
   1   0   2   10.70    0.38
   1   0   2   10.83    0.38
   1   0   2   10.39    0.40
  -1   0  -2   10.50    0.38
  -1   0  -2   10.43    0.37
  -1   0  -2   10.82    0.38
  -1   0  -2   10.86    0.40
   2   0   2   35.64    1.16
   2   0   2   33.54    1.07
   2   0   2   35.05    1.27
  -2   0  -2   33.48    1.26
  -2   0  -2   34.16    1.16
  -2   0  -2   36.05    1.16
   3   0   2    6.47    0.26
   3   0   2    6.93    0.31
   3   0   2    6.51    0.26
  -3   0  -2    6.83    0.31
  -3   0  -2    7.28    0.27
  -3   0  -2    6.82    0.27
   4   0   2    1.71    0.15
   4   0   2    1.84    0.12
   4   0   2    1.94    0.11
  -4   0  -2    1.86    0.12
  -4   0  -2    1.69    0.12
   5   0   2    1.21    0.15
   5   0   2    1.40    0.10
  -5   0  -2    1.19    0.10
  -5   0  -2    1.28    0.11
  -6   0  -2    0.07    0.05
  -7   0  -2    0.11    0.06
  -8   0  -2    0.20    0.08
  -9   0  -2    1.24    0.16
  -8  -1   2    2.52    0.13
   8   1  -2    2.78    0.25
  -7  -1   2   25.91    0.83
  -7  -1   2   23.95    0.83
   7   1  -2   24.72    1.03
  -6  -1   2   12.85    0.45
  -6  -1   2   13.55    0.45
   6   1  -2   12.89    0.58
  -5  -1   2   39.77    1.33
  -5  -1   2   43.10    1.33
   5   1  -2   40.40    1.53
  -4  -1   2   56.73    1.87
  -4  -1   2   60.66    1.87
   4   1  -2   57.76    2.11
  -3  -1   2  116.14    3.69
  -3  -1   2  114.02    3.69
  -2  -1   2  182.58    5.91
  -2  -1   2  179.18    5.54
  -2  -1   2  189.83    5.93
  -1  -1   2   63.17    2.13
  -1  -1   2   69.13    2.14
   1   1  -2   66.15    2.17
   0  -1   2   24.49    0.80
   0  -1   2   23.18    0.80
   0   1  -2   24.13    0.80
   1  -1   2  116.85    4.03
   1  -1   2  130.05    4.04
  -1   1  -2  129.49    4.08
  -1   1  -2  125.33    4.08
   2  -1   2   44.62    1.49
  -2   1  -2   46.43    1.49
  -2   1  -2   43.84    1.62
  -2   1  -2   45.39    1.49
   3  -1   2    5.83    0.25
  -3   1  -2    5.99    0.25
  -3   1  -2    6.38    0.29
  -3   1  -2    5.77    0.25
   4  -1   2    7.03    0.29
  -4   1  -2    7.00    0.29
  -4   1  -2    6.46    0.29
   5  -1   2   18.14    0.66
  -5   1  -2   19.36    0.68
  -5   1  -2   17.38    0.67
  -6   1  -2   15.76    0.60
  -7   1  -2    0.06    0.06
  -8   1  -2    8.96    0.42
  -9   1  -2    0.37    0.10
   8   2  -2    0.68    0.15
   7   2  -2    1.38    0.19
   6   2  -2    9.72    0.47
   5   2  -2    4.20    0.25
  -4  -2   2   31.46    1.02
  -3  -2   2    3.07    0.15
  -3  -2   2    2.97    0.12
  -3  -2   2    3.22    0.12
  -2  -2   2  126.12    3.99
  -2  -2   2  121.77    4.00
  -1  -2   2   20.72    0.71
  -1  -2   2   21.75    0.71
   1   2  -2   20.60    0.70
   0  -2   2  276.31    8.95
   0  -2   2  276.27    9.08
   0   2  -2  282.15    9.05
   1  -2   2    2.18    0.12
  -1   2  -2    2.03    0.12
   2  -2   2   35.48    1.21
  -2   2  -2   36.39    1.21
   3  -2   2    2.64    0.16
  -3   2  -2    2.91    0.16
   4  -2   2    8.15    0.33
  -4   2  -2    7.23    0.33
   5  -2   2    8.84    0.37
  -5   2  -2    8.43    0.37
  -6   2  -2    0.88    0.12
  -7   2  -2    0.00    0.05
  -8   2  -2    0.68    0.12
   8   3  -2    0.40    0.12
   7   3  -2    0.10    0.08
   6   3  -2   12.84    0.59
  -5  -3   2    2.87    0.18
  -4  -3   2    7.87    0.28
  -4  -3   2    8.16    0.28
  -4  -3   2    7.48    0.32
  -3  -3   2   19.42    0.64
  -3  -3   2   18.64    0.64
  -2  -3   2    7.03    0.26
  -2  -3   2    6.52    0.26
   2   3  -2    6.74    0.24
  -1  -3   2   26.68    0.88
  -1  -3   2   25.10    0.88
   1   3  -2   26.04    0.87
   0  -3   2    2.51    0.14
   0   3  -2    2.48    0.13
   1  -3   2   75.79    2.47
  -1   3  -2   74.75    2.46
   2  -3   2   11.45    0.44
  -2   3  -2   10.75    0.43
   3  -3   2    5.75    0.27
  -3   3  -2    5.86    0.27
   4  -3   2    0.55    0.09
  -4   3  -2    0.58    0.09
   5  -3   2   19.11    0.71
  -5   3  -2   18.09    0.71
  -6   3  -2    0.80    0.12
  -7   3  -2    0.28    0.09
  -8   3  -2    0.83    0.15
   8   4  -2    0.50    0.15
   7   4  -2    4.37    0.31
  -6  -4   2    5.71    0.30
  -5  -4   2   12.64    0.43
  -5  -4   2   12.24    0.48
  -5  -4   2   11.57    0.42
  -4  -4   2    0.80    0.07
  -4  -4   2    0.82    0.07
  -3  -4   2   32.34    1.06
  -3  -4   2   30.83    1.06
  -2  -4   2    2.21    0.13
  -2  -4   2    2.14    0.13
   2   4  -2    2.17    0.11
  -1  -4   2   82.02    2.77
  -1  -4   2   88.40    2.78
   1   4  -2   84.34    2.77
   0  -4   2    0.90    0.10
   0   4  -2    0.55    0.07
   1  -4   2   48.99    1.67
  -1   4  -2   50.34    1.67
   2  -4   2   30.67    1.06
  -2   4  -2   29.60    1.06
   3  -4   2   73.15    2.46
  -3   4  -2   73.95    2.46
   4  -4   2   22.21    0.85
  -4   4  -2   23.34    0.86
   5  -4   2    7.64    0.37
  -5   4  -2    7.58    0.38
  -6   4  -2   15.93    0.66
  -7   4  -2   12.79    0.58
  -8   4  -2    1.90    0.23
   7   5  -2    1.39    0.20
  -6  -5   2    5.52    0.23
  -6  -5   2    6.00    0.32
  -6  -5   2    6.74    0.26
  -5  -5   2    3.88    0.24
  -5  -5   2    3.64    0.18
  -5  -5   2    3.98    0.18
  -4  -5   2   34.57    1.15
  -4  -5   2   33.18    1.15
  -3  -5   2    2.74    0.15
  -3  -5   2    2.46    0.15
  -2  -5   2    0.99    0.10
  -2  -5   2    1.19    0.10
   2   5  -2    1.35    0.09
  -1  -5   2    3.17    0.19
  -1  -5   2    3.72    0.20
   1   5  -2    3.50    0.18
   0  -5   2    8.40    0.37
   0   5  -2    8.68    0.36
   1  -5   2    1.75    0.15
  -1   5  -2    1.62    0.13
   2  -5   2    0.53    0.10
  -2   5  -2    0.53    0.10
   3  -5   2    0.44    0.10
  -3   5  -2    0.32    0.08
   4  -5   2    8.94    0.42
  -4   5  -2    8.69    0.42
   5  -5   2    5.99    0.33
  -5   5  -2    6.00    0.34
  -6   5  -2    2.45    0.22
  -7   5  -2    0.81    0.15
  -7  -6   2    0.24    0.11
  -7  -6   2    0.19    0.04
  -6  -6   2    0.29    0.11
  -6  -6   2    0.28    0.06
  -5  -6   2    0.12    0.05
  -4  -6   2    4.79    0.24
  -3  -6   2    1.88    0.14
  -2  -6   2    5.18    0.26
   2   6  -2    5.18    0.24
  -1  -6   2    0.02    0.05
   1   6  -2    0.05    0.04
   0  -6   2    9.48    0.43
   0   6  -2    9.70    0.41
   1  -6   2    0.55    0.11
  -1   6  -2    0.61    0.11
   2  -6   2    0.25    0.09
  -2   6  -2    0.40    0.09
   3  -6   2    7.58    0.38
  -3   6  -2    7.28    0.37
   4  -6   2   13.17    0.58
  -4   6  -2   13.52    0.59
   5  -6   2    0.47    0.11
  -5   6  -2    0.57    0.13
  -6   6  -2    0.12    0.09
  -7   6  -2    9.18    0.50
  -6  -7   2    5.34    0.33
  -6  -7   2    5.31    0.25
  -5  -7   2    6.03    0.29
  -4  -7   2    3.49    0.21
  -3  -7   2   12.89    0.53
  -2  -7   2    0.07    0.06
  -1  -7   2    2.34    0.19
   0  -7   2   38.37    1.41
   0   7  -2   40.65    1.40
   1  -7   2    7.39    0.38
  -1   7  -2    7.33    0.37
   2  -7   2    2.25    0.21
  -2   7  -2    2.27    0.20
   3  -7   2    0.09    0.08
  -3   7  -2   -0.04    0.06
   4  -7   2   13.17    0.60
  -4   7  -2   13.45    0.61
   5  -7   2    6.58    0.39
  -5   7  -2    7.04    0.41
  -6   7  -2    0.01    0.09
  -5  -8   2    0.00    0.06
  -4  -8   2    2.85    0.21
  -3  -8   2    1.37    0.16
  -2  -8   2    7.47    0.39
  -1  -8   2    0.20    0.09
   0  -8   2    0.07    0.08
   1  -8   2    4.61    0.31
  -1   8  -2    4.78    0.30
   2  -8   2   31.23    1.18
  -2   8  -2   30.63    1.17
   3  -8   2    0.15    0.09
  -3   8  -2    0.12    0.09
   4  -8   2    1.42    0.20
  -4   8  -2    1.94    0.24
  -5   8  -2    6.48    0.42
  -3  -9   2    1.02    0.15
  -2  -9   2   24.20    0.95
  -1  -9   2    0.31    0.11
   0  -9   2    0.33    0.12
   1  -9   2    4.70    0.34
   2  -9   2    8.94    0.49
   3  -9   2    0.20    0.12
  -3   9  -2    0.25    0.11
  -4   9  -2    5.90    0.40
   0 -10   2    6.45    0.41
   1 -10  -3    0.39    0.13
   0 -10  -3    1.60    0.21
  -1 -10  -3    2.05    0.25
  -4   9   3    1.20    0.20
  -3   9   3    1.73    0.23
   3  -9  -3    1.79    0.24
  -2   9   3    7.93    0.44
   2  -9  -3    7.57    0.44
  -1   9   3    3.93    0.28
   1  -9  -3    3.65    0.29
   0  -9  -3    9.59    0.50
  -1  -9  -3    0.13    0.10
  -2  -9  -3   15.97    0.70
  -3  -9  -3    0.13    0.09
  -4  -9  -3    5.35    0.34
  -5   8   3    0.16    0.11
  -4   8   3    0.05    0.09
   4  -8  -3    0.10    0.09
  -3   8   3    7.44    0.41
   3  -8  -3    7.15    0.41
  -2   8   3    0.34    0.11
   2  -8  -3    0.52    0.13
  -1   8   3    0.44    0.11
   1  -8  -3    0.38    0.12
   0   8   3    0.00    0.06
   0  -8  -3    0.06    0.08
   1   8   3    1.73    0.17
  -1  -8  -3    1.89    0.19
  -2  -8  -3    0.02    0.07
  -3  -8  -3    0.88    0.14
  -4  -8  -3    0.52    0.12
  -5  -8  -3    0.91    0.14
  -6   7   3    0.09    0.10
  -5   7   3    9.68    0.50
  -4   7   3    0.17    0.10
   4  -7  -3    0.25    0.10
  -3   7   3    5.72    0.34
   3  -7  -3    5.64    0.33
  -2   7   3    0.08    0.08
   2  -7  -3    0.24    0.09
  -1   7   3   42.97    1.53
   1  -7  -3   43.85    1.55
   0   7   3    0.50    0.10
   0  -7  -3    0.92    0.14
   1   7   3   20.78    0.79
  -1  -7  -3   20.66    0.81
   2   7   3    0.01    0.05
  -2  -7  -3    0.04    0.06
  -3  -7  -3   32.90    1.20
  -4  -7  -3    0.04    0.07
  -5  -7  -3    9.18    0.43
  -6  -7  -3    2.13    0.19
  -6  -7  -3    2.11    0.23
  -7   6   3    3.86    0.29
  -6   6   3    0.11    0.09
  -5   6   3   -0.03    0.06
  -4   6   3    4.05    0.28
   4  -6  -3    4.46    0.27
  -3   6   3    8.78    0.42
   3  -6  -3    8.92    0.42
  -2   6   3    8.60    0.40
   2  -6  -3    7.90    0.39
  -1   6   3    0.17    0.07
   1  -6  -3    0.23    0.08
   0   6   3   15.27    0.61
   0  -6  -3   15.23    0.62
   1   6   3   23.73    0.87
  -1  -6  -3   24.13    0.89
   2   6   3   10.45    0.43
  -2  -6  -3    9.64    0.44
   3   6   3    2.31    0.16
  -3  -6  -3    2.23    0.18
  -4  -6  -3   10.10    0.44
  -5  -6  -3    7.59    0.36
  -6  -6  -3    3.81    0.24
  -6  -6  -3    4.51    0.28
   7   6   3   -0.06    0.10
  -7  -6  -3    0.09    0.07
  -7  -6  -3    0.25    0.12
  -7   5   3    0.91    0.15
  -6   5   3    0.12    0.08
  -5   5   3    2.06    0.18
  -4   5   3    3.63    0.24
   4  -5  -3    3.81    0.23
  -3   5   3    6.93    0.35
   3  -5  -3    7.43    0.34
  -2   5   3    1.19    0.14
   2  -5  -3    1.22    0.14
  -1   5   3    1.42    0.13
   1  -5  -3    1.28    0.13
   0   5   3    1.55    0.13
   0  -5  -3    1.56    0.13
   1   5   3   13.17    0.51
  -1  -5  -3   13.37    0.53
   2   5   3    0.15    0.05
  -2  -5  -3    0.10    0.05
   3   5   3    6.43    0.29
  -3  -5  -3    6.31    0.30
  -3  -5  -3    6.94    0.31
  -4  -5  -3    2.45    0.17
  -5  -5  -3    0.14    0.07
  -5  -5  -3    0.19    0.09
   6   5   3    0.80    0.16
  -6  -5  -3    0.95    0.15
  -6  -5  -3    0.94    0.12
   7   5   3    3.60    0.30
  -7  -5  -3    3.53    0.22
  -8   4   3    0.15    0.09
  -7   4   3    5.22    0.31
  -6   4   3    5.61    0.31
  -5   4   3    2.82    0.20
  -4   4   3    0.57    0.10
   4  -4  -3    0.73    0.10
  -3   4   3   57.53    1.94
   3  -4  -3   57.20    1.92
  -2   4   3   12.69    0.50
   2  -4  -3   12.67    0.50
  -1   4   3    4.70    0.23
   1  -4  -3    4.70    0.23
   0   4   3    5.65    0.26
   0  -4  -3    5.21    0.25
   1   4   3   70.47    2.32
  -1  -4  -3   69.82    2.32
   2   4   3    2.30    0.14
  -2  -4  -3    1.88    0.14
   3   4   3    2.56    0.15
  -3  -4  -3    2.34    0.15
  -3  -4  -3    2.56    0.16
   4   4   3    1.05    0.09
  -4  -4  -3    1.08    0.11
  -4  -4  -3    1.02    0.10
   5   4   3   43.40    1.70
  -5  -4  -3   45.50    1.52
  -5  -4  -3   43.99    1.45
   6   4   3    0.14    0.09
  -6  -4  -3    0.14    0.09
  -6  -4  -3    0.07    0.06
   7   4   3    6.80    0.42
  -7  -4  -3    6.58    0.32
   8   4   3    0.46    0.15
  -8  -4  -3    0.70    0.11
  -8   3   3    0.70    0.12
  -7   3   3    0.03    0.06
  -6   3   3    7.00    0.34
  -5   3   3    9.77    0.42
   5  -3  -3   10.24    0.40
  -4   3   3    0.53    0.09
  -4   3   3    0.30    0.07
  -4   3   3    0.47    0.08
   4  -3  -3    0.43    0.07
  -3   3   3    0.67    0.09
  -3   3   3    0.55    0.08
   3  -3  -3    0.78    0.09
  -2   3   3   28.65    1.01
   2  -3  -3   29.86    1.01
  -1   3   3   86.75    2.80
   1  -3  -3   84.30    2.79
   0   3   3    8.88    0.35
   0  -3  -3    8.87    0.35
   1   3   3    0.88    0.08
  -1  -3  -3    1.03    0.09
   2   3   3   16.79    0.63
  -2  -3  -3   17.45    0.64
  -2  -3  -3   18.91    0.64
   3   3   3   28.99    1.00
  -3  -3  -3   30.96    1.01
  -3  -3  -3   27.81    1.01
   4   3   3    4.98    0.22
   4   3   3    5.01    0.29
  -4  -3  -3    4.94    0.24
  -4  -3  -3    4.99    0.24
  -4  -3  -3    5.54    0.25
   5   3   3    6.05    0.35
  -5  -3  -3    6.06    0.28
  -5  -3  -3    5.92    0.29
  -5  -3  -3    6.66    0.29
   6   3   3   16.70    0.74
  -6  -3  -3   16.01    0.62
   7   3   3    4.75    0.34
  -7  -3  -3    4.64    0.25
   8   3   3    1.86    0.25
  -8  -3  -3    2.01    0.16
  -8   2   3    0.13    0.07
  -7   2   3    0.11    0.06
  -6   2   3   16.02    0.61
  -5   2   3   10.40    0.44
  -5   2   3   12.04    0.45
   5  -2  -3   11.08    0.41
  -4   2   3    0.30    0.06
  -4   2   3    0.23    0.06
  -4   2   3    0.16    0.05
   4  -2  -3    0.39    0.05
  -3   2   3    0.40    0.06
  -3   2   3    0.45    0.06
  -3   2   3    0.54    0.07
   3  -2  -3    0.64    0.07
  -2   2   3   20.36    0.74
   2  -2  -3   22.13    0.73
  -1   2   3   22.52    0.80
  -1   2   3   24.20    0.80
   1  -2  -3   22.61    0.79
   0   2   3    0.62    0.07
   0  -2  -3    0.62    0.07
   1   2   3   59.43    1.94
  -1  -2  -3   58.67    1.94
   2   2   3   21.26    0.73
  -2  -2  -3   19.84    0.73
  -2  -2  -3   21.57    0.73
   3   2   3   13.12    0.49
   3   2   3   13.30    0.56
  -3  -2  -3   13.23    0.50
  -3  -2  -3   14.01    0.48
  -3  -2  -3   14.73    0.51
   4   2   3    2.48    0.14
   4   2   3    2.26    0.18
  -4  -2  -3    2.43    0.15
  -4  -2  -3    2.46    0.15
  -4  -2  -3    2.57    0.15
   5   2   3   11.04    0.52
   5   2   3   10.83    0.41
  -5  -2  -3   11.76    0.44
  -5  -2  -3   10.74    0.44
   6   2   3   13.56    0.61
  -6  -2  -3   12.27    0.50
   7   2   3    7.55    0.44
  -7  -2  -3    7.72    0.35
   8   2   3    0.15    0.11
  -8  -2  -3    0.04    0.06
  -8   1   3   11.36    0.46
  -7   1   3    0.71    0.09
  -6   1   3    0.33    0.06
  -6   1   3    0.41    0.07
  -5   1   3   22.66    0.84
  -5   1   3   26.11    0.85
  -4   1   3   90.07    2.86
  -4   1   3   83.82    2.85
   4  -1  -3   89.75    2.83
  -3   1   3    2.08    0.12
  -3   1   3    2.40    0.12
  -3   1   3    2.38    0.13
   3  -1  -3    2.36    0.11
  -2   1   3    2.49    0.13
  -2   1   3    2.68    0.13
  -2   1   3    2.79    0.12
   2  -1  -3    2.67    0.13
  -1   1   3  136.87    4.50
  -1   1   3  119.38    4.14
  -1   1   3  134.07    4.15
   1  -1  -3  125.29    4.14
   0   1   3   58.27    2.07
   0   1   3   62.31    1.94
   0   1   3   57.37    1.93
   0  -1  -3   59.12    1.93
   1   1   3   10.97    0.40
   1   1   3   10.86    0.41
  -1  -1  -3   10.32    0.39
  -1  -1  -3   10.81    0.35
   2   1   3    2.24    0.12
   2   1   3    2.33    0.14
  -2  -1  -3    2.13    0.13
  -2  -1  -3    2.10    0.11
  -2  -1  -3    2.43    0.13
   3   1   3  178.81    6.58
   3   1   3  187.31    6.03
  -3  -1  -3  183.62    6.03
  -3  -1  -3  200.09    6.03
   4   1   3   13.62    0.59
   4   1   3   14.13    0.51
  -4  -1  -3   14.22    0.52
  -4  -1  -3   13.38    0.52
   5   1   3    4.30    0.21
   5   1   3    4.72    0.28
  -5  -1  -3    4.73    0.23
  -5  -1  -3    4.25    0.22
   6   1   3    0.69    0.14
  -6  -1  -3    0.71    0.10
   7   1   3   41.21    1.63
  -7  -1  -3   41.52    1.44
  -8  -1  -3    3.17    0.21
  -8   0   3   11.33    0.43
  -7   0   3    7.58    0.30
  -6   0   3    2.30    0.12
  -6   0   3    2.00    0.12
   6   0  -3    2.24    0.18
  -5   0   3    0.06    0.03
  -5   0   3    0.05    0.03
   5   0  -3    0.06    0.05
  -4   0   3   36.66    1.24
  -4   0   3   39.58    1.25
   4   0  -3   37.18    1.39
   4   0  -3   38.09    1.19
  -3   0   3   35.15    1.14
  -3   0   3   34.97    1.14
   3   0  -3   34.19    1.08
   3   0  -3   34.45    1.25
  -2   0   3   41.53    1.30
  -2   0   3   38.76    1.30
   2   0  -3   37.38    1.40
   2   0  -3   39.25    1.21
   2   0  -3   41.57    1.29
  -1   0   3    2.08    0.10
  -1   0   3    1.65    0.09
   1   0  -3    1.72    0.09
   0   0   3   38.47    1.18
   0   0   3   34.60    1.18
   0   0  -3   36.39    1.18
   0   0  -3   32.84    1.25
   1   0   3   62.73    1.81
   1   0   3   60.56    1.97
  -1   0  -3   63.16    1.97
  -1   0  -3   54.54    2.12
   2   0   3    3.82    0.15
   2   0   3    3.84    0.19
  -2   0  -3    3.91    0.18
  -2   0  -3    3.79    0.18
  -2   0  -3    3.77    0.19
  -2   0  -3    4.02    0.18
   3   0   3   14.54    0.59
   3   0   3   14.43    0.49
   3   0   3   14.82    0.53
  -3   0  -3   15.30    0.59
  -3   0  -3   13.98    0.53
  -3   0  -3   15.17    0.54
   4   0   3   48.56    1.78
   4   0   3   46.09    1.60
  -4   0  -3   50.56    1.62
  -4   0  -3   47.16    1.61
   5   0   3   33.41    1.15
  -5   0  -3   32.75    1.17
  -5   0  -3   34.98    1.17
  -6   0  -3   -0.02    0.04
  -7   0  -3    3.71    0.23
  -8   0  -3    7.92    0.38
   8   1  -3    8.57    0.47
  -7  -1   3    9.01    0.34
  -7  -1   3    9.75    0.34
   7   1  -3   10.34    0.49
  -6  -1   3    9.61    0.34
  -6  -1   3   10.34    0.35
   6   1  -3    9.80    0.46
  -5  -1   3    0.67    0.05
  -5  -1   3    0.55    0.05
   5   1  -3    0.69    0.11
  -4  -1   3   35.40    1.15
  -4  -1   3   36.83    1.15
   4   1  -3   33.87    1.30
  -3  -1   3   24.72    0.80
  -3  -1   3   24.01    0.80
  -2  -1   3   17.09    0.55
  -2  -1   3   17.06    0.58
  -2  -1   3   17.56    0.58
   2   1  -3   17.44    0.57
  -1  -1   3    7.09    0.26
  -1  -1   3    6.63    0.26
   1   1  -3    6.92    0.25
   0  -1   3  241.64    7.90
   0  -1   3  248.11    7.89
   0   1  -3  237.54    7.89
   1  -1   3   57.01    1.85
  -1   1  -3   55.74    1.85
   2  -1   3    2.07    0.12
  -2   1  -3    1.98    0.12
  -2   1  -3    1.95    0.12
   3  -1   3   10.88    0.41
  -3   1  -3   10.66    0.45
  -3   1  -3   10.66    0.42
   4  -1   3   75.22    2.49
  -4   1  -3   76.06    2.50
   5  -1   3   23.18    0.83
  -5   1  -3   22.97    0.84
  -6   1  -3    0.37    0.08
  -7   1  -3    8.39    0.39
  -8   1  -3    9.43    0.45
   8   2  -3    0.26    0.11
   7   2  -3   10.93    0.53
   6   2  -3   49.69    1.86
   5   2  -3    0.06    0.05
  -4  -2   3    9.79    0.37
  -4  -2   3    9.53    0.33
  -4  -2   3    9.99    0.33
  -3  -2   3   67.45    2.23
  -3  -2   3   68.56    2.11
  -3  -2   3   71.45    2.23
  -2  -2   3   84.25    2.79
  -2  -2   3   87.72    2.79
   2   2  -3   87.29    2.77
  -1  -2   3    5.89    0.23
  -1  -2   3    5.52    0.23
   1   2  -3    5.65    0.22
   0  -2   3   41.12    1.39
   0  -2   3   43.70    1.39
   0   2  -3   40.63    1.38
   1  -2   3  138.26    4.47
  -1   2  -3  138.86    4.47
   2  -2   3  120.03    3.93
  -2   2  -3  122.05    3.93
   3  -2   3    0.64    0.08
  -3   2  -3    0.66    0.09
  -3   2  -3    0.73    0.10
   4  -2   3    2.18    0.15
  -4   2  -3    2.01    0.15
   5  -2   3   58.91    1.96
  -5   2  -3   57.06    1.96
  -6   2  -3   28.21    1.03
  -7   2  -3    0.00    0.06
  -8   2  -3    1.51    0.19
   8   3  -3    3.32    0.28
   7   3  -3    3.31    0.26
   6   3  -3   14.22    0.64
  -5  -3   3   17.53    0.63
  -4  -3   3   27.09    0.88
  -4  -3   3   25.86    0.87
  -4  -3   3   26.56    0.88
  -3  -3   3    4.59    0.18
  -3  -3   3    4.26    0.18
  -2  -3   3  107.71    3.65
  -2  -3   3  118.00    3.66
   2   3  -3  114.39    3.64
  -1  -3   3   50.03    1.64
  -1  -3   3   49.04    1.64
   1   3  -3   49.77    1.63
   0  -3   3    6.84    0.28
   0  -3   3    6.05    0.27
   0   3  -3    6.72    0.27
   1  -3   3    4.35    0.21
  -1   3  -3    4.25    0.21
   2  -3   3  161.34    5.27
  -2   3  -3  163.99    5.27
   3  -3   3   36.88    1.28
  -3   3  -3   37.12    1.28
   4  -3   3    6.91    0.33
  -4   3  -3    7.12    0.33
   5  -3   3    6.53    0.32
  -5   3  -3    6.18    0.32
  -6   3  -3   18.88    0.75
  -7   3  -3   10.06    0.48
  -8   3  -3    3.86    0.28
   8   4  -3    3.61    0.30
   7   4  -3    0.05    0.08
  -6  -4   3   23.71    0.85
  -5  -4   3   45.01    1.42
  -5  -4   3   42.37    1.41
  -5  -4   3   42.49    1.41
  -4  -4   3    4.86    0.20
  -4  -4   3    4.70    0.20
  -3  -4   3    1.01    0.09
  -3  -4   3    0.96    0.08
  -2  -4   3  135.38    4.57
  -2  -4   3  147.14    4.58
   2   4  -3  141.96    4.55
  -1  -4   3   47.38    1.55
  -1  -4   3   45.25    1.55
   1   4  -3   45.86    1.54
   0  -4   3   17.27    0.62
   0   4  -3   15.89    0.61
   1  -4   3   12.42    0.50
  -1   4  -3   12.84    0.50
   2  -4   3   68.78    2.35
  -2   4  -3   72.25    2.36
   3  -4   3   17.50    0.69
  -3   4  -3   18.43    0.69
   4  -4   3   22.84    0.86
  -4   4  -3   23.20    0.87
   5  -4   3   10.50    0.48
  -5   4  -3   10.93    0.49
  -6   4  -3   18.70    0.76
  -7   4  -3    6.26    0.37
  -8   4  -3    1.27    0.19
   7   5  -3    6.55    0.41
  -6  -5   3    1.75    0.09
  -6  -5   3    1.38    0.17
  -5  -5   3   17.64    0.60
  -5  -5   3   16.02    0.63
  -5  -5   3   15.85    0.58
  -4  -5   3   53.66    1.85
  -4  -5   3   58.37    1.86
  -3  -5   3    8.76    0.35
  -3  -5   3    8.10    0.35
  -2  -5   3    3.93    0.20
  -2  -5   3    3.59    0.20
   2   5  -3    3.80    0.18
  -1  -5   3   51.67    1.71
  -1  -5   3   50.37    1.71
   1   5  -3   49.57    1.69
   0  -5   3  138.50    4.45
   0   5  -3  134.20    4.43
   1  -5   3    0.42    0.08
  -1   5  -3    0.63    0.10
   2  -5   3    5.91    0.31
  -2   5  -3    6.30    0.31
   3  -5   3   60.61    2.03
  -3   5  -3   57.51    2.02
   4  -5   3   40.86    1.48
  -4   5  -3   42.15    1.48
   5  -5   3    0.22    0.09
  -5   5  -3    0.29    0.10
  -6   5  -3   12.98    0.60
  -7   5  -3   21.13    0.88
  -6  -6   3    6.80    0.35
  -6  -6   3    5.93    0.25
  -5  -6   3   15.14    0.56
  -4  -6   3   35.20    1.21
  -3  -6   3   10.32    0.43
  -2  -6   3    8.94    0.39
  -1  -6   3   27.53    1.00
   1   6  -3   27.38    0.98
   0  -6   3   46.36    1.66
   0   6  -3   49.60    1.65
   1  -6   3   15.58    0.64
  -1   6  -3   15.36    0.62
   2  -6   3   30.10    1.14
  -2   6  -3   31.59    1.13
   3  -6   3   10.22    0.47
  -3   6  -3    9.45    0.46
   4  -6   3   18.62    0.77
  -4   6  -3   18.96    0.78
   5  -6   3   14.52    0.64
  -5   6  -3   14.27    0.65
  -6   6  -3    7.55    0.44
  -7   6  -3    1.02    0.19
  -6  -7   3    0.07    0.05
  -6  -7   3    0.06    0.10
  -5  -7   3    0.32    0.07
  -4  -7   3   38.31    1.34
  -3  -7   3   57.29    1.95
  -2  -7   3    7.45    0.36
  -1  -7   3    0.27    0.09
   0  -7   3   35.48    1.30
   0   7  -3   36.21    1.28
   1  -7   3   55.00    1.95
  -1   7  -3   56.74    1.94
   2  -7   3    8.72    0.43
  -2   7  -3    7.87    0.41
   3  -7   3    0.55    0.13
  -3   7  -3    0.91    0.16
   4  -7   3   37.51    1.35
  -4   7  -3   34.20    1.33
   5  -7   3   12.08    0.58
  -5   7  -3   12.16    0.59
  -6   7  -3    0.73    0.16
  -4  -8   3    0.59    0.11
  -3  -8   3   15.76    0.65
  -2  -8   3   52.92    1.85
  -1  -8   3   13.52    0.60
   0  -8   3    2.30    0.22
   1  -8   3   11.57    0.55
   2  -8   3   22.75    0.94
  -2   8  -3   23.94    0.94
   3  -8   3    9.87    0.52
  -3   8  -3   10.68    0.53
   4  -8   3    6.66    0.41
  -4   8  -3    6.38    0.40
  -5   8  -3    5.12    0.37
  -3  -9   3   17.26    0.72
  -2  -9   3    7.66    0.42
  -1  -9   3    6.95    0.40
   0  -9   3   13.45    0.63
   1  -9   3   16.61    0.74
   2  -9   3   10.28    0.54
   3  -9   3    2.22    0.26
  -3   9   4   12.69    0.63
   3  -9  -4   13.02    0.63
  -2   9   4   10.66    0.55
   2  -9  -4   11.32    0.56
  -1   9   4    1.61    0.21
   1  -9  -4    1.82    0.23
   0  -9  -4    0.08    0.09
  -1  -9  -4   11.64    0.57
  -2  -9  -4   14.78    0.67
  -3  -9  -4    2.39    0.24
  -5   8   4   12.69    0.63
  -4   8   4    5.91    0.38
  -3   8   4    0.41    0.13
   3  -8  -4    0.20    0.10
  -2   8   4    3.69    0.28
   2  -8  -4    3.97    0.29
  -1   8   4   50.34    1.77
   1  -8  -4   49.10    1.78
   0   8   4    5.53    0.32
   0  -8  -4    4.90    0.32
   1   8   4    0.09    0.07
  -1  -8  -4    0.07    0.08
  -2  -8  -4   14.04    0.63
  -3  -8  -4   31.00    1.17
  -4  -8  -4    0.75    0.15
  -5  -8  -4    1.06    0.16
  -6   7   4    2.17    0.27
  -5   7   4   10.17    0.52
  -4   7   4   10.68    0.52
   4  -7  -4   10.46    0.51
  -3   7   4    7.63    0.41
   3  -7  -4    8.18    0.41
  -2   7   4   11.71    0.54
   2  -7  -4   12.03    0.54
  -1   7   4    9.22    0.44
   1  -7  -4    8.97    0.44
   0   7   4    6.80    0.35
   0  -7  -4    6.55    0.36
   1   7   4   29.96    1.11
  -1  -7  -4   30.83    1.13
   2   7   4   13.98    0.58
  -2  -7  -4   14.41    0.61
  -3  -7  -4   11.97    0.53
  -4  -7  -4    8.60    0.42
  -5  -7  -4    8.62    0.43
   6   7   4    3.00    0.31
  -6  -7  -4    3.45    0.27
  -6  -7  -4    3.19    0.24
  -6   6   4    0.48    0.13
  -5   6   4    4.29    0.30
  -4   6   4   34.11    1.29
   4  -6  -4   36.02    1.27
  -3   6   4   15.71    0.67
   3  -6  -4   16.71    0.67
  -2   6   4    2.25    0.19
   2  -6  -4    2.08    0.18
  -1   6   4   30.83    1.10
   1  -6  -4   29.05    1.09
   0   6   4   72.11    2.45
   0  -6  -4   73.75    2.46
   1   6   4    4.19    0.24
  -1  -6  -4    3.86    0.24
   2   6   4    0.52    0.09
  -2  -6  -4    0.48    0.10
   3   6   4   82.87    2.78
  -3  -6  -4   84.43    2.81
  -4  -6  -4   58.03    1.99
  -5  -6  -4    0.10    0.08
  -5  -6  -4    0.11    0.08
   6   6   4    0.09    0.11
  -6  -6  -4    0.08    0.09
  -6  -6  -4    0.08    0.07
   7   6   4   30.12    1.30
  -7  -6  -4   29.39    1.11
  -7  -6  -4   31.59    1.12
  -7   5   4    6.10    0.36
  -6   5   4   25.62    0.99
  -5   5   4    2.43    0.21
  -4   5   4    8.28    0.41
   4  -5  -4    8.58    0.39
  -3   5   4   31.82    1.17
   3  -5  -4   32.95    1.16
  -2   5   4   40.66    1.43
   2  -5  -4   41.12    1.42
  -1   5   4   12.85    0.52
   1  -5  -4   12.51    0.52
   0   5   4   34.20    1.20
   0  -5  -4   33.82    1.20
   1   5   4   81.13    2.72
  -1  -5  -4   83.02    2.73
   2   5   4   28.29    0.98
  -2  -5  -4   26.42    0.99
   3   5   4    1.64    0.13
  -3  -5  -4    1.52    0.15
  -4  -5  -4   16.99    0.67
   5   5   4   93.01    3.44
  -5  -5  -4   94.32    2.93
  -5  -5  -4   93.50    3.11
   6   5   4   10.32    0.55
  -6  -5  -4   10.45    0.47
  -6  -5  -4   10.34    0.46
   7   5   4    0.45    0.15
  -7  -5  -4    0.31    0.09
  -7   4   4   24.96    0.96
  -6   4   4    5.82    0.32
  -5   4   4    0.53    0.10
  -4   4   4   57.06    2.12
  -4   4   4   57.92    1.99
   4  -4  -4   60.40    1.97
  -3   4   4   49.17    1.67
   3  -4  -4   48.35    1.65
  -2   4   4   22.61    0.82
   2  -4  -4   22.18    0.81
  -1   4   4    7.25    0.33
   1  -4  -4    7.18    0.32
   0   4   4   89.13    2.96
   0  -4  -4   91.11    2.97
   1   4   4  121.65    3.92
  -1  -4  -4  119.06    3.93
   2   4   4   29.72    1.03
  -2  -4  -4   29.13    1.04
   3   4   4    9.44    0.38
  -3  -4  -4    8.94    0.39
   4   4   4   40.97    1.37
  -4  -4  -4   40.05    1.31
  -4  -4  -4   39.72    1.39
   5   4   4   41.70    1.63
  -5  -4  -4   43.09    1.39
  -5  -4  -4   42.04    1.46
   6   4   4    6.94    0.41
  -6  -4  -4    7.01    0.34
   7   4   4   15.55    0.74
  -7  -4  -4   14.47    0.60
  -8  -4  -4   13.82    0.58
  -8   3   4    1.06    0.15
  -7   3   4    0.71    0.12
  -6   3   4   57.24    1.95
  -5   3   4   65.95    2.22
  -4   3   4    1.37    0.12
  -4   3   4    1.23    0.12
  -4   3   4    1.23    0.11
   4  -3  -4    1.27    0.11
  -3   3   4    3.39    0.19
   3  -3  -4    3.07    0.17
  -2   3   4  271.83    8.80
   2  -3  -4  276.17    8.92
  -1   3   4   56.52    1.91
   1  -3  -4   58.57    1.91
   0   3   4    0.17    0.05
   0  -3  -4    0.11    0.05
   1   3   4   47.28    1.60
  -1  -3  -4   48.26    1.61
   2   3   4  273.24    9.09
  -2  -3  -4  289.46    9.20
   3   3   4   55.67    2.00
   3   3   4   54.98    1.81
  -3  -3  -4   53.54    1.70
  -3  -3  -4   53.11    1.82
   4   3   4    0.24    0.09
   4   3   4    0.23    0.06
  -4  -3  -4    0.23    0.07
  -4  -3  -4    0.26    0.06
  -4  -3  -4    0.21    0.06
   5   3   4   32.48    1.27
  -5  -3  -4   32.04    1.14
   6   3   4   73.59    2.70
  -6  -3  -4   70.89    2.42
   7   3   4    8.71    0.48
  -7  -3  -4    7.70    0.38
   8   3   4    0.10    0.10
  -8  -3  -4   -0.08    0.05
  -8   2   4   11.37    0.48
  -7   2   4   17.51    0.67
  -6   2   4   16.63    0.63
  -5   2   4    4.10    0.23
  -5   2   4    4.32    0.22
  -5   2   4    3.50    0.20
  -4   2   4   64.02    2.22
  -4   2   4   67.57    2.40
  -4   2   4   70.62    2.23
   4  -2  -4   67.12    2.20
  -3   2   4   86.76    3.16
  -3   2   4   97.16    2.94
  -3   2   4   87.53    2.94
   3  -2  -4   88.14    2.92
  -2   2   4   69.64    2.40
  -2   2   4   66.72    2.25
  -2   2   4   70.96    2.25
   2  -2  -4   65.83    2.24
  -1   2   4   21.69    0.75
   1  -2  -4   20.80    0.74
   0   2   4  212.84    6.93
   0  -2  -4  208.95    6.85
   1   2   4   35.68    1.23
  -1  -2  -4   37.41    1.24
   2   2   4   53.43    1.69
   2   2   4   46.19    1.82
  -2  -2  -4   52.12    1.55
  -2  -2  -4   50.01    1.69
   3   2   4   88.84    3.17
   3   2   4   85.63    2.90
  -3  -2  -4   89.07    2.91
  -3  -2  -4   91.26    2.70
   4   2   4   80.17    2.87
   4   2   4   77.92    2.61
  -4  -2  -4   82.62    2.62
  -4  -2  -4   76.42    2.61
   5   2   4   16.18    0.58
   5   2   4   14.55    0.67
  -5  -2  -4   15.45    0.60
   6   2   4   19.01    0.84
  -6  -2  -4   19.48    0.73
   7   2   4   25.21    1.07
  -7  -2  -4   24.45    0.92
   8   2   4    8.89    0.52
  -8  -2  -4    8.97    0.42
  -8   1   4   16.75    0.62
  -7   1   4    0.90    0.10
  -6   1   4   15.27    0.56
  -5   1   4  101.14    3.14
  -5   1   4   91.01    3.12
  -4   1   4   69.66    2.21
  -4   1   4   67.33    2.20
   4  -1  -4   65.44    2.18
   4  -1  -4   66.09    2.06
  -3   1   4    8.15    0.32
  -3   1   4    7.91    0.32
   3  -1  -4    7.97    0.30
  -2   1   4  102.37    3.40
  -2   1   4  107.63    3.40
   2  -1  -4  104.82    3.39
  -1   1   4  473.14   15.51
  -1   1   4  499.22   15.41
   1  -1  -4  455.18   15.43
   0   1   4  121.68    4.88
   0   1   4  152.82    4.50
   0  -1  -4  143.50    4.49
   1   1   4   25.05    0.87
   1   1   4   25.82    0.92
  -1  -1  -4   24.42    0.87
  -1  -1  -4   25.18    0.77
   2   1   4  150.35    5.34
   2   1   4  150.61    4.91
  -2  -1  -4  155.62    4.92
   3   1   4  174.21    6.07
   3   1   4  174.17    5.56
  -3  -1  -4  168.52    5.56
   4   1   4   33.84    1.30
   4   1   4   34.19    1.17
  -4  -1  -4   34.72    1.19
   5   1   4    3.51    0.25
   5   1   4    3.80    0.20
  -5  -1  -4    3.75    0.21
   6   1   4   51.80    1.98
  -6  -1  -4   52.19    1.78
   7   1   4   38.69    1.55
  -7  -1  -4   38.78    1.37
  -8  -1  -4    3.54    0.24
  -8   0   4   12.95    0.47
  -7   0   4   30.86    1.04
  -6   0   4   10.29    0.37
  -6   0   4    9.05    0.36
  -5   0   4    7.56    0.30
  -5   0   4    8.44    0.31
   5   0  -4    7.43    0.35
  -4   0   4  132.17    4.02
  -4   0   4  122.95    4.01
   4   0  -4  118.90    4.39
  -3   0   4  122.40    3.85
  -3   0   4  113.06    3.84
   3   0  -4  118.63    4.18
   3   0  -4  123.23    3.83
  -2   0   4   23.60    0.77
  -2   0   4   21.65    0.77
   2   0  -4   21.68    0.80
   2   0  -4   22.95    0.76
  -1   0   4    0.11    0.04
  -1   0   4    0.13    0.04
   1   0  -4    0.23    0.04
   0   0   4  404.24   12.50
   0   0   4  359.03   12.47
   0   0  -4  407.09   13.48
   0   0  -4  368.21   12.44
   1   0   4  299.55    9.40
   1   0   4  292.73    8.65
  -1   0  -4  276.62   10.17
  -1   0  -4  283.08    9.42
   2   0   4   21.65    0.76
   2   0   4   21.49    0.69
  -2   0  -4   22.17    0.82
  -2   0  -4   20.74    0.76
   3   0   4    0.59    0.07
   3   0   4    0.53    0.07
  -3   0  -4    0.75    0.10
  -3   0  -4    0.57    0.08
   4   0   4  191.25    6.03
  -4   0  -4  181.82    6.03
   5   0   4   48.34    1.63
  -5   0  -4   48.14    1.65
  -6   0  -4    1.35    0.15
  -7   0  -4   11.59    0.50
  -8   0  -4   40.61    1.45
  -7  -1   4   20.16    0.67
  -7  -1   4   19.16    0.66
   7   1  -4   20.00    0.84
  -6  -1   4   11.01    0.39
  -6  -1   4   10.51    0.38
   6   1  -4   10.89    0.49
  -5  -1   4   24.06    0.82
  -5  -1   4   25.81    0.82
   5   1  -4   23.73    0.95
  -4  -1   4   74.15    2.48
  -4  -1   4   81.37    2.48
   4   1  -4   74.56    2.73
  -3  -1   4   70.52    2.35
  -3  -1   4   74.57    2.36
  -2  -1   4   76.29    2.51
  -2  -1   4   78.49    2.51
   2   1  -4   77.28    2.50
  -1  -1   4   39.68    1.39
  -1  -1   4   43.25    1.39
   1   1  -4   42.64    1.39
   0  -1   4  165.95    5.06
   0  -1   4  155.66    5.05
   0   1  -4  149.19    5.05
   1  -1   4   46.99    1.58
  -1   1  -4   47.60    1.58
   2  -1   4  111.84    3.49
  -2   1  -4  110.22    3.49
  -2   1  -4   99.49    3.78
   3  -1   4   67.88    2.41
  -3   1  -4   73.41    2.42
  -3   1  -4   77.60    2.63
   4  -1   4   64.67    2.15
  -4   1  -4   64.66    2.17
   5  -1   4    8.33    0.37
  -5   1  -4    8.12    0.37
  -6   1  -4   24.69    0.92
  -7   1  -4   14.72    0.62
  -8   1  -4   11.91    0.54
   8   2  -4    1.62    0.22
   7   2  -4   42.18    1.62
   6   2  -4   41.43    1.57
  -5  -2   4    2.96    0.12
  -5  -2   4    2.84    0.12
   5   2  -4    2.67    0.19
  -4  -2   4    7.70    0.29
  -4  -2   4    7.84    0.29
  -3  -2   4  153.83    4.97
  -3  -2   4  157.60    4.97
  -3  -2   4  153.32    4.65
  -2  -2   4  169.38    5.72
  -2  -2   4  183.92    5.68
   2   2  -4  177.21    5.74
  -1  -2   4    3.07    0.15
  -1  -2   4    2.70    0.15
   1   2  -4    2.98    0.14
   0  -2   4   58.96    1.88
   0  -2   4   54.61    1.87
   0   2  -4   56.76    1.87
   1  -2   4  171.64    5.57
  -1   2  -4  173.45    5.57
   2  -2   4   92.99    3.04
  -2   2  -4   92.45    3.04
   3  -2   4    0.07    0.05
  -3   2  -4    0.00    0.04
   4  -2   4   58.72    2.00
  -4   2  -4   59.88    2.01
   5  -2   4   90.30    2.98
  -5   2  -4   89.57    2.99
  -6   2  -4   18.12    0.72
  -7   2  -4    0.90    0.14
  -8   2  -4   14.17    0.63
   8   3  -4    2.34    0.23
   7   3  -4    5.32    0.33
   6   3  -4   29.95    1.18
  -5  -3   4   67.30    2.25
  -5  -3   4   72.60    2.26
  -4  -3   4    7.45    0.28
  -4  -3   4    7.07    0.27
  -4  -3   4    7.18    0.30
  -3  -3   4    9.14    0.36
  -3  -3   4   10.04    0.36
  -2  -3   4   99.23    3.12
  -2  -3   4   92.58    3.11
   2   3  -4   95.63    3.09
  -1  -3   4  126.79    4.00
  -1  -3   4  119.71    3.99
   1   3  -4  123.43    3.99
   0  -3   4   37.62    1.27
   0   3  -4   37.22    1.27
   1  -3   4   14.03    0.55
  -1   3  -4   15.07    0.55
   2  -3   4  105.51    3.47
  -2   3  -4  106.40    3.47
   3  -3   4   52.83    1.77
  -3   3  -4   50.79    1.76
   4  -3   4    9.13    0.41
  -4   3  -4    8.98    0.41
   5  -3   4    6.55    0.34
  -5   3  -4    7.00    0.35
  -6   3  -4   51.73    1.81
  -7   3  -4   12.95    0.59
  -8   3  -4    1.09    0.17
   7   4  -4    6.28    0.38
   6   4  -4   19.80    0.85
  -5  -4   4   40.17    1.28
  -5  -4   4   37.53    1.28
  -5  -4   4   38.58    1.27
  -4  -4   4   12.33    0.46
  -4  -4   4   13.16    0.47
  -3  -4   4   33.88    1.11
  -3  -4   4   31.42    1.11
  -2  -4   4   45.25    1.58
  -2  -4   4   48.59    1.58
   2   4  -4   47.34    1.56
  -1  -4   4   48.67    1.56
  -1  -4   4   44.36    1.55
   1   4  -4   44.78    1.54
   0  -4   4   19.24    0.71
   0   4  -4   19.49    0.71
   1  -4   4   41.15    1.42
  -1   4  -4   41.24    1.41
   2  -4   4   77.54    2.67
  -2   4  -4   82.50    2.67
   3  -4   4   22.35    0.86
  -3   4  -4   23.77    0.87
   4  -4   4    7.89    0.38
  -4   4  -4    7.49    0.38
   5  -4   4   12.10    0.53
  -5   4  -4   11.33    0.52
  -6   4  -4   24.70    0.97
  -7   4  -4    4.97    0.33
   7   5  -4    3.36    0.28
  -6  -5   4    0.19    0.04
  -6  -5   4    0.06    0.08
  -5  -5   4   45.30    1.55
  -5  -5   4   48.18    1.53
  -4  -5   4   49.17    1.65
  -3  -5   4    3.98    0.21
  -2  -5   4    3.02    0.19
  -2  -5   4    3.16    0.19
  -1  -5   4  111.40    3.61
  -1  -5   4  109.83    3.61
   1   5  -4  108.46    3.59
   0  -5   4   46.08    1.60
   0   5  -4   47.20    1.59
   1  -5   4    0.40    0.09
  -1   5  -4    0.42    0.09
   2  -5   4    8.67    0.41
  -2   5  -4    9.15    0.41
   3  -5   4   73.91    2.51
  -3   5  -4   74.41    2.51
   4  -5   4   31.27    1.16
  -4   5  -4   31.51    1.17
   5  -5   4    0.09    0.08
  -5   5  -4   -0.03    0.07
  -6   5  -4    3.56    0.28
  -7   5  -4   16.93    0.76
  -6  -6   4    1.19    0.17
  -6  -6   4    1.23    0.10
  -5  -6   4    5.71    0.30
  -5  -6   4    5.36    0.26
  -4  -6   4   12.44    0.49
  -3  -6   4   40.74    1.41
  -2  -6   4    8.35    0.38
  -1  -6   4    9.39    0.42
   0  -6   4   23.72    0.90
   0   6  -4   23.85    0.88
   1  -6   4   41.40    1.48
  -1   6  -4   41.72    1.47
   2  -6   4    3.03    0.23
  -2   6  -4    2.65    0.21
   3  -6   4    5.63    0.34
  -3   6  -4    5.97    0.34
   4  -6   4   21.70    0.88
  -4   6  -4   21.37    0.87
   5  -6   4   14.02    0.63
  -5   6  -4   13.50    0.63
  -6   6  -4    2.83    0.27
  -5  -7   4    1.48    0.14
  -4  -7   4    7.56    0.36
  -3  -7   4   27.14    1.00
  -2  -7   4    0.54    0.11
  -1  -7   4    8.61    0.42
   0  -7   4   27.83    1.06
   1  -7   4   20.78    0.86
  -1   7  -4   22.39    0.85
   2  -7   4    0.26    0.10
  -2   7  -4    0.32    0.10
   3  -7   4    8.52    0.44
  -3   7  -4    7.62    0.43
   4  -7   4   13.34    0.63
  -4   7  -4   13.37    0.63
   5  -7   4    6.90    0.42
  -5   7  -4    6.44    0.41
  -4  -8   4    2.23    0.19
  -3  -8   4   17.12    0.70
  -2  -8   4    7.63    0.40
  -1  -8   4    1.85    0.21
   0  -8   4    0.10    0.09
   1  -8   4   26.85    1.06
   2  -8   4   15.30    0.69
   3  -8   4    1.01    0.18
   4  -8   4    0.02    0.10
  -4   8  -4    0.06    0.09
  -2  -9   4   17.44    0.74
  -1  -9   4    8.09    0.45
   0  -9   4    0.69    0.15
   1  -9   4    4.18    0.32
   2  -9   4    8.56    0.49
  -3   9   5    8.71    0.50
  -2   9   5   12.28    0.61
   2  -9  -5   12.15    0.60
  -1   9   5    5.29    0.34
   1  -9  -5    4.53    0.34
   0  -9  -5    8.96    0.49
  -1  -9  -5   18.65    0.82
  -2  -9  -5   10.57    0.54
  -3  -9  -5    8.25    0.46
  -4   8   5    3.65    0.30
  -3   8   5    0.21    0.11
   3  -8  -5    0.31    0.11
  -2   8   5   36.81    1.37
   2  -8  -5   35.83    1.36
  -1   8   5   29.68    1.14
   1  -8  -5   30.06    1.15
   0   8   5    3.43    0.26
   0  -8  -5    2.99    0.26
   1   8   5    1.35    0.18
  -1  -8  -5    1.74    0.21
  -2  -8  -5   37.49    1.39
  -3  -8  -5   37.66    1.40
  -4  -8  -5    0.72    0.14
  -5   7   5    0.28    0.12
  -4   7   5   10.65    0.53
  -3   7   5   27.41    1.07
   3  -7  -5   27.68    1.06
  -2   7   5   11.38    0.53
   2  -7  -5   10.65    0.51
  -1   7   5    9.82    0.48
   1  -7  -5   10.42    0.49
   0   7   5   54.60    1.91
   0  -7  -5   55.26    1.93
   1   7   5   10.38    0.47
  -1  -7  -5    9.69    0.47
   2   7   5    5.19    0.30
  -2  -7  -5    5.24    0.32
  -3  -7  -5   23.56    0.93
  -4  -7  -5   30.36    1.14
  -5  -7  -5    6.53    0.37
  -5  -7  -5    6.45    0.36
  -6   6   5    0.12    0.09
  -5   6   5   32.73    1.23
  -4   6   5   64.86    2.25
  -3   6   5    1.64    0.20
   3  -6  -5    1.57    0.18
  -2   6   5    0.67    0.12
   2  -6  -5    0.52    0.11
  -1   6   5   75.35    2.60
   1  -6  -5   78.89    2.61
   0   6   5   76.19    2.58
   0  -6  -5   76.92    2.59
   1   6   5    0.79    0.12
  -1  -6  -5    1.01    0.15
   2   6   5   14.82    0.59
  -2  -6  -5   13.71    0.60
  -3  -6  -5   32.47    1.19
  -4  -6  -5   28.26    1.06
   5   6   5    4.22    0.33
  -5  -6  -5    4.34    0.28
  -5  -6  -5    4.29    0.28
   6   6   5    5.92    0.40
  -6  -6  -5    5.35    0.32
  -6  -6  -5    5.55    0.33
  -7   5   5   14.92    0.66
  -6   5   5   13.68    0.61
  -5   5   5    0.13    0.08
  -4   5   5    5.61    0.32
   4  -5  -5    5.65    0.30
  -3   5   5   88.83    2.97
   3  -5  -5   88.12    2.95
  -2   5   5   68.29    2.31
   2  -5  -5   67.60    2.29
  -1   5   5   14.09    0.58
   1  -5  -5   14.21    0.57
   0   5   5   15.59    0.62
   0  -5  -5   15.60    0.62
   1   5   5  152.76    5.00
  -1  -5  -5  153.78    5.01
   2   5   5   40.68    1.38
  -2  -5  -5   38.43    1.39
   3   5   5    2.61    0.18
  -3  -5  -5    2.69    0.20
  -4  -5  -5   45.92    1.61
   5   5   5   41.07    1.60
  -5  -5  -5   41.22    1.45
  -5  -5  -5   39.96    1.36
   6   5   5    1.00    0.18
  -6  -5  -5    1.04    0.15
  -6  -5  -5    1.30    0.17
   7   5   5    0.77    0.18
  -7  -5  -5    1.01    0.15
  -7   4   5    3.27    0.24
  -6   4   5   12.21    0.54
  -5   4   5   11.23    0.49
  -4   4   5   14.22    0.60
  -4   4   5   15.18    0.60
   4  -4  -5   14.91    0.58
  -3   4   5   21.40    0.81
   3  -4  -5   21.24    0.79
  -2   4   5   25.89    0.93
   2  -4  -5   24.91    0.92
  -1   4   5   30.80    1.08
   1  -4  -5   30.08    1.08
   0   4   5   84.88    2.82
   0  -4  -5   85.03    2.81
   1   4   5    2.94    0.19
  -1  -4  -5    3.02    0.19
   2   4   5   14.45    0.56
  -2  -4  -5   13.78    0.56
   3   4   5   41.27    1.40
  -3  -4  -5   39.80    1.41
   4   4   5   45.85    1.73
   4   4   5   45.16    1.56
  -4  -4  -5   46.51    1.47
  -4  -4  -5   44.45    1.58
   5   4   5    5.32    0.34
  -5  -4  -5    5.77    0.30
  -5  -4  -5    5.59    0.30
   6   4   5   14.05    0.67
  -6  -4  -5   13.41    0.57
   7   4   5    3.10    0.28
  -7  -4  -5    2.72    0.22
  -7   3   5   17.59    0.70
  -6   3   5   23.01    0.86
  -5   3   5    1.92    0.16
  -4   3   5    2.13    0.13
  -4   3   5    2.19    0.17
   4  -3  -5    2.10    0.14
  -3   3   5   44.06    1.55
  -3   3   5   42.94    1.49
   3  -3  -5   42.97    1.47
  -2   3   5   81.86    2.77
   2  -3  -5   85.77    2.76
  -1   3   5   14.00    0.54
   1  -3  -5   13.87    0.53
   0  -3  -5    2.01    0.14
   1   3   5   51.45    1.70
  -1  -3  -5   49.03    1.70
   2   3   5  181.85    6.11
   2   3   5  168.70    5.62
  -2  -3  -5  170.27    5.63
   3   3   5    0.83    0.10
   3   3   5    0.88    0.11
   3   3   5    0.83    0.12
  -3  -3  -5    0.86    0.10
  -3  -3  -5    0.79    0.11
   4   3   5    0.37    0.10
   4   3   5    0.44    0.08
  -4  -3  -5    0.53    0.09
  -4  -3  -5    0.41    0.08
   5   3   5   59.38    2.21
  -5  -3  -5   58.16    2.00
   6   3   5   57.47    2.28
  -6  -3  -5   63.17    2.07
   7   3   5    1.52    0.22
  -7  -3  -5    1.23    0.16
   8   3   5    0.09    0.11
  -8  -3  -5    0.15    0.08
  -8   2   5    4.93    0.27
  -7   2   5    0.06    0.06
  -6   2   5    2.66    0.18
  -5   2   5   83.82    2.77
  -4   2   5   18.67    0.67
  -4   2   5   17.22    0.66
   4  -2  -5   18.16    0.64
  -3   2   5    9.12    0.38
  -3   2   5    9.97    0.39
   3  -2  -5    9.12    0.37
  -2   2   5   32.29    1.15
   2  -2  -5   34.79    1.15
  -1   2   5  160.98    5.20
   1  -2  -5  160.29    5.19
   0   2   5   22.52    0.80
   0   2   5   22.84    0.81
   0  -2  -5   21.78    0.80
   1   2   5    0.62    0.09
   1   2   5    0.62    0.07
  -1  -2  -5    0.48    0.08
   2   2   5   61.99    2.15
  -2  -2  -5   57.21    1.99
  -2  -2  -5   59.67    1.82
   3   2   5   67.34    2.17
   3   2   5   61.33    2.35
  -3  -2  -5   66.36    2.17
   4   2   5   21.37    0.85
   4   2   5   20.35    0.76
  -4  -2  -5   20.33    0.77
   5   2   5    3.04    0.24
   5   2   5    3.50    0.20
  -5  -2  -5    3.41    0.21
   6   2   5   12.18    0.60
  -6  -2  -5   12.11    0.52
   7   2   5   32.57    1.35
  -7  -2  -5   32.46    1.19
   8   2   5    5.99    0.42
  -8  -2  -5    5.98    0.34
  -8   1   5    2.96    0.18
  -7   1   5    2.64    0.17
  -6   1   5    3.70    0.20
  -5   1   5   14.99    0.56
  -4   1   5    8.03    0.34
  -4   1   5    8.82    0.35
   4  -1  -5    8.49    0.32
   4  -1  -5    8.32    0.32
  -3   1   5   54.25    1.85
  -3   1   5   57.17    1.85
   3  -1  -5   54.64    1.69
   3  -1  -5   56.52    1.83
  -2   1   5   18.62    0.65
  -2   1   5   16.91    0.65
   2  -1  -5   18.53    0.64
  -1   1   5    0.48    0.07
   1  -1  -5    0.52    0.07
   0   1   5   46.46    1.56
   0  -1  -5   46.45    1.55
   1   1   5   57.58    1.92
   1   1   5   58.59    2.05
  -1  -1  -5   56.69    1.92
   2   1   5   16.17    0.62
   2   1   5   15.45    0.59
  -2  -1  -5   16.03    0.60
   3   1   5   11.92    0.48
   3   1   5   12.18    0.52
  -3  -1  -5   12.19    0.49
   4   1   5   26.52    0.96
   4   1   5   28.68    1.07
  -4  -1  -5   26.27    0.97
   5   1   5    2.75    0.18
   5   1   5    2.10    0.20
  -5  -1  -5    2.79    0.19
  -6  -1  -5   10.70    0.47
  -7  -1  -5    4.32    0.27
  -8  -1  -5    1.95    0.20
  -8   0   5   13.29    0.49
  -7   0   5   13.40    0.49
  -6   0   5    3.33    0.17
  -5   0   5    7.93    0.31
  -5   0   5    7.28    0.30
  -4   0   5   58.62    1.89
  -4   0   5   55.11    1.89
   4   0  -5   57.95    2.04
  -3   0   5   18.91    0.66
  -3   0   5   17.34    0.65
   3   0  -5   18.87    0.68
   3   0  -5   18.76    0.63
  -2   0   5   10.16    0.40
  -2   0   5   10.61    0.40
   2   0  -5   10.28    0.39
  -1   0   5  106.38    3.50
  -1   0   5  110.22    3.50
   1   0  -5  106.47    3.49
   0   0   5  122.55    3.96
   0   0  -5  118.78    3.96
   0   0  -5  125.03    4.28
   1   0   5   15.59    0.59
  -1   0  -5   16.66    0.61
  -1   0  -5   15.59    0.59
   2   0   5    1.49    0.09
   2   0   5    1.99    0.14
  -2   0  -5    1.95    0.14
  -2   0  -5    2.23    0.13
   3   0   5  110.60    3.70
   3   0   5  114.18    3.42
  -3   0  -5  110.40    3.70
  -3   0  -5  117.49    4.02
   4   0   5   59.05    1.96
  -4   0  -5   57.26    1.97
   5   0   5    2.96    0.19
  -5   0  -5    2.78    0.20
  -6   0  -5    0.18    0.08
  -7   0  -5   12.73    0.56
  -8   0  -5   12.86    0.58
  -7  -1   5   13.43    0.49
   7   1  -5   14.78    0.63
  -6  -1   5   12.38    0.46
  -6  -1   5   13.39    0.47
   6   1  -5   13.65    0.57
  -5  -1   5    2.68    0.14
  -5  -1   5    2.64    0.14
   5   1  -5    2.71    0.18
  -4  -1   5    0.35    0.06
  -4  -1   5    0.37    0.06
   4   1  -5    0.35    0.07
  -3  -1   5   48.14    1.62
  -3  -1   5   50.00    1.62
  -2  -1   5   20.39    0.69
  -2  -1   5   19.24    0.69
   2   1  -5   18.92    0.67
  -1  -1   5    0.38    0.03
  -1  -1   5    0.49    0.07
  -1  -1   5    0.35    0.06
   1   1  -5    0.41    0.06
   0  -1   5    1.17    0.10
   0   1  -5    1.25    0.10
   1  -1   5  134.29    4.35
  -1   1  -5  134.76    4.34
  -1   1  -5  132.49    4.70
   2  -1   5   17.11    0.65
  -2   1  -5   17.69    0.69
  -2   1  -5   17.65    0.65
   3  -1   5   26.51    0.95
  -3   1  -5   26.33    0.95
   4  -1   5    5.37    0.28
  -4   1  -5    5.60    0.29
   5  -1   5   80.47    2.65
  -5   1  -5   77.88    2.66
  -6   1  -5    2.16    0.19
  -7   1  -5    8.66    0.43
  -8   1  -5    5.87    0.35
   7   2  -5   13.69    0.62
  -6  -2   5    0.15    0.03
  -6  -2   5    0.10    0.03
   6   2  -5    0.07    0.07
  -5  -2   5    0.69    0.07
  -5  -2   5    0.51    0.06
   5   2  -5    0.65    0.10
  -4  -2   5    8.83    0.33
  -4  -2   5    8.39    0.33
  -3  -2   5   48.49    1.59
  -3  -2   5   46.91    1.58
  -3  -2   5   48.13    1.48
  -2  -2   5    0.74    0.08
  -2  -2   5    0.64    0.07
   2   2  -5    0.85    0.07
  -1  -2   5    0.24    0.06
  -1  -2   5    0.22    0.05
   1   2  -5    0.37    0.06
   0  -2   5   16.48    0.61
   0   2  -5   16.74    0.61
   1  -2   5   52.64    1.84
  -1   2  -5   57.16    1.84
   2  -2   5    0.09    0.05
  -2   2  -5    0.02    0.05
   3  -2   5    3.46    0.21
  -3   2  -5    3.94    0.22
   4  -2   5   10.43    0.45
  -4   2  -5   10.16    0.45
   5  -2   5    1.42    0.16
  -5   2  -5    1.22    0.15
  -6   2  -5    0.09    0.08
  -7   2  -5    7.08    0.39
  -8   2  -5    3.02    0.26
   7   3  -5    1.74    0.19
  -6  -3   5   22.28    0.71
   6   3  -5   20.39    0.88
  -5  -3   5   18.81    0.68
  -5  -3   5   20.97    0.68
  -4  -3   5   18.91    0.65
  -4  -3   5   19.71    0.67
  -4  -3   5   18.39    0.66
  -3  -3   5    2.62    0.14
  -3  -3   5    2.51    0.14
  -3  -3   5    2.39    0.14
  -2  -3   5   64.96    2.24
  -2  -3   5   71.49    2.25
   2   3  -5   67.71    2.22
  -1  -3   5   22.09    0.84
  -1  -3   5   25.18    0.85
   1   3  -5   24.03    0.83
   0  -3   5   51.46    1.72
   0   3  -5   50.23    1.71
   1  -3   5    5.49    0.27
  -1   3  -5    5.62    0.27
   2  -3   5   64.31    2.13
  -2   3  -5   62.22    2.13
   3  -3   5    9.40    0.42
  -3   3  -5    9.58    0.42
   4  -3   5   17.44    0.68
  -4   3  -5   16.55    0.68
   5  -3   5    7.42    0.38
  -5   3  -5    7.32    0.38
  -6   3  -5   20.35    0.82
  -7   3  -5    0.58    0.14
   7   4  -5    2.01    0.21
  -6  -4   5    0.11    0.03
   6   4  -5    0.07    0.09
  -5  -4   5    1.08    0.09
  -5  -4   5    1.42    0.15
  -4  -4   5    3.45    0.18
  -4  -4   5    3.32    0.20
  -3  -4   5    2.37    0.15
  -3  -4   5    2.28    0.15
  -2  -4   5    0.56    0.08
  -2  -4   5    0.82    0.10
   2   4  -5    0.47    0.07
  -1  -4   5   21.10    0.76
  -1  -4   5   20.31    0.75
   1   4  -5   20.17    0.74
   0  -4   5    5.39    0.27
   0   4  -5    5.24    0.26
   1  -4   5    0.81    0.12
  -1   4  -5    0.74    0.11
   2  -4   5    2.61    0.19
  -2   4  -5    2.41    0.18
   3  -4   5   14.68    0.62
  -3   4  -5   15.36    0.62
   4  -4   5    3.98    0.27
  -4   4  -5    4.13    0.27
   5  -4   5    0.29    0.10
  -5   4  -5    0.35    0.11
  -6   4  -5    0.09    0.09
  -7   4  -5    3.98    0.31
  -6  -5   5    0.02    0.03
  -6  -5   5    0.03    0.07
  -5  -5   5   21.18    0.76
  -5  -5   5   21.73    0.77
  -4  -5   5    1.02    0.11
  -3  -5   5   10.69    0.44
  -2  -5   5    0.04    0.05
  -1  -5   5   38.96    1.38
   1   5  -5   40.26    1.36
   0  -5   5    0.16    0.07
   0   5  -5    0.12    0.06
   1  -5   5    2.48    0.20
  -1   5  -5    2.34    0.18
   2  -5   5    1.00    0.14
  -2   5  -5    1.07    0.14
   3  -5   5   19.41    0.78
  -3   5  -5   19.57    0.78
   4  -5   5    1.37    0.18
  -4   5  -5    1.51    0.20
   5  -5   5    0.39    0.12
  -5   5  -5    0.15    0.10
  -6   5  -5    2.60    0.25
  -6  -6   5    1.15    0.10
  -6  -6   5    1.51    0.19
  -5  -6   5    2.74    0.17
  -5  -6   5    2.37    0.20
  -4  -6   5   11.52    0.48
  -3  -6   5   11.63    0.49
  -2  -6   5   10.12    0.45
  -1  -6   5    3.29    0.22
   0  -6   5   15.60    0.64
   0   6  -5   15.40    0.63
   1  -6   5   13.16    0.59
  -1   6  -5   14.03    0.58
   2  -6   5    9.30    0.46
  -2   6  -5    9.47    0.45
   3  -6   5    0.01    0.08
  -3   6  -5    0.01    0.06
   4  -6   5    8.89    0.48
  -4   6  -5    9.96    0.49
   5  -6   5    2.71    0.26
  -5   6  -5    2.64    0.25
  -6   6  -5    4.77    0.35
  -5  -7   5    0.65    0.10
  -4  -7   5    1.08    0.13
  -3  -7   5    1.17    0.15
  -2  -7   5    0.13    0.08
  -1  -7   5    0.05    0.08
   0  -7   5    0.12    0.09
   1  -7   5    0.66    0.14
   2  -7   5    0.20    0.11
  -2   7  -5    0.29    0.10
   3  -7   5    1.64    0.21
  -3   7  -5    1.64    0.21
   4  -7   5    0.08    0.10
  -4   7  -5    0.03    0.09
   5  -7   5    0.51    0.15
  -5   7  -5    0.66    0.16
  -3  -8   5    5.17    0.31
  -2  -8   5    4.87    0.31
  -1  -8   5    4.58    0.31
   0  -8   5    0.16    0.10
   1  -8   5    8.71    0.47
   2  -8   5    0.22    0.12
   3  -8   5    2.53    0.28
  -2   9   6    0.77    0.17
   2  -9  -6    0.57    0.15
  -1   9   6    2.22    0.26
   1  -9  -6    2.20    0.27
   0  -9  -6    7.07    0.43
  -1  -9  -6    0.29    0.13
  -2  -9  -6    2.10    0.25
  -4   8   6    0.14    0.11
  -3   8   6    0.11    0.10
  -2   8   6    8.19    0.45
   2  -8  -6    8.33    0.46
  -1   8   6    7.57    0.43
   1  -8  -6    7.55    0.43
   0   8   6    0.83    0.16
   0  -8  -6    0.74    0.14
  -1  -8  -6    0.11    0.09
  -2  -8  -6   25.67    1.03
  -3  -8  -6    1.57    0.20
  -4  -8  -6    1.87    0.24
  -5   7   6   15.07    0.70
  -4   7   6   10.40    0.53
  -3   7   6    2.22    0.22
   3  -7  -6    1.96    0.22
  -2   7   6    0.27    0.10
   2  -7  -6    0.29    0.10
  -1   7   6    9.01    0.45
   1  -7  -6    8.93    0.45
   0   7   6    9.94    0.48
   0  -7  -6    9.31    0.48
   1   7   6    0.33    0.10
  -1  -7  -6    0.29    0.10
  -2  -7  -6    0.16    0.09
  -3  -7  -6    6.87    0.39
  -4  -7  -6   14.02    0.64
   5   7   6    3.37    0.31
  -5  -7  -6    3.81    0.27
  -5  -7  -6    3.43    0.28
  -6   6   6    3.04    0.27
  -5   6   6    0.83    0.16
  -4   6   6    1.05    0.16
  -3   6   6   21.72    0.87
   3  -6  -6   21.57    0.85
  -2   6   6    5.97    0.34
   2  -6  -6    5.97    0.34
  -1   6   6    2.66    0.21
   1  -6  -6    2.33    0.21
   0   6   6    2.11    0.19
   0  -6  -6    2.05    0.19
   1   6   6    3.70    0.25
  -1  -6  -6    3.93    0.26
   2   6   6    0.20    0.08
  -2  -6  -6    0.08    0.07
  -3  -6  -6    1.11    0.16
  -4  -6  -6    6.23    0.36
   5   6   6    0.08    0.10
  -5  -6  -6    0.13    0.09
  -5  -6  -6    0.29    0.11
   6   6   6    0.14    0.12
  -6  -6  -6    0.20    0.11
  -6  -6  -6    0.22    0.10
  -6   5   6    1.95    0.22
  -5   5   6    0.04    0.08
  -4   5   6   17.61    0.73
  -3   5   6    1.81    0.18
   3  -5  -6    1.59    0.16
  -2   5   6   25.28    0.98
   2  -5  -6   27.01    0.98
  -1   5   6    9.91    0.46
   1  -5  -6   10.68    0.46
   0  -5  -6   51.49    1.78
   1   5   6    1.09    0.14
  -1  -5  -6    0.94    0.13
   2   5   6   15.24    0.62
  -2  -5  -6   15.97    0.64
   3   5   6    0.85    0.12
  -3  -5  -6    0.94    0.14
   4   5   6   17.26    0.75
  -4  -5  -6   16.74    0.70
  -4  -5  -6   16.72    0.64
   5   5   6    1.59    0.21
  -5  -5  -6    1.77    0.19
  -5  -5  -6    1.28    0.17
   6   5   6    2.39    0.29
  -6  -5  -6    1.80    0.21
  -7   4   6    0.55    0.13
  -6   4   6    3.97    0.27
  -5   4   6    2.45    0.20
  -4   4   6   10.14    0.46
  -3   4   6    3.91    0.25
   3  -4  -6    4.21    0.24
  -2   4   6   29.96    1.07
   2  -4  -6   29.14    1.06
  -1   4   6    3.42    0.22
   1  -4  -6    3.38    0.21
   0   4   6   49.40    1.70
   0  -4  -6   49.08    1.69
   1   4   6   55.46    1.90
  -1  -4  -6   55.99    1.90
   2   4   6   63.08    2.09
  -2  -4  -6   60.48    2.10
   3   4   6   41.77    1.54
   3   4   6   38.95    1.41
  -3  -4  -6   41.60    1.31
  -3  -4  -6   39.89    1.43
   4   4   6   20.51    0.78
   4   4   6   21.07    0.86
  -4  -4  -6   21.02    0.73
  -4  -4  -6   19.28    0.79
   5   4   6   27.75    1.14
  -5  -4  -6   27.83    1.04
   6   4   6    8.73    0.49
  -6  -4  -6    8.54    0.43
   7   4   6    7.67    0.47
  -7  -4  -6    7.32    0.40
  -7   3   6    2.16    0.19
  -6   3   6    0.15    0.08
  -5   3   6    0.11    0.07
  -4   3   6    0.36    0.08
  -3   3   6   13.43    0.48
  -3   3   6   12.29    0.52
   3  -3  -6   12.74    0.51
  -2   3   6    0.29    0.03
  -2   3   6    0.06    0.05
   2  -3  -6    0.18    0.06
  -1   3   6    0.78    0.11
   1  -3  -6    0.51    0.08
   0   3   6    0.58    0.09
   0  -3  -6    0.72    0.10
   1   3   6    3.42    0.21
   1   3   6    3.63    0.19
  -1  -3  -6    3.35    0.21
   2   3   6    8.62    0.38
   2   3   6    8.04    0.37
  -2  -3  -6    8.50    0.32
  -2  -3  -6    8.56    0.38
   3   3   6    7.05    0.33
   3   3   6    7.18    0.36
   3   3   6    6.85    0.33
  -3  -3  -6    7.35    0.30
  -3  -3  -6    7.25    0.35
   4   3   6   12.29    0.55
   4   3   6   11.49    0.49
  -4  -3  -6   11.76    0.51
   5   3   6    6.14    0.35
  -5  -3  -6    5.45    0.31
   6   3   6    3.05    0.27
  -6  -3  -6    3.24    0.24
   7   3   6    4.47    0.34
  -7  -3  -6    3.85    0.27
  -7   2   6    9.27    0.41
  -6   2   6    1.15    0.13
  -5   2   6   21.68    0.80
  -4   2   6    6.52    0.31
  -3   2   6    7.96    0.37
  -3   2   6    9.46    0.38
   3  -2  -6    8.67    0.36
  -2   2   6    5.29    0.27
   2  -2  -6    5.89    0.26
  -1   2   6   54.60    1.86
   1  -2  -6   56.19    1.86
   0   2   6   27.46    1.01
   0   2   6   29.09    1.02
   0  -2  -6   29.22    1.01
   1   2   6   24.40    0.94
   1   2   6   26.18    0.92
  -1  -2  -6   26.24    0.92
  -1  -2  -6   25.85    0.80
   2   2   6   26.66    0.95
   2   2   6   25.89    1.00
  -2  -2  -6   27.00    0.96
   3   2   6   26.97    1.01
   3   2   6   28.71    1.09
  -3  -2  -6   29.54    1.03
   4   2   6   47.22    1.62
   4   2   6   46.33    1.76
  -4  -2  -6   47.24    1.63
   5   2   6    0.88    0.15
  -5  -2  -6    0.56    0.11
   6   2   6   42.72    1.61
  -6  -2  -6   38.19    1.44
   7   2   6    0.26    0.12
  -7  -2  -6    0.23    0.09
  -7   1   6   12.03    0.48
  -6   1   6    0.65    0.09
  -5   1   6    4.38    0.23
  -4   1   6    3.09    0.18
   4  -1  -6    3.51    0.16
  -3   1   6    5.54    0.25
  -3   1   6    4.91    0.25
   3  -1  -6    5.07    0.19
   3  -1  -6    5.04    0.23
  -2   1   6   21.97    0.75
  -2   1   6   19.36    0.74
   2  -1  -6   20.46    0.73
  -1   1   6    4.63    0.24
   1  -1  -6    5.12    0.24
   0   1   6    8.85    0.38
   0  -1  -6    8.87    0.37
   1   1   6    1.26    0.12
  -1  -1  -6    1.12    0.11
   2   1   6   22.79    0.83
  -2  -1  -6   22.54    0.83
   3   1   6    0.85    0.11
  -3  -1  -6    0.83    0.12
   4   1   6    8.67    0.39
  -4  -1  -6    8.74    0.40
   5   1   6    0.33    0.09
  -5  -1  -6    0.27    0.09
  -6  -1  -6   14.81    0.62
  -7  -1  -6    3.12    0.25
  -8  -1  -6   11.68    0.55
  -7   0   6    7.61    0.32
  -6   0   6   12.51    0.48
  -5   0   6   25.47    0.89
  -4   0   6   15.23    0.55
  -4   0   6   13.68    0.54
  -3   0   6   21.61    0.78
  -3   0   6   22.52    0.79
   3   0  -6   21.99    0.76
  -2   0   6   18.36    0.68
  -2   0   6   19.77    0.69
   2   0  -6   18.43    0.67
  -1   0   6   32.28    1.11
   1   0  -6   31.84    1.10
   0   0   6    1.80    0.13
   0   0   6    1.58    0.13
   0   0  -6    1.92    0.09
   0   0  -6    1.66    0.13
   1   0   6    0.34    0.07
  -1   0  -6    0.32    0.07
  -1   0  -6    0.53    0.07
   2   0   6    9.97    0.44
  -2   0  -6   10.99    0.45
  -2   0  -6   10.53    0.44
   3   0   6    9.77    0.43
  -3   0  -6   10.08    0.43
   4   0   6    0.65    0.10
  -4   0  -6    0.84    0.12
   5   0   6    2.21    0.18
  -5   0  -6    2.05    0.18
  -6   0  -6    1.07    0.15
  -7   0  -6    7.68    0.41
  -8   0  -6    0.14    0.10
  -7  -1   6    8.80    0.34
  -6  -1   6    3.35    0.17
   6   1  -6    3.28    0.21
  -5  -1   6   34.36    1.15
   5   1  -6   33.60    1.26
  -4  -1   6    3.72    0.19
  -4  -1   6    3.60    0.19
   4   1  -6    3.63    0.19
  -3  -1   6   89.81    3.02
  -3  -1   6   96.04    3.03
   3   1  -6   90.65    2.99
   3   1  -6   93.37    3.25
  -2  -1   6    0.70    0.09
  -2  -1   6    0.75    0.09
   2   1  -6    0.98    0.08
  -1  -1   6   90.53    2.80
  -1  -1   6   85.19    2.80
   1   1  -6   79.72    2.78
   0  -1   6    0.49    0.08
   0   1  -6    0.54    0.08
   1  -1   6   91.26    2.98
  -1   1  -6   89.96    2.97
  -1   1  -6   89.60    3.20
   2  -1   6    7.72    0.35
  -2   1  -6    7.51    0.35
  -2   1  -6    8.03    0.35
   3  -1   6    9.32    0.34
   3  -1   6    9.39    0.41
  -3   1  -6    8.96    0.41
   4  -1   6    2.99    0.20
  -4   1  -6    2.68    0.20
   5  -1   6   13.39    0.55
  -5   1  -6   12.42    0.55
  -6   1  -6    5.59    0.33
  -7   1  -6    1.78    0.22
  -7  -2   6    0.00    0.03
  -6  -2   6    1.23    0.09
   6   2  -6    1.36    0.15
  -5  -2   6    0.08    0.04
   5   2  -6    0.09    0.06
  -4  -2   6    0.14    0.05
  -4  -2   6    0.15    0.05
  -3  -2   6    1.38    0.11
  -3  -2   6    1.30    0.11
  -2  -2   6    0.27    0.06
  -2  -2   6    0.21    0.05
  -2  -2   6    0.34    0.05
   2   2  -6    0.33    0.06
  -1  -2   6   15.36    0.57
  -1  -2   6   14.53    0.57
   1   2  -6   15.11    0.56
   0  -2   6    0.20    0.06
   0   2  -6    0.28    0.07
   1  -2   6    5.32    0.27
  -1   2  -6    4.94    0.26
   2  -2   6    0.25    0.07
  -2   2  -6    0.18    0.06
   3  -2   6    8.69    0.38
  -3   2  -6    7.45    0.37
   4  -2   6    0.88    0.12
  -4   2  -6    1.28    0.15
   5  -2   6    2.68    0.21
  -5   2  -6    2.12    0.20
  -6   2  -6    0.27    0.10
  -7   2  -6    0.10    0.09
  -6  -3   6    6.11    0.24
   6   3  -6    6.22    0.34
  -5  -3   6    0.70    0.08
   5   3  -6    0.67    0.12
  -4  -3   6    5.78    0.26
  -3  -3   6    0.52    0.07
  -3  -3   6    0.37    0.07
  -2  -3   6   21.12    0.81
  -2  -3   6   23.59    0.82
   2   3  -6   22.75    0.79
  -1  -3   6    2.77    0.18
  -1  -3   6    2.44    0.17
   1   3  -6    2.70    0.16
   0  -3   6   20.85    0.78
   0   3  -6   20.80    0.76
   1  -3   6   22.58    0.84
  -1   3  -6   22.16    0.82
   2  -3   6   23.28    0.87
  -2   3  -6   23.20    0.87
   3  -3   6   11.33    0.50
  -3   3  -6   11.60    0.50
   4  -3   6   10.50    0.49
  -4   3  -6   11.30    0.50
   5  -3   6   19.72    0.79
  -5   3  -6   19.47    0.79
  -6   3  -6    3.94    0.29
  -7   3  -6    0.61    0.15
  -6  -4   6    0.59    0.07
   6   4  -6    0.65    0.13
  -5  -4   6   16.13    0.59
  -4  -4   6    0.62    0.10
  -4  -4   6    0.60    0.09
  -3  -4   6   19.12    0.71
  -2  -4   6    1.74    0.14
  -1  -4   6   18.60    0.71
   1   4  -6   18.99    0.70
   0  -4   6    0.21    0.08
   0   4  -6    0.26    0.07
   1  -4   6   11.93    0.51
  -1   4  -6   11.93    0.50
   2  -4   6    0.88    0.13
  -2   4  -6    0.98    0.13
   3  -4   6   29.05    1.08
  -3   4  -6   28.85    1.08
   4  -4   6    0.14    0.09
  -4   4  -6    0.10    0.08
   5  -4   6    9.84    0.48
  -5   4  -6    8.88    0.47
  -6   4  -6    0.07    0.10
  -6  -5   6    0.03    0.04
  -5  -5   6    1.01    0.11
  -5  -5   6    1.18    0.15
  -4  -5   6    5.21    0.26
  -4  -5   6    5.10    0.26
  -3  -5   6    1.53    0.15
  -2  -5   6    0.02    0.06
  -1  -5   6    0.16    0.08
   0  -5   6    5.25    0.30
   0   5  -6    5.82    0.30
   1  -5   6    0.20    0.08
  -1   5  -6    0.49    0.10
   2  -5   6    0.08    0.08
  -2   5  -6    0.16    0.08
   3  -5   6    1.59    0.19
  -3   5  -6    1.50    0.18
   4  -5   6    1.69    0.21
  -4   5  -6    1.27    0.18
   5  -5   6    1.01    0.17
  -5   5  -6    1.13    0.18
  -6   5  -6    0.39    0.14
  -5  -6   6   -0.09    0.06
  -5  -6   6    0.00    0.05
  -4  -6   6   14.48    0.58
  -3  -6   6    1.56    0.17
  -2  -6   6    2.02    0.18
  -1  -6   6    8.93    0.43
   0  -6   6   18.14    0.74
   1  -6   6    4.85    0.30
  -1   6  -6    4.33    0.28
   2  -6   6    0.81    0.15
  -2   6  -6    0.76    0.14
   3  -6   6    7.53    0.42
  -3   6  -6    7.73    0.42
   4  -6   6    8.29    0.47
  -4   6  -6    8.70    0.47
   5  -6   6    0.28    0.12
  -5   6  -6    0.32    0.12
  -4  -7   6    0.11    0.07
  -3  -7   6    6.32    0.34
  -2  -7   6    4.72    0.30
  -1  -7   6    8.09    0.42
   0  -7   6    2.21    0.22
   1  -7   6   21.99    0.90
   2  -7   6    2.22    0.25
   3  -7   6    8.93    0.49
  -3   7  -6    8.88    0.48
   4  -7   6    3.63    0.31
  -4   7  -6    3.11    0.29
  -2  -8   6    1.51    0.20
  -1  -8   6    0.26    0.11
   0  -8   6    3.85    0.30
   1  -8   6    1.80    0.25
   2  -8   6    2.42    0.28
  -3   8   7    1.47    0.22
  -2   8   7    0.06    0.10
   2  -8  -7    0.12    0.10
  -1   8   7    0.08    0.09
   1  -8  -7    0.11    0.10
   0  -8  -7    0.79    0.17
  -1  -8  -7    0.11    0.10
  -2  -8  -7    1.46    0.21
  -3  -8  -7    1.03    0.18
  -4   7   7    0.89    0.17
  -3   7   7    1.47    0.20
  -2   7   7    1.00    0.17
   2  -7  -7    1.85    0.22
  -1   7   7   20.27    0.86
   1  -7  -7   21.13    0.86
   0   7   7    0.68    0.14
   0  -7  -7    0.49    0.13
   1   7   7   10.69    0.51
  -1  -7  -7   10.33    0.52
  -2  -7  -7    0.28    0.11
  -3  -7  -7   16.45    0.73
   4   7   7    2.37    0.29
  -4  -7  -7    2.33    0.27
  -5   6   7    0.25    0.11
  -4   6   7    1.97    0.23
  -3   6   7    1.94    0.22
  -2   6   7    2.67    0.23
   2  -6  -7    2.42    0.22
  -1   6   7    0.06    0.08
   1  -6  -7    0.00    0.07
   0   6   7    2.69    0.23
   0  -6  -7    2.47    0.22
   1   6   7   11.49    0.53
  -1  -6  -7   11.95    0.54
   2   6   7    2.94    0.23
  -2  -6  -7    2.87    0.24
  -3  -6  -7    2.82    0.24
   4   6   7    7.42    0.43
  -4  -6  -7    7.62    0.37
  -4  -6  -7    7.16    0.41
   5   6   7    5.33    0.36
  -5  -6  -7    4.59    0.32
  -5  -6  -7    5.13    0.31
  -6   5   7    2.20    0.22
  -5   5   7    0.42    0.12
  -4   5   7    4.45    0.29
  -3   5   7    5.32    0.32
  -2   5   7    0.54    0.11
   2  -5  -7    0.65    0.12
  -1   5   7    0.22    0.08
   1  -5  -7    0.23    0.08
   0   5   7    1.76    0.18
   0  -5  -7    1.47    0.17
   1   5   7    9.18    0.44
  -1  -5  -7    9.35    0.45
   2   5   7    2.09    0.18
  -2  -5  -7    1.97    0.19
   3   5   7    2.62    0.21
   3   5   7    2.10    0.19
  -3  -5  -7    2.05    0.20
  -3  -5  -7    2.23    0.17
   4   5   7    5.32    0.33
  -4  -5  -7    4.86    0.27
  -4  -5  -7    4.72    0.30
   5   5   7    0.09    0.09
  -5  -5  -7    0.01    0.07
  -5  -5  -7    0.12    0.08
   6   5   7    1.58    0.24
  -6  -5  -7    1.19    0.18
  -6   4   7   16.54    0.69
  -5   4   7    1.88    0.19
  -4   4   7    9.85    0.46
  -3   4   7   19.16    0.77
   3  -4  -7   20.07    0.76
  -2   4   7   18.29    0.74
   2  -4  -7   19.03    0.73
  -1   4   7    1.55    0.18
   1  -4  -7    0.99    0.13
   0   4   7    2.54    0.19
   0  -4  -7    2.21    0.18
   1   4   7   16.83    0.69
   1   4   7   17.36    0.68
  -1  -4  -7   17.68    0.69
   2   4   7    2.39    0.19
   2   4   7    2.55    0.18
  -2  -4  -7    2.32    0.20
   3   4   7   -0.01    0.05
   3   4   7    0.01    0.06
  -3  -4  -7    0.03    0.06
  -3  -4  -7    0.04    0.06
   4   4   7    0.25    0.10
  -4  -4  -7    0.09    0.07
  -4  -4  -7    0.09    0.08
   5   4   7   19.23    0.84
  -5  -4  -7   18.41    0.77
   6   4   7    1.79    0.24
  -6  -4  -7    1.46    0.19
  -7   3   7    0.18    0.09
  -6   3   7    0.19    0.08
  -5   3   7    1.66    0.17
  -4   3   7    7.37    0.36
  -3   3   7    0.14    0.07
   3  -3  -7    0.14    0.06
  -2   3   7    0.09    0.06
   2  -3  -7    0.06    0.06
  -1   3   7   21.53    0.80
   1  -3  -7   20.61    0.79
   0   3   7    3.13    0.15
   0   3   7    2.92    0.20
   0  -3  -7    3.03    0.20
   1   3   7    1.00    0.13
   1   3   7    1.07    0.10
  -1  -3  -7    0.96    0.12
   2   3   7    6.14    0.30
   2   3   7    6.09    0.32
  -2  -3  -7    5.94    0.25
  -2  -3  -7    6.16    0.32
   3   3   7    3.71    0.23
   3   3   7    3.58    0.23
  -3  -3  -7    3.38    0.23
   4   3   7    3.57    0.23
   4   3   7    3.24    0.24
  -4  -3  -7    3.43    0.24
   5   3   7   11.06    0.55
  -5  -3  -7   11.30    0.52
   6   3   7    9.09    0.51
  -6  -3  -7    9.03    0.46
   7   3   7    0.57    0.16
  -7  -3  -7    0.40    0.12
  -7   2   7    0.05    0.06
  -6   2   7    6.83    0.34
  -5   2   7    8.28    0.38
  -4   2   7    0.19    0.07
  -3   2   7    0.79    0.11
   3  -2  -7    0.96    0.11
   3  -2  -7    0.92    0.07
  -2   2   7   43.02    1.51
   2  -2  -7   44.31    1.49
  -1   2   7   14.02    0.56
   1  -2  -7   14.03    0.55
   0   2   7   13.11    0.53
   0  -2  -7   12.67    0.52
   1   2   7    7.04    0.34
  -1  -2  -7    7.16    0.34
   2   2   7   44.47    1.51
   2   2   7   41.47    1.58
   2   2   7   43.86    1.50
  -2  -2  -7   43.21    1.51
   3   2   7    9.72    0.44
   3   2   7    9.82    0.45
  -3  -2  -7   10.42    0.46
   4   2   7    2.18    0.19
   4   2   7    2.25    0.18
  -4  -2  -7    2.17    0.19
   5   2   7    0.75    0.14
  -5  -2  -7    0.69    0.13
  -6  -2  -7    4.48    0.29
  -7  -2  -7   13.91    0.63
  -7   1   7    4.71    0.25
  -6   1   7    0.14    0.06
  -5   1   7   15.37    0.60
  -4   1   7   26.24    0.95
  -3   1   7    0.12    0.06
  -2   1   7    0.42    0.08
   2  -1  -7    0.53    0.08
  -1   1   7   17.13    0.67
   1  -1  -7   18.07    0.66
   0   1   7   60.29    2.01
   0  -1  -7   58.31    2.00
   1   1   7    0.06    0.05
   1   1   7    0.08    0.05
  -1  -1  -7    0.07    0.06
   2   1   7    5.56    0.29
  -2  -1  -7    5.06    0.28
   3   1   7   56.62    1.93
  -3  -1  -7   55.85    1.93
   4   1   7   29.22    1.06
  -4  -1  -7   28.52    1.07
   5   1   7    1.93    0.22
  -5  -1  -7    1.45    0.17
  -6  -1  -7    0.07    0.08
  -7  -1  -7   17.56    0.75
  -7   0   7   13.73    0.53
  -6   0   7    9.67    0.40
  -5   0   7    7.96    0.35
  -4   0   7    7.82    0.35
  -3   0   7   32.05    1.12
  -2   0   7    9.27    0.39
  -2   0   7    8.63    0.38
   2   0  -7    8.67    0.36
  -1   0   7    1.29    0.13
   1   0  -7    1.32    0.12
   0   0   7   26.24    0.95
   0   0  -7   26.20    0.94
   1   0   7    8.56    0.39
  -1   0  -7    8.77    0.39
  -1   0  -7    8.68    0.36
   2   0   7    7.24    0.35
  -2   0  -7    7.18    0.35
  -2   0  -7    7.52    0.34
   3   0   7   10.03    0.45
  -3   0  -7    9.92    0.45
   4   0   7    7.99    0.39
  -4   0  -7    8.09    0.40
   5   0   7   11.86    0.53
  -5   0  -7   12.06    0.54
  -6   0  -7    2.98    0.24
  -7   0  -7    2.30    0.23
  -7  -1   7    5.49    0.25
  -6  -1   7    0.21    0.06
  -5  -1   7    3.78    0.20
  -4  -1   7   58.86    2.02
   4   1  -7   62.18    2.15
  -3  -1   7    0.05    0.05
  -2  -1   7    0.35    0.08
   2   1  -7    0.48    0.07
  -1  -1   7   22.04    0.81
   1   1  -7   21.71    0.79
   0  -1   7   77.15    2.58
   0   1  -7   81.03    2.57
   0   1  -7   74.30    2.74
   1  -1   7    9.65    0.42
  -1   1  -7    9.18    0.41
  -1   1  -7    9.46    0.40
   2  -1   7    0.23    0.08
  -2   1  -7    0.29    0.08
  -2   1  -7    0.39    0.08
   3  -1   7    3.05    0.21
   3  -1   7    2.78    0.15
  -3   1  -7    2.62    0.20
   4  -1   7   43.45    1.49
  -4   1  -7   39.74    1.48
   5  -1   7   16.10    0.68
  -5   1  -7   16.60    0.69
  -6   1  -7    0.24    0.10
  -7   1  -7    2.77    0.25
  -7  -2   7    1.30    0.10
  -6  -2   7   31.44    1.08
  -5  -2   7    1.69    0.13
  -4  -2   7    1.73    0.13
   4   2  -7    1.66    0.13
  -3  -2   7   32.68    1.14
  -2  -2   7  125.11    4.09
  -1  -2   7   12.43    0.39
  -1  -2   7   12.59    0.51
   1   2  -7   12.31    0.49
   0  -2   7    2.93    0.20
   0   2  -7    3.12    0.19
   1  -2   7  115.43    3.79
  -1   2  -7  114.16    3.78
   2  -2   7   94.60    3.13
  -2   2  -7   93.02    3.12
   3  -2   7    7.59    0.38
  -3   2  -7    7.15    0.37
   4  -2   7    0.39    0.10
  -4   2  -7    0.39    0.11
   5  -2   7   34.45    1.28
  -5   2  -7   35.28    1.30
  -6   2  -7   19.47    0.82
  -7   2  -7    0.09    0.10
  -6  -3   7   10.82    0.41
  -5  -3   7    1.31    0.12
  -4  -3   7   11.37    0.46
  -3  -3   7   15.84    0.52
  -3  -3   7   14.13    0.58
  -2  -3   7   13.66    0.45
  -2  -3   7   12.85    0.53
  -1  -3   7   12.73    0.53
   1   3  -7   12.81    0.51
   0  -3   7   53.02    1.80
   0   3  -7   51.64    1.78
   1  -3   7    0.22    0.08
  -1   3  -7    0.27    0.08
   2  -3   7    5.60    0.32
  -2   3  -7    5.99    0.32
   3  -3   7   44.02    1.57
  -3   3  -7   44.64    1.58
   4  -3   7   27.54    1.06
  -4   3  -7   27.95    1.06
   5  -3   7    0.15    0.09
  -5   3  -7    0.12    0.10
  -6   3  -7    5.31    0.35
  -6  -4   7    8.59    0.35
  -5  -4   7   28.81    1.01
  -4  -4   7    5.08    0.24
  -4  -4   7    4.95    0.26
  -3  -4   7    1.54    0.12
  -3  -4   7    1.61    0.14
  -2  -4   7   44.99    1.56
  -1  -4   7   61.35    2.09
   0  -4   7    0.65    0.11
   0   4  -7    0.86    0.12
   1  -4   7   -0.06    0.06
  -1   4  -7    0.14    0.07
   2  -4   7   95.31    3.22
  -2   4  -7   96.34    3.21
   3  -4   7   13.53    0.60
  -3   4  -7   13.76    0.60
   4  -4   7    1.17    0.17
  -4   4  -7    1.23    0.18
   5  -4   7   11.44    0.55
  -5   4  -7   10.95    0.55
  -6   4  -7   44.12    1.64
  -5  -5   7    6.21    0.30
  -4  -5   7   23.59    0.86
  -4  -5   7   22.97    0.81
  -3  -5   7    7.04    0.35
  -2  -5   7    4.20    0.26
  -1  -5   7   10.77    0.48
   0  -5   7   45.39    1.61
   1  -5   7   12.89    0.57
  -1   5  -7   12.65    0.55
   2  -5   7    2.10    0.21
  -2   5  -7    1.73    0.20
   3  -5   7    8.29    0.45
  -3   5  -7    8.37    0.44
   4  -5   7   49.71    1.78
  -4   5  -7   48.07    1.77
   5  -5   7    0.77    0.16
  -5   5  -7    0.82    0.17
  -4  -6   7   19.91    0.77
  -3  -6   7    5.18    0.30
  -2  -6   7    2.03    0.19
  -1  -6   7   14.14    0.62
   0  -6   7   31.98    1.20
   1  -6   7    4.16    0.30
   2  -6   7    5.87    0.37
   3  -6   7   16.67    0.74
  -3   6  -7   16.92    0.74
   4  -6   7   14.88    0.69
  -4   6  -7   14.14    0.68
  -3  -7   7   48.92    1.73
  -2  -7   7    8.12    0.43
  -1  -7   7    0.07    0.08
   0  -7   7   13.01    0.61
   1  -7   7   25.44    1.03
   2  -7   7    7.56    0.45
   3  -7   7    0.80    0.17
  -1   8   8    8.95    0.51
   1  -8  -8    9.59    0.52
   0   8   8    4.91    0.36
   0  -8  -8    5.45    0.37
  -1  -8  -8    3.68    0.31
  -3   7   8    0.35    0.13
  -2   7   8   11.94    0.59
  -1   7   8   16.97    0.76
   1  -7  -8   17.58    0.76
   0   7   8    2.11    0.24
   0  -7  -8    2.37    0.26
   1   7   8    1.58    0.19
  -1  -7  -8    1.78    0.23
  -2  -7  -8   10.37    0.54
   3   7   8   25.75    1.07
  -3  -7  -8   24.12    1.02
  -4   6   8   16.41    0.73
  -3   6   8   19.38    0.82
  -2   6   8    0.94    0.17
   2  -6  -8    1.01    0.16
  -1   6   8    3.85    0.29
   1  -6  -8    3.57    0.27
   0   6   8   47.37    1.70
   0  -6  -8   46.96    1.70
   1   6   8   13.97    0.63
  -1  -6  -8   14.39    0.64
   2   6   8    0.73    0.14
   2   6   8    0.67    0.13
  -2  -6  -8    0.57    0.14
   3   6   8   14.70    0.65
  -3  -6  -8   13.30    0.64
  -3  -6  -8   13.78    0.55
   4   6   8   35.94    1.45
  -4  -6  -8   35.03    1.36
  -4  -6  -8   37.87    1.25
  -5   5   8    3.23    0.26
  -4   5   8    7.52    0.41
  -3   5   8    6.75    0.38
  -2   5   8   15.11    0.67
   2  -5  -8   15.96    0.66
  -1   5   8   17.53    0.74
   1  -5  -8   18.30    0.74
   0   5   8   19.83    0.80
   0  -5  -8   19.28    0.79
   1   5   8   15.97    0.64
   1   5   8   15.19    0.66
  -1  -5  -8   15.51    0.67
   2   5   8   17.77    0.73
   2   5   8   17.06    0.73
  -2  -5  -8   17.79    0.74
   3   5   8    7.98    0.42
   3   5   8    8.06    0.42
  -3  -5  -8    8.49    0.36
  -3  -5  -8    8.05    0.43
   4   5   8    8.48    0.46
  -4  -5  -8    8.17    0.44
  -4  -5  -8    8.41    0.38
   5   5   8   23.85    1.02
  -5  -5  -8   22.84    0.95
  -6   4   8    3.51    0.27
  -5   4   8    1.19    0.17
  -4   4   8   22.84    0.90
  -3   4   8   28.35    1.07
  -2   4   8   16.30    0.69
   2  -4  -8   17.31    0.68
  -1   4   8    0.32    0.10
   1  -4  -8    0.20    0.08
   0   4   8   25.07    0.94
   0   4   8   24.96    0.97
   0  -4  -8   26.74    0.98
   1   4   8   80.45    2.83
   1   4   8   78.77    2.68
  -1  -4  -8   78.42    2.68
   2   4   8   25.07    0.97
   2   4   8   25.29    0.99
  -2  -4  -8   26.37    0.84
  -2  -4  -8   24.59    0.97
   3   4   8    0.03    0.07
   3   4   8    0.01    0.06
   3   4   8    0.03    0.05
  -3  -4  -8    0.05    0.06
  -3  -4  -8    0.06    0.08
   4   4   8   19.80    0.83
  -4  -4  -8   18.85    0.80
   5   4   8   42.30    1.63
  -5  -4  -8   40.42    1.51
   6   4   8    4.36    0.34
  -6  -4  -8    4.41    0.32
  -6   3   8   23.96    0.92
  -5   3   8   20.14    0.80
  -4   3   8    0.51    0.11
  -3   3   8    5.01    0.29
  -2   3   8  101.93    3.45
   2  -3  -8  105.31    3.43
  -1   3   8   27.35    1.03
   1  -3  -8   28.43    1.02
   0   3   8    0.74    0.12
   0  -3  -8    0.74    0.12
   0  -3  -8    0.76    0.06
   1   3   8    9.50    0.39
   1   3   8    9.29    0.44
  -1  -3  -8    9.70    0.33
  -1  -3  -8    9.46    0.44
   2   3   8   89.26    3.33
   2   3   8   97.17    3.14
  -2  -3  -8   94.35    3.14
   3   3   8   42.27    1.57
   3   3   8   41.51    1.49
  -3  -3  -8   41.11    1.49
   4   3   8    2.00    0.19
   4   3   8    2.00    0.19
  -4  -3  -8    2.07    0.21
   5   3   8    4.86    0.33
  -5  -3  -8    5.00    0.32
   6   3   8   32.84    1.38
  -6  -3  -8   34.40    1.28
  -6   2   8   13.99    0.58
  -5   2   8    4.26    0.26
  -4   2   8   24.19    0.91
  -3   2   8   21.40    0.82
  -2   2   8   19.60    0.77
   2  -2  -8   20.80    0.76
  -1   2   8   25.05    0.96
   1  -2  -8   26.68    0.95
   0   2   8   68.40    2.35
   0  -2  -8   69.99    2.34
  -1  -2  -8   12.30    0.53
   2   2   8   19.10    0.75
  -2  -2  -8   18.53    0.75
   3   2   8   30.14    1.10
  -3  -2  -8   28.48    1.09
   4   2   8   34.37    1.23
  -4  -2  -8   32.14    1.23
  -5  -2  -8   16.09    0.69
  -6  -2  -8   16.60    0.73
  -6   1   8    1.91    0.17
  -5   1   8   34.06    1.21
  -4   1   8   44.77    1.55
  -3   1   8    0.52    0.10
  -2   1   8   23.50    0.89
   2  -1  -8   24.43    0.87
  -1   1   8  118.04    3.90
   1  -1  -8  118.72    3.89
   0   1   8   41.86    1.46
   0  -1  -8   41.08    1.45
   1   1   8    0.05    0.06
  -1  -1  -8    0.08    0.06
   2   1   8   65.35    2.24
  -2  -1  -8   66.03    2.24
   3   1   8   69.85    2.34
  -3  -1  -8   67.31    2.34
   4   1   8   10.11    0.48
  -4  -1  -8   10.14    0.49
  -5  -1  -8    0.46    0.12
  -6  -1  -8   28.21    1.10
  -6   0   8    7.06    0.33
  -5   0   8   11.74    0.49
  -4   0   8   29.65    1.06
  -3   0   8   40.98    1.43
  -2   0   8   21.94    0.82
  -1   0   8    1.58    0.15
   1   0  -8    1.76    0.15
   0   0   8   81.90    2.81
   0   0  -8   86.25    2.80
   1   0   8   93.02    3.11
  -1   0  -8   93.42    3.10
   2   0   8    6.58    0.35
  -2   0  -8    7.12    0.36
   3   0   8    1.67    0.19
  -3   0  -8    1.59    0.19
   4   0   8   98.53    3.26
  -4   0  -8   95.26    3.26
  -5   0  -8   22.78    0.91
  -6   0  -8    0.29    0.12
  -6  -1   8    3.49    0.21
  -5  -1   8    4.13    0.23
  -4  -1   8   33.21    1.17
  -3  -1   8   57.70    1.96
  -2  -1   8   12.18    0.51
  -1  -1   8    9.05    0.42
   1   1  -8    9.76    0.36
   1   1  -8    9.41    0.41
   0  -1   8   72.78    2.58
   0   1  -8   81.14    2.72
   0   1  -8   76.23    2.57
   1  -1   8   24.65    0.94
  -1   1  -8   24.58    0.93
  -1   1  -8   24.91    0.92
   2  -1   8   14.91    0.63
  -2   1  -8   15.57    0.63
   3  -1   8   34.50    1.25
  -3   1  -8   33.27    1.24
   4  -1   8   39.72    1.43
  -4   1  -8   38.95    1.43
   5  -1   8    3.53    0.27
  -5   1  -8    3.54    0.28
  -6   1  -8   15.79    0.71
  -6  -2   8   33.69    1.17
  -5  -2   8    2.71    0.18
  -4  -2   8    0.70    0.11
  -3  -2   8   39.94    1.39
  -2  -2   8   60.68    2.06
  -1  -2   8   17.67    0.70
   0  -2   8    8.93    0.42
   0   2  -8    9.23    0.41
   1  -2   8   38.63    1.37
  -1   2  -8   38.40    1.36
  -1   2  -8   37.34    1.42
   2  -2   8   65.52    2.24
  -2   2  -8   64.48    2.22
   3  -2   8    1.43    0.18
  -3   2  -8    1.33    0.17
   4  -2   8    9.02    0.45
  -4   2  -8    8.46    0.44
   5  -2   8   46.14    1.67
  -5   2  -8   46.01    1.67
  -6   2  -8   18.53    0.81
  -5  -3   8   30.49    1.08
  -4  -3   8   14.17    0.57
  -3  -3   8    6.50    0.32
  -2  -3   8   21.86    0.83
  -1  -3   8   32.86    1.19
   0  -3   8   11.41    0.51
   0   3  -8   11.62    0.49
   1  -3   8   29.13    1.11
  -1   3  -8   30.63    1.10
   2  -3   8   37.75    1.42
  -2   3  -8   41.09    1.43
   3  -3   8    4.95    0.32
  -3   3  -8    5.15    0.32
   4  -3   8    7.54    0.42
  -4   3  -8    7.72    0.42
   5  -3   8   12.94    0.61
  -5   3  -8   12.49    0.60
  -6   3  -8   15.45    0.71
  -5  -4   8   24.58    0.89
  -4  -4   8    0.38    0.09
  -3  -4   8   10.67    0.47
  -2  -4   8   40.71    1.44
  -1  -4   8   24.87    0.95
   0  -4   8    1.94    0.19
   1  -4   8    9.53    0.47
  -1   4  -8    9.48    0.45
   2  -4   8   30.55    1.18
  -2   4  -8   31.68    1.17
   3  -4   8   32.83    1.26
  -3   4  -8   33.83    1.26
   4  -4   8    5.71    0.37
  -4   4  -8    5.26    0.36
   5  -4   8    0.03    0.10
  -5   4  -8    0.09    0.11
  -4  -5   8   21.78    0.83
  -3  -5   8    6.36    0.34
  -2  -5   8    0.05    0.07
  -1  -5   8   36.38    1.33
   0  -5   8   38.78    1.42
   1  -5   8    0.69    0.14
   2  -5   8    0.35    0.12
  -2   5  -8    0.74    0.16
   3  -5   8   30.53    1.18
  -3   5  -8   29.40    1.16
   4  -5   8   13.68    0.66
  -4   5  -8   13.75    0.65
  -3  -6   8   18.09    0.74
  -2  -6   8    2.11    0.23
  -1  -6   8    8.60    0.45
   0  -6   8    8.24    0.44
   1  -6   8   13.59    0.64
   2  -6   8    4.41    0.33
   3  -6   8    3.45    0.31
   0  -7   8    9.33    0.50
  -2   7   9   13.70    0.67
  -1   7   9    8.80    0.50
   1  -7  -9    9.52    0.51
   0   7   9   10.90    0.56
   0  -7  -9   11.41    0.57
   1   7   9    8.39    0.47
  -1  -7  -9    8.64    0.49
  -2  -7  -9   13.02    0.65
  -3   6   9    3.78    0.31
  -2   6   9    0.02    0.09
  -1   6   9   11.38    0.56
   1  -6  -9   10.67    0.54
   0   6   9   44.97    1.65
   0  -6  -9   45.37    1.65
   1   6   9    4.92    0.33
  -1  -6  -9    4.90    0.34
   2   6   9    2.28    0.22
  -2  -6  -9    1.56    0.21
  -3  -6  -9   18.74    0.81
  -4   5   9    2.63    0.25
  -3   5   9   24.11    0.98
  -2   5   9   27.64    1.08
  -1   5   9    0.07    0.08
   1  -5  -9    0.15    0.10
   0   5   9    6.08    0.37
   0  -5  -9    6.84    0.38
   1   5   9   32.51    1.22
  -1  -5  -9   31.74    1.22
   2   5   9   19.45    0.82
  -2  -5  -9   20.52    0.84
   3   5   9    0.41    0.11
  -3  -5  -9    0.34    0.12
   4   5   9   15.13    0.69
  -4  -5  -9   14.28    0.68
  -5   4   9    1.67    0.21
  -4   4   9    9.74    0.49
  -3   4   9   14.12    0.63
  -2   4   9    7.08    0.39
  -1   4   9    8.59    0.43
   1  -4  -9    8.03    0.41
   0   4   9   28.99    1.12
   0  -4  -9   30.10    1.11
   1   4   9    9.33    0.46
  -1  -4  -9    9.35    0.46
   2   4   9    5.52    0.29
   2   4   9    5.69    0.34
  -2  -4  -9    5.64    0.34
   3   4   9    6.35    0.35
   3   4   9    6.48    0.37
  -3  -4  -9    6.43    0.38
   4   4   9   19.93    0.86
  -4  -4  -9   20.49    0.85
   5   4   9    8.85    0.48
  -5  -4  -9    8.24    0.47
  -5   3   9   11.13    0.52
  -4   3   9    0.05    0.07
  -3   3   9    3.92    0.27
  -2   3   9   41.90    1.50
  -1   3   9   12.24    0.55
   1  -3  -9   12.57    0.54
   0   3   9    0.08    0.07
   0  -3  -9    0.01    0.06
   1   3   9   17.75    0.74
  -1  -3  -9   18.13    0.73
   2   3   9   70.04    2.35
   2   3   9   67.36    2.35
  -2  -3  -9   67.19    2.35
   3   3   9    0.57    0.13
  -3  -3  -9    0.30    0.11
  -4  -3  -9    0.95    0.17
  -5  -3  -9   15.14    0.69
  -5   2   9   11.96    0.53
  -4   2   9   13.74    0.59
  -3   2   9    3.79    0.25
  -2   2   9    2.30    0.20
  -1   2   9   19.05    0.77
   1  -2  -9   19.75    0.76
   0   2   9   19.48    0.77
   0  -2  -9   18.74    0.75
   1   2   9    2.66    0.21
   1   2   9    2.66    0.22
  -1  -2  -9    2.60    0.22
   2   2   9    8.39    0.42
  -2  -2  -9    8.11    0.42
   3   2   9   22.27    0.88
  -3  -2  -9   21.89    0.88
   4   2   9   13.25    0.61
  -4  -2  -9   13.82    0.62
  -5  -2  -9    0.33    0.11
  -6  -2  -9    3.37    0.29
  -5   1   9   18.90    0.75
  -4   1   9    0.46    0.11
  -3   1   9    1.25    0.15
  -2   1   9   14.68    0.62
  -1   1   9   29.48    1.10
   1  -1  -9   29.84    1.08
   0   1   9    2.37    0.20
   0  -1  -9    2.75    0.20
   1   1   9    0.28    0.10
  -1  -1  -9    0.13    0.07
   2   1   9   12.78    0.57
  -2  -1  -9   13.00    0.57
   3   1   9   29.10    1.10
  -3  -1  -9   28.26    1.09
   4   1   9    5.18    0.33
  -4  -1  -9    4.98    0.33
  -5  -1  -9    0.12    0.10
  -6  -1  -9    7.45    0.44
  -5   0   9    0.18    0.08
  -4   0   9   21.31    0.82
  -3   0   9   23.49    0.89
  -3   0   9   23.55    0.89
  -2   0   9    6.99    0.36
  -1   0   9    4.31    0.27
   0   0   9   51.91    1.86
   0   0  -9   55.19    1.85
   1   0   9   10.07    0.47
  -1   0  -9    9.82    0.46
   2   0   9    5.85    0.34
  -2   0  -9    5.71    0.33
   3   0   9    3.65    0.27
  -3   0  -9    4.13    0.28
   4   0   9   27.93    1.08
  -4   0  -9   27.94    1.08
  -5   0  -9    3.89    0.30
  -6   0  -9    0.25    0.12
  -5  -1   9    4.89    0.27
  -4  -1   9    0.32    0.09
  -3  -1   9    2.90    0.21
  -2  -1   9    5.17    0.30
  -1  -1   9    9.24    0.44
   0  -1   9    0.23    0.09
   0   1  -9    0.05    0.06
   1  -1   9   13.06    0.60
  -1   1  -9   14.35    0.59
   2  -1   9    8.34    0.42
  -2   1  -9    8.03    0.42
   3  -1   9    0.15    0.09
  -3   1  -9    0.16    0.10
   4  -1   9    1.05    0.17
  -4   1  -9    1.04    0.17
  -5   1  -9    7.99    0.45
  -5  -2   9    0.21    0.08
  -4  -2   9    0.58    0.11
  -3  -2   9   24.81    0.94
  -2  -2   9    1.29    0.16
  -1  -2   9    5.15    0.31
   0  -2   9    0.88    0.14
   1  -2   9   46.84    1.67
  -1   2  -9   46.56    1.65
   2  -2   9    0.09    0.08
  -2   2  -9    0.09    0.08
   3  -2   9    1.70    0.20
  -3   2  -9    1.12    0.17
   4  -2   9    4.03    0.30
  -4   2  -9    3.87    0.29
  -5   2  -9    8.57    0.48
  -4  -3   9    7.89    0.38
  -3  -3   9    0.99    0.14
  -2  -3   9   18.74    0.75
  -1  -3   9   11.25    0.52
   0  -3   9   10.28    0.49
   1  -3   9    0.25    0.10
   2  -3   9   15.23    0.68
  -2   3  -9   15.73    0.67
   3  -3   9   14.91    0.69
  -3   3  -9   16.00    0.69
   4  -3   9    7.98    0.44
  -4   3  -9    6.60    0.41
  -5   3  -9    0.04    0.10
  -4  -4   9    3.10    0.22
  -3  -4   9    0.03    0.07
  -2  -4   9    1.14    0.15
  -1  -4   9   10.26    0.49
   0  -4   9    2.93    0.25
   1  -4   9    0.04    0.08
   2  -4   9    0.23    0.11
   3  -4   9    1.71    0.24
  -3   4  -9    1.54    0.22
   4  -4   9    0.28    0.14
  -4   4  -9    0.08    0.11
  -3  -5   9    4.26    0.28
  -2  -5   9    0.20    0.09
  -1  -5   9   10.81    0.53
   0  -5   9    0.61    0.14
   1  -5   9    0.36    0.13
   2  -5   9    1.11    0.19
   3  -5   9    7.01    0.44
   0  -6   9    6.44    0.40
   1  -6   9    5.24    0.37
  -1   6  10   10.87    0.56
   0   6  10    1.21    0.20
   0  -6 -10    1.24    0.20
   1   6  10    2.02    0.24
  -1  -6 -10    2.20    0.25
  -3   5  10   17.65    0.78
  -2   5  10    4.47    0.32
  -1   5  10   12.31    0.59
   0   5  10   13.79    0.64
   0  -5 -10   13.38    0.63
   1   5  10   27.16    1.09
  -1  -5 -10   27.75    1.09
   2   5  10   13.50    0.63
  -2  -5 -10   13.19    0.63
  -3  -5 -10   12.35    0.61
  -3   4  10    0.61    0.14
  -2   4  10    1.09    0.17
  -1   4  10    5.15    0.33
   0   4  10    5.77    0.36
   0  -4 -10    6.11    0.36
   1   4  10    0.79    0.15
  -1  -4 -10    1.01    0.16
   2   4  10   10.80    0.52
   2   4  10   10.01    0.51
  -2  -4 -10   10.44    0.52
   3   4  10    3.58    0.29
  -3  -4 -10    3.58    0.29
  -4  -4 -10    8.81    0.49
  -4   3  10    5.68    0.35
  -3   3  10    9.54    0.48
  -2   3  10    4.22    0.30
  -1   3  10    5.00    0.32
   0   3  10    6.57    0.38
   0  -3 -10    6.72    0.37
   1   3  10   11.41    0.54
   1   3  10   11.26    0.54
  -1  -3 -10   11.53    0.54
   2   3  10    0.61    0.14
  -2  -3 -10    0.70    0.15
   3   3  10    6.40    0.39
  -3  -3 -10    6.65    0.40
  -4  -3 -10    0.04    0.10
  -4   2  10    0.25    0.10
  -3   2  10   10.53    0.50
  -2   2  10    1.03    0.15
  -1   2  10   29.31    1.12
   0   2  10    0.09    0.08
   0   2  10    0.06    0.08
   0  -2 -10    0.18    0.08
   1   2  10   20.30    0.83
  -1  -2 -10   20.21    0.82
   2   2  10    0.12    0.10
  -2  -2 -10    0.07    0.08
   3   2  10   20.99    0.88
  -3  -2 -10   21.70    0.89
  -4  -2 -10    2.64    0.25
  -5  -2 -10   10.17    0.54
  -4   1  10    0.34    0.10
  -3   1  10    0.11    0.09
  -2   1  10    0.45    0.11
  -1   1  10    0.02    0.07
  -1   1  10    0.15    0.08
   0   1  10    0.27    0.10
   0  -1 -10    0.25    0.09
   1   1  10    2.73    0.24
  -1  -1 -10    2.61    0.22
   2   1  10    0.89    0.15
  -2  -1 -10    0.89    0.15
   3   1  10    0.65    0.14
  -3  -1 -10    0.63    0.15
   4   1  10    0.31    0.12
  -4  -1 -10    0.22    0.11
  -5  -1 -10    0.93    0.18
  -4   0  10    7.61    0.39
  -3   0  10    0.51    0.12
  -2   0  10   13.63    0.60
  -1   0  10    1.61    0.19
   0   0  10    5.68    0.34
   1   0  10    2.14    0.24
  -1   0 -10    2.17    0.21
   2   0  10   11.60    0.57
  -2   0 -10   12.43    0.56
   3   0  10    7.97    0.45
  -3   0 -10    8.87    0.46
   4   0  10    3.49    0.29
  -4   0 -10    3.38    0.28
  -5   0 -10    4.56    0.34
  -4  -1  10    2.71    0.22
  -3  -1  10   10.89    0.51
  -2  -1  10    1.30    0.17
  -1  -1  10   13.44    0.60
   0  -1  10    1.76    0.21
   1  -1  10   13.65    0.62
  -1   1 -10   13.51    0.60
   2  -1  10    0.57    0.14
  -2   1 -10    0.58    0.14
   3  -1  10    6.85    0.41
  -3   1 -10    7.21    0.41
   4  -1  10    0.07    0.10
  -4   1 -10    0.02    0.09
  -4  -2  10    0.36    0.10
  -3  -2  10    0.07    0.08
  -2  -2  10    0.71    0.14
  -1  -2  10    0.14    0.09
   0  -2  10    0.55    0.13
   1  -2  10    0.08    0.09
   2  -2  10    0.74    0.15
  -2   2 -10    1.01    0.17
   3  -2  10    0.18    0.12
  -3   2 -10    0.16    0.10
   4  -2  10   -0.02    0.10
  -4   2 -10    0.06    0.09
  -3  -3  10    2.43    0.22
  -2  -3  10   12.83    0.58
  -1  -3  10    0.01    0.08
   0  -3  10   14.65    0.66
   1  -3  10    2.40    0.24
   2  -3  10   13.78    0.65
   3  -3  10    2.52    0.27
  -3   3 -10    2.59    0.28
  -2  -4  10    0.08    0.09
  -1  -4  10    0.15    0.10
   0  -4  10    1.17    0.18
   1  -4  10    1.38    0.20
   2  -4  10    0.17    0.12
  -1   4  11    0.10    0.10
   0   4  11    2.71    0.26
   1   4  11    8.62    0.48
  -1  -4 -11    9.05    0.49
   2   4  11    2.10    0.26
  -2  -4 -11    2.20    0.27
  -2   3  11    0.05    0.09
  -1   3  11    0.36    0.12
   0   3  11    1.65    0.20
   1   3  11    1.27    0.19
  -1  -3 -11    1.24    0.18
   2   3  11    0.20    0.11
  -2  -3 -11    0.38    0.12
   3   3  11    3.07    0.28
  -3  -3 -11    2.74    0.27
  -3   2  11    0.39    0.12
  -2   2  11   15.66    0.70
  -1   2  11    5.33    0.35
  -1   2  11    5.79    0.36
   0   2  11    4.48    0.32
   1   2  11    0.09    0.09
  -1  -2 -11    0.11    0.09
   2   2  11   20.44    0.87
  -2  -2 -11   20.34    0.86
   3   2  11    6.76    0.41
  -3  -2 -11    6.49    0.41
  -3   1  11    0.74    0.14
  -3   1  11    0.84    0.15
  -2   1  11    4.36    0.31
  -1   1  11    3.96    0.30
   0   1  11   28.64    1.12
   1   1  11   -0.01    0.08
   2   1  11    4.75    0.33
  -2  -1 -11    4.16    0.31
   3   1  11    9.96    0.52
  -3  -1 -11    9.25    0.51
  -3   0  11    0.60    0.13
  -2   0  11   13.08    0.60
  -1   0  11    8.75    0.46
   0   0  11    0.50    0.13
   1   0  11    0.37    0.13
   2   0  11    9.25    0.49
  -2   0 -11    8.50    0.47
   3   0  11    3.36    0.30
  -3   0 -11    3.72    0.30
  -3  -1  11   23.06    0.92
  -2  -1  11    0.52    0.13
  -1  -1  11    8.12    0.44
   0  -1  11   39.68    1.48
   1  -1  11   31.58    1.23
   2  -1  11    2.12    0.26
   3  -1  11    1.51    0.22
  -3   1 -11    1.42    0.21
  -2  -2  11   23.26    0.94
  -1  -2  11    7.43    0.42
   0  -2  11    0.37    0.13
   1  -2  11    0.51    0.15
   2  -2  11   35.92    1.39
   0  -3  11    4.03    0.32
   1  -3  11   13.85    0.67
   0   0   0    0.00    0.00
;
loop_
_space_group_symop_operation_xyz
'x, y, z'
'-x, -y, -z'
loop_
_atom_site_label
_atom_site_type_symbol
_atom_site_fract_x
_atom_site_fract_y
_atom_site_fract_z
_atom_site_U_iso_or_equiv
_atom_site_adp_type
_atom_site_occupancy
_atom_site_site_symmetry_order
_atom_site_calc_flag
_atom_site_refinement_flags_posn
_atom_site_refinement_flags_adp
_atom_site_refinement_flags_occupancy
_atom_site_disorder_assembly
_atom_site_disorder_group
Cu1 Cu 0.0000 0.0000 0.0000 0.01578(8) Uani 1 2 d S . P . .
Cl1 Cl 0.25808(5) 0.16890(5) -0.00147(4) 0.02463(10) Uani 1 1 d . . . . .
Cl2 Cl 0.00196(5) -0.02415(5) 0.24969(4) 0.02390(10) Uani 1 1 d . . . . .
Cl3 Cl 0.26316(6) 0.53229(6) 0.21924(4) 0.02630(11) Uani 1 1 d . . . . .
O1W O 0.47244(16) -0.05595(15) 0.26064(12) 0.0228(2) Uani 1 1 d D . . . .
N1 N 0.32235(17) 0.70041(16) 0.44756(13) 0.0169(2) Uani 1 1 d . . . . .
H1 H 0.3562 0.7813 0.3806 0.020 Uiso 1 1 calc R U . . .
N2 N 0.1714(2) 0.26268(18) 0.46256(16) 0.0265(3) Uani 1 1 d . . . . .
H2A H 0.1716 0.2451 0.3689 0.032 Uiso 1 1 calc R U . . .
H2B H 0.1407 0.1802 0.5290 0.032 Uiso 1 1 calc R U . . .
C1 C 0.2684(2) 0.5517(2) 0.40341(15) 0.0167(3) Uani 1 1 d . . . . .
C2 C 0.2186(2) 0.41684(19) 0.50465(16) 0.0169(3) Uani 1 1 d . . . . .
C3 C 0.2226(2) 0.44960(19) 0.65323(16) 0.0172(3) Uani 1 1 d . . . . .
H3 H 0.1887 0.3620 0.7261 0.021 Uiso 1 1 calc R U . . .
C4 C 0.2745(2) 0.60630(19) 0.69654(16) 0.0167(3) Uani 1 1 d . . . . .
C5 C 0.3272(2) 0.73210(19) 0.58940(16) 0.0175(3) Uani 1 1 d . . . . .
H5 H 0.3664 0.8397 0.6160 0.021 Uiso 1 1 calc R U . . .
C6 C 0.2730(2) 0.6388(2) 0.85577(16) 0.0238(3) Uani 1 1 d . . . . .
H6A H 0.3525 0.7370 0.8697 0.036 Uiso 1 1 calc R U . . .
H6B H 0.3223 0.5395 0.9139 0.036 Uiso 1 1 calc R U . . .
H6C H 0.1433 0.6609 0.8878 0.036 Uiso 1 1 calc R U . . .
H1W H 0.378(3) 0.003(3) 0.199(2) 0.049(7) Uiso 1 1 d D . . . .
H2W H 0.566(3) -0.096(4) 0.192(3) 0.076(9) Uiso 1 1 d D . . . .
loop_
_atom_site_aniso_label
_atom_site_aniso_U_11
_atom_site_aniso_U_22
_atom_site_aniso_U_33
_atom_site_aniso_U_23
_atom_site_aniso_U_13
_atom_site_aniso_U_12
Cu1 0.01789(14) 0.01446(13) 0.01508(14) -0.00161(9) -0.00161(9) -0.00152(9)
Cl1 0.0267(2) 0.0260(2) 0.02078(19) 0.00130(15) -0.00409(15) -0.01068(15)
Cl2 0.0285(2) 0.0280(2) 0.01541(19) -0.00256(14) -0.00116(14) -0.00692(15)
Cl3 0.0294(2) 0.0390(2) 0.01129(17) -0.00654(15) -0.00120(14) -0.00031(17)
O1W 0.0236(6) 0.0265(6) 0.0175(5) 0.0029(4) -0.0006(4) -0.0026(5)
N1 0.0177(6) 0.0190(6) 0.0134(6) 0.0012(5) 0.0005(5) -0.0014(5)
N2 0.0348(8) 0.0220(7) 0.0236(7) -0.0069(6) -0.0016(6) -0.0066(6)
C1 0.0155(6) 0.0239(8) 0.0111(6) -0.0042(5) -0.0010(5) 0.0011(5)
C2 0.0137(6) 0.0194(7) 0.0181(7) -0.0040(6) -0.0020(5) 0.0003(5)
C3 0.0170(7) 0.0188(7) 0.0154(7) 0.0007(5) -0.0005(5) 0.0002(5)
C4 0.0159(6) 0.0211(7) 0.0133(7) -0.0024(5) -0.0011(5) 0.0016(5)
C5 0.0184(7) 0.0191(7) 0.0154(7) -0.0038(6) -0.0014(5) -0.0017(5)
C6 0.0332(9) 0.0268(8) 0.0119(7) -0.0039(6) -0.0011(6) 0.0011(7)
loop_
_atom_type_symbol
_atom_type_description
_atom_type_scat_dispersion_real
_atom_type_scat_dispersion_imag
_atom_type_scat_source
C C 0.0033 0.0016 'International Tables Vol C Tables 4.2.6.8 and 6.1.1.4'
H H 0.0000 0.0000 'International Tables Vol C Tables 4.2.6.8 and 6.1.1.4'
N N 0.0061 0.0033 'International Tables Vol C Tables 4.2.6.8 and 6.1.1.4'
O O 0.0106 0.0060 'International Tables Vol C Tables 4.2.6.8 and 6.1.1.4'
Cl Cl 0.1484 0.1585 'International Tables Vol C Tables 4.2.6.8 and 6.1.1.4'
Cu Cu 0.3201 1.2651 'International Tables Vol C Tables 4.2.6.8 and 6.1.1.4'
loop_
_geom_angle_atom_site_label_1
_geom_angle_atom_site_label_2
_geom_angle_atom_site_label_3
_geom_angle
_geom_angle_site_symmetry_1
_geom_angle_site_symmetry_3
Cl1 Cu1 Cl1 180.0 2 .
Cl1 Cu1 Cl2 89.386(15) 2 2
Cl1 Cu1 Cl2 90.615(15) . 2
Cl1 Cu1 Cl2 90.614(15) 2 .
Cl1 Cu1 Cl2 89.385(14) . .
Cl2 Cu1 Cl2 180.0 2 .
H1W O1W H2W 105(2) . .
C1 N1 C5 123.03(13) . .
C1 N1 H1 118.5 . .
C5 N1 H1 118.5 . .
C2 N2 H2A 120.0 . .
C2 N2 H2B 120.0 . .
H2A N2 H2B 120.0 . .
N1 C1 C2 121.13(13) . .
N1 C1 Cl3 117.64(11) . .
C2 C1 Cl3 121.23(11) . .
N2 C2 C1 122.13(14) . .
N2 C2 C3 121.82(14) . .
C1 C2 C3 116.05(13) . .
C4 C3 C2 121.87(14) . .
C4 C3 H3 119.1 . .
C2 C3 H3 119.1 . .
C5 C4 C3 118.52(13) . .
C5 C4 C6 120.81(14) . .
C3 C4 C6 120.67(14) . .
N1 C5 C4 119.36(13) . .
N1 C5 H5 120.3 . .
C4 C5 H5 120.3 . .
C4 C6 H6A 109.5 . .
C4 C6 H6B 109.5 . .
H6A C6 H6B 109.5 . .
C4 C6 H6C 109.5 . .
H6A C6 H6C 109.5 . .
H6B C6 H6C 109.5 . .
loop_
_geom_bond_atom_site_label_1
_geom_bond_atom_site_label_2
_geom_bond_distance
_geom_bond_site_symmetry_2
Cu1 Cl1 2.2655(5) 2
Cu1 Cl1 2.2655(5) .
Cu1 Cl2 2.2765(6) 2
Cu1 Cl2 2.2765(6) .
Cl3 C1 1.7056(15) .
O1W H1W 0.973(5) .
O1W H2W 0.974(5) .
N1 C1 1.337(2) .
N1 C5 1.3433(19) .
N1 H1 0.8800 .
N2 C2 1.357(2) .
N2 H2A 0.8800 .
N2 H2B 0.8800 .
C1 C2 1.397(2) .
C2 C3 1.406(2) .
C3 C4 1.388(2) .
C3 H3 0.9500 .
C4 C5 1.387(2) .
C4 C6 1.500(2) .
C5 H5 0.9500 .
C6 H6A 0.9800 .
C6 H6B 0.9800 .
C6 H6C 0.9800 .
