#------------------------------------------------------------------------------
#$Date: 2022-01-01 07:13:54 +0200 (Sat, 01 Jan 2022) $
#$Revision: 271676 $
#$URL: file:///home/coder/svn-repositories/cod/cif/1/56/58/1565891.cif $
#------------------------------------------------------------------------------
#
# This file is available in the Crystallography Open Database (COD),
# http://www.crystallography.net/. The original data for this entry
# were provided by IUCr Journals, http://journals.iucr.org/.
#
# The file may be used within the scientific community so long as
# proper attribution is given to the journal article from which the
# data were obtained.
#
data_1565891
loop_
_publ_author_name
'Olejniczak, Anna'
'Katrusiak, Anna'
'Podsiad\/lo, Marcin'
'Katrusiak, Andrzej'
_publ_section_title
;
 Stochastic hydration of a high-nitrogen-content molecular compound
 recrystallized under pressure
;
_journal_issue                   1
_journal_name_full               IUCrJ
_journal_page_first              49
_journal_page_last               54
_journal_paper_doi               10.1107/S2052252521010381
_journal_volume                  9
_journal_year                    2022
_chemical_formula_moiety         'C4 H2 Cl N5'
_chemical_formula_sum            'C4 H2 Cl N5'
_chemical_formula_weight         155.56
_chemical_name_systematic        6-chloro-1,2,3,4-tetrazolo[1,5-b]pyridazine
_space_group_crystal_system      monoclinic
_space_group_IT_number           14
_space_group_name_Hall           '-P 2ybc'
_space_group_name_H-M_alt        'P 1 21/c 1'
_atom_sites_solution_hydrogens   geom
_atom_sites_solution_primary     direct
_audit_creation_date             2020-07-14
_audit_creation_method
;
Olex2 1.3
(compiled 2020.06.28 svn.raecde09e for OlexSys, GUI svn.r6132)
;
_cell_angle_alpha                90
_cell_angle_beta                 100.54(2)
_cell_angle_gamma                90
_cell_formula_units_Z            4
_cell_length_a                   7.808(6)
_cell_length_b                   12.9522(8)
_cell_length_c                   5.5722(4)
_cell_measurement_reflns_used    1193
_cell_measurement_temperature    296(2)
_cell_measurement_theta_max      25.5830
_cell_measurement_theta_min      4.0220
_cell_volume                     554.0(4)
_computing_cell_refinement       'CrysAlisPro 1.171.40.67a (Rigaku OD, 2019)'
_computing_data_collection       'CrysAlisPro 1.171.40.67a (Rigaku OD, 2019)'
_computing_data_reduction        'CrysAlisPro 1.171.40.67a (Rigaku OD, 2019)'
_computing_molecular_graphics    'Olex2 1.3 (Dolomanov et al., 2009)'
_computing_publication_material  'Olex2 1.3 (Dolomanov et al., 2009)'
_computing_structure_refinement  'SHELXL 2018/3 (Sheldrick, 2015)'
_computing_structure_solution    'SHELXT 2018/2 (Sheldrick, 2018)'
_diffrn_ambient_environment      'diamond-anvil cell'
_diffrn_ambient_pressure         550000
_diffrn_ambient_temperature      296
_diffrn_detector                 'CCD plate'
_diffrn_detector_area_resol_mean 16.2413
_diffrn_detector_type            Eos
_diffrn_measured_fraction_theta_full 0.333
_diffrn_measured_fraction_theta_max 0.297
_diffrn_measurement_details
;
List of Runs (angles in degrees, time in seconds):

  # Type    Start    End  Width  t~exp~   \w     \q     \k     \f   Frames
--------------------------------------------------------------------------
  1  \f    -35.00  19.75   0.75   20.00   0.00 -30.00   0.00    --    73
  2  \f    140.00 200.00   0.75   20.00   0.00 -30.00   0.00    --    80
  3  \f    160.00 217.00   0.75   20.00   0.00  30.00   0.00    --    76
  4  \f    -20.00  34.75   0.75   20.00   0.00  30.00   0.00    --    73
  5  \w    -24.00  24.00   0.75   20.00    --   30.00  39.46 -12.90   64
  6  \w    -24.00  24.00   0.75   20.00    --   30.00  39.46 167.10   64
  7  \w    -50.00  10.00   0.75   20.00    --  -30.00  39.46 167.10   80
  8  \w    -50.00  10.00   0.75   20.00    --  -30.00  39.46 -12.90   80
  9  \w    -64.00  -8.50   0.75   20.00    --  -30.00  81.40 -28.90   74
 10  \w    -64.00  -8.50   0.75   20.00    --  -30.00  81.40 151.10   74
 11  \w    -19.00   8.00   0.75   20.00    --   30.00  81.40 151.10   36
 12  \w    -19.00   8.00   0.75   20.00    --   30.00  81.40 -28.90   36
 13  \w    -43.00 -21.25   0.75   20.00    --   30.00 134.60 -56.90   29
 14  \w    -43.00 -21.25   0.75   20.00    --   30.00 134.60 123.10   29
 15  \w    -90.00 -36.00   0.75   20.00    --  -30.00 134.60 123.10   72
 16  \w    -90.00 -36.00   0.75   20.00    --  -30.00 134.60 -56.90   72
;
_diffrn_measurement_device       'four-circle diffractometer'
_diffrn_measurement_device_type  'KM-4 CCD'
_diffrn_measurement_method
;
HP omega scans - for more details see:
A. Budzianowski, A. Katrusiak in High-Pressure Crystallography
(Eds.: A. Katrusiak, P. F. McMillan),
Dordrecht: Kluwer Acad. Publ., 2004 pp.157-168
;
_diffrn_orient_matrix_type
'CrysAlisPro convention (1999,Acta A55,543-557)'
_diffrn_orient_matrix_UB_11      0.0914849000
_diffrn_orient_matrix_UB_12      0.0040811000
_diffrn_orient_matrix_UB_13      0.0076257000
_diffrn_orient_matrix_UB_21      -0.0133894000
_diffrn_orient_matrix_UB_22      0.0260422000
_diffrn_orient_matrix_UB_23      -0.1138031000
_diffrn_orient_matrix_UB_31      -0.0005131000
_diffrn_orient_matrix_UB_32      0.0479903000
_diffrn_orient_matrix_UB_33      0.0611506000
_diffrn_radiation_monochromator  graphite
_diffrn_radiation_probe          x-ray
_diffrn_radiation_type           'Mo K\a'
_diffrn_radiation_wavelength     0.71073
_diffrn_reflns_av_R_equivalents  0.0307
_diffrn_reflns_av_unetI/netI     0.0173
_diffrn_reflns_Laue_measured_fraction_full 0.333
_diffrn_reflns_Laue_measured_fraction_max 0.297
_diffrn_reflns_limit_h_max       2
_diffrn_reflns_limit_h_min       -2
_diffrn_reflns_limit_k_max       16
_diffrn_reflns_limit_k_min       -15
_diffrn_reflns_limit_l_max       7
_diffrn_reflns_limit_l_min       -7
_diffrn_reflns_number            3241
_diffrn_reflns_point_group_measured_fraction_full 0.333
_diffrn_reflns_point_group_measured_fraction_max 0.297
_diffrn_reflns_theta_full        25.242
_diffrn_reflns_theta_max         27.242
_diffrn_reflns_theta_min         4.039
_diffrn_source                   'fine-focus sealed X-ray tube'
_diffrn_source_type              'Enhance (Mo) X-ray Source'
_exptl_absorpt_coefficient_mu    0.594
_exptl_absorpt_correction_T_max  1.00000
_exptl_absorpt_correction_T_min  0.45279
_exptl_absorpt_correction_type   multi-scan
_exptl_absorpt_process_details
;
CrysAlisPro 1.171.39.46 (Rigaku Oxford Diffraction, 2018)
Empirical absorption correction using spherical harmonics,
 implemented in SCALE3 ABSPACK scaling algorithm.
;
_exptl_crystal_colour            colourless
_exptl_crystal_density_diffrn    1.865
_exptl_crystal_description       plate
_exptl_crystal_F_000             312
_exptl_crystal_size_max          0.35
_exptl_crystal_size_mid          0.25
_exptl_crystal_size_min          0.14
_refine_diff_density_max         0.080
_refine_diff_density_min         -0.081
_refine_diff_density_rms         0.021
_refine_ls_extinction_method     none
_refine_ls_goodness_of_fit_ref   1.098
_refine_ls_hydrogen_treatment    constr
_refine_ls_matrix_type           full
_refine_ls_number_parameters     91
_refine_ls_number_reflns         367
_refine_ls_number_restraints     0
_refine_ls_restrained_S_all      1.098
_refine_ls_R_factor_all          0.0337
_refine_ls_R_factor_gt           0.0222
_refine_ls_shift/su_max          0.000
_refine_ls_shift/su_mean         0.000
_refine_ls_structure_factor_coef Fsqd
_refine_ls_weighting_details
'w=1/[\s^2^(Fo^2^)+(0.0229P)^2^+0.0869P] where P=(Fo^2^+2Fc^2^)/3'
_refine_ls_weighting_scheme      calc
_refine_ls_wR_factor_gt          0.0441
_refine_ls_wR_factor_ref         0.0480
_reflns_Friedel_coverage         0.000
_reflns_number_gt                308
_reflns_number_total             367
_reflns_threshold_expression     'I > 2\s(I)'
_cod_data_source_file            lt5042.cif
_cod_data_source_block           C4H2N5Cl1@0_55GPa_phase_beta
_cod_database_code               1565891
_shelx_shelxl_version_number     2018/3
_chemical_oxdiff_formula         C4H2N5Cl1
_shelx_space_group_comment
;
The symmetry employed for this shelxl refinement is uniquely defined
by the following loop, which should always be used as a source of
symmetry information in preference to the above space-group names.
They are only intended as comments.
;
_reflns_odcompleteness_completeness 29.48
_reflns_odcompleteness_iscentric 1
_reflns_odcompleteness_theta     27.18
_olex2_refinement_description
;
1. Fixed Uiso
 At 1.2 times of:
  All C(H) groups
2.a Aromatic/amide H refined with riding coordinates:
 C8(H8), C7(H7)
;
_shelx_res_file
;
TITL 1a_a.res in P2(1)/c
    1a.res
    created by SHELXL-2018/3 at 13:45:35 on 14-Jul-2020
REM Old TITL 1a in P2(1)/c
REM SHELXT solution in P2(1)/c
REM R1 0.109, Rweak 0.168, Alpha 0.050, Orientation as input
REM Formula found by SHELXT: C7 N2 Cl
CELL 0.71073 7.8082 12.9522 5.5722 90 100.539 90
ZERR 4 0.006 0.0008 0.0004 0 0.023 0
LATT 1
SYMM -X,0.5+Y,0.5-Z
SFAC C H Cl N
UNIT 16 8 4 20

L.S. 44
PLAN  5
CONF
BOND $H
list 4
MORE -1
fmap 2 53
acta
REM <olex2.extras>
REM <HklSrc "%.\\1a.hkl">
REM </olex2.extras>

WGHT    0.022900    0.086900
FVAR       0.94929
CL1   3    1.029768    0.340494    0.852339    11.00000    0.03461    0.05137 =
         0.03551    0.00531   -0.00388    0.00261
N4    4    0.559894    0.352301    0.544397    11.00000    0.05627    0.02397 =
         0.02897    0.00138    0.01911   -0.00198
N5    4    0.697594    0.329896    0.711706    11.00000    0.02190    0.02896 =
         0.02834    0.00150   -0.00148    0.00099
N1    4    0.385122    0.414298    0.230648    11.00000    0.01165    0.03360 =
         0.03906   -0.00042   -0.00161    0.00159
N3    4    0.396694    0.334678    0.581999    11.00000    0.00816    0.03567 =
         0.03938   -0.00125    0.00261    0.00322
N2    4    0.292413    0.372594    0.389669    11.00000    0.05533    0.03581 =
         0.04611   -0.00591   -0.00260    0.00716
C8    1    0.704975    0.426003    0.255879    11.00000    0.02779    0.02520 =
         0.02189    0.00224   -0.00284    0.00054
AFIX  43
H8    2    0.705002    0.458180    0.106683    11.00000   -1.20000
AFIX   0
C6    1    0.846651    0.357230    0.643711    11.00000    0.01966    0.02528 =
         0.02801   -0.00273   -0.00788    0.00271
C9    1    0.553940    0.400746    0.326813    11.00000    0.04449    0.02165 =
         0.02528    0.00162    0.01141   -0.00138
C7    1    0.860992    0.402548    0.412346    11.00000    0.03156    0.02816 =
         0.02898   -0.00186    0.00389   -0.00030
AFIX  43
H7    2    0.968583    0.415519    0.369373    11.00000   -1.20000
AFIX   0
HKLF 4




REM  1a_a.res in P2(1)/c
REM wR2 = 0.0480, GooF = S = 1.098, Restrained GooF = 1.098 for all data
REM R1 = 0.0222 for 308 Fo > 4sig(Fo) and 0.0337 for all 367 data
REM 91 parameters refined using 0 restraints

END

WGHT      0.0229      0.0869

REM Highest difference peak  0.080,  deepest hole -0.081,  1-sigma level  0.021
Q1    1   0.7456  0.3005  0.8637  11.00000  0.05    0.08
Q2    1   0.8663  0.3041  0.7363  11.00000  0.05    0.06
Q3    1   0.5847  0.3173  0.6472  11.00000  0.05    0.06
Q4    1   1.0518  0.3180  0.6979  11.00000  0.05    0.06
Q5    1   0.7401  0.3651  0.7743  11.00000  0.05    0.06
;
_shelx_res_checksum              38097
_shelx_hkl_file
;
   0  -3   0    1.83    0.92
   1  -3   0  204.78    6.31
   1  -3   0  199.78    6.84
   1  -4   0   20.29    2.82
   1  -4   0   17.98    2.05
  -1   4   0   14.78    1.97
  -1   4   0   14.06    1.70
   1  -4   0   15.83    2.38
  -1   4   0   18.15    2.13
   1   4   0   12.05    2.10
  -1   4   0   13.53    1.84
   0   5   0    2.95    1.41
   0  -5   0    1.00    1.11
   0   5   0    0.61    1.04
   0   5   0    1.24    1.20
   0  -5   0    1.29    1.12
   0   5   0    2.95    1.36
   0  -5   0    1.99    0.81
   0   5   0    0.44    0.75
   1   5   0   36.44    3.42
   1  -5   0   29.65    3.61
   1  -5   0   30.94    2.83
  -1   5   0   33.20    2.88
  -1   5   0   31.23    2.60
  -1   5   0   35.00    3.09
  -1   5   0   30.22    2.73
   1  -5   0   30.76    3.62
   1   5   0   39.53    3.99
   1   5   0   32.46    3.23
   0   6   0 1219.22   20.09
   0  -6   0 1232.68   15.44
   0  -6   0 1210.72   19.06
   0  -6   0 1204.89   15.74
   0  -6   0 1174.70   18.51
   0   6   0 1211.99   16.14
   0   6   0 1188.19   21.39
   0   6   0 1223.74   20.42
   0   6   0 1239.86   20.06
   1   6   0  578.95   13.74
   1  -6   0  595.62   14.97
   1  -6   0  609.82   15.82
  -1   6   0  587.02   12.59
  -1  -6   0  593.05   11.36
  -1   6   0  603.14   10.05
   1  -6   0  589.43   13.35
  -1   6   0  596.26   13.53
   1   6   0  576.08   14.94
   1   6   0  612.97   16.85
  -1   6   0  588.18   13.79
   1  -6   0  612.58   11.10
  -1   6   0  576.47   13.14
   1   6   0  590.27   14.47
  -1  -6   0  602.96   13.58
   1   6   0  588.71   12.04
   1   6   0  617.50   16.57
  -1  -6   0  587.88   13.01
  -2   6   0  573.10   15.07
   0  -7   0   -0.94    1.16
   0  -7   0   -0.59    1.03
   0   7   0    0.76    1.94
   0  -7   0   -0.05    1.74
   0   7   0    0.86    1.69
   0  -7   0   -0.34    1.99
   0   7   0    1.64    1.84
   0   7   0   -2.11    1.95
   0   7   0    2.09    2.06
   0   7   0    1.69    1.31
   0  -7   0   -0.55    1.94
   0   7   0    0.67    1.89
   1  -7   0   11.77    2.59
  -1  -7   0   13.56    1.93
   1   7   0   13.37    3.05
   1   7   0   13.37    2.78
   1  -7   0   14.35    3.54
   1  -7   0   11.98    3.11
  -1   7   0   12.68    1.75
  -1  -7   0   14.37    2.92
  -1   7   0   14.10    2.70
  -1   7   0   12.54    2.71
   1  -7   0   15.01    2.23
  -1  -7   0   17.43    2.72
  -1   7   0   15.51    2.52
   1   7   0   12.58    2.30
  -1   7   0   12.17    2.39
   1   7   0   18.64    2.87
   1   7   0   12.46    3.52
   1   7   0   13.39    3.22
   2  -7   0  278.58   12.61
  -2   7   0  284.86   11.15
  -2   7   0  287.39   11.16
  -2   7   0  287.94   10.27
   0   8   0   14.05    3.04
   0  -8   0   13.14    2.79
   0   8   0    9.04    2.75
   0  -8   0   15.30    3.56
   0   8   0   16.26    3.27
   0  -8   0   16.19    3.09
   0   8   0    8.53    2.54
   1   8   0   -3.03    2.60
   1   8   0    3.58    3.44
   1   8   0    5.18    3.54
   1   8   0    3.87    2.85
  -1  -8   0    1.43    2.20
   1  -8   0   -0.07    3.07
  -1   8   0    3.54    2.07
  -1  -8   0   -2.01    2.30
   1  -8   0    0.22    2.31
  -1   8   0    1.60    2.11
  -1   8   0   -0.25    2.11
   1  -8   0    0.80    3.08
  -1   8   0    1.35    2.01
   2  -8   0    4.42    4.09
  -2   8   0    2.00    2.93
  -2   8   0    2.10    2.38
  -2   8   0   -2.02    2.36
   0   9   0    2.61    2.83
   0   9   0   -1.00    2.57
   0   9   0    0.13    2.35
   0   9   0    1.39    2.75
   0  -9   0   -1.69    2.34
   0  -9   0    3.52    2.52
   0  -9   0    0.12    3.08
   0  -9   0   -2.51    3.21
   1  -9   0   35.20    5.20
   1   9   0   36.24    5.17
  -1   9   0   32.90    4.05
   1   9   0   34.98    5.40
   1  -9   0   25.76    4.99
  -1   9   0   34.68    4.61
  -1   9   0   34.83    4.14
  -1  -9   0   29.15    4.00
   1   9   0   34.35    5.72
   1   9   0   31.64    4.55
  -1   9   0   34.18    4.63
   1  -9   0   39.53    4.69
  -1  -9   0   32.55    3.92
   2  -9   0   14.78    5.12
  -2   9   0   17.40    3.69
  -2   9   0   18.95    3.74
  -2   9   0   24.49    4.58
   0 -10   0  347.20   11.94
   0  10   0  336.12   13.50
   0 -10   0  319.94   12.03
   0 -10   0  336.68   14.04
   0  10   0  336.32   14.52
   0  10   0  356.47   14.08
   0 -10   0  329.80   13.90
   0  10   0  335.94   13.40
   1  10   0  124.94    9.95
   1  10   0  124.19    9.06
  -1 -10   0  118.39    7.59
   1 -10   0  128.35    9.51
   1  10   0  122.98    9.02
   1 -10   0  127.39    8.09
   1 -10   0  138.06   10.05
  -1  10   0  133.75    8.02
  -1  10   0  126.89    8.75
  -1  10   0  121.86    8.32
  -1  10   0  132.23    8.08
   2 -10   0   81.47    8.80
  -2  10   0   96.01    7.88
  -2  10   0   79.37    6.98
  -2  10   0   96.33    7.04
   0 -11   0   -2.25    3.01
   0  11   0   -2.32    3.34
   0  11   0    1.64    3.47
   0 -11   0    3.20    3.53
   0 -11   0    3.35    4.46
   0 -11   0    0.22    4.22
   0  11   0    3.25    3.59
   0  11   0    3.73    3.49
   1 -11   0   26.93    5.74
  -1  11   0   24.36    4.74
   1  11   0   19.21    4.50
   1 -11   0   23.21    5.62
  -1  11   0   22.65    4.70
  -1  11   0   21.50    4.40
   1  11   0   22.60    5.63
   1 -11   0   21.37    4.21
  -1 -11   0   23.50    4.87
   1 -11   0   21.64    4.51
  -1  11   0   21.05    4.38
   1  11   0   27.16    6.09
  -2  11   0   47.43    6.46
  -2  11   0   40.10    5.22
  -2  11   0   44.76    5.68
   2 -11   0   38.18    7.28
   0 -12   0  678.81   19.62
   0 -12   0  701.84   19.45
   0  12   0  668.52   22.38
   0 -12   0  716.44   23.60
   0  12   0  704.91   22.09
   0  12   0  716.95   24.04
   0 -12   0  696.56   22.95
   1  12   0    3.17    5.19
   1 -12   0    5.50    4.03
  -1  12   0    0.28    3.84
  -1  12   0    2.53    3.73
   1  12   0   -1.96    4.11
  -1  12   0    9.13    3.93
   1 -12   0    2.76    4.90
  -1  12   0    4.47    4.39
   1  12   0   -5.63    4.34
   1 -12   0    5.27    5.56
   1 -12   0   -3.82    4.08
   2 -12   0   92.85   10.20
  -2  12   0  110.03    9.71
  -2  12   0  105.68    8.76
  -2  12   0  108.00    9.14
   0 -13   0    0.15    3.62
   0 -13   0    6.39    5.64
   0  13   0   -4.42    5.20
   0 -13   0   -2.87    5.17
   0  13   0   -1.37    4.09
   0  13   0    3.27    4.99
   1  13   0   -0.76    5.92
   1 -13   0   21.26    7.89
  -1 -13   0   10.42    5.14
   1  13   0    9.94    6.75
   1 -13   0    8.65    8.58
  -2  13   0    6.74    4.64
  -2  13   0    1.18    4.50
   2 -13   0   -1.66    5.85
   0  14   0    8.17    5.82
   0  14   0   10.80    5.27
   0 -14   0   18.00    6.46
   0 -14   0   13.86    6.29
  -1 -14   0    1.60    5.09
  -1  14   0   -0.26    4.94
  -1 -14   0   13.58    6.03
   1  14   0    0.43    5.54
   1 -14   0    2.53    6.10
   2 -14   0  -17.87    8.86
  -2  14   0    6.48    5.23
   0 -15   0    7.62    6.81
   0  15   0   -0.77    6.22
  -1  15   0    6.06    5.81
  -1 -15   0   12.49    6.20
   1  15   0   15.31    7.62
   1 -15   0    3.29    6.37
  -2  15   0    8.77    6.37
   2 -15   0   -4.56    7.21
   0  16   0  146.90   14.79
   0  -1  -1 2030.30   21.86
   0   1  -1 1997.46   21.87
   0   1  -1 1972.36   22.29
   0  -1   1 2023.77   21.64
   1  -2  -1 4552.34   49.66
  -1   2   1 4444.09   45.69
  -1   2   1 4575.15   47.24
   0  -2   1  136.69    4.20
   0   2  -1  138.70    4.02
   0   2  -1  150.00    4.75
   0  -2   1  138.95    4.38
   0  -2  -1  144.51    4.45
   1  -2   1 1482.00   21.26
   1  -2   1 1493.04   20.27
  -1   3   1 6829.01   64.50
   1  -3  -1 6463.17   64.38
  -1   3   1 6716.23   63.49
   1  -3  -1 6762.65   67.96
   1   3  -1 6858.31   69.67
  -1   3   1 6505.46   61.85
  -1  -3   1 6788.64   67.78
   1   3  -1 7095.60   69.65
  -1   3   1 6562.09   64.24
   0   3   1 1455.24   19.10
   0  -3   1 1476.75   19.63
   0   3  -1 1465.43   18.80
   0   3   1 1438.23   19.13
   0   3  -1 1468.94   18.96
   0   3  -1 1444.39   16.99
   0   3   1 1473.61   19.96
   0  -3   1 1422.50   19.27
   0  -3  -1 1416.21   18.58
   0   3  -1 1410.63   19.36
   0   3  -1 1477.13   19.72
   0  -3   1 1450.57   18.41
  -1   3  -1  855.28   14.79
  -1   3  -1  856.98   14.57
   1  -3   1  845.87   14.53
  -1   3  -1  856.58   13.97
   1  -3   1  843.28   15.14
   1  -3   1  836.98   14.33
   0  -4   1 9842.03   92.24
   0   4  -1 9825.48   91.39
   0   4  -1 9871.41   92.91
   0   4   1 9999.00   91.83
   1  -4   1    2.89    1.46
  -1   4  -1    2.59    1.28
   1  -4   1    3.50    1.50
  -1   4  -1    1.71    1.10
   1  -4   1    0.43    1.28
   1   4   1    2.78    1.36
   1  -4   1    1.43    1.36
   1   4   1    2.47    1.50
  -1   4  -1    2.45    1.27
  -1  -4  -1    1.53    1.45
  -1   4  -1    0.83    1.09
  -1  -5   1  270.12    8.86
  -1   5   1  276.86    8.55
   1   5  -1  262.38    7.85
   1   5  -1  296.17   10.63
   1  -5  -1  259.23    8.99
  -1   5   1  260.65    8.52
   1   5  -1  260.94    9.86
  -1   5   1  257.78    8.09
  -1  -5   1  264.58    9.76
  -1   5   1  265.94    8.84
  -1   5   1  269.33    6.52
   1   5  -1  262.33    9.78
  -1  -5   1  260.09    7.76
   1   5  -1  277.23   10.57
   1  -5  -1  258.21    9.82
   0  -5  -1  574.17    9.72
   0  -5  -1  591.82   11.62
   0   5   1  566.69   12.11
   0  -5   1  562.47    9.50
   0   5  -1  565.98   12.08
   0   5  -1  570.68    9.07
   0   5   1  580.55   12.78
   0   5  -1  580.46   10.71
   0   5  -1  557.69   10.66
   0   5  -1  577.18   13.08
   0  -5  -1  586.82   12.28
   0   5  -1  559.05   12.62
   0   5  -1  609.48   12.34
   0   5   1  582.63   12.83
   0   5   1  571.35   13.29
   0  -5   1  540.99   12.17
   0  -5   1  578.99   12.73
   0  -5   1  558.12   11.01
   0  -5   1  594.20   11.41
   1  -5   1   66.40    4.54
  -1   5  -1   69.58    4.40
  -1   5  -1   72.54    3.78
   1  -5   1   67.29    4.21
   1  -5   1   71.59    4.28
  -1   5  -1   72.13    4.25
  -1   5  -1   69.31    3.90
  -1   5  -1   63.08    4.15
   1  -5   1   72.49    5.03
  -2   6   1  195.12    9.29
  -2   6   1  195.58    8.66
  -1   6   1  255.29    8.79
  -1   6   1  270.08    8.91
   1  -6  -1  262.06    9.62
   1   6  -1  292.09   11.14
  -1  -6   1  272.96    9.41
  -1  -6   1  238.57    7.67
   1  -6  -1  250.92   10.40
   1   6  -1  273.20    8.73
   1   6  -1  255.53   10.00
  -1   6   1  272.43    9.22
  -1   6   1  247.08    9.10
  -1   6   1  260.23    7.13
   1   6  -1  275.57   10.74
   1  -6  -1  280.67    8.29
   0  -6   1    2.27    1.83
   0   6  -1    2.25    1.92
   0  -6   1    3.10    1.98
   0   6  -1    2.16    1.66
   0   6   1    3.75    1.63
   0   6  -1   -1.01    1.52
   0  -6  -1   -1.60    2.07
   0  -6   1   -0.19    1.73
   0   6   1    4.82    2.17
   0  -6  -1    0.59    1.29
   0   6   1    1.39    2.03
   0   6   1    1.09    1.91
   0  -6  -1    0.68    1.57
   0   6   1    5.18    2.37
   0   6  -1    2.65    2.21
   0  -6   1    0.98    1.14
   0   6  -1    2.09    1.81
   0   6  -1   -0.28    1.05
   0  -6   1    2.01    1.49
   0  -6   1    0.38    2.37
   0   6  -1    1.74    1.41
   1  -6   1   80.91    5.36
  -1   6  -1   67.10    4.69
   1   6   1   74.80    5.39
   1   6   1   79.64    4.21
   1   6   1   76.17    5.11
  -1  -6  -1   77.43    4.88
   1   6   1   81.12    6.27
  -1   6  -1   60.49    4.60
   1  -6   1   80.37    5.88
   1   6   1   75.21    5.60
  -1   6  -1   76.80    4.24
  -1   6  -1   80.99    4.39
   1  -6   1   75.75    4.76
  -1   6  -1   77.52    4.69
   1  -6   1   79.79    4.76
  -2   6  -1    7.53    2.10
  -2   7   1  115.73    5.87
   2  -7  -1  110.66    8.10
  -2   7   1  112.24    7.01
  -2   7   1  118.97    7.61
  -2   7   1  120.50    7.24
  -1  -7   1 1708.20   28.13
  -1   7   1 1759.70   28.29
  -1   7   1 1874.98   24.65
   1   7  -1 1752.59   27.23
  -1   7   1 1743.34   28.61
   1  -7  -1 1744.64   25.68
   1  -7  -1 1715.92   29.45
  -1   7   1 1751.41   27.63
   1   7  -1 1748.73   31.79
   1  -7  -1 1690.84   31.28
  -1   7   1 1768.55   28.05
  -1  -7   1 1756.49   25.15
   1   7  -1 1717.68   31.76
   1   7  -1 1640.91   28.96
   0   7   1  134.23    7.06
   0   7   1  128.17    6.31
   0  -7  -1  136.05    6.02
   0  -7   1  137.93    6.96
   0   7  -1  147.33    7.58
   0   7  -1  112.82    5.87
   0  -7   1  130.71    6.62
   0  -7  -1  134.47    5.38
   0  -7  -1  120.70    6.40
   0   7  -1  136.31    6.56
   0  -7   1  125.96    5.53
   0  -7   1  130.16    5.23
   0   7   1  141.04    7.41
   0   7   1  139.12    6.43
   0   7  -1  111.89    5.66
   0  -7   1  136.08    6.51
   0   7  -1  139.49    7.41
   0   7   1  131.77    7.32
   0   7  -1  131.67    6.19
   0  -7   1  129.79    7.17
  -1   7  -1  105.32    6.16
  -1   7  -1  114.72    5.95
  -1   7  -1  123.97    7.04
  -1   7  -1  102.58    5.29
   1   7   1  112.96    7.44
  -1  -7  -1  108.56    5.41
  -1   7  -1   99.06    5.37
   1   7   1  113.53    7.87
   1  -7   1  107.28    6.65
  -1   7  -1  116.59    6.56
  -1  -7  -1  114.17    6.32
   1  -7   1  105.51    7.19
   1   7   1  107.28    6.92
   1  -7   1  110.64    6.11
   1  -7   1  103.45    5.69
   1   7   1   97.36    6.16
  -2   7  -1  105.45    6.30
  -2   7  -1  111.59    7.07
  -2   7  -1  102.31    5.81
   2  -7   1   93.68    6.78
  -2   7  -1  113.26    7.23
  -2   8   1  415.61   14.19
   2  -8  -1  402.02   16.15
  -2   8   1  431.45   14.39
  -2   8   1  421.49   11.90
   2  -8  -1  416.60   18.58
  -2   8   1  403.06   14.33
   1   8  -1   -0.16    2.97
  -1   8   1    2.62    2.49
  -1   8   1   -1.60    1.94
  -1   8   1    4.54    2.40
  -1   8   1    1.53    2.26
   1  -8  -1    2.03    1.86
   1   8  -1   -0.61    2.73
   1   8  -1   -0.60    3.25
  -1   8   1    3.15    2.61
   1  -8  -1   10.24    3.75
  -1  -8   1    1.52    1.97
   1  -8  -1    4.39    3.79
  -1  -8   1   -1.24    2.77
   1   8  -1   -1.69    2.64
   1  -8  -1    4.49    2.26
   0   8   1 3418.62   44.66
   0  -8   1 3459.86   44.98
   0   8  -1 3418.66   43.06
   0  -8   1 3391.93   40.48
   0   8  -1 3379.05   42.45
   0   8  -1 3379.43   44.08
   0   8  -1 3294.66   43.08
   0   8   1 3340.59   46.00
   0  -8  -1 3433.91   41.00
   0  -8   1 3418.14   39.53
   0  -8  -1 3385.71   45.97
   0   8   1 3398.95   47.40
   0  -8  -1 3414.81   43.97
   0  -8  -1 3393.44   39.92
   0   8   1 3459.42   47.46
   0   8  -1 3336.46   46.84
   0   8   1 3269.36   43.65
   0  -8   1 3444.34   46.97
   0  -8   1 3417.46   44.38
   0   8  -1 3396.09   46.98
   0  -8   1 3396.24   44.43
   1  -8   1   30.65    3.86
  -1  -8  -1   30.47    3.90
  -1   8  -1   28.53    3.86
   1   8   1   24.16    3.83
  -1   8  -1   29.62    3.19
  -1   8  -1   28.82    4.03
   1  -8   1   32.13    4.75
  -1  -8  -1   27.96    3.35
   1  -8   1   27.34    4.21
   1  -8   1   37.28    5.15
   1   8   1   27.69    4.42
  -1   8  -1   31.76    3.60
  -1   8  -1   28.03    3.31
   1  -8   1   31.61    3.59
   1   8   1   29.24    4.89
   1   8   1   19.36    3.77
  -1   8  -1   25.97    3.86
  -2   8  -1   80.45    5.48
  -2   8  -1   72.40    6.43
   2  -8   1   79.21    6.19
   2  -8   1   65.69    6.79
  -2   8  -1   78.50    6.22
  -2   8  -1   81.71    5.90
  -2   9   1   17.32    4.32
  -2   9   1   16.30    3.78
   2  -9  -1   14.15    5.42
  -2   9   1    6.08    3.01
   2  -9  -1    5.72    5.27
  -1   9   1  314.38   12.28
  -1  -9   1  329.94   12.45
  -1   9   1  306.01   12.30
   1  -9  -1  312.73   14.28
  -1   9   1  334.92   12.93
   1   9  -1  310.67   12.17
   1   9  -1  332.18   14.73
   1   9  -1  327.25   14.63
   1  -9  -1  314.86   13.34
   0   9   1   69.68    6.16
   0  -9   1   68.31    5.82
   0  -9   1   65.99    5.90
   0  -9   1   66.91    6.41
   0   9   1   58.20    5.77
   0   9  -1   59.66    5.47
   0  -9   1   66.30    4.65
   0   9  -1   65.55    5.24
   0   9   1   64.09    6.25
   0  -9  -1   57.83    5.77
   0   9  -1   62.24    5.96
   0  -9  -1   59.68    5.39
   0   9  -1   62.10    6.17
   1   9   1  319.97   13.54
  -1   9  -1  319.25   12.76
   1  -9   1  299.58   12.46
   1  -9   1  354.36   15.14
  -1   9  -1  329.00   11.16
   1   9   1  346.61   15.56
  -1  -9  -1  325.00   11.87
   1   9   1  317.06   13.97
  -1   9  -1  329.57   12.37
   1  -9   1  357.20   14.58
   1   9   1  317.03   12.14
  -2   9  -1   70.38    6.46
   2  -9   1   62.66    7.68
   2  -9   1   67.42    6.24
   2  -9   1   58.04    7.03
  -2   9  -1   68.69    6.57
  -2  10   1   38.08    5.46
   2 -10  -1   26.83    6.85
  -2  10   1   34.73    5.42
   2 -10  -1   33.52    6.70
  -2  10   1   33.54    5.01
  -1  10   1   98.15    7.69
  -1  10   1  107.26    7.87
   1  10  -1  116.07    9.85
   1 -10  -1  111.58    9.54
  -1 -10   1  101.32    7.86
   1 -10  -1  107.90    7.95
   1 -10  -1  102.97    8.54
  -1  10   1  111.13    8.12
   1  10  -1  105.87    9.15
   0 -10   1   41.91    5.62
   0  10  -1   44.31    5.75
   0 -10  -1   37.11    5.90
   0 -10   1   45.50    6.05
   0  10  -1   45.70    5.82
   0 -10  -1   40.56    4.92
   0  10   1   41.55    5.55
   0 -10  -1   39.14    5.51
   0  10   1   52.45    6.16
   0  10   1   58.96    6.79
  -1  10  -1    7.21    3.33
   1 -10   1    9.91    4.24
   1 -10   1   12.31    5.24
   1  10   1    4.31    3.63
   1  10   1   12.47    4.90
  -1 -10  -1   10.26    3.54
   1  10   1    9.61    3.80
  -1  10  -1    6.93    3.76
  -2  10  -1    7.61    3.90
   2 -10   1   11.70    4.88
   2 -10   1    4.24    5.07
  -2  10  -1   12.04    4.38
  -2  11   1   50.79    6.44
  -2  11   1   35.71    5.60
  -2  11   1   48.45    6.35
   2 -11  -1   52.25    8.16
   2 -11  -1   56.76    9.93
  -1  11   1   33.53    5.32
   1  11  -1   39.98    6.68
  -1 -11   1   37.58    5.92
  -1  11   1   39.88    5.86
   1  11  -1   30.91    6.39
  -1  11   1   45.73    5.92
   1 -11  -1   39.36    5.55
   1 -11  -1   42.55    7.09
   1 -11  -1   41.95    6.60
   0 -11   1    6.79    5.69
   0 -11  -1    2.77    3.72
   0 -11   1    8.12    3.97
   0  11   1    3.92    3.94
   0  11  -1    5.48    3.63
   0 -11  -1    4.99    3.67
   0  11   1    0.33    4.17
   0 -11  -1    4.08    4.47
   0  11   1    3.37    3.41
   0  11  -1    1.62    3.96
   1  11   1    4.30    4.21
   1  11   1    3.59    3.70
   1 -11   1    4.48    4.11
  -1 -11  -1    4.05    3.31
   1 -11   1   -7.87    4.59
   1  11   1    1.55    4.27
  -1  11  -1    3.48    3.86
  -1  11  -1    5.52    3.96
  -2  12   1   85.05    8.61
  -2  12   1   88.04    8.48
   2 -12  -1   96.57   12.11
   2 -12  -1   98.19   10.99
  -2  12   1   96.31    9.00
  -1  12   1   11.00    4.22
  -1  12   1   12.56    4.83
   1  12  -1    8.84    5.02
  -1  12   1    6.93    3.78
   1 -12  -1   21.92    6.89
   1 -12  -1   14.03    6.46
   1 -12  -1   13.58    4.52
  -1 -12   1    3.84    4.13
  -1 -12   1   19.36    5.79
   1  12  -1   15.95    5.82
   0 -12  -1  126.40    8.87
   0 -12   1  130.42   10.60
   0  12   1  152.38   11.53
   0  12  -1  133.30   10.81
   0 -12   1  141.75    9.81
   0 -12  -1  134.75   10.38
   0  12   1  129.48   10.32
   0  12  -1  129.12   10.68
   0 -12  -1  124.03   10.74
   0  12   1  132.84   10.18
   1  12   1    8.53    5.23
   1 -12   1   12.92    5.22
  -1  12  -1    7.84    3.76
   1 -12   1   11.74    5.86
   1  12   1    6.96    5.31
   1  12   1    7.13    4.47
  -1  12  -1    6.06    4.43
   2 -12   1   87.39   10.25
  -2  12  -1   93.54    8.80
  -2  12  -1   96.92    9.31
   2 -13  -1    0.14    5.35
  -2  13   1   -6.23    5.32
  -2  13   1   -5.04    4.22
   2 -13  -1    2.17    5.82
  -2  13   1    1.92    4.23
  -1 -13   1   39.90    6.60
  -1  13   1   47.02    7.02
   1 -13  -1   40.13    8.43
   1  13  -1   53.18    8.53
   1 -13  -1   50.11    7.15
   1  13  -1   56.72    9.29
  -1  13   1   46.84    7.00
  -1  13   1   56.87    7.65
   1 -13  -1   38.72    7.86
  -1 -13   1   56.24    8.47
   0 -13   1    6.48    5.27
   0 -13  -1    8.17    5.64
   0 -13  -1    3.99    4.62
   0  13   1   -6.57    5.27
   0  13   1    3.02    5.77
   0  13  -1    5.22    4.65
   0 -13   1   -2.32    4.63
   0 -13  -1    3.40    4.99
   0  13  -1    6.61    5.02
   0  13   1    3.14    4.58
   1  13   1  100.75   10.46
  -1  13  -1  103.81    9.92
   1 -13   1  104.38    9.66
  -1  13  -1   94.32    9.15
   1  13   1   85.83   10.07
   1 -13   1  106.21   11.22
  -1 -13  -1   89.34    9.85
   1  13   1   94.37   10.68
  -2  13  -1   14.97    5.25
  -2  13  -1   11.83    5.12
  -2  14   1   15.76    5.78
  -2  14   1   23.08    6.40
   2 -14  -1   19.19    6.52
   2 -14  -1   28.61    7.44
  -1  14   1  137.64   11.95
  -1  14   1  133.76   11.86
   1  14  -1  144.49   13.97
  -1 -14   1  152.10   12.81
   1 -14  -1  137.78   14.13
   1 -14  -1  131.93   12.95
  -1 -14   1  135.42   10.85
  -1  14   1  141.66   11.19
   1 -14  -1  134.80   11.46
   0  14   1   32.62    7.53
   0  14  -1   22.14    7.03
   0  14   1  -27.28   11.04
   0  14   1  -30.64   11.75
   0 -14  -1   11.69    5.06
   0 -14  -1   31.69    9.16
   0 -14   1   25.48    6.43
   0 -14   1   32.81    7.62
   0 -14  -1   23.96    6.63
   0  14  -1   28.75    6.69
  -1 -14  -1    2.40    5.92
   1  14   1   17.51    7.46
   1 -14   1   -3.08    5.45
  -1  14  -1    8.69    5.51
  -1 -14  -1    6.87    5.81
   1 -14   1    6.80    6.41
   1  14   1   10.20    6.34
  -1  14  -1   -2.13    5.33
  -2  14  -1   11.63    6.03
   2 -14   1    4.09    7.53
  -2  14  -1   -2.11    5.20
   2 -15  -1   12.42    6.15
  -2  15   1   11.49    5.81
   2 -15  -1   21.39    8.61
  -2  15   1   11.80    6.65
  -1  15   1    9.22    5.86
  -1 -15   1   12.20    5.62
  -1  15   1    3.80    6.06
   1 -15  -1   20.39    7.13
  -1  15   1   21.39    6.63
   1 -15  -1   15.78    7.21
   1 -15  -1    9.20    7.55
  -1 -15   1    1.09    5.98
   1  15  -1   13.80    6.30
   0  15   1    4.42    6.87
   0  15  -1   -3.09    6.44
   0 -15  -1   -3.47    8.18
   0 -15  -1  -12.36    6.26
   0  15   1   -8.73    7.45
   0  15  -1   -5.54    6.35
   0  15   1   -3.26    5.51
   0 -15   1    3.76    6.64
   0 -15   1    9.15    6.62
   0 -15  -1   -8.97    6.86
  -1  15  -1   22.25    7.06
   1 -15   1   30.33    7.13
   1 -15   1   42.47   10.15
  -1 -15  -1   25.92    8.16
  -1  15  -1   53.47    9.28
  -2  15  -1   24.75    7.29
  -2  15  -1   24.68    7.57
  -2  16   1   -3.69    5.52
  -1  16   1   -5.49    6.51
  -1  16   1    1.90    6.20
  -1  16   1   11.79    7.12
   0  16   1   23.84    8.54
   0  16   1   16.61    6.62
   0  16   1   14.66    7.46
  -1   0   2  545.72   11.51
   1   0  -2  496.53   12.70
   1   0  -2  527.93   12.81
  -1   0   2  525.02   10.71
  -1   0   2  521.52   12.03
  -1   0   2  550.67   12.19
   1   0  -2  544.47   13.59
   0   0   2 1328.48   16.40
   0   0   2 1277.97   19.84
   0   0  -2 1314.75   18.55
   0   0   2 1336.86   18.95
   0   0  -2 1280.17   18.58
   0   0   2 1334.26   18.65
   0   0   2 1311.74   18.42
   0   0  -2 1314.81   19.70
   0   0  -2 1340.88   19.38
   1   0   2  285.61    8.33
   1   0   2  275.52    8.32
  -1   0  -2  282.63    8.37
   1   0   2  274.77    8.06
   1   0   2  256.95    8.61
  -1   0  -2  285.41    8.24
  -1   1   2 3370.70   36.63
  -1   1   2 3435.97   39.21
  -1  -1   2 3400.84   38.80
   1  -1  -2 3395.57   42.10
   1   1  -2 3484.72   42.16
  -1   1   2 3492.21   40.09
  -1  -1   2 3485.97   40.30
  -1  -1   2 3361.24   40.40
  -1   1   2 3326.30   36.28
   1  -1  -2 3384.73   40.15
  -1   1   2 3395.73   37.18
   1   1  -2 3409.13   41.62
   1  -1  -2 3360.98   40.85
  -1  -1   2 3511.00   38.52
   1   1  -2 3437.21   43.01
  -1   1   2 3468.96   39.49
   1   1  -2 3376.94   42.76
   0   1   2  497.42   10.68
   0  -1   2  494.85    9.67
   0  -1   2  483.56   10.74
   0   1  -2  491.06   11.16
   0   1   2  503.16   11.02
   0  -1  -2  499.31   10.15
   0   1  -2  483.01   10.52
   0   1   2  493.14    8.88
   0   1   2  491.70    9.85
   0   1  -2  472.54    9.36
   0  -1  -2  503.39    9.31
   0  -1   2  492.22    9.62
   0  -1  -2  500.23    9.66
   0   1  -2  494.36   11.04
   0   1  -2  490.70    9.76
   0  -1   2  475.25   10.26
   0   1   2  490.60    9.64
   0  -1  -2  486.95   10.77
   0  -1   2  507.51   11.19
   0  -1  -2  497.55   10.72
   1   1   2  853.61   14.77
  -1  -1  -2  846.95   15.70
  -1  -1  -2  830.21   14.76
   1  -1   2  879.42   16.15
  -1   1  -2  839.48   15.53
   1   1   2  862.23   16.09
   1  -1   2  871.96   16.10
  -1   1  -2  875.80   15.79
  -1   1  -2  834.70   16.22
   1  -1   2  832.89   15.88
  -1  -1  -2  841.58   15.72
  -1   1  -2  832.04   14.49
   1  -1   2  861.97   14.50
   1   1   2  866.61   16.21
  -1   2   2  969.52   17.17
   1  -2  -2  945.80   15.96
  -1   2   2 1001.38   16.24
   1   2  -2  989.29   20.05
  -1   2   2  927.81   16.97
  -1  -2   2  941.14   17.47
   1  -2  -2  977.79   18.28
  -1  -2   2  968.41   16.01
  -1  -2   2  972.98   18.15
  -1   2   2  968.71   13.87
   1   2  -2  959.53   18.41
   1   2  -2  948.25   18.87
  -1  -2   2  898.22   16.05
  -1   2   2  937.31   15.48
   1  -2  -2  955.68   17.93
   1  -2  -2  983.87   18.19
   1   2  -2  966.92   19.23
   0   2   2   86.34    4.55
   0   2   2   82.39    4.41
   0  -2   2   86.62    3.58
   0  -2   2   78.81    4.56
   0  -2   2   85.05    4.53
   0  -2  -2   87.91    3.61
   0   2  -2   85.50    3.54
   0   2  -2   83.85    4.45
   0   2  -2   77.33    4.55
   0  -2   2   81.92    4.07
   0  -2  -2   85.55    3.77
   0   2   2   78.39    4.18
   0  -2  -2   81.81    4.47
   0  -2  -2   85.23    3.98
   0   2   2   85.19    3.57
   0  -2   2   84.77    4.44
   0   2  -2   80.71    4.11
   0   2   2   77.46    3.81
   0  -2  -2   80.80    4.26
   0   2  -2   81.40    4.25
  -1  -2  -2   70.10    4.37
   1  -2   2   89.97    4.90
   1   2   2   86.10    4.72
  -1   2  -2   84.48    4.70
   1   2   2   80.09    4.69
  -1   2  -2   81.36    4.88
   1  -2   2   81.13    4.83
  -1   2  -2   80.70    4.50
  -1  -2  -2   83.58    4.69
   1  -2   2   83.06    4.87
   1  -2   2   78.20    4.71
  -1   2  -2   86.45    4.46
   1  -2   2   84.87    3.83
   1   2   2   75.09    4.74
  -1   3   2   19.56    2.70
   1   3  -2   18.05    2.96
  -1   3   2   15.56    2.15
  -1  -3   2   14.15    2.44
  -1   3   2   17.61    2.63
  -1  -3   2   16.63    2.50
  -1  -3   2   17.20    2.37
   1  -3  -2   15.68    2.53
   1   3  -2   17.21    3.22
  -1  -3   2   17.70    2.56
   1  -3  -2   20.29    3.13
  -1   3   2   20.95    2.51
   1  -3  -2   18.96    2.04
   1   3  -2   16.62    2.89
  -1   3   2   17.37    1.53
   1   3  -2   14.54    2.78
   0   3  -2  580.82    9.54
   0  -3   2  566.53   10.92
   0  -3  -2  580.52   10.38
   0   3   2  619.28   12.72
   0   3  -2  603.32   13.74
   0  -3   2  587.20   12.35
   0   3   2  587.69   13.17
   0  -3   2  593.71   13.27
   0   3  -2  600.62   12.81
   0   3   2  595.61   12.07
   0   3  -2  618.63   13.20
   0  -3  -2  594.65   12.24
   0   3   2  602.24    9.86
   0  -3   2  579.17   12.33
   0  -3  -2  583.43   12.88
   0   3   2  585.61   13.02
   0  -3   2  572.20   12.41
   0   3  -2  580.80   10.76
   0  -3  -2  588.34   12.09
   0   3  -2  585.96   12.40
   1   3   2   21.07    2.74
  -1   3  -2   19.08    2.12
   1  -3   2   18.59    1.83
   1   3   2   20.10    2.93
   1  -3   2   22.51    2.90
   1   3   2   19.32    2.52
  -1   3  -2   21.88    2.70
  -1   3  -2   17.43    2.65
  -1   3  -2   17.41    2.42
  -1  -3  -2   14.06    2.24
  -1   3  -2   17.33    2.48
   1  -3   2   20.08    2.83
   1  -3   2   22.94    2.71
   1  -3   2   17.96    2.69
  -2   4   2   34.17    3.78
   1  -4  -2  385.97   10.65
  -1   4   2  385.26   10.69
  -1  -4   2  351.90   10.90
   1   4  -2  375.12   12.97
  -1   4   2  395.74   10.41
   1  -4  -2  365.42   12.02
  -1   4   2  380.58   10.90
  -1  -4   2  384.55   10.72
   1   4  -2  369.81   12.10
   1   4  -2  362.20   11.01
   1   4  -2  352.82   12.12
  -1  -4   2  361.78   11.32
  -1   4   2  388.56    6.51
   1  -4  -2  371.68   10.21
  -1  -4   2  348.50   10.18
  -1   4   2  366.23   10.89
  -1   4   2  384.07    8.97
   1   4  -2  378.43   11.49
   0   4   2   78.95    5.01
   0   4   2   86.72    4.77
   0  -4   2   80.10    4.56
   0   4  -2   85.66    5.75
   0   4   2   78.22    4.41
   0   4  -2   77.69    4.86
   0   4   2   73.64    4.52
   0  -4   2   73.95    5.04
   0  -4   2   79.00    4.83
   0  -4  -2   74.72    4.67
   0   4   2   74.63    4.98
   0   4  -2   81.07    5.04
   0  -4  -2   82.98    4.98
   0  -4   2   80.41    4.89
   0  -4   2   82.97    4.45
   0   4  -2   76.07    4.30
   0  -4  -2   82.10    4.50
   0   4  -2   82.94    4.63
  -1   4  -2   95.43    5.50
   1   4   2   94.89    5.91
  -1   4  -2   97.56    5.38
   1   4   2   99.46    5.29
  -1   4  -2   81.70    4.72
  -1   4  -2   93.99    5.73
   1  -4   2   92.18    5.58
   1  -4   2   97.04    5.03
   1   4   2   91.96    6.01
   1   4   2  100.13    5.79
   1  -4   2   90.23    5.64
   1  -4   2   98.09    5.77
  -1   4  -2   95.74    4.82
  -1  -4  -2   90.16    5.20
  -2   5   2  112.84    7.13
  -2   5   2  114.68    6.58
  -2   5   2  122.99    7.09
  -2   5   2  119.28    6.17
  -1  -5   2 1471.73   23.50
  -1   5   2 1537.26   25.18
   1   5  -2 1485.31   27.32
  -1   5   2 1473.19   24.30
   1  -5  -2 1482.94   27.48
   1   5  -2 1572.87   28.31
  -1   5   2 1494.90   24.06
   1  -5  -2 1433.26   22.34
  -1  -5   2 1505.40   24.63
  -1   5   2 1527.10   25.41
   1   5  -2 1420.27   27.76
   1  -5  -2 1482.38   24.68
  -1  -5   2 1465.66   25.69
  -1   5   2 1573.24   22.63
   1   5  -2 1527.03   26.84
   1   5  -2 1495.52   24.71
   0  -5   2   78.00    5.18
   0  -5  -2   75.69    4.90
   0   5   2   77.61    4.97
   0   5   2   85.72    5.45
   0  -5   2   71.99    5.18
   0  -5   2   78.71    4.43
   0  -5   2   85.59    4.99
   0   5  -2   77.70    5.40
   0   5   2   83.69    4.88
   0   5  -2   81.05    5.39
   0  -5  -2   76.04    4.92
   0   5   2   66.64    4.98
   0  -5   2   77.13    4.96
   0   5   2   86.60    4.77
   0   5  -2   79.15    4.75
   0  -5  -2   75.24    4.25
   0   5  -2   77.78    5.19
   0   5  -2   74.79    4.39
  -1  -5  -2  647.77   15.40
   1   5   2  630.14   14.77
  -1   5  -2  635.40   14.60
  -1   5  -2  648.37   15.63
   1  -5   2  622.47   15.49
  -1   5  -2  645.25   15.26
   1   5   2  647.27   17.64
   1  -5   2  675.07   13.92
  -1  -5  -2  604.38   14.47
   1  -5   2  643.45   16.44
   1  -5   2  616.54   15.20
  -1   5  -2  632.52   14.10
   1  -5   2  650.82   15.98
   1   5   2  613.03   15.88
   1   5   2  643.34   16.38
  -2   6   2  110.19    6.62
   2  -6  -2   88.31    5.96
  -2   6   2   90.09    6.89
  -2   6   2  114.82    7.13
   2  -6  -2  106.77    9.25
  -2   6   2  108.03    6.21
  -1  -6   2 2478.67   33.79
   1   6  -2 2525.28   39.87
  -1   6   2 2455.37   35.18
  -1   6   2 2550.97   35.33
  -1   6   2 2401.45   36.01
  -1   6   2 2405.95   35.78
  -1  -6   2 2573.29   35.78
   1   6  -2 2477.99   39.24
   1   6  -2 2594.33   40.31
   1  -6  -2 2420.56   35.28
  -1  -6   2 2469.41   36.73
   1  -6  -2 2545.65   39.55
   1   6  -2 2399.46   38.12
   1  -6  -2 2553.91   31.13
   1   6  -2 2436.87   34.06
   0   6  -2  153.40    7.84
   0   6   2  154.27    6.36
   0  -6   2  153.99    7.37
   0   6  -2  162.69    7.90
   0   6  -2  154.62    7.96
   0   6   2  154.42    7.74
   0  -6   2  149.55    7.70
   0  -6   2  154.13    7.66
   0   6   2  154.16    7.61
   0  -6   2  149.96    6.46
   0  -6  -2  162.34    7.44
   0  -6   2  155.48    7.18
   0  -6  -2  151.72    6.98
   0  -6  -2  156.53    7.45
   0   6   2  138.38    7.58
   0   6  -2  149.11    7.11
   0  -6  -2  146.48    5.95
   0   6   2  154.25    7.34
   0   6  -2  146.13    6.15
  -1  -6  -2  109.62    6.48
   1   6   2  110.60    5.96
  -1   6  -2  104.09    5.97
  -1   6  -2  108.56    6.66
   1  -6   2   91.58    7.12
   1   6   2  100.52    7.41
   1  -6   2  102.49    6.29
  -1  -6  -2  107.43    6.26
   1   6   2  107.02    7.03
  -1   6  -2   96.88    6.29
  -1   6  -2  104.20    6.14
   1   6   2  117.52    7.16
  -2   6  -2  326.39   11.29
   2  -6   2  312.00   13.33
  -2   6  -2  291.14   11.53
  -2   6  -2  303.80   11.39
  -2   7   2   64.03    6.21
   2  -7  -2   66.72    7.82
  -2   7   2   72.96    5.77
  -2   7   2   63.58    5.94
  -2   7   2   64.48    5.24
  -1   7   2 1143.32   22.90
  -1   7   2 1140.30   22.82
  -1   7   2 1165.78   24.01
   1  -7  -2 1163.93   23.40
   1   7  -2 1116.22   25.91
   1  -7  -2 1122.41   26.00
   1   7  -2  975.01   24.65
   1   7  -2 1159.45   26.02
  -1  -7   2 1159.47   23.09
  -1  -7   2 1080.60   20.91
  -1   7   2 1193.54   22.48
   1   7  -2 1111.70   25.28
  -1  -7   2 1031.99   22.83
   0   7   2  151.97    8.25
   0   7   2  156.41    8.76
   0   7  -2  143.01    7.95
   0   7   2  156.33    8.21
   0   7  -2  164.62    8.28
   0  -7   2  150.30    8.20
   0   7  -2  150.44    8.40
   0  -7  -2  154.02    7.62
   0  -7  -2  147.83    7.83
   0  -7   2  141.47    7.89
   0  -7   2  146.99    7.42
   0  -7   2  150.51    8.15
   0  -7  -2  156.90    7.54
   0   7  -2  146.62    7.91
   0   7   2  158.35    8.26
  -1  -7  -2  177.41    8.42
  -1   7  -2  163.66    8.52
  -1   7  -2  186.59    8.47
   1  -7   2  169.50    8.88
  -1   7  -2  157.45    8.40
   1   7   2  186.74   10.31
   1   7   2  169.89    9.23
   1  -7   2  177.35    8.69
   1   7   2  154.91    8.68
  -1  -7  -2  174.56    8.43
   1  -7   2  164.34    8.89
   1  -7   2  165.64    9.61
  -1   7  -2  170.66    8.28
  -2   7  -2  453.31   13.77
   2  -7   2  475.02   16.71
  -2   7  -2  443.54   14.98
  -2   7  -2  448.71   14.62
   2  -8  -2    5.75    5.20
  -2   8   2   -0.70    2.96
  -2   8   2    6.43    3.23
  -2   8   2    5.05    2.96
  -2   8   2    7.68    3.07
  -1   8   2  165.00    8.98
  -1   8   2  165.03    8.83
   1   8  -2  158.67   10.11
   1   8  -2  169.26   10.19
  -1   8   2  163.30    9.12
   1  -8  -2  168.18   10.78
   1  -8  -2  166.72    8.72
  -1  -8   2  170.45    9.17
   1  -8  -2  152.25    8.92
  -1  -8   2  156.55    7.92
  -1   8   2  174.83    8.77
   1   8  -2  165.43   10.09
  -1  -8   2  159.05    9.09
   1   8  -2  193.43   11.09
   0   8   2  229.60   10.66
   0  -8  -2  230.78   10.30
   0   8  -2  239.29   10.83
   0  -8  -2  236.31   10.20
   0   8  -2  236.79   10.84
   0   8  -2  246.48   10.51
   0   8  -2  224.96   11.00
   0   8   2  260.86   11.77
   0  -8   2  234.51   10.67
   0  -8   2  250.91   11.00
   0  -8  -2  249.09    9.96
   0  -8   2  254.97    9.87
   0  -8   2  240.09   10.87
   0   8   2  245.27   10.99
   0   8   2  235.15   10.68
   1   8   2   23.20    4.59
  -1  -8  -2   22.72    3.90
  -1   8  -2   25.05    4.14
   1  -8   2   24.04    4.20
   1   8   2   25.17    4.54
  -1   8  -2   25.05    4.20
  -1   8  -2   28.20    3.87
   1   8   2   25.40    4.74
   1  -8   2   30.43    5.18
  -1   8  -2   27.86    4.23
   1  -8   2   25.77    4.43
   1  -8   2   22.41    4.00
  -2   8  -2   63.31    6.28
  -2   8  -2   64.85    5.72
   2  -8   2   75.07    7.28
   2  -8   2   63.29    7.46
  -2   8  -2   65.03    6.14
   2  -9  -2    9.45    4.44
  -2   9   2   11.09    3.47
  -2   9   2   13.28    4.29
   2  -9  -2    6.87    5.01
  -2   9   2   18.64    4.22
   1   9  -2   12.93    4.82
  -1  -9   2   17.41    3.65
  -1   9   2   12.22    3.83
  -1   9   2   18.01    4.14
  -1  -9   2   13.79    3.99
  -1   9   2   15.11    3.70
  -1  -9   2   18.09    4.60
   1  -9  -2   16.46    4.43
   1  -9  -2   13.89    4.07
   1   9  -2   18.88    4.92
   1   9  -2   18.72    5.33
   1  -9  -2   12.46    5.34
   1  -9  -2   16.75    3.48
  -1   9   2   14.40    3.86
   1   9  -2   15.82    4.54
   0  -9   2    1.51    3.15
   0   9   2    6.55    3.30
   0   9   2    6.35    3.53
   0   9  -2   11.31    3.79
   0   9  -2    2.10    3.20
   0  -9  -2    9.58    3.87
   0  -9  -2    6.16    3.11
   0   9  -2    7.87    3.45
   0  -9   2   11.68    4.03
   0  -9   2   11.67    4.59
   0  -9  -2    7.83    3.52
   0   9  -2    5.33    3.73
   0   9   2   13.51    4.03
   0  -9   2    4.23    3.02
   0   9   2    5.65    3.04
   1   9   2   34.46    5.52
   1   9   2   28.20    5.41
  -1   9  -2   34.62    4.85
  -1  -9  -2   37.38    5.23
  -1   9  -2   31.79    4.43
  -1   9  -2   37.25    5.45
   1  -9   2   34.21    5.51
   1  -9   2   31.51    5.57
   1  -9   2   30.87    4.97
   1  -9   2   29.33    4.32
   1   9   2   36.50    5.60
  -1   9  -2   38.09    5.18
   2  -9   2    6.67    4.10
  -2   9  -2    7.37    3.86
   2  -9   2    5.85    4.72
  -2   9  -2    5.05    3.79
  -2   9  -2    5.83    3.60
   2 -10  -2    1.04    6.01
  -2  10   2    7.16    4.32
  -2  10   2    4.50    3.39
   2 -10  -2    4.68    4.63
  -2  10   2   -1.04    3.34
  -1  10   2  679.89   20.68
  -1  10   2  738.76   20.97
  -1 -10   2  742.49   22.45
   1  10  -2  812.16   23.77
   1 -10  -2  787.29   20.51
   1 -10  -2  760.78   21.90
   1 -10  -2  786.20   22.99
  -1 -10   2  786.13   22.06
  -1  10   2  747.33   22.05
   1 -10  -2  744.55   24.83
   1  10  -2  732.67   25.12
  -1  10   2  740.26   21.15
   1  10  -2  691.48   23.59
   0 -10   2   26.43    5.29
   0  10   2   22.89    5.09
   0  10  -2   23.27    5.12
   0 -10   2   16.11    5.03
   0 -10  -2   26.09    5.20
   0  10   2   16.15    4.38
   0  10  -2   17.81    4.42
   0  10   2   23.29    5.42
   0 -10  -2   25.15    5.92
   0 -10  -2   27.20    4.30
   0 -10   2   23.46    5.29
   0 -10  -2   24.93    5.02
   0  10  -2   25.44    5.26
   0  10   2   20.35    5.09
   1  10   2    4.77    3.80
   1  10   2    6.48    4.01
  -1  10  -2    8.49    3.75
   1  10   2   11.04    4.35
  -1  10  -2    7.50    3.63
  -1 -10  -2   10.76    4.43
   1 -10   2   12.80    4.65
   1 -10   2    7.69    3.97
   1 -10   2    9.76    4.04
  -1  10  -2   13.95    4.31
   2 -10   2  168.17   11.00
   2 -10   2  177.70   12.51
  -2  10  -2  200.85   11.80
  -2  10  -2  175.84   11.07
   2 -11  -2   92.55   11.72
  -2  11   2   99.09    8.58
  -2  11   2   90.39    8.47
   2 -11  -2   86.82    9.52
  -2  11   2   92.90    8.62
  -1  11   2  535.98   19.23
  -1  11   2  533.67   19.60
   1 -11  -2  536.03   22.50
   1 -11  -2  551.31   19.63
  -1 -11   2  605.36   20.05
   1  11  -2  600.81   23.79
   1 -11  -2  608.64   21.46
  -1 -11   2  562.34   19.86
  -1  11   2  570.83   19.62
   1  11  -2  592.96   23.09
   0 -11  -2    4.57    4.48
   0  11   2    4.66    3.90
   0  11  -2    6.02    4.34
   0 -11  -2    2.84    4.37
   0 -11   2    2.37    4.49
   0 -11   2    9.11    4.92
   0 -11  -2    5.07    4.44
   0  11  -2   -1.92    3.98
   0  11   2    4.77    4.36
   0  11   2    0.15    4.21
   1  11   2  142.17   11.67
   1  11   2  134.40   10.81
  -1  11  -2  152.35   10.79
  -1 -11  -2  169.88   10.49
   1 -11   2  143.43   10.58
   1 -11   2  133.03   11.51
  -1  11  -2  142.26   10.14
  -2  11  -2  173.66   11.80
   2 -11   2  158.29   12.20
  -2  11  -2  150.58   11.22
  -2  12   2   15.41    5.21
  -2  12   2   12.79    5.17
   2 -12  -2   19.81    8.87
   2 -12  -2   13.95    7.28
  -2  12   2   13.38    4.84
   1 -12  -2   38.46    8.28
  -1  12   2   29.56    6.15
  -1 -12   2   29.12    6.41
   1  12  -2   37.09    8.14
   1 -12  -2   41.40    6.92
   1 -12  -2   40.18    7.53
  -1 -12   2   27.68    6.25
  -1  12   2   32.12    6.36
   1  12  -2   30.63    7.09
  -1  12   2   10.24    4.35
   0  12   2  121.70   10.31
   0  12   2  116.87   10.30
   0 -12  -2  122.75    9.38
   0  12  -2  115.68   10.50
   0 -12  -2  116.20   11.35
   0 -12   2  133.00   10.83
   0 -12  -2  116.09    9.99
   0  12  -2  126.20   10.78
   0  12   2  132.11   11.72
   0 -12   2  129.81   10.06
   1  12   2   16.05    5.37
   1 -12   2    8.84    4.75
   1 -12   2   17.39    6.59
  -1 -12  -2   12.19    4.44
  -1  12  -2   12.44    5.25
   1  12   2   14.06    5.00
  -1  12  -2    6.67    4.87
  -2  12  -2   67.14    8.72
   2 -12   2   70.81    9.34
  -2  12  -2   56.02    7.72
  -2  13   2    7.32    3.88
   2 -13  -2    3.00    8.46
  -2  13   2    4.05    4.26
   2 -13  -2    8.33    7.77
   2 -13  -2   14.77    6.72
  -2  13   2    3.09    4.97
  -1  13   2   38.94    6.68
  -1  13   2   33.66    6.34
   1 -13  -2   58.98    9.72
   1  13  -2   55.00    9.99
   1 -13  -2   43.80    7.68
   1 -13  -2   41.25    7.70
  -1 -13   2   39.99    6.97
  -1 -13   2   45.40    7.59
  -1  13   2   46.84    7.11
   1  13  -2   34.13    8.16
   0  13   2   33.91    6.97
   0 -13  -2   45.21    8.94
   0 -13  -2   36.52    6.17
   0  13   2   38.03    6.83
   0 -13   2   46.13    7.59
   0 -13   2   49.69    8.44
   0 -13  -2   44.49    7.58
   0  13  -2   36.09    7.32
   0  13   2   38.56    7.77
   0  13  -2   47.79    8.03
   1  13   2   38.63    8.02
   1  13   2   33.21    7.98
  -1  13  -2   44.07    7.63
   1 -13   2   47.51    7.82
   1 -13   2   44.36    8.17
  -1 -13  -2   41.05    7.52
  -1  13  -2   44.23    7.34
  -2  13  -2  159.46   13.12
  -2  13  -2  156.74   12.51
  -2  14   2   11.40    5.94
   2 -14  -2    9.69    8.08
  -2  14   2   10.05    5.68
  -2  14   2   11.92    6.57
   2 -14  -2    8.27    8.95
   2 -14  -2   10.96    7.33
  -1  14   2   55.74    8.00
   1  14  -2   54.64    9.75
   1 -14  -2   78.32    9.85
   1  14  -2   60.11   10.09
   1 -14  -2   61.71    9.45
  -1 -14   2   63.96    8.57
  -1 -14   2   59.26    9.14
  -1  14   2   61.30    9.00
   1 -14  -2   50.19   10.01
  -1  14   2   59.99    8.65
   0  14   2   -5.26    4.94
   0  14  -2   -1.49    5.53
   0  14   2   -2.34    6.11
   0 -14  -2   -0.75    4.64
   0  14  -2   -6.85    6.51
   0 -14   2    2.67    5.38
   0 -14   2   -3.21    6.22
   0 -14  -2   -3.99    5.47
   0 -14  -2    2.29    6.53
   0  14   2   -5.03    6.28
  -1 -14  -2   -1.19    7.72
  -1  14  -2    4.07    5.97
   1 -14   2   -4.22    6.32
   1  14   2    1.89    6.28
   1 -14   2    9.67    7.22
  -1 -14  -2    7.15    6.69
  -1  14  -2    5.98    5.67
  -2  14  -2   45.86    8.34
  -2  14  -2   41.47    8.29
  -2  15   2   48.27    8.76
  -2  15   2   61.01    9.91
  -2  15   2   41.22    8.64
  -1  15   2   13.92    5.90
  -1  15   2    9.56    5.97
  -1 -15   2    9.98    6.60
   1 -15  -2   15.37    7.89
  -1 -15   2   15.28    6.96
  -1  15   2   10.08    5.77
   1  15  -2   10.84    6.82
   0  15  -2   -7.56    6.79
   0  15   2    5.28    6.38
   0  15   2  -10.03    6.89
   0 -15   2    5.07    6.27
   0 -15   2   -4.03    6.82
   0 -15  -2   -8.65    7.74
   0  15  -2   -0.41    5.92
   0  15   2    4.10    6.05
  -1  15  -2   39.87    8.91
  -1  15  -2   30.60    8.09
  -2  15  -2    5.61    6.51
  -2  15  -2    7.42    6.91
  -1  16   2   18.42    8.88
   0  16   2  -11.39    7.44
  -2   0   3   -0.14    1.86
   2   0  -3   -4.74    4.72
  -2   0   3   -1.34    1.90
   2   0  -3    0.40    3.99
  -1   0   3    1.71    1.66
  -1   0   3   -0.09    1.73
   1   0  -3    2.56    2.95
  -1   0   3    0.75    2.07
  -1   0   3   -1.80    2.04
  -1   0   3   -0.49    1.11
   1   0  -3   -6.90    3.20
  -1   0   3   -0.64    1.29
   1   0  -3   -0.01    2.16
   0   0   3    0.91    1.93
   0   0   3    3.66    1.92
   0   0  -3   -2.50    2.24
   0   0   3    1.66    2.15
   0   0  -3   -1.57    2.27
   0   0   3    1.80    1.42
   0   0  -3    0.60    1.29
   0   0  -3   -2.29    2.07
   0   0   3   -0.72    1.09
   0   0  -3    0.26    2.03
   0   0  -3   -1.10    1.50
   0   0   3    4.55    2.11
  -1   0  -3    0.49    2.34
  -1   0  -3   -0.60    2.05
   1   0   3    2.55    2.02
   1   0   3    1.69    1.31
   1   0   3   -1.91    2.19
  -1   0  -3   -1.11    1.45
  -1   0  -3    3.70    1.88
   1   0   3   -0.79    1.79
  -1   0  -3    1.83    1.95
   1   0   3   -0.54    1.77
  -2   1   3  387.09   13.05
  -2  -1   3  406.43   13.42
   2  -1  -3  387.28   15.73
  -2   1   3  394.94   11.24
   2  -1  -3  396.63   16.85
   2   1  -3  393.11   16.68
   2   1  -3  422.99   17.52
  -1   1   3  251.90    9.14
  -1  -1   3  240.28    8.57
   1   1  -3  266.78   11.01
  -1   1   3  251.91    9.52
  -1  -1   3  244.92    9.58
   1  -1  -3  255.87    9.79
   1   1  -3  246.27   10.21
  -1   1   3  268.94    7.78
   1   1  -3  251.98    9.61
  -1  -1   3  253.24    7.55
  -1  -1   3  259.62    9.77
  -1   1   3  267.30    8.05
  -1   1   3  259.95    9.41
  -1   1   3  249.55    7.92
  -1  -1   3  255.94    8.78
   1  -1  -3  242.92    9.60
   1  -1  -3  269.25   10.82
   1   1  -3  274.97   11.13
   0   1   3   12.21    2.53
   0  -1  -3    6.86    2.36
   0  -1   3    6.77    2.09
   0   1  -3    9.24    2.72
   0  -1  -3    5.24    2.18
   0   1   3    6.13    2.21
   0  -1   3    8.48    2.58
   0   1   3    9.84    2.39
   0  -1   3    7.74    2.25
   0   1   3    7.25    1.69
   0   1  -3    8.38    2.67
   0   1   3    8.41    1.95
   0   1  -3    6.56    1.96
   0  -1   3    5.99    2.16
   0  -1  -3    7.40    1.98
   0   1  -3    6.74    2.20
   0  -1  -3    6.21    1.68
   0  -1  -3    7.81    2.41
   0  -1   3    9.85    2.02
   0   1   3    6.20    1.96
  -1  -1  -3  115.07    6.38
   1   1   3  111.42    5.33
  -1  -1  -3  115.07    5.92
  -1   1  -3  111.12    6.18
   1   1   3  109.80    6.77
  -1   1  -3  116.29    6.81
   1   1   3  104.44    5.97
   1  -1   3  105.96    6.42
  -1   1  -3  107.64    5.41
   1  -1   3  118.91    6.65
   1  -1   3  116.13    6.67
  -1  -1  -3  114.14    6.68
  -1   1  -3  121.91    6.72
   1   1   3  113.77    6.43
   1  -1   3  115.67    5.99
  -2   2   3  194.71    9.01
   2  -2  -3  196.86   10.46
  -2   2   3  175.17    8.91
   2   2  -3  185.50   12.11
  -2   2   3  182.06    7.97
  -2   2   3  175.12    7.12
   2  -2  -3  198.91   11.63
  -1   2   3  846.77   18.10
  -1  -2   3  861.73   16.92
  -1   2   3  850.57   16.21
  -1   2   3  841.14   18.44
  -1  -2   3  855.99   18.52
   1  -2  -3  845.22   18.50
   1  -2  -3  839.39   17.36
   1   2  -3  803.59   19.54
  -1  -2   3  821.40   15.70
   1  -2  -3  838.47   18.84
   1   2  -3  855.96   19.04
  -1  -2   3  833.86   18.84
  -1   2   3  869.95   16.10
  -1   2   3  861.76   15.13
  -1  -2   3  864.50   17.49
  -1   2   3  844.98   17.37
   1  -2  -3  871.93   20.06
   1   2  -3  879.14   20.81
   1   2  -3  854.46   20.93
   0   2   3  503.95   13.32
   0  -2   3  478.97   11.57
   0  -2   3  460.60   13.09
   0   2   3  470.32   13.29
   0  -2   3  471.08   13.25
   0  -2  -3  460.34   11.98
   0   2  -3  463.76   13.77
   0   2  -3  440.47   12.61
   0  -2  -3  470.48   11.46
   0   2   3  482.48   11.15
   0   2   3  473.45   11.34
   0   2  -3  474.52   11.98
   0   2   3  453.22   11.66
   0   2   3  486.56   12.47
   0   2  -3  473.72   11.62
   0  -2  -3  469.08   11.56
   0  -2  -3  500.67   13.51
   0  -2   3  471.41   11.77
   0  -2   3  458.12   12.51
   0  -2  -3  482.71   13.35
   0   2  -3  459.68   13.29
  -1  -2  -3   17.62    3.09
  -1   2  -3   13.29    2.91
   1   2   3   15.15    3.18
   1  -2   3   14.88    2.55
   1   2   3   14.95    2.73
   1  -2   3   12.65    2.86
   1   2   3   14.75    3.26
   1  -2   3   16.43    3.10
   1   2   3   12.07    2.35
  -1   2  -3    9.71    2.31
  -1  -2  -3   14.36    2.31
  -1   2  -3   16.90    3.03
  -1  -2  -3   13.23    2.59
   1  -2   3   15.34    3.26
  -1   2  -3   18.81    3.46
  -2   3   3  994.96   21.62
  -2   3   3 1023.95   22.54
   2   3  -3  972.61   28.65
   2  -3  -3  973.74   23.13
  -2   3   3 1025.55   20.59
  -2   3   3 1029.09   17.73
   2  -3  -3 1013.08   25.84
  -1   3   3  706.98   16.82
  -1  -3   3  727.20   17.76
  -1   3   3  688.69   15.41
  -1   3   3  695.06   16.59
  -1  -3   3  700.25   16.78
   1  -3  -3  719.71   14.92
   1   3  -3  718.21   19.74
  -1   3   3  682.96   14.79
   1   3  -3  698.43   18.36
   1   3  -3  674.46   17.64
   1  -3  -3  697.76   16.96
   1  -3  -3  672.31   17.52
  -1  -3   3  721.77   15.30
  -1   3   3  731.29   13.12
  -1  -3   3  706.74   16.01
  -1   3   3  722.19   15.85
   1  -3  -3  717.65   17.57
   1   3  -3  703.84   18.45
   0   3   3  212.93    8.94
   0  -3   3  198.45    7.11
   0   3  -3  197.10    8.73
   0  -3  -3  209.52    7.73
   0   3   3  206.15    8.81
   0  -3   3  208.55    8.86
   0   3  -3  201.80    9.23
   0   3   3  197.28    7.57
   0  -3  -3  183.39    6.78
   0   3   3  214.57    8.59
   0  -3   3  207.07    9.12
   0   3   3  202.84    7.45
   0  -3  -3  221.12    9.10
   0  -3  -3  199.21    7.88
   0   3   3  199.93    6.88
   0   3  -3  192.27    6.91
   0  -3   3  206.09    8.11
   0  -3   3  203.88    8.53
   0   3  -3  202.56    8.28
   0  -3  -3  198.86    8.47
   0   3  -3  211.48    8.95
   1   3   3  214.54    8.52
  -1  -3  -3  205.75    7.13
   1   3   3  207.18    7.81
   1   3   3  218.60    9.55
   1  -3   3  196.06    8.98
  -1   3  -3  213.46    9.02
  -1   3  -3  215.91    9.76
   1  -3   3  201.81    9.27
  -1   3  -3  210.59    8.59
  -1  -3  -3  211.27    8.92
   1  -3   3  210.88    9.21
   1  -3   3  222.35    9.67
  -1  -3  -3  225.58    9.33
  -1   3  -3  231.20    9.30
   1   3   3  216.93    9.58
   1  -3   3  208.76    7.37
  -2  -4   3   34.28    4.59
  -2   4   3   34.43    4.19
   2  -4  -3   40.70    5.72
  -2   4   3   33.49    3.84
  -2   4   3   35.42    4.04
   2   4  -3   35.60    7.00
  -2  -4   3   36.78    4.80
  -1  -4   3   24.28    3.75
  -1   4   3   27.67    3.94
   1  -4  -3   27.25    4.03
   1   4  -3   24.95    4.35
  -1  -4   3   24.88    4.02
  -1   4   3   21.71    3.41
  -1  -4   3   26.80    3.73
  -1   4   3   25.30    3.25
  -1   4   3   18.90    3.15
   1   4  -3   19.95    4.55
   1  -4  -3   26.57    4.42
   1   4  -3   24.18    4.21
   1   4  -3   25.87    4.57
  -1  -4   3   24.31    3.47
   0  -4   3    5.83    2.92
   0   4   3    9.04    2.40
   0  -4  -3    9.38    2.83
   0   4   3    9.59    2.91
   0   4  -3   10.15    2.93
   0   4   3    6.00    2.53
   0  -4   3    9.72    2.81
   0   4   3    9.48    2.49
   0  -4   3    6.23    2.70
   0   4  -3    7.19    2.90
   0   4  -3   10.27    3.06
   0  -4  -3    9.16    2.36
   0  -4  -3   11.46    3.39
   0   4  -3    6.75    2.65
   0  -4   3   10.65    2.87
   1   4   3  243.48   10.49
   1  -4   3  266.55   10.38
  -1   4  -3  260.84   10.39
  -1   4  -3  252.51   10.98
   1  -4   3  254.94   10.75
   1   4   3  265.97   10.35
  -1   4  -3  256.63    9.92
  -1  -4  -3  263.08   10.26
   1  -4   3  250.45   10.37
   1  -4   3  263.95   10.79
  -1  -4  -3  284.39   10.59
  -1   4  -3  273.35   10.35
   1   4   3  277.12   11.51
  -2  -5   3    0.23    2.85
  -2   5   3    2.41    2.70
   2  -5  -3   -6.94    4.00
  -2   5   3    2.83    2.16
  -2   5   3   -2.06    2.35
   2   5  -3    4.91    5.52
  -2  -5   3    0.25    2.43
  -1   5   3   94.88    6.73
  -1   5   3   90.39    6.11
  -1  -5   3  101.25    6.80
   1   5  -3  108.48    8.29
  -1   5   3  109.75    6.85
   1   5  -3  109.69    8.10
   1   5  -3   94.64    7.28
   1  -5  -3   95.14    7.55
  -1   5   3   98.83    6.08
  -1  -5   3  103.56    6.45
  -1  -5   3  104.06    7.26
  -1  -5   3  101.43    6.56
   1  -5  -3  109.92    6.90
   1   5  -3  103.72    7.38
   0   5   3  180.69    9.27
   0   5   3  184.09    8.54
   0  -5   3  178.20    8.29
   0   5  -3  178.04    9.55
   0   5   3  180.99    8.41
   0   5  -3  169.33    8.81
   0   5  -3  176.54    8.76
   0  -5   3  170.09    8.92
   0  -5  -3  155.11    8.00
   0  -5   3  166.44    8.47
   0  -5   3  179.25    8.74
   0   5   3  165.14    8.73
   0  -5  -3  171.69    8.10
   0   5  -3  170.54    8.37
   0  -5  -3  168.85    8.62
  -1   5  -3    2.78    2.12
   1   5   3    2.71    3.01
   1  -5   3    2.78    2.87
   1   5   3    2.89    3.04
   1  -5   3    0.78    2.59
   1   5   3    3.00    2.58
  -1   5  -3    5.68    3.61
  -1   5  -3    2.00    2.49
   1   5   3    7.69    3.21
  -1   5  -3    3.77    2.66
  -1  -5  -3    5.30    3.04
   1  -5   3    0.65    3.02
   1  -5   3    6.79    3.72
  -2   5  -3  323.17   12.49
   2  -5   3  286.06   13.55
  -2   5  -3  330.32   12.64
  -2  -6   3   17.10    3.78
   2  -6  -3   10.13    3.35
  -2   6   3   11.39    3.47
   2   6  -3    5.82    6.14
  -2   6   3   15.22    3.29
  -2   6   3    9.33    3.65
   2  -6  -3   18.69    5.70
  -2  -6   3   16.18    3.82
   1  -6  -3    5.77    4.19
  -1  -6   3    6.49    3.38
   1  -6  -3    3.44    2.67
  -1   6   3    1.58    2.91
   1   6  -3   10.74    3.77
  -1  -6   3    2.93    2.66
  -1   6   3    4.29    2.73
  -1  -6   3    5.05    2.94
   1   6  -3    0.95    2.96
   1  -6  -3    2.60    3.43
  -1  -6   3    2.34    2.73
   1   6  -3    7.58    4.28
   1   6  -3    5.75    3.82
  -1   6   3    1.31    2.51
  -1   6   3    2.23    2.59
   0  -6   3   -2.48    3.10
   0  -6  -3    0.76    2.43
   0   6  -3   -3.34    2.64
   0   6   3   -4.08    3.65
   0   6   3    1.11    2.78
   0   6   3    0.11    2.34
   0   6  -3    4.22    3.68
   0   6   3   -3.13    2.74
   0   6  -3    0.50    2.59
   0  -6   3    3.16    2.63
   0  -6  -3    1.54    2.80
   0   6  -3   -1.67    2.81
   0  -6  -3    1.87    3.34
   0  -6   3   -1.56    2.62
   0  -6   3   -3.76    3.28
   1   6   3   -2.89    3.25
  -1   6  -3    4.30    2.69
   1  -6   3    3.79    3.27
   1   6   3    2.32    2.93
   1  -6   3   -0.32    2.82
   1   6   3    0.28    2.90
  -1   6  -3   -3.09    3.36
  -1   6  -3    2.29    2.89
   1   6   3    1.84    2.93
  -1  -6  -3   -5.89    3.48
   1  -6   3    0.79    3.39
   1  -6   3   -1.78    3.65
  -1   6  -3    0.85    2.52
  -2   6  -3  315.45   12.69
   2  -6   3  313.34   12.68
   2  -6   3  284.30   13.99
  -2   6  -3  279.17   12.14
  -2   7   3  411.61   15.44
   2   7  -3  448.82   21.05
  -2   7   3  430.67   14.53
  -2   7   3  429.75   15.30
  -2  -7   3  417.13   15.17
   2  -7  -3  434.59   19.57
  -1  -7   3   12.27    3.51
  -1   7   3   10.66    3.67
  -1   7   3   13.95    3.57
  -1   7   3   16.01    3.88
   1   7  -3   13.18    4.39
   1   7  -3   12.37    4.61
   1  -7  -3    0.50    4.36
   1  -7  -3   11.51    4.09
   1  -7  -3   13.23    4.09
  -1  -7   3    9.98    3.16
  -1  -7   3   12.21    4.07
   1   7  -3   14.53    4.79
   1   7  -3   17.71    4.19
   0   7   3  122.01    8.60
   0   7  -3  125.97    8.57
   0   7  -3  115.70    8.70
   0   7   3  125.51    8.07
   0   7  -3  112.39    8.25
   0   7   3  119.54    8.54
   0  -7   3  121.45    8.10
   0  -7  -3  114.67    7.74
   0  -7   3  126.01    8.24
   0  -7   3  114.93    8.50
   0  -7  -3  112.19    7.83
  -1   7  -3   82.84    7.20
   1   7   3   75.08    7.11
   1  -7   3   74.36    7.15
   1   7   3   81.45    8.17
  -1  -7  -3   80.41    6.93
  -1  -7  -3   71.29    6.40
   1  -7   3   69.30    6.88
   1  -7   3   74.35    6.61
   1   7   3   79.08    7.44
  -2   7  -3  384.77   14.47
   2  -7   3  373.15   16.62
  -2   7  -3  390.16   14.71
  -2   8   3   -0.95    2.85
  -2   8   3   -0.82    3.44
  -2   8   3   -5.41    3.35
   2  -8  -3   -4.51    5.45
  -1  -8   3   22.25    4.37
  -1   8   3   12.96    3.98
  -1  -8   3   14.78    3.98
  -1   8   3   18.82    3.80
  -1   8   3   17.71    4.21
   1   8  -3   19.76    5.84
   1  -8  -3   11.07    4.77
   1   8  -3   31.02    5.98
   1  -8  -3   17.39    4.59
   1  -8  -3   25.62    5.33
  -1  -8   3   19.53    4.85
  -1  -8   3   21.42    4.33
   1   8  -3   26.10    5.80
   1   8  -3   19.31    4.54
   0   8   3   82.44    7.61
   0   8   3   75.23    7.36
   0   8  -3   89.77    8.31
   0   8   3   82.84    7.17
   0   8  -3   78.76    7.36
   0   8  -3   91.78    8.18
   0  -8  -3   81.24    7.14
   0  -8   3   76.02    7.46
   0  -8   3   79.10    7.38
   0  -8  -3   78.17    6.89
   0  -8   3   79.15    7.13
   1   8   3  165.48   10.93
  -1   8  -3  168.85   10.75
  -1   8  -3  172.82   10.10
  -1   8  -3  160.14    9.65
   1   8   3  175.30   11.54
   1  -8   3  159.02   10.32
  -1  -8  -3  187.44   10.52
   1  -8   3  171.27   10.70
   1  -8   3  179.90   10.41
  -1  -8  -3  176.43   10.07
   1   8   3  170.53   10.86
  -2   8  -3  679.22   20.12
   2  -8   3  677.31   23.52
  -2   8  -3  633.82   20.07
  -2   9   3  116.01    9.17
  -2   9   3  110.89    8.67
  -2   9   3  114.22    9.07
   2  -9  -3  112.69   11.43
  -1   9   3  116.93    8.69
  -1   9   3  128.14    9.05
   1   9  -3  150.98   11.78
  -1   9   3  137.68    9.94
   1   9  -3  126.48   10.62
   1   9  -3  136.79   10.93
   1  -9  -3  120.84   10.80
   1  -9  -3  126.37    9.44
  -1  -9   3  143.30    9.60
   1  -9  -3  125.42    9.35
  -1  -9   3  136.70    8.77
  -1  -9   3  115.92    8.10
  -1  -9   3  119.74    9.13
   1   9  -3  136.77   10.42
   0   9   3  239.76   13.02
   0   9  -3  264.42   13.74
   0   9   3  239.51   13.26
   0   9  -3  242.99   12.72
   0  -9  -3  238.51   13.67
   0  -9  -3  250.20   12.36
   0  -9   3  232.63   12.36
   0  -9   3  236.46   12.64
   0  -9  -3  241.37   11.80
   0  -9   3  262.88   12.21
   0   9  -3  240.59   12.42
   0   9   3  252.40   12.84
   1   9   3   23.71    5.99
  -1   9  -3   23.66    4.99
   1   9   3   24.17    5.32
  -1   9  -3   24.52    5.22
   1  -9   3   27.49    5.88
   1   9   3   14.81    4.93
  -1   9  -3   31.72    5.46
   1  -9   3   22.87    5.60
   1  -9   3   25.05    5.17
  -2   9  -3  573.89   19.30
   2  -9   3  536.10   21.82
  -2   9  -3  552.93   19.83
  -2  10   3    8.09    4.21
   2 -10  -3    6.20    5.27
  -2  10   3    6.26    4.03
  -2  10   3    2.57    3.88
   2 -10  -3    9.26    5.91
  -1  10   3  105.49    8.96
  -1  10   3  110.21    8.90
   1  10  -3  132.03   11.48
  -1  10   3  110.90    9.37
   1  10  -3  120.59   11.01
   1  10  -3  128.67   11.00
   1 -10  -3  119.62   11.63
   1 -10  -3  124.24   10.14
  -1 -10   3  122.01    9.56
   1 -10  -3  121.86    9.68
  -1 -10   3  125.77    8.89
  -1 -10   3  111.12    8.60
   1  10  -3  113.25   10.19
  -1 -10   3  103.42    9.02
   0  10   3   87.16    8.83
   0  10  -3  113.41    9.88
   0  10   3   92.11    8.79
   0  10  -3  112.28   10.10
   0  10  -3  100.58    8.99
   0  10   3  103.24    9.46
   0 -10  -3   95.04    9.51
   0 -10  -3   93.16    8.06
   0 -10   3   95.91    8.94
   0 -10   3  105.49    8.30
   0 -10  -3   94.74    7.95
   0 -10   3   95.67    9.07
   0 -10   3  105.21    8.66
   0  10  -3  101.19    8.95
   1  10   3    7.57    5.57
   1  10   3    5.95    5.31
   1  10   3   -0.79    4.29
  -1  10  -3   -0.66    4.28
   1 -10   3    4.27    4.96
  -1  10  -3    1.54    4.53
   1 -10   3   -6.37    5.53
   1 -10   3   -0.44    3.84
   2 -10   3   26.10    6.67
  -2  10  -3   13.67    4.74
  -2  10  -3   20.01    5.48
  -2  11   3   40.19    7.17
  -2  11   3   54.83    6.80
  -2  11   3   43.12    6.75
   2 -11  -3   54.62   10.95
   2 -11  -3   52.46    8.84
   2 -11  -3   63.54    9.01
  -1  11   3  264.29   14.66
   1  11  -3  297.50   17.30
  -1  11   3  283.46   14.51
  -1  11   3  262.09   14.69
   1  11  -3  287.48   17.45
   1 -11  -3  298.20   14.89
   1 -11  -3  269.03   15.04
  -1 -11   3  279.12   14.57
  -1 -11   3  275.15   13.93
   1  11  -3  272.02   16.32
   1 -11  -3  269.10   17.27
  -1 -11   3  265.59   14.64
   0  11   3    1.27    4.55
   0  11   3   -0.05    4.95
   0  11   3    3.93    4.45
   0  11  -3   -2.11    5.28
   0  11  -3    1.38    5.27
   0 -11  -3    6.29    5.08
   0 -11  -3    6.13    5.01
   0 -11   3   11.84    5.59
   0 -11  -3   -4.69    4.41
   0 -11   3    0.11    4.75
   0 -11   3   -1.80    4.40
   0  11  -3    0.88    4.26
   1  11   3   22.45    7.22
   1  11   3    8.27    5.25
  -1  11  -3   10.70    5.31
   1  11   3   10.44    4.70
  -1  11  -3   13.08    5.63
   1 -11   3    6.41    5.39
   1 -11   3    7.77    5.35
  -2  11  -3    5.77    5.10
   2 -11   3    5.48    5.19
  -2  12   3   37.52    6.71
   2 -12  -3   48.58   11.50
   2 -12  -3   51.67   10.02
  -2  12   3   47.09    7.13
  -1  12   3   -7.49    4.85
   1 -12  -3   15.59    7.11
   1  12  -3   -5.70    5.92
   1 -12  -3   -1.85    4.81
  -1 -12   3   11.24    5.63
  -1 -12   3    1.49    4.75
  -1  12   3    8.68    5.03
   1  12  -3    1.75    5.21
   0  12   3  121.88   11.60
   0 -12  -3  117.90   10.15
   0 -12  -3  112.54   11.77
   0  12  -3  112.05   10.89
   0 -12   3  127.23   10.79
   0  12   3  118.34   10.97
   0 -12   3  120.23   11.21
   0  12  -3  123.45   11.75
   1 -12   3   11.49    6.08
   1  12   3    6.82    5.72
  -1  12  -3   13.44    6.62
  -2  12  -3   80.53    9.91
  -2  13   3   47.21    7.43
  -2  13   3   57.59    8.82
   2 -13  -3   60.98   12.97
   2 -13  -3   50.51    9.56
  -1  13   3    3.24    5.24
  -1  13   3    1.13    5.50
   1 -13  -3   -3.79    8.21
   1  13  -3   -6.18    7.56
   1 -13  -3   -1.64    6.01
  -1 -13   3    4.82    5.44
  -1 -13   3   10.48    6.45
   1  13  -3    8.55    6.72
   0  13   3   82.45   10.05
   0  13   3   82.84   10.21
   0  13  -3   71.93   10.31
   0 -13  -3   63.34    9.89
   0 -13  -3   63.30    8.76
   0 -13   3   74.58    9.96
   0 -13   3   70.92    9.76
   0  13  -3   72.57   10.14
  -1  13  -3    6.25    5.91
  -1 -13  -3   13.24    7.66
   1 -13   3   11.27    6.49
  -2  13  -3  109.68   12.05
  -2  14   3    7.15    5.31
  -2  14   3    2.41    5.99
  -1  14   3   54.91    8.98
  -1  14   3   43.96    8.41
   1  14  -3   59.01   11.98
  -1 -14   3   66.28   10.19
   0  14   3   23.05    7.45
   0  14   3   32.42   10.50
   0  14  -3   42.64    9.94
   0 -14   3   42.44    8.42
   0  14  -3   39.76    8.80
  -1  14  -3    4.76    7.13
  -2   0   4    3.02    2.72
   2   0  -4   -1.93    5.97
  -2   0   4    4.68    2.80
  -2   0   4    6.49    3.16
   2   0  -4   13.46    5.62
  -1   0   4  455.54   13.93
  -1   0   4  431.23   14.66
   1   0  -4  467.88   16.39
   1   0  -4  452.18   15.80
   1   0  -4  430.79   15.07
  -1   0   4  449.95   14.65
  -1   0   4  440.99   12.92
   1   0  -4  473.68   16.88
   0   0   4  420.41   13.70
   0   0   4  427.95   14.77
   0   0  -4  415.71   14.61
   0   0  -4  439.03   14.06
   0   0   4  411.29   13.99
   0   0   4  437.85   13.75
   0   0  -4  414.12   13.82
   0   0  -4  410.53   14.63
   1   0   4 1332.64   25.80
   1   0   4 1198.57   26.63
  -1   0  -4 1245.82   24.86
   1   0   4 1331.16   26.59
   1   0   4 1284.91   25.99
  -1   0  -4 1302.27   26.98
  -1   0  -4 1330.87   27.44
  -2  -1   4  260.76   12.04
  -2   1   4  278.62   11.73
  -2   1   4  289.23   12.66
  -2  -1   4  242.88   11.93
   2  -1  -4  279.12   14.62
   2   1  -4  301.63   16.25
   2   1  -4  260.24   14.26
  -2   1   4  277.25   10.23
  -2  -1   4  300.91   11.35
   2  -1  -4  287.40   15.78
   2   1  -4  282.77   16.23
  -1   1   4   37.32    4.15
  -1  -1   4   39.76    4.52
   1  -1  -4   39.25    5.83
  -1   1   4   31.22    4.24
   1   1  -4   36.02    5.97
  -1  -1   4   35.94    4.22
  -1  -1   4   33.52    4.78
  -1   1   4   33.21    4.75
  -1  -1   4   33.84    4.70
   1  -1  -4   42.60    5.50
   1   1  -4   27.92    5.22
  -1   1   4   38.09    4.54
   1   1  -4   45.07    5.13
   1  -1  -4   36.93    5.33
   1   1  -4   28.95    4.80
   1  -1  -4   34.98    4.70
   0  -1  -4  121.19    7.25
   0   1   4  127.77    7.73
   0  -1   4  130.69    7.40
   0   1   4  125.42    8.15
   0  -1  -4  119.56    7.82
   0  -1   4  123.30    8.12
   0   1  -4  117.06    8.28
   0   1  -4  128.68    7.85
   0  -1   4  123.75    7.96
   0   1   4  111.06    7.26
   0   1   4  127.46    7.27
   0  -1   4  111.77    7.25
   0   1  -4  113.46    7.07
   0  -1  -4  119.62    7.88
   0  -1  -4  120.60    8.29
   0   1  -4  133.77    8.78
   1  -1   4   72.75    5.82
  -1   1  -4   67.38    6.38
  -1   1  -4   65.78    6.44
  -1  -1  -4   65.03    5.47
  -1   1  -4   66.84    5.99
   1   1   4   58.37    6.28
   1  -1   4   62.36    6.40
   1   1   4   61.77    5.64
   1  -1   4   65.86    6.18
   1  -1   4   78.15    6.62
  -1  -1  -4   69.14    5.95
  -1  -1  -4   72.69    6.55
   1   1   4   65.53    5.78
  -2   2   4   82.78    6.81
   2  -2  -4   92.82    8.40
   2   2  -4   94.39    9.97
  -2   2   4   93.24    7.53
  -2  -2   4   85.93    7.26
   2   2  -4  112.60   11.01
   2   2  -4   85.22    8.79
  -2   2   4   90.12    5.84
  -2  -2   4   95.93    6.89
   2  -2  -4  111.43   10.73
  -2  -2   4   95.66    7.54
  -1   2   4    1.19    2.19
  -1  -2   4    2.02    2.63
   1  -2  -4   -0.19    3.75
  -1   2   4    1.61    2.63
   1   2  -4    1.07    4.04
  -1  -2   4    2.13    2.15
  -1  -2   4    6.36    3.34
  -1   2   4    1.38    2.61
  -1  -2   4    2.71    2.78
   1  -2  -4    0.85    3.08
   1   2  -4    2.77    4.38
   1   2  -4   -2.71    3.12
   1  -2  -4   -0.23    3.79
   1   2  -4   -0.34    3.27
  -1   2   4    5.21    2.40
   1  -2  -4   -1.67    2.90
   0   2   4  102.63    7.36
   0  -2   4  116.59    6.75
   0  -2  -4  101.66    6.90
   0   2   4  118.12    8.09
   0  -2   4  113.84    7.81
   0   2  -4  123.66    8.72
   0   2  -4  106.91    7.61
   0  -2  -4  122.72    7.05
   0  -2   4  113.43    7.92
   0   2   4  121.17    7.34
   0   2   4  116.48    6.72
   0  -2   4  102.85    7.15
   0  -2  -4  123.69    8.09
   0  -2  -4  113.94    8.03
   0   2  -4  110.68    8.04
   1   2   4  124.23    8.08
   1   2   4  128.54    7.82
  -1   2  -4  141.16    9.11
   1   2   4  129.51    8.91
   1  -2   4  130.57    8.58
  -1  -2  -4  112.40    6.67
  -1   2  -4  109.64    7.74
   1  -2   4  113.98    8.21
   1  -2   4  138.68    8.63
  -1  -2  -4  126.36    8.19
  -1  -2  -4  124.18    8.35
  -1   2  -4  133.96    8.73
   2   3  -4   10.88    5.14
  -2  -3   4   19.53    4.04
   2  -3  -4   22.58    6.09
  -2   3   4   16.20    3.68
   2   3  -4   14.48    6.50
   2   3  -4    8.49    5.65
  -2  -3   4   22.15    4.45
  -2   3   4   24.27    4.66
  -2  -3   4   15.20    3.76
  -2   3   4   21.50    3.80
  -2  -3   4   21.20    3.81
  -1  -3   4   38.05    4.92
   1  -3  -4   41.93    5.93
  -1   3   4   43.95    5.16
   1   3  -4   48.72    6.40
  -1  -3   4   38.24    5.02
  -1   3   4   43.39    5.28
  -1  -3   4   36.69    5.03
  -1   3   4   42.21    4.06
   1   3  -4   55.01    7.29
   1   3  -4   51.31    6.15
  -1  -3   4   50.75    4.86
   1  -3  -4   49.04    6.15
   1   3  -4   48.12    6.10
   0  -3  -4   -4.01    3.82
   0   3  -4    0.62    3.30
   0   3   4   -1.14    2.97
   0   3   4   -6.21    3.45
   0  -3   4   -0.08    3.22
   0   3  -4   -2.39    4.35
   0  -3   4   -0.45    3.26
   0   3  -4    1.41    2.91
   0   3  -4    0.47    3.03
   0  -3  -4   -2.06    3.60
   0  -3   4    1.50    2.45
   0  -3   4    2.98    3.17
   1   3   4   58.34    6.44
   1  -3   4   66.48    6.70
   1  -3   4   60.62    6.24
  -1   3  -4   60.23    6.16
   1   3   4   58.47    6.36
  -1   3  -4   66.75    6.69
  -1   3  -4   60.21    5.49
   1  -3   4   67.13    6.71
  -1  -3  -4   57.43    5.95
  -1   3  -4   63.22    6.39
  -1  -3  -4   54.11    5.84
   2   4  -4   28.76    6.42
   2   4  -4   38.22    8.21
  -2  -4   4   32.29    4.93
   2  -4  -4   25.04    6.01
  -2   4   4   26.16    4.65
   2   4  -4   39.38    7.87
  -2  -4   4   26.83    4.57
  -2   4   4   31.46    5.11
  -2   4   4   31.82    4.49
  -2  -4   4   25.64    4.03
  -1   4   4  178.20    9.64
  -1   4   4  181.60    9.97
  -1  -4   4  196.84   10.20
   1   4  -4  172.09   11.92
  -1   4   4  192.21    8.77
   1   4  -4  189.31   11.50
  -1   4   4  179.67    9.00
   1   4  -4  191.10   10.89
   1  -4  -4  188.27   11.03
   1  -4  -4  181.03    9.86
  -1  -4   4  190.37    9.23
   1  -4  -4  190.87   11.29
  -1  -4   4  174.06   10.13
  -1  -4   4  192.26    9.61
   1  -4  -4  185.97   10.71
   1   4  -4  179.69   11.12
   0   4   4  289.52   12.83
   0   4   4  300.66   12.77
   0  -4   4  280.36   12.19
   0   4  -4  284.44   13.64
   0   4  -4  296.04   13.18
   0   4  -4  283.78   11.91
   0   4   4  316.38   12.72
   0   4   4  300.59   11.13
   0  -4  -4  269.95   12.07
   0  -4   4  268.98   12.56
   0  -4  -4  272.08   11.51
   0  -4   4  277.74   11.46
   0  -4  -4  285.60   12.63
   0  -4   4  283.59   12.22
   0  -4  -4  290.70   12.38
   0   4  -4  297.50   12.92
   1   4   4  359.64   14.86
   1   4   4  375.65   15.10
  -1   4  -4  383.91   15.62
   1  -4   4  351.04   14.07
  -1   4  -4  391.27   14.96
   1   4   4  370.00   12.93
   1  -4   4  396.10   15.51
  -1   4  -4  382.11   13.81
   1  -4   4  360.63   14.64
   1  -4   4  374.84   14.65
  -1  -4  -4  386.13   14.66
  -1  -4  -4  407.97   14.91
  -1   4  -4  380.78   14.66
  -2   5   4  169.99    9.95
  -2   5   4  197.34    9.96
  -2   5   4  173.84   10.45
   2   5  -4  180.84   14.59
  -2   5   4  191.18    9.96
   2   5  -4  160.85   12.47
  -2  -5   4  178.56    9.41
  -2  -5   4  177.31    9.76
  -2  -5   4  159.58   10.06
   2  -5  -4  172.33   11.13
   2   5  -4  166.34   12.64
  -1  -5   4   34.54    4.80
   1  -5  -4   44.87    5.80
  -1   5   4   42.08    5.43
   1   5  -4   40.80    6.54
  -1   5   4   41.35    5.42
  -1  -5   4   41.65    5.37
  -1   5   4   36.95    4.42
  -1  -5   4   38.66    5.51
  -1   5   4   40.64    4.81
   1   5  -4   35.24    6.41
   1  -5  -4   40.51    6.44
   1   5  -4   41.95    6.08
   1  -5  -4   35.16    5.48
   1  -5  -4   32.58    6.34
  -1  -5   4   40.72    5.21
   1   5  -4   41.42    6.39
   0   5   4  137.85    9.45
   0   5   4  128.29    8.87
   0  -5   4  122.13    8.20
   0   5  -4  130.22   10.12
   0   5   4  120.74    7.63
   0   5  -4  126.75    9.21
   0   5  -4  127.22    8.75
   0   5   4  151.57    9.36
   0  -5  -4  125.06    8.85
   0  -5   4  125.94    9.15
   0  -5   4  132.84    8.41
   0  -5  -4  130.89    9.13
   0  -5   4  145.11    9.21
   0  -5  -4  122.76    8.12
   0  -5  -4  139.99    8.87
   0   5  -4  131.79    9.01
  -1   5  -4   15.09    4.14
   1   5   4   15.32    4.52
   1  -5   4   22.80    5.19
   1   5   4   22.44    5.44
   1  -5   4   20.92    5.02
   1   5   4   22.18    4.43
  -1   5  -4   19.69    5.41
  -1   5  -4   28.39    5.78
  -1   5  -4   16.02    4.55
  -1  -5  -4   14.31    4.42
   1  -5   4   13.41    4.18
   1  -5   4   17.86    4.97
  -2   6   4  241.46   12.11
   2   6  -4  203.74   15.57
  -2   6   4  234.19   11.28
  -2   6   4  221.50   11.42
   2   6  -4  227.13   15.38
  -2  -6   4  226.63   11.17
  -2  -6   4  229.28   11.30
   2  -6  -4  234.69   12.64
   2   6  -4  238.01   15.00
  -2  -6   4  222.23   12.39
  -1  -6   4    2.59    3.39
   1  -6  -4    4.70    4.62
   1   6  -4    1.49    4.21
  -1   6   4    7.11    3.49
  -1   6   4    2.59    3.36
  -1  -6   4    7.04    3.64
  -1   6   4    1.59    2.63
  -1   6   4    4.44    3.31
   1   6  -4    6.54    4.42
   1   6  -4   -1.85    5.01
  -1  -6   4    6.55    3.81
   1  -6  -4    8.85    5.48
   1  -6  -4   -2.44    4.14
   1  -6  -4    6.49    5.07
  -1  -6   4    8.11    3.93
   1   6  -4   -0.88    4.61
   0   6   4  334.71   14.75
   0   6   4  341.03   14.13
   0  -6   4  357.48   14.03
   0   6  -4  334.61   15.90
   0   6   4  346.14   13.47
   0   6  -4  360.37   15.47
   0   6  -4  334.64   14.61
   0   6   4  324.50   14.58
   0  -6  -4  317.11   14.34
   0  -6  -4  300.02   13.33
   0  -6   4  344.23   15.27
   0  -6   4  326.11   13.61
   0  -6  -4  349.53   14.58
   0  -6   4  336.82   14.07
   0  -6  -4  349.25   13.74
   0   6  -4  339.89   14.36
   1   6   4  368.40   16.59
  -1   6  -4  404.40   16.93
   1   6   4  346.19   15.32
   1  -6   4  377.79   14.88
  -1   6  -4  346.77   14.92
   1   6   4  375.45   14.96
   1  -6   4  353.86   15.50
  -1   6  -4  391.64   15.50
   1  -6   4  368.33   15.56
   1  -6   4  356.56   15.09
  -1  -6  -4  388.32   15.44
  -1   6  -4  347.08   14.40
  -2   6  -4    4.22    3.58
  -2   6  -4   15.47    5.16
  -2  -7   4   35.98    5.64
   2   7  -4   24.56    7.29
  -2   7   4   37.33    5.88
  -2   7   4   27.54    4.60
  -2  -7   4   33.00    5.66
  -2   7   4   37.09    5.91
   2  -7  -4   17.76    6.53
   2   7  -4   38.52    9.25
  -2  -7   4   26.58    5.06
  -1   7   4  210.08   11.91
   1   7  -4  241.32   14.97
  -1   7   4  213.43   10.78
  -1   7   4  193.15   11.17
   1   7  -4  221.31   14.04
   1   7  -4  202.12   13.04
   1  -7  -4  200.91   12.97
   1  -7  -4  204.30   12.16
  -1  -7   4  223.45   11.60
   1  -7  -4  211.94   12.71
  -1  -7   4  223.09   11.43
  -1  -7   4  212.46   12.19
   0   7   4   53.90    6.96
   0   7   4   61.07    6.63
   0   7  -4   51.05    7.40
   0   7   4   48.96    6.58
   0   7  -4   51.23    6.90
   0  -7  -4   52.90    7.24
   0  -7  -4   49.17    6.28
   0  -7  -4   50.86    6.54
   0   7  -4   50.77    7.01
   0  -7   4   50.13    6.69
   0  -7   4   53.57    7.21
   0  -7   4   57.42    6.69
   1   7   4   13.95    5.40
   1   7   4    2.02    4.10
  -1   7  -4   19.09    5.99
   1  -7   4    6.48    3.87
  -1   7  -4    9.19    4.50
  -1   7  -4    2.28    3.74
  -1  -7  -4   11.16    4.46
   1  -7   4    6.84    4.37
   1  -7   4    9.20    4.60
   2  -7   4   28.68    6.66
  -2   7  -4   34.30    6.42
  -2   7  -4   33.33    5.98
  -2   8   4  197.75   12.11
   2   8  -4  215.86   16.68
  -2   8   4  207.18   11.55
  -2   8   4  213.75   12.16
   2  -8  -4  187.17   15.11
  -2  -8   4  212.50   12.14
   2  -8  -4  199.58   13.53
  -2  -8   4  203.79   11.45
  -1  -8   4    5.11    4.24
  -1   8   4    5.22    4.10
  -1   8   4    0.32    3.00
  -1   8   4    5.72    4.41
   1   8  -4    8.47    6.13
   1  -8  -4   -7.09    5.30
   1   8  -4    2.41    4.80
   1  -8  -4    7.67    5.07
   1  -8  -4    5.53    5.06
  -1  -8   4    4.73    4.30
   1   8  -4    7.22    5.72
  -1  -8   4    5.69    4.74
   0   8   4   94.19    9.60
   0   8  -4  110.93   10.45
   0   8   4   88.07    7.92
   0   8  -4  106.14    9.81
   0   8   4  106.25    9.58
   0   8  -4   80.85    8.78
   0  -8  -4   91.03    9.49
   0  -8  -4   99.00    8.57
   0  -8   4  101.00    8.93
   0  -8   4   87.32    8.79
   0  -8   4  106.17    9.01
   0  -8  -4   91.68    8.64
   1   8   4   19.82    5.54
   1   8   4   21.40    5.74
  -1   8  -4   36.13    6.63
   1  -8   4   29.39    6.26
  -1   8  -4   31.56    5.80
  -1   8  -4   38.11    6.37
  -1  -8  -4   30.30    6.18
   1  -8   4   25.14    6.01
   1  -8   4   28.39    6.18
   2  -8   4   16.18    7.00
  -2   8  -4   16.01    5.19
  -2   8  -4   12.21    4.68
  -2   9   4    0.33    3.94
  -2   9   4   -4.16    3.61
  -2   9   4   -2.04    3.65
   2  -9  -4    8.35    7.04
   2  -9  -4    2.92    5.16
   2  -9  -4    0.72    5.70
  -1  -9   4   -4.76    4.08
  -1   9   4   -5.54    4.92
  -1   9   4    4.60    4.05
  -1  -9   4   -4.29    4.65
  -1   9   4   -0.18    4.09
   1   9  -4    3.63    6.69
   1  -9  -4   -1.55    6.26
   1   9  -4    2.80    5.60
   1  -9  -4   -1.06    4.36
   1  -9  -4   -7.74    5.47
  -1  -9   4   -1.75    3.96
   1   9  -4    1.88    5.37
   0  -9   4   23.39    6.31
   0   9   4   22.31    5.81
   0   9   4   17.60    5.37
   0   9  -4   31.54    7.20
   0   9   4   22.63    5.94
   0   9  -4   22.29    6.41
   0  -9  -4   15.79    6.13
   0  -9  -4   27.86    6.32
   0  -9  -4   11.18    4.71
   0  -9   4   18.86    5.70
   0   9  -4   20.16    6.06
   0  -9   4   22.26    5.99
   1   9   4   -2.36    5.46
   1   9   4   -2.22    4.98
  -1   9  -4   -1.28    5.38
  -1   9  -4   -0.47    4.72
   1  -9   4    6.84    4.99
  -1   9  -4    6.10    4.80
   1  -9   4   -1.02    5.29
   1  -9   4   -0.84    4.50
  -2   9  -4   35.03    6.90
  -2   9  -4   34.60    6.61
  -2  10   4   44.35    7.21
  -2  10   4   40.80    6.40
  -2  10   4   41.14    7.08
   2 -10  -4   35.64    9.70
   2 -10  -4   45.16    8.36
   2 -10  -4   47.27    8.64
   1  10  -4   59.55    9.75
  -1  10   4   54.58    7.71
  -1  10   4   50.10    6.97
   1  10  -4   47.44    9.61
  -1  10   4   46.93    7.35
   1 -10  -4   50.72    8.62
   1  10  -4   44.80    8.62
   1 -10  -4   60.30    8.82
  -1 -10   4   60.49    7.88
   1 -10  -4   52.23    8.28
  -1 -10   4   46.78    7.22
  -1 -10   4   56.80    7.21
   0  10   4   54.25    8.41
   0 -10   4   53.56    8.16
   0  10   4   60.21    7.82
   0  10  -4   53.39    9.24
   0  10   4   54.38    8.10
   0  10  -4   58.11    8.60
   0 -10  -4   44.53    7.66
   0 -10  -4   58.29    8.10
   0 -10  -4   46.99    7.22
   0 -10   4   56.33    7.70
   0  10  -4   58.39    8.52
   0 -10   4   62.71    8.12
   1  10   4  100.58   11.58
  -1  10  -4  112.40   11.09
   1  10   4  106.97   11.01
  -1  10  -4  107.36   10.72
   1 -10   4  105.25    9.73
  -1  10  -4   97.60   10.14
   1 -10   4  115.41   10.75
   1 -10   4   95.62   10.03
  -2  10  -4   14.59    6.12
  -2  11   4   19.77    6.00
  -2  11   4   22.99    5.05
  -2  11   4   34.93    6.97
   2 -11  -4   17.07    8.81
   2 -11  -4   28.61    8.24
   2 -11  -4   34.83    9.17
   1  11  -4   53.25    9.11
  -1  11   4   63.96    8.68
  -1  11   4   62.35    7.75
   1  11  -4   53.59    9.98
  -1  11   4   67.21    8.31
   1 -11  -4   64.44   10.91
   1  11  -4   72.81   10.59
   1 -11  -4   67.22    9.33
   1 -11  -4   70.26    9.10
  -1 -11   4   72.70    8.71
  -1 -11   4   69.93    8.54
  -1 -11   4   66.75    8.90
   0  11   4   34.81    8.17
   0  11  -4   28.84    7.74
   0  11   4   39.67    7.50
   0  11  -4   43.68    8.53
   0 -11  -4   38.70    8.53
   0 -11  -4   36.39    6.97
   0 -11  -4   32.06    6.32
   0 -11   4   17.82    6.71
   0  11   4   24.99    6.18
   0 -11   4   36.96    7.40
   0  11  -4   40.36    8.31
   0 -11   4   42.89    7.64
   1  11   4   -0.97    6.55
  -1  11  -4   -1.31    6.05
  -1  11  -4    4.92    5.25
  -1 -11  -4   -7.17    7.21
   1 -11   4   -4.60    6.21
  -1  11  -4  -14.58    6.57
   1 -11   4  -12.59    6.48
   1 -11   4  -11.93    6.64
  -2  12   4   72.47    9.94
  -2  12   4   80.06    9.39
  -2  12   4   73.98   10.00
   2 -12  -4   85.19   13.05
   2 -12  -4   67.39   10.25
   2 -12  -4  101.66   13.24
  -1  12   4    4.06    5.28
  -1  12   4   10.32    6.04
   1  12  -4    5.36    8.48
  -1  12   4   21.76    6.85
   1 -12  -4   12.42    8.51
   1  12  -4    8.03    7.22
   1 -12  -4   12.72    7.11
   1 -12  -4   24.66    7.73
  -1 -12   4   16.05    6.53
  -1 -12   4    5.60    5.60
   0 -12   4   -4.39    6.13
   0  12   4    5.25    5.87
   0  12   4   11.94    6.48
   0  12  -4   12.59    7.35
   0  12   4    2.86    5.92
   0  12  -4   -2.27    5.91
   0 -12  -4    6.22    5.90
   0 -12  -4    0.03    5.57
   0 -12  -4   15.44    6.82
   0 -12   4    7.01    5.97
  -1  12  -4  140.93   13.22
   1 -12   4  129.99   13.59
  -2  13   4   45.88    7.93
  -2  13   4   49.34    8.64
  -1  13   4    6.59    6.44
   1  13  -4   15.35    9.50
   0  13   4    9.07    6.66
   0  13   4   -5.16    5.71
  -2   0   5    2.29    3.11
   2   0  -5   -1.00    7.36
  -2   0   5   -2.09    3.28
  -2   0   5    0.56    3.87
   2   0  -5    9.23    7.03
   1   0  -5    3.57    5.39
  -1   0   5    1.64    3.36
  -1   0   5    1.43    3.97
   1   0  -5    0.62    4.96
   1   0  -5   -4.01    4.68
  -1   0   5   -3.27    3.88
   1   0  -5   -1.23    4.58
  -1   0   5   -3.23    3.62
   0   0  -5    3.32    4.47
   0   0   5    2.93    3.60
   0   0   5    4.38    3.99
   0   0  -5   -3.64    4.55
   0   0  -5   -7.12    4.46
   0   0  -5    3.07    3.88
   0   0   5    1.02    4.20
   0   0   5    3.03    3.50
  -1   0  -5   -2.47    4.61
   1   0   5   -0.75    3.66
   1   0   5    3.11    4.12
   1   0   5   -2.20    3.79
  -1   0  -5    2.76    3.60
  -2   1   5   49.85    5.55
  -2  -1   5   44.00    5.67
   2   1  -5   49.71    8.27
   2  -1  -5   37.45    9.30
   2   1  -5   37.75    9.27
  -2   1   5   42.26    5.92
  -2   1   5   45.03    6.21
  -2  -1   5   35.64    5.70
   2   1  -5   47.04    9.44
  -2  -1   5   44.00    6.45
  -1  -1   5    4.26    3.90
   1  -1  -5    7.20    5.42
   1   1  -5    3.63    5.70
  -1   1   5   -1.19    3.57
  -1  -1   5    3.36    3.56
  -1   1   5    3.85    3.27
  -1  -1   5    0.04    3.48
   1   1  -5    4.39    5.07
  -1  -1   5    3.20    3.99
   1  -1  -5   -5.21    4.78
   1   1  -5   -6.83    4.97
   1  -1  -5   -4.95    4.19
  -1   1   5    1.91    3.25
   0  -1  -5   12.50    5.46
   0   1  -5   17.29    5.84
   0   1   5    7.61    3.76
   0   1   5    2.57    4.35
   0  -1   5    0.95    4.02
   0   1  -5    6.99    5.10
   0  -1  -5   15.28    4.86
   0  -1   5   12.59    4.91
   0   1  -5    8.17    4.45
   0  -1  -5    9.89    3.94
   0   1   5   13.50    4.20
   0  -1   5   17.33    5.00
  -1  -1  -5   10.46    4.62
  -1   1  -5   14.60    5.06
   1   1   5   18.20    4.87
   1   1   5   11.38    4.77
   1  -1   5    8.38    4.12
   1  -1   5   15.53    4.67
  -1   1  -5    6.52    3.85
  -1  -1  -5    5.51    3.27
   1  -1   5   16.78    4.78
  -2   2   5  366.44   15.22
  -2   2   5  394.73   16.66
  -2  -2   5  382.47   16.53
   2   2  -5  366.35   21.08
   2   2  -5  403.77   20.68
  -2  -2   5  399.59   15.10
   2  -2  -5  407.94   21.07
   2   2  -5  408.75   22.08
  -2  -2   5  389.77   16.17
  -1   2   5  233.38   11.97
  -1   2   5  230.35   12.42
  -1  -2   5  218.83   12.37
   1   2  -5  245.57   15.36
   1   2  -5  238.83   14.08
   1  -2  -5  249.75   14.48
  -1  -2   5  251.72   12.04
  -1  -2   5  225.63   12.28
   1  -2  -5  244.36   14.56
   1   2  -5  251.97   15.29
   0   2   5  213.63   11.87
   0   2  -5  218.96   13.42
   0   2   5  214.58   12.40
   0  -2   5  195.85   11.84
   0   2  -5  180.29   11.44
   0  -2   5  210.46   12.39
   0  -2   5  209.56   11.53
   0  -2  -5  197.79   11.92
   0  -2  -5  211.69   12.60
   0   2  -5  210.36   13.06
   1   2   5  913.32   24.64
  -1   2  -5  959.40   27.18
   1   2   5  856.42   25.38
   1  -2   5  876.05   25.27
  -1   2  -5  866.49   24.62
   1  -2   5  854.55   24.57
   1  -2   5  958.25   25.80
  -1  -2  -5  910.41   25.83
  -1   2  -5  943.74   26.37
   2   3  -5    8.20    6.67
  -2  -3   5   -0.13    3.49
   2  -3  -5    1.05    6.30
   2   3  -5  -12.26    7.68
  -2   3   5    5.42    3.58
  -2   3   5    1.39    3.78
  -2  -3   5    3.31    4.02
  -2  -3   5    2.61    3.65
   2   3  -5    1.71    6.71
  -1  -3   5   -3.89    3.68
   1  -3  -5    2.34    5.15
   1   3  -5   -5.50    5.61
  -1   3   5    4.15    3.64
  -1   3   5   -3.91    4.29
  -1  -3   5    4.69    3.85
  -1  -3   5   -2.67    3.35
   1   3  -5    5.23    5.51
   1  -3  -5    3.80    5.06
   1   3  -5   -1.27    5.03
   0  -3  -5   -4.59    4.76
   0   3  -5   -5.61    4.99
   0   3   5    4.31    4.38
   0   3   5   -2.27    3.68
   0  -3   5   -3.43    3.95
   0   3  -5    2.93    5.22
   0  -3  -5   -0.01    4.31
   0   3  -5    1.69    4.03
   0  -3   5   -0.07    4.15
   0  -3   5    1.35    3.84
  -1   3  -5   11.13    4.74
   1   3   5    7.76    3.86
   1   3   5   12.33    5.17
   1  -3   5   13.92    5.18
  -1   3  -5    3.34    4.93
   1  -3   5    0.42    3.89
  -1   3  -5    3.61    4.03
  -1  -3  -5    6.99    4.66
   1  -3   5    5.93    4.66
  -1  -3  -5    4.61    4.03
  -2   4   5  141.23   10.00
  -2   4   5  158.73   11.10
  -2  -4   5  149.39   10.63
   2   4  -5  157.21   13.77
   2   4  -5  147.32   15.00
   2  -4  -5  166.16   13.92
  -2  -4   5  175.95   10.72
  -2  -4   5  151.33   10.67
   2  -4  -5  168.25   13.17
   2   4  -5  165.40   15.21
  -1   4   5  133.35    9.84
  -1   4   5  123.19    9.75
  -1  -4   5  133.39   10.04
   1   4  -5  127.38   12.23
   1   4  -5  143.16   11.65
   1  -4  -5  162.38   12.24
  -1  -4   5  128.29    9.50
  -1  -4   5  122.90    9.72
   1  -4  -5  147.10   11.62
   1   4  -5  146.83   12.01
   0  -4  -5    9.63    4.74
   0   4  -5    2.68    5.02
   0   4   5   11.55    5.01
   0   4   5    3.81    4.02
   0  -4   5   10.24    4.80
   0   4  -5   -5.31    5.38
   0  -4  -5    3.80    4.04
   0   4  -5    7.75    4.81
   0  -4   5    4.23    4.41
   0  -4   5    2.00    3.99
   1   4   5  422.61   17.66
  -1   4  -5  450.80   19.36
   1   4   5  418.54   18.61
   1  -4   5  417.25   17.34
  -1   4  -5  475.80   19.27
   1  -4   5  432.51   18.55
   1  -4   5  437.28   17.81
  -1  -4  -5  457.65   18.56
  -1   4  -5  453.33   18.73
  -2   5   5  173.63   11.18
   2   5  -5  142.02   13.70
  -2   5   5  173.93   11.53
   2   5  -5  185.71   16.56
   2   5  -5  152.86   14.03
   2  -5  -5  180.38   14.75
  -2  -5   5  189.42   11.27
   2  -5  -5  159.81   12.61
  -2  -5   5  170.08   11.62
  -1  -5   5    2.72    4.63
   1  -5  -5    4.44    5.14
   1   5  -5    1.00    5.99
  -1   5   5   -3.49    4.62
  -1   5   5   -3.60    3.85
  -1  -5   5   10.42    4.50
   1   5  -5   -0.54    6.65
   1  -5  -5   -1.46    5.60
  -1  -5   5   -4.85    4.32
   1   5  -5    7.79    5.69
   0  -5  -5   24.15    5.51
   0   5  -5   16.08    5.11
   0   5   5   25.04    5.79
   0   5   5   25.17    5.48
   0  -5   5   21.66    5.28
   0   5  -5   16.57    6.27
   0  -5  -5   21.51    5.71
   0   5  -5   35.14    6.85
   0  -5   5   19.44    5.92
   0  -5   5   20.63    5.76
   1   5   5   24.91    5.91
   1   5   5   36.93    7.26
   1  -5   5   31.42    6.13
  -1   5  -5   42.43    8.07
   1  -5   5   29.17    6.48
  -1   5  -5   35.16    6.82
  -1  -5  -5   33.08    6.64
   1  -5   5   31.48    6.27
  -1   5  -5   43.61    7.23
  -2  -6   5   21.86    5.46
   2   6  -5   29.59    8.39
   2  -6  -5   15.64    5.96
   2   6  -5   20.63    8.28
  -2   6   5   35.51    6.77
  -2   6   5   29.62    6.21
   2   6  -5    3.61    8.78
  -2  -6   5   22.80    5.66
   2  -6  -5   23.66    8.08
  -2  -6   5   23.44    5.51
  -1   6   5   78.20    8.45
   1  -6  -5   87.52    9.22
   1   6  -5   97.38   10.85
  -1   6   5   91.20    9.04
  -1  -6   5   84.75    8.51
   1   6  -5   94.79   11.78
   1   6  -5   89.96    9.91
  -1  -6   5   90.44    8.36
  -1  -6   5   82.22    8.29
   1  -6  -5  104.84   10.92
  -1  -6   5   84.05    8.79
   1   6  -5   84.95   10.26
   0  -6  -5   -3.72    4.81
   0   6  -5    1.54    5.53
   0   6   5    4.24    4.98
   0   6   5   -5.61    5.03
   0  -6   5   -2.52    4.47
   0   6  -5    0.83    5.83
   0   6  -5    3.27    4.21
   0  -6  -5   -1.80    4.75
   0   6  -5    6.16    5.45
   0  -6   5   -1.53    4.93
   0  -6   5   -6.96    4.88
   1   6   5   78.17    9.45
   1  -6   5   92.74    9.08
   1   6   5   99.65   10.51
  -1   6  -5   92.88    9.79
  -1   6  -5   92.64   10.43
   1  -6   5   86.10    9.28
  -1  -6  -5   96.08    9.55
   1  -6   5   85.34    8.84
  -1   6  -5   91.92    9.57
  -2  -7   5    8.88    5.06
   2   7  -5   -9.07    7.20
  -2  -7   5    6.71    4.01
  -2   7   5    7.99    4.50
  -2   7   5    5.99    3.33
   2   7  -5    6.89    8.97
   2  -7  -5    6.02    6.09
   2  -7  -5   19.15    7.37
  -2  -7   5   15.97    5.73
  -1   7   5   -3.75    4.89
   1   7  -5   -8.73    7.00
   1   7  -5    0.99    5.43
   1  -7  -5   -4.57    5.85
  -1  -7   5   -1.50    4.26
   1   7  -5    4.76    6.47
  -1  -7   5   -0.50    4.45
  -1  -7   5    3.28    4.33
   0   7   5    2.09    4.92
   0   7  -5    1.72    6.34
   0   7  -5   -2.70    4.98
   0  -7  -5   -1.85    5.10
   0  -7   5    9.96    5.25
   0   7  -5   -4.88    5.01
   0  -7   5    3.05    4.69
   0  -7   5    0.05    4.64
   1   7   5   21.33    6.95
  -1   7  -5   11.98    5.81
  -1   7  -5   18.65    5.67
   1  -7   5   20.92    6.20
  -1   7  -5   21.26    6.07
   1  -7   5   29.33    7.43
   1  -7   5    7.52    5.62
  -2   8   5   69.11    8.64
  -2   8   5   85.62    8.41
  -2   8   5   75.57    8.89
   2   8  -5   72.88   13.36
   2  -8  -5   42.44    8.84
   2  -8  -5   72.42   10.57
  -1   8   5  114.45   10.58
  -1   8   5  113.92    9.37
   1   8  -5  100.71   13.00
   1   8  -5  126.50   13.51
   1   8  -5   99.51   11.72
   1  -8  -5  112.41   11.44
  -1  -8   5  101.86    9.48
   1  -8  -5  134.44   12.13
  -1  -8   5  124.57   10.43
  -1  -8   5  118.20   10.72
   0  -8   5   17.89    5.83
   0   8   5   14.10    5.52
   0   8   5   16.00    4.74
   0   8  -5   23.24    7.36
   0   8  -5   23.42    7.35
   0  -8  -5   19.01    5.79
   0  -8  -5   18.15    5.92
   0  -8   5   31.29    7.19
   0   8  -5   20.49    7.02
   0  -8   5   28.40    6.82
   1   8   5  356.12   20.62
  -1   8  -5  358.91   20.03
  -1   8  -5  350.45   18.50
  -1   8  -5  374.23   19.03
   1  -8   5  302.89   17.49
   1  -8   5  379.83   18.25
   1  -8   5  383.46   19.39
  -2   9   5   78.72    9.28
  -2   9   5   93.53    8.96
  -2   9   5  103.09   10.12
   2  -9  -5   87.46   11.18
   2  -9  -5   97.85   12.07
   1   9  -5   -0.61    6.20
  -1   9   5   10.20    6.09
  -1   9   5   -0.94    4.01
   1   9  -5    1.93    7.33
  -1   9   5    7.30    5.49
   1  -9  -5    3.51    6.50
   1   9  -5   -1.25    6.47
  -1  -9   5    3.74    5.57
   1  -9  -5    3.01    6.84
   1  -9  -5    2.13    5.85
  -1  -9   5    1.45    5.30
  -1  -9   5    3.12    5.12
   0   9   5    6.74    5.43
   0  -9   5   17.11    6.20
   0   9   5    9.92    5.51
   0   9  -5   14.56    6.20
   0   9  -5    2.74    5.76
   0  -9  -5   -3.43    6.70
   0  -9  -5   13.06    7.05
   0  -9  -5   17.30    6.84
   0  -9   5   13.89    5.96
   0   9  -5   14.93    7.09
   0  -9   5   12.40    5.44
  -1   9  -5    3.71    6.38
  -1   9  -5   12.53    6.40
   1  -9   5   19.71    7.20
  -1   9  -5    8.89    6.29
   1  -9   5    3.25    6.08
   1  -9   5   15.13    6.57
  -2  10   5   29.23    7.44
  -2  10   5   35.80    6.41
  -2  10   5   46.09    8.66
   2 -10  -5   32.77    8.90
   2 -10  -5   47.07   10.11
   1  10  -5   -1.52    7.16
  -1  10   5    9.08    5.56
  -1  10   5    5.62    4.96
   1  10  -5   -1.64    8.72
  -1  10   5  -14.86    6.58
   1 -10  -5    7.96    7.66
   1  10  -5   13.95    8.56
   1 -10  -5   -4.16    6.64
   1 -10  -5   -1.15    6.01
  -1 -10   5   -1.51    5.27
  -1 -10   5    3.91    5.44
  -1 -10   5    5.95    5.49
   0  10   5   37.14    8.45
   0  10   5   42.94    7.84
   0  10  -5   49.40   10.14
   0  10   5   45.76    8.68
   0 -10  -5   43.94    8.87
   0  10  -5   36.94    8.23
   0 -10   5   31.13    7.63
   0 -10  -5   42.93    8.93
   0 -10   5   48.01    8.27
   0  10  -5   35.76    8.60
   0 -10   5   52.22    8.77
  -1  10  -5   25.48    6.91
   1 -10   5   34.48    8.89
  -1  10  -5   26.56    7.65
   1 -10   5   33.41    8.10
  -2  11   5    7.25    6.49
  -2  11   5   19.39    6.29
  -2  11   5   18.15    7.55
  -1 -11   5   15.48    6.23
   1  11  -5    9.87    7.44
  -1  11   5    0.45    6.13
  -1  11   5   17.86    5.95
  -1  11   5   16.94    6.36
   1 -11  -5   24.01    8.85
   1  11  -5   14.59    8.78
   0  11   5    2.00    7.03
   0  11   5   -3.18    5.42
   0  11   5    8.36    6.39
   0  11  -5    1.03    6.82
   0 -11   5    3.49    6.18
   0  11  -5    1.14    6.86
  -1  11  -5    3.92    7.20
  -2   0   6  320.63   16.63
  -2   0   6  369.86   15.84
   2   0  -6  329.06   22.39
  -1   0   6  147.93   11.78
   1   0  -6  126.80   11.74
  -1   0   6  162.19   10.88
   1   0  -6  152.32   14.50
   0   0  -6   -8.66    6.37
   0   0   6    3.66    5.18
   0   0  -6   -4.73    5.83
   0   0   6   -5.23    4.05
   1   0   6   41.51    6.94
  -1   0  -6   44.01    7.17
  -2  -1   6    3.68    4.05
   2  -1  -6    0.98    8.35
   2   1  -6  -13.47    9.93
  -2   1   6    4.45    4.07
  -2   1   6    6.10    4.84
  -2  -1   6    6.99    5.07
   2   1  -6   -2.96    8.28
   2  -1  -6    1.61    7.60
   1  -1  -6   -3.48    8.00
   1   1  -6   -8.19    7.58
  -1   1   6    4.48    4.22
  -1  -1   6    5.69    5.31
  -1   1   6    0.11    4.74
  -1  -1   6    0.31    4.60
   1   1  -6    4.87    7.40
   1  -1  -6    1.74    6.05
  -1  -1   6   -0.09    4.33
   1   1  -6    6.36    5.68
   0   1   6  145.11   10.82
   0   1  -6  163.90   14.06
   0   1   6  156.38   12.11
   0  -1   6  156.16   12.16
   0   1  -6  156.09   12.23
   0  -1   6  158.96   11.33
   0  -1  -6  151.96   12.09
   0  -1   6  141.57   11.69
   0  -1  -6  167.24   13.70
   0   1  -6  163.37   13.42
   1   1   6   -3.24    4.22
   1   1   6    8.12    5.14
   1  -1   6   -0.83    4.52
   1  -1   6    1.37    4.59
  -1   1  -6    5.60    5.20
  -1  -1  -6   -5.89    6.31
  -1   1  -6    7.32    5.72
  -2  -2   6   17.60    5.13
  -2  -2   6   25.49    6.45
   2  -2  -6   42.24   10.65
   2   2  -6    1.67    9.22
  -2   2   6   28.46    6.27
  -2   2   6   26.49    5.90
  -2  -2   6   30.75    6.40
   2   2  -6    5.69    9.59
   2  -2  -6   26.56    9.46
   1  -2  -6   12.38    6.85
   1   2  -6   22.17    9.03
  -1  -2   6    9.37    5.40
  -1   2   6    8.47    4.25
  -1   2   6    2.07    5.13
  -1  -2   6   16.00    6.82
   1   2  -6   28.99   10.13
   1  -2  -6    9.86    7.27
  -1  -2   6   14.32    5.75
   1   2  -6   25.47    8.01
   0  -2  -6   37.30    7.93
   0   2  -6   22.33    7.15
   0   2   6   29.53    5.90
   0   2   6   34.78    7.15
   0  -2   6   12.95    5.58
   0   2  -6   35.03    9.07
   0  -2  -6   30.16    7.19
   0   2  -6   29.49    6.85
   0  -2   6   24.91    5.96
   0  -2   6   34.30    7.49
   1   2   6   61.85    7.57
   1   2   6   39.65    6.85
   1  -2   6   58.42    8.42
   1  -2   6   50.04    7.38
  -1   2  -6   58.07    8.97
  -1   2  -6   60.19    8.70
  -2  -3   6   12.82    5.46
   2  -3  -6    0.78    8.74
   2   3  -6    9.73    7.02
   2   3  -6   19.20    8.66
  -2   3   6   14.32    5.13
  -2   3   6   12.75    5.86
  -2  -3   6   10.52    5.17
  -2  -3   6    7.02    5.06
   2   3  -6    2.19    9.10
   2  -3  -6    5.50    9.34
   1  -3  -6    5.37    6.69
  -1  -3   6    1.35    5.28
   1   3  -6   12.74    7.63
  -1   3   6    9.01    4.37
  -1   3   6   19.71    6.02
  -1  -3   6    4.20    5.25
   1   3  -6    5.72    8.26
   1  -3  -6   11.25    6.38
   1   3  -6   -1.24    5.98
  -1  -3   6    1.14    5.26
   0  -3  -6    6.31    6.08
   0   3  -6    8.31    6.63
   0   3   6   15.44    5.65
   0   3   6   -3.10    6.33
   0  -3   6    4.70    5.15
   0   3  -6   10.27    8.01
   0  -3  -6    4.18    5.71
   0   3  -6   22.24    7.41
   0  -3   6   12.07    6.42
   0  -3   6    7.86    5.34
   1   3   6   -3.04    4.86
   1   3   6   -6.23    5.64
   1  -3   6    4.74    4.90
   1  -3   6   -0.10    4.54
  -1   3  -6   -4.38    5.88
  -1   3  -6   13.92    6.91
  -2  -4   6  100.49   10.16
  -2   4   6  113.28   10.42
   2  -4  -6  122.70   13.73
   2   4  -6   96.14   12.91
   2   4  -6  114.07   14.82
  -2   4   6  115.80   10.84
  -2  -4   6  121.68   10.59
   2   4  -6   98.31   14.75
  -2  -4   6  118.19   10.23
   2  -4  -6  105.70   13.70
   1  -4  -6   51.48    9.27
   1   4  -6   45.26    9.57
  -1   4   6   55.87    8.15
  -1  -4   6   34.39    6.47
  -1   4   6   44.76    7.53
  -1  -4   6   50.96    8.09
   1   4  -6   64.09   12.75
   1  -4  -6   48.68    9.59
  -1  -4   6   61.65    8.16
   1   4  -6   44.68    9.00
   0  -4  -6   15.64    7.15
   0   4  -6    6.00    6.55
   0  -4   6   10.58    6.11
   0   4   6    4.69    4.58
   0   4   6    9.78    5.92
   0  -4   6    5.07    4.75
   0   4  -6   -2.66    6.84
   0  -4  -6    1.04    5.81
   0   4  -6    3.91    5.87
   0  -4   6    4.99    4.93
   1   4   6    0.42    4.96
   1   4   6    6.24    5.75
   1  -4   6    6.33    5.63
   1  -4   6    6.61    5.34
  -1   4  -6   -3.48    5.59
   1  -4   6   11.47    5.27
  -2  -5   6    1.73    5.34
   2  -5  -6    9.96    7.83
   2   5  -6   -2.64    8.80
   2   5  -6    5.63    7.40
  -2   5   6    1.31    4.47
  -2   5   6    5.82    5.47
   2   5  -6   -7.48   10.06
   2  -5  -6    7.45    7.97
  -2  -5   6   15.67    5.65
   1  -5  -6   23.64    7.65
   1   5  -6   33.42    9.09
  -1   5   6   12.71    5.25
  -1   5   6   24.85    6.76
  -1  -5   6   24.55    6.83
  -1  -5   6    6.04    5.25
   1   5  -6   34.28   11.37
   1  -5  -6   17.24    7.47
  -1  -5   6   17.24    6.06
   1   5  -6   16.75    7.52
   0   5  -6  117.01   12.66
   0   5   6  129.78   11.65
   0  -5   6  115.36   10.93
   0  -5   6  111.06   10.61
   0   5   6  108.03   11.24
   0   5  -6  121.49   13.87
   0  -5   6  132.25   11.70
   0  -5  -6  120.59   12.13
   0   5  -6  107.63   12.15
   0  -5  -6  114.93   11.84
   1   5   6    8.99    5.86
   1  -5   6    8.32    5.90
   1  -5   6   -3.68    5.61
  -1   5  -6    6.66    6.02
   1  -5   6   -0.81    5.70
   2  -6  -6   79.90   11.84
  -2   6   6   88.07    9.46
  -2   6   6   83.04    9.75
   2   6  -6   72.85   14.51
  -2  -6   6   99.98   10.45
   2  -6  -6   94.88   13.98
  -2  -6   6   76.18    9.61
   1  -6  -6   70.09   10.27
   1   6  -6   69.97   11.04
  -1   6   6   66.66    8.89
  -1   6   6   74.90    9.71
  -1  -6   6   65.85    8.99
  -1  -6   6   67.71    8.99
   1   6  -6   80.07   12.85
   1  -6  -6   87.36   12.05
  -1  -6   6   69.00    8.90
   1   6  -6   63.33   11.23
   0   6  -6   87.20   11.98
   0   6   6   87.36   10.41
   0  -6   6   79.60   10.17
   0   6   6  103.63   11.72
   0  -6   6   80.26    9.26
   0   6  -6   82.11   12.36
   0  -6  -6   84.98   10.68
   0   6  -6   76.03   10.70
   0  -6   6   95.96   10.65
   0  -6  -6  100.30   11.35
   1  -6   6  161.79   13.59
  -1   6  -6  180.34   15.23
   1  -6   6  154.38   12.98
  -2   7   6   15.71    5.00
  -1   7   6    5.76    5.23
  -1  -7   6   -1.06    5.00
   1   7  -6   11.38    8.51
   0  -7   6   32.61    8.36
   0   7  -6   31.23    9.13
   1   2  -7   -1.92    7.17
  -1   3   7   14.66    5.69
  -1  -3   7   10.68    6.12
   0   0   0    0.00    0.00


TITL 1a in P2(1)/c
REM P2(1)/c (#14 in standard setting)
CELL 0.71073   7.808153  12.952220   5.572191  90.0000 100.5393  90.0000
ZERR    4.00   0.006022   0.000759   0.000373   0.0000   0.0232   0.0000
LATT  1
SYMM -x, y+1/2,-z+1/2
SFAC C H N Cl
UNIT 16.00 8.00 20.00 4.00
TREF
HKLF 4
END
_computing_structure_solution     'SHELXT 2014/5 (Sheldrick, 2014)'
;
_shelx_hkl_checksum              35241
_olex2_submission_special_instructions 'No special instructions were received'
_oxdiff_exptl_absorpt_empirical_details
;
Empirical correction (ABSPACK) includes:
- Absorption correction using spherical harmonics
- Frame scaling
;
_oxdiff_exptl_absorpt_empirical_full_max 1.762
_oxdiff_exptl_absorpt_empirical_full_min 0.727
loop_
_space_group_symop_operation_xyz
'x, y, z'
'-x, y+1/2, -z+1/2'
'-x, -y, -z'
'x, -y-1/2, z-1/2'
loop_
_atom_site_label
_atom_site_type_symbol
_atom_site_fract_x
_atom_site_fract_y
_atom_site_fract_z
_atom_site_U_iso_or_equiv
_atom_site_adp_type
_atom_site_occupancy
_atom_site_site_symmetry_order
_atom_site_calc_flag
_atom_site_refinement_flags_posn
_atom_site_refinement_flags_adp
_atom_site_refinement_flags_occupancy
_atom_site_disorder_assembly
_atom_site_disorder_group
Cl1 Cl 1.0298(3) 0.34049(5) 0.85234(12) 0.0418(16) Uani 1 1 d . . . . .
N4 N 0.560(3) 0.3523(3) 0.5444(12) 0.035(13) Uani 1 1 d . . . . .
N5 N 0.6976(18) 0.3299(2) 0.7117(6) 0.027(7) Uani 1 1 d . . . . .
N1 N 0.3851(18) 0.4143(3) 0.2306(8) 0.029(8) Uani 1 1 d . . . . .
N3 N 0.397(3) 0.3347(4) 0.5820(12) 0.028(12) Uani 1 1 d . . . . .
N2 N 0.2924(13) 0.3726(2) 0.3897(6) 0.047(8) Uani 1 1 d . . . . .
C8 C 0.7050(19) 0.4260(3) 0.2559(9) 0.026(9) Uani 1 1 d . . . . .
H8 H 0.705002 0.458180 0.106683 0.031 Uiso 1 1 calc R U . . .
C6 C 0.8467(19) 0.3572(3) 0.6437(10) 0.026(9) Uani 1 1 d . . . . .
C9 C 0.554(3) 0.4007(3) 0.3268(10) 0.030(13) Uani 1 1 d . . . . .
C7 C 0.8610(17) 0.40255(17) 0.4123(5) 0.030(8) Uani 1 1 d . . . . .
H7 H 0.968583 0.415519 0.369373 0.036 Uiso 1 1 calc R U . . .
loop_
_atom_site_aniso_label
_atom_site_aniso_U_11
_atom_site_aniso_U_22
_atom_site_aniso_U_33
_atom_site_aniso_U_23
_atom_site_aniso_U_13
_atom_site_aniso_U_12
Cl1 0.035(5) 0.0514(4) 0.0355(4) 0.0053(3) -0.0039(9) 0.0026(7)
N4 0.06(4) 0.0240(14) 0.029(3) 0.0014(13) 0.019(7) -0.002(4)
N5 0.02(2) 0.0290(13) 0.0283(17) 0.0015(10) -0.001(5) 0.001(3)
N1 0.01(3) 0.0336(14) 0.039(2) -0.0004(14) -0.002(4) 0.002(4)
N3 0.01(4) 0.0357(19) 0.039(3) -0.0013(15) 0.003(7) 0.003(4)
N2 0.06(2) 0.0358(14) 0.0461(18) -0.0059(11) -0.003(5) 0.007(4)
C8 0.03(3) 0.0252(14) 0.0219(18) 0.0022(11) -0.003(5) 0.001(3)
C6 0.02(3) 0.0253(16) 0.028(2) -0.0027(13) -0.008(5) 0.003(4)
C9 0.04(4) 0.0216(15) 0.025(3) 0.0016(17) 0.011(9) -0.001(5)
C7 0.03(2) 0.0282(13) 0.0290(16) -0.0019(10) 0.004(4) 0.000(4)
loop_
_atom_type_symbol
_atom_type_description
_atom_type_scat_dispersion_real
_atom_type_scat_dispersion_imag
_atom_type_scat_source
C C 0.0033 0.0016 'International Tables Vol C Tables 4.2.6.8 and 6.1.1.4'
H H 0.0000 0.0000 'International Tables Vol C Tables 4.2.6.8 and 6.1.1.4'
Cl Cl 0.1484 0.1585 'International Tables Vol C Tables 4.2.6.8 and 6.1.1.4'
N N 0.0061 0.0033 'International Tables Vol C Tables 4.2.6.8 and 6.1.1.4'
loop_
_geom_angle_atom_site_label_1
_geom_angle_atom_site_label_2
_geom_angle_atom_site_label_3
_geom_angle
_geom_angle_site_symmetry_1
_geom_angle_site_symmetry_3
_geom_angle_publ_flag
N5 N4 N3 121.6(8) . . ?
N5 N4 C9 128(2) . . ?
N3 N4 C9 110(2) . . ?
N4 N5 C6 112.4(7) . . ?
C9 N1 N2 106.9(7) . . ?
N2 N3 N4 105.8(7) . . ?
N3 N2 N1 110.9(10) . . ?
C9 C8 H8 120.9 . . ?
C9 C8 C7 118.3(7) . . ?
C7 C8 H8 120.9 . . ?
N5 C6 Cl1 116.4(5) . . ?
N5 C6 C7 125.2(12) . . ?
C7 C6 Cl1 118.4(10) . . ?
N1 C9 N4 107(2) . . ?
N1 C9 C8 134.3(7) . . ?
C8 C9 N4 119(2) . . ?
C8 C7 C6 116.5(11) . . ?
C8 C7 H7 121.7 . . ?
C6 C7 H7 121.7 . . ?
loop_
_geom_bond_atom_site_label_1
_geom_bond_atom_site_label_2
_geom_bond_distance
_geom_bond_site_symmetry_2
_geom_bond_publ_flag
Cl1 C6 1.684(12) . ?
N4 N5 1.32(3) . ?
N4 N3 1.35(3) . ?
N4 C9 1.358(8) . ?
N5 C6 1.34(2) . ?
N1 N2 1.355(13) . ?
N1 C9 1.34(3) . ?
N3 N2 1.317(15) . ?
C8 H8 0.9300 . ?
C8 C9 1.35(3) . ?
C8 C7 1.396(16) . ?
C6 C7 1.439(7) . ?
C7 H7 0.9300 . ?
loop_
_geom_torsion_atom_site_label_1
_geom_torsion_atom_site_label_2
_geom_torsion_atom_site_label_3
_geom_torsion_atom_site_label_4
_geom_torsion
_geom_torsion_site_symmetry_1
_geom_torsion_site_symmetry_2
_geom_torsion_site_symmetry_3
_geom_torsion_site_symmetry_4
_geom_torsion_publ_flag
Cl1 C6 C7 C8 -172.8(2) . . . . ?
N4 N5 C6 Cl1 175.5(3) . . . . ?
N4 N5 C6 C7 -2.2(5) . . . . ?
N4 N3 N2 N1 -0.2(6) . . . . ?
N5 N4 N3 N2 175.3(2) . . . . ?
N5 N4 C9 N1 -174.5(4) . . . . ?
N5 N4 C9 C8 4.2(7) . . . . ?
N5 C6 C7 C8 4.8(5) . . . . ?
N3 N4 N5 C6 -177.3(7) . . . . ?
N3 N4 C9 N1 0.8(6) . . . . ?
N3 N4 C9 C8 179.5(4) . . . . ?
N2 N1 C9 N4 -0.9(4) . . . . ?
N2 N1 C9 C8 -179.3(4) . . . . ?
C9 N4 N5 C6 -2.5(5) . . . . ?
C9 N4 N3 N2 -0.3(7) . . . . ?
C9 N1 N2 N3 0.7(4) . . . . ?
C9 C8 C7 C6 -2.8(4) . . . . ?
C7 C8 C9 N4 -1.1(5) . . . . ?
C7 C8 C9 N1 177.3(3) . . . . ?
