#------------------------------------------------------------------------------
#$Date: 2021-11-11 01:16:10 +0200 (Thu, 11 Nov 2021) $
#$Revision: 270584 $
#$URL: file:///home/coder/svn-repositories/cod/cif/1/56/51/1565184.cif $
#------------------------------------------------------------------------------
#
# This file is available in the Crystallography Open Database (COD),
# http://www.crystallography.net/
#
# All data on this site have been placed in the public domain by the
# contributors.
#
data_1565184
loop_
_publ_author_name
'Feng, Zhongtao'
'Chong, Yuanyuan'
'Tang, Shuxuan'
'Fang, Yong'
'Zhao, Yue'
'Jiang, Jun'
'Wang, Xinping'
_publ_section_title
;
 A stable triplet diradical emitter
;
_journal_name_full               'Chemical Science'
_journal_paper_doi               10.1039/D1SC04486A
_journal_year                    2021
_chemical_formula_moiety         'C40 H4 B2 Br2 F20 O4'
_chemical_formula_sum            'C40 H4 B2 Br2 F20 O4'
_chemical_formula_weight         1109.87
_space_group_crystal_system      triclinic
_space_group_IT_number           2
_space_group_name_Hall           '-P 1'
_space_group_name_H-M_alt        'P -1'
_atom_sites_solution_hydrogens   geom
_audit_creation_date             2020-09-03
_audit_creation_method
;
Olex2 1.3
(compiled 2020.07.31 svn.rc2a77460 for OlexSys, GUI svn.r6145)
;
_audit_update_record
;
2021-04-24 deposited with the CCDC.	2021-11-05 downloaded from the CCDC.
;
_cell_angle_alpha                65.579(2)
_cell_angle_beta                 79.789(2)
_cell_angle_gamma                78.572(2)
_cell_formula_units_Z            1
_cell_length_a                   9.4968(4)
_cell_length_b                   12.6034(7)
_cell_length_c                   12.6524(6)
_cell_measurement_reflns_used    4045
_cell_measurement_temperature    196
_cell_measurement_theta_max      26.48
_cell_measurement_theta_min      2.60
_cell_volume                     1343.83(12)
_computing_cell_refinement       'SAINT v8.37A (Bruker, 2015)'
_computing_data_reduction        'SAINT v8.37A (Bruker, 2015)'
_computing_molecular_graphics    'Olex2 1.3 (Dolomanov et al., 2009)'
_computing_publication_material  'Olex2 1.3 (Dolomanov et al., 2009)'
_computing_structure_refinement  'SHELXL 2018/3 (Sheldrick, 2015)'
_computing_structure_solution    'SHELXT 2014/5 (Sheldrick, 2014)'
_diffrn_ambient_temperature      196
_diffrn_measured_fraction_theta_full 0.989
_diffrn_measured_fraction_theta_max 0.990
_diffrn_measurement_device_type  'Bruker APEX-II CCD'
_diffrn_measurement_method       '\f and \w scans'
_diffrn_radiation_type           MoK\a
_diffrn_radiation_wavelength     0.71073
_diffrn_reflns_av_R_equivalents  0.0321
_diffrn_reflns_av_unetI/netI     0.0488
_diffrn_reflns_Laue_measured_fraction_full 0.989
_diffrn_reflns_Laue_measured_fraction_max 0.990
_diffrn_reflns_limit_h_max       12
_diffrn_reflns_limit_h_min       -10
_diffrn_reflns_limit_k_max       16
_diffrn_reflns_limit_k_min       -16
_diffrn_reflns_limit_l_max       16
_diffrn_reflns_limit_l_min       -16
_diffrn_reflns_number            12607
_diffrn_reflns_point_group_measured_fraction_full 0.989
_diffrn_reflns_point_group_measured_fraction_max 0.990
_diffrn_reflns_theta_full        25.242
_diffrn_reflns_theta_max         27.482
_diffrn_reflns_theta_min         2.604
_diffrn_source_current           40.0
_diffrn_source_power             2.0
_diffrn_source_voltage           50.0
_diffrn_standards_number         0
_exptl_absorpt_coefficient_mu    1.610
_exptl_absorpt_correction_T_max  0.7456
_exptl_absorpt_correction_T_min  0.6744
_exptl_absorpt_correction_type   none
_exptl_absorpt_process_details
;
SADABS-2016/2 (Bruker,2016/2) was used for absorption correction.
wR2(int) was 0.0764 before and 0.0402 after correction.
The Ratio of minimum to maximum transmission is 0.9045.
The \l/2 correction factor is Not present.
;
_exptl_crystal_colour            red
_exptl_crystal_colour_primary    red
_exptl_crystal_density_diffrn    1.371
_exptl_crystal_description       needle
_exptl_crystal_F_000             536
_exptl_crystal_size_max          0.2
_exptl_crystal_size_mid          0.2
_exptl_crystal_size_min          0.1
_refine_diff_density_max         0.363
_refine_diff_density_min         -0.646
_refine_diff_density_rms         0.049
_refine_ls_extinction_method     none
_refine_ls_goodness_of_fit_ref   1.040
_refine_ls_hydrogen_treatment    constr
_refine_ls_matrix_type           full
_refine_ls_number_parameters     307
_refine_ls_number_reflns         6119
_refine_ls_number_restraints     0
_refine_ls_restrained_S_all      1.040
_refine_ls_R_factor_all          0.0595
_refine_ls_R_factor_gt           0.0395
_refine_ls_shift/su_max          0.000
_refine_ls_shift/su_mean         0.000
_refine_ls_structure_factor_coef Fsqd
_refine_ls_weighting_details
'w=1/[\s^2^(Fo^2^)+(0.0428P)^2^+0.2516P] where P=(Fo^2^+2Fc^2^)/3'
_refine_ls_weighting_scheme      calc
_refine_ls_wR_factor_gt          0.0957
_refine_ls_wR_factor_ref         0.1035
_reflns_Friedel_coverage         0.000
_reflns_number_gt                4366
_reflns_number_total             6119
_reflns_threshold_expression     'I > 2\s(I)'
_cod_data_source_file            d1sc04486a2.cif
_cod_data_source_block           200903fzt01_0m_a_sq
_cod_database_code               1565184
_shelx_shelxl_version_number     2018/3
_shelx_space_group_comment
;
The symmetry employed for this shelxl refinement is uniquely defined
by the following loop, which should always be used as a source of
symmetry information in preference to the above space-group names.
They are only intended as comments.
;
_shelx_estimated_absorpt_t_max   0.856
_shelx_estimated_absorpt_t_min   0.739
_olex2_refinement_description
;
1. Fixed Uiso
 At 1.2 times of:
  All C(H) groups
2.a Aromatic/amide H refined with riding coordinates:
 C4(H4), C6(H6)
;
_shelx_res_file
;
TITL 200903fzt01_0m_a.res in P-1
    200903fzt01_0m_a_sq.res
    created by SHELXL-2018/3 at 17:23:05 on 03-Sep-2020
REM Old TITL 200903fzt01_0m in P-1
REM SHELXT solution in P-1
REM R1 0.231, Rweak 0.029, Alpha 0.070, Orientation as input
REM Formula found by SHELXT: C27 B Br F12
CELL 0.71073 9.4968 12.6034 12.6524 65.579 79.789 78.572
ZERR 1 0.0004 0.0007 0.0006 0.002 0.002 0.002
LATT 1
SFAC C H B Br F O
UNIT 40 4 2 2 20 4

L.S. 5 0 81
PLAN  7
SIZE 0.2 0.2 0.1
TEMP -77.15
CONF
BOND $H
MORE -1
ABIN
fmap 2
acta
REM <olex2.extras>
REM <HklSrc "%.\\200903fzt01_0m_a_sq.hkl">
REM </olex2.extras>

WGHT    0.042800    0.251600
FVAR       0.76488
B1    3    0.217927    0.334316    0.304042    11.00000    0.03552    0.03503 =
         0.02936   -0.00923   -0.00064   -0.01040
BR1   4   -0.151626    0.114847    0.877198    11.00000    0.08081    0.06936 =
         0.04130   -0.03338    0.01847   -0.03285
C1    1    0.131913    0.161392    0.347795    11.00000    0.02870    0.03367 =
         0.02730   -0.00650   -0.00105   -0.00634
C2    1    0.094911    0.190545    0.445467    11.00000    0.02764    0.03209 =
         0.03247   -0.00935   -0.00345   -0.00643
C3    1    0.017257    0.119075    0.549735    11.00000    0.02641    0.03341 =
         0.02850   -0.00975   -0.00203   -0.00308
C4    1   -0.021818    0.148709    0.647137    11.00000    0.03766    0.03860 =
         0.03358   -0.01381    0.00029   -0.00808
AFIX  43
H4    2    0.002559    0.219011    0.645398    11.00000   -1.20000
AFIX   0
C5    1   -0.096270    0.074779    0.746040    11.00000    0.04107    0.04781 =
         0.02817   -0.01811    0.00298   -0.01002
C6    1   -0.132885   -0.027925    0.750651    11.00000    0.03852    0.04059 =
         0.02752   -0.00868    0.00202   -0.00961
AFIX  43
H6    2   -0.183851   -0.077797    0.819198    11.00000   -1.20000
AFIX   0
C7    1   -0.094351   -0.057721    0.653774    11.00000    0.02875    0.03250 =
         0.02851   -0.00936   -0.00349   -0.00302
C8    1   -0.018984    0.015046    0.550219    11.00000    0.02559    0.03257 =
         0.02701   -0.00944   -0.00221   -0.00258
C9    1    0.386266    0.332850    0.310640    11.00000    0.03410    0.03857 =
         0.03303   -0.01033   -0.00319   -0.00670
C10   1    0.462532    0.428303    0.253405    11.00000    0.03970    0.04310 =
         0.03457   -0.00864   -0.00486   -0.00911
C11   1    0.606087    0.423335    0.264347    11.00000    0.03777    0.05934 =
         0.04161   -0.01720    0.00232   -0.02032
C12   1    0.678825    0.320963    0.334757    11.00000    0.02970    0.07601 =
         0.05197   -0.02256   -0.00560   -0.00934
C13   1    0.610206    0.224454    0.393475    11.00000    0.03717    0.05745 =
         0.05605   -0.00661   -0.01314   -0.00017
C14   1    0.467165    0.231951    0.379445    11.00000    0.03790    0.04585 =
         0.04748   -0.00770   -0.00285   -0.01104
C15   1    0.128603    0.456919    0.224127    11.00000    0.03384    0.03637 =
         0.03514   -0.01096   -0.00324   -0.01284
C16   1    0.146166    0.494851    0.104050    11.00000    0.05432    0.04019 =
         0.03846   -0.01046   -0.00546   -0.01056
C17   1    0.072800    0.597236    0.030855    11.00000    0.07981    0.04372 =
         0.03914   -0.00527   -0.02125   -0.01803
C18   1   -0.024969    0.666264    0.078174    11.00000    0.06959    0.03508 =
         0.05823   -0.00422   -0.03043   -0.00520
C19   1   -0.044900    0.633364    0.196084    11.00000    0.04538    0.03678 =
         0.06406   -0.01835   -0.00912   -0.00529
C20   1    0.031800    0.530117    0.266936    11.00000    0.04100    0.04194 =
         0.03968   -0.01265   -0.00366   -0.01167
F1    5    0.397464    0.532081    0.184185    11.00000    0.04911    0.04410 =
         0.06358   -0.00087   -0.01122   -0.01915
F2    5    0.672965    0.518908    0.207121    11.00000    0.04869    0.07490 =
         0.06550   -0.01749   -0.00001   -0.03353
F3    5    0.819011    0.315695    0.346632    11.00000    0.03238    0.10813 =
         0.08167   -0.02484   -0.01307   -0.01569
F4    5    0.682127    0.123029    0.462197    11.00000    0.05165    0.07325 =
         0.10214    0.00294   -0.03179    0.00500
F5    5    0.405406    0.132881    0.438571    11.00000    0.04651    0.04223 =
         0.07768    0.00377   -0.01351   -0.00796
F6    5    0.242805    0.430939    0.053043    11.00000    0.09121    0.05465 =
         0.03666   -0.01405    0.00261   -0.00253
F7    5    0.094933    0.629525   -0.085118    11.00000    0.13535    0.06061 =
         0.03691   -0.00470   -0.02681   -0.01273
F8    5   -0.096955    0.766546    0.008365    11.00000    0.11262    0.04655 =
         0.08390   -0.00410   -0.05284    0.00852
F9    5   -0.138323    0.701106    0.243160    11.00000    0.06785    0.05152 =
         0.08795   -0.02656   -0.00811    0.01197
F10   5    0.008031    0.506167    0.381908    11.00000    0.07154    0.05454 =
         0.04157   -0.01701    0.00214    0.00393
O1    6    0.202265    0.238570    0.262488    11.00000    0.03821    0.03396 =
         0.02867   -0.00779    0.00174   -0.01184
O2    6    0.140508    0.287806    0.428370    11.00000    0.03616    0.03481 =
         0.02964   -0.01027   -0.00107   -0.01116
HKLF 4




REM  200903fzt01_0m_a.res in P-1
REM wR2 = 0.1035, GooF = S = 1.040, Restrained GooF = 1.040 for all data
REM R1 = 0.0395 for 4366 Fo > 4sig(Fo) and 0.0595 for all 6119 data
REM 307 parameters refined using 0 restraints

END

WGHT      0.0426      0.2529

REM Highest difference peak  0.363,  deepest hole -0.646,  1-sigma level  0.049
Q1    1  -0.1944  0.1741  0.8170  11.00000  0.05    0.36
Q2    1  -0.0589  0.0821  0.8603  11.00000  0.05    0.34
Q3    1  -0.1206  0.0980  0.7957  11.00000  0.05    0.31
Q4    1  -0.0160  0.1384  0.5914  11.00000  0.05    0.27
Q5    1   0.1165  0.1604  0.4049  11.00000  0.05    0.27
Q6    1   0.0459  0.1650  0.5008  11.00000  0.05    0.26
Q7    1  -0.0576  0.6248  0.1431  11.00000  0.05    0.26
;
_shelx_res_checksum              22700
_shelx_hkl_file
;
  -2   0   0 1737.13   52.89
  -2   0   0 1682.73   51.89
   2   0   0 1745.33   52.89
   2   0   0 1689.53   51.89
  -3   0   0  759.82   25.50
  -3   0   0  746.73   24.20
   3   0   0  749.42   24.30
   3   0   0  767.22   25.60
  -4   0   0 3480.75  106.29
  -4   0   0 3511.65  108.09
   4   0   0 3535.75  108.29
   4   0   0 3500.85  106.29
   5   0   0   84.99    5.50
   6   0   0  614.24   25.60
   6   0   0  694.53   23.60
   7   0   0  586.34   24.80
   7   0   0  572.64   21.80
   8   0   0   78.29    7.00
   8   0   0   79.69    9.90
   9   0   0    3.10    3.50
   9   0   0    9.60    5.50
  10   0   0   13.60    4.90
  10   0   0   15.70    6.60
  11   0   0   20.60    7.80
  11   0   0   36.00    6.90
  12   0   0    1.10    5.20
  12   0   0   23.20    8.40
  11  -1   0   22.00    6.30
  11  -1   0   33.70    8.90
  10  -1   0   30.50    6.40
  10  -1   0   20.90   10.30
   9  -1   0    3.40    4.00
   9  -1   0   10.50    5.60
   8  -1   0   26.20    5.20
   8  -1   0   31.00    6.80
   7  -1   0    2.00    3.60
   7  -1   0    3.90    3.20
   6  -1   0   35.30    5.70
   6  -1   0   41.10    5.20
   5  -1   0   38.30    5.20
   5  -1   0   34.30    4.40
   4  -1   0  482.15   18.90
   4  -1   0  527.85   18.00
  -4   1   0  497.85   17.90
  -4   1   0  502.85   18.90
   3  -1   0  262.67    9.70
   3  -1   0  249.38   10.30
  -3   1   0  236.48   10.10
  -3   1   0  236.88   10.10
   2  -1   0  619.94   20.70
   2  -1   0  641.54   20.40
  -2   1   0  619.94   20.30
   1  -1   0   40.20    2.20
  -1   1   0   42.10    2.30
  -1  -1   0  504.85   16.70
  -1  -1   0  574.64   17.60
   1   1   0  521.05   17.40
   1   1   0  569.64   16.60
  -2  -1   0  769.32   25.00
  -2  -1   0  750.02   23.50
   2   1   0  757.72   23.50
   2   1   0  765.42   25.00
  -3  -1   0 3172.38   97.99
  -3  -1   0 3494.95  101.59
   3   1   0 3145.29   99.89
   3   1   0 3242.98   97.99
  -4  -1   0   13.10    3.00
   4   1   0   10.80    2.80
   4   1   0   12.40    2.10
  -5  -1   0 1586.34   49.80
   5   1   0 1565.34   52.69
   5   1   0 1599.24   49.80
   6   1   0  138.99    7.30
   6   1   0  134.49    9.60
   7   1   0  451.05   21.20
   7   1   0  475.55   18.00
   8   1   0  131.99    8.40
   8   1   0  144.99   11.70
   9   1   0   23.30    4.90
   9   1   0   14.30    6.40
  10   1   0    3.30    5.90
  10   1   0   11.20    4.60
  11   1   0    2.30    4.60
  11   1   0   -3.30    5.60
  12   1   0    5.90    7.20
  12   1   0   13.40    5.90
  11  -2   0    6.50    6.40
  11  -2   0   -1.00    5.10
  10  -2   0    3.70    4.50
   9  -2   0   78.69    8.80
   9  -2   0   58.19    9.30
   8  -2   0    4.40    4.00
   8  -2   0   17.90    5.70
   7  -2   0    2.70    3.30
   7  -2   0    0.90    3.50
   6  -2   0  123.79    7.80
   6  -2   0  100.59    8.20
   5  -2   0  329.47   13.70
   5  -2   0  318.37   14.50
   4  -2   0  256.07   11.90
   4  -2   0  266.57   11.70
   3  -2   0 3152.28   94.69
   3  -2   0 3035.70   94.09
  -3   2   0 3063.19   94.09
   2  -2   0  130.99    6.00
   2  -2   0  143.59    8.30
  -2   2   0  130.59    6.10
   1  -2   0 1528.05   48.60
   1  -2   0 1532.15   47.40
  -1   2   0 1572.84   47.50
  -1   2   0 1545.25   48.60
   0  -2   0  637.54   20.80
   0  -2   0  700.03   21.10
   0  -2   0  674.63   21.70
   0   2   0  685.63   20.90
   0   2   0  594.14   20.80
   0   2   0  682.43   21.70
  -1  -2   0 1749.03   55.39
  -1  -2   0 1855.81   54.29
  -1  -2   0 1906.21   54.59
   1   2   0 1803.02   55.49
   1   2   0 1717.03   55.19
  -2  -2   0 2408.76   76.19
  -2  -2   0 2488.95   74.39
   2   2   0 2485.95   76.29
   2   2   0 2532.55   74.29
  -3  -2   0  358.06   14.10
  -3  -2   0  349.27   11.90
   3   2   0  359.36   11.90
   3   2   0  345.27   14.10
  -4  -2   0   12.30    2.00
   4   2   0   11.40    1.90
   4   2   0    9.50    3.00
  -5  -2   0  479.75   16.90
   5   2   0  485.35   16.90
   5   2   0  489.75   20.20
   6   2   0  157.58   10.60
   6   2   0  144.39    7.30
   7   2   0  492.65   18.80
   7   2   0  538.05   23.40
   8   2   0  184.58   13.50
   8   2   0  204.08   10.10
   9   2   0  264.87   17.20
   9   2   0  252.77   12.50
  10   2   0    3.90    5.30
  10   2   0    0.80    3.50
  11   2   0   31.80    6.10
  11   2   0   41.30   10.10
  12   2   0    4.30    7.20
  12   2   0    3.70    4.60
  11  -3   0    2.50    5.20
  11  -3   0   -1.90    5.80
  10  -3   0    1.60    5.30
   9  -3   0    6.50    4.80
   9  -3   0    3.60    4.80
   8  -3   0   61.29    8.00
   8  -3   0   53.39    8.20
   7  -3   0  166.08   11.50
   7  -3   0  164.68   10.40
   6  -3   0    8.90    3.90
   6  -3   0   14.10    4.00
   5  -3   0  234.98   11.40
   4  -3   0   30.20    4.40
   4  -3   0   35.00    4.40
   3  -3   0  955.80   31.80
   2  -3   0 3634.44  112.29
   2  -3   0 3651.13  110.09
  -2   3   0 3593.24  110.19
   1  -3   0 1098.59   34.40
   1  -3   0 1127.49   34.90
   1  -3   0 1052.29   36.20
  -1   3   0 1068.29   36.30
  -1   3   0 1129.49   34.90
   0  -3   0 2237.18   68.99
   0  -3   0 2300.17   68.79
   0  -3   0 2246.88   69.99
   0   3   0 2186.58   69.89
   0   3   0 2270.37   68.89
   0   3   0 2315.37   68.89
  -1  -3   0 3011.20   90.59
  -1  -3   0 3079.09   91.69
  -1  -3   0 2922.81   91.49
   1   3   0 2828.52   91.39
   1   3   0 3077.89   91.59
   1   3   0 3109.09   90.69
  -2  -3   0 2905.91   87.59
  -2  -3   0 2943.11   89.99
   2   3   0 3067.99   90.09
   2   3   0 2769.12   87.49
  -3  -3   0  184.18    6.90
  -3  -3   0  178.28    9.00
   3   3   0  181.78    6.80
   3   3   0  177.18    9.20
  -4  -3   0   52.09    3.30
   4   3   0   54.09    3.40
   4   3   0   64.59    7.70
  -5  -3   0  958.40   30.10
   5   3   0  905.01   29.90
   5   3   0  932.11   34.10
   6   3   0  328.57   16.70
   6   3   0  330.77   12.70
   7   3   0   90.69    8.90
   7   3   0   89.09    5.80
   8   3   0   13.00    5.80
   8   3   0    7.90    3.00
   9   3   0    5.60    5.90
   9   3   0    6.10    3.40
  10   3   0    5.10    3.50
  10   3   0    2.00    5.70
  11   3   0   -2.90    6.20
  11   3   0    1.70    3.80
  12   3   0   14.50    8.60
  12   3   0   16.30    5.40
  11  -4   0   19.80    7.40
  11  -4   0    9.50    6.20
  10  -4   0   -0.30    5.40
   9  -4   0   45.90    7.70
   9  -4   0   37.00    7.60
   8  -4   0   91.29   10.30
   8  -4   0  102.29   14.90
   7  -4   0  101.79    8.70
   7  -4   0   95.69    8.90
   6  -4   0  101.69    8.50
   6  -4   0   78.99    7.10
   5  -4   0    9.30    3.50
   5  -4   0   15.80    3.90
   4  -4   0   94.49    6.70
   4  -4   0   88.89    6.50
   3  -4   0  518.75   19.30
   2  -4   0   17.70    2.90
   2  -4   0   17.80    3.30
   1  -4   0  618.74   23.50
   1  -4   0  650.33   21.40
   1  -4   0  630.04   21.70
  -1   4   0  639.74   23.50
  -1   4   0  627.24   21.70
   0  -4   0  373.66   14.10
   0  -4   0  373.86   13.80
   0  -4   0  388.56   15.40
   0   4   0  362.36   14.00
   0   4   0  388.06   14.10
   0   4   0  433.96   15.80
  -1  -4   0    6.10    1.70
  -1  -4   0    8.20    2.30
  -1  -4   0    7.00    2.00
   1   4   0    5.10    1.70
   1   4   0    0.60    1.40
   1   4   0    3.40    2.00
  -2  -4   0  467.65   15.80
  -2  -4   0  459.85   17.50
  -2  -4   0  467.65   15.40
   2   4   0  470.65   17.20
   2   4   0  434.36   17.30
  -3  -4   0   14.90    2.00
   3   4   0   11.20    3.30
   3   4   0    9.00    1.70
  -4  -4   0   84.39    4.50
   4   4   0   83.19    4.40
   4   4   0   96.19    7.20
  -5  -4   0    3.00    1.60
   5   4   0    3.80    1.70
   5   4   0    8.50    3.80
  -6  -4   0  372.96   14.60
   6   4   0  375.26   13.60
   6   4   0  348.67   18.00
   7   4   0    1.40    2.10
   7   4   0   -2.20    3.90
   8   4   0   61.09    5.30
   8   4   0   71.29   10.20
   9   4   0   30.70    7.40
   9   4   0   30.10    4.50
  10   4   0   17.20    7.40
  10   4   0   17.10    4.40
  11   4   0    5.60    4.20
  11   4   0    2.40    6.70
  12   4   0    0.70    8.40
  10  -5   0   -2.50    5.70
  10  -5   0   -4.50    5.60
   9  -5   0    8.10    5.50
   9  -5   0    4.60    4.60
   8  -5   0   69.29    9.30
   8  -5   0   71.39    8.90
   7  -5   0   31.90    6.40
   7  -5   0   36.10    6.80
   6  -5   0 1383.56   48.50
   6  -5   0 1414.56   48.30
   5  -5   0  255.47   12.60
   5  -5   0  235.78   12.80
   4  -5   0  315.57   14.40
   3  -5   0   20.00    3.10
   3  -5   0   16.90    3.60
   2  -5   0 2747.23   83.79
   2  -5   0 2684.53   84.39
   1  -5   0   61.29    4.50
   1  -5   0   74.29    5.20
  -1   5   0   70.89    6.50
   0  -5   0 2296.37   73.39
   0  -5   0 2272.07   73.79
   0  -5   0 2433.06   75.79
   0   5   0 2302.17   73.69
   0   5   0 2550.34   75.79
   0   5   0 2409.96   73.79
  -1  -5   0 3584.64  106.59
  -1  -5   0 3503.55  105.09
  -1  -5   0 3376.76  106.79
   1   5   0 3364.76  106.19
   1   5   0 3485.85  106.89
   1   5   0 3408.66  105.29
  -2  -5   0  623.74   21.70
  -2  -5   0  635.14   22.30
   2   5   0  671.33   23.90
   2   5   0  720.63   24.50
  -3  -5   0 1116.99   36.10
  -3  -5   0 1072.99   35.50
   3   5   0 1162.88   39.00
   3   5   0 1160.68   38.00
  -4  -5   0  867.31   28.10
   4   5   0  837.92   31.90
   4   5   0  897.61   28.10
  -5  -5   0  103.09    5.50
   5   5   0   94.79    5.20
   5   5   0  102.49    8.70
   6   5   0  131.09   10.60
   6   5   0  120.59    6.40
   7   5   0 1222.58   37.80
   7   5   0 1083.59   43.80
   8   5   0   50.59    8.90
   8   5   0   55.99    5.00
   9   5   0    2.50    2.70
   9   5   0   -2.90    5.00
  10   5   0   27.30    4.70
  10   5   0   24.70    8.40
  11   5   0  112.39   15.10
  11   5   0  105.39    8.30
  10  -6   0   -2.30    5.20
  10  -6   0   -4.50    5.20
   9  -6   0    7.50    5.30
   9  -6   0    1.90    5.10
   8  -6   0   -1.80    4.50
   8  -6   0   -4.90    4.40
   7  -6   0  149.59   11.30
   7  -6   0  156.58   11.80
   6  -6   0   88.29    9.40
   6  -6   0   86.09    8.40
   5  -6   0   33.10    5.50
   5  -6   0   50.19    6.80
   4  -6   0   11.40    3.80
   3  -6   0  448.46   18.40
   2  -6   0  452.05   17.90
   1  -6   0  493.65   19.40
  -1   6   0  550.24   22.30
   0  -6   0   23.00    3.50
   0   6   0   26.90    5.10
   0   6   0   23.70    3.60
  -1  -6   0   10.20    3.20
  -1  -6   0   12.70    2.80
   1   6   0    8.90    3.10
  -2  -6   0  243.68   10.30
  -2  -6   0  240.78    9.80
   2   6   0  225.58   11.60
   2   6   0  245.18   12.00
  -3  -6   0  926.81   30.70
  -3  -6   0  897.41   29.90
   3   6   0  939.31   33.50
   3   6   0  927.21   32.70
  -4  -6   0  139.69    6.70
  -4  -6   0  143.19    7.40
   4   6   0  148.39    9.00
   4   6   0  131.79    9.40
  -5  -6   0  409.86   15.00
   5   6   0  412.26   19.80
   6   6   0  103.79    9.40
   6   6   0   96.69    5.70
   7   6   0   18.00    3.30
   7   6   0   14.60    5.50
   8   6   0   34.60    8.60
   8   6   0   43.00    4.70
   9   6   0   13.30    7.40
   9   6   0   21.80    4.10
  10   6   0   25.70    4.80
  10   6   0   32.50    9.60
  11   6   0   -9.30    5.50
  11   6   0    6.80    4.00
   9  -7   0   10.60    6.30
   9  -7   0   -0.50    5.40
   8  -7   0    7.40    5.70
   8  -7   0    5.40    5.30
   7  -7   0   16.80    5.60
   7  -7   0    9.60    5.00
   6  -7   0   32.90    6.70
   6  -7   0   34.60    6.40
   5  -7   0  212.58   12.80
   4  -7   0    0.20    3.20
   3  -7   0    9.00    3.40
   2  -7   0  206.08   10.90
   1  -7   0  175.58    9.80
  -1   7   0  180.08   11.90
   0  -7   0   62.29    5.50
   0   7   0   51.69    5.30
   0   7   0   42.20    6.50
  -1  -7   0  844.22   29.00
   1   7   0  900.61   30.60
   1   7   0  767.22   33.30
  -2  -7   0 1886.61   58.19
   2   7   0 1840.12   60.29
   2   7   0 1731.83   59.79
  -3  -7   0  570.04   19.90
   3   7   0  487.25   21.80
   3   7   0  535.65   21.60
  -4  -7   0   42.00    4.90
   4   7   0   35.50    5.60
   4   7   0   31.20    6.00
  -5  -7   0 1371.86   44.10
   5   7   0 1294.47   46.30
   5   7   0 1372.06   48.60
  -6  -7   0  621.04   23.00
   6   7   0  616.74   25.40
   6   7   0  587.04   27.00
   7   7   0  462.25   23.90
   8   7   0    1.70    5.90
   8   7   0   10.30    3.20
   9   7   0  104.99   13.90
   9   7   0   98.89    6.90
  10   7   0   42.10    5.30
  10   7   0   38.90    9.90
  11   7   0   12.40    8.50
  11   7   0    5.00    3.70
   9  -8   0    3.30    6.20
   9  -8   0    3.60    6.40
   8  -8   0   -0.40    5.00
   8  -8   0    3.70    5.60
   7  -8   0   -0.50    4.40
   7  -8   0   -2.50    4.30
   6  -8   0    4.90    5.10
   6  -8   0   -1.40    4.20
   5  -8   0   11.60    5.20
   4  -8   0   20.70    5.40
   3  -8   0   84.39    8.10
   2  -8   0  214.08   11.90
   1  -8   0  322.77   14.70
  -1   8   0  305.57   17.20
   0  -8   0  587.34   22.50
   0   8   0  578.64   25.20
   0   8   0  593.04   22.90
  -1  -8   0    4.10    2.90
   1   8   0    9.40    3.50
   1   8   0   10.30    4.20
  -2  -8   0    9.50    3.20
   2   8   0   13.50    4.10
   2   8   0   22.40    5.10
  -3  -8   0  141.99    8.40
   3   8   0  140.19   10.00
   3   8   0  159.28   10.50
  -4  -8   0   68.19    6.10
   4   8   0   74.99    9.10
   4   8   0   86.59    9.70
  -5  -8   0  560.94   21.00
   5   8   0  525.35   24.80
   5   8   0  570.14   23.50
  -6  -8   0  723.73   25.80
   6   8   0  705.33   28.70
   6   8   0  701.43   30.90
  -7  -8   0  325.57   14.80
   7   8   0  340.27   20.10
   7   8   0  349.17   17.80
  -8  -8   0  109.29    8.10
   8   8   0   95.99   12.80
   8   8   0   91.49    9.80
  -9  -8   0   52.59    6.70
   9   8   0   41.60    9.90
  10   8   0   25.80    9.80
  11   8   0   -2.00    7.20
   8  -9   0    4.70    5.50
   8  -9   0    5.30    6.40
   7  -9   0    9.90    5.40
   7  -9   0    1.10    5.50
   6  -9   0   17.60    6.30
   6  -9   0   21.50    6.00
   5  -9   0   19.40    6.50
   4  -9   0    1.60    4.60
   3  -9   0   44.60    7.00
   2  -9   0    3.60    4.00
   1  -9   0   58.49    7.40
  -1   9   0   76.49   10.20
   0  -9   0  560.44   22.30
   0   9   0  542.75   25.20
   0   9   0  563.84   22.70
  -1  -9   0   19.00    4.60
   1   9   0   29.20    6.40
   1   9   0   20.40    4.90
  -2  -9   0   11.20    3.70
   2   9   0    1.20    4.00
   2   9   0   13.70    4.80
  -3  -9   0  129.39    8.50
   3   9   0  121.19   10.20
   3   9   0  134.59   10.20
  -4  -9   0   24.90    4.60
   4   9   0   15.00    4.80
   4   9   0   26.90    5.90
  -5  -9   0  221.98   11.30
   5   9   0  217.28   15.00
   5   9   0  208.48   13.20
  -6  -9   0   37.10    5.40
   6   9   0   41.90    7.00
   6   9   0   55.89    9.60
  -7  -9   0   28.70    5.10
   7   9   0   30.70    8.10
   7   9   0   29.90    6.60
  -8  -9   0   31.20    5.40
   8   9   0   33.10    7.20
   8   9   0   31.70    9.40
  -9  -9   0   -1.40    3.70
   9   9   0    6.10    5.20
   9   9   0   -4.80    5.80
 -10  -9   0    6.30    4.60
  10   9   0    1.80    7.40
  10   9   0    5.10    6.80
   7 -10   0    3.20    5.40
   7 -10   0   -3.10    5.60
   6 -10   0   62.69    9.50
   6 -10   0   68.09   10.00
   5 -10   0   40.00    7.60
   4 -10   0   20.00    6.20
   3 -10   0    1.60    4.60
   2 -10   0   40.70    6.60
   1 -10   0   21.30    5.40
   0 -10   0   11.10    4.60
   0  10   0   18.10    6.70
   0  10   0   13.50    4.60
  -1 -10   0  128.39    9.60
   1  10   0  150.68   12.40
   1  10   0  149.39   10.70
  -2 -10   0   66.49    7.40
   2  10   0   78.19    9.10
   2  10   0   78.29    9.60
  -3 -10   0   88.19    7.50
   3  10   0   89.69    9.10
   3  10   0   70.49    9.30
  -4 -10   0   27.10    5.20
   4  10   0   38.50    7.00
   4  10   0   19.40    5.70
  -5 -10   0  485.95   19.80
   5  10   0  474.15   22.10
   5  10   0  474.45   24.30
  -6 -10   0    1.70    3.40
   6  10   0   -6.90    4.40
   6  10   0   -3.70    3.90
  -7 -10   0  158.68   10.10
   7  10   0  174.28   15.40
   7  10   0  182.98   12.90
  -8 -10   0   44.50    6.20
   8  10   0   27.90    9.50
   8  10   0   35.80    7.30
  -9 -10   0    4.10    4.20
   9  10   0   -7.50    4.60
   9  10   0    0.10    7.40
 -10 -10   0    0.30    3.20
  10  10   0   -5.10    7.60
  10  10   0   18.20    7.20
   6 -11   0    1.10    5.70
   6 -11   0   10.30    6.10
   5 -11   0   15.70    7.00
   4 -11   0    5.00    4.90
   3 -11   0   -3.20    4.80
   2 -11   0   11.10    5.20
   0 -11   0  122.09   10.10
   0  11   0  109.59   13.20
   0  11   0  127.19   10.30
  -1 -11   0  158.58   11.30
   1  11   0  191.78   13.30
   1  11   0  161.58   13.60
  -2 -11   0   53.99    7.30
   2  11   0   65.59    9.70
   2  11   0   39.40    7.60
  -3 -11   0    4.40    3.80
   3  11   0    5.30    5.00
   3  11   0    5.90    4.90
  -4 -11   0  108.99    8.80
   4  11   0  125.39   11.20
   4  11   0  102.29   12.60
  -5 -11   0   56.89    6.80
   5  11   0   39.20    8.00
   5  11   0   33.60    8.30
  -6 -11   0    3.00    3.80
   6  11   0    5.40    6.20
   6  11   0    9.00    5.40
  -7 -11   0   11.60    4.30
   7  11   0    8.20    6.70
   7  11   0    1.10    4.70
  -8 -11   0   39.40    6.10
   8  11   0   46.40    8.60
   8  11   0   34.60    9.90
  -9 -11   0   14.60    4.60
   9  11   0   11.60    8.70
   9  11   0   18.20    6.40
   5 -12   0   19.90    7.40
   4 -12   0   43.40    8.30
   3 -12   0    7.60    5.50
   2 -12   0   19.20    6.50
   1 -12   0   13.50    6.10
   0 -12   0   26.00    6.50
  -1 -12   0   -0.30    4.70
   1  12   0   -4.70    5.20
   1  12   0   -4.30    4.10
   2  12   0   18.20    6.20
   2  12   0   17.10    7.00
  -3 -12   0   34.00    6.60
   3  12   0   37.50    8.10
   3  12   0   17.50    6.70
  -4 -12   0   18.70    5.50
   4  12   0   22.30    7.40
   4  12   0   24.30    7.20
  -5 -12   0   38.80    6.70
   5  12   0   34.50    8.50
   5  12   0   35.00    7.80
  -6 -12   0   58.39    7.70
   6  12   0   68.19   11.40
   6  12   0   46.20    8.80
  -7 -12   0   31.80    6.40
   7  12   0   35.10    8.50
   7  12   0   53.39   10.90
  -8 -12   0   -2.00    4.80
   8  12   0   -4.40    7.00
   8  12   0   10.90    5.90
   4 -13   0    5.70    6.60
   3 -13   0    6.10    6.30
   2 -13   0   -5.70    4.60
   1 -13   0   -3.30    5.40
   0 -13   0    5.20    5.40
  -1 -13   0   -7.00    4.50
   1  13   0   -1.20    5.90
   1  13   0   -1.00    4.30
  -2 -13   0   15.60    6.10
   2  13   0    6.50    6.60
   2  13   0   -5.40    5.90
  -3 -13   0   49.70   11.00
   3  13   0   70.39   11.20
   3  13   0   55.59    9.50
  -4 -13   0   10.20    5.40
   4  13   0   20.40    7.40
   4  13   0    5.50    6.30
  -5 -13   0    4.30    5.00
   5  13   0   -3.60    5.70
   5  13   0    3.60    6.50
  -6 -13   0   40.10    7.10
   6  13   0   25.70    9.00
   6  13   0   27.00    8.00
  -7 -13   0   34.40    6.80
   7  13   0   18.90    8.60
   7  13   0   16.20    7.80
   2 -14   0   34.00    8.80
   1 -14   0   -3.50    5.70
   0 -14   0   -1.80    5.40
  -1 -14   0   12.20    5.80
   1  14   0    8.00    6.00
  -2 -14   0    1.00    5.40
   2  14   0    4.40    5.90
   2  14   0    0.80    7.20
  -3 -14   0   -7.80    4.80
   3  14   0   13.40    8.70
   3  14   0    9.20    7.40
  -4 -14   0   62.09    9.40
   4  14   0   48.50   10.20
   4  14   0   59.69   10.60
  -5 -14   0    4.80    5.90
   5  14   0   15.10    8.30
   5  14   0   22.60    8.10
   4  14  -1    7.50    7.40
   4  14  -1   18.10    9.40
  -4 -14   1   16.30    6.30
   3  14  -1   45.40   11.10
   3  14  -1   37.70    9.30
  -3 -14   1   51.59    8.70
   2  14  -1   50.09   11.40
   2  14  -1   40.30    9.20
  -2 -14   1   38.60    8.20
   1  14  -1   13.90    7.20
   1  14  -1    1.50    7.10
  -1 -14   1   36.30    8.30
   0 -14   1    3.30    6.10
   1 -14   1   18.50    7.70
   6  13  -1    5.50    7.20
   6  13  -1    5.70    7.60
  -6 -13   1   -0.60    5.00
   5  13  -1   32.60    9.30
   5  13  -1   22.20    8.30
  -5 -13   1   39.70    7.10
   4  13  -1   17.70    7.90
   4  13  -1   53.89   10.60
  -4 -13   1   21.40    6.00
   3  13  -1    1.50   10.60
   3  13  -1    6.90    6.10
   2  13  -1   23.90    7.70
   2  13  -1   20.70    8.30
  -2 -13   1    8.00    5.30
   1  13  -1    6.80    7.20
   1  13  -1   10.40    5.90
  -1 -13   1    9.20    5.60
   0  13  -1   -4.00    6.30
   0 -13   1   -1.10    5.10
   1 -13   1    0.50    5.20
   2 -13   1   12.10    6.80
   3 -13   1    1.90    5.90
   7  12  -1    2.00    6.50
   7  12  -1   -4.00    6.00
  -7 -12   1    2.40    4.50
   6  12  -1   23.70    8.90
   6  12  -1   31.30    8.30
  -6 -12   1    9.50    5.10
   5  12  -1   10.20    7.00
   5  12  -1  -14.30    5.20
  -5 -12   1    1.60    4.30
   4  12  -1    1.70    6.40
   4  12  -1    6.30    6.30
  -4 -12   1    6.90    4.80
   3  12  -1   72.09   10.40
   3  12  -1   75.79   11.50
  -3 -12   1   69.49    8.40
   2  12  -1   82.89   10.60
   2  12  -1   77.09   11.70
  -2 -12   1   79.49    9.10
   0  12  -1    3.30    6.90
   0  12  -1    3.10    4.60
   0 -12   1   -4.20    4.40
   1 -12   1    8.00    5.50
   2 -12   1    7.00    5.50
   3 -12   1    9.80    6.20
   4 -12   1    4.50    6.10
   5 -12   1   -5.00    5.50
   8  11  -1   36.30   10.30
   8  11  -1   38.50    8.60
  -8 -11   1   38.40    5.60
   7  11  -1    9.10    7.70
   7  11  -1   13.20    6.60
  -7 -11   1   13.70    4.30
   6  11  -1   89.69   13.10
   6  11  -1   96.69   11.90
  -6 -11   1   83.29    7.70
   5  11  -1   63.39   10.00
   5  11  -1   59.99   10.30
  -5 -11   1   63.19    7.30
   4  11  -1   17.10    6.60
   4  11  -1   11.30    6.20
  -4 -11   1   25.10    5.20
   3  11  -1  167.98   23.50
   3  11  -1  120.39   13.00
  -3 -11   1  158.38   10.30
   2  11  -1  114.99   11.00
   2  11  -1  100.59   12.30
  -2 -11   1  112.29    9.30
   1  11  -1    6.20    4.80
   1  11  -1   -5.10    5.30
  -1 -11   1   -4.70    3.70
   0  11  -1  135.29   10.70
   0  11  -1  123.39   14.70
   0 -11   1  135.99   10.50
  -1  11  -1   76.19   14.30
   1 -11   1   77.69    9.30
   2 -11   1    7.20    5.20
   3 -11   1    2.00    4.70
   4 -11   1    1.80    4.70
   5 -11   1    8.00    6.20
   6 -11   1   -0.30    5.30
   6 -11   1    0.10    6.10
   9  10  -1    2.50    6.90
   9  10  -1   -0.90    6.10
  -9 -10   1   -1.00    2.20
   8  10  -1   26.10    9.10
   8  10  -1   14.70    6.70
  -8 -10   1   17.10    4.10
   7  10  -1    0.10    5.20
   7  10  -1    0.70    6.70
  -7 -10   1   -2.40    3.00
   6  10  -1   67.69   10.10
   6  10  -1   42.60    9.60
  -6 -10   1   66.69    6.90
   5  10  -1   13.50    5.70
   5  10  -1   16.90    6.70
  -5 -10   1   18.90    4.40
   4  10  -1   56.99    8.90
   4  10  -1   68.89    9.70
  -4 -10   1   67.29    6.90
   3  10  -1   -4.90    4.30
   3  10  -1   -1.10    4.70
  -3 -10   1   -3.30    3.20
   2  10  -1    7.50    5.90
   2  10  -1    4.80    4.30
  -2 -10   1   15.70    4.40
   1  10  -1  336.17   16.70
   1  10  -1  303.17   18.90
  -1 -10   1  298.37   15.00
   0  10  -1   91.99    8.70
   0 -10   1  102.29    8.80
  -1  10  -1   39.70    8.40
   1 -10   1   37.60    6.80
   2 -10   1    1.90    4.40
   3 -10   1    6.20    4.80
   4 -10   1    3.60    5.30
   5 -10   1    3.10    5.40
   6 -10   1    2.50    5.80
   6 -10   1   16.00    5.70
   7 -10   1   19.30    7.10
   7 -10   1   31.00    7.40
  10   9  -1   29.10   10.20
  10   9  -1   19.60    8.00
   9   9  -1   12.60    7.70
   9   9  -1    6.80    6.70
  -9  -9   1   18.80    4.20
   8   9  -1   89.39   12.80
   8   9  -1   89.29   11.40
  -8  -9   1   93.69    7.00
   7   9  -1   52.69   10.00
   7   9  -1   74.19   10.10
  -7  -9   1   73.49    6.10
   6   9  -1    0.10    5.30
   6   9  -1   -0.10    4.30
  -6  -9   1    2.80    3.00
   5   9  -1  232.68   15.60
   5   9  -1  238.18   15.30
  -5  -9   1  245.88   11.60
   4   9  -1  785.62   32.00
   4   9  -1  758.52   32.20
  -4  -9   1  764.02   27.30
   3   9  -1  661.23   28.90
   3   9  -1  749.42   30.30
  -3  -9   1  715.03   25.80
   2   9  -1   73.49    9.90
   2   9  -1   76.59    9.00
  -2  -9   1   73.69    6.80
   1   9  -1  730.93   28.80
   1   9  -1  735.33   31.60
  -1  -9   1  755.42   27.60
   0   9  -1   25.30    7.20
   0   9  -1   25.30    5.30
   0  -9   1   37.20    6.20
  -1   9  -1    1.30    5.10
   1  -9   1    7.50    4.00
  -2   9  -1    4.80    5.00
   2  -9   1    1.00    3.30
   3  -9   1  170.78   11.40
   4  -9   1   27.60    6.50
   5  -9   1   33.10    7.00
   6  -9   1    1.80    4.80
   6  -9   1   -5.50    4.20
   7  -9   1    9.50    5.80
   7  -9   1    8.10    5.00
   8  -9   1   14.30    6.00
   8  -9   1    6.70    7.00
  10   8  -1   51.19   12.40
   9   8  -1   33.70   10.00
  -9  -8   1   34.60    4.90
   8   8  -1   85.39   12.90
   8   8  -1   87.49   11.20
  -8  -8   1   61.19    6.00
   7   8  -1  186.68   15.00
   7   8  -1  165.68   13.20
   6   8  -1   24.40    7.20
   6   8  -1   33.50    7.30
   5   8  -1  585.04   26.10
   5   8  -1  617.54   27.20
   4   8  -1 1439.06   53.39
   4   8  -1 1526.05   53.29
  -4  -8   1 1540.05   48.70
   3   8  -1  399.56   19.50
   3   8  -1  389.66   18.80
  -3  -8   1  387.16   15.60
   2   8  -1   81.19    8.70
   2   8  -1   61.29    8.40
  -2  -8   1   74.79    6.20
   1   8  -1  544.95   24.80
   1   8  -1  595.54   23.00
  -1  -8   1  544.65   21.20
   0   8  -1  468.65   19.00
   0   8  -1  437.76   21.60
   0  -8   1  443.96   18.30
  -1   8  -1    4.20    4.70
  -1   8  -1    2.80    2.80
   1  -8   1    5.80    3.40
  -2   8  -1   25.50    7.10
   2  -8   1   38.10    6.00
   3  -8   1  394.76   18.10
   4  -8   1  140.09   10.60
   5  -8   1    0.90    4.70
   6  -8   1    0.30    4.40
   6  -8   1    1.00    4.10
   7  -8   1   -9.90    3.60
   7  -8   1   -5.40    4.20
   8  -8   1   14.90    5.60
   8  -8   1   28.80    8.00
   9  -8   1   -2.20    5.20
   9  -8   1    2.30    6.20
  11   7  -1   -3.00    7.40
  10   7  -1   12.00    7.70
   9   7  -1    7.70    7.00
   8   7  -1    6.10    5.70
   7   7  -1    8.00    5.70
  -7  -7   1    4.90    2.90
   6   7  -1   10.10    4.70
   6   7  -1   14.10    5.90
  -6  -7   1    6.90    2.90
  -6  -7   1    8.40    2.80
   5   7  -1   26.90    5.90
   5   7  -1   36.30    6.60
  -5  -7   1   35.60    4.30
  -5  -7   1   34.20    3.80
   4   7  -1   11.30    4.70
   4   7  -1    5.10    4.10
  -4  -7   1   12.70    2.90
  -4  -7   1    9.70    2.40
   3   7  -1  860.51   32.50
   3   7  -1  830.92   32.40
  -3  -7   1  860.81   28.80
   2   7  -1  989.40   35.10
   2   7  -1  939.91   35.90
   1   7  -1    6.50    3.90
   1   7  -1   11.80    3.60
  -1  -7   1    2.60    2.50
   0   7  -1    6.00    4.00
   0   7  -1    1.10    2.40
   0  -7   1    5.70    3.00
  -1   7  -1  215.48   10.10
  -1   7  -1  194.38   12.90
   1  -7   1  190.68   10.30
  -2   7  -1    1.60    4.10
   2  -7   1    4.20    3.10
   3  -7   1  281.97   14.00
   4  -7   1  111.69    8.60
   5  -7   1   39.20    6.70
   6  -7   1   -0.10    4.10
   6  -7   1    1.00    3.50
   7  -7   1    1.20    3.90
   7  -7   1   -0.80    4.10
   8  -7   1   19.50    6.70
   8  -7   1   14.70    5.40
   9  -7   1    2.50    5.70
   9  -7   1   -4.50    4.40
  11   6  -1   24.40    4.30
  11   6  -1   12.30    8.10
  10   6  -1   -7.40    2.30
  10   6  -1   -7.50    5.40
   9   6  -1   22.30    7.70
   9   6  -1   37.90    4.50
   8   6  -1   51.29    9.40
   7   6  -1   38.80    8.20
  -7  -6   1   27.70    5.80
   6   6  -1  237.18   15.20
  -6  -6   1  266.77   10.20
  -6  -6   1  248.68   10.80
   5   6  -1  318.97   17.10
  -5  -6   1  332.87   12.80
  -5  -6   1  337.17   12.30
   4   6  -1   32.80    6.00
  -4  -6   1   38.60    3.70
  -4  -6   1   34.00    3.90
   3   6  -1  120.79    8.90
   3   6  -1  130.09    9.30
  -3  -6   1  126.29    6.10
  -3  -6   1  137.49    6.80
   2   6  -1  465.05   19.50
   2   6  -1  409.16   18.00
   2   6  -1  436.76   16.60
  -2  -6   1  447.86   16.10
   1   6  -1  708.13   25.50
  -1  -6   1  676.73   23.80
   0   6  -1   71.99    7.20
   0   6  -1   61.99    5.20
   0  -6   1   64.59    5.20
  -1   6  -1  149.79    7.50
  -1   6  -1  114.99    9.40
   1  -6   1  137.29    7.70
   1  -6   1  149.79    8.10
  -2   6  -1  361.46   17.90
   2  -6   1  331.07   13.70
   2  -6   1  328.37   14.50
   3  -6   1    4.70    3.10
   3  -6   1    7.70    2.60
   4  -6   1  422.26   18.30
   5  -6   1   22.60    4.60
   5  -6   1   28.80    5.10
   6  -6   1    1.80    3.70
   6  -6   1    5.80    4.30
   7  -6   1   45.10    6.80
   7  -6   1   39.20    7.30
   8  -6   1   18.00    5.90
   8  -6   1   15.10    5.40
   9  -6   1    1.50    4.90
   9  -6   1   -1.00    5.30
  10  -6   1   -6.20    5.30
  10  -6   1   14.40    6.10
  11   5  -1   -3.60    7.00
  11   5  -1   11.60    3.80
  10   5  -1    3.60    6.60
  10   5  -1    2.60    3.00
   9   5  -1    9.80    7.00
   9   5  -1    4.40    2.90
   8   5  -1  314.77   22.90
   8   5  -1  343.07   14.00
   7   5  -1  184.08   13.60
   7   5  -1  168.78    7.50
  -7  -5   1  146.39    8.00
   6   5  -1    4.50    4.10
   6   5  -1    7.00    2.00
  -6  -5   1    3.50    1.90
   5   5  -1  104.19    9.20
   4   5  -1 1030.70   38.00
  -4  -5   1 1033.00   33.00
  -4  -5   1 1078.19   33.60
   3   5  -1  867.71   31.60
   3   5  -1  834.62   31.40
  -3  -5   1  906.81   28.20
  -3  -5   1  850.51   27.60
   2   5  -1  387.56   16.80
  -2  -5   1  383.76   13.90
   1   5  -1  166.58    9.10
   1   5  -1  195.78    8.50
   1   5  -1  187.28   10.40
  -1  -5   1  200.78    9.70
  -1  -5   1  197.48   10.60
  -1  -5   1  198.38    8.40
   0   5  -1  378.36   14.30
   0   5  -1  380.56   16.80
   0   5  -1  365.26   14.30
   0  -5   1  326.97   14.10
   0  -5   1  390.26   14.10
  -1   5  -1 1258.07   39.60
  -1   5  -1 1152.38   42.70
   1  -5   1 1277.17   40.00
  -2   5  -1  684.23   27.70
   2  -5   1  722.13   25.00
   2  -5   1  687.53   23.80
   3  -5   1  467.55   18.40
   3  -5   1  457.25   16.80
   4  -5   1    4.30    2.70
   4  -5   1    3.60    2.10
   5  -5   1   10.80    3.50
   5  -5   1   20.00    4.30
   6  -5   1   22.60    5.60
   6  -5   1   29.80    5.20
   7  -5   1  182.78   11.50
   8  -5   1   37.30    6.90
   8  -5   1   44.30    7.80
   9  -5   1   13.50    5.60
   9  -5   1   18.10    6.40
  10  -5   1    3.10    5.90
  10  -5   1   -2.10    5.10
  11   4  -1   -0.10    7.00
  11   4  -1    5.10    3.50
  10   4  -1  111.69    7.50
  10   4  -1  124.49   15.10
   9   4  -1   36.60    8.40
   9   4  -1   47.50    5.00
   8   4  -1   97.09    6.00
   8   4  -1  103.59   12.50
   7   4  -1  303.47   17.80
   7   4  -1  308.17   11.80
   6   4  -1    2.70    3.50
   6   4  -1    5.50    1.80
  -6  -4   1    1.90    1.70
   5   4  -1  528.25   22.80
   5   4  -1  532.65   17.80
  -5  -4   1  550.04   18.00
   4   4  -1  107.99    8.30
   4   4  -1  118.99    5.00
  -4  -4   1  111.79    5.00
   3   4  -1 1565.44   50.49
  -3  -4   1 1498.65   46.30
  -3  -4   1 1482.55   46.60
   2   4  -1    6.90    2.80
   2   4  -1    2.60    2.30
  -2  -4   1    2.90    1.30
  -2  -4   1    4.60    1.50
  -2  -4   1    5.10    2.10
   1   4  -1 2264.17   71.69
   1   4  -1 2311.87   70.49
   1   4  -1 2202.48   68.99
  -1  -4   1 2074.09   71.19
  -1  -4   1 2295.97   68.89
  -1  -4   1 2384.36   70.59
   0   4  -1  301.87   11.20
   0   4  -1  281.67   10.90
   0   4  -1  276.27   12.80
   0  -4   1  276.37   10.70
   0  -4   1  251.57   10.90
   0  -4   1  279.77   12.80
  -1   4  -1 1624.44   52.09
  -1   4  -1 1568.14   48.70
  -1   4  -1 1569.64   49.50
   1  -4   1 1532.05   51.89
   1  -4   1 1541.45   49.20
   1  -4   1 1543.95   48.80
   2  -4   1  483.45   16.70
   3  -4   1 1644.34   51.99
   3  -4   1 1685.43   53.59
   4  -4   1   12.10    3.50
   4  -4   1   15.70    3.30
   5  -4   1   51.59    6.30
   5  -4   1   37.10    5.10
   6  -4   1   57.39    6.80
   6  -4   1   65.99    6.60
   7  -4   1   34.20    5.90
   7  -4   1   20.10    5.50
   8  -4   1   58.99    8.10
   8  -4   1   52.69    8.10
   9  -4   1    1.40    4.60
   9  -4   1    3.00    4.70
  10  -4   1   11.60    6.40
  10  -4   1   10.10    6.00
  11  -4   1   18.80    7.20
  11  -4   1    0.90    6.10
  11   3  -1    1.70    7.20
  11   3  -1    5.40    3.80
  10   3  -1   23.90    4.40
  10   3  -1    0.30    6.20
   9   3  -1    8.50    6.30
   9   3  -1    9.00    3.30
   8   3  -1   -1.30    2.10
   8   3  -1   -4.00    3.70
   7   3  -1  250.77   10.40
   7   3  -1  247.38   15.20
   6   3  -1  480.75   16.60
   6   3  -1  469.85   21.70
  -6  -3   1  478.15   16.70
   5   3  -1  314.07   11.30
   5   3  -1  315.17   15.70
  -5  -3   1  315.97   11.30
   4   3  -1  668.73   25.90
   4   3  -1  671.73   21.50
  -4  -3   1  691.83   21.70
   3   3  -1 2579.64   86.69
   3   3  -1 2775.52   82.99
  -3  -3   1 2942.71   83.19
   2   3  -1  763.92   26.90
  -2  -3   1  775.72   24.50
  -2  -3   1  830.62   27.10
  -2  -3   1  759.52   24.20
   1   3  -1  599.94   21.30
   1   3  -1  618.74   22.30
   1   3  -1  638.64   20.10
  -1  -3   1  622.64   19.90
  -1  -3   1  632.44   21.40
   0   3  -1 1423.56   47.70
   0   3  -1 1468.05   45.90
   0   3  -1 1463.45   45.70
   0  -3   1 1488.45   47.80
   0  -3   1 1505.45   46.10
   0  -3   1 1510.85   45.70
  -1   3  -1   53.29    4.10
  -1   3  -1   55.69    3.20
  -1   3  -1   59.99    5.00
   1  -3   1   53.99    4.70
   1  -3   1   51.59    3.20
   1  -3   1   56.59    3.70
  -2   3  -1 1613.14   50.79
  -2   3  -1 1568.24   52.99
   2  -3   1 1619.44   50.69
   2  -3   1 1602.34   53.09
   2  -3   1 1637.14   49.50
   3  -3   1  699.43   25.70
   4  -3   1   62.79    5.30
   4  -3   1   48.90    4.60
   5  -3   1   48.30    5.60
   5  -3   1   50.99    5.80
   6  -3   1  370.86   16.20
   6  -3   1  347.57   15.90
   7  -3   1  130.19    9.50
   7  -3   1  130.19    9.50
   8  -3   1   45.00    7.50
   8  -3   1   44.30    6.70
   9  -3   1  104.09   10.80
   9  -3   1   86.39   10.00
  10  -3   1   33.70    7.70
  10  -3   1   33.40    7.60
  11  -3   1   -6.20    5.60
  11  -3   1   -8.00    4.60
  11   2  -1   12.00    7.30
  11   2  -1   23.70    4.90
  10   2  -1   -1.20    4.70
  10   2  -1   -1.10    3.10
   9   2  -1   52.09    5.70
   8   2  -1  293.67   17.90
   8   2  -1  288.17   12.50
   7   2  -1   55.79    8.30
   7   2  -1   56.49    4.60
   6   2  -1  380.06   18.80
   6   2  -1  406.56   14.60
  -6  -2   1  411.16   14.70
   5   2  -1  785.52   29.20
   5   2  -1  733.53   24.40
   4   2  -1  710.63   26.50
   4   2  -1  690.13   22.30
  -4  -2   1  705.23   22.40
   3   2  -1  970.20   29.60
   3   2  -1  902.61   32.80
  -3  -2   1 1023.40   33.10
  -3  -2   1  965.10   29.60
   2   2  -1 1970.30   58.09
   2   2  -1 1893.11   60.89
  -2  -2   1 1959.00   58.09
  -2  -2   1 1946.01   60.89
   1   2  -1  307.17   11.70
   1   2  -1  320.37   10.40
   1   2  -1  330.27   12.50
  -1  -2   1  323.47   10.30
  -1  -2   1  306.77   11.60
   0   2  -1  195.28    8.40
   0   2  -1  185.88    6.80
   0   2  -1  172.18    6.90
   0  -2   1  178.88    8.20
   0  -2   1  194.78    7.10
   0  -2   1  175.18    6.70
  -1   2  -1 5949.40  180.88
  -1   2  -1 6056.49  178.98
   1  -2   1 6060.39  180.78
   1  -2   1 5896.31  178.88
  -2   2  -1 5090.69  151.58
  -2   2  -1 5026.00  153.58
   2  -2   1 5108.99  153.78
   2  -2   1 4945.51  151.58
  -3   2  -1  611.34   21.20
   3  -2   1  619.64   21.30
   3  -2   1  610.34   20.70
   3  -2   1  608.44   23.30
   4  -2   1  187.88    8.90
   4  -2   1  183.48    8.80
   5  -2   1   31.00    4.30
   5  -2   1   24.20    4.10
   6  -2   1   16.00    4.00
   6  -2   1   16.20    4.10
   7  -2   1    7.70    3.20
   7  -2   1   -1.30    3.00
   8  -2   1  245.58   13.40
   8  -2   1  204.78   13.00
   9  -2   1  102.29   10.20
   9  -2   1   95.49   13.20
  10  -2   1    6.50    5.60
  10  -2   1    3.70    4.60
  11  -2   1   10.40    6.90
  11  -2   1    1.30    5.20
  11   1  -1   11.60    4.90
  11   1  -1   16.40    8.20
  10   1  -1    9.30    4.00
  10   1  -1   -6.90    5.30
   9   1  -1   13.60    6.50
   9   1  -1    3.70    3.30
   8   1  -1    6.40    3.00
   8   1  -1    4.90    5.00
   7   1  -1   61.59    5.10
   7   1  -1   61.19    8.80
   6   1  -1  127.69    6.60
   6   1  -1  122.49    9.60
   5   1  -1  707.03   24.00
   5   1  -1  740.13   27.90
  -5  -1   1  746.53   24.20
   4   1  -1  388.16   17.10
   4   1  -1  420.06   14.20
  -4  -1   1  441.46   14.30
   3   1  -1    2.00    1.80
   3   1  -1    3.60    1.00
  -3  -1   1    6.70    1.20
  -3  -1   1    2.10    1.60
   2   1  -1 1894.91   64.79
   2   1  -1 2401.36   67.69
  -2  -1   1 2244.38   67.39
   1   1  -1 1102.09   34.00
  -1  -1   1 1118.69   34.00
  -1  -1   1 1028.50   32.40
   0   1  -1  664.93   20.70
   0   1  -1  675.63   20.90
   0   1  -1  683.93   22.10
   0  -1   1  674.33   20.70
   0  -1   1  653.43   20.90
   0  -1   1  694.03   22.10
  -3   1  -1 5609.64  166.68
   3  -1   1 5659.33  166.78
   3  -1   1 5379.96  168.38
   3  -1   1 5544.25  166.48
  -4   1  -1   66.49    5.30
   4  -1   1   61.19    4.80
   4  -1   1   68.59    4.90
  -5   1  -1 1438.46   47.90
   5  -1   1 1487.95   47.60
   5  -1   1 1475.15   48.20
   6  -1   1  507.45   20.50
   6  -1   1  492.15   19.40
   7  -1   1   11.10    3.60
   7  -1   1    7.90    3.90
   8  -1   1   39.20    6.30
   8  -1   1   56.79    8.00
   9  -1   1   22.30    5.50
   9  -1   1   24.30    6.60
  10  -1   1    6.80    4.90
  10  -1   1    2.20    5.00
  11  -1   1    6.40    5.70
  11  -1   1    5.40    5.20
  11   0  -1    4.00    4.40
  11   0  -1    9.40    7.10
  10   0  -1   41.20    9.20
  10   0  -1   39.10    6.20
   9   0  -1    0.00    3.20
   9   0  -1    3.70    5.20
   8   0  -1   40.80    5.60
   8   0  -1   31.60    7.00
   7   0  -1  130.09    7.70
   7   0  -1  121.99   10.30
   6   0  -1   87.89    8.00
   6   0  -1   78.99    5.60
   5   0  -1  526.55   21.30
   5   0  -1  510.55   18.10
  -5   0   1  509.15   18.10
   4   0  -1 1955.90   60.79
   4   0  -1 2004.40   63.79
   3   0  -1  478.65   16.10
   3   0  -1  486.85   18.20
  -3   0   1  473.05   18.10
  -3   0   1  513.95   16.20
   2   0  -1 3294.77   98.09
   2   0  -1 3236.08   99.89
  -2   0   1 3290.27   98.09
  -2   0   1 3314.57   99.89
  -1   0   1 3075.39   91.19
  -1   0   1 2974.60   89.79
  -1   0  -1  137.39    5.40
  -1   0  -1  131.29    4.40
  -1   0  -1  137.89    4.80
   1   0   1  135.19    4.80
   1   0   1  131.99    4.30
   1   0   1  107.49    5.20
  -2   0  -1 8445.46  251.17
  -3   0  -1 6748.23  209.98
  -3   0  -1 7813.52  213.28
   3   0   1 6701.13  209.98
   3   0   1 6831.52  209.58
  -4   0  -1  563.64   20.20
  -4   0  -1  557.04   19.40
   4   0   1  565.64   19.40
   4   0   1  546.05   20.10
  -5   0  -1  244.78   11.90
   5   0   1  273.17   12.30
   5   0   1  256.97   11.10
   6   0   1    6.60    2.80
   6   0   1    3.70    3.10
   7   0   1   39.20    6.30
   7   0   1   53.89    6.10
   8   0   1    7.90    3.70
   8   0   1    8.90    4.70
   9   0   1  244.48   15.60
   9   0   1  251.57   13.40
  10   0   1   99.09   13.10
  10   0   1   97.59   11.60
  11   0   1   26.90    6.60
  11   0   1   23.80    7.60
  12   0   1    4.10    5.60
  12   0   1    0.40    6.40
  11  -1  -1    5.80    6.70
  11  -1  -1    7.80    5.20
  10  -1  -1   68.29   11.00
  10  -1  -1   57.89    7.90
   9  -1  -1  127.49   12.20
   9  -1  -1  109.29    8.90
   8  -1  -1   -7.90    3.50
   8  -1  -1    4.10    3.40
   7  -1  -1  540.65   20.80
   7  -1  -1  546.45   24.20
   6  -1  -1  552.14   23.60
   6  -1  -1  586.84   21.00
   5  -1  -1  152.78    7.80
   5  -1  -1  162.98    9.90
   4  -1  -1  290.57   11.50
   4  -1  -1  313.07   13.50
  -4   1   1  305.97   11.50
  -4   1   1  278.37   13.00
   3  -1  -1 1530.15   49.50
   3  -1  -1 1563.04   47.80
  -3   1   1 1524.85   47.80
  -3   1   1 1550.84   49.40
   2  -1  -1 1930.31   59.09
   2  -1  -1 1917.51   60.29
  -2   1   1 1988.70   59.19
   1  -1  -1   35.80    2.10
  -1   1   1   42.50    2.20
  -1  -1  -1  130.69    4.20
  -1  -1  -1  119.69    4.60
   1   1   1  116.49    4.70
  -2  -1  -1   36.40    2.20
  -2  -1  -1   30.90    2.40
   2   1   1   27.60    2.40
   2   1   1   30.60    2.10
  -3  -1  -1  156.38    6.40
  -3  -1  -1  156.78    7.20
   3   1   1  141.99    6.30
   3   1   1  150.08    7.10
  -4  -1  -1  964.10   32.30
  -4  -1  -1  967.10   30.90
   4   1   1  959.90   32.40
   4   1   1  940.11   30.90
   5   1   1  117.89    7.70
   5   1   1  126.89    6.60
   6   1   1  339.77   13.70
   6   1   1  335.77   15.70
   7   1   1   55.19    7.30
   7   1   1   48.40    5.70
   8   1   1   21.20    6.00
   8   1   1   36.40    5.40
   9   1   1   -3.00    4.10
   9   1   1    1.20    3.50
  10   1   1  126.29   12.90
  10   1   1  139.39   10.20
  11   1   1    0.10    5.40
  11   1   1    1.30    4.30
  12   1   1    4.20    6.70
  12   1   1   -4.10    4.70
  11  -2  -1  -10.30    5.10
  11  -2  -1    0.20    4.70
  10  -2  -1   -0.20    6.00
  10  -2  -1    1.80    4.30
   9  -2  -1   14.40    4.90
   9  -2  -1    5.50    5.80
   8  -2  -1    0.20    3.40
   8  -2  -1   -5.40    3.60
   7  -2  -1    2.50    3.80
   7  -2  -1   -0.10    3.10
   6  -2  -1   58.39    7.60
   6  -2  -1   41.80    5.20
   5  -2  -1  117.49    8.20
   5  -2  -1  105.29    6.60
   4  -2  -1   33.70    4.60
   4  -2  -1   31.30    3.80
   3  -2  -1 1093.69   34.50
   3  -2  -1 1022.60   35.60
  -3   2   1 1098.19   34.60
   2  -2  -1  861.81   28.00
  -2   2   1  885.61   28.00
   1  -2  -1  232.88    8.70
  -1   2   1  244.78    8.80
   0  -2  -1 1351.86   41.00
   0  -2  -1 1323.27   41.10
   0   2   1 1306.67   41.00
   0   2   1 1370.06   41.00
  -1  -2  -1  999.40   33.90
  -1  -2  -1 1093.79   33.30
  -1  -2  -1 1135.29   32.70
   1   2   1 1115.49   32.70
   1   2   1 1086.29   33.30
   1   2   1 1094.29   34.00
  -2  -2  -1 3493.45  104.89
  -2  -2  -1 3485.95  103.69
   2   2   1 3403.06  104.79
  -4  -2  -1 2678.03   83.79
  -4  -2  -1 2716.53   85.89
   4   2   1 2837.52   83.89
   4   2   1 2785.12   86.09
  -5  -2  -1    1.20    1.70
   5   2   1    5.30    2.80
   5   2   1    1.70    1.60
   6   2   1  246.38   12.90
   6   2   1  226.48   10.30
   7   2   1  210.98   12.90
   7   2   1  212.18   10.20
   8   2   1    8.70    4.90
   8   2   1   20.00    4.10
   9   2   1   35.40    8.20
   9   2   1   46.30    6.00
  10   2   1    2.70    5.80
  10   2   1   12.70    4.70
  11   2   1   -4.60    5.40
  11   2   1    4.90    4.60
  12   2   1    1.90    6.50
  12   2   1   -2.30    4.30
  11  -3  -1    1.70    6.40
  11  -3  -1   15.10    6.00
  10  -3  -1    0.50    5.00
  10  -3  -1    7.10    6.00
   9  -3  -1    4.60    5.20
   8  -3  -1  302.87   17.70
   8  -3  -1  317.87   15.50
   7  -3  -1   25.70    6.00
   7  -3  -1   22.40    4.80
   6  -3  -1   23.50    5.40
   6  -3  -1   22.90    4.30
   5  -3  -1  697.73   26.90
   5  -3  -1  712.23   25.30
   4  -3  -1  783.82   27.60
   4  -3  -1  824.22   29.10
   3  -3  -1  570.84   20.20
   2  -3  -1 1379.06   43.30
  -2   3   1 1356.16   43.20
   1  -3  -1  392.06   14.00
   1  -3  -1  397.76   15.10
  -1   3   1  399.56   14.10
   0  -3  -1 1023.20   33.80
   0  -3  -1 1122.79   34.30
   0  -3  -1 1057.29   33.70
   0   3   1 1102.59   33.80
   0   3   1 1052.29   33.80
  -1  -3  -1 4969.40  152.58
  -1  -3  -1 5196.08  152.28
   1   3   1 5122.79  152.28
  -3  -3  -1 9134.39  274.07
  -4  -3  -1  269.57   10.50
   4   3   1  277.17   10.40
   4   3   1  285.37   12.80
  -5  -3  -1   11.00    2.30
   5   3   1   10.40    3.30
   5   3   1   11.90    2.50
   6   3   1    1.40    2.00
   6   3   1   -1.10    2.90
   7   3   1    3.70    2.60
   7   3   1    2.60    3.80
   8   3   1  296.47   16.90
   8   3   1  285.07   13.00
   9   3   1   14.90    6.20
   9   3   1   10.80    3.90
  10   3   1    1.90    3.50
  10   3   1    3.30    6.10
  11   3   1   -1.10    4.30
  11   3   1    5.20    6.90
  12   3   1    0.20    7.00
  12   3   1   -5.50    4.40
  11  -4  -1    5.40    6.40
  11  -4  -1    3.80    6.30
  10  -4  -1   -9.50    5.20
  10  -4  -1    1.90    5.10
   9  -4  -1    2.70    4.90
   9  -4  -1   -0.10    4.30
   8  -4  -1    0.50    5.10
   8  -4  -1    4.20    4.40
   7  -4  -1   53.99    7.10
   7  -4  -1   41.20    7.20
   6  -4  -1    4.20    3.20
   6  -4  -1   -1.10    3.20
   5  -4  -1   67.19    6.90
   5  -4  -1   68.99    6.30
   4  -4  -1   10.30    3.00
   3  -4  -1   25.50    3.80
   2  -4  -1   46.80    6.20
   2  -4  -1   39.30    4.30
   1  -4  -1 3106.89   98.49
   1  -4  -1 3109.59   96.99
  -1   4   1 3325.57   97.29
   0  -4  -1   94.59    5.50
   0  -4  -1   86.09    5.00
   0  -4  -1   88.59    4.90
   0   4   1   88.79    5.00
   0   4   1   86.39    5.50
   0   4   1   93.09    5.00
  -1  -4  -1  140.39    6.80
  -1  -4  -1  172.88    7.70
  -1  -4  -1  155.78    6.90
   1   4   1  153.38    6.90
   1   4   1  153.18    7.40
  -2  -4  -1  147.59    6.30
  -2  -4  -1  138.09    7.50
   2   4   1  156.08    7.80
   2   4   1  157.38    6.60
  -3  -4  -1   34.50    6.60
   3   4   1   28.40    2.50
   3   4   1   33.80    4.20
  -4  -4  -1  226.28    9.00
   4   4   1  233.98    9.00
   4   4   1  214.68   11.20
  -5  -4  -1 1412.66   45.10
   5   4   1 1466.45   45.00
   5   4   1 1393.86   48.70
   6   4   1  976.30   34.80
   6   4   1  850.31   31.10
   7   4   1   25.10    3.90
   7   4   1   27.40    6.70
   8   4   1   85.49   10.30
   8   4   1   87.19    6.50
   9   4   1   92.69    7.20
   9   4   1   78.29   10.60
  10   4   1   10.00    4.20
  10   4   1   12.40    6.80
  11   4   1   34.20    5.90
  11   4   1   25.00    8.90
  12   4   1   33.50    6.80
  12   4   1   34.90   10.60
  10  -5  -1   21.90    7.70
  10  -5  -1   11.00    6.20
   9  -5  -1    9.50    5.70
   9  -5  -1    4.30    5.40
   8  -5  -1   19.00    6.50
   8  -5  -1   28.60    6.70
   7  -5  -1   28.10    6.70
   7  -5  -1   21.70    5.40
   6  -5  -1  139.29   10.60
   6  -5  -1  153.68   10.00
   5  -5  -1   -0.70    2.70
   5  -5  -1    3.10    3.30
   4  -5  -1   68.99    7.10
   3  -5  -1  648.74   23.60
   2  -5  -1   83.89    5.80
   2  -5  -1   94.09    5.70
   1  -5  -1    9.00    2.30
   1  -5  -1   12.80    3.10
   1  -5  -1   11.00    2.80
   0  -5  -1   74.29    5.10
   0  -5  -1   73.19    5.60
   0  -5  -1   80.99    5.10
   0   5   1   69.49    5.50
   0   5   1   73.19    5.00
   0   5   1   69.69    4.80
  -1  -5  -1  444.16   16.70
  -1  -5  -1  467.75   17.50
  -1  -5  -1  482.15   17.30
   1   5   1  447.66   17.30
   1   5   1  485.95   17.20
   1   5   1  436.96   16.70
  -2  -5  -1  138.59    6.90
  -2  -5  -1  133.79    6.20
   2   5   1  137.69    6.90
  -3  -5  -1 4223.58  129.29
   3   5   1 4255.57  130.09
   3   5   1 4401.66  132.39
  -4  -5  -1   16.60    2.60
   4   5   1   14.10    2.40
   4   5   1   10.30    3.30
   5   5   1    1.10    2.90
   5   5   1    6.60    2.20
   6   5   1  109.09    6.20
   6   5   1  109.69    9.20
   7   5   1  204.68    9.60
   7   5   1  208.58   13.70
   8   5   1    6.10    4.70
   8   5   1   10.00    3.10
   9   5   1   40.70    8.30
   9   5   1   43.30    5.60
  10   5   1   15.90    7.40
  10   5   1   19.60    4.80
  11   5   1    4.70    3.80
  11   5   1    8.30    7.30
  12   5   1   -3.20    7.20
  12   5   1    4.20    4.20
  10  -6  -1    6.20    6.60
  10  -6  -1    3.50    6.50
   9  -6  -1   16.10    6.70
   8  -6  -1  105.19   10.80
   8  -6  -1   77.79    9.80
   7  -6  -1  155.38   12.30
   7  -6  -1  161.88   11.80
   6  -6  -1   12.10    5.00
   6  -6  -1    9.80    5.00
   5  -6  -1  148.79   10.60
   5  -6  -1  144.69   10.00
   4  -6  -1    1.00    2.90
   3  -6  -1  724.03   26.50
   2  -6  -1   14.80    3.60
   1  -6  -1 1232.28   40.80
   0  -6  -1 3874.71  120.49
   0  -6  -1 3987.30  122.19
   0   6   1 3892.41  121.99
   0   6   1 3994.80  120.79
  -1  -6  -1  613.64   22.80
  -1  -6  -1  628.04   22.00
   1   6   1  613.64   22.80
  -2  -6  -1   10.80    2.90
  -2  -6  -1    8.20    2.50
  -2  -6  -1    3.10    1.80
   2   6   1    4.60    2.50
   2   6   1    6.90    2.90
  -3  -6  -1   61.99    5.10
  -3  -6  -1   68.29    4.40
   3   6   1   64.99    5.10
   3   6   1   68.59    6.30
   4   6   1 1571.54   50.69
   5   6   1   73.69    7.60
   5   6   1   60.89    5.10
   6   6   1  404.36   15.50
   6   6   1  420.66   20.10
   7   6   1   43.60    4.90
   7   6   1   31.50    7.40
   8   6   1  910.71   38.00
   8   6   1  912.31   31.20
   9   6   1   96.49    7.30
   9   6   1   91.39   12.00
  10   6   1   17.10    4.40
  10   6   1   13.30    7.20
  11   6   1    9.30    8.20
  11   6   1    4.50    3.90
   9  -7  -1   36.40    8.40
   9  -7  -1   39.10    9.20
   8  -7  -1   27.10    7.50
   8  -7  -1   35.70    7.20
   7  -7  -1   15.20    6.00
   7  -7  -1    6.50    4.70
   6  -7  -1   24.00    6.50
   5  -7  -1   20.30    5.10
   4  -7  -1  126.19    9.30
   3  -7  -1  202.58   11.20
   2  -7  -1  163.68    9.40
   1  -7  -1   80.39    6.20
   0  -7  -1  637.84   22.80
   0   7   1  628.14   23.00
   0   7   1  575.34   26.30
  -1  -7  -1  956.10   35.30
  -1  -7  -1 1014.80   34.10
   1   7   1 1035.10   35.20
   1   7   1 1013.40   35.50
  -2  -7  -1  315.07   13.50
  -2  -7  -1  333.77   14.50
   2   7   1  339.57   14.50
   2   7   1  302.97   14.80
  -3  -7  -1  199.68    9.90
   3   7   1  225.88   11.90
   3   7   1  204.38   10.40
  -4  -7  -1  946.91   32.20
   4   7   1  938.11   32.50
   4   7   1  937.31   35.00
  -5  -7  -1  445.36   17.60
   5   7   1  451.75   20.70
   5   7   1  422.36   17.80
   6   7   1   31.80    6.90
   6   7   1   26.20    4.90
   6   7   1   23.80    3.70
   7   7   1 1098.59   36.80
   7   7   1 1135.49   43.50
   8   7   1  361.96   14.80
   8   7   1  342.57   20.10
   9   7   1  149.59   13.90
   9   7   1  115.89    8.00
  10   7   1    4.60    3.50
  10   7   1    2.50    6.30
  11   7   1   85.09   13.60
  11   7   1   67.89    7.30
   9  -8  -1   -6.30    5.00
   9  -8  -1    0.80    6.00
   8  -8  -1    3.90    5.90
   8  -8  -1    5.60    6.00
   7  -8  -1    0.70    5.00
   7  -8  -1    3.30    5.10
   6  -8  -1    0.10    4.20
   6  -8  -1    3.70    4.80
   4  -8  -1  566.64   23.90
   3  -8  -1  722.73   27.80
   2  -8  -1    5.80    3.80
   1  -8  -1  283.67   13.70
   0  -8  -1   28.60    4.70
   0   8   1   25.80    4.60
   0   8   1   26.70    5.70
  -1  -8  -1    7.60    3.20
   1   8   1   12.40    4.10
   1   8   1    7.20    3.50
  -2  -8  -1  427.56   17.40
   2   8   1  411.86   18.60
   2   8   1  433.16   18.20
  -3  -8  -1  322.77   14.10
   3   8   1  319.67   16.00
   3   8   1  323.77   14.90
  -4  -8  -1   74.99    6.40
   4   8   1   89.29    8.30
   4   8   1   85.29    7.00
  -5  -8  -1   77.49    6.50
   5   8   1   72.59    9.60
   5   8   1   67.19    6.40
  -6  -8  -1   10.70    3.60
   6   8   1    6.10    3.40
   6   8   1    7.10    5.20
   7   8   1  192.68   12.70
   8   8   1  259.27   12.00
   8   8   1  259.87   14.60
   8   8   1  265.27   18.10
   9   8   1   36.50    9.30
   9   8   1   27.80    4.80
  10   8   1   -3.50    5.70
  10   8   1   -2.00    3.40
  11   8   1    5.20    4.20
  11   8   1   20.90    9.40
   8  -9  -1   12.10    7.20
   8  -9  -1   10.40    6.30
   7  -9  -1    8.20    6.70
   7  -9  -1   14.70    6.10
   6  -9  -1   -2.50    4.50
   6  -9  -1    3.10    4.60
   5  -9  -1    1.30    4.70
   4  -9  -1   -0.90    4.60
   3  -9  -1   -1.20    3.70
   2  -9  -1  141.79   10.20
   1  -9  -1  355.56   16.60
   0  -9  -1  233.08   12.80
   0   9   1  249.48   14.70
   0   9   1  268.27   13.30
  -1  -9  -1    7.20    3.50
   1   9   1    6.10    3.90
   1   9   1   14.10    4.50
  -2  -9  -1   69.39    6.60
   2   9   1   71.29    7.30
   2   9   1   81.59    7.90
  -3  -9  -1   19.10    4.40
   3   9   1   25.00    5.70
  -4  -9  -1   21.80    4.70
   4   9   1   24.90    6.10
   4   9   1   31.30    5.30
  -5  -9  -1  123.09    8.50
   5   9   1  111.09   10.80
   5   9   1  123.29    8.70
  -6  -9  -1  168.08   10.30
   6   9   1  180.08   10.90
   6   9   1  177.78   15.10
  -7  -9  -1   13.00    4.30
   7   9   1   20.10    7.20
  -8  -9  -1    2.50    3.90
   8   9   1    7.40    4.30
   8   9   1   11.20    6.90
  -9  -9  -1   95.49    8.80
   9   9   1   69.29   12.00
   9   9   1   75.79    9.20
  10   9   1   49.10   11.20
  10   9   1   39.10    7.70
   7 -10  -1    6.20    5.90
   6 -10  -1   -7.70    4.60
   6 -10  -1    4.20    5.40
   5 -10  -1   14.90    6.20
   4 -10  -1    0.80    5.00
   3 -10  -1  151.58   11.70
   2 -10  -1   -3.40    3.70
   1 -10  -1   42.80    6.70
   0 -10  -1   88.99    8.30
   0  10   1   68.59    8.10
  -1 -10  -1  193.18   11.30
   1  10   1  173.68   12.80
   1  10   1  162.58   11.70
  -2 -10  -1   76.79    7.40
   2  10   1   75.99    9.00
   2  10   1   76.39    9.00
  -3 -10  -1  259.67   13.40
   3  10   1  266.27   14.40
   3  10   1  245.38   14.90
  -4 -10  -1  500.35   20.10
   4  10   1  455.25   22.60
   4  10   1  462.25   20.70
  -5 -10  -1   64.69    7.30
   5  10   1   64.69    7.60
  -6 -10  -1   84.49    8.00
   6  10   1   96.19    8.50
   6  10   1   81.39   11.20
  -7 -10  -1  147.49   10.30
   7  10   1  170.58   14.80
   7  10   1  156.88   10.80
  -8 -10  -1    8.00    4.40
   8  10   1   -7.40    4.80
   8  10   1   14.40    5.20
  -9 -10  -1    8.20    4.60
   9  10   1    8.70    5.00
   9  10   1    1.80    6.40
 -10 -10  -1   35.00    6.80
  10  10   1   37.20   11.30
   7 -11  -1   -3.20    5.90
   7 -11  -1  -12.80    5.90
   6 -11  -1   -4.90    5.50
   5 -11  -1   20.60    7.20
   4 -11  -1    0.60    4.90
   3 -11  -1    2.60    4.50
   2 -11  -1  104.19   10.10
   1 -11  -1   44.00    8.70
   0 -11  -1  318.47   16.70
   0  11   1  325.37   16.90
  -1 -11  -1   16.00    5.00
   1  11   1   19.50    5.60
   1  11   1   18.30    6.20
  -2 -11  -1  138.69   10.20
   2  11   1  104.39   10.40
   2  11   1  130.29   11.30
  -3 -11  -1    7.90    4.30
   3  11   1    1.40    4.60
   3  11   1   11.50    5.00
  -4 -11  -1  101.09    8.80
   4  11   1  123.19   10.10
   4  11   1  113.09   11.40
  -5 -11  -1   66.29    7.70
   5  11   1   77.39    9.00
   5  11   1   64.49    9.90
  -6 -11  -1    7.50    4.30
   6  11   1    9.30    5.00
   6  11   1   -5.40    4.80
  -7 -11  -1   31.20    5.80
   7  11   1   23.10    7.80
  -8 -11  -1   35.00    6.20
   8  11   1   18.30    7.70
   8  11   1   18.80    5.70
  -9 -11  -1    6.00    4.70
   9  11   1   -5.10    6.70
   9  11   1   -4.00    3.70
   6 -12  -1    8.30    7.10
   5 -12  -1   15.30    7.50
   4 -12  -1   -1.10    5.50
   3 -12  -1    7.80    5.90
   2 -12  -1   40.90    7.50
   1 -12  -1    4.50    5.10
   0 -12  -1    0.30    4.90
  -1 -12  -1   13.50    6.00
   1  12   1    8.20    4.90
  -2 -12  -1   13.90    5.60
   2  12   1   11.50    6.30
   2  12   1   19.20    6.40
  -3 -12  -1   16.70    5.30
   3  12   1   13.30    5.80
   3  12   1   20.50    6.20
  -4 -12  -1   13.70    5.10
   4  12   1    1.00    4.90
   4  12   1    3.50    5.40
  -5 -12  -1  146.59   10.80
   5  12   1  122.39   14.40
   5  12   1  155.78   11.70
  -6 -12  -1   42.50    7.00
   6  12   1   34.60    9.30
   6  12   1   54.99    8.10
  -7 -12  -1    2.20    4.20
   7  12   1    3.60    7.00
   7  12   1   -1.40    4.40
  -8 -12  -1   42.60    6.90
   8  12   1   51.29   10.90
   8  12   1   33.40    6.90
   4 -13  -1   -0.30    6.00
   3 -13  -1   54.79    9.30
   2 -13  -1    2.10    5.90
   1 -13  -1    9.50    6.00
   0 -13  -1    4.90    5.60
  -1 -13  -1    6.20    5.50
   1  13   1   -1.30    4.70
  -2 -13  -1   69.59    9.30
   2  13   1   71.89   10.40
  -3 -13  -1   29.60    6.90
   3  13   1   41.10    8.50
   3  13   1   29.60    7.80
  -4 -13  -1    0.80    5.00
   4  13   1    0.00    5.50
   4  13   1    1.30    5.80
  -5 -13  -1   54.69    8.10
   5  13   1   50.39    8.70
   5  13   1   50.49   10.10
  -6 -13  -1   75.09    9.40
   6  13   1  102.29   11.00
   6  13   1   73.49   11.90
  -7 -13  -1    6.10    5.00
   7  13   1   -1.60    6.50
   7  13   1   13.40    6.20
   3 -14  -1    2.20    6.20
   2 -14  -1   -3.90    5.40
   1 -14  -1    4.10    6.10
   0 -14  -1   22.10    6.90
  -1 -14  -1    4.50    5.90
  -2 -14  -1    5.30    5.50
   2  14   1   -5.30    5.00
  -3 -14  -1   28.70    7.10
   3  14   1   13.00    7.80
  -4 -14  -1    2.80    5.40
   4  14   1    0.70    6.50
   4  14   1    3.70    6.30
  -5 -14  -1   25.20    7.30
   5  14   1   24.20    8.10
   5  14   1   21.00    7.60
  -6 -14  -1   48.10    8.60
   6  14   1   43.80    9.70
   6  14   1   64.39    9.60
   0 -15  -1    1.70    6.50
  -1 -15  -1    3.10    5.90
  -2 -15  -1   -5.10    5.40
   2  15   1   -4.10    5.50
  -3 -15  -1   -6.30    5.50
   3  15   1    3.90    7.00
  -4 -15  -1    5.90    6.60
   4  15   1    8.00    7.20
   5  13  -2    3.70    7.30
   5  13  -2   16.80    8.80
  -5 -13   2   -4.60    4.70
   4  13  -2    3.10    6.50
   4  13  -2    2.70    7.40
  -4 -13   2    7.10    4.90
   3  13  -2    5.80    7.60
   3  13  -2    4.30    6.20
   2  13  -2   10.10    6.60
   2  13  -2   19.60    9.00
  -2 -13   2   25.40    6.90
   1  13  -2   17.60    8.70
   1  13  -2   26.60    7.60
  -1 -13   2    8.40    5.90
   0  13  -2    5.40    8.80
   0 -13   2   33.00    7.50
  -1  13  -2   -2.20    7.70
   1 -13   2   11.90    6.10
   2 -13   2   40.20    8.70
   7  12  -2    2.70    8.90
   7  12  -2   20.90    9.20
  -7 -12   2    0.60    2.80
   6  12  -2   26.60    9.20
   6  12  -2   13.20    8.70
  -6 -12   2   25.20    5.20
   5  12  -2    2.00    7.40
   5  12  -2    8.20    7.00
  -5 -12   2    4.60    4.10
   4  12  -2   25.60    8.40
   4  12  -2   39.70   14.60
  -4 -12   2   26.90    5.70
   3  12  -2   38.50    8.50
   3  12  -2   36.90   11.80
  -3 -12   2   44.90    7.20
   2  12  -2   11.80    7.10
   2  12  -2    3.40    5.20
  -2 -12   2    1.00    4.40
   1  12  -2   47.50   11.10
   1  12  -2   28.30    7.60
  -1 -12   2   19.00    6.70
   0  12  -2   -0.40    7.00
   0  12  -2    2.80    4.80
   0 -12   2   -3.30    4.40
  -1  12  -2    7.10    8.20
   1 -12   2    4.30    5.30
   2 -12   2    3.60    5.60
   3 -12   2    7.20    6.10
   4 -12   2   -0.40    5.70
   8  11  -2   -1.40    7.10
   8  11  -2    5.90    6.70
   7  11  -2   83.69   13.40
   7  11  -2   44.40    9.70
  -7 -11   2   62.49    6.00
   6  11  -2   19.80    7.60
   6  11  -2   18.60    8.00
  -6 -11   2   18.50    4.50
   5  11  -2   -0.20    5.30
   5  11  -2    4.40    6.00
  -5 -11   2    0.00    3.80
   4  11  -2  168.18   14.30
   4  11  -2  145.89   13.80
  -4 -11   2  139.69    9.80
   3  11  -2   40.00    9.00
   3  11  -2   22.70    7.10
  -3 -11   2   27.70    5.40
   2  11  -2    9.40    5.30
   2  11  -2    4.60    6.80
  -2 -11   2    2.40    4.10
   1  11  -2   -0.30    4.10
   1  11  -2    0.30    6.10
  -1 -11   2    5.90    4.50
   0  11  -2   47.30    7.60
   0  11  -2   45.50   10.60
   0 -11   2   56.09    8.00
  -1  11  -2   -5.00    6.00
   1 -11   2   -0.90    4.30
  -2  11  -2   -4.40    6.30
   2 -11   2    4.20    5.20
   3 -11   2   -2.60    4.40
   4 -11   2    7.80    5.60
   5 -11   2   11.50    6.50
   6 -11   2   11.60    7.30
   6 -11   2    3.60    5.50
   9  10  -2   61.09   12.40
   9  10  -2   52.49   11.70
   8  10  -2   22.20    9.70
   8  10  -2   16.80    7.70
   7  10  -2    2.00    6.30
   7  10  -2   -0.60    6.50
   6  10  -2   59.09   10.10
   6  10  -2   44.10    9.20
  -6 -10   2   58.29    5.90
   5  10  -2   46.10    9.10
   5  10  -2   40.20    9.30
  -5 -10   2   51.69    5.80
   4  10  -2   -0.60    4.90
   4  10  -2   -5.80    4.70
  -4 -10   2    2.90    3.30
   3  10  -2  124.79   11.60
   3  10  -2  135.79   12.70
  -3 -10   2  121.19    8.70
   2  10  -2  197.08   13.30
   2  10  -2  180.48   15.00
  -2 -10   2  165.98   10.30
   1  10  -2  169.88   11.70
   1  10  -2  156.38   14.50
  -1 -10   2  166.88   10.50
   0  10  -2    2.70    6.30
   0  10  -2    6.20    4.40
   0 -10   2    0.10    4.00
  -1  10  -2   14.30    7.70
   1 -10   2   20.10    5.30
  -2  10  -2    1.00    5.70
   2 -10   2   10.00    4.90
   3 -10   2   -1.50    4.50
   4 -10   2   30.00    6.70
   5 -10   2    0.40    5.10
   6 -10   2    1.20    4.70
   6 -10   2    3.00    5.50
   7 -10   2   -1.10    4.40
   7 -10   2    9.10    7.30
   9   9  -2   41.20   10.00
   9   9  -2   41.00   11.00
   8   9  -2   23.40    8.30
   8   9  -2   25.40    8.40
  -8  -9   2   33.40    3.80
   7   9  -2   16.70    6.90
   7   9  -2    6.80    6.70
  -7  -9   2   -1.90    5.10
  -7  -9   2   14.60    3.30
   6   9  -2   55.99    9.90
   6   9  -2   44.30    9.10
  -6  -9   2   57.49    5.20
   5   9  -2  609.44   28.20
   5   9  -2  540.05   27.00
  -5  -9   2  586.44   21.10
   4   9  -2   46.10    8.60
   4   9  -2   45.20    8.30
  -4  -9   2   32.30    4.70
   3   9  -2  128.89   12.10
   3   9  -2  126.79   11.00
  -3  -9   2  135.99    8.30
   2   9  -2  696.33   31.80
   2   9  -2  740.73   29.80
  -2  -9   2  753.62   26.80
   1   9  -2 1000.40   36.60
   1   9  -2  984.80   40.40
  -1  -9   2  984.40   34.70
   0   9  -2   36.10    5.90
   0   9  -2   29.60    7.80
   0  -9   2   34.00    5.70
  -1   9  -2   49.00    6.40
  -1   9  -2   42.20    9.20
   1  -9   2   39.60    6.20
  -2   9  -2   62.89   10.80
   2  -9   2   58.39    7.50
  -3   9  -2   22.30    7.70
   4  -9   2    0.00    4.80
   5  -9   2    4.90    4.90
   6  -9   2   45.20    6.90
   6  -9   2   43.70    8.50
   7  -9   2   17.10    7.30
   7  -9   2    7.50    5.00
   8  -9   2   12.00    6.80
   8  -9   2   -6.30    3.80
  10   8  -2   14.10    9.10
   9   8  -2   13.10    7.20
   9   8  -2    5.50    7.50
   8   8  -2   89.29   12.00
   8   8  -2   76.09   11.90
  -8  -8   2   96.39    5.70
  -8  -8   2   81.59    5.50
   7   8  -2   25.80    7.10
   7   8  -2   19.30    7.50
  -7  -8   2   26.10    3.50
  -7  -8   2   16.90    3.10
   6   8  -2   26.50    7.10
   6   8  -2   22.00    7.00
  -6  -8   2   28.40    3.60
  -6  -8   2   28.00    3.70
   5   8  -2   47.00    8.50
   5   8  -2   42.70    8.10
  -5  -8   2   51.29    4.80
   4   8  -2   89.19   10.90
   4   8  -2   87.99   10.20
  -4  -8   2   87.39    6.10
   3   8  -2  206.08   14.40
   3   8  -2  193.58   12.70
  -3  -8   2  182.78    9.40
   2   8  -2  910.01   38.20
   2   8  -2 1046.20   36.70
  -2  -8   2  969.70   33.20
   1   8  -2    8.00    4.80
   1   8  -2    0.80    3.10
  -1  -8   2    4.70    3.10
   0   8  -2  712.73   31.40
   0   8  -2  749.62   27.50
   0  -8   2  720.23   26.70
  -1   8  -2   27.30    7.40
  -1   8  -2   37.10    5.10
   1  -8   2   44.10    6.20
  -2   8  -2  145.79   13.00
   2  -8   2  173.28   10.60
  -3   8  -2   24.00    7.30
   3  -8   2   26.80    5.60
   4  -8   2   72.49   12.30
   5  -8   2   47.70    7.60
   6  -8   2   48.20    6.90
   6  -8   2   41.80    7.70
   7  -8   2    8.00    4.40
   7  -8   2    9.70    5.90
   8  -8   2    8.40    5.70
   8  -8   2   -6.20    4.10
  10   7  -2   25.80   10.60
   9   7  -2    0.20    5.70
  -9  -7   2    3.60    2.50
   8   7  -2   15.30    6.90
  -8  -7   2   20.30    2.90
  -8  -7   2   18.80    3.30
   7   7  -2   69.69   10.80
  -7  -7   2   80.69    4.70
  -7  -7   2   68.99    4.90
   6   7  -2   34.10    7.90
   6   7  -2   21.50    6.40
  -6  -7   2   20.50    3.00
  -6  -7   2   22.90    3.30
   5   7  -2    4.30    4.60
   5   7  -2   -4.30    3.70
  -5  -7   2    3.90    1.90
  -5  -7   2    4.40    2.20
   4   7  -2    2.30    4.00
   4   7  -2    3.20    3.60
  -4  -7   2    4.90    2.00
  -4  -7   2   -0.80    2.00
   3   7  -2   32.30    5.90
   3   7  -2   34.80    7.10
  -3  -7   2   41.70    4.40
  -3  -7   2   40.50    4.30
   2   7  -2    0.00    3.90
   2   7  -2    1.40    3.10
  -2  -7   2    3.10    3.80
   1   7  -2  165.88   10.00
   1   7  -2  177.68   12.30
  -1  -7   2  168.68    8.80
   0   7  -2  234.68   11.40
   0   7  -2  232.88   14.40
   0  -7   2  213.18   10.70
  -1   7  -2    0.90    3.50
  -1   7  -2    6.60    2.80
   1  -7   2    0.40    2.60
  -2   7  -2  327.27   18.50
   2  -7   2  316.07   14.70
  -3   7  -2   12.20    5.70
   3  -7   2    5.00    3.80
   4  -7   2   -1.90    3.10
   6  -7   2   42.40    7.40
   6  -7   2   45.70    6.20
   7  -7   2   16.40    4.90
   7  -7   2   13.60    6.30
   8  -7   2    9.50    6.00
   8  -7   2   -4.70    3.90
   9  -7   2    1.20    4.80
   9  -7   2    9.60    7.10
  11   6  -2    1.60    7.70
  10   6  -2    8.40    8.40
   9   6  -2   67.89   12.10
  -9  -6   2   79.29    5.90
   8   6  -2   -3.20    4.60
  -8  -6   2    1.00    2.10
  -8  -6   2    1.80    2.40
   7   6  -2  119.09   16.80
  -7  -6   2  141.89    6.90
   6   6  -2  547.05   25.80
  -6  -6   2  536.45   17.80
  -6  -6   2  518.75   18.30
   5   6  -2  205.18   13.70
   5   6  -2  178.78   12.80
  -5  -6   2  207.08    7.90
  -5  -6   2  191.08    8.20
   4   6  -2  887.81   35.00
   4   6  -2  955.40   35.10
  -4  -6   2  816.32   30.10
  -4  -6   2  956.60   29.30
   3   6  -2  714.53   27.50
   3   6  -2  681.33   28.10
  -3  -6   2  702.03   23.00
  -3  -6   2  652.93   22.50
   2   6  -2  191.58   12.00
   2   6  -2  184.68   10.50
   2   6  -2  162.48    8.40
  -2  -6   2  171.38    8.00
   1   6  -2   62.89    6.00
   1   6  -2   74.49    9.10
  -1  -6   2   79.09    5.30
   0   6  -2  304.27   16.40
   0   6  -2  319.07   13.40
   0  -6   2  307.67   12.80
  -1   6  -2   84.29    8.80
  -1   6  -2   84.19    5.70
   1  -6   2   83.89    6.20
   1  -6   2   80.19    5.90
  -2   6  -2   -2.90    3.60
   2  -6   2    3.10    2.00
   2  -6   2    1.40    2.70
  -3   6  -2  178.88   13.30
   3  -6   2  193.08   10.50
   3  -6   2  191.68    9.00
   4  -6   2   30.90    4.20
   4  -6   2   26.30    5.20
   5  -6   2   -0.60    3.50
   5  -6   2   -1.20    2.60
   6  -6   2    2.20    4.60
   6  -6   2   -0.30    2.80
   7  -6   2   11.20    5.30
   7  -6   2   16.80    4.60
   8  -6   2    9.80    5.90
   8  -6   2    7.80    4.10
   9  -6   2    4.80    4.80
   9  -6   2   -2.80    5.10
  10  -6   2    0.60    5.20
  10  -6   2    8.80    7.00
  11   5  -2   -1.70    2.60
  11   5  -2    3.60    8.10
  10   5  -2    8.10    2.70
  10   5  -2    2.80    7.00
   9   5  -2   27.30    3.50
   9   5  -2   27.00    8.60
   8   5  -2  130.39    6.20
   8   5  -2  127.59   14.70
  -8  -5   2  122.59    6.70
   7   5  -2    5.90    5.70
   6   5  -2  154.78   12.20
  -6  -5   2  143.89    6.20
  -6  -5   2  140.99    6.70
   5   5  -2  198.98   12.80
  -5  -5   2  184.78    7.40
  -5  -5   2  170.58    7.00
   4   5  -2    4.70    3.50
  -4  -5   2    8.70    1.80
  -4  -5   2    8.30    1.70
   3   5  -2  495.15   20.90
   3   5  -2  473.15   21.30
  -3  -5   2  483.35   16.30
  -3  -5   2  508.35   16.60
   2   5  -2 1503.75   47.90
   2   5  -2 1589.34   50.99
  -2  -5   2 1490.65   47.40
   1   5  -2   84.69    5.40
   1   5  -2  101.69    6.60
   1   5  -2   86.09    9.00
  -1  -5   2   99.39    5.40
   0   5  -2 1065.99   34.60
   0   5  -2  932.21   36.40
   0   5  -2 1058.69   33.50
   0  -5   2  936.91   33.30
   0  -5   2  992.20   32.70
  -1   5  -2 2055.39   68.69
  -1   5  -2 2109.59   63.99
   1  -5   2 1988.80   64.19
   1  -5   2 2065.09   64.59
  -2   5  -2  156.48   11.10
   2  -5   2  169.78    8.90
  -3   5  -2   11.80    4.70
   3  -5   2   16.30    3.70
   4  -5   2   26.10    4.80
   4  -5   2   24.40    3.40
   5  -5   2   78.89    7.70
   5  -5   2   84.29    5.60
   5  -5   2   93.99    6.60
   6  -5   2   16.60    5.20
   6  -5   2   22.70    4.50
   7  -5   2    4.50    3.70
   7  -5   2    2.10    4.50
   8  -5   2   11.20    5.60
   8  -5   2   -1.80    3.50
   9  -5   2    1.90    5.30
   9  -5   2   -3.30    3.90
  10  -5   2   -5.00    5.30
  10  -5   2    6.90    5.20
  11   4  -2   54.79   11.80
  11   4  -2   71.19    6.30
  10   4  -2   -0.60    6.20
  10   4  -2   -1.30    2.60
   9   4  -2   53.19   10.20
   9   4  -2   57.69    5.00
   8   4  -2   16.10    6.20
   8   4  -2   36.20    3.70
  -8  -4   2   35.40    4.50
   7   4  -2  994.30   39.40
   7   4  -2  964.90   30.70
  -7  -4   2  945.71   31.00
   6   4  -2  142.99   10.90
   6   4  -2  123.69    5.40
  -6  -4   2  115.99    5.50
   5   4  -2  320.57   16.40
  -5  -4   2  304.77   10.60
   4   4  -2  138.89    9.90
  -4  -4   2  141.79    5.90
  -4  -4   2  157.38    5.70
   3   4  -2  113.09    8.10
  -3  -4   2  124.99    5.20
  -3  -4   2  121.29    4.80
   2   4  -2   14.20    3.50
   2   4  -2    9.90    3.50
  -2  -4   2   17.50    2.10
   1   4  -2  843.62   30.10
   1   4  -2  826.42   26.20
   1   4  -2  815.92   27.80
  -1  -4   2  746.33   27.50
  -1  -4   2  788.92   25.80
   0   4  -2 2159.78   70.69
   0   4  -2 2151.08   67.39
   0   4  -2 2056.89   66.99
   0  -4   2 2171.88   66.89
   0  -4   2 2336.57   69.09
  -1   4  -2  136.29    7.00
  -1   4  -2  139.29    6.30
   1  -4   2  136.89    6.90
   1  -4   2  130.09    6.40
  -2   4  -2 1823.82   62.49
   2  -4   2 1932.71   57.59
   2  -4   2 1838.12   58.99
  -3   4  -2  179.28   11.70
   3  -4   2  177.58    7.50
   3  -4   2  179.98    9.30
   4  -4   2    4.80    2.30
   4  -4   2    6.90    1.90
   4  -4   2    8.70    3.20
   5  -4   2  279.07   12.00
   5  -4   2  262.47   13.20
   6  -4   2  608.54   24.50
   6  -4   2  621.64   23.20
   7  -4   2  198.28   11.30
   7  -4   2  207.28   12.30
   8  -4   2    1.70    4.50
   8  -4   2    1.40    3.90
   9  -4   2   -1.90    4.80
   9  -4   2   -3.20    3.80
  10  -4   2   -3.50    4.60
  10  -4   2    5.90    6.00
  11   3  -2    0.30    7.00
  11   3  -2   -0.70    3.20
  10   3  -2    5.10    6.60
  10   3  -2    6.50    3.20
   9   3  -2    7.30    3.10
   9   3  -2    5.60    6.00
   8   3  -2  121.99   14.00
   8   3  -2  151.58    7.70
   7   3  -2   18.70    2.70
   7   3  -2    7.50    5.40
  -7  -3   2   18.10    3.00
   6   3  -2  217.18   13.80
   6   3  -2  229.98    8.60
  -6  -3   2  221.88    8.70
   5   3  -2   25.00    5.10
   5   3  -2   26.20    2.20
  -5  -3   2   25.30    2.30
   4   3  -2 4171.78  127.79
   4   3  -2 4107.79  121.59
  -4  -3   2 3967.90  121.59
   3   3  -2  174.48   11.20
  -3  -3   2  154.58    5.70
  -3  -3   2  173.48    6.00
   2   3  -2  288.77   12.30
  -2  -3   2  264.57    9.10
  -2  -3   2  261.37   11.80
  -2  -3   2  275.47    9.00
   1   3  -2  787.82   25.40
   1   3  -2  674.33   26.50
   1   3  -2  706.53   23.30
  -1  -3   2  761.52   23.20
   0   3  -2  582.54   18.60
   0   3  -2  580.34   21.70
   0   3  -2  521.15   18.70
   0  -3   2  546.45   18.90
   0  -3   2  556.14   21.20
   0  -3   2  546.05   18.40
  -1   3  -2  420.86   14.60
  -1   3  -2  386.86   16.80
  -1   3  -2  378.56   13.40
   1  -3   2  408.56   13.70
   1  -3   2  400.76   14.30
   1  -3   2  387.16   16.70
  -2   3  -2  254.97   13.10
   2  -3   2  277.77    9.50
   2  -3   2  254.47   10.80
  -3   3  -2  309.17   15.20
   3  -3   2  305.37   10.80
   3  -3   2  306.47   12.70
   4  -3   2   38.70    3.70
   4  -3   2   34.40    4.70
   5  -3   2    2.40    3.10
   5  -3   2    3.60    2.30
   6  -3   2  187.08   11.00
   6  -3   2  190.48   10.00
   7  -3   2  158.38   10.00
   7  -3   2  170.88   11.20
   8  -3   2  204.08   12.30
   9  -3   2   22.90    5.70
   9  -3   2   11.20    5.70
  10  -3   2    5.70    4.70
  10  -3   2    5.00    5.30
  11  -3   2    8.40    6.30
  11  -3   2   15.80    6.40
  11   2  -2    6.10    3.90
  11   2  -2    3.40    7.50
  10   2  -2   36.00    5.10
  10   2  -2   11.50    6.50
   9   2  -2   62.09   10.70
   9   2  -2   71.99    6.00
   8   2  -2    4.90    2.50
   8   2  -2    5.00    4.70
   7   2  -2  449.46   15.80
   7   2  -2  444.06   22.10
  -7  -2   2  418.86   16.90
   6   2  -2   33.80    6.30
   6   2  -2   31.80    3.30
  -6  -2   2   37.80    3.60
   5   2  -2  321.97   11.00
   5   2  -2  311.37   15.70
  -5  -2   2  315.17   11.20
   4   2  -2 1734.03   50.69
   4   2  -2 1738.83   56.19
  -4  -2   2 1569.14   50.69
   3   2  -2  638.34   19.30
   3   2  -2  647.54   23.80
  -3  -2   2  617.14   19.30
   2   2  -2   89.89    5.80
  -2  -2   2   86.59    5.50
  -2  -2   2   83.29    2.90
  -2  -2   2   79.39    2.90
   1   2  -2  136.99    7.70
   1   2  -2  133.19    4.90
   1   2  -2  127.89    6.50
  -1  -2   2  132.19    6.50
  -1  -2   2  135.19    4.80
   0   2  -2 4919.11  147.99
   0   2  -2 4959.40  148.49
   0   2  -2 4974.90  150.98
   0  -2   2 4829.62  147.89
   0  -2   2 5327.77  151.18
   0  -2   2 4728.23  148.29
  -1   2  -2  397.36   12.90
  -1   2  -2  424.96   14.10
  -1   2  -2  391.96   16.10
   1  -2   2  393.26   13.00
   1  -2   2  390.56   13.80
   1  -2   2  406.66   17.20
  -2   2  -2   29.10    4.50
  -2   2  -2   29.60    2.80
   2  -2   2   26.50    1.70
   2  -2   2   35.20    4.80
   2  -2   2   23.60    2.90
  -3   2  -2 1977.00   64.19
   3  -2   2 2028.10   59.99
   3  -2   2 1882.81   61.39
   4  -2   2 4946.71  149.19
   4  -2   2 4860.51  147.79
   5  -2   2 1590.74   51.39
   5  -2   2 1626.34   52.49
   6  -2   2  226.78   11.80
   6  -2   2  238.98   11.50
   7  -2   2  106.39    8.70
   7  -2   2  121.99    8.50
   8  -2   2   55.69    7.70
   8  -2   2   49.90    7.00
   9  -2   2   31.10    6.70
   9  -2   2   32.20    6.70
  10  -2   2    0.30    4.70
  10  -2   2    0.00    4.70
  11  -2   2    8.40    6.00
  11  -2   2    0.00    5.50
  11   1  -2    1.70    7.40
  11   1  -2    3.50    3.90
  10   1  -2   13.10    7.30
  10   1  -2   12.20    4.00
   9   1  -2  119.89    7.90
   9   1  -2  108.89   13.10
   8   1  -2    7.50    2.80
   8   1  -2   10.30    5.90
   7   1  -2   78.59    9.80
   6   1  -2   33.30    6.70
   6   1  -2   38.20    3.70
  -6  -1   2   38.40    3.60
   5   1  -2  308.07   15.80
   5   1  -2  338.17   11.70
  -5  -1   2  316.17   11.70
   4   1  -2  942.61   34.90
   4   1  -2 1060.49   30.70
  -4  -1   2  943.71   30.60
   3   1  -2 1882.91   59.89
   3   1  -2 1753.62   55.69
  -3  -1   2 1939.41   59.89
  -3  -1   2 1873.01   55.79
   2   1  -2 3871.11  118.19
   1   1  -2  356.56   12.80
   1   1  -2  356.86   10.60
  -1  -1   2  337.47   12.60
  -1  -1   2  332.77   10.50
   0   1  -2 2331.17   69.19
   0   1  -2 2327.57   69.69
   0   1  -2 2303.17   71.79
   0  -1   2 2269.87   69.19
   0  -1   2 2307.07   69.69
  -1   1  -2 2596.74   78.69
  -1   1  -2 2661.13   80.79
  -1   1  -2 2617.84   77.39
   1  -1   2 2696.73   80.79
   1  -1   2 2461.85   78.59
  -2   1  -2   94.79    6.10
   2  -1   2  103.59    3.80
   2  -1   2  107.59    6.50
   2  -1   2  110.39    5.30
  -3   1  -2 5167.48  156.68
  -3   1  -2 5215.08  158.88
   3  -1   2 5173.38  156.68
   3  -1   2 5274.37  158.98
   3  -1   2 5177.58  155.48
   4  -1   2  990.50   32.70
   4  -1   2  963.80   31.70
   5  -1   2  824.92   28.70
   5  -1   2  819.92   28.20
   6  -1   2   17.40    4.20
   6  -1   2   12.50    3.60
   7  -1   2  417.16   18.10
   7  -1   2  412.06   17.90
   8  -1   2    5.00    3.80
   8  -1   2    2.10    3.60
   9  -1   2    1.50    4.30
   9  -1   2    0.30    4.20
  10  -1   2    2.40    4.50
  10  -1   2    5.40    5.10
  11  -1   2   10.80    5.80
  11   0  -2    4.40    4.50
  11   0  -2   18.20    8.70
  10   0  -2   24.50    5.30
  10   0  -2   23.40    8.10
   9   0  -2    1.00    5.40
   9   0  -2    1.10    2.90
   8   0  -2  189.58    9.90
   8   0  -2  176.18   13.40
   7   0  -2   63.19    8.60
   7   0  -2   60.19    5.10
   6   0  -2  108.99    9.00
   6   0  -2   98.79    5.90
   5   0  -2 1462.65   45.30
   5   0  -2 1375.26   49.30
  -5   0   2 1480.35   45.40
   4   0  -2  322.17   15.10
   4   0  -2  339.07   12.10
  -4   0   2  370.36   12.40
   3   0  -2   80.99    5.90
   3   0  -2   81.09    3.70
  -3   0   2   88.09    6.00
  -3   0   2   83.39    3.80
   2   0  -2 2598.34   78.69
   2   0  -2 2551.14   75.89
  -2   0   2 2495.35   78.59
  -2   0   2 2522.25   75.89
   1   0  -2  346.37   10.50
   1   0  -2  335.57   10.30
   1   0  -2  316.47   12.20
  -1   0   2  346.17   12.30
   0   0  -2  245.28    8.70
   0   0  -2  256.27    8.20
   0   0   2  246.68    8.10
  -1   0  -2  187.18    5.80
  -1   0  -2  184.98    7.80
  -1   0  -2  180.98    6.70
   1   0   2  175.18    6.70
   1   0   2  187.18    7.80
  -2   0  -2   13.20    1.40
  -2   0  -2    9.80    2.30
  -2   0  -2   12.40    1.90
   2   0   2   13.10    2.30
   2   0   2   12.70    1.80
   2   0   2   12.90    1.30
  -3   0  -2 2240.08   69.09
  -3   0  -2 2254.47   68.49
   3   0   2 2240.58   70.49
   3   0   2 2239.18   68.49
   3   0   2 2273.27   69.19
  -4   0  -2 2417.96   74.99
   4   0   2 2415.16   76.99
   4   0   2 2465.05   75.29
   4   0   2 2431.86   74.99
  -5   0  -2  607.54   22.20
   5   0   2  622.64   22.10
   5   0   2  612.74   22.20
   6   0   2   15.60    3.60
   6   0   2   15.30    3.80
   7   0   2   24.10    5.00
   7   0   2   15.90    4.10
   8   0   2  101.19    8.90
   8   0   2  122.99    8.80
   9   0   2   11.10    4.70
   9   0   2    6.90    4.50
  10   0   2   13.00    5.70
  10   0   2   14.90    5.50
  11   0   2   69.69    9.50
  11   0   2   79.19   10.90
  12   0   2   36.20    9.10
  12   0   2   46.90    8.60
  11  -1  -2   61.59    8.00
  11  -1  -2   66.19   12.40
  10  -1  -2   -3.80    5.30
  10  -1  -2   -1.20    3.80
   9  -1  -2    3.40    3.60
   9  -1  -2    0.00    5.70
   8  -1  -2   51.89    9.00
   8  -1  -2   48.60    5.90
   7  -1  -2  239.48   15.20
   7  -1  -2  286.57   12.30
   6  -1  -2  237.18   13.80
   6  -1  -2  238.58   10.60
   5  -1  -2   34.40    3.90
   5  -1  -2   39.20    6.10
  -5   1   2   37.90    4.30
   4  -1  -2  853.61   34.40
   4  -1  -2  905.91   29.30
  -4   1   2  945.61   29.50
   3  -1  -2  125.19    5.60
   3  -1  -2  128.49    7.40
  -3   1   2  131.79    5.70
  -3   1   2  126.39    7.40
   2  -1  -2  702.33   23.80
   2  -1  -2  674.03   21.70
  -2   1   2  683.83   21.80
   1  -1  -2   58.59    2.80
  -1   1   2   59.79    2.80
  -1  -1  -2  214.88    7.90
  -1  -1  -2  215.98    7.60
  -1  -1  -2  219.88    7.40
   1   1   2  215.08    7.40
   1   1   2  206.68    7.50
   1   1   2  215.58    7.90
  -2  -1  -2  591.94   19.00
  -2  -1  -2  601.14   19.20
  -2  -1  -2  577.24   19.40
   2   1   2  583.04   18.90
   2   1   2  589.64   19.20
   2   1   2  592.24   19.50
  -3  -1  -2  524.75   18.10
   3   1   2  520.55   18.10
   3   1   2  530.35   18.70
   3   1   2  551.84   18.20
  -4  -1  -2 2987.30   88.79
  -4  -1  -2 2900.21   86.89
   4   1   2 2680.93   86.69
   4   1   2 2777.92   87.29
  -5  -1  -2  979.90   33.20
   5   1   2  966.20   33.90
   5   1   2  973.00   33.10
   5   1   2  951.80   32.20
   6   1   2  783.52   27.80
   6   1   2  804.92   29.10
   7   1   2   27.80    4.80
   7   1   2   27.00    5.20
   8   1   2  106.69    8.20
   8   1   2  119.09    9.70
   9   1   2   74.19    9.50
   9   1   2   78.69    8.20
  10   1   2   -1.10    4.50
  10   1   2    4.20    4.90
  11   1   2    4.20    5.90
  11   1   2    1.60    4.80
  12   1   2    3.60    6.70
  12   1   2    3.60    5.50
  11  -2  -2    4.50    6.80
  11  -2  -2   -1.50    4.50
  10  -2  -2   14.10    7.50
   9  -2  -2   12.40    4.70
   9  -2  -2   10.90   10.30
   8  -2  -2    3.70    3.40
   8  -2  -2    6.90    5.40
   7  -2  -2    4.30    4.60
   7  -2  -2   -0.30    2.80
   6  -2  -2    0.70    3.10
   6  -2  -2    3.30    2.60
   5  -2  -2   79.69    7.50
   5  -2  -2   79.09    5.70
   4  -2  -2  553.14   22.30
   4  -2  -2  567.94   19.90
  -4   2   2  575.14   20.00
   3  -2  -2   97.39    6.80
   3  -2  -2  103.79    5.40
  -3   2   2  108.79    5.40
   2  -2  -2  173.88    7.20
  -2   2   2  175.88    7.20
   1  -2  -2 2591.24   78.69
  -1   2   2 2612.74   78.69
   0  -2  -2   16.90    2.00
   0  -2  -2   16.50    1.40
  -1  -2  -2   20.70    1.90
  -1  -2  -2   16.70    1.60
   1   2   2   13.60    1.80
   1   2   2   12.60    1.50
  -3  -2  -2 9999.00  296.97
   3   2   2 9886.61  295.87
  -4  -2  -2   24.00    3.40
  -4  -2  -2   24.30    3.10
   4   2   2   20.20    2.80
   4   2   2   25.90    3.70
   5   2   2    6.40    2.70
   6   2   2  195.08   10.90
   6   2   2  198.58    9.60
   7   2   2  538.25   20.60
   7   2   2  531.55   22.50
   8   2   2   -2.10    3.40
   8   2   2    0.50    2.80
   9   2   2   71.49    9.60
   9   2   2   75.59    7.30
  10   2   2   20.90    6.80
  10   2   2   14.60    5.20
  11   2   2    7.20    5.10
  11   2   2   -4.50    5.20
  12   2   2    2.70    5.50
  12   2   2    6.80    6.60
  11  -3  -2    2.70    5.20
  11  -3  -2   -1.90    6.30
  10  -3  -2   16.60    5.70
  10  -3  -2    6.00    6.60
   9  -3  -2   48.20    7.10
   9  -3  -2   52.29   11.00
   8  -3  -2   10.90    4.40
   8  -3  -2    6.00    5.40
   7  -3  -2   12.00    5.50
   7  -3  -2   19.60    4.70
   6  -3  -2  526.05   20.40
   6  -3  -2  523.35   23.10
   5  -3  -2  260.67   11.60
   5  -3  -2  240.38   13.30
   4  -3  -2  402.96   15.60
   4  -3  -2  397.16   17.30
   3  -3  -2  751.62   25.30
  -3   3   2  750.02   25.50
   2  -3  -2 1901.81   58.29
  -2   3   2 1851.31   58.29
   1  -3  -2  111.99    5.60
  -1   3   2  114.89    5.60
   0  -3  -2  999.90   33.30
   0  -3  -2 1050.09   33.30
   0   3   2 1105.09   33.50
  -1  -3  -2 2246.08   70.89
   1   3   2 2383.16   70.89
  -2  -3  -2 2802.42   84.29
  -2  -3  -2 2767.82   83.19
   2   3   2 2735.93   83.19
   2   3   2 2689.03   84.09
  -3  -3  -2 1168.68   38.30
  -3  -3  -2 1192.68   37.00
   3   3   2 1141.99   38.20
   3   3   2 1186.18   37.00
  -4  -3  -2   47.60    4.50
  -4  -3  -2   49.30    3.80
   4   3   2   52.59    3.80
   4   3   2   65.79    5.20
   5   3   2  198.58   10.60
   5   3   2  194.38    8.90
   6   3   2   78.99    7.20
   6   3   2   84.49    5.80
   7   3   2  111.29    7.30
   7   3   2  125.79    9.50
   8   3   2   18.00    4.20
   8   3   2   19.00    5.60
   9   3   2   13.90    4.40
   9   3   2   21.30    6.70
  11   3   2   29.50    8.10
  11   3   2   30.40    6.20
  12   3   2   12.70    5.80
  12   3   2   15.20    7.40
  11  -4  -2   -0.70    5.60
  11  -4  -2   15.70    8.10
  10  -4  -2   19.40    7.30
  10  -4  -2   16.10    6.00
   9  -4  -2   35.00    8.50
   9  -4  -2   39.70    7.10
   8  -4  -2   11.80    4.80
   8  -4  -2   16.00    6.50
   7  -4  -2   16.40    5.90
   7  -4  -2   20.40    5.20
   6  -4  -2   77.19    7.00
   6  -4  -2   87.19    9.80
   5  -4  -2  119.19    9.20
   5  -4  -2  128.39    8.10
   4  -4  -2  295.47   14.20
   4  -4  -2  278.97   12.60
   3  -4  -2  186.78    9.10
   2  -4  -2  837.02   28.80
  -2   4   2  884.71   30.10
   1  -4  -2   19.20    2.90
  -1   4   2   20.80    2.90
   0  -4  -2   48.40    3.80
   0  -4  -2   41.40    3.40
   0  -4  -2   57.29    4.00
   0   4   2   52.89    3.90
  -1  -4  -2 4297.57  129.49
  -1  -4  -2 4408.76  129.49
  -1  -4  -2 4316.87  129.89
  -1  -4  -2 4456.35  128.69
   1   4   2 3934.11  129.49
  -2  -4  -2  573.14   19.30
  -2  -4  -2  644.44   20.90
   2   4   2  562.14   20.60
   2   4   2  561.84   19.30
   2   4   2  565.74   18.00
  -3  -4  -2  314.67   13.10
  -3  -4  -2  295.67   11.30
   3   4   2  312.57   11.40
   3   4   2  289.07   12.70
  -4  -4  -2  137.19    6.70
   4   4   2  148.79    6.80
   5   4   2  219.98   11.60
   5   4   2  216.78   10.30
   6   4   2    9.30    3.90
   6   4   2    4.10    2.40
   7   4   2   69.99    5.90
   7   4   2   83.49    8.30
   8   4   2  139.79    8.60
   8   4   2  123.39   10.50
   9   4   2   13.30    5.70
   9   4   2   14.30    4.20
  10   4   2   30.50    5.60
  10   4   2   25.20    7.60
  11   4   2   -5.30    5.70
  11   4   2    2.10    4.40
  12   4   2   -3.60    6.20
  12   4   2    5.40    5.10
  10  -5  -2   -5.50    5.10
  10  -5  -2    1.50    5.40
   9  -5  -2   -1.60    5.30
   9  -5  -2   -0.70    4.50
   8  -5  -2    0.40    5.10
   8  -5  -2   -3.70    4.10
   7  -5  -2  387.96   20.60
   7  -5  -2  413.46   18.80
   6  -5  -2   -2.60    3.20
   6  -5  -2   -1.30    3.70
   5  -5  -2   27.10    5.80
   5  -5  -2   24.10    4.80
   4  -5  -2  287.17   13.30
   3  -5  -2    5.40    2.90
   2  -5  -2  250.17   11.20
   1  -5  -2  457.15   16.80
   1  -5  -2  430.16   17.80
   1  -5  -2  451.35   16.80
   0  -5  -2    5.30    2.00
   0  -5  -2    5.00    2.20
   0  -5  -2    4.70    2.20
   0   5   2    3.20    1.90
   0   5   2    2.90    1.90
  -1  -5  -2  957.20   32.90
  -1  -5  -2 1007.30   31.70
  -1  -5  -2 1062.39   32.30
  -1  -5  -2  968.70   32.30
   1   5   2  911.31   32.60
  -2  -5  -2 3136.39   95.59
  -2  -5  -2 3154.28   97.09
  -2  -5  -2 3113.89   96.09
   2   5   2 3269.07   98.19
   2   5   2 3150.08   95.49
  -3  -5  -2  271.57   10.70
   3   5   2  278.17   10.70
   3   5   2  276.77    9.80
   4   5   2  612.64   23.70
   4   5   2  631.34   21.40
   5   5   2 2004.50   62.29
   5   5   2 1974.80   65.39
   6   5   2  888.01   34.50
   6   5   2  952.90   31.10
   7   5   2   14.90    5.20
   7   5   2   29.70    4.20
   8   5   2   38.70    5.20
   8   5   2   25.70    6.70
   9   5   2   97.59    7.70
   9   5   2  102.59   12.10
  10   5   2   50.09    6.80
  10   5   2   46.20    9.80
  11   5   2   19.00    8.50
  12   5   2   25.40    9.80
  12   5   2   14.40    5.60
  10  -6  -2   10.40    6.90
  10  -6  -2    5.40    6.20
   9  -6  -2    6.80    5.50
   9  -6  -2   -4.70    5.60
   8  -6  -2   97.49   10.40
   8  -6  -2  104.29   12.50
   7  -6  -2   42.50    8.20
   7  -6  -2   47.60    8.60
   6  -6  -2  572.84   24.10
   6  -6  -2  595.04   26.00
   5  -6  -2   65.29    8.50
   5  -6  -2   53.39    6.60
   4  -6  -2  780.52   28.80
   3  -6  -2   31.70    4.60
   2  -6  -2  407.16   16.50
   1  -6  -2  375.56   15.20
   0  -6  -2 2592.74   80.39
   0  -6  -2 2581.74   79.39
   0   6   2 2440.26   81.09
  -1  -6  -2  340.07   14.00
  -1  -6  -2  356.96   13.90
   1   6   2  316.17   15.80
  -2  -6  -2 1246.58   40.90
  -2  -6  -2 1251.77   40.20
   2   6   2 1245.48   40.00
   2   6   2 1265.47   42.20
  -3  -6  -2 1610.84   53.39
   3   6   2 1655.33   51.69
   3   6   2 1732.03   55.09
   4   6   2 1254.77   38.30
   4   6   2 1195.48   41.90
   4   6   2 1149.08   40.80
   5   6   2  184.68    8.60
   5   6   2  184.58   11.20
   5   6   2  189.88    8.80
   6   6   2    4.50    4.00
   6   6   2    7.40    2.80
   7   6   2  360.46   19.20
   7   6   2  406.16   15.80
   8   6   2  354.96   14.90
   8   6   2  320.07   19.30
   9   6   2  253.67   17.50
   9   6   2  253.47   12.60
  10   6   2  159.58   10.20
  10   6   2  169.98   15.50
  11   6   2  189.48   11.80
  11   6   2  165.18   16.70
  12   6   2   17.50    8.70
  12   6   2    5.70    4.90
   9  -7  -2    4.40    6.30
   9  -7  -2    2.60    5.80
   8  -7  -2   45.10    8.30
   8  -7  -2   38.50   10.80
   7  -7  -2   -1.80    4.20
   7  -7  -2    3.70    5.10
   6  -7  -2    1.50    4.40
   6  -7  -2    5.90    5.10
   5  -7  -2  122.29    9.70
   4  -7  -2  230.78   12.70
   3  -7  -2  290.07   14.10
   2  -7  -2   17.50    4.20
   1  -7  -2    7.40    2.90
   0  -7  -2   20.10    4.00
   0   7   2   21.70    4.20
  -1  -7  -2  425.16   17.20
  -1  -7  -2  413.16   16.70
   1   7   2  411.86   17.30
  -2  -7  -2   92.89    6.10
  -2  -7  -2   91.99    6.60
   2   7   2   95.49    6.20
   2   7   2   92.99    7.00
  -3  -7  -2 1416.06   47.60
   3   7   2 1503.55   46.60
   3   7   2 1452.75   49.60
  -4  -7  -2   61.09    5.80
   4   7   2   57.19    6.90
   4   7   2   55.49    4.40
   5   7   2   20.30    3.50
   5   7   2   16.20    3.10
   5   7   2    7.80    4.00
   6   7   2  405.06   15.70
   6   7   2  398.66   16.00
   6   7   2  384.86   19.40
   7   7   2  675.63   24.40
   7   7   2  681.13   29.70
   8   7   2   -2.60    4.90
   8   7   2    1.30    3.00
   9   7   2  207.48   11.20
   9   7   2  189.08   15.00
  10   7   2  258.87   13.50
  10   7   2  284.67   19.60
  11   7   2   -4.00    3.70
  11   7   2    7.00    7.20
   9  -8  -2    4.80    6.30
   9  -8  -2    2.70    6.30
   8  -8  -2   11.10    6.70
   8  -8  -2    6.40    6.10
   7  -8  -2    0.40    4.80
   7  -8  -2   -1.00    4.90
   6  -8  -2    5.40    5.10
   6  -8  -2    0.90    4.60
   5  -8  -2  337.97   17.30
   4  -8  -2  333.87   16.60
   3  -8  -2   24.00    5.40
   2  -8  -2  234.18   12.50
   1  -8  -2  256.27   12.80
   0  -8  -2    1.40    2.50
   0   8   2    2.50    2.50
  -1  -8  -2   87.39    6.90
   1   8   2   81.19    6.90
  -2  -8  -2    5.30    2.90
  -2  -8  -2    9.30    3.00
   2   8   2    3.20    2.70
   2   8   2    2.40    2.70
  -3  -8  -2   18.00    3.90
   3   8   2   20.30    4.70
   3   8   2   25.10    3.90
  -4  -8  -2   35.10    5.20
   4   8   2   29.40    4.10
   4   8   2   22.80    5.60
  -5  -8  -2  203.98   11.30
   5   8   2  205.28   13.40
   5   8   2  212.78    9.90
   6   8   2   25.20    4.00
   6   8   2   15.20    5.60
   7   8   2   16.70    4.00
   7   8   2   11.30    3.60
   7   8   2   13.40    6.00
   8   8   2    5.20    6.10
   8   8   2    2.50    2.90
   8   8   2    6.30    3.70
   9   8   2    0.40    3.20
   9   8   2    0.20    6.00
  10   8   2    1.30    3.60
  10   8   2   10.30    7.60
  11   8   2   12.80    4.60
  11   8   2    7.20    8.00
   8  -9  -2   27.10    7.70
   8  -9  -2    9.00    7.10
   7  -9  -2    2.20    5.50
   6  -9  -2   16.70    6.60
   6  -9  -2   33.90    7.70
   5  -9  -2   52.19    8.50
   4  -9  -2    4.10    7.30
   3  -9  -2  148.29   10.50
   2  -9  -2   69.19    8.00
   1  -9  -2   34.60    5.50
   0  -9  -2    7.50    3.40
   0   9   2    8.30    3.30
  -1  -9  -2  404.76   18.10
   1   9   2  471.35   19.80
  -2  -9  -2  310.87   15.00
   2   9   2  333.07   15.50
   2   9   2  354.56   16.70
  -3  -9  -2   22.10    4.60
   3   9   2   24.50    4.40
   3   9   2   19.40    4.90
  -4  -9  -2   39.90    5.80
   4   9   2   54.89    7.40
   4   9   2   54.69    5.30
  -5  -9  -2  211.88   11.70
   5   9   2  208.88   10.40
   5   9   2  201.18   13.70
  -6  -9  -2   72.09    7.70
   6   9   2   56.89    9.30
   6   9   2   82.29    6.30
  -7  -9  -2   -3.80    3.00
   7   9   2    4.10    3.00
   7   9   2    2.50    5.30
   8   9   2  189.58   10.80
   8   9   2  194.78   15.50
   9   9   2   59.19    7.40
   9   9   2   46.90   10.40
   9   9   2   57.79    6.70
  10   9   2    8.60    4.60
  10   9   2    0.40    6.70
  10   9   2    2.00    3.70
  11   9   2   -2.70    4.10
  11   9   2   -2.10    4.50
  11   9   2   12.60    8.80
   8 -10  -2   -3.50    5.90
   8 -10  -2    5.20    7.00
   7 -10  -2    2.90    6.20
   7 -10  -2    1.70    6.10
   6 -10  -2    3.90    5.70
   5 -10  -2    3.90    5.10
   4 -10  -2   10.40    5.00
   3 -10  -2    2.40    4.00
   2 -10  -2   13.50    5.30
   1 -10  -2  283.77   15.10
   0 -10  -2  423.16   19.10
  -1 -10  -2   -0.70    3.30
   1  10   2    3.10    3.40
  -2 -10  -2   97.39    8.30
   2  10   2  109.09    9.50
   2  10   2  105.69    8.70
  -3 -10  -2  319.77   15.60
   3  10   2  327.07   17.00
  -4 -10  -2   78.99    8.50
   4  10   2   78.79   10.00
   4  10   2   80.29    7.10
  -5 -10  -2  103.99    8.60
   5  10   2   87.09   10.70
   5  10   2   88.09    7.20
  -6 -10  -2  126.39    9.60
   6  10   2  130.89    8.40
   6  10   2  112.89   11.60
  -7 -10  -2    3.00    3.90
   7  10   2    1.70    4.90
   7  10   2    3.30    3.10
  -8 -10  -2   22.70    5.70
   8  10   2   20.90    7.60
   8  10   2   20.90    4.60
  -9 -10  -2   46.80    7.40
   9  10   2   28.20    9.30
   9  10   2   27.60    5.30
 -10 -10  -2   -0.70    4.90
  10  10   2   13.50    8.30
   7 -11  -2    8.60    6.20
   7 -11  -2   12.70    7.20
   6 -11  -2    3.30    6.30
   5 -11  -2    9.10    5.40
   4 -11  -2   73.29    9.70
   3 -11  -2   42.30    7.70
   2 -11  -2  291.77   16.20
   1 -11  -2   22.10    6.10
   0 -11  -2   39.80    7.10
  -1 -11  -2   30.60    6.10
   1  11   2   37.40    6.60
  -2 -11  -2   34.30    6.30
   2  11   2   49.00    8.00
  -3 -11  -2  137.69   10.90
   3  11   2  169.08   12.60
   3  11   2  179.48   11.40
  -4 -11  -2    1.60    4.00
   4  11   2    7.20    4.10
  -5 -11  -2   31.40    5.90
   5  11   2   37.90    5.60
   5  11   2   42.20    8.80
  -6 -11  -2   22.00    5.50
   6  11   2   13.20    6.40
   6  11   2    9.60    3.90
  -7 -11  -2   57.39    7.80
   7  11   2   66.49    7.10
   7  11   2   84.39   12.30
  -8 -11  -2    6.70    4.80
   8  11   2   -1.00    6.20
   8  11   2    4.30    3.70
  -9 -11  -2   12.20    5.50
   9  11   2   17.30    7.80
 -10 -11  -2   -2.10    4.60
  10  11   2    2.10    7.60
   6 -12  -2    6.00    5.70
   5 -12  -2   -6.10    5.40
   4 -12  -2   -0.50    5.60
   3 -12  -2   -2.20    5.00
   2 -12  -2    0.00    5.10
   1 -12  -2   70.49    9.10
   0 -12  -2    0.50    4.50
  -1 -12  -2  242.08   15.80
   1  12   2  254.67   15.60
  -2 -12  -2    5.30    4.80
   2  12   2   16.40    7.70
  -3 -12  -2   -3.50    3.90
   3  12   2    0.90    4.70
  -4 -12  -2   60.59    7.90
   4  12   2   48.30    8.70
   4  12   2   59.49    8.00
  -5 -12  -2   36.10    6.50
   5  12   2   38.30    8.60
   5  12   2   34.10    6.00
  -6 -12  -2   28.60    6.10
   6  12   2   27.00    7.80
   6  12   2   38.80    9.30
  -7 -12  -2   94.59   10.10
   7  12   2  116.69    8.70
   7  12   2   89.49   12.30
  -8 -12  -2  101.99   10.50
   8  12   2   71.99   12.10
  -9 -12  -2    3.20    5.00
   9  12   2    5.20    6.80
   5 -13  -2    4.70    6.10
   4 -13  -2   16.00    7.40
   3 -13  -2   -3.00    5.60
   2 -13  -2   27.60    7.40
   1 -13  -2  150.38   12.80
   0 -13  -2   22.30    6.80
  -1 -13  -2   12.40    6.00
   1  13   2   18.30    6.70
  -2 -13  -2   54.19    8.40
   2  13   2   42.20    8.40
  -3 -13  -2    0.80    4.60
   3  13   2   -7.00    4.60
   4  13   2   30.40    7.90
   5  13   2   84.19    9.00
   5  13   2   59.09    9.60
  -6 -13  -2   21.00    6.60
   6  13   2   12.30    7.90
   6  13   2   13.90    5.20
   7  13   2  -11.90    3.70
   7  13   2   -0.30    6.70
  -8 -13  -2   22.10    6.10
   8  13   2   14.60    8.10
   3 -14  -2   13.40    7.20
   2 -14  -2   40.20    9.10
   1 -14  -2   21.10    7.10
   0 -14  -2    3.50    5.60
  -1 -14  -2    3.50    5.50
  -2 -14  -2   36.60    8.00
   2  14   2   16.40    6.40
  -3 -14  -2   27.20    7.30
   3  14   2   46.80   10.10
  -4 -14  -2    0.60    4.80
   4  14   2    7.60    6.30
  -5 -14  -2  -10.50    4.80
   5  14   2   12.50    7.10
  -6 -14  -2    0.50    5.30
   6  14   2    6.70    6.90
  -7 -14  -2    2.10    4.90
   7  14   2    8.60    7.60
   1 -15  -2   11.80    6.80
   0 -15  -2    3.30    6.60
  -1 -15  -2   -5.00    5.70
  -2 -15  -2    6.40    6.10
   2  15   2    6.20    6.10
  -3 -15  -2    3.50    5.90
   3  15   2    3.60    6.50
  -4 -15  -2    1.70    5.90
   4  15   2   12.30    8.00
  -5 -15  -2   -1.90    5.80
   5  15   2    3.10    6.90
   4  13  -3   13.70    7.90
  -4 -13   3   20.00    5.80
   3  13  -3   18.40    9.80
   3  13  -3   20.40    8.30
  -3 -13   3   36.30    7.70
   2  13  -3   17.50    7.20
   2  13  -3    7.80    8.90
  -2 -13   3   16.20    6.30
   1  13  -3   23.10    7.60
   1  13  -3   43.40   12.00
  -1 -13   3   44.20    8.10
   0  13  -3    8.20    8.70
   0 -13   3    3.10    5.80
  -1  13  -3    2.70    8.90
   1 -13   3   17.50    7.00
   6  12  -3  -18.00    6.20
   6  12  -3   -1.80    7.00
  -6 -12   3    3.40    2.90
   5  12  -3   32.80   10.00
   5  12  -3   49.10   11.40
  -5 -12   3   40.20    6.10
   4  12  -3   23.00   10.00
   4  12  -3   26.50    7.90
  -4 -12   3   18.70    5.20
   3  12  -3    8.00    6.10
   3  12  -3    3.50    7.10
  -3 -12   3    3.90    4.50
   2  12  -3   38.70   10.30
   2  12  -3   11.40    6.10
  -2 -12   3   10.00    5.30
   1  12  -3  -11.90    6.80
   1  12  -3   11.20    6.20
  -1 -12   3   -1.00    4.40
   0  12  -3   13.00    9.30
   0  12  -3   33.30    7.30
   0 -12   3   23.90    6.50
  -1  12  -3   33.10   10.80
   1 -12   3   20.50    6.60
  -2  12  -3   -2.10    8.00
   2 -12   3  -10.70    4.70
   3 -12   3    5.70    6.10
   7  11  -3   17.30    9.30
   7  11  -3    8.80    7.60
   6  11  -3    0.70    7.00
   6  11  -3   -3.50    6.70
  -6 -11   3    9.70    3.10
   5  11  -3   35.50    8.90
   5  11  -3   37.90    9.90
  -5 -11   3   30.10    5.10
   4  11  -3   41.20    9.00
   4  11  -3   28.70   10.70
  -4 -11   3   42.20    6.00
   3  11  -3   -3.70    4.90
   3  11  -3    3.30    7.10
  -3 -11   3   -1.30    3.60
   2  11  -3    2.80    6.60
  -2 -11   3    5.40    4.20
   1  11  -3   57.29   12.20
   1  11  -3   62.99    9.00
  -1 -11   3   53.09    7.20
   0  11  -3   26.70   10.20
   0  11  -3   35.30    7.10
  -1  11  -3   50.39   11.30
   1 -11   3   77.09    9.50
  -2  11  -3   16.10    9.40
   2 -11   3   21.90    6.70
   3 -11   3    0.10    5.20
   4 -11   3    1.10    5.60
   5 -11   3   -0.10    6.00
   8  10  -3   -3.30    7.20
   8  10  -3    5.80    6.80
   7  10  -3   77.39   12.70
   6  10  -3  108.69   13.60
   6  10  -3   89.09   12.80
  -6 -10   3   90.69    6.30
   5  10  -3   15.40    7.40
   5  10  -3    6.20    6.70
  -5 -10   3    8.80    3.40
   4  10  -3   40.20    9.10
   4  10  -3   51.19    9.20
  -4 -10   3   47.70    5.80
   3  10  -3  216.58   15.70
   3  10  -3  200.48   16.60
  -3 -10   3  225.28   11.50
   2  10  -3    3.60    5.00
   2  10  -3    5.40    7.00
  -2 -10   3   10.40    3.90
   1  10  -3  219.58   18.00
   1  10  -3  222.88   13.90
  -1 -10   3  214.48   12.20
   0  10  -3  436.76   20.20
   0 -10   3  444.36   19.60
  -1  10  -3  396.86   24.80
  -1  10  -3  381.06   17.70
   1 -10   3  374.96   18.30
  -2  10  -3   47.60   10.80
   2 -10   3   43.90    7.40
  -3  10  -3    8.60    7.40
   3 -10   3    3.10    4.70
   4 -10   3   40.90    8.00
   5 -10   3   20.90    7.40
   6 -10   3   -0.70    3.10
   6 -10   3   -3.80    5.80
   9   9  -3   11.00    8.00
   9   9  -3    6.40    7.70
   8   9  -3   12.90    8.40
   7   9  -3   79.89   12.50
   7   9  -3   63.49   11.60
   6   9  -3  104.59   13.60
   6   9  -3   93.79   12.90
  -6  -9   3  105.39    6.00
  -6  -9   3  110.39    5.90
   5   9  -3    8.90    6.50
   5   9  -3    5.60    5.70
  -5  -9   3    4.40    2.70
   4   9  -3   39.60    8.10
   4   9  -3   31.40    8.50
  -4  -9   3   42.50    5.00
   3   9  -3   71.69   10.00
   3   9  -3   64.99   10.60
  -3  -9   3   65.69    5.90
   2   9  -3   14.20    6.70
   2   9  -3   12.20    5.20
  -2  -9   3   13.20    3.80
   1   9  -3  758.22   29.80
   1   9  -3  728.23   34.40
  -1  -9   3  753.62   27.60
   0   9  -3   52.69    6.90
   0   9  -3   51.49   10.30
   0  -9   3   55.69    6.90
  -1   9  -3  134.69   13.50
  -1   9  -3  145.59    9.40
   1  -9   3  150.68   10.30
  -2   9  -3    9.20    6.40
   2  -9   3    9.70    4.80
  -3   9  -3   93.49   13.70
   3  -9   3  111.49    9.80
   4  -9   3   17.60    6.00
   5  -9   3   -0.30    4.80
   6  -9   3   32.60    7.70
   6  -9   3   28.30    5.30
   7  -9   3   19.10    7.30
   9   8  -3   34.90    9.80
   9   8  -3   37.70   11.30
   8   8  -3  103.39   14.30
   8   8  -3  142.09   16.20
   7   8  -3    5.70    7.20
   7   8  -3    7.50    6.40
   6   8  -3   20.50    7.50
   6   8  -3   38.00    8.80
  -6  -8   3   27.40    3.00
  -6  -8   3   20.70    2.70
   5   8  -3   37.20    9.30
   5   8  -3   44.00    9.00
  -5  -8   3   42.20    4.00
  -5  -8   3   41.10    4.00
   4   8  -3  137.49   11.60
   4   8  -3  131.89   12.70
  -4  -8   3  140.79    7.20
  -4  -8   3  114.99    8.10
   3   8  -3   48.90    8.00
   3   8  -3   30.60    7.70
  -3  -8   3   55.59    5.90
   2   8  -3   10.50    4.60
   2   8  -3   12.70    6.00
  -2  -8   3    8.10    3.10
   1   8  -3   98.49   12.20
   1   8  -3  102.19    8.90
  -1  -8   3   92.39    7.10
   0   8  -3  126.19   12.50
   0   8  -3  109.19    8.50
   0  -8   3  111.39    8.00
  -1   8  -3   -4.90    4.20
  -1   8  -3    0.80    2.70
   1  -8   3   -1.90    3.10
  -2   8  -3    3.50    5.80
   2  -8   3    6.10    4.10
  -3   8  -3  242.18   18.40
   3  -8   3  233.38   13.30
  -4   8  -3   40.90    9.60
   4  -8   3   69.29    8.50
   5  -8   3   -2.20    4.50
   6  -8   3   11.50    5.90
   7  -8   3   -1.80    3.50
   7  -8   3    0.70    5.40
   8  -8   3    1.30    2.80
   8  -8   3    0.30    5.20
  10   7  -3   -2.10    6.50
   9   7  -3    5.30    6.30
   8   7  -3   18.80    7.40
   7   7  -3   16.90    6.80
   7   7  -3   29.90    8.20
   6   7  -3    2.10    5.10
   6   7  -3   -0.80    5.30
  -6  -7   3    3.70    1.70
  -6  -7   3    5.60    1.60
   5   7  -3  249.88   16.80
   5   7  -3  255.77   16.60
  -5  -7   3  272.07    9.60
  -5  -7   3  245.88    9.70
   4   7  -3  183.88   14.10
   4   7  -3  211.18   13.90
  -4  -7   3  198.68    8.40
  -4  -7   3  190.18    7.90
   3   7  -3   22.60    6.70
   3   7  -3   22.40    5.80
  -3  -7   3   23.30    3.30
  -3  -7   3   22.70    3.10
   2   7  -3  135.09   11.90
   2   7  -3  157.48   10.40
  -2  -7   3  140.89    8.30
   1   7  -3 1112.49   38.70
   1   7  -3 1080.79   42.80
  -1  -7   3 1086.89   36.40
   0   7  -3    9.50    5.00
   0   7  -3    2.40    2.90
   0  -7   3    0.30    2.60
  -1   7  -3  101.19   10.60
  -1   7  -3  102.09    7.80
   1  -7   3   97.69    7.40
  -2   7  -3  889.01   37.30
   2  -7   3  863.91   31.60
  -3   7  -3   93.89   12.00
   3  -7   3  115.79    8.60
   3  -7   3   89.79    6.70
  -4   7  -3   -3.40    4.80
   4  -7   3    4.80    4.30
   5  -7   3   75.79    6.40
   5  -7   3   78.19    6.30
   5  -7   3   86.99    9.30
   6  -7   3   17.20    4.00
   6  -7   3   12.60    5.30
   7  -7   3  -10.80    3.60
   8  -7   3   22.00    4.70
   8  -7   3   19.50    7.10
   9  -7   3    2.90    5.90
   9  -7   3    1.00    3.00
  10   6  -3   15.60    8.50
   9   6  -3   54.89   11.80
   8   6  -3   53.99   10.60
   7   6  -3   62.09    9.90
   6   6  -3   95.79   12.30
   5   6  -3   21.30    6.70
   5   6  -3   20.00    6.30
  -5  -6   3   17.50    2.20
  -5  -6   3   22.10    2.20
   4   6  -3  121.09   10.30
   4   6  -3  140.89   11.50
  -4  -6   3  123.29    5.40
  -4  -6   3  114.49    5.50
   3   6  -3  117.69    9.50
   3   6  -3  116.39   10.50
  -3  -6   3  111.19    5.60
   2   6  -3   24.50    4.80
   2   6  -3   20.30    5.80
   2   6  -3   22.30    3.40
  -2  -6   3   17.90    3.00
   1   6  -3  612.64   27.30
   1   6  -3  627.34   23.90
  -1  -6   3  635.14   22.00
   0   6  -3   13.30    3.40
   0   6  -3   12.60    4.90
   0  -6   3   10.70    3.00
  -1   6  -3   79.19    5.60
  -1   6  -3   73.49    9.70
   1  -6   3   81.39    5.90
   1  -6   3   82.99    6.40
  -2   6  -3   27.10    6.80
   2  -6   3   21.60    3.50
   2  -6   3   18.10    4.00
  -3   6  -3   97.69   10.30
   3  -6   3   83.99    6.90
   3  -6   3   80.19    5.50
  -4   6  -3   10.90    5.80
   4  -6   3    7.60    4.10
   4  -6   3    5.10    2.40
   5  -6   3   75.29    8.70
   5  -6   3   79.59    5.50
   5  -6   3   63.79    5.70
   6  -6   3   53.89    7.40
   6  -6   3   49.60    5.60
   6  -6   3   56.49    5.40
   7  -6   3    8.00    5.20
   7  -6   3    2.00    2.90
   8  -6   3    1.70    6.10
   8  -6   3    0.30    3.60
   9  -6   3   10.60    6.60
   9  -6   3    7.30    4.20
  10   5  -3   23.50    9.30
   9   5  -3   54.19   10.90
  -9  -5   3   45.80    4.00
  -9  -5   3   56.29    4.10
   8   5  -3    3.90    6.30
  -8  -5   3   -1.50    1.60
   7   5  -3   11.20    7.00
   6   5  -3  505.25   24.60
   5   5  -3   36.20    7.00
   4   5  -3    6.40    4.10
   4   5  -3   -0.90    3.30
  -4  -5   3    4.00    1.20
  -4  -5   3    5.40    1.40
   3   5  -3  725.93   29.40
   3   5  -3  774.92   31.30
  -3  -5   3  790.52   24.30
  -3  -5   3  772.62   24.40
   2   5  -3  571.94   22.80
   2   5  -3  572.64   19.80
   2   5  -3  586.54   25.20
  -2  -5   3  578.64   19.30
   1   5  -3  144.59    8.80
   1   5  -3  160.08    7.70
   1   5  -3  162.68   11.60
  -1  -5   3  171.98    7.50
   0   5  -3  548.15   20.10
   0   5  -3  554.44   24.20
   0  -5   3  539.35   20.20
   0  -5   3  544.65   19.50
  -1   5  -3  403.36   15.20
  -1   5  -3  396.76   20.00
   1  -5   3  411.86   15.50
   1  -5   3  424.26   16.10
  -2   5  -3   67.79    8.90
   2  -5   3   81.69    6.10
   2  -5   3   77.29    5.00
  -3   5  -3  130.29   11.10
   3  -5   3  147.29    6.70
   3  -5   3  130.09    8.50
  -4   5  -3  405.36   21.60
   4  -5   3  404.76   17.50
   4  -5   3  386.46   14.40
   5  -5   3   46.10    6.80
   5  -5   3   48.70    4.60
   6  -5   3    4.40    3.60
   6  -5   3    1.60    2.50
   6  -5   3    5.40    2.60
   7  -5   3    1.30    2.90
   7  -5   3   -0.50    4.10
   8  -5   3   41.10    5.80
   8  -5   3   44.30    8.10
   9  -5   3   -2.60    3.60
   9  -5   3    5.30    6.20
  10  -5   3   16.80    7.20
  10  -5   3    3.20    4.80
  11   4  -3   -2.30    6.70
  10   4  -3    1.30    7.30
  10   4  -3    2.80    2.10
   9   4  -3   40.20    3.40
   9   4  -3   31.20    8.60
  -9  -4   3   33.40    4.00
   8   4  -3   84.89   12.10
   8   4  -3   85.29    4.30
  -8  -4   3   79.89    4.90
   7   4  -3  174.78   14.00
  -7  -4   3  148.29    6.20
   6   4  -3   29.20    6.30
  -6  -4   3   27.00    2.20
   5   4  -3   16.20    5.20
   4   4  -3   50.39    7.20
   3   4  -3 1930.21   65.99
  -3  -4   3 2076.09   60.59
  -3  -4   3 2021.50   60.39
   2   4  -3   44.00    6.90
   2   4  -3   37.00    5.10
   2   4  -3   35.40    2.90
  -2  -4   3   33.60    2.60
   1   4  -3   47.60    3.60
   1   4  -3   47.10    6.50
   1   4  -3   53.59    5.00
  -1  -4   3   48.60    3.50
  -1  -4   3   55.69    4.70
   0   4  -3  339.97   13.10
   0   4  -3  348.57   13.60
   0   4  -3  351.86   17.10
   0  -4   3  344.67   13.00
   0  -4   3  363.46   13.80
  -1   4  -3  649.14   26.40
  -1   4  -3  650.03   21.50
   1  -4   3  630.74   22.30
   1  -4   3  641.14   21.80
  -2   4  -3  113.59    9.50
   2  -4   3  116.59    5.60
   2  -4   3  126.99    7.20
  -3   4  -3   46.60    7.30
   3  -4   3   52.59    3.40
   3  -4   3   52.09    5.10
  -4   4  -3  472.55   22.20
   4  -4   3  425.46   14.80
   4  -4   3  411.26   17.60
   4  -4   3  425.86   15.30
   5  -4   3  167.08    8.00
   5  -4   3  172.18    7.40
   5  -4   3  160.38   10.00
   6  -4   3  174.88   11.30
   6  -4   3  179.88    8.90
   7  -4   3   31.50    4.80
   8  -4   3    0.10    3.20
   8  -4   3   -4.20    4.00
   9  -4   3   -1.50    3.60
   9  -4   3    7.90    5.60
  10  -4   3   15.00    6.70
  10  -4   3    6.30    4.90
  11   3  -3   30.50   10.40
  11   3  -3   25.90    4.20
  10   3  -3   97.29   14.60
  10   3  -3  107.99    6.40
   9   3  -3    1.60    5.60
   9   3  -3    7.50    2.40
   8   3  -3  295.47   11.00
   8   3  -3  307.27   19.60
  -8  -3   3  292.17   11.60
   7   3  -3  230.68    8.50
   7   3  -3  226.78   15.40
  -7  -3   3  219.48    8.80
   6   3  -3   12.30    5.00
   6   3  -3    9.40    1.50
  -6  -3   3   10.50    1.80
   5   3  -3  670.73   27.90
   4   3  -3  287.67   14.90
   3   3  -3  115.19    8.30
   2   3  -3 3391.76  103.49
   2   3  -3 3474.05  107.59
  -2  -3   3 3523.05  103.29
   1   3  -3 3772.02  113.59
   1   3  -3 3595.24  111.19
   1   3  -3 3755.82  116.49
  -1  -3   3 3688.13  111.09
  -1  -3   3 3726.03  113.59
   0   3  -3   95.49    7.60
   0   3  -3   95.49    4.90
   0   3  -3   89.69    5.30
   0  -3   3   90.69    5.20
   0  -3   3   90.39    4.70
  -1   3  -3  149.69    6.30
  -1   3  -3  157.48    7.20
  -1   3  -3  164.58   11.20
   1  -3   3  145.99    7.00
   1  -3   3  152.68    6.50
  -2   3  -3  613.04   25.50
   2  -3   3  662.03   23.50
   2  -3   3  637.24   20.30
  -3   3  -3  248.58   13.80
   3  -3   3  243.08    8.50
   3  -3   3  237.58   10.90
  -4   3  -3  329.37   17.50
   4  -3   3  342.87   11.80
   4  -3   3  344.37   14.90
   4  -3   3  354.86   12.40
   5  -3   3  235.68    9.90
   5  -3   3  245.88   12.20
   6  -3   3  254.27   11.20
   6  -3   3  242.48   13.30
   7  -3   3  276.47   15.10
   7  -3   3  297.47   13.30
   8  -3   3   76.19    8.80
   8  -3   3   78.39    7.40
   9  -3   3   16.90    4.80
   9  -3   3   13.40    5.30
  10  -3   3   15.30    5.30
  10  -3   3   19.40    6.40
  11  -3   3    2.10    5.20
  11  -3   3    3.40    6.20
  11   2  -3   71.19    6.70
  10   2  -3   66.19   11.90
  10   2  -3   56.69    5.70
   9   2  -3    7.30    2.80
   9   2  -3   10.00    7.00
   8   2  -3   17.00   10.90
   8   2  -3   29.60    3.60
   7   2  -3  457.55   15.70
   7   2  -3  428.46   22.40
  -7  -2   3  460.85   16.10
   6   2  -3   33.60    6.60
   6   2  -3   30.40    2.60
  -6  -2   3   30.60    2.90
   5   2  -3  318.27   10.20
   5   2  -3  278.97   15.50
  -5  -2   3  309.37   10.40
   4   2  -3  514.45   21.60
   3   2  -3    8.00    3.20
   2   2  -3 1155.58   37.80
  -2  -2   3 1076.59   37.30
   1   2  -3 3401.76   99.29
   1   2  -3 3320.07  104.19
   1   2  -3 3234.78  101.69
  -1  -2   3 3354.66  103.09
  -1  -2   3 3295.77   99.19
   0   2  -3 3461.15  102.49
   0   2  -3 3426.86  105.89
   0   2  -3 3397.96  101.69
   0  -2   3 3440.76  101.69
   0  -2   3 3329.47  102.29
   0  -2   3 3220.68  105.19
  -1   2  -3  153.98    6.00
  -1   2  -3  159.28    7.50
  -1   2  -3  160.18    9.30
   1  -2   3  167.38    9.40
   1  -2   3  152.98    6.00
   1  -2   3  156.08    6.90
  -2   2  -3 5319.77  165.38
  -2   2  -3 5391.76  162.08
   2  -2   3 5420.96  162.08
  -3   2  -3 2585.44   85.29
   3  -2   3 2655.83   82.19
   3  -2   3 2669.33   79.39
   3  -2   3 2697.63   79.19
  -4   2  -3  536.35   22.90
   4  -2   3  527.45   20.10
   4  -2   3  546.45   17.80
   5  -2   3  795.52   28.50
   5  -2   3  779.32   26.10
   6  -2   3 2122.89   66.49
   6  -2   3 2096.59   68.49
   7  -2   3   14.20    3.90
   7  -2   3    9.70    4.40
   8  -2   3    1.60    3.30
   8  -2   3   -1.90    3.40
   9  -2   3   37.00    6.40
   9  -2   3   50.79    8.00
  10  -2   3   19.80    6.80
  10  -2   3   22.10    6.10
  11  -2   3    6.20    5.90
  11  -2   3    7.80    5.30
  11   1  -3   -0.80    7.20
  11   1  -3    6.00    3.80
  10   1  -3    0.30    6.00
  10   1  -3    0.30    3.00
   9   1  -3   17.90    3.70
   9   1  -3   17.30    7.20
   8   1  -3   51.19    9.60
   8   1  -3   70.09    5.30
   7   1  -3    3.30    1.90
   7   1  -3    0.70    4.70
  -7  -1   3    2.20    2.30
   6   1  -3  229.58    8.90
   6   1  -3  210.68   13.60
  -6  -1   3  224.98    9.10
   5   1  -3  301.47   15.80
   5   1  -3  326.87   11.00
  -5  -1   3  306.57   11.10
   4   1  -3  894.41   32.60
   4   1  -3  892.71   27.00
  -4  -1   3  855.51   27.10
   3   1  -3  996.80   36.10
   2   1  -3  300.77   12.90
  -2  -1   3  308.37   12.90
   1   1  -3 2649.93   78.89
   1   1  -3 2481.55   81.29
  -1  -1   3 2597.84   81.49
  -1  -1   3 2847.92   78.89
   0   1  -3  211.98   10.60
   0   1  -3  212.58    7.70
   0   1  -3  202.68    8.30
   0  -1   3  227.08    8.50
   0  -1   3  219.58    7.70
  -1   1  -3  113.69    7.20
  -1   1  -3  120.19    5.40
  -1   1  -3  116.79    4.50
   1  -1   3  125.99    5.50
   1  -1   3  123.79    4.60
   1  -1   3  116.89    7.10
  -2   1  -3  268.47   12.40
  -2   1  -3  274.37   10.30
   2  -1   3  242.58   10.10
   2  -1   3  263.97   12.20
  -3   1  -3  179.88   10.10
   3  -1   3  163.98    9.70
   3  -1   3  186.08    8.40
   3  -1   3  182.08    6.10
  -4   1  -3  335.07   16.90
   4  -1   3  319.07   13.50
   4  -1   3  336.47   11.80
   5  -1   3 1024.70   33.30
   5  -1   3 1013.30   34.90
   6  -1   3  848.02   30.90
   6  -1   3  869.31   29.60
   7  -1   3  157.88   10.20
   8  -1   3   22.30    5.60
   8  -1   3   20.20    4.80
   9  -1   3    1.20    4.30
   9  -1   3    0.20    3.70
  10  -1   3   -4.80    4.00
  10  -1   3    5.80    4.60
  11  -1   3    8.90    5.50
  11  -1   3   15.00    6.80
  11   0  -3    2.90    3.90
  11   0  -3    9.20    7.80
  10   0  -3   19.40    4.70
  10   0  -3   23.80    8.60
   9   0  -3   90.39    7.20
   9   0  -3   75.69   12.00
   8   0  -3  127.69    7.60
   8   0  -3  146.59   12.90
   7   0  -3  175.68    8.50
   7   0  -3  167.68   12.70
   6   0  -3  626.54   20.90
   6   0  -3  596.94   26.20
  -6   0   3  599.64   21.00
   5   0  -3  306.37   15.90
   5   0  -3  342.27   12.00
   4   0  -3  185.58    7.00
   4   0  -3  190.68   10.70
  -4   0   3  170.38    7.00
   3   0  -3   74.79    6.10
   3   0  -3   64.59    3.10
  -3   0   3   69.29    3.30
   2   0  -3 1511.45   46.00
   2   0  -3 1576.64   49.70
   2   0  -3 1491.25   46.10
  -2   0   3 1569.94   49.70
   1   0  -3 2103.99   65.19
   1   0  -3 2000.40   62.59
  -1   0   3 2119.79   65.19
  -1   0   3 2167.38   62.69
   0   0  -3   67.19    3.10
   0   0  -3   70.89    3.80
   0   0   3   70.99    3.20
  -1   0  -3  345.97   11.20
  -1   0  -3  355.96   11.90
  -1   0  -3  347.87   13.90
   1   0   3  329.47   11.80
   1   0   3  344.07   13.70
  -2   0  -3   12.50    1.00
  -2   0  -3   13.70    2.90
  -2   0  -3   20.00    2.70
   2   0   3   19.10    2.50
   2   0   3   14.40    2.90
  -3   0  -3   47.60    4.70
  -3   0  -3   44.00    2.70
  -3   0  -3   44.30    3.40
   3   0   3   42.20    2.50
   3   0   3   46.80    4.60
   3   0   3   43.40    3.70
  -4   0  -3 1093.79   33.80
   4   0   3 1065.89   35.00
   4   0   3 1041.60   33.60
   4   0   3 1024.30   36.80
  -5   0  -3  456.05   17.90
   5   0   3  461.85   17.70
   5   0   3  440.36   16.60
  -6   0  -3   30.30    4.40
   6   0   3   34.50    4.80
   6   0   3   52.09    5.10
   7   0   3  188.78   10.60
   7   0   3  196.48   11.00
   8   0   3  155.28   10.20
   8   0   3  145.09   10.10
   9   0   3    8.90    4.60
   9   0   3    9.00    5.30
  10   0   3    8.20    5.30
  10   0   3    5.90    4.90
  11   0   3   81.79   10.40
  11   0   3   86.99   10.80
  12   0   3   -4.40    5.40
  12   0   3    8.00    5.70
  11  -1  -3   -5.50    6.60
  10  -1  -3   -2.40    6.40
  10  -1  -3    5.10    3.80
   9  -1  -3   65.79    6.90
   9  -1  -3   71.09   11.20
   8  -1  -3   11.00    3.60
   8  -1  -3   11.10    5.80
   7  -1  -3   17.90    6.10
   7  -1  -3    7.10    3.00
   6  -1  -3  225.58   14.10
   5  -1  -3    5.30    2.00
   5  -1  -3   11.70    4.30
  -5   1   3    7.20    2.20
   4  -1  -3  533.35   22.10
   4  -1  -3  533.15   18.40
  -4   1   3  574.44   19.60
   3  -1  -3  810.62   29.00
   3  -1  -3  807.62   25.70
  -3   1   3  804.82   25.80
   2  -1  -3  750.02   25.50
   2  -1  -3  704.03   22.70
  -2   1   3  713.73   22.80
   1  -1  -3  580.34   18.00
   1  -1  -3  551.54   19.60
   1  -1  -3  546.65   17.50
   0  -1  -3 2699.43   77.99
   0   1   3 2493.75   77.89
  -1  -1  -3  658.23   21.10
  -1  -1  -3  673.63   22.80
  -1  -1  -3  677.83   21.40
   1   1   3  674.33   21.50
  -2  -1  -3  667.03   21.50
  -2  -1  -3  673.83   22.30
  -2  -1  -3  699.83   23.20
   2   1   3  700.23   23.30
   2   1   3  680.23   22.30
   2   1   3  677.73   21.50
  -3  -1  -3  355.56   12.50
  -3  -1  -3  347.87   13.80
  -3  -1  -3  362.56   13.10
   3   1   3  362.26   14.00
   3   1   3  361.66   13.20
   3   1   3  334.47   12.30
  -4  -1  -3  998.60   32.10
   4   1   3  974.50   33.60
   4   1   3 1000.60   32.00
   4   1   3  949.21   32.40
  -5  -1  -3  206.78    9.60
   5   1   3  197.08   10.70
   5   1   3  199.98    9.70
   5   1   3  205.38    9.50
   6   1   3  114.49    7.50
   6   1   3  112.09    7.40
   7   1   3    4.50    3.40
   7   1   3    3.70    3.00
   8   1   3   35.00    6.00
   8   1   3   34.20    5.80
   9   1   3    6.90    4.20
   9   1   3    5.40    4.60
  10   1   3   -1.20    4.40
  10   1   3   -1.40    4.00
  11   1   3    0.00    4.70
  11   1   3   -3.40    5.40
  12   1   3    6.80    5.80
  12   1   3    1.10    5.50
  11  -2  -3    4.20    7.10
  11  -2  -3    3.10    4.60
  10  -2  -3   57.29   11.20
  10  -2  -3   67.89    8.10
   9  -2  -3   33.40    8.60
   9  -2  -3   25.50    5.10
   8  -2  -3   46.70    8.60
   8  -2  -3   78.09    7.00
   7  -2  -3  553.34   25.90
   7  -2  -3  562.64   21.30
   6  -2  -3  121.09   10.00
   6  -2  -3  125.79    7.40
   5  -2  -3  428.16   16.90
   5  -2  -3  405.36   19.20
   4  -2  -3   63.89    6.10
   4  -2  -3   58.69    4.40
  -4   2   3   47.90    4.00
   3  -2  -3  829.72   29.70
   3  -2  -3  822.82   26.90
   2  -2  -3  467.75   15.60
   2  -2  -3  441.96   17.60
  -2   2   3  462.45   15.70
  -1  -2  -3 1035.50   33.80
  -1  -2  -3 1098.29   33.60
   1   2   3 1107.89   33.70
  -2  -2  -3 1393.16   42.80
  -2  -2  -3 1414.06   43.00
  -2  -2  -3 1317.47   42.90
   2   2   3 1397.16   43.00
   2   2   3 1367.06   42.90
   2   2   3 1400.16   43.00
  -3  -2  -3  165.48    7.40
  -3  -2  -3  163.08    7.20
  -3  -2  -3  168.98    7.40
   3   2   3  170.38    7.40
   3   2   3  155.58    7.20
   3   2   3  167.58    7.40
  -4  -2  -3   26.30    3.60
   4   2   3   30.70    3.80
   4   2   3   26.10    3.60
   4   2   3   26.50    3.40
  -5  -2  -3  394.66   15.70
   5   2   3  384.56   15.80
   5   2   3  400.86   15.20
   5   2   3  362.96   15.40
   6   2   3   69.39    5.70
   6   2   3   64.49    6.10
   7   2   3   82.69    7.50
   7   2   3   84.59    6.80
   8   2   3   10.90    4.60
   8   2   3    1.60    3.30
   9   2   3    7.80    4.70
   9   2   3    7.90    4.40
  10   2   3   75.69    9.00
  10   2   3   72.99   10.10
  11   2   3   38.60    7.20
  11   2   3   38.00    8.20
  12   2   3    3.20    6.20
  12   2   3    2.50    5.50
  11  -3  -3   -2.30    6.90
  11  -3  -3    2.60    5.20
  10  -3  -3    2.30    6.70
  10  -3  -3   -0.40    4.30
   9  -3  -3   10.00    6.90
   9  -3  -3   14.70    5.00
   8  -3  -3   26.40    7.80
   8  -3  -3   31.00    5.60
   7  -3  -3  177.78   10.10
   7  -3  -3  178.98   13.30
   6  -3  -3  153.18   11.60
   6  -3  -3  148.29    8.80
   5  -3  -3   76.39    5.90
   5  -3  -3   85.99    8.10
   4  -3  -3 2580.24   83.09
   4  -3  -3 2706.73   85.09
   3  -3  -3 1665.93   59.59
   3  -3  -3 1498.85   48.20
  -3   3   3 1441.56   48.10
   2  -3  -3 1330.17   42.00
  -2   3   3 1319.77   42.10
   1  -3  -3   50.89    3.70
  -1   3   3   48.10    3.60
  -1  -3  -3  938.91   29.70
   1   3   3  874.51   29.50
   1   3   3  939.01   29.20
  -2  -3  -3  308.37    9.90
  -2  -3  -3  309.97   11.10
  -2  -3  -3  300.47   11.60
   2   3   3  298.67   11.00
   2   3   3  285.27   11.40
  -3  -3  -3  229.48    9.70
  -3  -3  -3  215.08    9.00
   3   3   3  211.48    9.00
   3   3   3  222.48    9.60
   3   3   3  226.38    8.00
  -4  -3  -3 3072.09   95.09
   4   3   3 3025.90   93.39
   4   3   3 3062.19   93.89
   4   3   3 3119.49   94.79
   5   3   3  238.58   10.50
   5   3   3  229.98   10.40
   5   3   3  240.18   11.50
   6   3   3  734.03   26.00
   6   3   3  745.43   27.60
   6   3   3  731.43   26.60
   7   3   3  251.17   12.10
   7   3   3  266.27   14.00
   8   3   3   24.40    5.90
   8   3   3   23.10    4.70
   9   3   3   72.49    9.50
   9   3   3   60.59    7.20
  10   3   3   10.70    6.10
  10   3   3   10.10    5.20
  11   3   3    3.60    4.60
  11   3   3    6.50    6.10
  12   3   3    5.00    5.50
  12   3   3   -0.70    5.70
  10  -4  -3    2.20    6.20
  10  -4  -3    0.90    4.70
   9  -4  -3   13.90    5.80
   9  -4  -3    7.60    6.70
   8  -4  -3   50.19    7.30
   8  -4  -3   31.60    8.00
   7  -4  -3   15.30    6.30
   7  -4  -3   10.40    4.30
   6  -4  -3   32.20    5.30
   6  -4  -3   30.10    6.40
   5  -4  -3  230.58   11.20
   5  -4  -3  219.98   13.30
   4  -4  -3 1335.57   43.80
   4  -4  -3 1329.57   46.40
   3  -4  -3   57.89    5.60
   2  -4  -3  162.28    7.80
  -2   4   3  164.18    8.00
   1  -4  -3   14.20    2.70
  -1   4   3   11.30    2.40
   0  -4  -3  638.54   22.40
   0  -4  -3  689.73   22.60
   0  -4  -3  640.94   21.70
  -1  -4  -3 2626.24   80.19
  -1  -4  -3 2772.62   81.19
   1   4   3 2697.23   80.39
   1   4   3 2444.96   80.89
  -2  -4  -3   13.90    2.60
  -2  -4  -3   14.80    2.10
   2   4   3   22.20    2.70
   2   4   3    9.30    2.20
  -3  -4  -3   30.00    2.90
  -3  -4  -3   32.80    4.20
   3   4   3   30.90    4.00
   3   4   3   29.80    3.30
   4   4   3 1095.29   35.70
   4   4   3 1050.49   34.00
   4   4   3  984.60   32.30
   5   4   3   79.39    6.60
   5   4   3   81.79    5.60
   5   4   3   81.09    4.90
   6   4   3  225.68   12.30
   6   4   3  230.38   10.60
   7   4   3   26.90    5.70
   7   4   3   10.80    3.50
   7   4   3   17.10    4.20
   8   4   3  194.28   12.80
   8   4   3  178.18   10.30
   9   4   3   29.70    5.50
   9   4   3   30.80    7.00
  10   4   3   47.20    6.80
  10   4   3   31.40   11.70
  11   4   3    6.40    4.70
  11   4   3    7.10    6.30
  12   4   3    2.60    6.30
  12   4   3    2.70    5.20
  10  -5  -3   -1.30    6.20
  10  -5  -3   -8.10    4.70
   9  -5  -3   49.60   10.20
   9  -5  -3   59.39    8.40
   8  -5  -3   31.70    9.00
   8  -5  -3   46.00    7.40
   7  -5  -3   11.60    5.90
   7  -5  -3   17.30    5.00
   6  -5  -3  321.47   17.50
   6  -5  -3  298.37   14.80
   5  -5  -3  756.22   27.80
   5  -5  -3  745.13   30.30
   4  -5  -3   32.90    4.70
   3  -5  -3  437.36   17.40
   2  -5  -3 1315.77   43.10
   1  -5  -3 1122.19   37.10
   0  -5  -3  722.03   24.80
   0  -5  -3  691.03   24.50
   0   5   3  703.03   25.80
  -1  -5  -3  892.61   29.00
  -1  -5  -3  981.50   30.50
  -1  -5  -3  851.51   28.70
  -1  -5  -3  844.22   29.70
   1   5   3  859.91   29.90
  -2  -5  -3  516.55   18.00
  -2  -5  -3  507.85   16.40
   2   5   3  506.95   17.90
   2   5   3  518.05   19.20
   3   5   3  384.16   17.70
   3   5   3  414.76   14.90
   4   5   3 3750.52  119.69
   4   5   3 4046.50  120.99
   5   5   3 3899.91  121.49
   5   5   3 4003.50  119.79
   5   5   3 4052.29  124.29
   6   5   3  963.50   34.80
   6   5   3  923.01   31.90
   7   5   3  129.59    7.80
   7   5   3  128.69    7.90
   7   5   3  112.89    9.30
   8   5   3   93.19    9.60
   8   5   3   98.39    7.40
   9   5   3  124.79   11.70
   9   5   3  128.19    9.20
  10   5   3    3.70    4.00
  10   5   3   10.90    6.40
  11   5   3  132.99   10.70
  11   5   3  141.59   15.30
  12   5   3   85.19    9.60
  12   5   3   93.89   13.50
  10  -6  -3   -4.90    5.30
  10  -6  -3   -7.30    6.20
   9  -6  -3    1.00    5.00
   9  -6  -3    3.20    5.90
   8  -6  -3   15.60    6.20
   8  -6  -3   13.30    7.10
   7  -6  -3   50.89    9.10
   7  -6  -3   54.99    7.50
   6  -6  -3   85.49   10.60
   6  -6  -3   92.29    8.60
   5  -6  -3  206.68   13.20
   5  -6  -3  182.88   11.20
   4  -6  -3  135.99    8.90
   3  -6  -3  125.09    8.30
   2  -6  -3  347.37   14.90
   1  -6  -3  264.27   12.00
   0  -6  -3   18.70    3.30
   0  -6  -3   25.50    4.00
  -1  -6  -3   13.30    2.60
  -1  -6  -3    9.60    2.60
   1   6   3   15.30    3.20
  -2  -6  -3   82.19    4.50
  -2  -6  -3   79.89    6.70
   2   6   3   77.19    6.20
   3   6   3   18.00    3.00
   3   6   3   14.70    3.70
   4   6   3   40.80    4.50
   4   6   3   36.10    5.50
   5   6   3   16.10    4.30
   5   6   3   19.60    3.40
   5   6   3   17.70    2.10
   6   6   3  103.39    8.90
   6   6   3   84.19    6.40
   7   6   3   -3.70    2.90
   7   6   3    3.70    2.90
   8   6   3  138.09    9.20
   8   6   3  202.28   13.40
   9   6   3   60.39   10.80
   9   6   3   46.10    6.10
  10   6   3    9.10    4.30
  10   6   3   18.20    7.20
  11   6   3  117.09   14.00
  11   6   3  103.59    9.40
  12   6   3   63.99    8.60
  12   6   3   99.19   14.40
   9  -7  -3   -2.10    4.90
   9  -7  -3   -0.30    5.50
   8  -7  -3   15.40    5.80
   8  -7  -3   24.00    7.70
   7  -7  -3  193.98   15.20
   7  -7  -3  215.88   13.80
   6  -7  -3   14.90    5.30
   6  -7  -3   12.40    6.10
   5  -7  -3    9.00    4.50
   4  -7  -3   38.80    6.20
   3  -7  -3  692.63   26.30
   2  -7  -3    0.90    3.00
   1  -7  -3   81.69    6.40
   0  -7  -3 1037.00   36.30
   0  -7  -3 1033.10   35.60
  -1  -7  -3  626.74   22.80
  -1  -7  -3  596.94   23.00
   1   7   3  631.44   23.50
  -2  -7  -3  283.07   11.40
  -2  -7  -3  276.77   12.50
   2   7   3  265.87   13.10
  -3  -7  -3   80.19    6.50
   3   7   3   72.09    6.70
   4   7   3  519.15   19.10
   4   7   3  517.85   21.80
   5   7   3  376.56   17.70
   5   7   3  339.27   14.30
   6   7   3  936.01   31.30
   6   7   3  879.11   34.70
   6   7   3  900.31   29.10
   7   7   3  276.57   16.30
   7   7   3  249.88   12.30
   8   7   3   53.39    8.50
   9   7   3   24.30    7.10
   9   7   3   36.10    5.60
  10   7   3   -8.00    4.70
  10   7   3   -1.00    3.70
  11   7   3   66.19   11.90
  11   7   3   69.49    8.30
   9  -8  -3    5.70    6.50
   9  -8  -3    6.40    7.40
   8  -8  -3    7.50    5.70
   8  -8  -3    3.30    6.20
   7  -8  -3    4.20    5.00
   6  -8  -3   83.39    9.90
   6  -8  -3   87.49   11.30
   5  -8  -3   22.90    6.10
   4  -8  -3   83.19    7.80
   3  -8  -3  294.07   14.90
   2  -8  -3  310.07   14.90
   1  -8  -3  326.37   14.90
  -1  -8  -3  252.37   12.30
  -1  -8  -3  238.08   11.90
   1   8   3  237.88   12.30
  -2  -8  -3  665.33   25.00
   2   8   3  667.93   25.90
  -3  -8  -3  628.34   23.20
   3   8   3  569.74   24.00
  -4  -8  -3  328.67   15.10
   4   8   3  335.47   16.80
   5   8   3    0.10    1.40
   5   8   3    3.30    3.30
   6   8   3   48.70    7.90
   6   8   3   40.60    3.40
   6   8   3   60.19    6.10
   7   8   3  661.03   28.40
   7   8   3  611.84   21.60
   7   8   3  636.24   23.70
   8   8   3   30.70    4.20
   8   8   3   24.50    4.70
   8   8   3   37.70    8.10
   9   8   3    4.40    4.00
   9   8   3    4.40    6.10
  10   8   3    4.30    4.20
  10   8   3    4.40    7.10
  11   8   3   59.89   12.30
  11   8   3   49.40    7.00
   8  -9  -3   -1.50    5.50
   8  -9  -3    3.00    6.20
   7  -9  -3   11.20    7.20
   6  -9  -3   40.50    8.60
   6  -9  -3   43.00    8.20
   5  -9  -3    8.70    4.90
   4  -9  -3   29.90    6.70
   3  -9  -3   27.90    5.90
   2  -9  -3   25.90    5.40
   1  -9  -3   70.49    8.00
   0  -9  -3    2.60    3.50
  -1  -9  -3   18.80    4.50
   1   9   3   24.80    5.00
  -2  -9  -3  456.65   18.70
  -2  -9  -3  433.56   19.00
   2   9   3  477.15   20.30
  -3  -9  -3  104.49    8.10
   3   9   3   93.89    8.70
  -4  -9  -3  415.06   18.60
   4   9   3  448.36   20.70
  -5  -9  -3   53.19    7.00
   5   9   3   50.99    3.90
   5   9   3   40.90    6.80
   6   9   3   59.69    3.90
   6   9   3   65.39    8.80
   7   9   3   30.20    7.60
   7   9   3   28.90    4.70
   7   9   3   24.90    3.10
   8   9   3   13.50    3.00
   8   9   3   15.30    4.50
   8   9   3   10.10    6.40
   9   9   3   67.89   11.10
   9   9   3   50.59    6.50
   9   9   3   43.10    5.20
  10   9   3   88.29    8.40
  10   9   3   89.69   13.10
  11   9   3    0.60    3.90
  11   9   3   37.20    6.70
  11   9   3   13.80    8.90
   8 -10  -3    1.00    6.60
   8 -10  -3    1.10    6.00
   7 -10  -3   18.50    7.20
   7 -10  -3    8.40    7.10
   6 -10  -3    6.50    6.20
   6 -10  -3   -1.00    5.10
   5 -10  -3   12.20    5.60
   4 -10  -3   20.00    5.50
   2 -10  -3  632.14   26.10
   1 -10  -3  961.10   35.60
   0 -10  -3  130.69    9.50
  -1 -10  -3  174.38   11.20
   1  10   3  185.58   11.60
  -2 -10  -3  604.24   24.40
   2  10   3  605.64   25.70
  -3 -10  -3   85.39    8.90
  -3 -10  -3   64.49    6.70
   3  10   3   84.09    9.50
  -4 -10  -3    6.10    4.00
   4  10   3   -2.00    3.00
  -5 -10  -3  294.97   14.70
   5  10   3  253.97   16.20
  -6 -10  -3  139.29   10.70
   6  10   3  142.39    6.80
   6  10   3  152.88   12.50
  -7 -10  -3   24.50    5.80
   7  10   3   23.00    7.60
  -8 -10  -3   16.20    5.70
   8  10   3   14.20    7.00
   9  10   3   87.29   13.00
  10  10   3   21.80    9.10
  10  10   3   12.80    5.40
   7 -11  -3   36.50    9.40
   7 -11  -3   33.30    8.50
   6 -11  -3    7.80    6.50
   5 -11  -3    4.10    5.90
   4 -11  -3   -4.50    4.50
   3 -11  -3    7.70    5.40
   2 -11  -3   48.90    7.50
   1 -11  -3   -3.90    3.40
   0 -11  -3  154.38   11.40
  -1 -11  -3    5.10    4.60
   1  11   3    7.70    4.80
  -2 -11  -3   95.69    9.00
   2  11   3   93.69   10.50
  -3 -11  -3   22.50    5.50
   3  11   3   36.60    7.20
  -4 -11  -3   17.80    5.20
   4  11   3   25.10    6.80
  -5 -11  -3    8.10    4.50
   5  11   3    9.30    5.00
  -6 -11  -3   44.20    7.20
   6  11   3   64.39    9.60
  -7 -11  -3   19.60    5.80
   7  11   3   12.00    6.60
  -8 -11  -3    9.40    5.40
   8  11   3   -1.60    5.50
  -9 -11  -3    6.20    5.50
   9  11   3   18.00    8.20
 -10 -11  -3   27.10    7.40
  10  11   3   27.60    9.70
   6 -12  -3    6.20    6.80
   5 -12  -3    4.10    6.40
   4 -12  -3    9.70    6.10
   3 -12  -3   45.60    8.20
   2 -12  -3    3.90    5.40
   1 -12  -3    0.70    4.90
   0 -12  -3  486.55   22.60
  -1 -12  -3   40.30   10.60
   1  12   3   30.00    6.40
  -2 -12  -3   22.00    6.30
   2  12   3   15.90    9.20
  -3 -12  -3   12.50    5.20
   3  12   3   21.20    6.70
  -4 -12  -3  306.87   16.80
   4  12   3  343.77   19.10
  -5 -12  -3   12.80    5.20
   5  12   3   18.80    6.80
  -6 -12  -3   65.79    8.80
   6  12   3   41.90    9.70
  -7 -12  -3   44.00    7.40
   7  12   3   54.89   10.50
   8  12   3   -5.90    5.00
  -9 -12  -3   29.80    7.10
   9  12   3   35.80   10.00
   5 -13  -3    6.30    6.50
   4 -13  -3   11.40    6.70
   3 -13  -3    9.40    6.50
   2 -13  -3    9.20    6.10
   1 -13  -3    9.70    6.40
   0 -13  -3  196.38   14.10
  -1 -13  -3  286.47   16.80
  -2 -13  -3   77.19    9.60
   2  13   3   53.69    8.60
  -3 -13  -3   50.39    7.90
   3  13   3   53.99    9.90
  -4 -13  -3   33.00    7.10
   4  13   3   25.30    7.60
  -5 -13  -3   76.19    9.50
   5  13   3   69.49   11.30
  -6 -13  -3    3.40    4.80
   6  13   3    4.60    6.30
  -7 -13  -3    9.10    5.50
   7  13   3   16.90    7.60
  -8 -13  -3    0.70    5.20
   8  13   3    9.20    7.80
   3 -14  -3    5.40    6.50
   2 -14  -3    1.90    5.00
   1 -14  -3    2.30    5.80
   0 -14  -3   -2.40    5.50
  -1 -14  -3   -1.10    5.40
  -2 -14  -3    0.80    5.40
   2  14   3   14.10    6.60
  -3 -14  -3    2.30    5.70
   3  14   3    1.10    5.70
  -4 -14  -3    7.80    5.80
   4  14   3   16.10    7.70
  -5 -14  -3   24.00    6.70
   5  14   3   10.30    6.80
  -6 -14  -3   10.80    5.80
   6  14   3   12.80    7.70
  -7 -14  -3    4.20    5.40
   7  14   3   11.80    6.10
   2 -15  -3   -8.80    5.40
   1 -15  -3   17.40    7.60
   0 -15  -3    4.30    6.40
  -1 -15  -3    6.20    6.30
  -2 -15  -3   51.29    9.60
  -3 -15  -3   39.80    8.70
   3  15   3   54.69   10.30
  -4 -15  -3    6.50    6.20
   4  15   3   18.30    7.70
  -5 -15  -3    9.30    6.60
   5  15   3   13.50    7.80
  -6 -15  -3   15.20    7.50
   6  15   3   18.30    8.10
   4  12  -4    3.60    6.90
   4  12  -4   -5.90    8.00
  -4 -12   4   -0.70    3.90
   3  12  -4   -0.20    6.20
   3  12  -4    7.50    8.20
  -3 -12   4    1.10    4.50
   2  12  -4   -4.10    8.10
   2  12  -4    2.90    6.10
  -2 -12   4   11.10    5.30
   1  12  -4   -2.40    7.60
   1  12  -4    7.90    5.80
  -1 -12   4    2.30    4.90
   0  12  -4   11.20    9.00
   0  12  -4    6.80    5.30
   0 -12   4   -7.20    4.60
  -1  12  -4    7.90    9.80
   1 -12   4   -5.80    4.80
  -2  12  -4   16.30    9.60
   2 -12   4    9.10    6.20
   6  11  -4  103.09   15.40
   6  11  -4  116.19   16.10
   5  11  -4  111.79   15.80
   5  11  -4  133.09   15.90
   4  11  -4   45.90   10.80
   4  11  -4   36.90    9.20
  -4 -11   4   48.40    6.00
   3  11  -4   -1.40    6.60
   3  11  -4   -1.90    5.10
  -3 -11   4    3.70    4.00
   2  11  -4    4.80    5.30
   2  11  -4   10.10    8.00
  -2 -11   4   10.80    4.60
   1  11  -4   34.80    7.50
   1  11  -4   45.50   11.90
  -1 -11   4   18.20    5.50
   0  11  -4    2.50    4.70
   0  11  -4   -4.10    6.10
   0 -11   4   -2.40    4.00
  -1  11  -4   82.09   14.70
   1 -11   4   82.39    9.60
  -2  11  -4  221.58   20.00
   2 -11   4  191.88   14.30
  -3  11  -4   68.39   14.10
   3 -11   4   76.19   10.00
   4 -11   4   20.90    7.60
   7  10  -4   32.90   10.50
   7  10  -4   20.10    9.00
   6  10  -4   -1.50    6.40
   6  10  -4    7.60    7.30
   5  10  -4   12.10    7.70
   5  10  -4   10.90    7.10
  -5 -10   4   15.80    3.30
   4  10  -4  135.49   16.60
   4  10  -4  157.98   14.40
  -4 -10   4  164.18    8.90
   3  10  -4    8.90    7.60
   3  10  -4   11.30    5.90
  -3 -10   4    9.40    4.00
   2  10  -4  121.59   11.70
   2  10  -4  120.99   15.80
  -2 -10   4  149.09    9.40
   1  10  -4   86.49    9.70
   1  10  -4   59.79   11.70
  -1 -10   4   83.99    8.30
   0  10  -4   16.70    5.40
   0  10  -4   13.50    8.50
   0 -10   4   14.20    5.10
  -1  10  -4   81.19    8.60
  -1  10  -4   83.99   14.00
   1 -10   4   85.49   13.10
  -2  10  -4   98.79   14.80
   2 -10   4  111.29   10.30
  -3  10  -4   10.00    8.10
   3 -10   4   -4.40    4.80
   4 -10   4   12.40    6.10
   5 -10   4    9.70    6.30
   6 -10   4    1.20    6.00
   8   9  -4   -0.80    7.20
   8   9  -4   -8.60    5.00
   7   9  -4   14.80    7.90
   7   9  -4   10.20    7.60
   6   9  -4    4.80    7.90
   6   9  -4    1.30    6.00
   5   9  -4   11.50    6.90
   5   9  -4   11.60    6.80
  -5  -9   4    6.40    2.40
  -5  -9   4    9.70    2.70
   4   9  -4   10.70    7.30
   4   9  -4   -2.20    4.80
  -4  -9   4   11.80    4.50
   3   9  -4    4.20    5.20
   3   9  -4   -4.80    6.00
  -3  -9   4    2.10    2.90
   2   9  -4   -4.70    5.30
   2   9  -4    8.30    5.10
  -2  -9   4    4.90    3.20
   1   9  -4    8.30    7.20
   1   9  -4    0.80    4.20
  -1  -9   4   12.10    4.00
   0   9  -4   26.00    5.30
   0  -9   4   24.90    5.00
  -1   9  -4   77.99   13.10
  -1   9  -4   85.59    7.50
   1  -9   4   71.69    8.00
  -2   9  -4  109.69   15.20
   2  -9   4  100.89    9.60
  -3   9  -4  114.89   15.70
   3  -9   4  107.09   10.10
  -4   9  -4   10.90    8.00
   4  -9   4   14.50    6.10
   5  -9   4   -3.60    4.90
   5  -9   4    3.10    3.40
   6  -9   4   -4.10    5.10
   6  -9   4    1.30    2.50
   7  -9   4    1.10    5.60
   9   8  -4   23.10   10.30
   9   8  -4    1.80    7.10
   8   8  -4    2.80    6.70
   8   8  -4    7.30    7.10
   7   8  -4   13.10    7.70
   6   8  -4   40.50    9.40
   6   8  -4   46.50   10.30
   5   8  -4  187.48   16.00
   5   8  -4  191.88   15.10
  -5  -8   4  190.98    7.40
  -5  -8   4  192.58    7.40
   4   8  -4  150.88   12.80
   4   8  -4  130.69   14.10
  -4  -8   4  138.19    6.90
  -4  -8   4  165.88    7.40
   3   8  -4  140.09   11.80
   3   8  -4  141.39   13.90
  -3  -8   4  157.98   10.70
   2   8  -4   66.09   10.60
   2   8  -4   59.39    8.30
  -2  -8   4   71.69    5.90
   1   8  -4   86.29    8.20
   1   8  -4   56.49   10.30
  -1  -8   4   72.69    6.40
   0   8  -4  377.66   16.60
   0   8  -4  376.36   22.50
   0  -8   4  328.97   15.50
  -1   8  -4   30.90    5.10
  -1   8  -4   28.00    8.70
   1  -8   4   27.20    5.30
  -2   8  -4  102.19   20.10
   2  -8   4   78.29    8.20
  -3   8  -4   28.00    9.20
   3  -8   4   28.30    6.00
  -4   8  -4   13.90    7.70
   4  -8   4    9.70    5.10
   4  -8   4   12.60    3.70
   5  -8   4    6.60    5.00
   5  -8   4    5.60    3.20
   5  -8   4   13.20    3.70
   6  -8   4   -5.40    2.60
   6  -8   4    1.10    5.10
   7  -8   4   18.70    7.00
   8  -8   4    2.20    6.40
   9   7  -4   -9.10    6.20
   8   7  -4   33.70    9.70
   7   7  -4   -0.30    6.10
   7   7  -4    5.60    6.30
   6   7  -4   55.69   10.40
   6   7  -4   35.10    8.90
   5   7  -4    4.00    5.10
   5   7  -4    3.00    5.70
   4   7  -4   83.69   10.70
   4   7  -4   99.19   12.80
  -4  -7   4   95.59    4.60
  -4  -7   4   80.99    4.70
   3   7  -4   44.50    7.40
   3   7  -4   52.29    9.60
  -3  -7   4   41.20    4.10
  -3  -7   4   49.50    3.90
   2   7  -4  328.37   19.60
   2   7  -4  330.57   16.80
  -2  -7   4  339.17   14.10
   1   7  -4   30.80    8.00
   1   7  -4   40.60    6.10
  -1  -7   4   36.70    4.70
   0   7  -4  106.99    8.10
   0   7  -4  129.29   12.70
   0  -7   4  122.19    7.70
  -1   7  -4  312.47   19.70
  -1   7  -4  299.77   13.60
   1  -7   4  306.77   14.00
  -2   7  -4  201.18   15.70
   2  -7   4  169.38   10.40
   2  -7   4  154.98   10.30
  -3   7  -4    9.90    7.00
   3  -7   4   24.30    3.90
   3  -7   4   11.70    4.60
  -4   7  -4   29.60    9.10
   4  -7   4   32.00    5.10
   4  -7   4   21.70    5.00
   5  -7   4   -9.90    4.00
   5  -7   4   -0.30    2.20
   5  -7   4    3.50    4.60
   6  -7   4   -1.80    2.30
   6  -7   4   -0.60    4.80
   7  -7   4   -3.10    2.40
   7  -7   4   -0.40    4.50
   8  -7   4   -0.40    2.00
   8  -7   4    1.00    5.60
  10   6  -4   31.10   10.40
   9   6  -4   11.50    7.20
   8   6  -4   74.99   12.50
   7   6  -4  134.09   13.90
   6   6  -4   44.50    9.10
   5   6  -4  630.24   28.00
   5   6  -4  575.14   28.70
   4   6  -4  358.66   19.50
   4   6  -4  400.86   21.80
  -4  -6   4  397.96   12.70
  -4  -6   4  386.26   12.70
   3   6  -4   16.80    5.10
   3   6  -4   14.00    6.10
  -3  -6   4   18.70    2.50
  -3  -6   4   19.50    2.50
   2   6  -4  115.99    8.70
   2   6  -4  104.79   10.40
   2   6  -4   87.29    6.10
  -2  -6   4  111.39    5.90
   1   6  -4  159.08   13.40
   1   6  -4  196.18   11.00
  -1  -6   4  197.58    9.60
   0   6  -4  109.59   11.30
   0   6  -4  104.09    7.60
   0  -6   4  115.29    7.00
  -1   6  -4   30.90    4.10
  -1   6  -4   24.00    7.10
   1  -6   4   33.10    4.60
   1  -6   4   32.30    4.70
  -2   6  -4  156.58   13.80
   2  -6   4  155.58    9.50
   2  -6   4  169.58    8.40
  -3   6  -4    5.80    6.00
   3  -6   4    7.40    2.40
   3  -6   4    1.80    3.20
  -4   6  -4    8.00    5.90
   4  -6   4    9.10    2.40
   4  -6   4    3.40    3.50
  -5   6  -4   13.90    8.20
   5  -6   4   26.70    7.40
   5  -6   4   22.40    3.20
   5  -6   4   25.70    3.20
   6  -6   4   60.99    8.40
   6  -6   4   54.09    4.40
   6  -6   4   45.80    4.20
   7  -6   4   -1.70    2.20
   7  -6   4    3.20    3.10
   7  -6   4   -5.00    4.30
   8  -6   4    0.90    5.30
   8  -6   4    6.10    2.60
   9  -6   4   26.40    8.10
  10   5  -4   12.70    9.20
   9   5  -4   27.40    9.30
   8   5  -4   91.99   12.70
   7   5  -4  127.39   12.60
   6   5  -4   97.19   12.00
   5   5  -4   91.89    9.40
   4   5  -4  296.87   16.70
   4   5  -4  327.37   18.30
   3   5  -4   43.40    6.50
   3   5  -4   35.70    7.40
  -3  -5   4   37.50    2.60
  -3  -5   4   42.10    2.60
   2   5  -4    5.30    2.00
   2   5  -4    5.10    3.40
   2   5  -4    2.00    3.70
  -2  -5   4    1.70    1.50
   1   5  -4  135.69    8.30
   1   5  -4  104.89    9.80
   1   5  -4  101.29    6.20
  -1  -5   4  118.09    6.00
   0   5  -4  922.31   31.00
   0   5  -4  882.71   36.00
   0  -5   4  887.71   31.00
  -1   5  -4   27.70    6.60
  -1   5  -4   31.70    3.70
   1  -5   4   31.70    3.90
   1  -5   4   20.60    3.60
  -2   5  -4   19.90    5.50
   2  -5   4   19.10    3.10
   2  -5   4   18.50    3.80
  -3   5  -4   47.90    8.80
   3  -5   4   47.50    3.70
   3  -5   4   58.89    6.70
  -4   5  -4   57.29    9.30
   4  -5   4   52.79    3.60
   4  -5   4   48.50    3.60
   4  -5   4   50.29    6.70
  -5   5  -4   41.90    8.50
   5  -5   4   33.20    3.30
   5  -5   4   39.50    3.20
   5  -5   4   35.00    6.40
   6  -5   4   -0.30    4.10
   6  -5   4    0.30    1.90
   6  -5   4    2.20    1.90
   7  -5   4   10.30    2.90
   7  -5   4   19.50    5.60
   8  -5   4   30.70    4.50
   8  -5   4   39.50    7.80
   8  -5   4   39.80    4.60
   9  -5   4    1.60    3.00
   9  -5   4    3.20    5.20
  10  -5   4    1.00    5.60
  10  -5   4    4.50    3.20
  10   4  -4    3.50    8.20
   9   4  -4   88.89   14.20
   8   4  -4  109.79   14.80
   7   4  -4    8.90    5.40
   6   4  -4  173.48   13.30
   5   4  -4   20.20    5.80
   4   4  -4  211.08   13.30
   3   4  -4  852.51   34.70
   3   4  -4  890.71   33.00
   2   4  -4  509.25   21.50
   2   4  -4  529.05   17.90
   2   4  -4  545.85   24.60
  -2  -4   4  569.44   17.60
   1   4  -4  713.63   29.50
   1   4  -4  709.33   25.40
   1   4  -4  729.93   26.00
  -1  -4   4  684.73   23.10
   0   4  -4  825.62   33.60
   0   4  -4  951.00   29.50
   0   4  -4  846.82   28.50
   0  -4   4  825.52   29.20
   0  -4   4  831.52   28.20
  -1   4  -4 1850.41   63.59
  -1   4  -4 1880.11   57.09
   1  -4   4 1756.82   58.99
   1  -4   4 1847.72   57.29
  -2   4  -4   10.80    4.70
   2  -4   4   13.50    3.30
  -3   4  -4  408.26   20.30
   3  -4   4  384.36   13.20
   3  -4   4  405.66   16.60
  -4   4  -4  436.26   21.90
   4  -4   4  406.26   17.60
  -5   4  -4  165.58   13.50
   5  -4   4  139.59    6.10
   5  -4   4  150.58    6.00
   5  -4   4  156.68   10.20
   6  -4   4    1.70    1.70
   6  -4   4    2.80    2.00
   6  -4   4    5.30    4.20
   7  -4   4   39.30    7.10
   7  -4   4   35.80    4.10
   8  -4   4   36.70    4.80
   8  -4   4   32.00    6.40
   9  -4   4   43.40    8.30
  10  -4   4   28.60    7.70
  10  -4   4   13.40    4.30
  11   3  -4   16.50    9.50
  10   3  -4   54.29    3.80
  10   3  -4   63.39   12.60
   9   3  -4  332.97   22.00
  -9  -3   4  334.57   12.10
   8   3  -4   -3.90    5.10
   7   3  -4   89.69   12.10
   6   3  -4  747.13   32.10
   5   3  -4  630.24   27.30
   4   3  -4   21.00    4.80
   3   3  -4   16.40    4.30
   2   3  -4  374.76   16.10
   2   3  -4  364.06   12.00
   2   3  -4  376.66   18.20
  -2  -3   4  363.06   11.80
   1   3  -4  218.58   12.80
   1   3  -4  224.98   10.40
   1   3  -4  220.88    8.20
  -1  -3   4  213.18   10.20
  -1  -3   4  194.98    7.90
   0   3  -4  980.70   34.00
   0   3  -4 1027.10   33.30
   0   3  -4 1041.60   38.50
   0  -3   4 1061.29   34.20
   0  -3   4 1079.79   33.20
  -1   3  -4 1482.05   45.40
  -1   3  -4 1448.36   51.09
  -1   3  -4 1461.35   46.50
   1  -3   4 1409.86   46.20
   1  -3   4 1494.95   45.60
  -2   3  -4  834.62   33.40
   2  -3   4  873.31   29.40
   2  -3   4  882.41   27.00
  -3   3  -4  799.02   32.60
   3  -3   4  840.62   28.80
  -4   3  -4   25.40    6.30
   4  -3   4   39.50    5.00
  -5   3  -4   41.30    8.00
   5  -3   4   43.40    2.70
   5  -3   4   43.20    6.00
   5  -3   4   40.50    2.80
   6  -3   4  176.48    7.80
   6  -3   4  179.88   11.30
   7  -3   4  881.41   29.70
   7  -3   4  877.21   33.70
   8  -3   4  348.97   14.90
   8  -3   4  367.96   18.80
   9  -3   4  121.69    8.60
   9  -3   4  116.89   11.20
  10  -3   4    5.00    5.90
  10  -3   4   -1.70    4.00
  11  -3   4    0.80    4.20
  11  -3   4   -0.60    5.20
  11   2  -4  -12.70    5.30
  11   2  -4    1.70    2.70
  10   2  -4    8.80    7.80
   9   2  -4   28.90    3.30
   9   2  -4   28.40    8.80
  -9  -2   4   18.70    4.20
   8   2  -4  233.88    9.10
   8   2  -4  266.57   18.20
   7   2  -4   23.60    7.10
   7   2  -4   23.80    2.30
  -7  -2   4   22.70    2.70
   6   2  -4   11.00    5.30
   5   2  -4    8.80    4.60
   4   2  -4  783.92   30.40
   3   2  -4   20.10    4.40
   2   2  -4   58.79    5.50
   1   2  -4   32.10    4.20
   1   2  -4   29.70    2.20
  -1  -2   4   29.00    2.10
  -1  -2   4   39.40    4.50
   0   2  -4 1308.37   42.40
   0   2  -4 1365.26   47.60
   0   2  -4 1366.66   43.50
   0  -2   4 1386.06   42.40
   0  -2   4 1406.36   43.50
  -1   2  -4   69.89    4.40
  -1   2  -4   69.59    3.80
   1  -2   4   70.39    3.80
   1  -2   4   70.59    4.40
  -2   2  -4  526.85   22.40
   2  -2   4  536.75   19.00
  -3   2  -4   39.40    6.20
   3  -2   4   38.80    4.50
  -4   2  -4   67.69    8.70
   4  -2   4   81.29    6.30
  -5   2  -4   62.19    8.40
   5  -2   4   59.69    3.50
   5  -2   4   61.79    6.60
   6  -2   4  460.55   16.50
   6  -2   4  463.75   19.70
   7  -2   4   -2.50    3.60
   7  -2   4    3.80    2.60
   8  -2   4  349.47   15.40
   8  -2   4  375.76   18.30
   9  -2   4   36.00    5.70
   9  -2   4   35.20    7.10
  10  -2   4   20.30    6.60
  10  -2   4   23.60    5.50
  11  -2   4   18.30    7.30
  11  -2   4   12.70    5.70
  11   1  -4    7.20    3.90
  11   1  -4   10.50    8.40
  10   1  -4   29.60    9.90
  10   1  -4   26.80    4.30
   9   1  -4   13.20    7.60
   9   1  -4    7.00    2.70
   8   1  -4   63.19   10.30
   8   1  -4   61.69    4.70
   7   1  -4  381.96   13.20
   7   1  -4  370.86   20.60
  -7  -1   4  350.86   13.50
   6   1  -4  108.49    4.90
   6   1  -4  113.29   10.10
  -6  -1   4  109.39    5.30
   5   1  -4  314.37   10.30
   5   1  -4  301.17   16.50
  -5  -1   4  319.97   10.70
   4   1  -4 1560.64   53.49
   3   1  -4  601.94   23.60
   2   1  -4  848.42   30.20
  -2  -1   4  864.61   32.10
   1   1  -4 2527.45   78.29
   1   1  -4 2511.35   75.39
  -1  -1   4 2509.55   75.29
  -1  -1   4 2517.55   78.29
   0   1  -4  198.48   11.50
   0   1  -4  211.98    8.90
   0   1  -4  226.68    8.10
   0  -1   4  227.38    8.10
   0  -1   4  211.18    8.90
  -1   1  -4 1627.04   49.20
  -1   1  -4 1624.24   53.79
  -1   1  -4 1522.45   50.49
   1  -1   4 1578.84   53.39
   1  -1   4 1698.93   50.09
  -2   1  -4  752.62   25.80
  -2   1  -4  769.22   28.90
   2  -1   4  835.42   31.10
   2  -1   4  755.82   25.80
   3  -1   4  289.87   12.10
  -4   1  -4   17.70    4.60
   4  -1   4   11.00    3.00
  -5   1  -4    7.20    3.90
   5  -1   4   10.20    2.00
   5  -1   4    7.00    3.10
   6  -1   4  102.49    7.70
   6  -1   4   77.79    5.20
   7  -1   4   28.20    5.10
   7  -1   4   31.10    4.30
   8  -1   4    1.10    2.90
   8  -1   4    1.20    3.70
   9  -1   4   24.20    5.10
   9  -1   4   38.80    7.30
  10  -1   4    5.10    4.30
  10  -1   4    0.70    5.10
  11  -1   4    4.90    5.90
  11  -1   4   17.70    5.50
  11   0  -4   -5.60    3.60
  11   0  -4   -5.00    7.10
  10   0  -4   47.90   10.70
  10   0  -4   39.80    5.40
   9   0  -4  100.59   13.70
   9   0  -4   85.79    6.60
   8   0  -4   49.80    9.70
   8   0  -4   48.50    4.70
   7   0  -4  117.99    6.30
   7   0  -4   94.99   11.60
   6   0  -4  351.46   18.90
   6   0  -4  356.06   12.90
  -6   0   4  350.16   13.20
   5   0  -4    1.80    1.40
   5   0  -4    2.10    3.80
  -5   0   4    0.20    1.50
   4   0  -4  476.15   15.80
   4   0  -4  498.35   21.20
  -4   0   4  493.95   16.00
   3   0  -4   19.10    1.40
   3   0  -4   15.70    4.00
   3   0  -4   19.90    1.60
   2   0  -4   16.60    1.30
   2   0  -4   16.80    1.50
   2   0  -4   18.80    3.80
  -2   0   4   27.10    3.90
   1   0  -4  159.48    8.20
   1   0  -4  165.38    6.00
  -1   0   4  182.18    8.50
  -1   0   4  170.58    6.00
   0   0  -4  281.17   10.80
   0   0  -4  272.17    9.70
   0   0   4  284.07    9.80
  -1   0  -4  833.42   26.70
  -1   0  -4  814.72   29.60
  -1   0  -4  849.52   26.40
   1   0   4  835.82   26.70
  -2   0  -4   24.70    3.00
  -2   0  -4   29.20    4.50
  -2   0  -4   24.30    1.50
   2   0   4   28.30    3.20
   2   0   4   30.50    4.60
  -3   0  -4 2322.97   70.59
  -3   0  -4 2361.16   75.49
   3   0   4 2441.76   75.59
   3   0   4 2341.87   73.09
   3   0   4 2336.87   70.39
  -4   0  -4   78.29    4.00
  -4   0  -4   83.89    7.00
   4   0   4   74.59    3.80
   4   0   4   75.79    5.60
  -5   0  -4  423.56   15.20
   5   0   4  420.76   15.00
   5   0   4  416.26   16.90
  -6   0  -4  423.06   16.70
   6   0   4  455.85   16.80
   6   0   4  458.55   18.60
   7   0   4  362.06   16.40
   7   0   4  340.57   14.80
   8   0   4    8.90    3.70
   8   0   4    4.10    3.50
   9   0   4   32.10    5.90
   9   0   4   31.50    6.40
  10   0   4    1.00    4.60
  10   0   4    2.20    3.90
  11   0   4    6.80    5.00
  11   0   4    5.90    6.00
  11  -1  -4   11.30    4.70
  11  -1  -4    1.50    8.00
  10  -1  -4   11.40    4.30
  10  -1  -4    3.90    6.30
   9  -1  -4   23.00    8.40
   8  -1  -4   84.59    6.50
   8  -1  -4   65.69   10.80
   7  -1  -4   41.10    8.10
   7  -1  -4   38.20    4.60
   6  -1  -4  205.58    9.00
   6  -1  -4  181.58   13.20
   5  -1  -4  980.20   36.00
   5  -1  -4  914.21   30.10
  -5   1   4  905.41   30.30
   4  -1  -4   75.19    4.20
   4  -1  -4   64.89    7.60
  -4   1   4   72.89    4.40
   3  -1  -4 2203.68   71.29
   3  -1  -4 2208.78   66.99
  -3   1   4 2212.88   67.19
   2  -1  -4 2384.46   76.79
   2  -1  -4 2444.66   73.19
   2  -1  -4 2474.15   73.59
   1  -1  -4 4486.95  132.59
   1  -1  -4 4366.66  135.29
  -1   1   4 4480.45  132.69
   0  -1  -4 2626.94   78.89
   0   1   4 2607.94   78.89
  -1  -1  -4 1979.00   62.09
  -1  -1  -4 2044.40   64.69
   1   1   4 2088.59   62.29
  -2  -1  -4  753.22   24.20
  -2  -1  -4  748.63   26.70
  -2  -1  -4  771.82   25.30
   2   1   4  764.72   26.80
   2   1   4  804.82   25.40
  -3  -1  -4   50.29    3.10
  -3  -1  -4   58.59    5.00
   3   1   4   52.79    4.20
   3   1   4   50.49    6.00
   3   1   4   52.89    3.10
  -4  -1  -4  706.53   25.90
  -4  -1  -4  701.43   23.40
   4   1   4  700.43   25.90
   4   1   4  735.53   23.30
   4   1   4  684.93   24.50
  -5  -1  -4  458.65   16.70
   5   1   4  454.15   16.40
   5   1   4  430.86   17.40
  -6  -1  -4   -5.10    1.90
   6   1   4    2.10    2.20
   6   1   4    0.00    2.40
   7   1   4    7.60    3.70
   7   1   4    8.00    3.80
   8   1   4   73.19    8.20
   8   1   4   58.09    7.10
   9   1   4   28.70    5.70
  10   1   4   17.40    5.70
  10   1   4   26.10    6.40
  11   1   4    2.30    4.90
  11   1   4   -9.00    4.60
  12   1   4    5.00    6.10
  12   1   4  -12.50    4.70
  11  -2  -4   45.10   11.70
  11  -2  -4   71.39    8.30
  10  -2  -4    0.70    4.00
  10  -2  -4    7.90    6.90
   9  -2  -4    4.00    6.50
   9  -2  -4    4.80    3.50
   8  -2  -4   30.80    5.10
   8  -2  -4   23.60    7.00
   7  -2  -4   44.50    8.40
   7  -2  -4   41.20    5.30
   6  -2  -4  225.88   10.40
   6  -2  -4  230.08   14.30
   5  -2  -4  177.98    8.40
   5  -2  -4  170.18   11.90
   4  -2  -4  467.75   16.60
   4  -2  -4  449.56   20.10
  -4   2   4  469.35   16.80
   3  -2  -4 1222.78   41.90
   3  -2  -4 1206.48   38.40
   2  -2  -4  105.69    5.40
   2  -2  -4  129.79    7.60
  -2   2   4  118.99    5.60
   1  -2  -4  223.48    8.70
   1  -2  -4  216.08    8.10
   0  -2  -4 5116.49  152.88
  -2  -2  -4 3164.58   93.99
  -2  -2  -4 3124.59   94.19
  -2  -2  -4 3054.79   94.99
   2   2   4 3054.79   94.19
   2   2   4 3111.29   93.69
  -3  -2  -4  390.66   14.90
  -3  -2  -4  392.76   14.50
  -3  -2  -4  359.56   13.50
   3   2   4  359.66   14.00
   3   2   4  385.06   13.50
   3   2   4  372.06   14.40
  -4  -2  -4  107.69    6.50
  -4  -2  -4   99.19    5.80
   4   2   4  109.29    6.60
   4   2   4  102.89    6.10
   4   2   4  101.19    5.70
  -5  -2  -4  408.56   15.90
   5   2   4  390.06   15.50
   5   2   4  405.76   16.10
   5   2   4  420.06   16.90
   6   2   4    0.30    2.30
   6   2   4    4.60    2.70
   7   2   4  120.49    8.30
   7   2   4  126.09    8.50
   8   2   4  244.98   12.90
   8   2   4  237.08   13.10
   9   2   4   71.59    8.10
   9   2   4   80.39    8.30
  10   2   4    3.70    4.50
  10   2   4    5.50    4.90
  11   2   4    9.90    5.70
  11   2   4   -2.10    5.10
  12   2   4   17.60    7.00
  12   2   4   -2.20    5.40
  10  -3  -4   46.50   10.90
   9  -3  -4    3.40    4.30
   9  -3  -4    7.90    6.60
   8  -3  -4   54.39    6.70
   8  -3  -4   51.49    9.60
   7  -3  -4   68.09    7.00
   7  -3  -4   73.19    9.80
   6  -3  -4   35.80    4.70
   6  -3  -4   37.70    7.80
   5  -3  -4    5.60    3.90
   5  -3  -4    9.30    2.90
   4  -3  -4 1773.52   57.19
   4  -3  -4 1865.71   61.29
   3  -3  -4    1.60    1.80
   3  -3  -4   -2.10    2.30
  -3   3   4    0.50    1.70
   2  -3  -4  151.88    7.20
  -2   3   4  149.88    7.10
   1  -3  -4  452.25   15.60
   1  -3  -4  407.96   15.40
   0   3   4   54.39    3.50
  -1  -3  -4 1249.38   39.60
  -1  -3  -4 1283.97   40.20
   1   3   4 1264.97   39.80
  -2  -3  -4   11.40    2.10
  -2  -3  -4   16.30    2.50
  -2  -3  -4   14.30    2.30
   2   3   4   12.80    2.30
   2   3   4   12.00    2.30
  -3  -3  -4 1106.89   38.90
  -3  -3  -4 1193.58   37.10
   3   3   4 1188.68   37.30
   3   3   4 1219.98   37.90
   3   3   4 1167.28   37.90
  -4  -3  -4  881.61   29.90
   4   3   4  865.61   29.40
   4   3   4  889.51   29.60
   4   3   4  871.61   29.00
   5   3   4   76.59    5.80
   5   3   4   76.39    5.50
   5   3   4   71.19    5.40
   6   3   4  688.83   25.70
   6   3   4  713.73   26.20
   6   3   4  738.83   26.40
   7   3   4  615.14   23.30
   7   3   4  610.14   24.30
   8   3   4    1.60    3.40
   8   3   4    1.30    3.60
   9   3   4  126.49    9.70
   9   3   4  121.29   10.50
  10   3   4  -10.70    3.60
  10   3   4   -3.20    4.30
  11   3   4   -3.60    4.70
  11   3   4    6.20    5.20
  12   3   4   16.50    7.00
  12   3   4    1.50    5.80
  10  -4  -4   55.29    8.00
  10  -4  -4   28.20    9.60
   9  -4  -4   29.40    6.20
   9  -4  -4   35.10    9.30
   8  -4  -4   26.90    5.70
   8  -4  -4   29.00    8.30
   7  -4  -4  154.78   13.20
   7  -4  -4  144.79    9.70
   6  -4  -4   73.89    9.40
   6  -4  -4   73.49    6.60
   5  -4  -4  233.98   11.60
   5  -4  -4  246.78   14.60
   4  -4  -4 1218.98   43.60
   4  -4  -4 1205.68   40.20
   2  -4  -4  602.14   21.80
  -2   4   4  643.04   23.20
   1  -4  -4  190.68    8.60
  -1   4   4  162.18    8.10
   0  -4  -4 3236.78   97.99
   0  -4  -4 3217.78   98.89
  -1  -4  -4  207.48    9.00
  -1  -4  -4  202.18    8.40
   1   4   4  196.08    8.40
  -2  -4  -4 1457.95   46.50
  -2  -4  -4 1428.26   45.70
   2   4   4 1426.56   46.40
   2   4   4 1490.55   45.80
  -3  -4  -4 1102.19   35.90
  -3  -4  -4 1048.50   32.90
   3   4   4 1060.99   35.00
   3   4   4 1113.99   35.90
   4   4   4   94.69    6.30
   4   4   4   81.19    4.20
   4   4   4   88.59    5.70
   5   4   4  313.67   12.20
   5   4   4  322.37   13.20
   5   4   4  313.97   14.10
   6   4   4  291.07   13.70
   6   4   4  297.77   13.10
   6   4   4  299.17   14.10
   7   4   4  206.28   10.70
   7   4   4  184.78   10.50
   7   4   4  198.38   11.60
   8   4   4   -4.00    3.00
   8   4   4   -2.70    3.20
   9   4   4   -2.40    3.60
   9   4   4    4.00    4.70
  10   4   4   28.30    7.10
  10   4   4   53.09    7.80
  11   4   4   -0.70    4.60
  11   4   4   -3.20    4.90
  12   4   4    9.50    6.70
  12   4   4    1.50    5.40
  10  -5  -4   -5.70    5.10
  10  -5  -4    8.70    7.60
   9  -5  -4   14.80    7.40
   9  -5  -4   17.40    5.90
   8  -5  -4    0.80    4.10
   8  -5  -4   -5.80    4.70
   7  -5  -4    4.30    5.10
   7  -5  -4    6.10    4.30
   6  -5  -4  210.98   11.60
   6  -5  -4  189.08   14.10
   5  -5  -4   18.60    4.40
   5  -5  -4   21.40    5.90
   4  -5  -4  429.66   17.60
   3  -5  -4 1640.04   53.19
   2  -5  -4   76.49    5.90
   0  -5  -4  911.11   30.90
   2   5   4   91.09    5.30
   2   5   4   90.59    5.90
   3   5   4 1449.85   46.90
   3   5   4 1488.75   48.40
   4   5   4   13.00    3.50
   4   5   4   11.70    2.90
   5   5   4    2.10    2.30
   5   5   4   -1.10    1.20
   5   5   4    1.30    2.80
   6   5   4  320.87   12.90
   6   5   4  345.47   14.50
   6   5   4  357.46   16.30
   7   5   4  383.06   17.80
   7   5   4  358.96   15.60
   7   5   4  364.56   15.90
   8   5   4   21.30    5.80
   8   5   4    6.90    3.70
   9   5   4   21.50    5.30
   9   5   4   23.90    6.50
  10   5   4   52.39    8.60
  11   5   4   -3.20    4.40
  12   5   4   -0.90    4.90
  12   5   4   -1.50    5.90
  10  -6  -4    1.30    5.80
  10  -6  -4    7.80    7.70
   9  -6  -4   14.80    6.00
   9  -6  -4    7.70    7.10
   8  -6  -4    3.90    4.70
   8  -6  -4    6.70    6.80
   7  -6  -4   39.00    7.00
   7  -6  -4   40.70    8.80
   6  -6  -4   48.10    6.80
   6  -6  -4   49.40    8.80
   5  -6  -4   32.40    7.20
   5  -6  -4   15.50    4.70
   4  -6  -4   18.90    4.30
   3  -6  -4   45.80    5.60
   2  -6  -4 1793.32   57.99
   1  -6  -4 1942.21   62.19
   0  -6  -4  699.23   25.30
  -1  -6  -4   14.90    3.50
   1   6   4   15.20    3.50
  -2  -6  -4  449.46   15.50
   2   6   4  473.05   18.30
   3   6   4   76.19    5.30
   3   6   4   79.09    6.10
   4   6   4  430.76   15.90
   4   6   4  374.36   17.10
   5   6   4   90.99    7.70
   5   6   4   93.99    6.50
   6   6   4   49.00    7.10
   6   6   4   36.00    4.90
   6   6   4   37.00    2.80
   7   6   4   85.69    6.70
   7   6   4   66.29    5.20
   7   6   4   74.39    8.60
   8   6   4   55.39    6.60
   8   6   4   57.69    8.30
   8   6   4   55.99    6.00
   9   6   4    5.70    3.90
   9   6   4    4.30    5.10
  10   6   4    6.70    5.90
  10   6   4   11.50    8.00
  11   6   4   -4.50    4.20
  11   6   4    0.80    6.00
  12   6   4   38.40    7.50
   9  -7  -4    1.20    6.20
   9  -7  -4   -5.90    4.90
   8  -7  -4    6.80    6.20
   8  -7  -4   13.60    5.60
   7  -7  -4    0.50    4.50
   7  -7  -4    0.60    5.90
   6  -7  -4   15.00    5.10
   6  -7  -4    5.40    5.60
   5  -7  -4   78.39    8.90
   4  -7  -4  321.87   15.60
   3  -7  -4   29.30    5.40
   2  -7  -4    4.20    3.00
   1  -7  -4  114.79    7.90
   0  -7  -4   21.40    4.20
   0  -7  -4   17.80    4.00
  -1  -7  -4  495.85   19.30
   1   7   4  471.05   19.40
  -2  -7  -4 2518.05   75.39
  -2  -7  -4 2426.86   77.69
   2   7   4 2394.06   78.09
   3   7   4  317.77   14.70
   4   7   4    1.90    3.00
   4   7   4    6.40    2.60
   5   7   4  483.15   19.10
   5   7   4  528.55   22.00
   6   7   4   12.90    3.60
   6   7   4   10.50    4.50
   7   7   4   29.00    5.00
   7   7   4   21.90    5.80
   8   7   4  368.26   16.20
   8   7   4  363.66   19.50
   8   7   4  344.57   13.90
   9   7   4   56.89    7.10
   9   7   4   51.29    5.90
   9   7   4   48.90    8.70
  10   7   4    0.40    4.60
  10   7   4   -8.70    4.80
  11   7   4    3.90    6.80
  11   7   4    7.00    5.00
   9  -8  -4   -6.80    6.00
   9  -8  -4    1.20    6.20
   8  -8  -4   19.70    7.90
   8  -8  -4   25.50    7.30
   7  -8  -4    7.30    6.60
   7  -8  -4    0.40    5.00
   6  -8  -4   37.60    7.10
   6  -8  -4   63.19   10.10
   5  -8  -4   24.20    5.90
   4  -8  -4  139.39   10.10
   3  -8  -4  173.08   10.80
   2  -8  -4   67.19    7.20
   1  -8  -4  857.81   31.30
   0  -8  -4  179.38   10.40
  -1  -8  -4   56.19    6.30
  -1  -8  -4   53.59    6.50
   1   8   4   63.69    7.20
  -2  -8  -4   -1.70    2.20
  -2  -8  -4   10.70    3.40
   2   8   4    6.60    3.20
  -3  -8  -4  982.50   34.90
  -3  -8  -4  948.31   31.30
   3   8   4 1024.70   36.00
   4   8   4   11.20    4.00
   5   8   4   18.10    4.90
   5   8   4   17.60    3.90
   6   8   4   77.39    6.50
   6   8   4   94.49    9.30
   7   8   4  875.71   35.10
   7   8   4  846.82   30.80
   8   8   4   77.19    7.80
   9   8   4    3.80    4.10
   9   8   4    3.40    3.00
   9   8   4    2.60    5.40
  10   8   4   54.39   10.60
  10   8   4   27.60    6.10
  11   8   4    8.60    7.30
  11   8   4    8.90    5.10
   8  -9  -4    1.50    5.50
   8  -9  -4   -8.60    6.20
   7  -9  -4   14.50    6.60
   7  -9  -4   19.40    8.10
   6  -9  -4    3.10    4.50
   6  -9  -4   -8.20    4.80
   5  -9  -4    2.80    4.30
   4  -9  -4   59.69    8.70
   3  -9  -4   68.69    8.50
   2  -9  -4   47.90    6.80
   1  -9  -4    2.10    3.40
   0  -9  -4   82.89    7.40
  -1  -9  -4  429.06   18.30
   1   9   4  387.26   18.20
  -2  -9  -4   25.70    4.30
  -2  -9  -4   24.00    5.00
   2   9   4   24.60    5.40
  -3  -9  -4  166.58   10.30
  -3  -9  -4  159.38    8.10
   3   9   4  165.38   10.80
  -4  -9  -4  521.75   21.70
   4   9   4  512.85   22.80
  -5  -9  -4   67.89    8.50
   5   9   4   61.39    8.30
   6   9   4  193.88   10.60
   6   9   4  192.58   13.30
   7   9   4    5.00    3.80
   7   9   4   11.80    6.20
   8   9   4    3.30    5.40
   8   9   4    9.20    4.10
   9   9   4   40.30    6.20
   9   9   4   28.60    8.40
  10   9   4   18.60    8.50
  10   9   4   28.40    5.80
  11   9   4   -1.00    7.10
  11   9   4   -2.30    4.20
   8 -10  -4    3.20    6.60
   8 -10  -4    7.20    7.60
   7 -10  -4   -0.60    6.20
   7 -10  -4   -3.80    5.30
   6 -10  -4   56.99   10.50
   6 -10  -4   64.19    9.60
   5 -10  -4  103.59   11.40
   4 -10  -4  108.19   10.50
   2 -10  -4  344.27   17.50
   1 -10  -4    4.90    4.30
   0 -10  -4   84.49    8.90
  -1 -10  -4  528.25   22.50
   1  10   4  546.35   23.30
  -2 -10  -4   20.50    5.40
  -2 -10  -4   28.50    5.90
   2  10   4   37.90    6.70
  -3 -10  -4   42.00    6.50
   3  10   4   42.90    6.60
  -4 -10  -4  142.59   10.30
   4  10   4  165.78   11.70
  -5 -10  -4   31.30    6.00
   5  10   4   18.60    5.60
  -6 -10  -4   16.50    5.70
   7  10   4   81.29   11.60
   8  10   4  109.99    8.60
   8  10   4   99.29   12.40
   9  10   4    3.30    6.30
  10  10   4    0.60    6.80
  10  10   4    2.60    4.60
   7 -11  -4   -2.30    6.30
   7 -11  -4   -4.90    5.30
   6 -11  -4   35.40    8.80
   5 -11  -4   43.30    8.70
   4 -11  -4   23.20    6.60
   3 -11  -4    3.60    4.80
   2 -11  -4   31.70    6.80
   1 -11  -4   50.89    8.10
   0 -11  -4   56.69    8.00
  -1 -11  -4   29.10    6.30
  -2 -11  -4  140.09   10.80
   2  11   4  158.18   11.70
  -3 -11  -4  189.18   12.30
  -3 -11  -4  167.08   10.30
   3  11   4  204.08   13.20
  -4 -11  -4   25.90    6.00
   4  11   4   20.70    6.20
  -5 -11  -4  200.58   13.20
   5  11   4  187.58   13.60
  -6 -11  -4   60.69    8.60
   6  11   4   57.49    9.80
  -7 -11  -4   -1.00    4.40
   7  11   4   -5.40    4.10
  -8 -11  -4   35.80    7.40
   8  11   4   34.60    8.90
  -9 -11  -4    7.60    5.50
   9  11   4    5.30    7.00
  10  11   4    9.70    7.70
   6 -12  -4   32.10    8.10
   5 -12  -4   18.60    7.20
   4 -12  -4  136.29   12.80
   3 -12  -4   10.00    5.40
   2 -12  -4   -6.80    4.20
   1 -12  -4   35.00    7.00
   0 -12  -4    6.60    5.00
  -2 -12  -4  291.87   16.20
   2  12   4  273.87   18.60
  -3 -12  -4  498.05   22.30
   3  12   4  447.06   23.00
  -4 -12  -4    6.10    4.90
   4  12   4    6.50    5.80
  -5 -12  -4   15.00    5.80
   5  12   4    7.80    5.20
  -6 -12  -4  144.49   12.10
   6  12   4  149.39   13.30
  -7 -12  -4   23.50   10.70
   7  12   4   19.70    7.10
  -8 -12  -4   23.90    6.70
   8  12   4   27.50    8.80
  -9 -12  -4   35.30    8.20
   9  12   4   30.90    9.50
   5 -13  -4   12.50    7.10
   4 -13  -4   -0.70    6.10
   3 -13  -4   36.60    8.90
   2 -13  -4    7.70    6.00
   1 -13  -4   95.69   11.00
   0 -13  -4   28.50    7.10
  -1 -13  -4  238.88   15.40
  -2 -13  -4    5.20    4.90
   2  13   4   -1.50    4.40
  -3 -13  -4   44.80    7.70
   3  13   4   51.79    9.10
  -4 -13  -4   29.50    7.20
   4  13   4   34.50    8.00
  -5 -13  -4    5.00    5.20
   5  13   4   -0.90    4.60
  -6 -13  -4   11.50    5.80
   6  13   4   15.10    7.20
  -7 -13  -4    9.10    5.50
   7  13   4    9.70    7.40
  -8 -13  -4    0.90    5.40
   8  13   4   -5.00    5.10
  -9 -13  -4   -3.20    5.20
   9  13   4   11.10    7.90
   4 -14  -4  -11.80    5.70
   3 -14  -4    4.60    6.40
   2 -14  -4   13.20    6.40
   1 -14  -4    0.80    5.60
   0 -14  -4    0.90    5.50
  -1 -14  -4   34.80    7.90
  -2 -14  -4   10.50    6.30
   2  14   4   12.10    6.30
  -3 -14  -4   38.70    8.10
   3  14   4   39.00    8.50
  -4 -14  -4   86.39   10.60
   4  14   4   73.89   11.20
  -5 -14  -4   29.70    7.20
   5  14   4   37.20    9.30
  -6 -14  -4   -1.60    5.10
   6  14   4    4.10    6.80
  -7 -14  -4   29.00    7.50
   7  14   4   32.80    8.80
   2 -15  -4    0.70    6.70
   1 -15  -4   16.90    7.70
   0 -15  -4   -6.70    5.70
  -1 -15  -4   57.99    9.90
  -2 -15  -4   60.49   10.00
  -3 -15  -4    3.00    6.50
   3  15   4    7.00    6.40
  -4 -15  -4   31.20    8.00
   4  15   4   10.50    6.80
  -5 -15  -4   29.50    7.70
   5  15   4   25.80    9.10
  -6 -15  -4   -3.40    5.60
   6  15   4    4.20    6.80
  -1 -16  -4    0.70    6.50
  -2 -16  -4   26.60    8.80
  -3 -16  -4   12.30    7.50
   3  16   4    2.80    6.60
   2  12  -5   12.40    7.30
   2  12  -5   12.80   10.30
  -2 -12   5    8.70    5.40
   1  12  -5    8.90    6.00
   1  12  -5   -1.30    7.90
  -1 -12   5    9.70    5.80
   0  12  -5   -2.90    9.10
   0 -12   5   -4.60    5.10
   5  11  -5   -6.10    7.60
   5  11  -5   -2.60    6.40
   4  11  -5   77.49   14.20
   3  11  -5   27.20    8.60
   3  11  -5   10.60    7.90
  -3 -11   5   33.30    5.50
   2  11  -5   37.90   11.40
   2  11  -5   56.99    9.70
  -2 -11   5   47.80    6.90
   1  11  -5   16.90    9.80
   1  11  -5    7.60    5.50
  -1 -11   5    5.80    4.80
   0  11  -5   -7.30    7.40
   0  11  -5    7.20    5.20
   0 -11   5    5.70    5.30
  -1  11  -5   22.60   10.10
   1 -11   5   29.60    6.70
  -2  11  -5    2.10    8.40
   2 -11   5    9.80    5.70
  -3  11  -5   33.60   12.60
   3 -11   5   17.30    7.30
   6  10  -5   -2.30    6.80
   6  10  -5    1.20    6.90
   5  10  -5   31.60   10.50
   5  10  -5   33.70    9.40
   4  10  -5   50.69   10.20
   4  10  -5   58.29   12.20
  -4 -10   5   64.19    7.00
   3  10  -5    5.70    5.60
   3  10  -5   -5.90    7.30
  -3 -10   5    4.70    3.40
   2  10  -5    2.40    7.90
   2  10  -5   21.00    6.40
  -2 -10   5   17.00    4.50
   1  10  -5   -7.30    6.60
   1  10  -5    9.90    5.00
  -1 -10   5    5.20    4.30
   0  10  -5    2.70    4.50
   0  10  -5    4.20    7.30
   0 -10   5    1.10    4.00
  -1  10  -5   -7.60    3.50
  -1  10  -5   -3.90    6.20
   1 -10   5    4.80    4.50
  -2  10  -5   18.50    9.70
   2 -10   5   20.20    6.10
  -3  10  -5    5.60    9.10
   3 -10   5    2.70    5.50
  -4  10  -5   39.20   12.50
   4 -10   5   15.70    7.00
   5 -10   5    4.10    6.10
   7   9  -5   37.30   11.30
   7   9  -5   54.19   11.80
   6   9  -5   18.20    8.30
   6   9  -5    4.40    6.80
   5   9  -5    4.90    7.20
   5   9  -5    0.10    6.10
   4   9  -5   31.80    8.50
   4   9  -5   36.70    9.90
  -4  -9   5   24.70    3.70
  -4  -9   5   31.20    3.90
   3   9  -5   13.00    6.60
   3   9  -5   14.50    8.30
  -3  -9   5   23.10    3.90
   2   9  -5   24.10    6.60
   2   9  -5    8.90    7.20
  -2  -9   5   21.30    4.30
   1   9  -5   37.40   10.50
   1   9  -5   32.10    6.70
  -1  -9   5   45.70    6.20
   0   9  -5   -0.70    5.70
   0   9  -5    7.00    4.20
   0  -9   5   11.70    4.50
  -1   9  -5    5.20    3.70
  -1   9  -5    5.70    7.90
   1  -9   5   -4.50    3.50
  -2   9  -5    3.20    8.00
   2  -9   5    4.70    4.60
  -3   9  -5   -1.30    6.20
   3  -9   5    0.50    4.90
  -4   9  -5   11.50    9.40
   4  -9   5    1.20    5.20
   5  -9   5    4.60    5.70
   6  -9   5    6.60    6.20
   8   8  -5    3.10    7.80
   8   8  -5   23.50    9.00
   7   8  -5   29.00   10.50
   7   8  -5   28.30    9.00
   6   8  -5   20.10    9.10
   6   8  -5   28.50    8.90
   5   8  -5   37.20   10.30
   5   8  -5   46.00    9.90
   4   8  -5  230.08   21.00
  -4  -8   5  252.47    9.50
   3   8  -5  262.97   16.80
   3   8  -5  294.27   20.90
  -3  -8   5  309.97   12.00
   2   8  -5   64.39   11.20
   2   8  -5   69.39    8.90
  -2  -8   5   77.49    6.20
   1   8  -5  125.29   15.70
   1   8  -5  171.38   11.50
  -1  -8   5  182.98    9.70
   0   8  -5   11.00    4.10
   0  -8   5    7.00    3.80
  -1   8  -5    2.60    3.30
  -1   8  -5    0.20    6.30
   1  -8   5    6.90    4.10
  -2   8  -5   17.60    7.60
   2  -8   5   32.00    6.00
  -3   8  -5   76.69   13.20
   3  -8   5   70.59    6.50
   3  -8   5   64.29    8.50
  -4   8  -5   51.89   11.80
   4  -8   5   17.40    6.10
   4  -8   5   31.80    5.00
  -5   8  -5    6.10    7.80
   5  -8   5   12.10    6.20
   6  -8   5    1.50    5.00
   7  -8   5    6.20    5.50
   9   7  -5   60.59   12.70
   9   7  -5   30.50   10.40
   8   7  -5   50.59   11.40
   8   7  -5   36.20    9.80
   7   7  -5   20.90    8.40
   7   7  -5   23.00    8.80
   6   7  -5  199.88   16.50
   5   7  -5   21.40    8.10
   5   7  -5   10.30    6.80
   4   7  -5   39.30    9.50
   4   7  -5   42.30    8.30
  -4  -7   5   37.40    2.70
   3   7  -5  122.19   10.70
   3   7  -5  133.39   13.10
  -3  -7   5  112.09    5.90
  -3  -7   5  115.89    6.00
   2   7  -5   37.10    9.20
   2   7  -5   38.50    6.70
  -2  -7   5   36.10    6.20
   1   7  -5  135.99   10.10
   1   7  -5  137.29   14.40
  -1  -7   5  157.48    8.50
   0   7  -5  263.07   13.20
   0   7  -5  251.57   18.40
   0  -7   5  270.27   12.40
  -1   7  -5   74.79   11.50
  -1   7  -5   92.29    6.90
   1  -7   5   99.49    7.60
  -2   7  -5    1.00    6.20
   2  -7   5   -2.10    3.00
   2  -7   5    0.50    3.50
  -3   7  -5   72.79   12.10
   3  -7   5   91.69    8.50
  -4   7  -5   14.40    7.20
   4  -7   5   20.10    5.80
   4  -7   5   13.60    2.70
  -5   7  -5   22.50    8.60
   5  -7   5   26.60    6.50
   6  -7   5    9.10    5.70
   7  -7   5    1.80    5.30
   8  -7   5    6.00    6.10
   9   6  -5   40.20   11.10
   8   6  -5   15.50    8.90
   7   6  -5   -3.70    5.40
   6   6  -5   30.30    9.60
   6   6  -5   43.70    9.60
   5   6  -5  359.26   22.30
   5   6  -5  348.87   20.30
   4   6  -5    2.10    4.60
   4   6  -5    6.20    5.60
   3   6  -5  143.99   11.60
   3   6  -5  146.49   13.70
  -3  -6   5  148.59    6.30
  -3  -6   5  149.39    6.20
   2   6  -5   29.00    7.40
   2   6  -5   28.80    5.90
  -2  -6   5   27.60    3.30
   1   6  -5  204.28   15.80
   1   6  -5  211.58   11.80
  -1  -6   5  210.68   10.60
   0   6  -5  238.18   11.70
   0   6  -5  223.48   16.40
   0  -6   5  230.28   10.80
  -1   6  -5   40.00    4.70
  -1   6  -5   24.40    7.00
   1  -6   5   36.30    5.20
   1  -6   5   37.90    5.80
  -2   6  -5    3.20    5.00
   2  -6   5    5.50    3.70
   2  -6   5    4.30    2.60
  -3   6  -5   -6.80    4.60
   3  -6   5    2.40    2.00
   3  -6   5    3.10    3.40
   4  -6   5   79.89    8.60
  -5   6  -5  133.29   14.20
   5  -6   5  126.29   10.00
   6  -6   5   50.19    8.20
   7  -6   5   -2.00    4.50
   8  -6   5   14.20    6.10
   9  -6   5    8.50    6.50
  10   5  -5   19.10    8.60
   9   5  -5   -2.70    6.80
   8   5  -5   85.79   12.70
   7   5  -5   52.09   10.40
   6   5  -5    3.70    5.80
   5   5  -5   26.80    6.90
   4   5  -5   96.39    9.70
   4   5  -5  101.59   12.60
   3   5  -5  143.29   12.50
   3   5  -5  123.69   10.40
  -3  -5   5  142.69    5.30
  -3  -5   5  142.39    5.30
   2   5  -5   16.50    4.70
   2   5  -5    8.80    2.30
   2   5  -5    6.00    4.60
  -2  -5   5   14.00    2.30
   1   5  -5  390.46   14.90
   1   5  -5  352.86   21.00
   1   5  -5  416.66   17.30
  -1  -5   5  386.16   14.40
   0   5  -5  102.69   12.90
   0   5  -5  112.49    7.20
   0  -5   5  103.49    6.50
  -1   5  -5  156.08    8.10
  -1   5  -5  176.68   13.50
   1  -5   5  175.98    9.10
   1  -5   5  157.48    8.30
  -2   5  -5  415.96   14.50
  -2   5  -5  394.56   22.10
   2  -5   5  406.06   17.10
   2  -5   5  415.66   15.00
  -3   5  -5  260.47   17.50
   3  -5   5  251.27    9.30
   3  -5   5  272.57   13.10
  -4   5  -5    3.00    4.90
   4  -5   5   -1.10    3.30
  -5   5  -5    6.30    5.70
   5  -5   5   25.60    5.40
   6  -5   5   12.10    5.40
   7  -5   5    6.60    5.10
   8  -5   5    2.90    5.80
   9  -5   5    1.10    5.30
  10   4  -5    6.70    7.70
   9   4  -5    8.30    7.40
   8   4  -5   95.69   13.60
   7   4  -5  363.96   21.70
   6   4  -5  238.18   16.10
   5   4  -5  168.78   13.10
   4   4  -5  370.26   18.80
   3   4  -5  118.29   10.80
   3   4  -5  106.69    9.20
   2   4  -5  271.17   16.60
   2   4  -5  277.67   10.00
   2   4  -5  282.17   13.90
  -2  -4   5  251.57    9.40
   1   4  -5  465.05   19.30
   1   4  -5  518.85   24.10
   1   4  -5  479.15   16.90
  -1  -4   5  475.65   16.60
   0   4  -5  206.48   10.10
   0   4  -5  209.38   14.20
   0  -4   5  210.48    9.10
   0  -4   5  200.18    9.90
  -1   4  -5   39.30    3.70
  -1   4  -5   39.20    7.70
   1  -4   5   44.40    4.70
   1  -4   5   39.30    4.20
  -2   4  -5  215.18   14.80
  -2   4  -5  239.68    8.60
   2  -4   5  220.48    8.90
   2  -4   5  236.98   11.10
  -3   4  -5   34.80    7.80
   3  -4   5   29.60    5.00
  -4   4  -5  284.77   18.00
   4  -4   5  294.57   14.20
  -5   4  -5    7.30    5.60
   5  -4   5   13.60    4.60
   6  -4   5   20.70    6.30
   7  -4   5   -1.40    4.50
   8  -4   5    1.20    4.40
   9  -4   5   15.40    6.10
  10  -4   5   50.79    9.30
  10   3  -5   57.69   13.00
   9   3  -5   30.10    9.50
   8   3  -5    1.20    5.60
   7   3  -5  554.34   28.00
   6   3  -5  106.19   12.80
   5   3  -5    3.10    4.70
   4   3  -5  191.48   12.70
   3   3  -5 1136.29   41.00
   2   3  -5  423.36   20.60
   2   3  -5  420.56   13.20
   2   3  -5  410.26   17.70
  -2  -3   5  363.46   12.80
   1   3  -5   -0.70    3.40
   1   3  -5   11.70    2.10
   1   3  -5    4.60    2.70
  -1  -3   5    3.00    1.50
   0   3  -5   57.19    4.90
   0   3  -5   67.19    4.40
   0   3  -5   52.69    7.80
   0  -3   5   69.99    5.10
   0  -3   5   62.99    4.20
  -1   3  -5   12.20    2.30
  -1   3  -5    6.60    4.30
   1  -3   5   13.00    2.70
   1  -3   5   11.10    2.40
  -2   3  -5  296.97    9.70
  -2   3  -5  288.67   16.40
   2  -3   5  293.07   10.00
   2  -3   5  264.27   12.10
  -3   3  -5  590.04   27.20
   3  -3   5  653.93   23.30
  -4   3  -5  171.08   13.40
   4  -3   5  191.78   10.60
  -5   3  -5   -7.20    4.00
   5  -3   5    6.80    4.00
   6  -3   5  175.88   11.10
   7  -3   5    6.80    4.70
   8  -3   5    3.30    4.60
   8  -3   5   -3.60    1.90
   9  -3   5   47.60    4.90
   9  -3   5   31.60    7.30
  10  -3   5   62.69    9.80
  10   2  -5   21.50    9.50
   9   2  -5   25.90    9.30
   8   2  -5  148.69   14.90
   7   2  -5   27.50    7.40
   6   2  -5  123.19   11.20
   5   2  -5 1075.19   41.20
   4   2  -5   89.69    8.40
   3   2  -5  148.59   10.00
   2   2  -5  315.17   14.60
   1   2  -5  441.66   17.80
   1   2  -5  405.66   20.50
   1   2  -5  458.15   15.00
  -1  -2   5  484.25   15.00
  -1  -2   5  442.16   17.70
   0   2  -5  446.76   20.80
   0   2  -5  459.05   16.90
   0  -2   5  452.35   15.70
  -1   2  -5  444.46   15.50
  -1   2  -5  438.16   16.10
  -1   2  -5  458.45   21.00
   1  -2   5  454.75   15.60
   1  -2   5  437.06   16.00
  -2   2  -5  175.78   11.70
   2  -2   5  174.78    8.50
  -3   2  -5  161.48   11.30
   3  -2   5  142.39    8.20
  -4   2  -5  391.86   19.60
   4  -2   5  373.26   16.10
  -5   2  -5    3.90    3.80
   5  -2   5    2.50    3.30
   6  -2   5  366.36   17.10
   7  -2   5    3.20    1.90
   7  -2   5   -2.20    3.50
   8  -2   5   65.09    9.20
   8  -2   5   48.90    4.70
   9  -2   5   54.49    5.70
   9  -2   5   50.99    8.00
  10  -2   5    1.10    3.60
  10  -2   5    3.70    5.70
  11  -2   5   27.50    8.00
  10   1  -5    1.80    4.00
  10   1  -5   -6.50    6.00
   9   1  -5   87.89    5.20
   9   1  -5   89.99   13.10
  -9  -1   5   86.39    8.20
   8   1  -5   52.99   10.40
   8   1  -5   53.59    3.70
   7   1  -5  361.86   11.70
  -7  -1   5  333.27   12.20
   6   1  -5   93.99   11.40
   5   1  -5  634.64   27.50
   4   1  -5   44.60    6.70
   3   1  -5  112.99    8.60
   2   1  -5 3154.48   99.09
   1   1  -5 2274.87   72.49
   1   1  -5 2225.88   69.29
  -1  -1   5 2325.97   72.69
  -1  -1   5 2371.66   69.29
   0   1  -5   38.30    3.70
   0   1  -5   36.30    5.90
   0   1  -5   40.40    2.90
   0  -1   5   40.40    3.80
   0  -1   5   41.00    3.00
  -1   1  -5  594.24   19.40
  -1   1  -5  580.24   19.70
  -1   1  -5  587.04   24.20
   1  -1   5  557.64   19.70
  -2   1  -5 2024.20   65.99
   2  -1   5 1917.71   61.59
  -3   1  -5   -3.50    2.40
   3  -1   5    0.40    1.90
  -4   1  -5   24.00    5.60
   4  -1   5   41.20    5.20
  -5   1  -5   27.60    5.90
   5  -1   5   26.30    4.30
   6  -1   5 1028.80   32.40
   6  -1   5 1030.20   36.80
   7  -1   5  125.59    9.70
   7  -1   5  135.39    6.90
   8  -1   5    8.70    3.20
   8  -1   5    3.00    3.60
   9  -1   5   20.50    6.40
   9  -1   5   34.10    5.10
  10  -1   5    3.70    3.80
  10  -1   5    2.70    4.80
  11  -1   5   23.70    5.70
  11  -1   5   11.70    7.10
  10   0  -5   19.90    3.80
  10   0  -5   13.60    8.60
   9   0  -5    4.90    5.70
   9   0  -5    4.20    2.60
   8   0  -5   95.79   13.20
   8   0  -5   90.19    5.60
   7   0  -5   33.10    7.80
   7   0  -5   35.50    3.40
  -7   0   5   34.40    4.20
   6   0  -5   13.90    5.80
   6   0  -5   17.60    2.40
  -6   0   5   12.50    2.50
   5   0  -5  219.58   14.00
   5   0  -5  231.68    8.10
  -5   0   5  219.08    8.50
   4   0  -5  153.18    5.50
   4   0  -5  152.18   10.70
   4   0  -5  154.68    5.60
   3   0  -5  165.48    5.70
   3   0  -5  172.88    5.90
   3   0  -5  172.78   10.40
   2   0  -5  386.46   12.60
   2   0  -5  382.86   12.30
   1   0  -5  388.16   12.80
   1   0  -5  393.86   15.70
  -1   0   5  383.06   12.80
   0   0  -5   25.00    3.40
   0   0  -5   23.70    2.50
   0   0   5   26.80    2.50
  -1   0  -5  302.17   10.80
  -1   0  -5  279.57   10.80
  -1   0  -5  300.97   14.30
   1   0   5  273.47   10.80
  -2   0  -5  521.65   19.40
  -2   0  -5  519.45   21.50
  -2   0  -5  528.85   16.90
  -2   0  -5  511.15   16.60
   2   0   5  553.14   18.70
  -3   0  -5 1658.93   56.19
   3   0   5 1556.14   51.09
  -4   0  -5   62.49    6.70
   4   0   5   87.09    5.90
  -5   0  -5  314.17   11.20
  -5   0  -5  335.97   16.30
   5   0   5  309.97   14.00
   5   0   5  300.87   10.90
  -6   0  -5  337.47   13.00
   6   0   5  336.87   15.40
   6   0   5  348.77   12.90
   7   0   5    0.60    3.30
   7   0   5    6.80    2.40
   8   0   5   38.30    6.80
   8   0   5   24.70    4.50
   9   0   5   41.30    6.00
   9   0   5   46.20    7.80
  10   0   5    9.10    6.00
  10   0   5    6.80    4.40
  11   0   5   -1.60    4.20
  11   0   5   -1.90    5.90
  10  -1  -5    8.80    3.70
  10  -1  -5   12.80    8.70
   9  -1  -5   11.80    3.50
   9  -1  -5    2.60    5.90
   8  -1  -5    3.20    2.60
   8  -1  -5   -0.70    5.40
   7  -1  -5  166.28   13.40
   6  -1  -5  413.36   21.10
   6  -1  -5  428.86   15.00
  -6   1   5  387.06   15.30
   5  -1  -5   79.69    4.60
   5  -1  -5   77.19    9.20
  -5   1   5   81.29    6.00
   4  -1  -5  184.28   11.60
   4  -1  -5  197.58    7.80
  -4   1   5  199.98    8.10
   3  -1  -5 1988.40   59.59
   3  -1  -5 1878.81   64.39
   3  -1  -5 1987.10   59.19
   2  -1  -5   84.99    4.40
   2  -1  -5   94.09    7.90
   2  -1  -5   93.89    4.00
   1  -1  -5  123.79    5.30
   1  -1  -5  129.39    7.60
  -1   1   5  144.49    5.60
   0  -1  -5 2125.79   65.09
   0  -1  -5 2041.70   63.19
   0   1   5 2064.09   63.29
  -1  -1  -5   70.49    6.20
  -1  -1  -5   66.99    4.00
   1   1   5   63.69    4.00
  -2  -1  -5    3.70    1.20
  -2  -1  -5    0.60    2.10
  -2  -1  -5    1.40    1.40
   2   1   5    4.30    1.90
  -3  -1  -5  484.35   16.10
  -3  -1  -5  468.05   19.40
   3   1   5  483.85   19.50
   3   1   5  506.75   18.00
  -4  -1  -5  179.78    7.50
  -4  -1  -5  180.78   10.30
   4   1   5  182.38    9.20
   4   1   5  186.38    7.20
  -5  -1  -5   36.70    3.60
  -5  -1  -5   32.80    5.50
   5   1   5   42.50    5.20
   5   1   5   43.20    3.50
  -6  -1  -5   10.00    3.00
   6   1   5   13.20    4.00
   6   1   5    9.30    2.70
  -7  -1  -5    5.90    3.60
   7   1   5    5.60    3.70
   7   1   5    6.10    2.60
   8   1   5   14.20    3.90
   8   1   5   14.70    4.70
   9   1   5   -0.50    3.30
   9   1   5   -8.10    3.50
  10   1   5    0.50    5.10
  10   1   5   -1.60    3.80
  11   1   5   43.60    8.70
  11   1   5   33.80    7.00
  10  -2  -5   36.50   10.10
  10  -2  -5   28.00    5.70
   9  -2  -5  280.97   20.10
   9  -2  -5  294.27   13.80
   8  -2  -5   85.69   11.80
   8  -2  -5   85.29    6.90
   7  -2  -5   51.09    5.40
   7  -2  -5   35.00    8.30
   6  -2  -5  414.66   21.30
   6  -2  -5  398.26   15.60
   5  -2  -5    3.30    3.80
   5  -2  -5    5.70    2.30
  -5   2   5    4.10    2.20
   4  -2  -5   53.29    4.00
   4  -2  -5   40.10    6.10
  -4   2   5   52.39    4.20
   3  -2  -5 1869.41   63.49
   3  -2  -5 1972.80   59.49
   2  -2  -5  287.87   13.30
   2  -2  -5  265.17    9.90
   2  -2  -5  274.77   10.50
   1  -2  -5   40.90    3.30
   1  -2  -5   38.20    2.80
   0  -2  -5  829.12   27.40
   0   2   5  847.72   26.90
  -1  -2  -5  864.01   28.00
   1   2   5  868.81   28.10
  -2  -2  -5  104.89    5.00
  -2  -2  -5   93.59    6.40
   2   2   5   98.89    5.50
  -3  -2  -5  364.26   14.70
  -3  -2  -5  346.07   12.80
   3   2   5  344.67   12.50
  -4  -2  -5 1186.48   38.30
  -4  -2  -5 1200.98   40.10
   4   2   5 1211.28   40.50
   4   2   5 1195.98   38.00
   4   2   5 1180.88   39.30
  -5  -2  -5   19.90    4.10
  -5  -2  -5   23.40    3.50
   5   2   5   22.70    3.30
   5   2   5   12.10    3.70
   5   2   5   18.10    3.60
  -6  -2  -5   10.70    3.10
   6   2   5   16.70    3.30
   6   2   5    9.60    3.60
   7   2   5   96.19    6.90
   7   2   5   87.09    7.70
   8   2   5    1.50    3.00
   8   2   5   -3.60    3.20
   9   2   5   37.70    6.10
   9   2   5   24.30    6.10
  10   2   5   -0.20    4.50
  10   2   5   -1.90    3.80
  11   2   5   -4.60    4.10
  11   2   5    1.10    5.40
  12   2   5    8.10    6.30
  12   2   5    1.10    5.30
  10  -3  -5    0.60    6.70
  10  -3  -5   13.70    4.90
   9  -3  -5   60.69    7.10
   9  -3  -5   49.00   10.10
   8  -3  -5   77.39   11.50
   8  -3  -5   99.69    8.10
   7  -3  -5   90.29    7.00
   7  -3  -5   82.79   11.50
   6  -3  -5   11.30    3.40
   6  -3  -5   15.80    6.00
   5  -3  -5  839.02   34.30
   5  -3  -5  903.61   29.90
   4  -3  -5  147.19   10.70
   4  -3  -5  141.99    7.50
   3  -3  -5    3.50    2.20
   3  -3  -5    6.50    3.30
  -3   3   5    1.30    2.00
   2  -3  -5 1349.07   42.30
   2  -3  -5 1351.96   43.10
   1  -3  -5 2250.37   68.79
   1  -3  -5 2247.78   69.59
   0  -3  -5  787.02   25.70
   0   3   5  792.02   25.80
  -1  -3  -5  190.68    8.40
  -1  -3  -5  191.18    8.10
   1   3   5  199.88    8.30
  -2  -3  -5  723.53   24.10
  -2  -3  -5  649.04   24.00
  -2  -3  -5  687.53   24.20
   2   3   5  701.53   23.40
  -3  -3  -5   94.19    5.50
  -3  -3  -5   98.99    5.90
   3   3   5   97.19    5.50
   3   3   5   93.09    6.40
  -4  -3  -5  526.45   19.40
  -4  -3  -5  538.35   19.40
   4   3   5  521.25   19.50
   4   3   5  523.95   19.60
   4   3   5  555.84   19.30
  -5  -3  -5  480.05   18.70
   5   3   5  465.75   18.60
   5   3   5  521.45   18.60
   5   3   5  480.65   18.80
   6   3   5   14.40    4.00
   6   3   5   19.30    4.20
   7   3   5  574.94   22.50
   7   3   5  557.04   22.30
   8   3   5  331.77   15.60
   8   3   5  310.57   15.60
   9   3   5   32.20    6.00
  10   3   5   52.39    7.80
  10   3   5   60.69    8.50
  11   3   5    2.70    5.20
  11   3   5   21.30    6.80
  12   3   5    9.00    5.80
  12   3   5   14.10    6.60
  10  -4  -5   63.59    8.70
  10  -4  -5   43.60   11.20
   9  -4  -5   44.80   10.20
   9  -4  -5   59.09    7.60
   8  -4  -5  218.98   17.40
   8  -4  -5  213.98   12.40
   7  -4  -5   92.09   15.00
   7  -4  -5  114.59    8.40
   6  -4  -5    0.40    4.20
   6  -4  -5   -1.00    2.90
   5  -4  -5  260.37   15.90
   5  -4  -5  273.17   12.50
   4  -4  -5  443.26   21.10
   4  -4  -5  467.75   17.80
   2  -4  -5 2193.78   68.69
   1  -4  -5 2228.58   68.79
   1  -4  -5 2233.28   69.69
   0  -4  -5 7295.77  219.08
   0  -4  -5 7263.07  217.98
  -1  -4  -5   46.80    3.80
  -1  -4  -5   48.00    3.90
   1   4   5   45.40    3.80
  -2  -4  -5 2306.27   74.49
   2   4   5 2478.35   74.69
   2   4   5 2421.16   74.29
  -3  -4  -5  301.97   12.40
  -3  -4  -5  292.57   11.10
   3   4   5  306.27   12.20
   3   4   5  284.07   12.10
  -4  -4  -5   50.69    3.80
   4   4   5   59.19    5.00
   4   4   5   54.89    4.80
   5   4   5  596.44   21.90
   5   4   5  587.54   21.00
   6   4   5  135.29    8.70
   6   4   5  140.49    8.50
   6   4   5  118.19    8.20
   7   4   5   70.59    6.90
   7   4   5   88.89    7.20
   7   4   5   64.59    7.40
   8   4   5  111.29    9.20
   8   4   5   90.19    7.90
   9   4   5   42.10    7.10
   9   4   5   37.20    6.60
  10   4   5   14.00    5.60
  10   4   5   11.50    4.90
  11   4   5   -4.40    4.70
  11   4   5   10.30    6.00
  12   4   5    2.20    5.70
  12   4   5    8.40    6.00
  10  -5  -5   -1.90    5.00
  10  -5  -5    0.40    7.70
   9  -5  -5    0.70    4.60
   9  -5  -5   -4.70    6.10
   8  -5  -5    8.30    4.60
   8  -5  -5   12.90    7.50
   7  -5  -5   19.60    7.20
   7  -5  -5    8.90    4.30
   6  -5  -5   -1.90    4.50
   6  -5  -5    5.60    3.60
   5  -5  -5   62.99    6.70
   5  -5  -5   47.40    8.20
   4  -5  -5  117.99    7.90
   4  -5  -5  120.99   10.20
   3  -5  -5  174.48    9.40
   2  -5  -5  858.11   29.80
   1  -5  -5  745.23   26.40
   2   5   5   14.40    3.00
   2   5   5   14.10    2.50
  -3  -5  -5  263.07    9.10
   3   5   5  263.27   11.30
   4   5   5  692.33   25.50
   4   5   5  712.23   24.90
   5   5   5  103.19    6.90
   5   5   5  107.69    7.60
   6   5   5   89.79    6.90
   6   5   5   86.39    5.50
   6   5   5   87.09    7.40
   7   5   5    0.50    2.70
   7   5   5    4.00    3.70
   8   5   5    7.60    3.70
   8   5   5    1.10    3.80
   8   5   5    1.60    3.60
   9   5   5  205.88   12.10
   9   5   5  167.98   12.60
  10   5   5   57.89    9.10
  10   5   5   40.40    7.30
  11   5   5   -4.50    4.20
  11   5   5    4.10    5.70
  12   5   5    5.20    6.20
  12   5   5    8.60    6.10
   9  -6  -5    5.90    5.30
   9  -6  -5   14.30    7.80
   8  -6  -5    6.00    4.80
   8  -6  -5    1.40    6.20
   7  -6  -5   55.09    7.80
   7  -6  -5   46.70    9.60
   6  -6  -5   71.69   10.20
   6  -6  -5   64.99    7.90
   5  -6  -5  166.38   10.30
   5  -6  -5  149.99   12.20
   4  -6  -5    0.90    3.00
   3  -6  -5   15.30    3.80
   2  -6  -5  315.17   14.10
   1  -6  -5  445.96   18.00
   0  -6  -5  527.65   20.30
  -1  -6  -5  534.15   20.50
   2   6   5  165.88    8.30
   2   6   5  167.58    9.00
   3   6   5  327.17   14.70
   3   6   5  349.67   13.90
   4   6   5  539.05   21.10
   4   6   5  522.95   19.80
   5   6   5  132.59    7.90
   5   6   5  148.09    9.50
   6   6   5    6.40    3.60
   6   6   5   -1.20    2.70
   7   6   5  306.57   12.00
   7   6   5  315.17   14.50
   7   6   5  326.67   16.40
   8   6   5   30.10    6.60
   8   6   5   31.80    5.50
   9   6   5    1.30    4.60
   9   6   5    4.50    4.00
   9   6   5    3.80    4.90
  10   6   5    6.60    5.30
  10   6   5    6.30    4.70
  11   6   5   16.90    6.90
  11   6   5   12.40    5.50
  12   6   5    3.00    5.90
  12   6   5    5.80    5.50
   9  -7  -5    9.90    5.90
   9  -7  -5    6.20    7.20
   8  -7  -5   33.80    7.30
   8  -7  -5   44.10   10.40
   7  -7  -5    0.20    5.80
   7  -7  -5    1.70    4.70
   6  -7  -5   18.00    5.50
   6  -7  -5    5.40    6.40
   5  -7  -5  200.08   11.90
   5  -7  -5  164.08   13.20
   4  -7  -5   13.20    4.70
   3  -7  -5  619.94   24.30
   2  -7  -5 1170.78   40.40
   1  -7  -5   60.49    6.60
   0  -7  -5  484.75   19.70
  -1  -7  -5  731.03   26.80
  -2  -7  -5   16.00    4.00
  -2  -7  -5   20.30    2.90
   3   7   5   17.70    3.50
   3   7   5   12.80    3.60
   4   7   5  683.13   26.80
   4   7   5  726.73   25.50
   5   7   5  116.09    9.10
   5   7   5  119.69    7.70
   6   7   5  111.39    9.30
   6   7   5  105.09    7.40
   7   7   5   18.40    5.30
   7   7   5   16.60    4.40
   8   7   5   92.79    8.00
   8   7   5   75.79    4.60
   8   7   5   83.09   10.10
   9   7   5    5.60    3.30
   9   7   5   -6.90    4.00
   9   7   5   -1.20    3.70
  10   7   5    7.10    4.80
  10   7   5   10.90    6.50
  11   7   5    5.10    4.90
  11   7   5   10.60    6.50
   9  -8  -5    2.40    7.80
   9  -8  -5   -1.50    5.90
   8  -8  -5    4.40    5.90
   8  -8  -5    0.60    6.90
   7  -8  -5   85.69   10.20
   7  -8  -5   74.19   11.90
   6  -8  -5   46.20    7.60
   6  -8  -5   24.50    8.30
   5  -8  -5   27.50    6.20
   4  -8  -5    4.10    4.40
   3  -8  -5   92.59    8.50
   2  -8  -5  218.08   12.20
   1  -8  -5  528.25   21.70
   0  -8  -5    5.60    3.10
  -1  -8  -5  220.68   12.00
  -1  -8  -5  233.98   11.20
  -2  -8  -5 1397.26   47.60
  -2  -8  -5 1410.66   45.10
   2   8   5 1396.96   47.80
  -3  -8  -5  325.57   11.20
  -3  -8  -5  338.87   15.80
   3   8   5  318.27   15.50
   4   8   5  274.47   14.30
   4   8   5  264.97   12.50
   5   8   5  136.89    8.50
   5   8   5  121.49   10.00
   6   8   5  847.92   30.10
   6   8   5  808.52   32.80
   7   8   5   97.59    9.60
   7   8   5  100.49    8.10
   8   8   5   18.60    5.00
   8   8   5   12.10    5.40
   9   8   5   74.49   10.70
   9   8   5   62.19   11.40
  10   8   5   22.10    5.80
  10   8   5   17.20    7.20
  11   8   5   41.40    7.60
  11   8   5   18.10    8.30
   8  -9  -5   -3.60    5.30
   8  -9  -5   -8.60    6.70
   7  -9  -5    8.70    7.50
   7  -9  -5    5.00    6.10
   6  -9  -5   44.10    7.90
   6  -9  -5   47.80    9.60
   5  -9  -5    0.10    4.60
   4  -9  -5  205.08   13.30
   3  -9  -5   52.89    7.60
   2  -9  -5   85.89    9.10
   1  -9  -5  199.48   11.90
   0  -9  -5  862.21   32.20
  -1  -9  -5  176.08   10.80
  -2  -9  -5  117.49   10.00
  -2  -9  -5  153.48    9.90
   2   9   5  113.69    9.10
  -3  -9  -5  198.48   12.00
  -3  -9  -5  204.98    8.50
   3   9   5  188.68   11.90
  -4  -9  -5   16.60    5.00
   4   9   5   21.40    5.50
   5   9   5  376.76   18.70
   5   9   5  362.96   16.10
   6   9   5  192.28   13.90
   6   9   5  232.18   12.00
   7   9   5  136.89   11.90
   7   9   5   89.79    8.40
   8   9   5   98.09   11.90
   8   9   5  128.59    9.50
   9   9   5   25.80    5.60
   9   9   5   22.30    7.40
  10   9   5   10.20    5.10
  10   9   5   -1.30    5.40
  11   9   5   10.30    5.50
  11   9   5   -0.60    6.80
   7 -10  -5    0.90    7.30
   7 -10  -5   -4.70    5.40
   6 -10  -5   10.70    7.40
   6 -10  -5    4.50    6.10
   5 -10  -5    7.60    5.60
   4 -10  -5  126.29   11.60
   2 -10  -5  107.89    9.40
   1 -10  -5    9.60    4.30
   0 -10  -5  211.58   12.90
  -1 -10  -5    5.40    4.00
  -2 -10  -5   73.09    6.70
  -2 -10  -5   69.29    8.30
   2  10   5   80.29    8.00
  -3 -10  -5  192.98   12.20
  -3 -10  -5  191.58    9.20
  -4 -10  -5  297.87   15.30
   4  10   5  266.07   15.50
  -5 -10  -5   41.30    7.20
   5  10   5   47.20    8.20
   6  10   5   -1.50    4.60
   7  10   5   53.79    9.40
   7  10   5   56.29    7.10
   8  10   5   11.10    6.30
   8  10   5   22.80    6.20
   9  10   5   20.30    7.20
   9  10   5   33.20    6.30
  10  10   5   62.29    8.30
  10  10   5   71.99   12.30
  11  10   5   15.00    8.60
  11  10   5   15.10    6.00
   7 -11  -5   -5.60    6.50
   7 -11  -5    6.00    7.00
   6 -11  -5    7.50    7.30
   6 -11  -5    4.10    5.70
   5 -11  -5   25.80    7.60
   4 -11  -5   59.39    8.90
   3 -11  -5   93.99   10.60
   2 -11  -5  142.69   11.90
   1 -11  -5   61.79   11.60
   0 -11  -5   25.80    6.30
  -1 -11  -5  373.36   18.50
  -2 -11  -5  306.37   16.20
   2  11   5  285.47   16.50
  -3 -11  -5    6.10    3.30
  -3 -11  -5   12.20    5.20
   3  11   5    3.20    4.00
  -4 -11  -5  238.98   14.30
   4  11   5  247.78   15.50
  -5 -11  -5  390.26   19.70
   5  11   5  400.56   21.00
  -6 -11  -5   29.00    7.00
   6  11   5   37.30    7.70
  -7 -11  -5  108.69   11.60
   7  11   5   89.19   11.30
   8  11   5   31.60    8.50
   9  11   5   49.40   10.60
   9  11   5   45.10    7.50
  10  11   5    5.30    5.00
  10  11   5   -1.70    6.60
   6 -12  -5   12.50    7.20
   5 -12  -5   -4.40    5.50
   4 -12  -5   31.40    7.80
   3 -12  -5   27.80    7.60
   2 -12  -5  103.29   11.40
   1 -12  -5   39.50    7.80
   0 -12  -5  143.49   11.80
  -1 -12  -5  117.29   10.90
   2  12   5   83.39   10.10
  -3 -12  -5   22.40    5.00
  -3 -12  -5   20.40    6.10
   3  12   5   31.80    7.10
  -4 -12  -5  217.28   14.90
   4  12   5  242.68   16.30
   5  12   5  147.39   12.60
  -6 -12  -5   31.60    7.30
   6  12   5   31.50    7.80
  -7 -12  -5   11.60    6.20
   7  12   5    6.90    6.10
  -8 -12  -5   61.69    9.60
   8  12   5   33.10    8.80
  -9 -12  -5    3.60    5.70
   9  12   5   -0.60    7.00
   5 -13  -5   -0.60    6.20
   4 -13  -5   -4.40    5.50
   3 -13  -5   27.00    8.30
   2 -13  -5    1.00    5.30
   1 -13  -5    4.10    5.50
   0 -13  -5  206.18   14.40
  -1 -13  -5    2.00    5.10
  -2 -13  -5    0.90    4.40
  -3 -13  -5   13.60    6.10
   3  13   5    8.80    5.40
  -4 -13  -5   31.20    7.40
   4  13   5   36.50    8.60
  -5 -13  -5   81.89   10.40
   5  13   5   66.79   10.30
  -6 -13  -5   31.20    7.80
   6  13   5   47.70    9.60
  -7 -13  -5    4.50    5.70
   7  13   5    5.50    6.70
  -8 -13  -5    9.20    6.20
   8  13   5    1.40    6.30
  -9 -13  -5   13.20    6.90
   9  13   5    7.10    7.70
   4 -14  -5    9.50    6.70
   3 -14  -5    2.10    6.10
   2 -14  -5   -1.10    5.90
   1 -14  -5   11.70    6.00
   0 -14  -5   64.29   10.10
  -1 -14  -5   -9.40    4.60
  -2 -14  -5   -1.60    5.00
  -3 -14  -5   67.19   10.30
   3  14   5   74.49   11.30
  -4 -14  -5    6.20    5.90
   4  14   5   15.70    6.80
  -5 -14  -5    7.70    6.00
   5  14   5   -6.30    5.20
  -6 -14  -5   38.40    8.40
   6  14   5   48.50   10.20
  -7 -14  -5   52.69    9.50
   7  14   5   74.09   12.50
  -8 -14  -5    1.40    5.90
   8  14   5    5.40    7.10
   2 -15  -5   12.60    7.30
   1 -15  -5    3.20    6.40
   0 -15  -5   18.80    7.50
  -1 -15  -5    7.00    6.50
  -2 -15  -5    6.30    6.50
  -3 -15  -5   70.89   10.50
   3  15   5   62.99   11.50
  -4 -15  -5   91.09   12.00
   4  15   5  105.39   13.10
  -5 -15  -5   29.00    8.00
   5  15   5   35.20   10.20
  -6 -15  -5    6.60    6.10
   6  15   5   -2.30    5.50
  -1 -16  -5   14.90    8.10
  -2 -16  -5   26.60    8.60
  -3 -16  -5   21.90    8.60
  -4 -16  -5    7.20    7.20
   4  16   5    5.40    7.20
   3  11  -6   25.90    8.50
   3  11  -6    9.20    9.30
  -3 -11   6   -4.10    2.80
   2  11  -6   -9.30    5.50
   2  11  -6   -3.40    8.00
  -2 -11   6    3.00    4.70
   1  11  -6   -1.10    9.20
   1  11  -6   17.80    6.80
  -1 -11   6   16.60    5.60
   0  11  -6   -0.50    9.50
   0  11  -6    2.10    5.00
   0 -11   6   -4.80    4.80
  -1  11  -6   18.60   11.20
   1 -11   6   15.10    6.70
   5  10  -6   81.19   13.00
   5  10  -6   66.49   14.20
   4  10  -6   40.50   11.60
   4  10  -6   16.50    8.20
   3  10  -6    3.50    8.40
   3  10  -6   11.10    6.80
  -3 -10   6    9.50    3.80
   2  10  -6   11.80    6.30
   2  10  -6    1.10    8.20
  -2 -10   6   14.60    4.50
   1  10  -6  -12.70    6.30
   1  10  -6    2.00    5.10
  -1 -10   6    3.70    4.40
   0  10  -6    0.90    8.20
   0  10  -6   -0.30    4.20
   0 -10   6   -6.60    4.00
  -1  10  -6    5.70    4.30
  -1  10  -6   -8.60    6.00
   1 -10   6    2.00    4.80
  -2  10  -6  -11.30    7.50
   2 -10   6    7.10    5.70
  -3  10  -6   -7.30    8.50
   3 -10   6    6.50    5.80
  -4  10  -6    2.90    8.20
   4 -10   6   -8.20    5.20
   6   9  -6    1.10    6.60
   6   9  -6    9.70    7.90
   5   9  -6    4.30    6.50
   5   9  -6    8.50    7.80
   4   9  -6    9.40    6.60
   4   9  -6    2.80    7.10
  -4  -9   6   -1.10    1.60
   3   9  -6   22.80    7.30
   3   9  -6   28.60   10.20
  -3  -9   6   37.70    4.70
   2   9  -6   83.89   10.60
   2   9  -6  108.29   16.60
  -2  -9   6  104.79    7.60
   1   9  -6    1.20    7.40
   1   9  -6    1.30    4.10
  -1  -9   6    3.80    3.80
   0   9  -6    8.10    4.50
   0   9  -6    6.10    8.10
   0  -9   6    4.10    4.10
  -1   9  -6   49.60    6.50
  -1   9  -6   35.40   11.40
   1  -9   6   54.19    7.40
  -2   9  -6   37.10   10.40
   2  -9   6   67.99    8.50
  -3   9  -6    0.80    8.40
   3  -9   6   -3.60    4.60
  -4   9  -6   -1.70    9.10
   4  -9   6   -6.40    4.60
  -5   9  -6    5.50    8.10
   5  -9   6    8.50    6.60
   7   8  -6   23.30    9.40
   7   8  -6   29.50   10.40
   6   8  -6   -3.60    7.40
   6   8  -6   12.50    7.80
   5   8  -6   46.50    9.70
   5   8  -6   33.00   10.30
   4   8  -6  121.99   16.00
   4   8  -6  132.09   12.90
   3   8  -6   46.10   11.40
   3   8  -6   58.79    9.10
  -3  -8   6   46.30    4.40
   2   8  -6   12.10    7.40
   2   8  -6   12.50    5.40
  -2  -8   6   13.80    3.60
   1   8  -6   56.89   12.30
   1   8  -6   62.29    8.30
  -1  -8   6   66.89    6.70
   0   8  -6   30.60    5.60
   0   8  -6   12.00    7.70
   0  -8   6   23.90    4.90
  -1   8  -6   -5.50    2.70
  -1   8  -6    3.00    6.80
   1  -8   6    1.80    3.60
  -2   8  -6    0.40    7.50
   2  -8   6   -0.10    4.00
  -3   8  -6    4.70    7.80
   3  -8   6    8.00    5.00
  -4   8  -6    3.70    8.20
   4  -8   6   -2.30    4.70
  -5   8  -6    5.10    8.70
   5  -8   6    5.70    5.80
   6  -8   6    0.00    5.20
   8   7  -6   42.00   11.10
   8   7  -6    4.30    7.90
   7   7  -6   70.19   13.50
   7   7  -6   86.59   13.60
   6   7  -6   45.30    9.80
   6   7  -6   46.80   11.80
   5   7  -6   -1.00    6.60
   5   7  -6    7.70    6.40
   4   7  -6  249.38   19.70
   4   7  -6  233.68   18.70
   3   7  -6  170.68   13.40
  -3  -7   6  169.08    7.40
  -3  -7   6  183.38   10.00
   2   7  -6   -9.00    6.30
   2   7  -6    1.50    4.00
  -2  -7   6    4.50    4.40
   1   7  -6   98.99   15.60
   1   7  -6  137.19   10.20
  -1  -7   6  135.79    8.00
   0   7  -6  138.69    9.40
   0  -7   6  138.19    8.90
  -1   7  -6   24.20    4.40
  -1   7  -6   15.20    8.10
   1  -7   6   20.10    5.00
  -2   7  -6    8.80    6.80
   2  -7   6    5.10    3.20
   2  -7   6    1.20    3.70
  -3   7  -6   16.80    8.70
   3  -7   6   10.00    2.90
   3  -7   6   17.50    5.30
  -4   7  -6   12.30    8.90
   4  -7   6   -5.90    3.80
  -5   7  -6   -3.00    5.90
   5  -7   6   -0.30    4.80
   6  -7   6    1.00    5.10
   7  -7   6    3.60    6.00
   9   6  -6   16.80   10.10
   8   6  -6  -14.30    5.40
   7   6  -6   27.90    9.20
   7   6  -6   14.20    7.80
   6   6  -6   70.69   11.40
   6   6  -6   79.39   13.50
   5   6  -6    0.30    5.30
   4   6  -6    6.60    5.20
   4   6  -6   -3.40    5.30
   3   6  -6   24.60    6.60
   3   6  -6   18.10    7.20
  -3  -6   6   20.40    2.30
  -3  -6   6   23.40    2.40
   2   6  -6   12.60    3.10
   2   6  -6    4.50    3.90
   2   6  -6    7.60    6.40
  -2  -6   6    5.60    2.20
   1   6  -6 1176.68   49.40
   1   6  -6 1269.77   42.90
  -1  -6   6 1189.38   39.40
   0   6  -6    5.70    3.40
   0   6  -6   13.70    6.70
   0  -6   6   11.40    3.40
  -1   6  -6   97.79   13.50
  -1   6  -6  124.79    7.50
   1  -6   6  127.09    8.40
  -2   6  -6   18.90    3.00
  -2   6  -6   24.20    8.10
   2  -6   6   30.80    5.30
  -3   6  -6  238.28   18.50
   3  -6   6  249.58   13.70
  -4   6  -6   11.20    7.60
   4  -6   6   14.90    6.00
  -5   6  -6   37.40    9.60
   5  -6   6   54.19    8.00
  -6   6  -6    5.30    6.90
   6  -6   6    4.40    5.20
   7  -6   6   11.00    6.30
   8  -6   6   -5.10    5.70
   9   5  -6   89.79   14.50
   8   5  -6   45.70   10.30
   7   5  -6    1.10    5.30
   6   5  -6  259.27   17.70
   5   5  -6  447.76   23.40
   5   5  -6  427.86   25.20
   4   5  -6  170.28   15.60
   4   5  -6  157.48   12.60
   3   5  -6   58.09   10.40
   3   5  -6   60.29    8.60
   2   5  -6  667.83   32.40
   2   5  -6  717.23   25.50
   2   5  -6  743.93   28.80
  -2  -5   6  695.83   23.00
   1   5  -6  625.44   25.00
   1   5  -6  653.63   30.80
  -1  -5   6  622.94   21.60
   0   5  -6   48.20    9.80
   0   5  -6   54.89    7.20
   0  -5   6   56.29    4.90
  -1   5  -6  206.78    9.60
  -1   5  -6  202.68   16.20
   1  -5   6  217.88   10.60
   1  -5   6  189.58    9.80
  -2   5  -6   30.90    3.20
  -2   5  -6   20.70    7.30
   2  -5   6   45.70    5.90
   2  -5   6   30.00    3.50
  -3   5  -6   28.70    7.90
   3  -5   6   25.90    5.40
  -4   5  -6  399.86   23.80
   4  -5   6  394.36   18.10
  -5   5  -6   33.70    9.10
   5  -5   6   39.40    7.80
  -6   5  -6   14.70    7.50
   6  -5   6   14.30    5.20
   7  -5   6    3.50    5.40
   8  -5   6   -0.20    4.60
   9  -5   6    2.30    5.90
   9   4  -6   27.90    9.20
   8   4  -6   64.59   12.30
   7   4  -6   22.20    7.90
   6   4  -6   90.59   12.10
   5   4  -6  400.46   21.30
   4   4  -6  645.14   28.30
   3   4  -6   87.79    8.80
   3   4  -6   88.69   12.40
   2   4  -6  702.83   31.90
   2   4  -6  712.43   27.80
   2   4  -6  710.43   22.90
  -2  -4   6  689.03   22.40
   1   4  -6   27.00    7.20
   1   4  -6   24.30    3.20
   1   4  -6   25.30    4.90
  -1  -4   6   22.50    2.90
   0   4  -6    8.70    3.00
   0   4  -6    1.00    5.10
   0  -4   6    5.10    2.60
  -1   4  -6   21.10    6.50
  -1   4  -6   38.40    4.10
   1  -4   6   27.50    4.20
   1  -4   6   33.00    4.10
  -2   4  -6    5.60    5.10
  -2   4  -6    8.20    1.80
   2  -4   6    9.00    3.40
   2  -4   6    7.20    2.00
  -3   4  -6    0.80    4.40
   3  -4   6   -2.10    2.90
  -4   4  -6   35.80    8.00
   4  -4   6   44.70    6.50
  -5   4  -6   29.60    8.70
   5  -4   6   25.90    5.70
  -6   4  -6   16.80    7.40
   6  -4   6    8.00    5.00
   7  -4   6    4.40    4.70
   8  -4   6   87.99   10.60
   9  -4   6   14.50    6.90
  10   3  -6   34.00   10.90
   9   3  -6    1.90    6.10
   8   3  -6   -0.20    5.20
   7   3  -6   65.69   11.70
   6   3  -6   13.50   11.10
   5   3  -6   -2.20    4.40
   4   3  -6  145.99   11.50
   3   3  -6  254.67   14.40
   2   3  -6  528.75   25.30
   2   3  -6  491.65   16.20
   2   3  -6  509.05   21.40
  -2  -3   6  496.15   16.00
   1   3  -6  240.58   15.60
   1   3  -6  244.38    9.80
   1   3  -6  256.67   12.50
  -1  -3   6  234.58    9.30
   0   3  -6  264.47   11.40
   0   3  -6  235.98   15.40
   0   3  -6  228.68    9.80
   0  -3   6  222.28    9.70
   0  -3   6  230.08   11.00
  -1   3  -6  272.67   16.70
  -1   3  -6  284.77   11.20
   1  -3   6  269.57   11.50
   1  -3   6  276.17   11.30
  -2   3  -6   15.90    5.80
  -2   3  -6   20.90    1.90
   2  -3   6   19.70    3.70
  -3   3  -6  448.86   23.20
   3  -3   6  445.66   18.20
  -4   3  -6   19.10    6.30
   4  -3   6   23.10    4.70
  -5   3  -6   50.59    9.60
   5  -3   6   41.90    6.20
  -6   3  -6   73.69   11.10
   6  -3   6   72.09    8.60
   7  -3   6   20.30    6.00
   8  -3   6   -2.70    4.40
   9  -3   6    8.70    6.00
  10  -3   6   20.80    7.20
  10   2  -6   47.60   12.50
   9   2  -6   69.49   13.40
   8   2  -6    7.20    6.80
   7   2  -6   18.00    7.50
   6   2  -6  491.75   25.10
   5   2  -6  176.78   13.10
   4   2  -6  685.83   28.80
   3   2  -6  333.17   16.70
   2   2  -6  108.59    4.30
   2   2  -6  119.89    8.50
  -2  -2   6  113.99    4.30
   1   2  -6  235.98   14.80
   1   2  -6  222.38    8.60
   1   2  -6  219.38   12.60
  -1  -2   6  227.78    8.50
   0   2  -6  470.85   17.90
   0   2  -6  502.45   23.10
   0   2  -6  450.95   16.40
   0  -2   6  453.55   17.80
   0  -2   6  467.45   16.40
  -1   2  -6   48.50    3.80
  -1   2  -6   35.30    6.70
   1  -2   6   50.89    4.20
  -2   2  -6   64.39    8.90
  -2   2  -6   68.09    3.10
   2  -2   6   54.79    5.00
  -3   2  -6  487.05   23.00
   3  -2   6  439.06   18.00
  -4   2  -6  212.98   14.80
   4  -2   6  197.28   10.90
  -5   2  -6   23.60    6.50
   5  -2   6    3.30    3.80
  -6   2  -6   92.99   12.30
   6  -2   6   67.69    8.00
   7  -2   6  155.38   11.00
   8  -2   6    8.80    5.10
   9  -2   6   -3.70    3.50
  10  -2   6   14.40    6.40
  10   1  -6   12.40    8.40
   9   1  -6   36.50    9.50
   8   1  -6   36.40   10.10
   7   1  -6  467.75   25.00
   6   1  -6  200.88   14.60
   5   1  -6   34.40    7.20
   4   1  -6   49.30    7.20
   3   1  -6 1430.56   49.90
   2   1  -6  210.58   11.40
   2   1  -6  197.08    6.80
   1   1  -6   52.99    3.30
   1   1  -6   58.59    5.40
  -1  -1   6   58.89    3.30
   0   1  -6  206.18    8.20
   0   1  -6  185.08   12.60
   0   1  -6  207.28    9.70
   0  -1   6  196.38    8.20
  -1   1  -6  348.87   13.20
  -1   1  -6  360.26   13.20
  -1   1  -6  375.56   18.30
   1  -1   6  324.67   13.10
  -2   1  -6  208.88   13.20
  -2   1  -6  212.68    7.70
   2  -1   6  222.28    9.90
  -3   1  -6    0.80    3.40
   3  -1   6    2.20    2.60
  -4   1  -6    6.60    4.50
   4  -1   6    9.70    3.40
  -5   1  -6   20.90    6.20
   5  -1   6   23.40    4.70
  -6   1  -6   66.39    9.40
   6  -1   6   60.89    7.50
   7  -1   6   75.79    8.80
   8  -1   6   33.50    6.50
   8  -1   6   28.00    3.10
   9  -1   6   -3.40    4.50
   9  -1   6    0.20    2.40
  10  -1   6   82.09    9.50
  10  -1   6   75.09   10.30
  11  -1   6    7.00    6.30
  10   0  -6    2.00    8.10
  10   0  -6   -9.70    4.20
   9   0  -6   -1.90    5.50
   9   0  -6    4.70    2.30
   8   0  -6  186.68    7.70
   8   0  -6  209.58   17.00
   7   0  -6  138.39    5.80
   7   0  -6  138.79   13.60
   6   0  -6    5.90    1.40
   6   0  -6   10.00    4.70
   6   0  -6    8.40    1.40
   5   0  -6  609.44   27.00
   4   0  -6  441.36   20.70
   3   0  -6   14.00    4.20
   2   0  -6 1277.77   39.90
   2   0  -6 1324.87   45.00
   2   0  -6 1332.37   40.30
   1   0  -6 2010.70   63.39
   1   0  -6 1906.61   59.79
  -1   0   6 1993.90   59.89
   0   0  -6 1003.80   36.70
   0   0  -6  993.90   31.50
   0   0  -6  938.71   32.40
   0   0   6  932.61   30.70
  -1   0  -6  281.77   15.00
  -1   0  -6  267.47   10.80
  -1   0  -6  288.77   11.10
   1   0   6  276.97   10.90
  -2   0  -6  291.77   15.40
  -2   0  -6  290.67   10.50
   2   0   6  294.37   14.70
  -3   0  -6  662.13   27.20
   3   0   6  676.93   23.90
  -4   0  -6  196.08   12.40
   4   0   6  186.28   10.00
  -5   0  -6  377.76   18.90
   5   0   6  381.16   16.60
  -6   0  -6    9.40    5.20
   6   0   6   11.10    1.80
   6   0   6   13.30    4.50
   7   0   6    8.70    4.00
   7   0   6    3.40    2.10
   8   0   6    6.30    4.10
   8   0   6    8.50    2.80
   9   0   6    3.30    3.30
   9   0   6    8.90    5.30
  10   0   6   -2.00    3.30
  10   0   6    9.30    5.60
  11   0   6    3.30    5.80
  11   0   6    7.10    4.30
  10  -1  -6    7.50    3.50
  10  -1  -6   10.60    8.40
   9  -1  -6    7.60    6.80
   9  -1  -6    0.50    2.70
   8  -1  -6   72.39   11.40
   7  -1  -6  100.19    5.80
   7  -1  -6  110.49   13.60
  -7   1   6   90.69    6.70
   6  -1  -6   27.10    7.00
   6  -1  -6   35.10    3.50
  -6   1   6   30.80    3.90
   5  -1  -6   69.59    9.40
   5  -1  -6   69.39    3.90
   5  -1  -6   62.29    4.00
   4  -1  -6 1292.07   40.50
   4  -1  -6 1299.67   40.20
   4  -1  -6 1344.57   47.30
   3  -1  -6  376.26   17.30
   3  -1  -6  358.76   12.50
   3  -1  -6  355.56   12.10
   2  -1  -6  253.17   12.80
   2  -1  -6  249.48    8.90
   2  -1  -6  249.88    9.50
   1  -1  -6  573.34   22.20
   1  -1  -6  607.54   19.20
  -1   1   6  574.24   19.20
   0  -1  -6   23.80    3.60
   0  -1  -6   21.40    2.50
   0   1   6   18.50    2.40
  -1  -1  -6 1463.65   50.09
  -1  -1  -6 1424.16   45.20
  -1  -1  -6 1443.36   45.80
   1   1   6 1421.76   45.30
  -2  -1  -6 1116.69   39.60
  -2  -1  -6 1103.69   34.60
   2   1   6 1089.69   36.00
  -3  -1  -6  336.77   11.90
   3   1   6  359.76   14.10
  -4  -1  -6  518.05   21.70
  -4  -1  -6  507.25   16.80
   4   1   6  490.15   19.30
  -5  -1  -6  184.58    7.80
  -5  -1  -6  194.98   11.80
   5   1   6  186.28    7.50
   5   1   6  186.48   10.40
  -6  -1  -6  108.49    9.50
  -6  -1  -6  112.09    6.30
   6   1   6  124.49    8.70
   6   1   6  114.59    6.00
  -7  -1  -6    8.50    3.00
   7   1   6   11.90    2.80
   7   1   6    6.80    4.20
   8   1   6   99.99    6.90
   9   1   6   28.30    6.40
   9   1   6   31.90    5.10
  10   1   6    6.10    5.30
  10   1   6    4.20    3.70
  11   1   6   -1.80    5.70
  11   1   6    3.40    4.20
  10  -2  -6   18.70    4.60
  10  -2  -6   13.00    9.10
   9  -2  -6    7.80    3.60
   9  -2  -6    2.20    6.90
   8  -2  -6   84.29   12.80
   8  -2  -6   77.69    6.30
   7  -2  -6  421.46   23.40
   7  -2  -6  409.16   15.90
   6  -2  -6  440.06   16.10
   6  -2  -6  411.76   22.10
   5  -2  -6   11.20    2.60
   5  -2  -6    6.70    4.30
  -5   2   6    4.60    2.50
   4  -2  -6    9.10    2.00
   4  -2  -6   11.10    2.50
   4  -2  -6   11.10    4.40
   3  -2  -6  723.83   23.60
   3  -2  -6  692.03   27.90
   2  -2  -6  163.78    6.90
   2  -2  -6  146.49    9.60
   2  -2  -6  148.59    7.10
   1  -2  -6  296.47   13.20
   0  -2  -6 2176.68   68.09
   0   2   6 2270.07   68.29
  -1  -2  -6 3219.98  101.09
   1   2   6 3440.86  101.39
  -2  -2  -6  958.60   31.70
  -2  -2  -6 1008.50   35.10
   2   2   6  991.90   32.50
  -3  -2  -6  208.08   11.10
  -3  -2  -6  211.38    8.60
   3   2   6  214.08    9.80
  -4  -2  -6  750.72   27.90
  -4  -2  -6  750.52   25.00
   4   2   6  742.23   26.40
   4   2   6  749.13   24.50
   4   2   6  738.83   29.50
  -5  -2  -6   74.59    5.10
   5   2   6   73.69    6.40
   5   2   6   71.59    4.70
  -6  -2  -6  124.29    7.40
   6   2   6  135.49    7.30
   6   2   6  130.39    8.80
   7   2   6    2.60    3.70
   7   2   6    5.40    2.70
   8   2   6    1.60    2.80
   8   2   6    0.20    4.00
   9   2   6   35.70    6.90
   9   2   6   36.90    5.90
  10   2   6   65.19    7.90
  10   2   6   71.49    9.40
  11   2   6    7.00    4.70
  11   2   6   -2.60    4.80
  10  -3  -6   14.80    8.40
  10  -3  -6    4.50    4.40
   9  -3  -6   27.40    9.40
   9  -3  -6   30.00    5.60
   8  -3  -6   71.09    7.10
   8  -3  -6   66.69   11.70
   7  -3  -6  253.57   12.00
   7  -3  -6  238.48   17.40
   6  -3  -6  287.97   18.00
   6  -3  -6  272.67   12.30
   5  -3  -6  234.08   14.90
   5  -3  -6  223.38   10.30
   4  -3  -6  147.09    7.90
   4  -3  -6  179.18   12.20
   3  -3  -6 1037.90   38.40
   3  -3  -6 1055.69   34.30
   3  -3  -6 1038.80   33.60
   2  -3  -6 2049.29   64.59
   2  -3  -6 2092.19   68.89
   2  -3  -6 2162.48   65.69
   1  -3  -6  843.52   28.90
   1  -3  -6  880.11   28.00
   0  -3  -6 1245.38   40.00
   0   3   6 1280.47   40.20
   1   3   6 4465.45  135.09
  -2  -3  -6  497.45   17.30
  -2  -3  -6  452.95   18.90
  -3  -3  -6  718.83   25.40
  -3  -3  -6  791.62   27.20
   3   3   6  748.33   26.00
  -4  -3  -6  419.26   15.90
  -4  -3  -6  432.16   17.10
   4   3   6  401.46   16.50
   4   3   6  420.26   15.60
   4   3   6  424.66   17.10
  -5  -3  -6  899.91   31.00
  -5  -3  -6  936.71   32.10
   5   3   6  926.41   30.50
   5   3   6  891.11   31.70
   5   3   6  876.31   32.10
   6   3   6    8.30    3.00
   6   3   6    9.50    3.50
   7   3   6  402.96   17.90
   7   3   6  399.26   16.70
   8   3   6   73.29    7.00
   8   3   6   88.59    8.50
   9   3   6    7.30    4.80
   9   3   6    3.70    3.60
  10   3   6   73.29    9.60
  10   3   6   84.39    9.40
  11   3   6   30.40    7.50
  11   3   6   36.20    7.40
  12   3   6   -5.90    4.80
  12   3   6    4.70    6.20
  10  -4  -6   47.90    7.30
  10  -4  -6   25.30    9.80
   9  -4  -6    2.10    4.20
   9  -4  -6    3.80    7.20
   8  -4  -6   -1.80    5.90
   8  -4  -6   -1.30    3.50
   7  -4  -6   41.10    5.90
   7  -4  -6   58.99   10.40
   6  -4  -6  169.48   13.80
   6  -4  -6  169.58    9.80
   5  -4  -6   36.40    4.80
   5  -4  -6   19.40    6.20
   4  -4  -6  118.89   10.40
   4  -4  -6  106.49    7.20
   3  -4  -6   22.40    5.30
   3  -4  -6   13.40    3.20
   2  -4  -6  717.03   25.20
   1  -4  -6  480.95   18.10
   0   4   6   80.59    5.10
   1   4   6 1058.19   35.60
  -2  -4  -6   87.09    5.60
   2   4   6   90.99    5.60
  -3  -4  -6   90.09    6.00
  -3  -4  -6   95.79    6.20
   3   4   6  100.39    6.10
   3   4   6   91.99    5.90
  -4  -4  -6  933.11   31.10
   4   4   6  912.41   31.80
   4   4   6  940.51   31.50
  -5  -4  -6   70.59    5.40
   5   4   6   66.89    5.70
   5   4   6   75.99    6.30
   5   4   6   58.79    5.50
   6   4   6  103.39    7.30
   6   4   6   89.49    7.10
   6   4   6  104.99    7.40
   7   4   6   65.89    7.50
   7   4   6   58.79    6.90
   8   4   6   23.40    5.40
   8   4   6   16.80    4.50
   9   4   6   -1.30    3.70
   9   4   6   -1.00    3.60
  10   4   6   68.09    8.90
  10   4   6   57.39    8.60
  11   4   6    4.90    5.90
  11   4   6   -1.70    4.50
  12   4   6    6.50    6.40
  12   4   6    6.40    6.00
   9  -5  -6    6.80    4.90
   9  -5  -6    1.70    7.20
   8  -5  -6   44.30    9.80
   8  -5  -6   59.49    7.70
   7  -5  -6  145.69   10.00
   7  -5  -6  114.49   14.00
   6  -5  -6   61.29    7.20
   6  -5  -6   39.50    8.50
   5  -5  -6  305.17   18.20
   5  -5  -6  308.17   14.30
   4  -5  -6  196.48   10.60
   4  -5  -6  196.68   13.40
   3  -5  -6  250.67   11.80
   2  -5  -6  289.37   12.90
   1  -5  -6 3059.19   95.19
   0  -5  -6  132.59    8.00
   1   5   6   28.30    3.70
   2   5   6  328.27   13.30
  -3  -5  -6 1121.49   36.20
   3   5   6 1107.79   37.80
   3   5   6 1135.69   37.40
  -4  -5  -6  116.39    5.50
   4   5   6  115.29    7.20
   4   5   6  108.49    7.20
   5   5   6  143.59    8.80
   5   5   6  156.38    8.90
   6   5   6  374.26   14.70
   6   5   6  344.67   16.50
   6   5   6  409.06   16.70
   7   5   6   26.50    5.30
   7   5   6   39.70    5.10
   7   5   6   29.90    5.10
   8   5   6   13.90    4.70
   8   5   6    6.60    4.70
   8   5   6    8.20    4.20
   9   5   6   11.20    5.10
   9   5   6    7.20    4.60
  10   5   6   18.20    6.10
  10   5   6   11.90    5.50
  11   5   6   11.40    5.90
  11   5   6   -4.30    5.20
  12   5   6    3.80    5.60
  12   5   6   -2.80    5.40
   9  -6  -6   -4.80    4.50
   9  -6  -6    1.40    7.20
   8  -6  -6   20.50    5.70
   8  -6  -6    9.00    6.70
   7  -6  -6   13.70    6.60
   7  -6  -6    8.60    4.80
   6  -6  -6    1.70    4.00
   6  -6  -6   -0.10    6.20
   5  -6  -6   19.10    4.90
   5  -6  -6   14.90    5.90
   4  -6  -6  136.39    9.40
   3  -6  -6  177.98   10.20
   2  -6  -6    7.60    3.40
   1  -6  -6  626.34   23.70
   0  -6  -6 1746.33   56.79
  -1  -6  -6    6.70    3.20
   2   6   6 1395.76   45.50
  -3  -6  -6 2626.64   78.79
   3   6   6 2494.75   81.79
   3   6   6 2649.73   81.09
   4   6   6   26.60    4.40
   4   6   6   24.50    4.50
   5   6   6  492.65   19.50
   5   6   6  497.15   20.30
   6   6   6  377.96   16.20
   6   6   6  363.46   17.30
   7   6   6   87.19    5.50
   7   6   6   83.39    7.40
   7   6   6  106.99    9.10
   8   6   6   54.59    7.70
   8   6   6   47.60    6.10
   8   6   6   66.89    7.90
   9   6   6   70.09    9.30
   9   6   6   61.09    8.20
   9   6   6   76.19    7.40
  10   6   6   13.50    5.60
  10   6   6    3.90    5.60
  11   6   6   -0.10    5.20
  11   6   6    1.70    5.00
  12   6   6   -3.10    5.40
  12   6   6    0.50    6.00
   9  -7  -6   11.20    6.30
   9  -7  -6   -0.50    7.40
   8  -7  -6    2.00    5.00
   8  -7  -6    2.10    6.60
   7  -7  -6    9.30    7.00
   7  -7  -6    5.70    4.80
   6  -7  -6  237.98   17.30
   6  -7  -6  214.08   13.80
   5  -7  -6  157.68   10.90
   5  -7  -6  160.48   13.10
   4  -7  -6    5.50    4.10
   3  -7  -6  290.67   14.40
   2  -7  -6  189.38   11.00
   1  -7  -6   64.89    6.30
   0  -7  -6  271.57   13.30
  -1  -7  -6  310.47   14.60
   3   7   6    8.60    3.30
   3   7   6   13.70    3.40
   4   7   6  369.06   16.40
   4   7   6  339.17   15.00
   5   7   6  153.38    9.80
   5   7   6  121.09    8.20
   6   7   6    7.10    4.00
   6   7   6    2.10    3.30
   7   7   6   42.90    6.30
   7   7   6   32.60    6.20
   8   7   6   84.99   10.20
   8   7   6   99.79    8.60
   9   7   6    6.40    3.00
   9   7   6   -0.50    3.70
   9   7   6    7.40    5.30
  10   7   6   10.80    5.10
  10   7   6   12.20    6.20
  11   7   6    9.10    6.00
  11   7   6    3.80    5.00
   8  -8  -6   20.70    9.10
   8  -8  -6   15.70    6.50
   7  -8  -6   78.09   13.50
   6  -8  -6   10.10    5.40
   6  -8  -6   20.80    7.30
   5  -8  -6   12.70    5.20
   4  -8  -6    6.10    4.30
   3  -8  -6  300.07   15.40
   2  -8  -6  228.18   12.80
   1  -8  -6  379.86   17.40
   0  -8  -6   10.40    3.90
  -1  -8  -6 1254.87   43.40
  -2  -8  -6 1091.29   36.10
  -2  -8  -6 1107.19   39.10
  -3  -8  -6    1.70    1.30
   3   8   6    1.20    2.90
   4   8   6  276.67   14.60
   4   8   6  306.27   13.70
   5   8   6  622.84   23.50
   5   8   6  592.34   25.00
   6   8   6   42.50    7.20
   6   8   6   48.50    6.30
   7   8   6   96.99    9.70
   7   8   6   81.69    7.90
   8   8   6  216.48   12.90
   8   8   6  256.67   16.00
   9   8   6   21.40    6.80
   9   8   6   12.40    5.00
  10   8   6   24.40    6.20
  10   8   6   31.70    8.20
  11   8   6   14.50    6.20
  11   8   6   16.00    7.40
   8  -9  -6   23.10    8.00
   8  -9  -6   24.50    9.80
   7  -9  -6   14.40    6.50
   7  -9  -6    2.50    6.90
   6  -9  -6   20.10    6.90
   6  -9  -6   10.00    7.30
   5  -9  -6   45.60    7.70
   4  -9  -6   87.59   10.10
   3  -9  -6    1.10    4.30
   2  -9  -6  176.38   11.60
   1  -9  -6  285.57   14.80
   0  -9  -6    3.70    3.40
  -1  -9  -6   43.90    6.70
  -2  -9  -6   12.10    4.60
  -3  -9  -6  162.98   10.60
  -3  -9  -6  155.78    6.90
   3   9   6  149.99   10.60
   4   9   6  346.27   17.20
   5   9   6  192.18   11.10
   5   9   6  200.58   12.90
   6   9   6   12.60    4.40
   6   9   6   11.30    4.70
   7   9   6   85.69   10.30
   7   9   6   63.09    7.50
   8   9   6   32.00    7.70
   9   9   6   -0.20    4.00
   9   9   6    2.80    5.40
  10   9   6    2.60    6.00
  10   9   6   11.90    5.10
  11   9   6   12.40    7.30
  11   9   6    2.90    5.30
   7 -10  -6   53.99   12.40
   7 -10  -6   52.59    9.50
   6 -10  -6    7.20    6.90
   6 -10  -6   -0.90    5.50
   5 -10  -6    9.00    5.70
   4 -10  -6   26.30    6.60
   3 -10  -6   -0.50    5.10
   2 -10  -6  273.67   15.40
   1 -10  -6  705.03   28.30
   0 -10  -6  736.73   29.40
  -1 -10  -6    1.50    3.50
  -2 -10  -6  345.57   17.20
  -2 -10  -6  358.36   15.40
  -3 -10  -6  285.07   15.60
  -3 -10  -6  307.07   12.10
   3  10   6  316.27   16.40
  -4 -10  -6   97.39    9.50
   4  10   6  103.49    9.90
   5  10   6   35.20    7.10
   6  10   6  580.24   26.20
   6  10   6  566.74   23.30
   7  10   6   26.00    5.60
   7  10   6   24.00    6.40
   8  10   6   23.10    5.60
   8  10   6   13.30    6.70
   9  10   6   69.29   11.00
   9  10   6   66.19    8.50
  10  10   6   46.50    7.90
  10  10   6   51.19   10.40
  11  10   6    1.50    6.90
  11  10   6   -7.20    4.50
   7 -11  -6    5.10    6.60
   7 -11  -6    5.40    7.80
   6 -11  -6   65.19   11.20
   5 -11  -6   -3.20    5.00
   4 -11  -6    9.10    6.10
   3 -11  -6   12.10    6.00
   2 -11  -6   46.70    7.40
   0 -11  -6  140.29   11.30
  -1 -11  -6  206.88   13.00
  -2 -11  -6   37.70    6.70
  -3 -11  -6  451.05   21.20
  -3 -11  -6  446.96   17.20
   3  11   6  439.76   21.40
  -4 -11  -6  166.98   12.50
   4  11   6  169.28   12.50
  -5 -11  -6   -0.60    4.30
   5  11   6    3.00    4.40
  -6 -11  -6  177.18   15.00
   6  11   6  173.88   14.00
   7  11   6  135.99   12.20
   8  11   6   11.20    4.90
   8  11   6    9.80    6.40
   9  11   6   -5.30    4.60
   9  11   6    5.10    5.20
  10  11   6    3.20    6.80
  10  11   6    6.60    5.50
   6 -12  -6   -7.50    5.60
   6 -12  -6    1.80    7.10
   5 -12  -6   61.09   10.00
   4 -12  -6   55.59    9.60
   3 -12  -6   -3.00    4.30
   2 -12  -6   22.60    6.90
   1 -12  -6    5.10    4.90
   0 -12  -6   39.70    7.70
  -1 -12  -6  109.09   12.00
  -2 -12  -6   18.70    6.40
  -3 -12  -6    1.60    3.10
  -3 -12  -6    5.10    5.50
   3  12   6   10.30    5.20
  -4 -12  -6   34.80    7.20
   4  12   6   26.30    6.50
  -5 -12  -6    3.40    5.20
   5  12   6    5.00    5.30
  -6 -12  -6   31.00    7.70
   6  12   6   33.40    7.70
  -7 -12  -6   57.59    9.50
   7  12   6   64.59   10.10
  -8 -12  -6   52.99    9.20
   8  12   6   44.50    9.20
   9  12   6    3.10    6.20
  10  12   6   -2.50    6.60
   5 -13  -6   18.00    7.80
   4 -13  -6   22.20    8.10
   3 -13  -6   -6.60    5.60
   2 -13  -6   36.90    7.90
   1 -13  -6   27.50    7.40
   0 -13  -6   24.40    6.90
  -1 -13  -6   78.29   10.30
  -2 -13  -6  114.19   12.30
  -3 -13  -6    9.00    5.60
   3  13   6   17.80    6.80
  -4 -13  -6   49.00    8.90
   4  13   6   63.09    9.70
  -5 -13  -6  139.89   12.60
   5  13   6  118.19   13.60
  -6 -13  -6   55.89    9.60
   6  13   6   68.69   10.60
  -7 -13  -6    0.00    5.80
   7  13   6    3.20    6.20
  -8 -13  -6   27.30    7.80
   8  13   6   17.30    7.70
  -9 -13  -6   34.20    8.80
   9  13   6   46.50   10.40
   4 -14  -6    5.90    6.80
   3 -14  -6    0.80    6.80
   2 -14  -6   10.90    7.00
   1 -14  -6   50.79    9.70
   0 -14  -6   -8.80    4.80
  -1 -14  -6   19.30    7.20
  -2 -14  -6   19.60    6.60
  -3 -14  -6    9.60    5.50
   3  14   6   20.20    7.00
  -4 -14  -6    3.10    5.70
   4  14   6    2.50    4.80
  -5 -14  -6    9.90    6.50
   5  14   6   12.10    6.80
  -6 -14  -6   61.99   10.30
   6  14   6   44.70   10.10
  -7 -14  -6   -0.70    6.10
   7  14   6    1.60    6.40
  -8 -14  -6    1.60    6.60
   8  14   6    8.90    7.70
   2 -15  -6   -6.90    6.10
   1 -15  -6    3.40    6.20
   0 -15  -6   76.39   11.60
  -1 -15  -6    7.20    6.80
  -2 -15  -6   23.70    7.50
  -3 -15  -6   75.79   11.00
  -4 -15  -6   58.99    9.80
   4  15   6   71.59   11.80
  -5 -15  -6    9.70    6.80
   5  15   6    8.30    6.30
  -6 -15  -6   31.80    8.50
   6  15   6   38.70   10.50
  -7 -15  -6   25.70    8.60
   7  15   6   17.10    8.20
   0 -16  -6    5.50    7.50
  -1 -16  -6    6.70    7.00
  -2 -16  -6   -1.00    6.30
  -3 -16  -6   -4.30    5.90
  -4 -16  -6    0.80    6.60
   4  16   6   -2.80    6.20
   3  10  -7   -2.60    6.20
   3  10  -7    1.40    9.50
  -3 -10   7    1.40    2.30
   2  10  -7   -3.40    5.70
   2  10  -7    0.60    8.80
  -2 -10   7    2.50    4.00
   1  10  -7   -1.20    7.80
   1  10  -7   -0.20    4.60
  -1 -10   7    0.00    4.30
   0  10  -7   25.90    6.30
   0  10  -7    9.50    8.90
  -1  10  -7   10.60    9.80
   1 -10   7   16.10    6.30
  -2  10  -7   14.80   11.10
   2 -10   7    3.50    5.80
   5   9  -7   19.40    8.40
   5   9  -7   10.00    9.70
   4   9  -7   10.10    7.20
   4   9  -7   -4.00    8.10
   3   9  -7   -0.10    6.00
   3   9  -7   10.80    9.50
  -3  -9   7   -0.30    2.60
   2   9  -7   16.20   10.30
   2   9  -7   -2.50    5.60
  -2  -9   7   10.40    3.80
   1   9  -7    4.60    8.50
   1   9  -7   13.00    6.10
  -1  -9   7    3.70    3.80
   0   9  -7   -3.30    3.70
   0   9  -7    3.20    7.10
   0  -9   7    3.00    4.30
  -1   9  -7    5.80    3.90
  -1   9  -7    9.80    9.90
  -2   9  -7   14.70    9.70
   2  -9   7   19.70    6.20
  -3   9  -7   23.30   11.40
   3  -9   7   10.40    5.90
  -4   9  -7    0.00    9.20
   4  -9   7    4.20    6.00
   6   8  -7    3.90    8.60
   6   8  -7    9.60    8.50
   5   8  -7  108.59   17.00
   5   8  -7  107.69   13.90
   4   8  -7   -4.00    5.50
   4   8  -7   -6.60    7.20
   3   8  -7   26.50    7.60
   3   8  -7   35.20   10.90
  -3  -8   7   25.30    3.20
   2   8  -7  143.29   12.20
   2   8  -7  150.58   18.70
  -2  -8   7  140.29    8.10
   1   8  -7  112.89   10.30
   1   8  -7  114.59   17.10
  -1  -8   7  113.79    8.00
   0   8  -7    6.60    4.10
   0   8  -7    0.40    8.10
   0  -8   7    8.00    4.20
  -1   8  -7   23.90    9.90
  -1   8  -7   18.10    4.50
   1  -8   7   34.50    6.10
  -2   8  -7    0.40    7.40
   2  -8   7   11.30    5.80
  -3   8  -7    4.80    8.50
   3  -8   7    5.90    4.80
  -4   8  -7   12.20   10.10
   4  -8   7   17.70    6.30
  -5   8  -7   -1.30    7.40
   5  -8   7    5.00    5.60
   6  -8   7   -3.40    5.80
   7   7  -7   22.30    9.20
   7   7  -7   27.80   11.00
   6   7  -7    1.20    7.90
   6   7  -7   -2.80    6.70
   5   7  -7   56.39   10.50
   5   7  -7   53.19   12.10
   4   7  -7  132.39   14.40
   4   7  -7  121.59   17.10
   3   7  -7   71.89   13.60
   3   7  -7   47.30    8.80
  -3  -7   7   36.90    3.50
  -3  -7   7   58.29    3.70
   2   7  -7   35.10   10.10
   2   7  -7   16.10    5.80
  -2  -7   7   40.10    6.80
   1   7  -7    7.80    4.50
   1   7  -7   -4.00    6.30
  -1  -7   7    4.30    3.10
   0   7  -7   45.30    6.40
   0   7  -7   43.60   11.30
   0  -7   7   48.40    6.00
  -1   7  -7   -4.30    6.10
  -1   7  -7    2.90    3.10
   1  -7   7    3.10    3.60
  -2   7  -7   -5.60    5.60
   2  -7   7    2.70    3.30
   2  -7   7    6.50    4.10
  -3   7  -7   -3.50    7.70
   3  -7   7   -3.50    4.00
  -4   7  -7    2.70    7.30
   4  -7   7   -2.20    4.70
  -5   7  -7   12.50    8.30
   5  -7   7    1.60    5.00
  -6   7  -7    2.90    8.20
   6  -7   7    5.10    6.00
   7  -7   7    9.20    6.50
   8   6  -7    7.30    9.00
   8   6  -7    6.90    7.60
   7   6  -7   64.99   12.40
   7   6  -7   90.69   15.40
   6   6  -7   63.29   13.30
   6   6  -7   88.99   13.40
   5   6  -7   40.60    9.70
   5   6  -7   34.60   10.90
   4   6  -7   20.10    9.10
   4   6  -7   23.00   11.00
   3   6  -7  198.18   17.50
   3   6  -7  154.28   12.90
   2   6  -7    5.50    4.70
   2   6  -7   -2.70    2.60
   2   6  -7    4.40    6.60
  -2  -6   7    5.20    2.20
   1   6  -7  283.47   15.20
   1   6  -7  267.37   23.20
  -1  -6   7  299.67   12.30
   0   6  -7  388.16   17.10
   0   6  -7  398.96   25.20
   0  -6   7  370.06   15.60
  -1   6  -7  136.19   16.30
  -1   6  -7  129.19    7.90
   1  -6   7  134.39    8.80
  -2   6  -7   36.80    3.60
  -2   6  -7   32.20    9.20
   2  -6   7   41.30    6.20
  -3   6  -7    7.50    7.70
   3  -6   7    1.00    4.10
  -4   6  -7  118.79   16.20
   4  -6   7  107.29    9.70
  -5   6  -7    4.80    7.90
   5  -6   7    1.70    4.90
  -6   6  -7   89.99   15.50
   6  -6   7   90.59   10.90
   7  -6   7   12.60    6.70
   8  -6   7    7.00    6.30
   8   5  -7   -2.40    6.80
   7   5  -7   63.99   12.20
   6   5  -7   53.69   10.80
   5   5  -7   66.69   10.80
   5   5  -7   67.29   12.70
   4   5  -7  452.85   23.20
   4   5  -7  416.86   28.80
   3   5  -7  523.15   29.40
   3   5  -7  591.94   25.80
   2   5  -7  222.78   18.10
   2   5  -7  224.18   13.80
  -2  -5   7  240.18    9.10
   1   5  -7  170.58   15.50
   1   5  -7  203.48   12.00
  -1  -5   7  181.18    8.60
   0   5  -7  328.67   22.20
   0   5  -7  353.06   15.60
   0  -5   7  360.76   14.50
  -1   5  -7   48.90    5.20
  -1   5  -7   52.79   11.10
   1  -5   7   40.00    5.40
   1  -5   7   46.40    5.50
  -2   5  -7    0.80    1.80
  -2   5  -7    2.00    5.10
   2  -5   7   -1.90    3.00
   2  -5   7    3.70    2.30
  -3   5  -7   47.00   10.50
   3  -5   7   42.50    6.40
  -4   5  -7    5.80    6.70
   4  -5   7   13.10    4.90
  -5   5  -7    6.20    8.00
   5  -5   7   11.10    5.40
  -6   5  -7   18.10    8.30
   6  -5   7    5.00    4.60
   7  -5   7   20.20    6.60
   8  -5   7   22.30    6.90
   9   4  -7    0.90    7.00
   8   4  -7   17.20    8.00
   7   4  -7    9.40    6.90
   6   4  -7   61.99   10.70
   4   4  -7   -1.90    4.60
   4   4  -7    2.90    5.90
   3   4  -7   37.80    9.00
   3   4  -7   46.50    7.80
   2   4  -7  174.48   15.10
   2   4  -7  159.98   11.10
   2   4  -7  142.79    6.60
  -2  -4   7  158.38    6.30
   1   4  -7    0.50    3.10
   1   4  -7    3.30    2.40
   1   4  -7    3.10    5.50
  -1  -4   7    4.40    2.20
   0   4  -7   93.49   12.40
   0  -4   7  116.89    6.70
  -1   4  -7   48.20    4.60
  -1   4  -7   33.20    8.50
   1  -4   7   49.30    5.50
   1  -4   7   47.60    5.00
  -2   4  -7   41.30    3.10
  -2   4  -7   52.29   10.10
   2  -4   7   40.20    5.50
  -3   4  -7   34.30    8.30
   3  -4   7   72.49    7.50
  -4   4  -7   65.59   11.80
   4  -4   7   82.39    8.00
  -5   4  -7   12.50    7.60
  -6   4  -7   23.70    8.60
   6  -4   7    7.90    4.80
   7  -4   7   16.30    6.00
   8  -4   7    5.90    5.60
   9  -4   7   -6.30    5.30
   9   3  -7   63.09   13.00
   8   3  -7   84.69   14.00
   7   3  -7   76.99   11.90
   6   3  -7   -7.70    5.00
   5   3  -7  226.08   15.90
   4   3  -7   41.20    7.90
   3   3  -7    3.70    4.10
   3   3  -7    3.10    5.10
   2   3  -7  338.87   11.90
   2   3  -7  352.36   17.30
   2   3  -7  354.36   21.40
  -2  -3   7  355.96   11.70
   1   3  -7  768.72   27.70
   1   3  -7  709.13   32.60
   1   3  -7  683.03   23.70
  -1  -3   7  711.53   23.50
   0   3  -7   41.00    5.20
   0   3  -7   32.50    7.50
   0  -3   7   35.80    4.10
  -1   3  -7  704.23   25.10
  -1   3  -7  732.23   33.10
   1  -3   7  760.42   25.70
  -2   3  -7 1559.54   59.59
  -2   3  -7 1618.24   49.10
   2  -3   7 1630.34   52.39
  -3   3  -7   33.40    7.80
   3  -3   7   45.80    5.80
  -4   3  -7    8.80    6.30
   4  -3   7   -0.30    3.20
  -5   3  -7   57.79   10.90
   5  -3   7   63.19    8.10
  -6   3  -7   75.99   11.80
   6  -3   7   60.19    7.90
   7  -3   7    6.60    5.00
   8  -3   7   10.60    5.80
   9  -3   7    2.50    4.80
  10  -3   7    1.80    5.60
   9   2  -7   36.10   10.00
   8   2  -7    2.20    6.80
   7   2  -7  136.59   13.60
   6   2  -7   12.70    6.50
   5   2  -7  115.49   11.10
   4   2  -7  759.92   31.70
   3   2  -7  359.06   18.10
   2   2  -7  314.27   10.40
   2   2  -7  311.27   15.60
  -2  -2   7  301.77   10.30
   1   2  -7  249.18   13.00
   1   2  -7  273.47   10.60
   1   2  -7  266.87   17.10
  -1  -2   7  264.47    9.90
   0   2  -7  165.28    8.90
   0   2  -7  152.68   13.00
   0   2  -7  154.98    7.50
   0  -2   7  162.88    7.40
   0  -2   7  140.39    8.70
  -1   2  -7   40.70    8.00
  -1   2  -7   51.29    4.50
   1  -2   7   50.09    4.60
  -2   2  -7    2.40    4.30
  -2   2  -7    2.90    1.30
   2  -2   7    6.10    2.80
  -3   2  -7    4.00    5.50
   3  -2   7    8.00    3.40
  -4   2  -7   -5.10    4.30
   4  -2   7    3.20    3.30
  -5   2  -7    1.20    4.90
   5  -2   7    3.20    3.70
  -6   2  -7   39.90    9.50
   6  -2   7   47.90    7.40
   7  -2   7   -1.10    4.40
   8  -2   7    7.40    4.90
   9  -2   7   -0.50    5.50
  10  -2   7   -3.50    5.40
   9   1  -7   -0.70    7.40
   8   1  -7   -2.70    6.30
   7   1  -7  339.07   21.20
   6   1  -7   86.29   11.40
   5   1  -7    4.90    5.30
   4   1  -7  119.29   10.60
   3   1  -7  435.66   20.30
   2   1  -7  494.55   16.00
   2   1  -7  504.65   21.50
  -2  -1   7  500.45   16.00
   1   1  -7   21.50    4.40
   1   1  -7   26.40    2.80
   1   1  -7   36.80    7.60
  -1  -1   7   24.00    2.70
   0   1  -7 1685.43   54.19
   0   1  -7 1751.62   62.19
   0   1  -7 1848.62   56.49
   0  -1   7 1690.73   54.09
  -1   1  -7 1466.75   54.69
  -1   1  -7 1542.45   48.10
  -2   1  -7  120.79    5.50
  -2   1  -7  136.79   11.10
   2  -1   7  110.39    7.00
  -3   1  -7    6.70    4.70
   3  -1   7   13.20    3.40
  -4   1  -7  345.77   19.00
   4  -1   7  327.87   15.10
  -5   1  -7   54.39    8.70
   5  -1   7   59.49    7.10
  -6   1  -7  170.18   13.60
   6  -1   7  175.98   11.10
   7  -1   7    0.70    4.60
   8  -1   7    2.50    5.00
   9  -1   7   38.90    8.30
  10  -1   7   -1.20    5.80
  10   0  -7    2.30    7.00
   9   0  -7  108.59   15.20
   8   0  -7   16.20    7.70
   7   0  -7  121.89   14.80
   6   0  -7  184.58   17.50
   5   0  -7  439.46   22.50
   4   0  -7    5.60    3.90
   3   0  -7  307.77   16.20
   2   0  -7  773.22   24.90
   2   0  -7  782.62   29.70
   2   0  -7  772.12   24.30
   1   0  -7  224.38    8.60
   1   0  -7  226.38   11.80
  -1   0   7  229.88    8.70
   0   0  -7   36.20    4.70
   0   0  -7   34.10    3.20
   0   0  -7   47.90    8.00
   0   0   7   33.00    3.20
  -1   0  -7  288.57   16.20
  -1   0  -7  282.77   11.80
   1   0   7  291.17   11.60
  -2   0  -7  353.56   12.70
  -2   0  -7  326.77   17.90
   2   0   7  351.56   14.00
  -3   0  -7  361.36   18.50
   3   0   7  340.17   14.50
  -4   0  -7  218.58   14.30
   4   0   7  228.58   11.50
  -5   0  -7   45.00    7.70
   5   0   7   28.50    5.40
  -6   0  -7  300.67   17.60
   6   0   7  285.27   14.80
   7   0   7  492.85   23.70
   8   0   7    4.10    1.70
   8   0   7    5.70    4.40
   9   0   7    1.90    2.20
   9   0   7   -9.20    4.00
  10   0   7   14.50    6.30
  10   0   7   15.10    3.30
  11   0   7    5.70    6.60
  10  -1  -7    8.00    8.10
   9  -1  -7    3.60    7.40
   9  -1  -7   10.10    2.70
   8  -1  -7   66.19    4.60
   8  -1  -7   66.29    4.50
   8  -1  -7   59.69   11.30
   7  -1  -7   20.30    7.50
   7  -1  -7   23.30    2.90
   6  -1  -7  156.18    6.60
   6  -1  -7  161.98    6.50
   5  -1  -7  518.25   16.80
   5  -1  -7  505.25   24.60
   5  -1  -7  515.55   16.90
   4  -1  -7  256.77    9.10
   4  -1  -7  258.27   15.50
   4  -1  -7  261.17    9.40
   3  -1  -7   27.60    2.80
   3  -1  -7   37.60    6.70
   3  -1  -7   25.90    2.40
   2  -1  -7  131.39    6.20
   2  -1  -7  134.29    9.50
   2  -1  -7  123.39    5.50
   1  -1  -7  210.78   11.10
  -1   1   7  200.98    8.20
   0  -1  -7  248.48   11.60
   0  -1  -7  233.48    9.50
   0   1   7  237.18    9.60
  -1  -1  -7  536.75   19.50
  -1  -1  -7  546.65   23.70
   1   1   7  513.45   18.70
  -2  -1  -7  459.45   21.30
  -2  -1  -7  483.45   16.30
  -2  -1  -7  459.55   16.80
   2   1   7  474.85   17.60
  -3  -1  -7   24.50    5.60
  -3  -1  -7   30.70    2.70
   3   1   7   26.30    4.10
  -4  -1  -7    1.80    1.20
  -4  -1  -7   -0.30    3.40
   4   1   7    2.60    3.00
  -5  -1  -7   17.00    2.10
  -5  -1  -7   21.70    5.50
   5   1   7   23.00    4.60
  -6  -1  -7   46.30    8.00
  -6  -1  -7   38.80    3.50
   6   1   7   57.19    7.30
  -7  -1  -7   30.20    3.70
   7   1   7   45.60    7.00
   7   1   7   37.30    3.40
  -8  -1  -7   36.10    4.50
   8   1   7   39.00    4.30
   8   1   7   33.90    6.40
   9   1   7    7.60    5.20
   9   1   7    9.50    3.20
  10   1   7    4.40    5.40
  10   1   7    0.80    3.00
  11   1   7    3.80    6.30
  11   1   7   -1.00    3.40
  10  -2  -7    1.20    3.40
  10  -2  -7    5.50    7.10
   9  -2  -7    9.50    7.80
   9  -2  -7   11.50    3.50
   8  -2  -7   15.80    3.70
   8  -2  -7   13.70    7.40
   7  -2  -7   25.30    8.00
   6  -2  -7  231.28    9.60
   6  -2  -7  208.68    9.20
   5  -2  -7 1317.07   41.70
   5  -2  -7 1337.97   42.10
   5  -2  -7 1332.57   49.80
   4  -2  -7 1267.57   40.50
   4  -2  -7 1309.27   47.50
   4  -2  -7 1269.47   40.10
   3  -2  -7   46.80    3.80
   3  -2  -7   41.20    3.40
   3  -2  -7   45.00    6.90
   2  -2  -7  720.13   24.00
   2  -2  -7  701.93   27.80
   2  -2  -7  705.23   23.20
   1  -2  -7 1193.38   41.30
   1  -2  -7 1143.19   37.50
  -1   2   7 1231.48   37.80
   0  -2  -7 1784.82   58.09
   0  -2  -7 1813.62   55.59
   0   2   7 1767.22   55.69
   1   2   7   27.10    3.50
  -2  -2  -7 2147.59   72.09
  -2  -2  -7 2150.08   67.39
   2   2   7 2238.78   68.29
  -3  -2  -7  945.41   31.20
  -3  -2  -7  986.50   35.80
   3   2   7  957.00   32.70
  -4  -2  -7  584.54   20.00
  -4  -2  -7  591.74   24.00
   4   2   7  566.44   21.90
  -5  -2  -7   63.99    7.80
  -5  -2  -7   58.79    4.50
   5   2   7   60.59    6.50
  -6  -2  -7   82.69    8.20
   6   2   7   79.39    7.70
   6   2   7   80.59    5.10
  -7  -2  -7   26.90    4.20
   7   2   7   27.60    3.80
   7   2   7   10.40    4.50
   8   2   7    8.50    3.30
   8   2   7    9.00    5.00
   9   2   7   12.70    5.80
   9   2   7   17.20    4.00
  10   2   7   -1.90    3.20
  10   2   7    0.10    4.70
  11   2   7    2.30    5.60
  11   2   7   -2.60    3.80
   9  -3  -7   65.19   12.30
   9  -3  -7   50.29    6.20
   8  -3  -7   35.60    9.80
   8  -3  -7   41.60    5.70
   7  -3  -7    9.30    7.20
   7  -3  -7   10.10    3.40
   6  -3  -7    4.00    2.80
   6  -3  -7    3.50    6.50
   5  -3  -7   24.10    6.30
   5  -3  -7   30.20    4.70
   4  -3  -7  244.28   10.70
   4  -3  -7  240.88   15.00
   3  -3  -7  456.05   16.20
   3  -3  -7  448.76   16.90
   3  -3  -7  469.85   21.20
   2  -3  -7  213.18    8.80
   2  -3  -7  204.08    9.70
   2  -3  -7  219.88   12.80
   1  -3  -7 1326.07   43.40
   1  -3  -7 1348.67   42.40
   0   3   7  644.14   22.10
  -2  -3  -7  727.33   27.50
  -2  -3  -7  693.93   24.30
   2   3   7  703.03   24.60
  -3  -3  -7  731.63   26.30
  -3  -3  -7  813.52   29.20
   3   3   7  782.02   27.20
  -4  -3  -7   69.69    6.50
  -4  -3  -7   64.89    4.90
   4   3   7   81.29    6.30
  -5  -3  -7   79.19    5.90
  -5  -3  -7  101.09    7.60
   5   3   7   85.29    5.60
   5   3   7   98.69    7.40
  -6  -3  -7   18.80    3.70
  -6  -3  -7    4.30    3.40
   6   3   7    7.10    3.70
   6   3   7    8.10    2.60
   7   3   7   86.59    8.10
   8   3   7   16.30    9.10
   8   3   7   27.80    4.90
   9   3   7    6.90    4.90
   9   3   7    0.50    3.10
  10   3   7   -1.30    3.60
  10   3   7    1.70    4.50
  11   3   7   20.80    5.70
  11   3   7   25.50    7.50
   9  -4  -7   25.70    9.60
   9  -4  -7   47.60    6.80
   8  -4  -7   82.79    7.50
   8  -4  -7   64.89   12.30
   7  -4  -7    9.40    6.70
   7  -4  -7   12.10    3.90
   6  -4  -7   77.59    6.80
   6  -4  -7  102.49   13.20
   5  -4  -7  401.96   21.60
   5  -4  -7  393.76   16.20
   4  -4  -7  534.75   24.40
   4  -4  -7  491.95   19.30
   3  -4  -7   29.70    5.90
   3  -4  -7   31.10    4.40
   2  -4  -7  125.79    8.70
   0   4   7 2362.96   73.39
   1   4   7    5.40    2.40
  -2  -4  -7  160.78    9.30
   2   4   7  138.49    7.80
  -3  -4  -7  525.75   20.70
   3   4   7  524.35   19.70
  -4  -4  -7 1434.76   47.70
   4   4   7 1434.96   47.70
   4   4   7 1474.85   47.00
  -5  -4  -7  140.99    8.40
   5   4   7  138.59    8.50
   5   4   7  130.59    7.90
   6   4   7   19.90    4.40
   6   4   7    5.60    3.30
   6   4   7   10.80    3.30
   7   4   7  175.88   10.00
   7   4   7  181.98   11.30
   8   4   7   74.99    7.30
   8   4   7   68.39   10.40
   9   4   7   -0.90    4.40
   9   4   7   -4.10    3.30
  10   4   7   12.90    5.10
  10   4   7   14.60    6.40
  11   4   7   -3.90    5.30
  11   4   7   10.20    4.90
   9  -5  -7   11.90    8.80
   8  -5  -7   35.40   10.00
   8  -5  -7   33.00    6.30
   7  -5  -7   10.20    7.40
   7  -5  -7    7.00    4.30
   6  -5  -7    8.60    3.80
   6  -5  -7   18.80    7.20
   5  -5  -7  206.58   15.30
   5  -5  -7  198.98   11.00
   4  -5  -7   42.80    7.40
   4  -5  -7   40.70    5.60
   3  -5  -7   46.20    5.70
   2  -5  -7  751.22   27.10
   1  -5  -7   13.40    3.40
   0  -5  -7  552.94   21.30
   1   5   7 2140.29   67.29
   2   5   7 1199.48   39.60
  -3  -5  -7   14.20    3.30
   3   5   7    7.60    3.10
  -4  -5  -7   89.59    5.80
   4   5   7   77.09    6.40
   4   5   7   84.59    6.30
  -5  -5  -7  669.43   23.10
   5   5   7  646.84   24.30
   5   5   7  640.64   24.50
   6   5   7  108.09    8.00
   6   5   7  102.79    7.80
   7   5   7  100.39    7.60
   7   5   7  114.39    8.50
   7   5   7  101.59    8.30
   8   5   7  223.38   12.90
   8   5   7  213.28   13.90
   9   5   7   -1.30    4.20
   9   5   7   -4.60    3.50
  10   5   7   63.29    9.20
  10   5   7   43.20    7.50
  11   5   7   17.00    6.80
  11   5   7   16.50    6.20
   9  -6  -7   -3.30    7.90
   9  -6  -7   -1.00    5.20
   8  -6  -7    3.60    5.10
   8  -6  -7   -5.80    6.30
   7  -6  -7   17.30    7.30
   7  -6  -7   14.90    5.30
   6  -6  -7   18.50    5.30
   6  -6  -7   19.90    7.10
   5  -6  -7  118.89    9.20
   5  -6  -7  123.99   14.20
   4  -6  -7  172.08   13.20
   4  -6  -7  150.98    9.90
   3  -6  -7   56.29    6.70
   2  -6  -7   83.09    7.10
   1  -6  -7 1056.09   36.80
   0  -6  -7   89.59    7.20
   2   6   7 1401.46   46.00
  -3  -6  -7  578.44   20.80
   3   6   7  572.84   21.60
  -4  -6  -7   72.39    4.60
   4   6   7   76.09    6.20
   4   6   7   81.19    6.70
   5   6   7  122.49    8.40
   5   6   7  133.69    8.80
   6   6   7  124.49    8.80
   6   6   7  132.89    9.20
   7   6   7   -0.40    3.20
   7   6   7   -0.60    3.30
   8   6   7   26.10    6.60
   8   6   7   24.80    5.70
   9   6   7   48.80    7.60
   9   6   7   40.40    7.20
   9   6   7   36.40    6.50
  10   6   7   18.40    6.10
  10   6   7   29.30    6.80
  11   6   7   -1.40    5.50
  11   6   7    5.40    5.60
   8  -7  -7    2.70    5.10
   8  -7  -7   21.80    9.40
   7  -7  -7  108.59   10.40
   7  -7  -7  132.29   16.30
   6  -7  -7   67.59    8.40
   6  -7  -7   71.09   11.90
   5  -7  -7    6.10    6.10
   5  -7  -7    9.70    5.00
   4  -7  -7  421.46   19.00
   3  -7  -7  103.19    8.40
   2  -7  -7   50.79    6.40
   1  -7  -7   89.49    7.80
   0  -7  -7  432.06   18.50
  -1  -7  -7   37.60    5.70
   2   7   7  158.78    8.80
   3   7   7   88.69    6.80
   3   7   7   87.79    7.40
   4   7   7  234.08   11.70
   4   7   7  234.18   12.40
   5   7   7   15.20    4.60
   5   7   7   11.30    3.70
   6   7   7  153.48   10.50
   6   7   7  152.08    9.70
   7   7   7  297.27   15.30
   7   7   7  318.47   16.50
   8   7   7   -1.70    3.70
   9   7   7   16.50    6.10
   9   7   7   14.60    5.30
  10   7   7    7.80    5.70
  10   7   7   10.60    5.20
  11   7   7   11.50    6.50
  11   7   7   12.80    6.10
   8  -8  -7   -3.80    4.80
   8  -8  -7    0.60    7.30
   7  -8  -7   50.49    8.40
   7  -8  -7   28.30    9.60
   6  -8  -7   17.40    6.30
   6  -8  -7   30.00    9.30
   5  -8  -7   33.90    8.40
   5  -8  -7   16.20    5.70
   4  -8  -7   -3.10    3.90
   3  -8  -7  145.49   10.60
   2  -8  -7  225.88   12.60
   1  -8  -7   -0.50    3.30
   0  -8  -7  509.55   21.50
  -1  -8  -7 1623.14   54.79
  -2  -8  -7   48.30    6.90
   3   8   7  484.85   20.70
   4   8   7  236.78   12.80
   4   8   7  202.88   11.10
   5   8   7    9.20    4.30
   5   8   7   15.60    4.40
   6   8   7  220.38   13.50
   6   8   7  225.38   12.40
   7   8   7   19.60    5.20
   7   8   7   16.80    5.50
   8   8   7    1.70    4.10
   8   8   7    1.00    4.60
   9   8   7   25.00    7.00
   9   8   7   24.50    6.10
  10   8   7   16.50    6.80
  10   8   7   18.40    6.30
  11   8   7    5.80    5.80
  11   8   7   -7.10    4.50
   8  -9  -7    2.20    6.30
   8  -9  -7    6.10    8.20
   7  -9  -7    6.10    5.70
   7  -9  -7   13.20    8.30
   6  -9  -7  120.19   11.60
   6  -9  -7  119.19   15.80
   5  -9  -7   84.29   10.10
   4  -9  -7    7.20    5.80
   3  -9  -7   79.89    9.30
   2  -9  -7  379.46   18.30
   1  -9  -7   40.30    6.90
   0  -9  -7  672.03   27.20
  -1  -9  -7 1023.80   37.50
  -2  -9  -7  528.15   20.00
  -2  -9  -7  527.65   22.70
  -3  -9  -7   15.10    2.60
  -3  -9  -7   12.30    4.50
   3   9   7   13.40    4.70
   4   9   7  299.47   14.20
   4   9   7  277.07   15.10
   5   9   7  282.47   15.80
   5   9   7  293.17   14.40
   6   9   7  177.68   11.00
   6   9   7  159.58   12.00
   7   9   7  277.27   15.90
   7   9   7  275.67   16.40
   8   9   7   26.20    7.10
   8   9   7   24.30    6.00
   9   9   7   61.29    8.40
   9   9   7   71.89   10.70
  10   9   7   25.50    6.70
  10   9   7   20.40    7.30
  11   9   7   13.60    6.60
  11   9   7   20.50    8.10
   7 -10  -7   -2.20    7.90
   7 -10  -7    1.20    5.70
   6 -10  -7    4.40    5.80
   6 -10  -7    0.10    7.00
   5 -10  -7    8.00    5.60
   4 -10  -7   28.60    6.80
   3 -10  -7    3.90    4.70
   2 -10  -7   20.60    6.00
   1 -10  -7    6.10    4.60
   0 -10  -7   40.30    6.70
  -1 -10  -7  399.76   19.50
  -2 -10  -7  716.93   26.60
  -2 -10  -7  752.72   29.70
  -3 -10  -7    4.80    4.50
  -3 -10  -7    1.10    2.20
   3  10   7    4.00    3.70
  -4 -10  -7   99.69   10.80
   4  10   7   94.29    9.40
   5  10   7  377.16   19.70
   5  10   7  391.66   17.80
   6  10   7   76.39    8.70
   6  10   7   99.59   10.20
   7  10   7   -4.50    4.10
   7  10   7    1.20    4.00
   8  10   7  258.37   15.10
   8  10   7  291.17   18.00
   9  10   7  126.59   14.40
   9  10   7  119.99   10.60
  10  10   7   10.20    7.00
  10  10   7   -1.30    4.80
   6 -11  -7   14.90    8.70
   6 -11  -7   19.60    7.50
   5 -11  -7    0.60    5.20
   4 -11  -7   24.60    7.70
   3 -11  -7   88.59   10.40
   2 -11  -7   -0.90    4.70
   1 -11  -7    2.50    4.60
   0 -11  -7   42.60    8.00
  -1 -11  -7   -4.20    3.80
  -2 -11  -7   53.69    8.40
  -3 -11  -7  272.57   12.00
  -3 -11  -7  304.07   16.70
   3  11   7  294.37   16.50
  -4 -11  -7   62.19    8.90
   4  11   7   49.80    8.80
   5  11   7   26.40    6.80
   6  11   7    1.10    4.40
   7  11   7    5.00    4.50
   7  11   7    8.40    6.10
   8  11   7   18.40    6.00
   8  11   7   15.00    6.60
   9  11   7   44.70    7.70
   9  11   7   29.70    8.30
  10  11   7   20.20    7.90
  10  11   7   22.50    6.50
   6 -12  -7    4.20    6.90
   5 -12  -7    1.20    5.70
   4 -12  -7   21.60    7.70
   3 -12  -7   47.00    8.70
   2 -12  -7   23.30    6.60
   1 -12  -7   11.00    5.50
   0 -12  -7  101.29   11.60
  -1 -12  -7   26.40    6.70
  -2 -12  -7   23.30    6.40
  -3 -12  -7  125.59   11.80
  -4 -12  -7   12.20    5.90
   4  12   7   17.20    5.60
  -5 -12  -7   -2.00    4.70
   5  12   7   -6.00    4.70
  -6 -12  -7   58.29    9.50
   6  12   7   54.59    9.40
  -7 -12  -7   70.79   10.50
   7  12   7   63.19   10.30
   8  12   7   -7.50    5.00
   9  12   7    5.00    7.00
   9  12   7    5.30    5.30
   5 -13  -7    5.80    6.50
   4 -13  -7    5.70    6.70
   3 -13  -7    7.90    7.20
   2 -13  -7   16.90    7.10
   1 -13  -7   -0.80    5.30
   0 -13  -7   52.39    8.90
  -1 -13  -7   49.30    8.30
  -2 -13  -7   40.80    7.90
  -3 -13  -7   12.30    4.20
  -3 -13  -7    9.60    5.80
  -4 -13  -7  163.48   12.90
   4  13   7  172.28   14.00
  -5 -13  -7   44.70    9.00
   5  13   7   22.30    7.20
  -6 -13  -7   -2.20    5.50
   6  13   7    1.80    6.10
  -7 -13  -7   47.40    9.30
   7  13   7   48.30   10.00
  -8 -13  -7   45.20   10.10
   8  13   7   60.19   10.90
  -9 -13  -7    7.40    7.10
   9  13   7   -2.70    6.50
   3 -14  -7   10.70    7.80
   2 -14  -7   22.80    8.00
   1 -14  -7    4.40    5.90
   0 -14  -7   15.10    7.10
  -1 -14  -7   37.00    8.00
  -2 -14  -7   83.19   11.40
  -3 -14  -7    1.20    5.60
  -4 -14  -7   -2.30    5.00
   4  14   7   -4.50    4.80
  -5 -14  -7   78.09   11.10
   5  14   7   71.49   11.00
  -6 -14  -7   -4.80    5.70
   6  14   7    2.70    5.90
  -7 -14  -7    3.50    6.40
   7  14   7   11.70    6.90
  -8 -14  -7   11.70    7.70
   8  14   7    3.60    7.20
   2 -15  -7   10.20    7.10
   1 -15  -7   29.10    9.20
   0 -15  -7   30.90    8.80
  -1 -15  -7    8.40    7.00
  -2 -15  -7   40.10    8.80
  -3 -15  -7   43.60    9.10
  -4 -15  -7    5.70    6.30
   4  15   7    7.20    6.70
  -5 -15  -7   10.80    7.20
   5  15   7   16.80    7.70
  -6 -15  -7   11.40    7.20
   6  15   7   23.60    7.90
  -7 -15  -7    2.40    7.10
   7  15   7    1.90    6.60
   0 -16  -7  -10.40    5.90
  -1 -16  -7    4.60    7.10
  -2 -16  -7    4.00    7.10
  -3 -16  -7    3.20    6.60
  -4 -16  -7   13.50    7.80
   3   9  -8   72.99   15.60
   3   9  -8   93.59   12.50
   2   9  -8   16.10   11.00
   2   9  -8   17.30    6.60
   1   9  -8   -0.50    4.70
   1   9  -8    3.90    8.70
  -1  -9   8    2.90    4.00
   0   9  -8    4.80    7.90
   0   9  -8   -0.30    3.90
   0  -9   8    3.00    4.50
  -1   9  -8    1.50    3.50
  -1   9  -8    6.90    9.80
   1  -9   8   -2.80    4.40
  -2   9  -8   18.80   10.70
   2  -9   8    2.90    5.20
  -3   9  -8  -13.70    8.40
   3  -9   8    9.70    6.00
   5   8  -8    3.60    8.70
   5   8  -8   21.50    8.10
   4   8  -8   -6.40    6.90
   4   8  -8   -3.30    6.10
   3   8  -8   22.60    9.80
   3   8  -8   31.80    8.20
   2   8  -8   36.10   11.70
   2   8  -8   61.79    9.20
  -2  -8   8   51.69    5.30
   1   8  -8   17.10    5.90
   1   8  -8    9.20    9.70
  -1  -8   8   11.50    3.90
   0   8  -8   31.10   11.00
   0   8  -8   23.50    5.80
   0  -8   8   30.30    5.70
  -1   8  -8   19.80    9.80
  -1   8  -8   28.10    5.10
   1  -8   8   18.00    5.50
  -2   8  -8   -4.90    7.50
   2  -8   8    7.40    5.20
  -3   8  -8   14.50   10.30
   3  -8   8   23.40    6.50
  -4   8  -8    4.60    8.60
   4  -8   8    2.20    5.70
   6   7  -8   11.70    8.20
   6   7  -8   31.70   11.50
   5   7  -8   31.30   11.80
   5   7  -8   37.20    9.30
   4   7  -8   12.00    9.20
   4   7  -8    8.20    7.10
   3   7  -8   12.40    8.30
   3   7  -8   11.10    6.60
   2   7  -8   23.80    9.70
   2   7  -8   49.50    8.40
  -2  -7   8   35.80    4.40
   1   7  -8   41.30    7.10
   1   7  -8   57.69   13.20
  -1  -7   8   44.20    5.30
   0   7  -8   19.90    9.80
   0   7  -8   21.80    5.30
   0  -7   8   31.40    5.10
  -1   7  -8   -4.90    2.90
  -1   7  -8  -12.20    5.70
   1  -7   8   -0.10    3.70
  -2   7  -8    8.20    8.10
   2  -7   8   14.00    5.00
  -3   7  -8   18.60    9.90
   3  -7   8   15.50    5.80
  -4   7  -8   -2.30    7.60
   4  -7   8    1.30    5.00
  -5   7  -8    8.10    9.20
   5  -7   8   23.20    7.10
  -6   7  -8  -12.80    6.80
   6  -7   8    4.90    6.00
   7   6  -8   19.30   10.80
   7   6  -8    6.90    8.00
   6   6  -8   20.60   10.80
   6   6  -8   50.29   10.70
   5   6  -8   52.59   10.50
   5   6  -8   53.69   12.90
   4   6  -8  184.98   18.80
   4   6  -8  174.48   14.70
   3   6  -8    3.40    5.20
   3   6  -8    1.60    6.40
   2   6  -8  224.48   14.70
   2   6  -8  213.18    9.70
   2   6  -8  220.08   20.00
  -2  -6   8  215.68    9.10
   1   6  -8  181.38   18.20
   1   6  -8  156.78   11.70
  -1  -6   8  184.48    9.10
   0   6  -8  169.18   18.00
   0   6  -8  164.78   10.60
   0  -6   8  180.48    9.90
  -1   6  -8   26.70   10.30
  -1   6  -8   44.60    7.10
   1  -6   8   16.90    4.60
  -2   6  -8   28.90    9.40
   2  -6   8   51.19    6.80
  -3   6  -8   30.80   10.30
  -4   6  -8   10.30    7.30
   4  -6   8    6.20    4.70
  -5   6  -8    7.90    8.70
   5  -6   8   -3.30    4.90
  -6   6  -8   14.20    9.20
   6  -6   8   11.00    6.20
   7  -6   8   21.10    7.00
   7   5  -8   97.79   14.60
   6   5  -8   45.50   11.70
   6   5  -8   27.70    9.50
   5   5  -8   18.60    7.50
   5   5  -8    4.50    7.60
   4   5  -8   65.69   12.10
   4   5  -8   83.59   14.40
   3   5  -8    6.90    7.60
   3   5  -8    9.10    5.40
   2   5  -8    0.90    6.70
   2   5  -8    5.50    4.60
  -2  -5   8   -2.00    1.80
   1   5  -8  918.61   34.50
   1   5  -8  905.21   42.20
   0   5  -8   11.40    8.10
   0   5  -8   18.80    4.50
   0  -5   8   14.30    3.80
  -1   5  -8   78.19    6.30
  -1   5  -8   89.49   14.20
   1  -5   8   86.79    7.10
  -2   5  -8   26.40    9.10
  -2   5  -8   33.30    3.30
   2  -5   8   33.10    5.40
  -3   5  -8   90.39   13.90
   3  -5   8   66.49    8.10
  -4   5  -8   14.70    9.10
   4  -5   8   36.50    6.80
  -5   5  -8    6.00    7.30
   5  -5   8    0.60    4.50
  -6   5  -8   -0.10    6.90
   6  -5   8   -1.40    4.40
  -7   5  -8   -3.10    6.90
   7  -5   8    5.00    5.80
   8  -5   8  -12.00    4.60
   8   4  -8    5.20    7.20
   7   4  -8    4.20    6.50
   6   4  -8   67.49   12.10
   5   4  -8    1.90    5.90
   5   4  -8    2.70    6.60
   4   4  -8    3.10    7.40
   4   4  -8   -2.40    4.60
   3   4  -8   64.39   12.50
   3   4  -8   79.59   10.20
   2   4  -8  147.59    6.60
   2   4  -8  169.38   11.90
   2   4  -8  144.29   18.00
  -2  -4   8  144.39    6.10
   1   4  -8   39.20    9.30
   1   4  -8   30.90    4.50
   1   4  -8   33.60    6.10
  -1  -4   8   38.90    4.10
   0   4  -8   -6.70    5.00
   0   4  -8    6.90    3.40
   0  -4   8    6.00    2.90
  -1   4  -8   33.80    9.60
  -1   4  -8   40.50    4.80
   1  -4   8   35.40    5.10
  -2   4  -8   77.69    4.30
  -2   4  -8   80.49   14.00
   2  -4   8   74.09    7.00
  -3   4  -8   35.00    9.50
   3  -4   8   38.90    6.00
  -4   4  -8  159.28   15.90
   4  -4   8  168.88   11.30
  -5   4  -8   20.80    9.40
   5  -4   8    8.30    4.80
  -6   4  -8    4.20    7.40
   6  -4   8    3.10    5.10
  -7   4  -8   -5.60    6.40
   7  -4   8   12.70    6.00
   8  -4   8    8.20    6.00
   8   3  -8   29.50    9.90
   7   3  -8   -5.30    5.70
   6   3  -8  152.48   16.70
   5   3  -8  156.08   14.00
   4   3  -8   47.30    8.90
   3   3  -8  191.58   17.20
   3   3  -8  211.58   14.20
   2   3  -8  364.06   22.60
   2   3  -8  370.96   18.30
   2   3  -8  369.76   12.70
  -2  -3   8  369.96   12.40
   1   3  -8   48.30    9.50
   1   3  -8   48.00    6.90
   1   3  -8   40.50    4.20
  -1  -3   8   41.30    3.70
   0   3  -8  383.86   16.40
   0   3  -8  374.46   22.60
   0  -3   8  371.36   14.60
  -1   3  -8 1493.25   48.90
  -1   3  -8 1452.25   58.19
   1  -3   8 1594.74   49.50
  -2   3  -8  651.03   32.40
  -2   3  -8  665.13   21.70
   2  -3   8  694.23   25.10
  -3   3  -8   14.80    6.70
   3  -3   8   16.80    4.30
  -4   3  -8   46.50   10.40
   4  -3   8   46.10    6.50
  -5   3  -8   28.30    8.50
  -6   3  -8   14.20    7.40
   6  -3   8   10.50    5.20
  -7   3  -8   11.40    7.80
   7  -3   8    2.80    5.20
   8  -3   8    8.90    6.00
   9  -3   8    3.30    6.20
   9   2  -8   18.70    9.00
   8   2  -8   54.59   12.00
   7   2  -8   97.29   14.10
   6   2  -8   10.40    6.70
   5   2  -8  141.49   18.00
   4   2  -8   45.00    8.20
   3   2  -8   67.09    9.00
   2   2  -8  312.37   20.00
   2   2  -8  309.27   10.70
   2   2  -8  305.67   16.20
  -2  -2   8  314.87   10.60
   1   2  -8  507.65   21.20
   1   2  -8  486.05   26.10
   1   2  -8  494.15   17.50
  -1  -2   8  522.55   17.40
   0   2  -8   34.30    8.20
   0   2  -8   29.30    7.20
   0  -2   8   31.70    3.90
  -1   2  -8   85.99    6.00
  -1   2  -8   95.99   12.80
   1  -2   8   99.69    6.50
  -2   2  -8    7.90    6.10
  -2   2  -8   12.10    2.20
   2  -2   8    2.10    3.00
  -3   2  -8  152.18   14.50
   3  -2   8  163.68    9.80
  -4   2  -8    2.50    5.60
   4  -2   8   -0.20    3.40
  -5   2  -8   11.90    6.40
   5  -2   8   17.20    5.10
   6  -2   8   63.79    8.20
  -7   2  -8   28.30    9.30
   7  -2   8   22.10    6.10
   8  -2   8    6.70    5.50
   9  -2   8   -2.90    5.60
  10  -2   8    0.00    5.50
   9   1  -8   -0.40    7.10
   8   1  -8  161.38   18.40
   7   1  -8   -2.10    6.30
   6   1  -8    3.00    5.70
   5   1  -8  107.99   13.30
   4   1  -8  374.36   20.20
   3   1  -8  211.58   13.70
   2   1  -8   50.39    3.10
   2   1  -8   55.29    7.50
  -2  -1   8   49.30    3.00
   1   1  -8   72.59    7.80
   1   1  -8   59.99    9.80
   1   1  -8   59.79    4.10
  -1  -1   8   63.59    4.00
   0   1  -8  311.37   19.40
   0  -1   8  329.77   12.70
  -1   1  -8   -1.90    4.00
  -1   1  -8    3.50    2.30
   1  -1   8    1.20    2.30
  -2   1  -8  188.18    7.90
  -2   1  -8  153.48   13.80
   2  -1   8  187.48    9.60
  -3   1  -8  117.59   11.50
   3  -1   8  131.29    8.30
  -4   1  -8   22.00    7.10
   4  -1   8   16.20    4.20
  -5   1  -8  230.28   16.90
   5  -1   8  236.88   13.10
  -6   1  -8    2.70    5.70
   6  -1   8   12.20    7.40
  -7   1  -8   30.60    9.80
   7  -1   8   20.50    6.10
   8  -1   8    2.70    4.70
   9  -1   8   21.10    7.50
  10  -1   8    5.10    6.30
   9   0  -8   38.20   11.00
   8   0  -8    4.50    6.70
   7   0  -8  233.58   17.90
   6   0  -8  429.56   24.00
   5   0  -8   -0.70    3.80
   4   0  -8   86.69   10.80
   3   0  -8 1328.37   48.00
   2   0  -8    9.90    2.30
   2   0  -8   15.80    2.20
   2   0  -8    7.20    4.30
   1   0  -8  753.92   26.00
   1   0  -8  857.81   30.60
  -1   0   8  815.52   26.20
   0   0  -8  285.57   12.60
   0   0  -8  317.47   18.30
   0   0   8  308.27   11.90
  -1   0  -8   94.69    6.30
  -1   0  -8   90.19   11.20
   1   0   8   89.59    6.00
  -2   0  -8   16.80    2.80
  -2   0  -8   10.10    5.10
  -3   0  -8  453.45   22.90
  -3   0  -8  466.25   15.10
   3   0   8  469.85   18.50
  -4   0  -8  261.67   16.60
   4   0   8  267.17   12.90
  -5   0  -8  115.89   11.70
   5   0   8   92.89    8.40
  -6   0  -8    5.10    5.30
   6   0   8    6.90    4.10
  -7   0  -8   41.30    9.10
   7   0   8   23.00    5.90
   8   0   8   14.70    5.70
   9   0   8   16.30    6.10
  10   0   8    6.30    6.50
   9  -1  -8   25.60    9.30
   8  -1  -8   61.59   12.30
   7  -1  -8    0.90    6.00
   6  -1  -8   -2.60    4.20
   5  -1  -8   24.40    7.60
   4  -1  -8  491.35   23.90
   4  -1  -8  521.25   16.50
   4  -1  -8  497.15   16.20
   3  -1  -8 1050.79   32.40
   3  -1  -8 1088.99   39.40
   3  -1  -8  951.50   31.80
   2  -1  -8 1436.86   45.80
   2  -1  -8 1488.75   45.40
   2  -1  -8 1436.16   50.69
   1  -1  -8  237.18   12.70
   1  -1  -8  213.48    9.00
  -1   1   8  245.18    9.40
   0  -1  -8  460.25   18.90
   0   1   8  470.15   16.80
  -1  -1  -8 1236.88   40.30
  -1  -1  -8 1222.68   45.80
   1   1   8 1159.98   39.10
  -2  -1  -8   12.80    2.80
  -2  -1  -8    8.80    5.10
   2   1   8    8.70    3.00
  -3  -1  -8   40.70    3.40
  -3  -1  -8   28.80    6.20
  -3  -1  -8   42.50    3.40
   3   1   8   43.20    5.40
  -4  -1  -8  519.85   16.80
  -4  -1  -8  506.55   16.80
  -4  -1  -8  535.65   24.30
   4   1   8  501.45   20.40
  -5  -1  -8  386.36   20.20
   5   1   8  379.66   17.20
  -6  -1  -8   44.90    8.20
   6   1   8   46.60    6.60
  -7  -1  -8   18.50    6.60
   7   1   8   18.90    5.70
   8   1   8   25.30    6.10
   9   1   8    0.80    2.00
   9   1   8    0.20    4.80
  10   1   8    6.80    6.00
  11   1   8    7.30    7.00
  11   1   8   -3.30    2.30
   9  -2  -8    0.30    7.20
   8  -2  -8    6.90    2.70
   8  -2  -8    9.50    7.60
   7  -2  -8   12.20    7.60
   7  -2  -8   12.20    2.50
   7  -2  -8   12.70    2.70
   6  -2  -8   77.29    4.70
   6  -2  -8   79.39    5.00
   6  -2  -8   81.59   11.50
   5  -2  -8  193.08    8.40
   5  -2  -8  190.68    7.90
   5  -2  -8  198.18   14.80
   4  -2  -8   37.50    7.40
   4  -2  -8   44.40    3.90
   3  -2  -8  253.47    9.60
   3  -2  -8  237.08   10.20
   3  -2  -8  262.17   15.10
   2  -2  -8  934.21   31.30
   2  -2  -8  928.81   30.40
   2  -2  -8  992.00   36.00
   1  -2  -8  289.87   14.70
   1  -2  -8  301.87   11.50
  -1   2   8  302.47   11.70
   0  -2  -8   -3.20    2.20
   0   2   8    0.40    1.80
  -1  -2  -8  552.24   25.00
  -1  -2  -8  597.14   21.80
   1   2   8  552.04   20.30
  -2  -2  -8 1237.48   38.90
  -2  -2  -8 1189.88   44.30
   2   2   8 1170.68   39.60
  -3  -2  -8  167.28   11.70
   3   2   8  155.78    8.90
  -4  -2  -8  513.45   22.80
  -4  -2  -8  482.25   17.50
   4   2   8  514.35   20.10
  -5  -2  -8  690.43   23.20
  -5  -2  -8  716.53   28.90
   5   2   8  658.13   26.00
  -6  -2  -8   78.59    9.50
  -6  -2  -8   68.29    5.10
   6   2   8   87.19    7.90
  -7  -2  -8   23.00    6.50
   7   2   8   34.10    3.70
   7   2   8   24.90    6.50
  -8  -2  -8   86.99    6.40
   8   2   8   87.39    9.70
   8   2   8   81.29    5.70
   9   2   8    6.80    3.00
   9   2   8   11.70    5.20
  10   2   8    5.40    3.30
  10   2   8   -0.80    5.50
  11   2   8   15.20    7.20
   9  -3  -8    7.20    3.70
   9  -3  -8   -2.90    6.80
   8  -3  -8   26.80    9.60
   8  -3  -8   17.10    4.10
   7  -3  -8  149.09   15.10
   7  -3  -8  147.69    8.20
   6  -3  -8  203.88   15.80
   6  -3  -8  212.38   10.00
   5  -3  -8  104.69   12.40
   4  -3  -8   24.50    3.90
   4  -3  -8   35.00    7.50
   3  -3  -8   12.00    3.00
   3  -3  -8    7.00    4.30
   2  -3  -8   54.89    7.40
   2  -3  -8   53.89    4.90
   1  -3  -8  844.72   31.60
   1  -3  -8  814.32   28.70
   0   3   8  333.87   13.20
   1   3   8   12.40    2.90
  -2  -3  -8    5.10    2.60
  -2  -3  -8    0.40    3.10
   2   3   8    8.00    2.90
  -3  -3  -8   17.40    3.10
  -3  -3  -8   19.70    5.00
   3   3   8   18.60    3.70
  -4  -3  -8  133.39    7.30
  -4  -3  -8  125.89    9.70
   4   3   8  138.69    8.70
  -5  -3  -8  178.48   11.50
  -5  -3  -8  165.18    8.70
   5   3   8  172.08   10.10
  -6  -3  -8   71.89    8.50
  -6  -3  -8   76.29    6.00
   6   3   8   83.49    7.40
   6   3   8   73.19    5.30
   7   3   8    2.00    4.00
   7   3   8    4.00    2.60
   8   3   8    9.80    5.00
   8   3   8    6.90    3.20
   9   3   8    2.30    3.20
   9   3   8    3.20    5.10
  10   3   8   28.80    7.70
  10   3   8   29.10    5.20
  11   3   8   -3.40    5.60
  11   3   8    3.00    4.40
   9  -4  -8    3.40    8.00
   9  -4  -8    5.50    4.30
   8  -4  -8   10.00    4.00
   8  -4  -8    0.60    6.50
   7  -4  -8   89.39   13.20
   7  -4  -8  137.79    8.50
   6  -4  -8   62.69   10.80
   6  -4  -8   51.19    6.00
   5  -4  -8   20.10    3.80
   5  -4  -8   11.30    6.00
   4  -4  -8  638.14   28.80
   4  -4  -8  641.44   23.40
   3  -4  -8  181.98    9.50
   3  -4  -8  171.58   13.00
   2  -4  -8    0.00    2.30
   2  -4  -8   -2.80    3.40
   1  -4  -8  377.56   15.70
   0   4   8    9.20    2.70
   1   4   8   77.19    5.50
  -2  -4  -8  284.97   16.80
   2   4   8  297.77   12.80
  -3  -4  -8 1449.65   49.70
   3   4   8 1445.46   47.60
  -4  -4  -8  354.06   16.30
   4   4   8  352.86   15.50
  -5  -4  -8   25.30    5.00
   5   4   8   34.10    5.60
  -6  -4  -8  157.48   10.00
   6   4   8  148.59    8.50
   6   4   8  161.48   10.30
   7   4   8  151.88    8.80
   7   4   8  139.29   10.40
   8   4   8   65.29    8.70
   8   4   8   75.89    6.90
   9   4   8   10.10    5.60
   9   4   8    8.20    4.10
  10   4   8   36.00    6.40
  10   4   8   39.60    8.30
  11   4   8   19.40    7.30
  11   4   8    6.80    5.30
   9  -5  -8    8.50    5.10
   9  -5  -8   19.90    9.80
   8  -5  -8    1.90    4.20
   8  -5  -8   -8.40    6.50
   7  -5  -8   16.60    7.90
   7  -5  -8   23.00    5.10
   6  -5  -8   61.59   10.70
   6  -5  -8   93.89    7.80
   5  -5  -8    8.90    5.50
   5  -5  -8    5.70    3.70
   4  -5  -8    5.10    3.40
   4  -5  -8   11.40    6.00
   3  -5  -8  703.53   30.40
   3  -5  -8  730.43   26.60
   2  -5  -8  437.06   18.10
   1  -5  -8   15.50    3.80
   0  -5  -8  818.72   29.70
   1   5   8  841.22   29.20
   2   5   8    5.30    2.60
  -3  -5  -8   49.90    6.30
   3   5   8   57.19    6.00
  -4  -5  -8  654.43   24.30
   4   5   8  637.24   24.30
  -5  -5  -8   10.70    3.40
   5   5   8    9.90    3.70
   5   5   8    7.30    3.20
  -6  -5  -8   90.89    7.00
   6   5   8  114.09    8.70
   6   5   8   99.49    7.50
   7   5   8    9.60    3.70
   7   5   8   11.90    4.70
   8   5   8   -0.10    3.90
   8   5   8   -0.10    3.10
   9   5   8    4.50    4.00
   9   5   8    2.70    4.70
  10   5   8   18.60    6.20
  10   5   8   23.70    6.30
  11   5   8   11.50    6.40
  11   5   8   -7.90    4.60
   8  -6  -8   40.50   10.70
   7  -6  -8   62.39   11.90
   7  -6  -8   69.49    8.40
   6  -6  -8   19.50    7.00
   6  -6  -8    9.20    4.80
   5  -6  -8  164.28   11.00
   5  -6  -8  203.08   15.90
   4  -6  -8   21.80    6.60
   4  -6  -8   35.20    5.80
   3  -6  -8  179.98   10.60
   2  -6  -8  268.47   13.30
   1  -6  -8  683.13   25.90
   0  -6  -8   65.19    7.10
   1   6   8  362.36   15.20
   2   6   8  312.07   13.80
  -3  -6  -8    4.80    2.80
   3   6   8    1.60    3.00
  -4  -6  -8  252.67   11.10
   4   6   8  225.88   11.90
  -5  -6  -8  106.39    6.30
   5   6   8  101.19    7.60
   5   6   8  108.09    8.20
   6   6   8    4.90    3.20
   6   6   8    0.50    3.10
   7   6   8   21.90    4.90
   7   6   8   25.70    5.70
   8   6   8   28.70    6.50
   8   6   8   42.60    6.60
   9   6   8    4.10    4.90
   9   6   8    0.40    3.80
  10   6   8   26.10    6.90
  10   6   8   31.40    7.10
  11   6   8   -3.00    5.00
  11   6   8   11.80    5.70
   8  -7  -8   36.10   11.30
   8  -7  -8   15.50    6.30
   7  -7  -8    4.10    5.00
   6  -7  -8   35.00    9.70
   6  -7  -8   37.70    6.80
   5  -7  -8  209.58   16.90
   5  -7  -8  198.38   12.70
   4  -7  -8  403.86   18.60
   3  -7  -8   27.40    5.70
   2  -7  -8  159.98   10.40
   1  -7  -8  379.76   17.40
   0  -7  -8   24.10    5.20
  -1  -7  -8   78.99    7.70
   2   7   8  660.63   24.80
  -3  -7  -8  579.44   21.80
   3   7   8  589.84   22.60
  -4  -7  -8   17.30    3.00
   4   7   8   21.20    4.60
   4   7   8   17.00    4.30
   5   7   8  514.45   21.50
   5   7   8  515.15   21.20
   6   7   8  425.26   19.30
   6   7   8  435.86   19.10
   7   7   8   32.80    6.40
   7   7   8   27.10    5.90
   8   7   8  136.59   10.90
   8   7   8  159.28   11.30
   9   7   8   43.00    7.40
   9   7   8   45.70    7.70
  10   7   8    0.20    4.70
  10   7   8  -12.60    4.10
  11   7   8   15.50    6.40
  11   7   8    7.90    6.00
   8  -8  -8   -8.30    4.70
   8  -8  -8    7.30    8.00
   7  -8  -8    6.00    7.90
   7  -8  -8    0.10    4.70
   6  -8  -8    8.70    5.30
   6  -8  -8    6.90    7.10
   5  -8  -8   -1.40    5.30
   5  -8  -8    5.10    5.00
   4  -8  -8   21.30    5.70
   3  -8  -8   78.39    8.90
   2  -8  -8    7.50    4.30
   1  -8  -8  233.58   13.30
   0  -8  -8  394.66   18.30
  -1  -8  -8   -1.20    3.40
  -2  -8  -8  724.73   28.90
   3   8   8  782.32   29.00
   4   8   8  296.97   15.10
   4   8   8  273.07   13.70
   5   8   8   29.70    5.60
   5   8   8   20.70    4.70
   6   8   8  117.39    9.70
   6   8   8  103.39    8.50
   7   8   8    7.10    5.20
   7   8   8    3.80    4.20
   8   8   8    9.60    5.20
   8   8   8    4.20    4.60
   9   8   8   12.00    5.60
  10   8   8   33.00    7.30
  10   8   8   38.60    8.00
  11   8   8    3.30    5.90
  11   8   8    7.90    6.20
   7  -9  -8   -0.20    7.80
   7  -9  -8   -3.10    4.90
   6  -9  -8   21.80    9.30
   6  -9  -8    4.60    5.40
   5  -9  -8    0.60    6.20
   5  -9  -8    7.10    5.40
   3  -9  -8  461.05   21.30
   2  -9  -8   44.30    7.30
   1  -9  -8   96.99    9.10
   0  -9  -8  105.89    9.10
  -1  -9  -8    5.40    4.60
  -2  -9  -8   81.99    9.30
   4   9   8  387.76   18.90
   4   9   8  395.96   17.80
   5   9   8  122.89    9.50
   5   9   8  142.39   10.70
   6   9   8   30.30    6.50
   6   9   8   26.00    5.70
   7   9   8  250.47   15.60
   7   9   8  252.07   14.30
   8   9   8   61.79    8.10
   8   9   8   55.09    9.20
   9   9   8    1.40    4.90
   9   9   8    6.50    5.20
  10   9   8   39.70    8.30
  10   9   8   49.70    8.40
  11   9   8   37.10    9.20
  11   9   8   46.20    8.70
   7 -10  -8    3.40    6.30
   7 -10  -8    9.00    9.10
   6 -10  -8    7.30    6.00
   6 -10  -8   -4.40    5.90
   5 -10  -8   22.30    7.20
   4 -10  -8   14.30    6.20
   3 -10  -8    5.20    5.40
   2 -10  -8   52.69   12.10
   1 -10  -8   62.19    8.60
   0 -10  -8   -2.70    3.80
  -1 -10  -8   55.89    7.80
  -2 -10  -8   48.90    7.30
  -2 -10  -8   59.09    6.60
  -3 -10  -8   41.30    4.40
  -3 -10  -8   43.40    7.90
   4  10   8  553.34   24.80
   5  10   8   45.60    7.40
   5  10   8   76.49    8.70
   6  10   8  145.69   10.70
   6  10   8  135.69   12.10
   7  10   8   -2.60    3.90
   7  10   8    3.70    5.20
   8  10   8   59.29    8.40
   8  10   8   46.00    8.90
   9  10   8   10.90    5.50
   9  10   8    5.10    6.20
  10  10   8   38.30    7.70
  10  10   8   34.00    8.50
   6 -11  -8    0.10    6.40
   6 -11  -8  -16.60    6.00
   5 -11  -8   25.60    8.10
   4 -11  -8   56.99    9.30
   3 -11  -8    8.90    5.70
   2 -11  -8  135.39   12.00
   1 -11  -8  240.08   15.30
   0 -11  -8   42.20    7.70
  -2 -11  -8  127.09   17.00
  -3 -11  -8   45.80    4.90
  -4 -11  -8   -0.70    5.00
   4  11   8    2.00    5.20
  -5 -11  -8   54.59    9.00
   5  11   8   59.89    9.00
   6  11   8  171.78   11.90
   6  11   8  180.28   14.10
   7  11   8   81.59   11.10
   7  11   8   48.40    7.70
   8  11   8    0.40    5.40
   8  11   8    2.20    4.50
   9  11   8   -0.60    5.60
   9  11   8    7.00    5.50
  10  11   8    6.20    6.70
  10  11   8    2.40    5.60
   5 -12  -8   -0.30    5.90
   4 -12  -8   25.50    7.80
   3 -12  -8   11.20    5.80
   2 -12  -8    3.60    5.30
   1 -12  -8  173.48   13.60
   0 -12  -8   57.09    8.70
  -1 -12  -8    6.30    5.50
  -2 -12  -8  220.98   15.20
  -3 -12  -8  141.29   12.40
  -4 -12  -8    0.70    5.00
   4  12   8    3.40    5.00
  -5 -12  -8   55.99    9.60
   5  12   8   57.09    8.90
  -6 -12  -8   65.49   10.80
   6  12   8   95.29   12.20
   7  12   8   28.70    8.00
   8  12   8   24.20    8.10
   8  12   8   19.50    6.70
   9  12   8   43.40    9.90
   9  12   8   36.20    7.70
   4 -13  -8   -0.90    6.10
   3 -13  -8   22.70    7.70
   2 -13  -8   12.00    7.00
   1 -13  -8    3.80    5.70
   0 -13  -8   16.40    7.10
  -1 -13  -8    8.40    6.10
  -2 -13  -8    5.50    5.20
  -3 -13  -8   56.39    9.60
  -3 -13  -8   47.80    5.80
  -4 -13  -8   99.79   12.00
  -5 -13  -8   -0.40    5.30
   5  13   8   12.60    6.20
  -6 -13  -8   54.09   10.00
   6  13   8   48.80    9.40
  -7 -13  -8   35.40    9.30
   7  13   8   55.69   10.10
  -8 -13  -8    9.90    7.50
   8  13   8   -2.80    5.90
   9  13   8   21.20    8.70
   3 -14  -8   26.00    8.80
   2 -14  -8   60.49   10.90
   1 -14  -8   -1.00    6.00
   0 -14  -8   21.80    8.00
  -1 -14  -8  159.38   14.10
  -2 -14  -8   18.90    7.80
  -3 -14  -8    6.20    6.40
  -4 -14  -8   59.09   10.30
  -5 -14  -8   31.10    8.50
   5  14   8   23.10    7.20
  -6 -14  -8    4.20    6.50
   6  14   8    3.10    5.60
  -7 -14  -8   18.60    8.20
   7  14   8   10.40    7.70
  -8 -14  -8   -2.90    7.20
   8  14   8   -4.40    6.30
   2 -15  -8    5.00    6.10
   1 -15  -8    6.10    6.10
   0 -15  -8   52.09   10.20
  -1 -15  -8   -0.20    6.10
  -2 -15  -8   34.40    8.70
  -3 -15  -8    9.50    6.60
  -4 -15  -8   28.60    8.30
  -5 -15  -8   14.00    7.80
   5  15   8   15.50    7.20
  -6 -15  -8    0.50    6.80
   6  15   8    2.30    5.90
  -1 -16  -8   -5.10    6.40
  -2 -16  -8   15.00    7.80
  -3 -16  -8   22.30    8.40
  -4 -16  -8    7.50    7.10
   3   8  -9   24.70   11.90
   3   8  -9   11.70    6.90
   2   8  -9   16.10   10.50
   2   8  -9   11.60    6.40
   1   8  -9    2.90    8.30
   1   8  -9   11.30    5.80
  -1  -8   9   15.40    4.70
   0   8  -9   25.70    5.70
   0   8  -9   22.60   11.00
   0  -8   9   13.00    5.10
  -1   8  -9   16.20   10.50
  -2   8  -9   -1.30    8.40
   2  -8   9    5.30    5.30
  -3   8  -9   14.40   10.10
   3  -8   9    3.80    5.50
   5   7  -9   37.00    9.90
   5   7  -9   13.30   11.60
   4   7  -9   46.80    9.90
   4   7  -9   34.40   12.60
   3   7  -9   56.39   13.30
   3   7  -9   67.49   10.60
   2   7  -9   14.60    6.30
   2   7  -9   14.30    9.90
  -2  -7   9   18.60    3.20
   1   7  -9    7.20    9.00
   1   7  -9   -2.60    4.60
  -1  -7   9    1.50    3.40
   0   7  -9   77.29    8.40
   0   7  -9   58.69   13.80
   0  -7   9   80.59    7.90
  -1   7  -9  120.09   18.30
  -1   7  -9  120.29    8.10
   1  -7   9  122.89    9.80
  -2   7  -9  108.99   17.50
   2  -7   9  129.59   10.70
  -3   7  -9   -4.40    8.80
   3  -7   9    5.80    5.30
  -4   7  -9   -0.90    8.60
   4  -7   9    1.40    5.40
  -5   7  -9    0.60    8.10
   5  -7   9    3.80    5.90
   6   6  -9   47.10   14.10
   6   6  -9   35.20   10.50
   5   6  -9   29.30    9.10
   5   6  -9   13.30   10.30
   4   6  -9   36.10    8.70
   4   6  -9    5.00    9.30
   3   6  -9   29.30    8.10
   3   6  -9   28.50   10.80
   2   6  -9   80.29   14.80
   2   6  -9   77.19   10.10
  -2  -6   9   81.09    5.10
   1   6  -9   27.60   10.40
   1   6  -9   25.60    6.20
  -1  -6   9   21.40    4.00
   0   6  -9   47.10   12.80
   0   6  -9   70.69    8.00
   0  -6   9   60.09    6.60
  -1   6  -9   62.39   13.10
   1  -6   9   77.49    7.90
  -2   6  -9    4.60    6.80
   2  -6   9   10.50    4.50
  -3   6  -9   29.00   10.40
   3  -6   9   26.20    6.40
  -4   6  -9   10.40    8.90
   4  -6   9    6.30    5.30
  -5   6  -9   -4.60    6.30
   5  -6   9   13.20    6.10
  -6   6  -9    1.70   10.00
   6  -6   9   14.30    6.80
   6   5  -9   -3.60    7.50
   6   5  -9    2.80    6.70
   5   5  -9  120.59   14.70
   5   5  -9  147.89   19.20
   4   5  -9   34.00    8.20
   4   5  -9   15.60   10.10
   3   5  -9    3.70    7.70
   3   5  -9    4.10    5.20
   2   5  -9    3.40    2.40
   2   5  -9   10.00    5.40
   2   5  -9    1.90    7.50
  -2  -5   9    1.90    1.90
   1   5  -9   16.30    9.80
   1   5  -9   12.90    5.10
  -1  -5   9   18.30    3.60
   0   5  -9   11.00    8.00
   0   5  -9   14.20    4.50
   0  -5   9   15.90    3.90
  -1   5  -9    2.80    2.90
  -1   5  -9    2.50    7.50
   1  -5   9   -5.00    2.90
  -2   5  -9   42.00   10.70
   2  -5   9   64.19    7.20
  -3   5  -9   20.90    9.00
   3  -5   9   16.70    5.30
  -4   5  -9   33.30   10.30
   4  -5   9   46.10    7.30
  -5   5  -9    3.90    8.00
   5  -5   9    6.50    5.20
  -6   5  -9   16.20    9.40
   6  -5   9   29.90    7.50
  -7   5  -9    1.40    8.50
   7  -5   9   10.10    6.30
   7   4  -9   36.30   10.20
   6   4  -9    6.40    6.90
   5   4  -9    7.50    8.50
   5   4  -9   33.90    8.90
   4   4  -9  120.89   13.70
   4   4  -9  110.79   16.30
   3   4  -9   86.39   11.10
   3   4  -9   83.49   14.60
   2   4  -9   87.19    4.80
   2   4  -9   72.79   13.30
   2   4  -9   92.89   10.30
  -2  -4   9   76.09    4.20
   1   4  -9   -0.10    3.80
   1   4  -9   -2.90    5.80
  -1  -4   9    6.30    2.70
   0   4  -9  405.26   17.60
   0   4  -9  350.36   24.70
   0  -4   9  385.56   15.50
  -1   4  -9    5.80    3.00
  -1   4  -9    4.50    6.70
   1  -4   9    4.60    3.70
  -2   4  -9  126.09    5.60
  -2   4  -9   89.09   14.10
   2  -4   9  132.69    9.20
  -3   4  -9   74.59   13.70
   3  -4   9   55.39    7.20
  -4   4  -9    3.10    7.70
   4  -4   9   11.10    5.20
  -5   4  -9   15.70    8.50
   5  -4   9   18.70    5.70
  -6   4  -9    4.60    7.60
   6  -4   9   15.70    6.20
  -7   4  -9   14.00    9.60
   7  -4   9    6.50    5.60
   8  -4   9   -5.90    5.20
   8   3  -9    5.00    7.60
   7   3  -9   44.70   10.40
   6   3  -9   88.49   13.40
   5   3  -9   -0.70    5.40
   4   3  -9  107.19   15.80
   3   3  -9  243.08   19.70
   3   3  -9  228.68   15.70
   2   3  -9  100.49   14.60
   2   3  -9  108.49   10.00
   2   3  -9   83.99    4.60
  -2  -3   9   89.09    4.30
   1   3  -9   72.69   14.90
   1   3  -9   95.89    8.80
   1   3  -9   86.99    5.80
  -1  -3   9   94.39    5.60
   0   3  -9   79.59    7.30
   0  -3   9   93.79    6.30
  -1   3  -9  111.49    7.60
   1  -3   9  132.09    8.20
  -2   3  -9    8.10    2.10
   2  -3   9   16.30    4.30
  -3   3  -9   48.30   10.70
   3  -3   9   57.69    7.20
  -4   3  -9    3.50    6.40
   4  -3   9    2.10    4.20
  -5   3  -9   -6.60    6.20
   5  -3   9    6.20    4.80
  -6   3  -9   12.40    8.30
   6  -3   9    1.90    4.80
  -7   3  -9    7.10    8.90
   7  -3   9    7.00    5.80
   8  -3   9   -4.60    5.20
   8   2  -9   36.60   10.80
   7   2  -9    2.30    6.70
   6   2  -9  144.59   14.90
   5   2  -9  309.97   19.90
   4   2  -9   18.40    6.60
   3   2  -9   73.89    9.70
   2   2  -9  145.29    6.20
   2   2  -9  143.99   11.40
   2   2  -9  171.68   15.30
  -2  -2   9  153.28    6.10
   1   2  -9   42.80    4.10
   1   2  -9   41.50    9.80
   1   2  -9   44.30    6.90
  -1  -2   9   40.60    3.90
   0   2  -9   65.39    6.60
   0   2  -9   41.30    9.40
   0  -2   9   59.59    5.20
  -1   2  -9  194.68   17.20
  -1   2  -9  220.58   10.80
   1  -2   9  234.98   10.80
  -2   2  -9  305.27   20.60
  -2   2  -9  313.17   11.90
   2  -2   9  312.47   14.20
  -3   2  -9   60.19   11.60
   3  -2   9   72.39    7.00
  -4   2  -9    3.20    6.50
   4  -2   9    0.50    3.70
  -5   2  -9    4.90    7.10
  -6   2  -9   23.10    8.70
   6  -2   9   30.00    6.70
  -7   2  -9   22.20    8.70
   7  -2   9   19.90    6.60
   8  -2   9    5.30    6.30
   9  -2   9   -2.50    5.80
   8   1  -9   43.50   11.20
   7   1  -9   17.90    8.90
   6   1  -9    5.90    5.60
   5   1  -9   89.39   11.60
   4   1  -9   47.90    8.90
   3   1  -9   -1.00    4.40
   2   1  -9  520.05   22.60
   2   1  -9  461.95   15.90
   1   1  -9  305.67   11.70
   1   1  -9  311.37   15.80
   1   1  -9  309.87   20.10
  -1  -1   9  294.67   11.50
   0   1  -9  113.89    8.20
   0   1  -9  100.49   12.80
   0  -1   9   99.19    6.20
  -1   1  -9  100.39   13.60
  -1   1  -9  100.29    6.90
   1  -1   9  101.29    6.70
  -2   1  -9   54.19    4.50
  -2   1  -9   49.99    9.90
   2  -1   9   61.19    6.30
  -3   1  -9  215.18   16.30
   3  -1   9  211.28   11.40
  -4   1  -9  611.54   30.50
   4  -1   9  650.93   25.20
  -5   1  -9  321.37   21.20
   5  -1   9  327.87   16.40
   6  -1   9   20.90    6.00
  -7   1  -9   -1.40    5.70
   7  -1   9    2.60    4.40
   8  -1   9    4.60    5.80
   9  -1   9   -5.00    5.00
   8   0  -9    4.70    7.70
   7   0  -9  290.47   20.60
   6   0  -9   27.40    8.60
   5   0  -9  132.29   12.90
   4   0  -9  360.56   20.30
   3   0  -9   52.29    8.60
   2   0  -9  299.67   11.10
   2   0  -9  319.07   16.80
   2   0  -9  316.37   11.80
   1   0  -9  917.11   30.90
   1   0  -9  970.20   35.50
  -1   0   9  992.80   31.20
   0   0  -9  545.55   27.10
   0   0  -9  509.85   21.10
  -1   0  -9   85.39    6.40
  -1   0  -9   79.89   11.00
   1   0   9   85.59    6.10
  -2   0  -9  536.35   19.60
  -2   0  -9  513.55   26.80
   2   0   9  585.54   21.00
  -3   0  -9  561.84   18.30
  -3   0  -9  550.54   27.30
  -3   0  -9  569.14   18.20
   3   0   9  536.65   21.50
  -4   0  -9  700.13   31.80
   4   0   9  676.73   26.30
  -5   0  -9  225.68   16.80
   5   0   9  238.78   13.20
  -6   0  -9  133.29   13.90
   6   0   9  147.49   11.00
  -7   0  -9   17.60    7.90
   7   0   9   11.90    5.20
   8   0   9   16.40    6.60
   9   0   9    1.30    5.40
  10   0   9   -2.20    5.30
   8  -1  -9   85.49   13.60
   7  -1  -9    1.40    5.90
   6  -1  -9   35.70    9.00
   5  -1  -9   -2.20    5.10
   4  -1  -9  125.29   12.00
   3  -1  -9   49.60    3.30
   3  -1  -9   64.19    9.10
   3  -1  -9   52.49    3.90
   2  -1  -9   77.39    5.40
   2  -1  -9   99.69    9.10
   2  -1  -9   90.89    4.90
   1  -1  -9  856.11   28.20
   1  -1  -9  837.22   32.40
  -1   1   9  876.21   28.30
   0  -1  -9 1459.35   54.39
   0  -1  -9 1414.56   48.70
   0   1   9 1432.76   45.90
  -1  -1  -9  365.36   16.10
  -1  -1  -9  392.56   21.40
   1   1   9  389.26   15.30
  -2  -1  -9    4.20    4.70
  -2  -1  -9   12.80    3.10
   2   1   9   23.40    4.00
  -3  -1  -9  425.06   15.30
  -3  -1  -9  451.85   15.80
  -3  -1  -9  411.26   22.30
   3   1   9  432.26   17.80
  -4  -1  -9    6.30    1.70
  -4  -1  -9    8.60    5.60
   4   1   9    7.40    3.90
  -5  -1  -9  197.78   14.80
   5   1   9  195.38   11.80
  -6  -1  -9    2.70    5.40
   6   1   9    8.60    4.90
  -7  -1  -9  514.25   27.20
   7   1   9  577.64   24.50
   8   1   9   17.60    6.30
   9   1   9   10.00    6.00
  10   1   9   10.40    6.40
   8  -2  -9   36.80   10.00
   7  -2  -9    1.20    1.90
   7  -2  -9    4.80    6.10
   6  -2  -9   82.99    4.60
   6  -2  -9   83.69   12.00
   6  -2  -9   79.89    4.60
   5  -2  -9  188.58   14.80
   5  -2  -9  175.88    7.60
   4  -2  -9   53.59    4.20
   4  -2  -9   59.19    5.80
   4  -2  -9   55.19    9.10
   3  -2  -9  149.09    7.50
   3  -2  -9  161.08   12.40
   3  -2  -9  153.78    6.80
   2  -2  -9   27.20    3.30
   2  -2  -9   39.40    4.30
   2  -2  -9   34.00    6.40
   1  -2  -9   -0.10    3.40
  -1   2   9   -2.80    1.70
   0  -2  -9   67.99    7.60
   0   2   9   71.09    5.50
  -1  -2  -9   19.20    4.20
  -1  -2  -9   18.40    6.00
   1   2   9   24.20    3.80
  -2  -2  -9    7.30    2.40
  -2  -2  -9    1.10    4.00
  -2  -2  -9    0.10    2.30
   2   2   9    2.20    2.60
  -3  -2  -9   87.29    5.60
  -3  -2  -9  101.29   10.20
   3   2   9   92.89    7.10
  -4  -2  -9   57.69    4.50
  -4  -2  -9   67.39    9.80
   4   2   9   74.69    7.50
  -5  -2  -9   -0.90    1.80
  -5  -2  -9    3.70    4.70
   5   2   9    1.60    3.60
  -6  -2  -9  224.08   15.00
  -6  -2  -9  209.58    8.80
   6   2   9  231.18   13.10
  -7  -2  -9   68.09    4.50
  -7  -2  -9   69.49   10.00
   7   2   9   60.49    8.20
  -8  -2  -9   48.90    4.30
   8   2   9   53.49    8.40
   9   2   9   -3.30    4.70
  10   2   9   23.80    7.70
   8  -3  -9   81.99    5.90
   8  -3  -9   50.59   12.10
   7  -3  -9   52.29   11.10
   7  -3  -9   37.70    4.60
   6  -3  -9   66.39   11.00
   5  -3  -9  483.45   17.30
   5  -3  -9  425.46   23.90
   4  -3  -9  456.05   24.60
   4  -3  -9  537.15   18.80
   3  -3  -9   27.80    6.90
   3  -3  -9   27.30    4.10
   2  -3  -9  356.96   18.50
   1  -3  -9  225.48   13.60
   1  -3  -9  234.18   11.20
   0  -3  -9   32.80    5.60
   0   3   9   28.80    4.10
   1   3   9 1053.29   35.40
  -2  -3  -9  562.64   25.20
   2   3   9  535.75   20.60
  -3  -3  -9   20.00    3.50
  -3  -3  -9   20.50    5.50
   3   3   9   18.10    3.90
  -4  -3  -9    6.00    2.40
  -4  -3  -9    2.70    3.80
   4   3   9    8.00    3.70
  -5  -3  -9   69.89    5.60
  -5  -3  -9   81.69    9.80
   5   3   9   87.49    7.80
  -6  -3  -9   28.00    4.30
  -6  -3  -9   35.30    7.00
   6   3   9   40.20    6.70
  -7  -3  -9   -1.70    2.90
  -7  -3  -9    4.40    4.60
   7   3   9    2.80    4.50
   8   3   9    3.30    2.60
   8   3   9    6.20    5.10
   9   3   9    3.40    4.70
   9   3   9   -3.60    4.80
  10   3   9    3.00    5.60
  10   3   9    0.00    3.20
  11   3   9   -6.90    2.30
  11   3   9    2.20    6.50
   8  -4  -9   45.40   11.90
   8  -4  -9   36.80    5.70
   7  -4  -9   63.69   11.30
   7  -4  -9   64.49    6.50
   6  -4  -9    0.50    3.10
   6  -4  -9   -7.50    5.30
   5  -4  -9   30.40    4.70
   5  -4  -9   22.00    7.40
   4  -4  -9   29.30    7.70
   4  -4  -9   35.20    5.10
   3  -4  -9  215.18   10.70
   3  -4  -9  209.98   14.30
   2  -4  -9  881.61   30.50
   2  -4  -9  828.82   34.10
   1  -4  -9  725.53   29.30
   1  -4  -9  710.23   26.20
   0   4   9  142.09    8.00
   1   4   9   19.60    3.70
  -2  -4  -9  422.16   20.60
   2   4   9  438.46   17.40
  -3  -4  -9  458.15   21.20
   3   4   9  459.85   18.60
  -4  -4  -9   21.90    5.80
   4   4   9   29.40    5.20
  -5  -4  -9  522.85   22.60
   5   4   9  516.15   21.60
  -6  -4  -9  197.38   12.40
   6   4   9  224.78   12.70
  -7  -4  -9   12.80    4.80
   7   4   9   22.00    4.10
   7   4   9   15.50    5.30
   8   4   9  130.99   11.10
   8   4   9  141.99    8.60
   9   4   9   21.50    6.10
   9   4   9   34.60    5.30
  10   4   9    5.90    3.60
  10   4   9   -3.40    5.50
  11   4   9   -6.20    3.70
  11   4   9   -3.50    6.00
   8  -5  -9   -0.20    7.90
   8  -5  -9   -6.60    3.90
   7  -5  -9   37.60    5.90
   7  -5  -9   47.20   11.40
   6  -5  -9   97.49    8.00
   6  -5  -9   87.69   13.10
   5  -5  -9   22.70    7.50
   5  -5  -9   46.50    6.10
   4  -5  -9  240.08   12.20
   4  -5  -9  236.88   18.90
   3  -5  -9 1280.87   43.60
   3  -5  -9 1297.47   49.00
   2  -5  -9  426.96   18.10
   2  -5  -9  418.06   21.10
   1  -5  -9   20.80    4.60
   1   5   9   67.89    5.80
   2   5   9  128.69    8.10
  -3  -5  -9  224.48   12.70
   3   5   9  191.68   10.70
  -4  -5  -9  297.87   20.60
   4   5   9  299.47   14.20
  -5  -5  -9   -0.30    2.90
   5   5   9    3.20    3.50
   6   5   9   82.09    7.70
   7   5   9   15.40    4.00
   7   5   9   15.60    4.80
   8   5   9   14.50    5.70
   8   5   9    4.20    3.70
   9   5   9   10.80    4.30
   9   5   9    9.40    5.60
  10   5   9    0.00    3.90
  10   5   9    3.40    5.30
  11   5   9    0.90    5.60
  11   5   9    4.90    4.40
   8  -6  -9    6.10    8.10
   8  -6  -9   -4.60    4.10
   7  -6  -9   47.00    7.20
   7  -6  -9   30.10    9.60
   6  -6  -9  181.88   16.50
   6  -6  -9  161.88   11.20
   5  -6  -9   47.50    6.70
   5  -6  -9   36.00    9.00
   4  -6  -9   60.19    7.30
   4  -6  -9   48.70   10.10
   3  -6  -9  292.37   14.40
   3  -6  -9  308.77   18.30
   2  -6  -9    6.00    4.00
   1  -6  -9  250.87   13.10
   0  -6  -9  181.78   11.00
   1   6   9  495.05   19.50
   2   6   9  250.87   12.30
  -3  -6  -9  278.87   14.40
   3   6   9  290.87   13.60
  -4  -6  -9    2.90    3.00
   4   6   9    8.20    3.80
  -5  -6  -9   37.00    5.10
   5   6   9   46.30    6.40
  -6  -6  -9   35.70    5.00
   6   6   9   25.50    5.00
   6   6   9   34.00    6.40
   7   6   9  201.18   12.40
   7   6   9  200.18   11.70
   8   6   9   72.29    7.40
   8   6   9   69.99    9.10
   9   6   9    1.10    3.80
   9   6   9    3.10    4.90
  10   6   9   33.30    6.70
  10   6   9   19.80    6.80
  11   6   9   20.00    6.30
  11   6   9   20.70    7.70
   8  -7  -9   15.80    6.10
   8  -7  -9   14.40   10.10
   7  -7  -9   13.10    8.60
   7  -7  -9    3.80    4.70
   6  -7  -9    5.80    4.90
   6  -7  -9    9.90    8.10
   5  -7  -9    6.00    4.80
   5  -7  -9    3.30    6.40
   4  -7  -9   16.80    5.30
   4  -7  -9   14.70    6.80
   3  -7  -9  122.39    9.50
   2  -7  -9  676.93   26.70
   1  -7  -9   73.19    8.40
   0  -7  -9    1.10    3.50
  -1  -7  -9  384.46   18.10
   2   7   9  122.09    8.60
  -3  -7  -9   43.30    6.20
   3   7   9   55.69    6.50
  -4  -7  -9  890.21   30.80
   4   7   9  865.41   32.00
  -5  -7  -9  745.53   25.70
   5   7   9  748.93   28.70
   6   7   9  228.48   12.70
   6   7   9  204.48   12.40
   7   7   9    5.00    3.90
   7   7   9    2.60    3.90
   8   7   9   24.30    5.70
   8   7   9   14.00    5.70
   9   7   9    9.90    5.10
   9   7   9   22.70    6.30
  10   7   9    5.70    5.20
  10   7   9    2.10    5.10
  11   7   9    1.80    4.90
  11   7   9    2.80    5.50
   7  -8  -9   41.30    8.00
   7  -8  -9   38.50   11.20
   6  -8  -9    0.30    6.80
   6  -8  -9   -1.70    4.90
   5  -8  -9   68.29    8.80
   5  -8  -9   69.99   11.80
   4  -8  -9  106.59   10.80
   4  -8  -9   93.59   13.30
   3  -8  -9    0.00    4.00
   2  -8  -9  201.28   12.60
   1  -8  -9  558.24   23.90
   0  -8  -9   21.70    5.40
  -1  -8  -9  182.98   12.00
   3   8   9   10.20    3.70
  -4  -8  -9  327.87   13.30
   4   8   9  331.07   15.60
   5   8   9  546.55   22.20
   5   8   9  499.05   22.40
   6   8   9  120.39    9.90
   7   8   9   -4.40    3.80
   7   8   9    1.50    4.20
   8   8   9   52.69    8.10
   8   8   9   61.49    8.70
   9   8   9   25.70    7.40
   9   8   9   45.70    8.10
  10   8   9    5.10    5.00
  10   8   9    6.80    5.60
  11   8   9   -4.70    4.90
  11   8   9   -3.40    5.40
   7  -9  -9   28.80   11.00
   7  -9  -9   52.19    9.10
   6  -9  -9   30.20    7.60
   6  -9  -9   18.90    9.20
   5  -9  -9   15.10    7.70
   5  -9  -9    3.70    5.20
   4  -9  -9   19.40    6.40
   3  -9  -9    3.10    5.00
   2  -9  -9   36.80    7.20
   1  -9  -9  180.18   12.30
   0  -9  -9  137.19   10.90
  -1  -9  -9    8.10    4.40
  -2  -9  -9    4.40    4.80
  -4  -9  -9   47.30    3.70
   4   9   9   41.80    6.40
   5   9   9  186.58   11.90
   5   9   9  199.08   12.80
   6   9   9  286.07   15.60
   6   9   9  304.27   16.40
   7   9   9    7.50    5.60
   7   9   9   18.10    5.90
   8   9   9   40.70    8.70
   8   9   9   45.00    7.80
   9   9   9   66.39    9.00
   9   9   9   54.49    9.00
  10   9   9    0.70    5.50
  10   9   9   -1.60    5.10
   6 -10  -9   48.00    9.40
   6 -10  -9   34.90   11.00
   5 -10  -9   42.80    8.70
   5 -10  -9   22.50    8.60
   4 -10  -9   16.70    6.50
   3 -10  -9   72.69    9.90
   2 -10  -9  379.36   19.80
   1 -10  -9   65.59    9.80
   0 -10  -9  210.08   13.90
  -1 -10  -9  312.47   17.30
  -2 -10  -9   50.29    8.20
  -3 -10  -9   54.89    8.00
   5  10   9    2.40    4.40
   5  10   9   -2.70    3.80
   6  10   9    9.80    5.00
   7  10   9  197.48   14.30
   7  10   9  170.78   12.50
   8  10   9   -3.70    4.60
   8  10   9    3.40    5.10
   9  10   9    4.90    5.40
   9  10   9   -3.70    4.40
  10  10   9    4.80    5.80
  10  10   9   -6.20    4.80
   6 -11  -9   17.10   10.30
   6 -11  -9   28.40    8.30
   5 -11  -9   31.00    9.50
   5 -11  -9   29.20    8.70
   4 -11  -9   10.40    6.50
   3 -11  -9   78.69   10.30
   2 -11  -9   25.10    6.90
   1 -11  -9    7.50    5.60
   0 -11  -9  134.29   11.80
  -1 -11  -9  241.58   15.20
  -2 -11  -9   93.99   10.80
  -3 -11  -9   69.59    9.90
  -4 -11  -9  165.48   13.00
   5  11   9  111.89   10.50
   6  11   9   -1.90    4.30
   6  11   9    3.50    4.80
   7  11   9   61.89   10.00
   7  11   9   37.50    7.20
   8  11   9   64.39   10.50
   8  11   9   53.59    8.50
   9  11   9   -0.10    5.00
   9  11   9    2.60    6.10
  10  11   9   31.60    9.00
  10  11   9   24.70    7.40
   5 -12  -9    1.10    6.20
   4 -12  -9    3.70    6.20
   3 -12  -9   -2.40    5.00
   2 -12  -9   65.19   10.00
   1 -12  -9  203.28   14.90
   0 -12  -9   38.50    8.10
  -1 -12  -9    8.40    6.10
  -2 -12  -9   39.70    8.40
  -3 -12  -9   25.20    6.70
  -4 -12  -9   19.00    7.30
  -5 -12  -9   65.09   10.80
   5  12   9   60.19    9.20
  -6 -12  -9    2.40    5.80
   6  12   9    9.50    5.70
   7  12   9    3.40    5.40
   7  12   9   -1.00    4.90
   8  12   9   21.60    7.60
   8  12   9   17.80    6.10
   9  12   9    9.80    7.20
   9  12   9   12.90    6.60
   4 -13  -9   56.49   11.10
   3 -13  -9   27.90    8.10
   2 -13  -9    5.50    6.20
   1 -13  -9   34.60    8.50
   0 -13  -9   76.09   10.70
  -1 -13  -9   -4.20    4.80
  -2 -13  -9   78.49   11.10
  -3 -13  -9  135.59    8.50
  -3 -13  -9  145.69   13.40
  -4 -13  -9    0.90    5.40
  -5 -13  -9   34.80    8.80
   5  13   9   54.09    9.90
  -6 -13  -9  144.09   15.30
   6  13   9  144.49   13.90
  -7 -13  -9   21.50    8.40
   7  13   9   29.30    8.10
  -8 -13  -9    8.00    7.20
   8  13   9   14.50    7.60
   3 -14  -9   21.50    8.40
   2 -14  -9    4.90    7.00
   1 -14  -9   17.80    7.90
   0 -14  -9   83.39   12.10
  -1 -14  -9    4.30    6.40
  -2 -14  -9   33.00    8.30
  -3 -14  -9   83.99   12.00
  -4 -14  -9   13.50    7.70
  -5 -14  -9    3.30    6.50
  -6 -14  -9    5.40    7.20
   6  14   9   11.20    7.40
  -7 -14  -9    4.80    6.80
   7  14   9   13.10    7.60
  -8 -14  -9   -1.40    7.20
   8  14   9   -4.80    6.50
   1 -15  -9   -6.40    6.60
   0 -15  -9    7.60    7.00
  -1 -15  -9   10.50    6.70
  -2 -15  -9    4.70    6.70
  -3 -15  -9    2.60    5.90
  -4 -15  -9   29.90    9.20
  -5 -15  -9   51.29   10.40
  -6 -15  -9   -4.00    6.50
   6  15   9   -4.00    5.70
  -1 -16  -9    3.10    6.80
  -2 -16  -9   -5.20    6.20
  -3 -16  -9    0.50    6.70
  -4 -16  -9   32.30   10.00
   3   7 -10    8.40    6.60
   3   7 -10    1.70   10.30
   2   7 -10  -12.50    7.10
   2   7 -10    0.40    5.40
   1   7 -10   44.90    7.90
   1   7 -10   17.40   11.10
  -1  -7  10   30.10    4.70
   0   7 -10   -5.00    9.90
   0   7 -10    3.80    4.70
   0  -7  10    4.70    4.40
  -1   7 -10    5.70    9.40
   1  -7  10    2.70    4.70
  -2   7 -10   -6.20    9.20
   2  -7  10    9.50    5.30
  -3   7 -10   43.00   13.20
   3  -7  10   45.30    8.10
   4   6 -10    6.10    9.70
   4   6 -10   -7.60    6.60
   3   6 -10   45.30   12.90
   3   6 -10   53.29    9.90
   2   6 -10    0.60    7.90
   2   6 -10   50.89    9.10
   1   6 -10    3.50    7.90
   1   6 -10    8.40    4.70
  -1  -6  10    4.00    3.10
   0   6 -10   -3.40    3.70
   0   6 -10   -3.20    8.30
   0  -6  10   -2.80    3.40
  -1   6 -10   -8.40    8.20
   1  -6  10    1.70    4.70
  -2   6 -10   13.90    9.30
  -3   6 -10    2.10    8.70
   3  -6  10    2.20    4.90
  -4   6 -10   11.90   10.40
   4  -6  10   12.60    6.00
  -5   6 -10    5.30    8.60
   5  -6  10    0.30    5.20
   5   5 -10   49.40   10.60
   5   5 -10   43.30   13.40
   4   5 -10   -3.10    7.10
   4   5 -10   -2.40    5.70
   3   5 -10   35.00   11.60
   3   5 -10   33.60    8.40
   2   5 -10   46.10   12.70
   2   5 -10   73.19   10.00
  -2  -5  10   58.09    3.60
   1   5 -10    8.90    5.10
   1   5 -10   13.70    9.50
  -1  -5  10   -2.60    2.80
   0   5 -10   16.30    9.70
   0   5 -10   14.40    4.60
   0  -5  10   12.20    4.10
  -1   5 -10   30.10   11.10
   1  -5  10   25.70    5.40
  -2   5 -10   45.20   11.80
   2  -5  10   53.79    7.30
  -3   5 -10   -1.20    7.20
   3  -5  10    3.70    4.80
  -4   5 -10   50.49   14.20
   4  -5  10   30.90    6.90
  -5   5 -10   49.50   12.70
   5  -5  10   58.29    9.10
  -6   5 -10   15.30   10.10
   6  -5  10   29.80    8.10
   6   4 -10   -1.10    6.80
   6   4 -10    3.90    8.90
   5   4 -10   15.10   10.90
   5   4 -10   14.70    7.50
   4   4 -10   86.89   15.60
   4   4 -10  107.39   13.40
   3   4 -10    2.10    7.10
   2   4 -10   32.90    7.60
   2   4 -10   15.40    8.90
  -2  -4  10   23.30    2.60
   1   4 -10  311.37   17.10
   1   4 -10  325.97   24.70
   0   4 -10    9.00    7.70
   0   4 -10    5.20    4.10
   0  -4  10   11.00    3.70
  -1   4 -10   69.59    6.80
  -1   4 -10   69.19   13.10
   1  -4  10   75.19    7.30
  -2   4 -10   31.00   11.00
   2  -4  10   27.30    5.70
  -3   4 -10   74.59   13.70
   3  -4  10   86.69    9.00
  -4   4 -10   10.30    8.10
   4  -4  10    8.60    5.20
  -5   4 -10    0.00    7.00
   5  -4  10   -4.00    4.80
  -6   4 -10   11.10    9.60
   6  -4  10    1.00    5.80
  -7   4 -10    7.90   10.00
   7  -4  10    2.90    6.30
   7   3 -10   75.59   13.30
   6   3 -10   43.00   11.10
   5   3 -10  130.69   18.20
   5   3 -10  149.09   14.60
   4   3 -10  135.49   18.70
   4   3 -10  137.19   13.20
   3   3 -10  127.79   17.50
   3   3 -10  141.69   12.60
   2   3 -10    5.60    5.00
   2   3 -10  -12.30    6.00
  -2  -3  10    0.80    1.50
   1   3 -10   70.49    8.80
   1   3 -10   69.89   13.60
  -1  -3  10   63.29    4.90
   0   3 -10   30.10    5.80
   0   3 -10   20.10    9.30
   0  -3  10   35.70    4.80
  -1   3 -10   40.20   10.60
  -1   3 -10   36.40    5.10
   1  -3  10   36.80    5.50
  -2   3 -10   33.90    3.40
  -2   3 -10   22.90    9.50
   2  -3  10   39.80    5.90
  -3   3 -10   -3.10    6.10
   3  -3  10    6.10    4.30
  -4   3 -10   23.50    9.70
   4  -3  10   30.60    6.40
  -5   3 -10    8.60    8.90
   5  -3  10    6.50    5.30
  -6   3 -10   34.00   11.00
   6  -3  10   38.20    7.80
  -7   3 -10    0.40    8.60
   7  -3  10    6.50    6.30
  -8   3 -10    2.10    7.90
   8  -3  10   -6.10    5.40
   7   2 -10   67.19   13.00
   6   2 -10   48.10   10.60
   5   2 -10   49.99   10.50
   4   2 -10   10.70    6.50
   3   2 -10  176.58   18.00
   3   2 -10  154.68   13.00
   2   2 -10   55.09    3.60
   2   2 -10   58.09   12.20
   2   2 -10   49.40    8.00
  -2  -2  10   51.89    3.40
   1   2 -10    6.90    6.20
   1   2 -10   -6.70    3.20
  -1  -2  10    1.50    2.00
   0   2 -10  186.18   11.30
   0   2 -10  209.88   18.20
   0  -2  10  173.58    9.00
  -1   2 -10   99.19    7.60
  -1   2 -10   89.59   13.90
   1  -2  10   86.89    7.00
  -2   2 -10   34.80    3.90
  -2   2 -10   52.39   11.20
   2  -2  10   45.50    5.90
  -3   2 -10   12.80    8.20
   3  -2  10    0.30    3.70
  -4   2 -10   28.20    9.60
   4  -2  10   28.50    6.00
  -5   2 -10    2.10    7.30
   5  -2  10    5.10    5.10
  -6   2 -10    0.60    7.60
   6  -2  10   11.10    5.90
  -7   2 -10   -0.10    7.40
   7  -2  10   -2.50    5.20
  -8   2 -10    1.50    8.00
   8  -2  10   18.80    7.60
   7   1 -10   16.50    8.50
   6   1 -10  120.59   15.30
   5   1 -10   87.29   12.50
   4   1 -10    0.20    5.30
   3   1 -10  113.29   12.50
   2   1 -10   78.69    9.70
   2   1 -10   81.19    4.40
   2   1 -10   98.29   14.40
   1   1 -10   -2.80    2.20
   1   1 -10    3.50    4.00
  -1  -1  10    2.30    2.10
   0   1 -10  393.96   24.00
   0   1 -10  383.76   17.60
   0  -1  10  391.66   15.30
  -1   1 -10  492.05   29.30
   1  -1  10  622.74   21.70
  -2   1 -10   57.39    5.00
  -2   1 -10   61.49   11.80
   2  -1  10   68.99    7.00
  -3   1 -10   -3.90    5.00
   3  -1  10   -0.10    3.50
   4  -1  10  215.08   12.60
  -5   1 -10   87.29   13.60
   5  -1  10   57.89    8.20
  -6   1 -10    9.00    7.40
   6  -1  10    2.80    4.90
  -7   1 -10   -8.30    6.30
   7  -1  10    6.30    5.70
  -8   1 -10   14.60    8.80
   8  -1  10   19.00    7.10
   9  -1  10   13.40    7.20
   8   0 -10   19.40    9.80
   7   0 -10    2.00    6.90
   6   0 -10   35.30    9.90
   5   0 -10  223.58   17.20
   4   0 -10  123.09   13.90
   3   0 -10  128.99   11.80
   2   0 -10  268.87   15.60
   2   0 -10  247.48   10.40
   1   0 -10   66.29    8.30
   1   0 -10   75.29   12.10
  -1   0  10   65.39    4.80
   0   0 -10  186.28   11.30
   0   0 -10  211.58   16.70
   0   0  10  189.08    9.20
  -1   0 -10  514.45   27.30
  -1   0 -10  521.05   20.10
   1   0  10  460.25   18.80
  -2   0 -10  353.26   23.00
  -2   0 -10  397.06   15.50
   2   0  10  391.26   16.40
  -3   0 -10   76.69    4.30
  -3   0 -10   78.29    4.60
  -3   0 -10   78.79   12.40
   3   0  10   84.39    7.30
  -4   0 -10   -2.90    5.60
   4   0  10    4.90    3.80
  -5   0 -10   95.49   13.10
   5   0  10  119.19   10.80
   6   0  10    6.10    4.40
  -7   0 -10    1.80    7.00
   7   0  10   -3.10    4.60
  -8   0 -10   17.00    8.80
   8   0  10   28.70    7.40
   9   0  10   37.20    8.60
   8  -1 -10   11.80    8.80
   7  -1 -10   64.89   13.00
   6  -1 -10   12.90    7.00
   5  -1 -10    5.30    5.50
   4  -1 -10   51.69    9.90
   3  -1 -10  273.17   10.10
   3  -1 -10  291.07   10.70
   3  -1 -10  277.47   17.30
   2  -1 -10   83.49   10.20
   2  -1 -10   89.09    5.10
   2  -1 -10   95.29    6.10
   1  -1 -10   26.30    5.90
  -1   1  10   14.20    2.90
   0  -1 -10    4.50    3.70
   0  -1 -10    0.60    5.10
   0   1  10   -3.50    2.00
  -1  -1 -10  187.78   15.40
  -1  -1 -10  167.98   10.00
   1   1  10  163.88    9.00
  -2  -1 -10   43.50    5.30
  -2  -1 -10   45.70    9.80
   2   1  10   51.79    6.00
  -3  -1 -10  206.68    9.40
  -3  -1 -10  207.48    9.80
  -3  -1 -10  227.98   16.80
   3   1  10  196.38   11.40
  -4  -1 -10   -1.10    5.10
   4   1  10    0.40    3.60
  -5  -1 -10    4.20    5.60
   5   1  10    7.50    4.30
  -6  -1 -10    6.20    6.80
   6   1  10    4.80    4.70
  -7  -1 -10  131.69   14.10
   7   1  10  113.19   10.90
  -8  -1 -10   54.59   10.80
   8   1  10   39.60    7.60
   9   1  10    3.80    5.80
  10   1  10    4.00    5.80
   8  -2 -10    1.00    7.60
   7  -2 -10  121.09   15.90
   6  -2 -10  168.68   16.10
   5  -2 -10   28.00    2.60
   5  -2 -10   26.00    2.70
   5  -2 -10   29.70    8.70
   4  -2 -10  230.88   16.90
   4  -2 -10  239.58    9.50
   3  -2 -10  494.75   17.40
   3  -2 -10  519.45   18.40
   3  -2 -10  517.25   24.80
   2  -2 -10  109.49   10.50
   2  -2 -10  125.29    7.40
   1  -2 -10   61.69    8.40
  -1   2  10   48.70    4.60
   0  -2 -10  362.36   17.30
   0   2  10  366.36   14.70
  -1  -2 -10  113.89   11.70
  -1  -2 -10  105.49    8.30
   1   2  10  121.49    7.50
  -2  -2 -10  242.58   16.40
   2   2  10  230.78   11.50
  -3  -2 -10   63.29    5.10
  -3  -2 -10   68.69    5.60
  -3  -2 -10   72.29   11.00
   3   2  10   63.19    6.70
  -4  -2 -10   79.29    5.60
  -4  -2 -10   82.19   11.30
  -4  -2 -10   78.89    5.60
   4   2  10   89.99    7.80
  -5  -2 -10    0.50    1.80
  -5  -2 -10    2.60    1.90
  -5  -2 -10   -5.40    4.40
   5   2  10   -4.90    2.90
  -6  -2 -10  648.84   30.70
   6   2  10  725.23   28.20
  -7  -2 -10   38.90    9.20
   7   2  10   54.59    8.40
   8   2  10   35.10    7.60
   9   2  10    5.40    5.90
  10   2  10    4.90    6.50
   8  -3 -10   -4.00    5.90
   7  -3 -10   10.70    2.90
   7  -3 -10   14.20    8.40
   6  -3 -10  137.49   16.20
   6  -3 -10  149.19    7.40
   5  -3 -10   74.09    5.50
   5  -3 -10   86.79   12.20
   4  -3 -10    6.80    6.10
   4  -3 -10   12.70    3.30
   3  -3 -10  141.59   12.30
   2  -3 -10  199.28   10.30
   2  -3 -10  234.18   14.80
   1  -3 -10    1.90    4.00
   1  -3 -10    2.90    2.90
   0  -3 -10  243.18   13.70
   0   3  10  215.58   10.50
  -1  -3 -10  359.86   16.90
  -1  -3 -10  348.17   20.40
   1   3  10  369.46   15.20
  -2  -3 -10   30.30    7.50
   2   3  10   28.50    4.60
  -3  -3 -10   87.09   11.00
   3   3  10   71.79    6.90
  -4  -3 -10  190.08   13.80
  -4  -3 -10  159.38    8.70
   4   3  10  169.98   10.50
  -5  -3 -10   76.79   10.20
  -5  -3 -10   88.19    6.20
   5   3  10   78.19    7.60
  -6  -3 -10  181.58    9.00
  -6  -3 -10  167.28   13.10
   6   3  10  158.88   13.20
  -7  -3 -10    4.60    5.00
   7   3  10    0.40    4.00
   8   3  10  -10.30    4.40
   9   3  10    4.10    5.70
  10   3  10   -2.70    5.90
   8  -4 -10   46.90   11.80
   8  -4 -10   37.70    5.20
   7  -4 -10   10.10    7.30
   7  -4 -10    8.30    3.40
   6  -4 -10   49.70    9.70
   6  -4 -10   42.70    5.20
   5  -4 -10  146.89   14.40
   5  -4 -10  111.49    7.70
   4  -4 -10   30.50    8.20
   4  -4 -10   24.70    4.60
   3  -4 -10   39.60    5.30
   3  -4 -10   47.80    9.20
   2  -4 -10  215.38   14.80
   2  -4 -10  214.08   11.30
   1  -4 -10  217.88   11.50
   1  -4 -10  217.68   14.10
   0  -4 -10    0.10    3.40
   0   4  10    1.60    2.70
   1   4  10  237.98   11.40
  -2  -4 -10  481.55   23.60
   2   4  10  475.55   19.20
  -3  -4 -10  267.17   16.30
   3   4  10  293.97   13.70
  -4  -4 -10   20.30    5.70
   4   4  10   22.30    5.00
  -5  -4 -10   63.09    8.80
   5   4  10   81.29    8.70
  -6  -4 -10   16.70    5.40
  -7  -4 -10  126.39   10.90
   7   4  10  120.39   10.50
   8   4  10   59.09    8.80
   9   4  10    5.50    6.00
  10   4  10    5.80    6.60
  10   4  10   11.00    3.70
   8  -5 -10   21.50   10.30
   8  -5 -10   29.80    5.60
   7  -5 -10   64.99    7.00
   7  -5 -10   66.69   13.20
   6  -5 -10   -4.30    5.40
   6  -5 -10   -3.10    3.30
   5  -5 -10   79.29   12.20
   5  -5 -10   96.09    7.90
   4  -5 -10  450.85   18.50
   4  -5 -10  426.46   23.90
   3  -5 -10  165.18   10.00
   3  -5 -10  168.78   14.30
   2  -5 -10  178.18   13.90
   2  -5 -10  190.58   11.10
   1  -5 -10  854.01   31.30
   1   5  10   89.69    7.10
  -2  -5 -10  330.57   17.80
   2   5  10  309.67   14.40
  -3  -5 -10   36.50    6.90
   3   5  10   28.40    5.10
  -4  -5 -10  123.79   10.30
   4   5  10  144.79    9.60
  -5  -5 -10   21.90    5.60
   5   5  10   37.10    6.10
  -6  -5 -10   65.79    8.10
  -7  -5 -10    4.70    4.60
   7   5  10    4.00    4.50
   8   5  10   -3.30    4.40
   9   5  10   20.60    6.20
   9   5  10   26.50    5.20
  10   5  10    8.40    4.30
  10   5  10    4.00    6.00
   7  -6 -10   12.30    8.70
   7  -6 -10   55.39    7.20
   6  -6 -10   85.99    9.00
   6  -6 -10   64.09   12.10
   5  -6 -10  111.19   15.10
   5  -6 -10  127.89    9.70
   4  -6 -10   21.30    7.70
   4  -6 -10   20.50    5.10
   3  -6 -10  123.29   16.20
   3  -6 -10  114.09    9.10
   2  -6 -10   11.80    4.50
   1  -6 -10  328.97   15.90
   0  -6 -10    9.80    4.40
   1   6  10   23.20    4.50
   2   6  10   72.29    6.80
  -3  -6 -10  269.07   14.90
   3   6  10  255.97   13.00
  -4  -6 -10  171.48   11.20
   4   6  10  156.08   10.50
   5   6  10   38.50    6.50
   6   6  10  246.78   14.10
   7   6  10   62.99    8.30
   8   6  10   -1.60    4.10
   8   6  10    4.10    3.90
   9   6  10   -4.00    4.80
   9   6  10   -4.40    3.40
  10   6  10    4.30    4.40
  10   6  10    9.90    6.60
   7  -7 -10    7.70    5.60
   7  -7 -10   13.20    9.20
   6  -7 -10   55.59    8.30
   6  -7 -10   60.49   12.40
   5  -7 -10  107.99   14.60
   5  -7 -10   94.09    9.80
   4  -7 -10    0.70    6.00
   4  -7 -10    2.50    4.50
   3  -7 -10   72.79    8.50
   3  -7 -10   90.69   12.80
   2  -7 -10   31.20    6.00
   1  -7 -10    8.70    4.70
   0  -7 -10 2838.22   91.59
  -1  -7 -10  775.52   30.70
   2   7  10   14.00    4.20
  -3  -7 -10  170.78   11.30
   3   7  10  160.38   10.30
  -4  -7 -10  434.96   19.10
   4   7  10  460.45   19.80
  -5  -7 -10    1.80    2.80
   5   7  10   -0.40    3.70
  -6  -7 -10  229.28   11.10
   6   7  10  239.48   14.00
   7   7  10  447.46   19.90
   7   7  10  430.56   20.80
   8   7  10  129.69   10.00
   8   7  10  113.89   10.30
   9   7  10   -0.90    4.90
   9   7  10    2.40    4.40
  10   7  10    3.60    4.70
  10   7  10   -3.40    5.30
   7  -8 -10    2.10    8.00
   7  -8 -10  -11.90    5.00
   6  -8 -10   27.20   10.70
   6  -8 -10   31.50    7.10
   5  -8 -10  107.69   14.80
   4  -8 -10   28.80    6.60
   4  -8 -10   27.40    8.30
   3  -8 -10   28.10    6.40
   2  -8 -10  204.08   13.10
   1  -8 -10   35.70    6.70
   0  -8 -10  101.29   10.60
  -1  -8 -10   55.99    7.90
  -3  -8 -10   23.20    5.10
   3   8  10   25.70    5.40
  -4  -8 -10   17.80    4.30
   4   8  10   24.70    5.10
  -5  -8 -10    4.30    2.40
   6   8  10   68.79    8.30
   7   8  10   62.09    8.20
   7   8  10   54.59    7.80
   8   8  10  101.79    9.60
   8   8  10   86.79   10.00
   9   8  10    5.30    5.80
   9   8  10    5.00    4.80
  10   8  10    8.60    6.10
  10   8  10   20.00    6.90
   6  -9 -10   12.20    8.10
   6  -9 -10    4.20    5.70
   5  -9 -10   82.19   10.30
   5  -9 -10   61.59   12.60
   4  -9 -10   92.89   13.60
   4  -9 -10  111.09   10.80
   2  -9 -10   10.30    5.50
   1  -9 -10  237.28   14.80
   0  -9 -10    7.80    5.00
  -1  -9 -10   52.19    8.30
  -2  -9 -10  253.07   15.70
   3   9  10  220.28   12.90
  -4  -9 -10   53.99    5.50
   5   9  10    5.40    4.30
   6   9  10    2.50    3.70
   6   9  10    4.90    4.70
   7   9  10   55.59    8.20
   7   9  10   67.89    8.70
   8   9  10   41.30    7.80
   8   9  10   17.10    6.80
   9   9  10   29.00    7.30
   9   9  10   43.10    8.30
  10   9  10   -2.60    5.40
  10   9  10    8.10    5.80
   6 -10 -10   -5.00    5.40
   6 -10 -10   11.10    9.40
   5 -10 -10    4.70    7.70
   5 -10 -10    9.70    6.30
   4 -10 -10   77.49   10.50
   3 -10 -10   64.29    9.40
   2 -10 -10   15.00    6.00
   1 -10 -10  155.08   12.30
  -2 -10 -10  199.18   24.00
  -3 -10 -10  329.17   19.10
  -4 -10 -10   37.10    4.10
   4  10  10   35.80    6.70
   5  10  10   82.29    9.50
   6  10  10   89.99    9.70
   6  10  10   69.39   11.40
   7  10  10   85.79   10.60
   7  10  10  114.39   10.50
   8  10  10   -2.30    4.50
   8  10  10   -2.70    4.80
   9  10  10    3.90    5.60
   9  10  10    0.30    5.30
  10  10  10    1.80    5.50
  10  10  10    7.00    6.60
   5 -11 -10    3.70    6.10
   5 -11 -10   -5.30    6.80
   4 -11 -10   10.80    6.40
   3 -11 -10  129.39   13.50
   2 -11 -10   12.20    6.20
   1 -11 -10   10.50    5.80
   0 -11 -10  127.69   12.00
  -1 -11 -10   80.79   10.30
  -2 -11 -10   23.70    7.20
  -3 -11 -10   31.50    7.70
  -4 -11 -10   74.19   10.90
   5  11  10   -0.30    3.70
   6  11  10  153.78   12.10
   6  11  10  143.19   12.80
   7  11  10   -1.20    4.60
   7  11  10    7.20    5.50
   8  11  10    3.30    5.60
   8  11  10    6.70    5.30
   9  11  10   22.20    7.80
   9  11  10   17.10    6.70
   4 -12 -10    4.30    6.00
   3 -12 -10   19.30    7.50
   2 -12 -10  101.79   12.30
   1 -12 -10   34.30    8.50
   0 -12 -10   41.70    8.30
  -1 -12 -10  268.47   17.50
  -2 -12 -10  168.18   14.00
  -3 -12 -10    8.50    3.30
  -3 -12 -10    5.10    5.60
  -4 -12 -10   78.69   11.30
  -5 -12 -10   35.80    8.90
   6  12  10   19.50    6.50
   7  12  10   95.99   12.30
   7  12  10   90.49   10.50
   8  12  10   19.70    7.10
   8  12  10   20.60    7.00
   9  12  10    0.40    5.40
   9  12  10   -0.50    6.20
   3 -13 -10   14.00    7.90
   2 -13 -10   27.00    8.70
   1 -13 -10   59.89   10.10
   0 -13 -10   -4.30    5.70
  -1 -13 -10   12.90    6.90
  -2 -13 -10  100.19   12.10
  -3 -13 -10   -1.70    4.10
  -3 -13 -10   -0.90    4.80
  -4 -13 -10   64.09   10.10
  -5 -13 -10  122.19   14.00
  -6 -13 -10   41.00    9.80
   6  13  10   26.30    7.50
  -7 -13 -10    2.10    7.00
   7  13  10    9.30    6.60
   8  13  10   41.90    9.50
   2 -14 -10    2.30    6.00
   1 -14 -10   18.90    7.00
   0 -14 -10   20.70    8.00
  -1 -14 -10   11.50    6.80
  -2 -14 -10   46.20    9.20
  -3 -14 -10   18.90    7.20
  -4 -14 -10   -2.50    5.80
  -5 -14 -10   49.30   10.40
  -6 -14 -10   38.30    9.70
  -7 -14 -10    6.20    7.80
   7  14  10   14.10    7.90
   1 -15 -10    8.10    7.90
   0 -15 -10   11.50    7.50
  -1 -15 -10   76.79   12.20
  -2 -15 -10    6.80    6.50
  -3 -15 -10    8.60    7.00
  -4 -15 -10    5.40    7.00
  -5 -15 -10    3.60    8.00
  -6 -15 -10   62.19   12.40
   2   6 -11    0.50   10.30
   2   6 -11    0.90    5.70
   1   6 -11   -0.90    5.30
   1   6 -11   13.40   10.10
   0   6 -11   22.30    5.70
   0   6 -11   17.80   11.70
   0  -6  11   26.10    5.50
  -1   6 -11  -11.30    7.30
   1  -6  11    0.50    4.20
  -2   6 -11   -2.90    8.40
   2  -6  11    0.00    5.00
   3  -6  11    4.70    5.40
   4   5 -11   10.60    7.30
   4   5 -11    8.30    9.20
   3   5 -11   38.40   12.40
   3   5 -11   21.90    7.80
   2   5 -11   30.90   11.50
   1   5 -11    7.40   10.40
   1   5 -11    4.50    5.00
  -1  -5  11    9.50    3.10
   0   5 -11   -1.30    7.30
   0   5 -11   13.20    4.70
   0  -5  11    3.30    3.90
  -1   5 -11   11.80   10.90
   1  -5  11   40.30    6.30
  -2   5 -11   28.30   10.80
  -3   5 -11   24.10   10.50
   3  -5  11   22.30    6.30
  -4   5 -11   46.50   13.90
   4  -5  11   38.40    8.00
   5   4 -11   69.69   16.60
   5   4 -11   88.49   14.30
   4   4 -11    1.90    9.90
   4   4 -11   11.40    7.70
   3   4 -11    3.20    6.00
   3   4 -11   10.90    9.10
   2   4 -11   73.09   14.90
   2   4 -11   96.89   11.50
   1   4 -11   49.20    8.20
   1   4 -11   51.39   12.40
  -1  -4  11   61.09    6.40
   0   4 -11   28.70    6.20
   0   4 -11   39.10   11.50
   0  -4  11   34.80    5.30
  -1   4 -11   35.90   11.50
   1  -4  11   45.40    6.10
  -2   4 -11   15.10    9.40
   2  -4  11    7.10    4.80
  -3   4 -11    3.90    8.50
   3  -4  11   13.20    5.10
  -4   4 -11   -1.70    7.70
   4  -4  11   -4.30    4.90
  -5   4 -11   -2.60    8.40
   5  -4  11    1.20    5.10
  -6   4 -11    0.90    8.80
   6  -4  11   -5.90    5.60
   5   3 -11   71.09   15.00
   5   3 -11   64.69   11.60
   4   3 -11   48.50   13.70
   4   3 -11   55.99   10.20
   3   3 -11   -0.40    5.50
   3   3 -11   -0.40    8.40
   2   3 -11  153.08   13.20
   2   3 -11  168.58   17.90
   1   3 -11    9.30    9.00
   1   3 -11    7.70    5.00
   0   3 -11   96.79   16.00
   0   3 -11  100.79    9.20
   0  -3  11  101.09    7.30
  -1   3 -11   -0.60    6.80
  -1   3 -11    1.40    3.30
   1  -3  11    2.50    3.70
  -2   3 -11   14.10    9.00
  -2   3 -11   16.50    2.60
   2  -3  11   19.50    5.20
  -3   3 -11   -6.00    6.20
   3  -3  11    0.00    4.30
  -4   3 -11   -5.10    7.10
   4  -3  11    1.00    4.60
  -5   3 -11   26.60   11.40
   5  -3  11   22.50    6.70
  -6   3 -11   -1.70    8.70
   6  -3  11    5.70    6.50
  -7   3 -11   13.60   10.60
   7  -3  11   11.90    6.80
   6   2 -11   -6.90    6.90
   5   2 -11   37.20    9.90
   4   2 -11   93.79   16.20
   4   2 -11  110.29   13.30
   3   2 -11  122.29   17.70
   3   2 -11  127.79   13.00
   2   2 -11    8.50    7.70
   2   2 -11   28.20    7.00
   1   2 -11  331.37   23.90
   1   2 -11  275.97   16.30
  -1  -2  11  304.97   13.30
   0   2 -11   16.20    5.20
   0   2 -11   24.90    9.30
   0  -2  11   17.60    3.80
  -1   2 -11   16.30    9.50
  -1   2 -11   10.10    3.70
   1  -2  11    8.10    4.00
  -2   2 -11  131.39    7.00
  -2   2 -11   98.69   15.40
   2  -2  11  135.19    9.40
  -3   2 -11  212.58   20.00
   3  -2  11  201.28   12.20
  -4   2 -11   10.70    8.50
   4  -2  11   11.10    5.70
  -5   2 -11    1.40    6.80
   5  -2  11    6.30    5.40
  -6   2 -11  -10.10    6.70
   6  -2  11   -1.70    5.20
  -7   2 -11   15.30    9.90
   7  -2  11    3.50    6.00
   6   1 -11   64.69   12.40
   5   1 -11   -4.80    5.90
   4   1 -11  129.39   13.40
   3   1 -11   87.29   14.10
   2   1 -11   -4.50    4.30
   2   1 -11   -0.30    2.00
   2   1 -11    3.40    7.10
   2   1 -11    4.80    1.80
   1   1 -11   65.39   13.00
   1   1 -11   87.49    9.70
  -1  -1  11   80.69    8.60
   0   1 -11  201.68   18.30
   0   1 -11  189.78   11.90
   0  -1  11  177.08    9.30
  -1   1 -11   11.20    3.90
  -1   1 -11   19.00    9.30
   1  -1  11   10.40    3.60
  -2   1 -11   81.09    6.10
  -2   1 -11   88.69   14.80
   2  -1  11   72.29    7.50
  -3   1 -11  372.06   24.70
   3  -1  11  390.76   17.70
  -4   1 -11  196.18   17.80
  -5   1 -11   11.70    8.40
   5  -1  11    6.30    5.30
  -6   1 -11   -3.40    7.10
   6  -1  11    2.70    5.00
  -7   1 -11   20.90   10.00
   7  -1  11    6.30    6.10
  -8   1 -11    1.00    8.40
   8  -1  11   10.40    6.90
   7   0 -11    7.30    7.80
   6   0 -11    8.10    8.00
   5   0 -11   26.80    9.00
   4   0 -11    0.30    5.90
   3   0 -11  105.89   13.80
   2   0 -11  278.17   16.60
   2   0 -11  269.07   11.20
   2   0 -11  272.97   20.80
   2   0 -11  280.47   11.30
   1   0 -11   61.99    8.60
   1   0 -11   62.09   12.70
   0   0 -11   23.80    9.10
   0   0 -11   17.70    5.00
   0   0  11   23.40    4.00
  -1   0 -11    4.60    3.50
   1   0  11    4.70    3.30
  -2   0 -11   84.49    6.60
   2   0  11   80.99    7.30
  -3   0 -11  103.19    5.40
  -3   0 -11  108.19    5.70
   3   0  11  109.79    8.80
  -4   0 -11   97.39   14.70
   4   0  11   94.49    8.80
  -5   0 -11   52.79   11.40
   5   0  11   42.60    7.10
  -6   0 -11    3.20    7.20
   6   0  11    4.20    5.10
  -7   0 -11    9.00    7.60
   7   0  11    7.60    5.90
  -8   0 -11    8.20    8.20
   8   0  11   10.10    6.30
   9   0  11   -4.30    5.60
   7  -1 -11   91.89   14.80
   6  -1 -11   10.40    6.80
   5  -1 -11  101.29   13.50
   4  -1 -11  146.69   14.10
   3  -1 -11   38.20    3.50
   3  -1 -11   21.90    2.60
   3  -1 -11   26.60    8.00
   2  -1 -11   16.80    2.80
   2  -1 -11   16.50    6.40
   2  -1 -11   23.90    3.80
   1  -1 -11  196.38   19.40
   1  -1 -11  184.48   12.60
  -1   1  11  178.88    8.80
   0  -1 -11  160.58   16.30
   0  -1 -11  167.58   11.20
   0   1  11  149.88    8.50
  -1  -1 -11    7.70    6.10
  -1  -1 -11    7.50    3.70
   1   1  11   11.50    3.60
  -2  -1 -11  120.59   15.40
   2   1  11  126.79    8.70
  -3  -1 -11   -1.40    2.20
  -3  -1 -11    7.70    2.40
  -3  -1 -11  -11.90    4.70
   3   1  11    2.30    3.70
  -4  -1 -11    4.00    6.10
   4   1  11   -1.10    3.90
  -5  -1 -11   13.50    7.40
   5   1  11   14.60    5.40
   6   1  11   17.30    5.80
  -7  -1 -11   31.10    9.40
   7   1  11   22.00    6.70
  -8  -1 -11  -12.10    6.30
   8   1  11    4.10    6.00
   9   1  11   -1.60    5.70
   7  -2 -11   26.20    8.80
   6  -2 -11    6.80    7.20
   5  -2 -11   48.70   10.20
   4  -2 -11  436.46   24.70
   4  -2 -11  458.45   15.40
   4  -2 -11  461.85   15.70
   3  -2 -11    6.70    2.80
   3  -2 -11    6.50    2.40
   2  -2 -11  200.58   14.50
   1  -2 -11  351.66   18.60
  -1   2  11  361.06   14.30
   0  -2 -11   98.49   13.70
   0  -2 -11   85.79    8.60
   0   2  11  106.49    6.90
  -1  -2 -11  106.09    8.50
  -1  -2 -11  109.29   13.70
   1   2  11   98.69    7.30
  -2  -2 -11  258.07   12.60
  -2  -2 -11  242.88   18.10
   2   2  11  237.38   12.10
  -3  -2 -11  175.68   11.90
  -3  -2 -11  169.08    9.40
  -3  -2 -11  187.18   15.20
   3   2  11  194.78   11.30
  -4  -2 -11    1.10    5.90
  -4  -2 -11   -3.50    2.00
   4   2  11    7.70    4.00
  -5  -2 -11  203.48   16.50
   5   2  11  203.28   19.00
  -6  -2 -11   12.10    7.80
   6   2  11   10.20    5.20
  -7  -2 -11  229.88   18.30
   7   2  11  248.38   15.60
  -8  -2 -11    1.70    6.70
   8   2  11   -0.10    5.40
   9   2  11    7.20    6.60
   7  -3 -11   58.49   12.90
   6  -3 -11   48.40   10.70
   6  -3 -11   48.90    3.90
   5  -3 -11   13.50    7.00
   5  -3 -11   13.50    3.00
   4  -3 -11   83.59   11.40
   4  -3 -11   81.59    5.90
   3  -3 -11  276.57   12.50
   3  -3 -11  297.87   27.60
   2  -3 -11   45.50    8.00
   2  -3 -11   45.20    5.70
   1  -3 -11   17.30    5.80
   1  -3 -11   26.20    4.90
   0  -3 -11  206.28   13.50
   0   3  11  225.08   10.70
  -1  -3 -11   63.49   10.70
  -1  -3 -11   55.89    7.60
   1   3  11   64.59    6.60
  -2  -3 -11    2.00    3.20
  -2  -3 -11    1.00    5.30
   2   3  11   -1.30    2.80
  -3  -3 -11  149.19   13.50
  -3  -3 -11  136.99    8.80
   3   3  11  108.09    8.60
  -4  -3 -11   66.79   10.50
   4   3  11   49.80    6.80
  -5  -3 -11    3.60    2.80
  -5  -3 -11   -1.80    5.10
   5   3  11   -2.20    6.10
  -6  -3 -11   -2.90    2.50
  -6  -3 -11   -2.10    5.50
   6   3  11    3.90    4.90
  -7  -3 -11   -0.70    5.20
   7   3  11    2.20    5.20
  -8  -3 -11   -2.70    5.60
   8   3  11   -0.50    5.00
   9   3  11    0.00    5.80
  10   3  11   13.70    7.70
   7  -4 -11   12.40    3.40
   7  -4 -11   15.40    8.40
   6  -4 -11  125.99    7.70
   6  -4 -11  152.08   18.10
   5  -4 -11  128.69    7.90
   5  -4 -11  110.29   14.20
   4  -4 -11   -7.90    4.90
   4  -4 -11   -2.30    3.00
   3  -4 -11  280.27   18.60
   3  -4 -11  287.27   13.40
   2  -4 -11  398.66   21.40
   2  -4 -11  365.06   16.50
   1  -4 -11   17.70    4.50
   1  -4 -11   13.80    5.80
   0  -4 -11  113.09   10.30
   0   4  11  114.99    7.70
  -1  -4 -11  454.95   20.90
  -1  -4 -11  470.45   24.40
   1   4  11  459.05   18.70
  -2  -4 -11   48.50    9.30
   2   4  11   68.39    7.10
  -3  -4 -11   64.29   10.00
   3   4  11   53.89    6.90
  -4  -4 -11  131.39   12.50
   4   4  11  128.49    9.50
  -5  -4 -11   24.80    6.80
   5   4  11   27.00    6.80
  -6  -4 -11   15.70    6.20
   6   4  11   28.80    6.50
  -7  -4 -11    3.90    5.50
   7   4  11    5.80    4.90
   8   4  11    5.00    5.00
   9   4  11   25.60    7.20
  10   4  11   19.00    7.60
   7  -5 -11    9.00    4.10
   7  -5 -11    3.80    7.50
   6  -5 -11   30.30    5.10
   6  -5 -11   27.80    9.60
   5  -5 -11  173.38   17.00
   5  -5 -11  193.58   10.90
   4  -5 -11   24.80    5.00
   4  -5 -11   12.60    6.90
   3  -5 -11   65.69   10.90
   3  -5 -11   61.79    7.10
   2  -5 -11  480.85   24.30
   2  -5 -11  444.36   19.60
   1  -5 -11  277.57   16.90
   1  -5 -11  264.17   14.00
   1   5  11  447.26   18.60
  -2  -5 -11  199.28   14.80
   2   5  11  190.08   10.80
  -3  -5 -11    1.90    4.40
   3   5  11   -1.40    3.10
  -4  -5 -11  177.58   13.70
   4   5  11  201.58   11.80
  -5  -5 -11   97.79   11.20
  -6  -5 -11   16.90    6.00
   6   5  11   13.10    5.30
  -7  -5 -11   10.40    5.30
   7   5  11    0.40    4.60
   8   5  11  154.78   12.70
   9   5  11  139.49   12.70
  10   5  11   14.90    7.30
   7  -6 -11   15.40    5.40
   7  -6 -11   22.20   10.10
   6  -6 -11    7.40    4.30
   6  -6 -11    9.10    7.70
   5  -6 -11   73.69    8.20
   5  -6 -11   45.90   10.80
   4  -6 -11  137.09   10.00
   4  -6 -11  128.69   15.50
   3  -6 -11   40.30    9.30
   3  -6 -11   19.40    5.40
   2  -6 -11    8.00    4.50
   1  -6 -11   47.00    7.10
   0  -6 -11   68.49    8.50
   1   6  11  150.18    9.50
  -2  -6 -11  345.47   19.10
   2   6  11  344.07   15.90
  -3  -6 -11  213.68   14.20
   3   6  11  198.38   11.50
  -4  -6 -11   23.00    6.20
   4   6  11   31.70    6.10
  -5  -6 -11  173.78   12.00
   5   6  11  165.68   13.00
  -6  -6 -11  101.29    9.30
   6   6  11  102.49    9.20
  -7  -6 -11    5.90    4.40
   7   6  11    8.70    5.30
   8   6  11   38.40    8.10
   9   6  11   45.00    8.60
  10   6  11   15.60    6.80
   6  -7 -11   21.00    9.00
   6  -7 -11   27.50    6.40
   5  -7 -11    5.70    7.40
   5  -7 -11   -7.10    3.90
   4  -7 -11  210.88   17.90
   4  -7 -11  219.68   13.40
   3  -7 -11  247.78   18.60
   3  -7 -11  239.28   14.00
   2  -7 -11    5.80    4.50
   1  -7 -11  652.93   26.90
   0  -7 -11  376.16   18.50
   2   7  11  135.19    9.70
  -3  -7 -11  516.75   23.40
   3   7  11  478.85   21.00
  -4  -7 -11    1.00    4.20
   4   7  11    1.40    3.90
  -5  -7 -11    1.60    3.50
   5   7  11    4.70    4.20
  -6  -7 -11   -3.10    3.80
   6   7  11    6.60    4.50
   7   7  11    7.60    5.30
   8   7  11   44.10    7.80
   9   7  11  140.09   12.70
   9   7  11  142.89   11.00
  10   7  11   53.19    9.40
  10   7  11   46.30    7.40
   6  -8 -11   66.69    9.00
   6  -8 -11   60.49   12.70
   5  -8 -11   17.80    6.10
   5  -8 -11    6.50    8.20
   4  -8 -11   31.40    7.00
   4  -8 -11   53.09   11.70
   3  -8 -11  157.08   15.40
   3  -8 -11  144.49   11.60
   2  -8 -11  139.79   11.00
   1  -8 -11   21.60    6.10
   0  -8 -11   18.70    5.80
  -1  -8 -11   58.39    8.50
   2   8  11   14.00    4.80
  -3  -8 -11    1.70    4.70
   3   8  11    3.50    4.00
   4   8  11  116.19   12.60
  -5  -8 -11   17.20    4.40
   5   8  11   17.10    5.30
  -6  -8 -11    3.80    3.00
   6   8  11    3.00    4.40
   7   8  11    2.50    4.50
   8   8  11   27.10    7.30
   9   8  11    3.20    5.60
   9   8  11    7.20    5.00
  10   8  11   15.70    6.80
  10   8  11   16.50    5.90
   6  -9 -11   -1.40    5.40
   6  -9 -11   19.40   10.30
   5  -9 -11   67.99   13.00
   5  -9 -11   69.89    9.80
   4  -9 -11   27.60    7.20
   4  -9 -11   12.60    7.50
   3  -9 -11   54.69    8.50
   1  -9 -11   94.99   10.60
   0  -9 -11   25.70    6.40
  -1  -9 -11  363.46   19.10
  -2  -9 -11   99.69   16.60
  -3  -9 -11   63.79    8.30
   3   9  11   52.69    7.60
  -4  -9 -11  219.08   12.20
   4   9  11  231.58   13.50
  -5  -9 -11  204.08    9.70
   5   9  11  206.58   13.00
   6   9  11   13.80    5.70
   7   9  11   25.60    6.40
   8   9  11   34.10    7.20
   8   9  11   32.60    7.50
   9   9  11    0.30    4.80
   9   9  11    6.10    5.70
  10   9  11    6.50    5.20
  10   9  11   13.20    6.60
   5 -10 -11   41.60    8.40
   5 -10 -11   30.10   10.40
   4 -10 -11   42.80   11.40
   4 -10 -11   50.09    8.90
   3 -10 -11    5.60    5.50
   2 -10 -11  138.19   12.30
   1 -10 -11  166.98   13.00
   0 -10 -11    6.80    5.10
  -1 -10 -11  123.39   11.80
  -2 -10 -11  519.25   25.00
  -3 -10 -11  266.57   17.00
  -4 -10 -11    2.20    3.10
   4  10  11    3.90    4.20
   5  10  11   53.09    8.40
   6  10  11   43.00    7.70
   7  10  11    2.50    5.20
   8  10  11   17.80    6.30
   8  10  11    8.50    5.40
   9  10  11    2.50    5.40
   9  10  11   22.10    7.20
   5 -11 -11   12.20    7.20
   5 -11 -11   -5.50    7.90
   4 -11 -11   62.99   10.20
   3 -11 -11   37.40    8.30
   2 -11 -11   -6.70    5.10
   1 -11 -11   89.99   11.60
   0 -11 -11  129.09   12.40
  -1 -11 -11    2.90    5.00
  -2 -11 -11   31.10    7.90
  -3 -11 -11   17.20    7.30
  -4 -11 -11   20.90    3.70
  -4 -11 -11   13.80    7.00
   5  11  11   21.40    6.50
   6  11  11   35.30    7.40
   7  11  11   36.10    7.70
   8  11  11    4.90    5.70
   8  11  11   -1.60    5.10
   9  11  11    7.70    6.20
   9  11  11   15.30    6.60
   4 -12 -11    3.90    6.80
   3 -12 -11   48.30    9.40
   2 -12 -11   16.90    7.90
   1 -12 -11   24.10    7.20
   0 -12 -11  127.79   13.70
  -1 -12 -11   67.89   10.00
  -2 -12 -11    2.40    5.20
  -3 -12 -11  345.97   20.80
  -4 -12 -11  105.69   13.30
  -5 -12 -11    6.10    6.50
   7  12  11   72.29    9.80
   8  12  11   -0.40    5.60
   8  12  11   -0.10    5.70
   3 -13 -11   29.70    8.70
   2 -13 -11   54.19   10.10
   1 -13 -11   -8.20    5.40
   0 -13 -11   24.00    7.80
  -1 -13 -11   74.89   11.40
  -2 -13 -11    2.80    6.00
  -3 -13 -11   -0.70    6.00
  -4 -13 -11   49.50   10.80
  -5 -13 -11    9.90    7.60
  -6 -13 -11   44.30   10.00
   8  13  11   36.60    8.30
   8  13  11   13.40    7.60
   2 -14 -11   72.39   11.80
   1 -14 -11   37.20    9.00
   0 -14 -11    0.50    6.00
  -1 -14 -11   45.60    9.70
  -2 -14 -11  100.49   13.90
  -3 -14 -11   18.00    7.60
  -4 -14 -11    5.70    7.20
  -5 -14 -11   16.90    8.40
  -6 -14 -11    7.80    8.20
  -7 -14 -11   18.50    9.00
   0 -15 -11   37.00    9.80
  -1 -15 -11    2.40    6.70
  -2 -15 -11   41.50   10.10
  -3 -15 -11   64.79   11.60
  -4 -15 -11    8.10    7.40
  -5 -15 -11    8.90    7.60
   1   5 -12   -0.70    5.60
   1   5 -12   11.50   10.40
  -1  -5  12    2.70    2.20
   0   5 -12    3.30    9.50
   0   5 -12    3.10    4.60
   0  -5  12   22.10    4.70
  -1   5 -12    6.30    9.20
   1  -5  12    3.10    4.80
  -2   5 -12   -4.30    7.70
   2  -5  12   -6.90    4.60
   3   4 -12   61.99   15.40
   3   4 -12   64.79   10.70
   2   4 -12   55.99   14.30
   2   4 -12   49.10    9.50
   1   4 -12    8.00    6.00
   1   4 -12   18.40   10.50
   0   4 -12   39.90   12.60
   0   4 -12   46.80    7.20
   0  -4  12   44.40    5.90
  -1   4 -12   40.90   12.80
  -1   4 -12   25.50    6.10
   1  -4  12   38.30    6.30
  -2   4 -12  -11.10    6.70
  -3   4 -12    8.30    9.70
   3  -4  12   -9.00    4.50
  -4   4 -12   13.90    9.70
   4  -4  12    1.40    5.60
   4   3 -12    5.40    7.00
   4   3 -12   -7.40    7.60
   3   3 -12   45.30   13.60
   3   3 -12   32.00    8.90
   2   3 -12   20.50   10.50
   1   3 -12   60.49    9.30
   1   3 -12   53.69   13.70
   0   3 -12   -1.50    4.40
   0   3 -12   -0.20    7.70
   0  -3  12   12.10    4.00
  -1   3 -12   33.20   11.90
  -1   3 -12   18.70    4.80
   1  -3  12   27.60    5.40
  -2   3 -12    1.80    8.80
   2  -3  12    4.70    4.70
  -3   3 -12   -2.40    9.00
   3  -3  12    5.70    4.90
  -4   3 -12   45.80   12.80
   4  -3  12   66.29    9.20
  -5   3 -12   33.60   12.10
   5  -3  12   30.30    7.30
   5   2 -12   38.10   10.70
   5   2 -12   39.10   12.10
   4   2 -12    7.30    7.00
   4   2 -12    9.40    9.90
   3   2 -12   -5.90    7.00
   3   2 -12    9.20    6.80
   2   2 -12   53.79   13.30
   2   2 -12   63.89   10.20
   1   2 -12  300.87   23.80
   1   2 -12  283.87   16.80
   0   2 -12    5.00    8.60
   0   2 -12   -1.00    4.30
   0  -2  12    6.50    3.50
  -1   2 -12   19.90   10.40
  -1   2 -12   21.80    5.00
   1  -2  12   27.60    5.10
  -2   2 -12   35.10   10.80
  -2   2 -12   45.00    4.60
   2  -2  12   60.99    7.60
  -3   2 -12   14.50    8.80
   3  -2  12    4.00    5.30
  -4   2 -12   29.60   11.30
   4  -2  12   30.40    6.60
  -5   2 -12   54.69   13.20
   5  -2  12   86.79   10.40
  -6   2 -12  119.99   18.40
   6  -2  12   82.69   11.00
   5   1 -12    3.40    7.00
   4   1 -12   41.90    9.60
   4   1 -12   62.19   14.40
   3   1 -12    7.30    6.30
   3   1 -12    2.20    8.60
   2   1 -12   45.40    4.00
   2   1 -12   42.80   12.40
   2   1 -12   40.80    3.60
   2   1 -12   61.39    9.80
   1   1 -12   -5.70    6.80
   1   1 -12    6.90    5.10
  -1  -1  12    9.10    2.80
   0   1 -12   41.40   11.20
   0   1 -12   25.40    6.10
   0  -1  12   43.40    5.30
  -1   1 -12    1.90    6.90
  -1   1 -12   -2.50    3.50
   1  -1  12   -0.60    3.60
  -2   1 -12    5.80    7.10
  -2   1 -12    4.00    3.00
   2  -1  12    2.90    3.90
  -3   1 -12    2.30    8.00
   3  -1  12    9.60    4.40
  -4   1 -12   12.70    9.30
   4  -1  12   16.90    5.60
  -5   1 -12   40.70   12.10
   5  -1  12   40.60    7.60
  -6   1 -12   29.30   11.00
   6  -1  12   25.00    7.10
  -7   1 -12   -1.80    8.50
   7  -1  12    6.60    6.10
   6   0 -12   82.79   14.20
   5   0 -12   45.80   10.50
   4   0 -12    0.00    6.10
   3   0 -12  128.09   14.30
   2   0 -12   94.49   15.50
   2   0 -12   80.89    4.90
   2   0 -12   79.09   10.70
   2   0 -12   66.29    5.50
   1   0 -12   -3.30    6.00
   1   0 -12    8.60    5.10
  -1   0  12    5.50    2.80
   0   0 -12   83.19    9.60
   0   0 -12   71.99   13.40
   0   0  12   68.39    6.20
  -1   0 -12   42.20   11.10
  -1   0 -12   72.49    7.90
   1   0  12   61.69    6.50
  -2   0 -12   11.50    7.80
  -2   0 -12   31.70    6.10
   2   0  12   29.60    5.40
  -3   0 -12   52.09   11.70
  -3   0 -12   38.10    3.70
  -3   0 -12   41.40    3.90
   3   0  12   53.69    7.10
  -4   0 -12   16.30    9.00
   4   0  12    9.30    5.30
  -5   0 -12   -1.70    7.10
   5   0  12    5.40    5.20
  -6   0 -12   20.40    8.30
   6   0  12    7.10    5.70
  -7   0 -12   -2.70    7.80
   7   0  12    6.50    5.80
  -8   0 -12   -8.90    8.60
   8   0  12    7.40    6.70
   6  -1 -12  116.89   16.30
   5  -1 -12   91.79   13.60
   4  -1 -12   -9.20    4.90
   3  -1 -12  207.78   16.60
   2  -1 -12  222.88   15.40
   2  -1 -12  195.58    9.80
   1  -1 -12   56.09   12.90
   1  -1 -12   74.49    9.60
  -1   1  12   62.09    5.50
   0  -1 -12    5.80    6.90
   0  -1 -12   26.20    6.20
   0   1  12   35.20    5.10
  -1  -1 -12  188.78   18.00
  -1  -1 -12  222.48   12.60
   1   1  12  221.48   11.30
  -2  -1 -12   71.69   13.10
  -2  -1 -12   81.79    7.00
   2   1  12   62.59    7.10
  -3  -1 -12   50.59    5.10
  -3  -1 -12   44.00    4.60
  -3  -1 -12   37.30   10.60
   3   1  12   37.10    6.30
  -4  -1 -12  117.09   16.20
   4   1  12   98.89   11.40
  -5  -1 -12   20.50    8.80
   5   1  12   39.30    7.50
  -6  -1 -12    6.40    8.00
   6   1  12   11.40    5.90
  -7  -1 -12    2.50    8.10
   7   1  12    2.60    5.40
  -8  -1 -12    3.10    7.70
   8   1  12    0.80    5.80
   6  -2 -12   16.40    8.90
   5  -2 -12  143.89   16.90
   4  -2 -12   60.79   11.20
   3  -2 -12    9.50    6.30
   3  -2 -12    9.10    2.40
   3  -2 -12    2.20    2.70
   2  -2 -12  255.97   17.40
   2  -2 -12  284.07   12.60
   1  -2 -12   80.39   10.10
   0  -2 -12   53.69   11.70
   0  -2 -12   50.79    7.80
   0   2  12   52.79    5.90
  -1  -2 -12  253.97   14.40
   1   2  12  270.37   12.90
  -2  -2 -12   37.60    6.10
  -2  -2 -12   33.60    9.80
   2   2  12   41.40    6.00
  -3  -2 -12   36.90    7.90
  -3  -2 -12   22.40    8.70
   3   2  12   27.10    5.50
  -4  -2 -12    5.50    2.80
  -4  -2 -12    1.60    5.90
   4   2  12    7.20    7.50
  -5  -2 -12   36.60   11.50
   5   2  12   39.00    6.90
  -6  -2 -12    7.20    7.40
   6   2  12    7.60    5.70
  -7  -2 -12   -2.80    7.20
   7   2  12    0.00    5.20
  -8  -2 -12    0.40    7.20
   8   2  12   -1.60    6.10
   9   2  12   -1.50    6.00
   6  -3 -12   11.90    7.90
   5  -3 -12   76.09    4.70
   5  -3 -12   80.99   13.40
   4  -3 -12  121.19    7.00
   4  -3 -12  119.39   14.50
   3  -3 -12   92.69    7.00
   3  -3 -12   98.39   12.80
   2  -3 -12   25.00    8.10
   2  -3 -12   19.20    4.40
   1  -3 -12  303.77   14.40
   1  -3 -12  278.97   17.10
   0  -3 -12  517.15   24.00
   0   3  12  532.35   20.40
  -1  -3 -12  281.07   19.90
  -1  -3 -12  262.87   15.20
   1   3  12  291.07   13.60
  -2  -3 -12  131.49   15.90
  -2  -3 -12  132.99   10.00
   2   3  12  142.89    9.60
  -3  -3 -12   36.40    9.70
  -3  -3 -12   42.50    6.10
   3   3  12   51.29    6.70
  -4  -3 -12   19.30    7.80
  -4  -3 -12   10.40    3.90
   4   3  12    8.10    4.60
  -5  -3 -12    1.30    2.50
  -5  -3 -12    6.90    3.00
  -5  -3 -12    1.80    6.20
   5   3  12    0.10    4.20
  -6  -3 -12  235.28   18.10
  -6  -3 -12  230.78    9.30
   6   3  12  240.38   14.70
  -7  -3 -12    7.60    7.20
   7   3  12   -3.20    4.90
  -8  -3 -12    3.60    6.80
   8   3  12   -6.00    5.30
   6  -4 -12   61.59   12.80
   5  -4 -12   10.30    7.40
   4  -4 -12  183.58   10.10
   4  -4 -12  184.28   16.70
   3  -4 -12  198.58   11.00
   3  -4 -12  217.38   16.70
   2  -4 -12   21.20    5.00
   2  -4 -12   15.70    7.70
   1  -4 -12  187.98   14.30
   1  -4 -12  187.98   11.40
   0  -4 -12  113.19   10.70
   0   4  12  119.79    8.20
  -1  -4 -12   -2.60    5.50
  -1  -4 -12    3.20    4.50
   1   4  12   -1.70    3.00
  -2  -4 -12  121.39   14.70
  -2  -4 -12  114.59   10.00
   2   4  12  163.38   10.10
  -3  -4 -12  192.08   16.50
   3   4  12  212.18   12.20
  -4  -4 -12   60.09   10.90
   4   4  12   64.49    7.90
  -5  -4 -12   49.50    9.80
   5   4  12   34.00    6.60
  -6  -4 -12   10.20    6.10
   6   4  12    8.60    5.10
  -7  -4 -12    7.90    6.60
   7   4  12   10.70    6.00
  -8  -4 -12   15.00    7.50
   8   4  12   20.40    6.90
   9   4  12   19.80    6.70
   6  -5 -12  124.59   16.90
   6  -5 -12  137.49    9.00
   5  -5 -12   73.39    7.40
   5  -5 -12   73.29   12.60
   4  -5 -12   13.80    4.50
   4  -5 -12    1.10    6.70
   3  -5 -12  140.89   10.00
   3  -5 -12  133.49   15.40
   2  -5 -12   89.29    8.50
   2  -5 -12   97.99   12.50
   1  -5 -12   -2.40    4.80
   1  -5 -12    0.40    3.40
   0  -5 -12  149.59   12.50
   1   5  12  142.49    9.40
  -2  -5 -12    0.00    5.20
   2   5  12    7.80    4.10
  -3  -5 -12   50.49    9.40
   3   5  12   52.59    7.20
  -4  -5 -12  198.58   15.20
  -5  -5 -12   86.19   11.50
   5   5  12   84.89    9.30
  -6  -5 -12   -1.90    4.80
   6   5  12    1.80    4.00
  -7  -5 -12   49.80    9.00
   7   5  12   29.60    6.80
  -8  -5 -12   69.79   10.30
   8   5  12   54.39    9.30
   9   5  12    9.60    7.20
   6  -6 -12   41.00   11.20
   6  -6 -12   33.60    6.30
   5  -6 -12   75.29   13.40
   5  -6 -12  100.79    9.10
   4  -6 -12   19.20    5.40
   4  -6 -12   16.50    7.60
   3  -6 -12   92.79    8.80
   3  -6 -12   95.49   13.40
   2  -6 -12  304.27   16.10
   2  -6 -12  345.87   21.20
   1  -6 -12  200.58   12.80
   1  -6 -12  252.17   28.40
   0  -6 -12    0.70    4.30
   1   6  12   98.29    8.20
  -2  -6 -12  123.59   12.50
   2   6  12  129.79    9.50
  -3  -6 -12   14.40    6.10
   3   6  12   12.30    4.80
  -4  -6 -12  163.88   13.40
   4   6  12  146.19   12.00
  -5  -6 -12  108.09   11.20
   5   6  12  118.09    9.80
  -6  -6 -12    3.10    4.90
   6   6  12    3.50    4.70
  -7  -6 -12   36.80    7.50
   7   6  12   27.20    7.10
   8   6  12   11.60    6.20
   9   6  12   22.70    7.40
   6  -7 -12   -6.50    4.50
   6  -7 -12    0.00    7.20
   5  -7 -12  112.39   16.10
   5  -7 -12  109.69   10.20
   4  -7 -12  135.89   11.00
   4  -7 -12  122.19   15.80
   3  -7 -12   26.70    9.10
   3  -7 -12   20.80    5.90
   2  -7 -12   57.99   10.40
   2  -7 -12   70.69    8.80
   1  -7 -12  408.06   19.90
   0  -7 -12   31.70    6.90
   2   7  12  133.29   10.00
  -3  -7 -12   12.20    5.60
   3   7  12   16.30    5.60
  -4  -7 -12   -0.80    4.60
   4   7  12    5.90    4.50
  -5  -7 -12   30.30    6.90
   5   7  12   27.70    6.50
  -6  -7 -12    8.00    4.50
   6   7  12   -3.30    4.40
  -7  -7 -12   -8.60    3.60
   7   7  12    0.00    4.80
   8   7  12    6.60    5.90
   9   7  12   14.00    6.50
   5  -8 -12   -1.00    7.10
   5  -8 -12    5.30    5.50
   4  -8 -12  132.39   17.50
   3  -8 -12   53.09    8.40
   3  -8 -12   73.69   12.80
   2  -8 -12   10.00    5.50
   1  -8 -12   56.39    8.50
   0  -8 -12  504.95   23.30
  -1  -8 -12  137.69   11.90
   2   8  12    6.90    4.70
  -3  -8 -12  113.39   11.00
   3   8  12  108.89    9.80
  -4  -8 -12  238.38   14.80
   4   8  12  238.88   14.20
  -5  -8 -12    4.80    4.00
   5   8  12   -1.70    4.60
  -6  -8 -12  112.89    8.90
   6   8  12  122.29   11.00
   7   8  12   94.69   10.70
   8   8  12   13.20    6.30
   9   8  12   -7.90    5.00
   5  -9 -12   -9.70    6.80
   5  -9 -12   10.20    6.10
   4  -9 -12   31.60    7.60
   4  -9 -12   18.30    9.70
   3  -9 -12  114.29   14.80
   3  -9 -12  129.19   12.00
   2  -9 -12   73.39   10.00
   1  -9 -12   23.00    6.90
   0  -9 -12  155.28   12.70
  -1  -9 -12   39.30    8.00
  -2  -9 -12   94.09   11.40
  -3  -9 -12  401.46   20.50
   3   9  12  387.06   18.80
  -4  -9 -12  185.98   12.00
   4   9  12  157.08   12.10
  -5  -9 -12    8.60    4.00
   5   9  12    4.40    4.70
  -6  -9 -12   27.80    3.90
   6   9  12   22.90    6.70
   7   9  12   64.79    9.70
   8   9  12    0.40    5.50
   9   9  12    3.80    6.00
   4 -10 -12   -1.60    7.80
   4 -10 -12    9.10    6.50
   3 -10 -12   44.30    8.60
   2 -10 -12  146.99   12.80
   1 -10 -12   17.90    7.00
   0 -10 -12   24.50    7.50
  -1 -10 -12  312.57   18.50
  -2 -10 -12  329.47   19.50
  -3 -10 -12   35.20    8.50
  -3 -10 -12   34.10    6.80
  -4 -10 -12   23.60    5.50
   4  10  12   30.50    6.70
  -5 -10 -12   62.49    5.50
   5  10  12   64.79    9.00
   6  10  12   13.90    5.90
   7  10  12   -3.60    4.30
   8  10  12    5.40    5.40
   9  10  12    0.50    5.90
   4 -11 -12   10.30    8.40
   4 -11 -12    9.50    6.90
   3 -11 -12  -12.60    5.20
   2 -11 -12  119.09   13.20
   1 -11 -12  155.38   14.10
   0 -11 -12    8.10    6.10
  -1 -11 -12   58.99   10.10
  -2 -11 -12   78.59   10.90
  -3 -11 -12   25.30    7.90
  -4 -11 -12   54.89    6.50
  -4 -11 -12   53.09   10.10
   5  11  12  121.09   11.30
   6  11  12   42.50    8.30
   7  11  12    1.20    5.30
   8  11  12   20.60    7.20
   3 -12 -12   18.00    7.90
   2 -12 -12   -1.00    6.00
   1 -12 -12   77.49   11.60
  -1 -12 -12    7.80    6.70
  -2 -12 -12  100.69   12.50
  -3 -12 -12   86.89   11.80
  -4 -12 -12   11.30    7.20
  -4 -12 -12   -0.40    2.90
  -5 -12 -12   54.89   10.50
   6  12  12  155.98   13.40
   7  12  12   -8.00    4.20
   8  12  12    4.10    6.30
   2 -13 -12    7.40    7.20
   1 -13 -12   55.59   11.00
   0 -13 -12  170.78   15.40
  -1 -13 -12   53.79   10.60
  -2 -13 -12    1.70    6.30
  -3 -13 -12   85.49   12.60
  -4 -13 -12   72.09   12.20
  -5 -13 -12    9.20    8.20
  -6 -13 -12   20.50    9.00
   1 -14 -12    2.70    7.20
   0 -14 -12   18.80    8.50
  -2 -14 -12   15.30    8.10
  -3 -14 -12   12.70    7.10
  -4 -14 -12   83.39   13.10
  -5 -14 -12   12.90    9.10
  -6 -14 -12    8.90    8.70
  -2 -15 -12   48.00   10.50
  -3 -15 -12   19.50    8.60
  -4 -15 -12   -0.20    6.50
   2   3 -13    5.30    5.90
   2   3 -13   -8.40    8.70
   1   3 -13   -0.60    8.40
   1   3 -13   -1.00    5.30
   0   3 -13   68.09   15.20
   0   3 -13   57.49    8.30
   0  -3  13   68.89    7.00
  -1   3 -13   50.69   14.80
  -1   3 -13   40.30    5.90
   1  -3  13   48.10    6.90
  -2   3 -13  -13.50    8.50
   2  -3  13   17.10    5.50
  -3   3 -13   15.10   11.50
   3  -3  13   15.70    6.20
   3   2 -13    2.20    6.20
   3   2 -13   -2.10    7.90
   2   2 -13   63.09   10.10
   2   2 -13   65.09   14.90
   1   2 -13   54.79    8.70
   1   2 -13   31.00   11.60
   0   2 -13   -7.60    6.70
   0   2 -13    7.80    4.90
   0  -2  13    0.20    3.40
  -1   2 -13   33.10    5.70
  -1   2 -13   10.90    9.80
   1  -2  13   39.50    6.30
  -2   2 -13    6.80    8.00
  -2   2 -13   -0.10    2.60
   2  -2  13   -9.50    3.70
  -3   2 -13   33.50   11.90
   3  -2  13   37.30    7.20
  -4   2 -13    4.60    9.90
   4  -2  13    0.70    5.20
  -5   2 -13   14.20   11.20
   5  -2  13   22.40    6.90
   4   1 -13   83.59   13.80
   4   1 -13   77.19   15.80
   3   1 -13    2.70    9.60
   3   1 -13    8.80    7.30
   2   1 -13   -2.30    7.00
   2   1 -13   -7.20    5.80
   1   1 -13   60.99    9.00
   1   1 -13   40.00   12.40
  -1  -1  13   59.39    5.50
   0   1 -13    4.70    5.00
   0   1 -13   14.70   10.90
   0  -1  13   18.60    4.30
  -1   1 -13    2.80    8.60
  -1   1 -13   -3.20    3.70
   1  -1  13   -4.20    3.30
  -2   1 -13    2.30    7.10
  -2   1 -13    1.00    2.90
   2  -1  13    2.50    4.30
  -3   1 -13  102.69   17.00
   3  -1  13   85.99    9.50
  -4   1 -13   -4.50    8.20
   4  -1  13    1.90    5.20
  -5   1 -13   25.70   10.90
   5  -1  13   28.40    7.30
  -6   1 -13   25.60   11.60
   6  -1  13   20.20    7.20
   4   0 -13  110.29   14.10
   3   0 -13   80.59   12.20
   3   0 -13  110.09   17.40
   2   0 -13   -2.10    2.20
   2   0 -13    3.90    5.70
   2   0 -13    7.80    8.30
   1   0 -13  117.99   18.30
   1   0 -13  112.69   11.50
  -1   0  13  119.59    7.30
   0   0 -13   99.39   10.10
   0   0 -13   92.09   15.70
   0   0  13   96.79    7.40
  -1   0 -13   -5.60    7.20
  -1   0 -13   -0.30    3.80
   1   0  13    3.80    3.80
  -2   0 -13   81.79   14.90
  -2   0 -13   68.99    6.70
   2   0  13   75.89    8.20
  -3   0 -13   70.09   14.50
   3   0  13   78.89    8.90
  -4   0 -13   34.80   12.30
   4   0  13   24.50    6.40
  -5   0 -13    4.60    8.00
   5   0  13    1.70    5.20
  -6   0 -13   17.50   10.60
   6   0  13    7.20    6.10
  -7   0 -13   19.80   11.50
   7   0  13    9.10    7.30
   5  -1 -13   -1.30    6.60
   4  -1 -13   49.50   10.60
   3  -1 -13   81.69   11.80
   2  -1 -13   19.20    3.70
   2  -1 -13   20.20   10.40
   2  -1 -13   20.10    7.00
   1  -1 -13   26.50   10.80
   1  -1 -13   44.90    8.40
   0  -1 -13  100.79   11.10
   0  -1 -13  108.89   16.80
   0   1  13  104.59    7.90
  -1  -1 -13   71.89   13.50
  -1  -1 -13   63.69    8.20
   1   1  13   85.19    7.40
  -2  -1 -13    3.30    3.70
  -2  -1 -13    2.00    6.70
   2   1  13    2.20    3.60
  -3  -1 -13   40.30   12.10
  -3  -1 -13   53.59    5.60
  -4  -1 -13    4.70    8.10
   4   1  13   12.30    5.30
  -5  -1 -13   -3.00    6.60
   5   1  13    7.40    5.30
  -6  -1 -13   17.50    9.90
   6   1  13   20.70    6.80
  -7  -1 -13    6.40    8.70
   7   1  13    0.90    6.20
   5  -2 -13   49.60   11.10
   4  -2 -13    9.40    7.30
   3  -2 -13  101.29    6.30
   3  -2 -13  120.59   14.80
   2  -2 -13  210.68   16.10
   2  -2 -13  210.38   10.80
   1  -2 -13   17.70    6.80
   1  -2 -13    9.20    8.50
   1  -2 -13   18.60    4.70
   0  -2 -13   93.09   11.00
   0  -2 -13   62.19   13.30
   0   2  13   71.49    6.90
  -1  -2 -13   87.29    9.60
  -1  -2 -13   90.19   14.90
   1   2  13   88.69    7.80
  -2  -2 -13   67.79   12.90
  -2  -2 -13   77.19    8.40
   2   2  13   71.09    7.80
  -3  -2 -13    7.90    3.80
  -3  -2 -13   -2.20    5.90
   3   2  13   22.00    5.40
  -4  -2 -13    3.10    7.70
  -4  -2 -13    8.70    2.90
   4   2  13   13.40    5.10
  -5  -2 -13    2.00    6.80
   5   2  13    7.70    5.30
  -6  -2 -13   46.40   11.60
   6   2  13   58.59    9.00
  -7  -2 -13    8.20    7.90
   7   2  13    3.20    6.10
  -8  -2 -13  -11.50    7.30
   8   2  13   10.90    6.90
   5  -3 -13   58.79   12.60
   4  -3 -13   47.70    4.60
   4  -3 -13   50.09   10.70
   3  -3 -13   39.20    9.70
   3  -3 -13   17.80    4.20
   2  -3 -13   96.89   12.30
   2  -3 -13   82.39    7.60
   1  -3 -13  119.79   13.10
   1  -3 -13  126.99    9.70
   0  -3 -13    5.90    5.30
   0  -3 -13   11.30    8.40
   0   3  13    3.90    3.50
  -1  -3 -13  108.79   15.80
  -1  -3 -13   92.89    9.70
   1   3  13   94.49    8.00
  -2  -3 -13  253.37   14.10
  -2  -3 -13  255.57   19.70
   2   3  13  224.08   12.70
  -3  -3 -13    0.90    6.80
  -3  -3 -13   17.40    4.70
   3   3  13   16.30    5.20
  -4  -3 -13   47.40   11.20
   4   3  13   29.80    6.30
  -5  -3 -13  172.18   17.50
  -5  -3 -13  164.68    8.50
   5   3  13  172.58   12.50
  -6  -3 -13    4.00    7.40
   6   3  13    9.10    5.80
  -7  -3 -13   -4.30    6.80
   7   3  13   -8.10    4.40
  -8  -3 -13    8.70    7.80
   8   3  13   10.70    7.00
   5  -4 -13   77.89   13.60
   4  -4 -13  172.28    9.50
   4  -4 -13  162.08   16.70
   3  -4 -13   64.69    7.10
   3  -4 -13   77.99   12.60
   2  -4 -13   98.29   13.30
   2  -4 -13  117.39    9.20
   1  -4 -13  315.77   15.90
   0  -4 -13   40.60    8.20
   0   4  13   50.69    6.20
  -1  -4 -13   69.49    9.60
  -1  -4 -13   60.39   12.30
   1   4  13   56.99    7.10
  -2  -4 -13   13.90    8.00
  -2  -4 -13   13.50    5.30
   2   4  13   10.90    4.60
  -3  -4 -13    5.30    4.40
  -3  -4 -13    2.70    6.60
   3   4  13    4.50    4.50
  -4  -4 -13   24.70    5.10
  -4  -4 -13   25.40    8.90
   4   4  13   28.00    6.40
  -5  -4 -13   73.09   12.20
  -5  -4 -13   74.29    7.10
   5   4  13   68.99    8.70
  -6  -4 -13   10.30    7.40
  -6  -4 -13   27.70    4.40
   6   4  13   16.40    6.30
  -7  -4 -13   -3.20    7.20
  -7  -4 -13   -1.20    2.50
   7   4  13    9.80    6.20
  -8  -4 -13    6.10    7.40
   8   4  13   -6.70    5.20
   5  -5 -13   48.40   11.40
   5  -5 -13   44.40    5.80
   4  -5 -13  204.18   11.40
   4  -5 -13  181.48   17.80
   3  -5 -13   89.89    8.30
   3  -5 -13  108.79   14.40
   2  -5 -13    3.40    4.40
   2  -5 -13   12.40    6.50
   1  -5 -13   62.29   10.70
   1  -5 -13   80.69    9.00
   0  -5 -13  228.08   16.10
   0  -5 -13  244.98   14.50
  -1  -5 -13  143.09   16.90
  -1  -5 -13  143.69   12.80
   1   5  13  141.69   10.00
  -2  -5 -13   35.30    9.70
  -2  -5 -13   46.40    8.00
   2   5  13   42.70    6.80
  -3  -5 -13  218.28   17.60
  -4  -5 -13   98.19   13.70
   4   5  13  100.39   10.30
  -5  -5 -13    7.70    6.40
   5   5  13    3.50    5.00
  -6  -5 -13  103.69   13.40
   6   5  13   91.09   10.20
  -7  -5 -13   39.00    9.30
   7   5  13   32.10    7.20
  -8  -5 -13   -8.30    5.80
   8   5  13    2.50    5.90
   9   5  13   15.90    8.10
   5  -6 -13    6.30    4.70
   5  -6 -13    5.70    8.40
   4  -6 -13   11.00    4.80
   4  -6 -13    2.70    7.80
   3  -6 -13  147.69   10.90
   3  -6 -13  149.29   17.10
   2  -6 -13  140.69   16.10
   2  -6 -13  127.39   10.30
   1  -6 -13    1.40    4.40
   1  -6 -13    4.20    6.50
   0  -6 -13  230.78   14.20
   1   6  13  216.28   12.50
  -2  -6 -13   99.99   13.60
   2   6  13   79.69    8.80
  -3  -6 -13    8.60    6.40
   3   6  13    1.30    4.00
  -4  -6 -13    3.00    6.00
   4   6  13    1.70    4.50
  -5  -6 -13    5.60    5.50
   5   6  13    1.30    4.60
  -6  -6 -13   20.60    6.80
   6   6  13   24.40    7.10
  -7  -6 -13   -5.20    5.20
   7   6  13    9.00    5.80
  -8  -6 -13    9.70    6.20
   8   6  13   -3.70    5.00
   9   6  13    1.30    5.30
   5  -7 -13   26.80   10.60
   5  -7 -13   47.10    7.60
   4  -7 -13    4.20    5.00
   4  -7 -13   12.80    8.70
   3  -7 -13   64.89    8.30
   3  -7 -13   54.59   11.40
   2  -7 -13  253.17   18.60
   2  -7 -13  228.98   14.40
   1  -7 -13   65.09   11.00
   1  -7 -13   69.19    9.10
   0  -7 -13   -0.80    4.80
  -1  -7 -13  193.68   13.80
  -2  -7 -13  152.78   14.30
   2   7  13   92.19   13.00
  -3  -7 -13   11.00    6.30
   3   7  13    8.80    4.70
  -4  -7 -13   18.40    6.70
   4   7  13   20.40    5.50
  -5  -7 -13   83.59   11.10
   5   7  13   95.09   10.70
  -6  -7 -13   43.60    8.00
   6   7  13   43.90    8.30
   7   7  13    6.50    5.90
   8   7  13    7.20    6.30
   9   7  13   30.20    7.90
   4  -8 -13  109.69   15.80
   4  -8 -13   90.29   10.40
   3  -8 -13   -4.20    6.70
   3  -8 -13   -1.80    5.20
   2  -8 -13   87.29   13.40
   0  -8 -13   19.00    7.00
  -1  -8 -13   49.70    8.50
   2   8  13  204.18   13.00
  -3  -8 -13  197.68   15.40
   3   8  13  216.18   13.70
  -4  -8 -13   14.70    6.50
   4   8  13   15.20    5.50
  -5  -8 -13   80.89    9.90
   5   8  13   80.09   10.20
  -6  -8 -13   61.89    8.40
   6   8  13   53.19    8.90
  -7  -8 -13    3.20    4.50
   7   8  13    9.60    6.20
   8   8  13   12.80    6.60
   9   8  13   20.00    7.30
   4  -9 -13   27.10    9.70
   3  -9 -13   34.80    9.70
   3  -9 -13   45.00    8.50
   2  -9 -13    1.40    5.10
   1  -9 -13  355.86   20.00
   0  -9 -13  111.29   12.10
  -1  -9 -13    3.00    5.90
  -2  -9 -13  117.89   13.20
  -3  -9 -13  106.39   12.90
   3   9  13  131.09   10.80
  -4  -9 -13   17.90    6.30
   4   9  13   11.60    5.60
  -5  -9 -13   31.70    6.50
   5   9  13    8.20    5.40
  -6  -9 -13   40.20    5.80
   6   9  13   42.20    8.30
   7   9  13    7.40    6.60
   8   9  13    2.50    6.20
   4 -10 -13   54.69    9.70
   4 -10 -13   62.79   14.00
   3 -10 -13  138.49   13.30
   3 -10 -13  112.09   15.50
   2 -10 -13   35.60    8.10
   1 -10 -13   -1.90    5.20
   0 -10 -13  215.58   15.70
  -1 -10 -13   85.89   11.00
  -2 -10 -13    5.50    5.60
  -3 -10 -13   83.69   11.40
  -3 -10 -13  106.59   11.50
  -4 -10 -13  155.28   12.10
   4  10  13  163.18   12.70
  -5 -10 -13   26.90    5.20
   5  10  13   17.90    6.30
   6  10  13   11.50    6.40
   7  10  13   77.69   10.90
   8  10  13   21.60    7.50
   3 -11 -13   -2.10    6.30
   2 -11 -13   25.40    8.00
   1 -11 -13    4.60    5.70
   0 -11 -13   34.40    8.50
  -1 -11 -13  113.09   13.30
  -2 -11 -13   36.00    9.10
  -3 -11 -13    0.40    6.20
  -3 -11 -13    3.10    5.60
  -4 -11 -13   21.80    5.70
  -4 -11 -13   26.70    8.50
  -5 -11 -13   18.90    3.60
   5  11  13   14.10    6.20
   6  11  13    3.40    6.00
   7  11  13   16.90    7.10
   8  11  13   41.80    8.40
   2 -12 -13   46.30    9.70
   1 -12 -13   75.49   11.40
   0 -12 -13    7.60    6.70
  -1 -12 -13   80.29   11.80
  -2 -12 -13  175.88   15.70
  -3 -12 -13   16.90    7.80
  -4 -12 -13   65.59   11.90
  -4 -12 -13   83.39    7.90
  -5 -12 -13  141.69   16.10
   6  12  13   80.19   11.40
   7  12  13   -5.10    5.20
   1 -13 -13   21.70    8.70
   0 -13 -13   13.50    8.00
  -1 -13 -13   39.90    9.90
  -2 -13 -13   68.89   11.50
  -3 -13 -13   97.69   14.10
  -4 -13 -13   23.50    6.40
  -4 -13 -13   27.90    9.50
  -5 -13 -13   -5.80    6.90
  -6 -13 -13   13.20    8.70
  -1 -14 -13   15.80    8.50
  -2 -14 -13   -0.40    6.70
  -3 -14 -13   38.60   10.30
  -4 -14 -13   18.80    8.60
  -5 -14 -13   11.30    8.00
  -1   2 -14   -7.00    3.90
  -1   2 -14    3.60    8.70
   1  -2  14   10.50    4.60
   2   1 -14   39.60   13.00
   1   1 -14   46.50   13.80
   1   1 -14   35.60   10.10
   0   1 -14    4.90    5.20
   0   1 -14   12.60   10.10
   0  -1  14   20.30    4.90
  -1   1 -14   31.30    5.90
  -1   1 -14   34.50   12.60
   1  -1  14   38.00    6.30
  -2   1 -14   64.49    6.30
  -2   1 -14   83.49   16.70
   2  -1  14   70.19    9.90
  -3   1 -14   26.90   12.70
   3  -1  14   16.30    5.70
  -4   1 -14   20.90   10.90
   4  -1  14   -4.00    5.00
   3   0 -14    1.50    9.80
   2   0 -14  125.59   14.30
   2   0 -14   94.69   17.20
   1   0 -14   26.30    7.60
   1   0 -14   39.10   13.20
   0   0 -14   18.30   11.00
   0   0 -14   21.70    6.70
   0   0  14   24.10    4.90
  -1   0 -14   49.70    7.50
  -1   0 -14   46.10   12.40
   1   0  14   58.69    7.30
  -2   0 -14   63.69   15.20
  -2   0 -14   74.69    7.20
   2   0  14   59.29    8.60
  -3   0 -14   -8.00    7.70
   3   0  14    4.80    5.20
  -4   0 -14   -3.70    8.90
   4   0  14    7.60    5.30
   5   0  14    7.50    6.00
   3  -1 -14   33.30   12.30
   3  -1 -14   37.30    9.90
   2  -1 -14    8.00    6.50
   2  -1 -14    9.70    3.30
   2  -1 -14   -5.30    7.70
   1  -1 -14   98.79   12.20
   1  -1 -14   89.19    8.30
   1  -1 -14   92.09   17.20
   0  -1 -14   27.60    7.40
   0  -1 -14   14.20    9.30
   0   1  14   19.70    4.80
  -1  -1 -14   -6.50    3.90
  -1  -1 -14    7.00    8.90
   1   1  14   -1.80    3.80
  -2  -1 -14   16.30    4.90
  -2  -1 -14   19.80    9.60
   2   1  14   24.00    5.90
  -3  -1 -14   27.50    4.20
  -3  -1 -14   14.70   10.40
   3   1  14   17.40    5.70
  -4  -1 -14    1.90    8.50
   4   1  14    6.20    5.20
  -5  -1 -14   10.00    8.90
   5   1  14   -0.90    4.80
  -6  -1 -14    0.00    9.40
   6   1  14    1.60    5.90
   4  -2 -14   21.90    9.10
   3  -2 -14   85.49   13.00
   2  -2 -14    2.10    8.90
   2  -2 -14    8.10    6.60
   2  -2 -14   14.70    4.10
   1  -2 -14   38.70   12.30
   1  -2 -14   21.20    5.60
   1  -2 -14   32.50    8.10
   0  -2 -14  142.79   19.80
   0  -2 -14  167.58   13.20
   0   2  14  168.78   10.20
  -1  -2 -14   32.20    7.00
  -1  -2 -14   34.30   12.00
   1   2  14   36.80    6.00
  -2  -2 -14   -3.70    3.70
  -2  -2 -14   -1.60    8.10
   2   2  14   -2.60    3.60
  -3  -2 -14   55.09    6.60
  -3  -2 -14   42.80   12.30
   3   2  14   38.00    7.20
  -4  -2 -14   40.80    4.40
  -4  -2 -14   29.70   11.10
   4   2  14   45.90    7.80
  -5  -2 -14   10.10    8.40
   5   2  14   15.40    6.60
  -6  -2 -14   -2.50    7.70
   6   2  14    6.60    6.00
   4  -3 -14   16.90    9.00
   3  -3 -14   79.99    6.90
   3  -3 -14   72.59   12.30
   2  -3 -14  122.99   14.90
   2  -3 -14  117.09    9.30
   1  -3 -14   22.40    9.60
   1  -3 -14   26.90    6.00
   1  -3 -14   11.60    7.00
   0  -3 -14   54.79   12.30
   0  -3 -14   58.29    9.80
   0   3  14   61.19    6.80
  -1  -3 -14  179.08   18.70
  -1  -3 -14  172.98   13.20
   1   3  14  169.68   10.90
  -2  -3 -14   13.60    4.90
  -2  -3 -14   -3.70    7.50
   2   3  14    2.90    4.10
  -3  -3 -14   25.60    5.90
  -3  -3 -14   25.30   10.00
   3   3  14   28.00    6.20
  -4  -3 -14   81.59    7.80
  -4  -3 -14   76.39   14.40
   4   3  14   74.49    8.90
  -5  -3 -14    5.30    2.90
  -5  -3 -14   13.60    8.90
   5   3  14   14.50    6.30
  -6  -3 -14   36.40   11.00
   6   3  14   38.60    8.00
  -7  -3 -14   18.50    8.90
   7   3  14    8.20    6.60
   4  -4 -14   11.20    4.10
   4  -4 -14   -2.40    7.10
   3  -4 -14   80.99   13.00
   3  -4 -14   74.89    7.50
   2  -4 -14  235.28   18.30
   1  -4 -14   95.19    9.60
   1  -4 -14   97.89   13.10
   0  -4 -14   14.90    7.30
   0  -4 -14    6.60    8.80
  -1  -4 -14   76.09   13.50
  -1  -4 -14   69.09    9.80
   1   4  14   54.89    7.20
  -2  -4 -14  102.29   15.40
  -2  -4 -14  114.39   10.70
   2   4  14  113.59   10.60
  -3  -4 -14    1.10    7.10
  -3  -4 -14   -4.80    4.20
   3   4  14    2.00    4.60
  -4  -4 -14   -3.30    3.60
  -4  -4 -14    7.30    7.90
   4   4  14   -1.20    4.50
  -5  -4 -14    9.90    8.70
  -5  -4 -14    2.60    3.50
   5   4  14    1.90    4.80
  -6  -4 -14   46.20   11.50
  -6  -4 -14   47.10    5.10
   6   4  14   30.80    7.20
  -7  -4 -14   17.10    8.90
   7   4  14   18.90    7.20
   4  -5 -14    9.80    8.20
   4  -5 -14    4.40    4.10
   3  -5 -14    0.10    7.30
   3  -5 -14    5.50    4.60
   2  -5 -14   54.79   10.90
   2  -5 -14   53.39    7.60
   1  -5 -14  151.48   11.40
   1  -5 -14  154.28   14.50
   0  -5 -14  135.89   13.40
   0  -5 -14  124.89   11.50
  -1  -5 -14   -2.10    7.40
  -1  -5 -14    6.50    5.90
   1   5  14   -1.20    3.90
  -2  -5 -14  161.68   16.40
  -2  -5 -14  123.19   11.80
   2   5  14  136.89   12.30
  -3  -5 -14  169.28   17.20
  -3  -5 -14  183.18   13.30
   3   5  14  167.48   12.40
  -4  -5 -14   10.00    5.20
   4   5  14   11.50    5.50
  -5  -5 -14   35.10   10.70
   5   5  14   20.70    6.50
  -6  -5 -14   -2.30    7.20
   6   5  14    1.90    5.30
   7   5  14    0.70    5.80
  -8  -5 -14    7.70    7.60
   8   5  14   10.30    6.80
   4  -6 -14   28.20   10.50
   4  -6 -14   30.10    6.20
   3  -6 -14  111.59    9.80
   3  -6 -14  137.89   17.20
   2  -6 -14   -8.80    4.30
   2  -6 -14   -1.10    6.70
   1  -6 -14  127.19   14.70
   1  -6 -14  115.09   10.70
   0  -6 -14  190.08   13.40
   0  -6 -14  155.98   15.00
  -1  -6 -14   -3.20    6.60
   1   6  14    3.70    4.70
  -2  -6 -14   42.90   12.00
  -2  -6 -14   27.60    7.30
   2   6  14   30.00    6.20
  -3  -6 -14   83.99   13.20
   3   6  14   79.79    9.60
  -4  -6 -14   23.10    9.00
   4   6  14   25.00    6.80
  -5  -6 -14    5.60    7.10
   5   6  14   -1.50    5.00
  -6  -6 -14    1.10    5.90
   6   6  14    1.20    5.50
  -7  -6 -14    7.70    6.90
   7   6  14    2.80    5.70
  -8  -6 -14    3.00    6.80
   8   6  14   12.40    6.30
   4  -7 -14    4.90    8.10
   4  -7 -14    2.30    5.00
   3  -7 -14   93.89   10.00
   3  -7 -14   85.09   14.30
   2  -7 -14   67.59    9.20
   2  -7 -14   63.99   12.40
   1  -7 -14   -2.70    6.30
   1  -7 -14   14.00    6.70
   0  -7 -14  147.39   15.60
   0  -7 -14  168.08   15.70
  -1  -7 -14  165.78   13.50
  -2  -7 -14   -3.20    6.40
   2   7  14   12.40    5.30
  -3  -7 -14  116.09   14.80
   3   7  14   89.99    9.80
  -4  -7 -14  121.69   14.60
   4   7  14  130.69   11.20
  -5  -7 -14   23.30    7.70
   5   7  14    9.80    5.60
  -6  -7 -14   33.10    8.30
   6   7  14   14.30    6.20
  -7  -7 -14   97.19   11.70
   7   7  14   79.49   10.70
  -8  -7 -14   17.70    6.40
   8   7  14   16.30    7.30
   3  -8 -14   44.50   11.50
   3  -8 -14   21.80    7.30
   2  -8 -14   90.19   11.20
   2  -8 -14   80.69   13.50
   1  -8 -14   92.09   13.80
   1  -8 -14  100.59   11.50
   0  -8 -14   54.09    9.20
  -1  -8 -14  104.79   11.90
  -2  -8 -14  104.79   14.80
  -3  -8 -14   -8.70    5.50
   3   8  14    1.20    4.90
  -4  -8 -14   83.89   12.10
   4   8  14   76.49    9.90
  -5  -8 -14   78.89   11.20
   5   8  14   78.09   10.10
  -6  -8 -14   29.60    6.90
   6   8  14   17.80    6.90
  -7  -8 -14   12.00    5.60
   7   8  14    6.20    6.00
   8   8  14    9.60    6.80
   3  -9 -14  -11.60    6.60
   3  -9 -14    1.10    5.60
   2  -9 -14   97.49   11.60
   2  -9 -14  101.39   15.10
   1  -9 -14   55.89    9.50
   0  -9 -14  102.89   12.30
  -1  -9 -14   82.69   11.50
  -2  -9 -14  204.98   16.20
  -3  -9 -14   10.00    7.40
   3   9  14   18.10    6.20
  -4  -9 -14    3.70    6.10
   4   9  14    3.50    5.40
  -5  -9 -14   26.30    7.40
   5   9  14   27.80    6.90
  -6  -9 -14   19.60    5.80
   6   9  14    4.80    6.20
   7   9  14   -1.50    5.70
   2 -10 -14   16.10    8.80
   2 -10 -14   -6.30    5.70
   1 -10 -14  109.59   13.10
   0 -10 -14   44.90    9.10
  -1 -10 -14   -5.70    5.00
  -2 -10 -14   41.90    9.50
  -3 -10 -14  152.68   16.20
  -3 -10 -14  142.19   14.30
  -4 -10 -14   -3.70    5.50
   4  10  14    1.50    4.60
  -5 -10 -14   23.90    6.10
   5  10  14   17.60    6.90
  -6 -10 -14   75.79    7.00
   6  10  14   65.29   10.20
   7  10  14   14.10    6.90
   2 -11 -14   37.60    8.80
   1 -11 -14   -1.90    6.10
   0 -11 -14   75.39   11.50
  -1 -11 -14   41.70    9.40
  -2 -11 -14    3.00    7.20
  -3 -11 -14   61.59   10.80
  -3 -11 -14   75.49   11.00
  -4 -11 -14   81.39    9.60
  -4 -11 -14   80.39   12.40
  -5 -11 -14    5.20    4.20
   5  11  14   -1.20    5.20
   6  11  14    3.90    5.80
   7  11  14   27.30    8.20
   1 -12 -14   -1.60    6.70
   0 -12 -14   31.00    9.20
  -1 -12 -14  106.49   13.30
  -2 -12 -14   13.60    7.60
  -3 -12 -14   67.89   11.70
  -3 -12 -14   74.99   10.80
  -4 -12 -14  118.99   15.50
  -4 -12 -14  184.48   12.20
  -5 -12 -14   71.19   13.30
   6  12  14    4.80    6.30
  -1 -13 -14    4.00    7.40
  -2 -13 -14   15.80    8.00
  -3 -13 -14  -10.20    5.30
  -3 -13 -14   -4.10    6.50
  -4 -13 -14   20.60    7.50
  -4 -13 -14    9.30    8.00
  -5 -13 -14   12.60    8.70
   1  -1 -15   44.40    9.60
   1  -1 -15   67.79   15.40
   0  -1 -15   12.90   10.60
   0  -1 -15    0.60    5.60
   0   1  15    1.50    4.00
  -1  -1 -15   28.80   12.50
  -1  -1 -15   19.70    6.20
   1   1  15   23.10    5.80
  -2  -1 -15   10.60   10.40
  -2  -1 -15   25.50    5.40
   2   1  15   10.70    5.90
  -3  -1 -15    8.80   10.40
   3   1  15   -1.60    4.60
   2  -2 -15    7.40    3.90
   2  -2 -15   11.00    7.50
   2  -2 -15   -0.80    9.70
   1  -2 -15   57.79    7.60
   1  -2 -15   58.29   10.50
   1  -2 -15   61.09   15.00
   0  -2 -15   48.60   14.20
   0  -2 -15   72.39   12.30
   0   2  15   53.69    6.70
  -1  -2 -15   -7.60    8.90
  -1  -2 -15    2.90    4.80
   1   2  15   -1.90    4.30
  -2  -2 -15   65.19   14.70
  -2  -2 -15   55.79    7.80
   2   2  15   42.40    7.50
  -3  -2 -15   35.00    5.60
  -3  -2 -15   34.50   12.30
   3   2  15   37.00    7.20
  -4  -2 -15    1.80    9.10
   4   2  15    6.50    5.20
  -5  -2 -15   -3.10    9.20
   5   2  15   -3.00    5.10
   2  -3 -15   -1.20    3.80
   2  -3 -15   -1.90    9.10
   2  -3 -15    6.80    6.90
   1  -3 -15   95.79    9.30
   1  -3 -15   61.79   11.00
   1  -3 -15   73.79   15.60
   0  -3 -15  158.78   21.20
   0  -3 -15  159.18   14.10
  -1  -3 -15   23.00   11.70
  -1  -3 -15   29.20    7.30
   1   3  15   34.70    6.60
  -2  -3 -15    2.20    4.90
  -2  -3 -15   -1.30    9.30
   2   3  15   -9.90    3.90
  -3  -3 -15   28.10   11.30
  -3  -3 -15   53.59    7.20
   3   3  15   49.99    7.80
  -4  -3 -15   12.70   10.00
  -4  -3 -15   23.30    5.90
   4   3  15   18.90    6.40
  -5  -3 -15   -9.50    7.40
   5   3  15    2.50    5.40
   2  -4 -15   23.40    9.20
   2  -4 -15   17.70    5.60
   1  -4 -15   29.00    6.30
   1  -4 -15   30.20   11.30
   1  -4 -15   22.10    8.60
   0  -4 -15  108.39   12.90
   0  -4 -15   93.99   10.50
   0  -4 -15  105.09   17.70
  -1  -4 -15   57.49   13.00
  -1  -4 -15   63.69   10.10
   1   4  15   77.89   12.50
  -2  -4 -15   11.30    6.30
  -2  -4 -15    9.00    9.00
   2   4  15    9.30    5.00
  -3  -4 -15    8.70    8.60
  -3  -4 -15   16.90    6.10
   3   4  15   18.10    5.80
  -4  -4 -15   45.70   12.00
  -4  -4 -15   20.60    5.40
   4   4  15   35.60    7.30
  -5  -4 -15   43.10   11.90
  -5  -4 -15   39.10    8.70
   5   4  15   47.40    8.40
  -6  -4 -15    8.50    8.50
   6   4  15   -0.80    6.00
   2  -5 -15   17.80    8.40
   2  -5 -15    7.30    5.00
   1  -5 -15   29.30    8.70
   1  -5 -15   18.70    6.30
   0  -5 -15    3.30    5.30
   0  -5 -15   11.50    9.40
   0  -5 -15   -0.20    5.50
  -1  -5 -15  103.29   12.60
  -1  -5 -15  125.89   18.00
   1   5  15   96.99    9.30
  -2  -5 -15   67.89    9.80
  -2  -5 -15   46.90   12.00
   2   5  15   50.39    7.70
  -3  -5 -15   10.30    5.80
  -3  -5 -15   16.70    9.70
   3   5  15   14.60    5.60
  -4  -5 -15   25.50   10.10
  -4  -5 -15   23.60    6.30
   4   5  15   28.80    7.10
  -5  -5 -15   53.99    7.50
  -5  -5 -15   49.40   12.00
   5   5  15   39.90    8.40
  -6  -5 -15   -7.00    8.00
  -6  -5 -15    1.10    3.70
   6   5  15   -9.60    5.00
   2  -6 -15  128.99   15.80
   2  -6 -15  109.29   10.40
   1  -6 -15  155.68   15.50
   1  -6 -15  162.68   12.90
   0  -6 -15   16.40    6.60
   0  -6 -15   21.00    8.00
  -1  -6 -15   32.50   11.10
  -1  -6 -15   19.60    8.00
  -2  -6 -15  131.19   17.30
   2   6  15  141.69   11.20
  -3  -6 -15   50.79    9.30
  -3  -6 -15   55.69   12.50
   3   6  15   43.50    7.80
  -4  -6 -15    1.70    7.80
  -4  -6 -15    1.90    4.90
   4   6  15    1.40    5.50
  -5  -6 -15    8.50    8.10
   5   6  15   10.00    6.20
  -6  -6 -15  119.69   15.60
   6   6  15   84.09   11.10
   2  -7 -15   -5.20    7.20
   2  -7 -15   -4.80    4.70
   1  -7 -15   32.30    9.90
   1  -7 -15   31.50    7.60
   0  -7 -15   72.69   11.80
   0  -7 -15   88.89   10.80
  -1  -7 -15    3.80    7.60
  -1  -7 -15   15.30    7.70
  -1  -7 -15    5.60    6.00
  -2  -7 -15   41.00   11.20
  -2  -7 -15   28.90    8.10
   2   7  15   35.10    7.00
  -3  -7 -15  102.19   15.20
   3   7  15  134.09   11.80
   4   7  15   21.70    6.90
  -5  -7 -15   18.10    8.00
   5   7  15   27.50    7.30
  -6  -7 -15   27.20    9.10
   6   7  15   33.40    8.30
   2  -8 -15   68.29   13.40
   2  -8 -15   67.79    9.70
   1  -8 -15   10.90    6.70
   1  -8 -15   13.50    8.70
   0  -8 -15   90.39   13.80
   0  -8 -15  109.29   12.40
  -1  -8 -15   77.99   11.20
  -2  -8 -15    0.10    7.00
  -3  -8 -15   44.10   12.00
   3   8  15   33.20    7.30
  -4  -8 -15   42.80   10.30
   4   8  15   52.99    8.60
  -5  -8 -15   22.30    8.90
   5   8  15   34.90    8.40
  -6  -8 -15   -3.80    5.80
   6   8  15    6.10    6.10
   2  -9 -15   67.39   13.90
   2  -9 -15  109.59   12.30
   1  -9 -15   15.40    9.00
   1  -9 -15   23.30    8.10
   0  -9 -15   30.20    8.00
  -1  -9 -15  132.09   14.10
  -2  -9 -15   24.10    8.00
  -2  -9 -15   51.89   11.50
  -3  -9 -15   -1.90    6.70
   3   9  15    3.70    5.40
  -4  -9 -15   91.49   12.90
   4   9  15   68.29   10.00
  -5  -9 -15   29.60    7.80
   5   9  15   22.70    7.50
  -6  -9 -15  -13.20    4.90
   6   9  15    8.20    6.30
   1 -10 -15  102.89   15.20
   1 -10 -15  109.39   12.90
   0 -10 -15    1.50    6.30
  -1 -10 -15   32.70    8.60
  -2 -10 -15   43.10    9.80
  -3 -10 -15   23.00    8.60
  -3 -10 -15   29.50    9.00
  -4 -10 -15   10.10    7.10
   4  10  15   18.90    6.70
  -5 -10 -15   79.39   10.40
   5  10  15   67.49   10.20
  -6 -10 -15   25.90    6.90
   6  10  15   34.30    8.80
   0 -11 -15  108.49   13.80
  -1 -11 -15    0.60    6.80
  -2 -11 -15   65.39   11.70
  -3 -11 -15   66.19   11.30
  -3 -11 -15   77.29   12.70
  -4 -11 -15    4.80    7.00
  -4 -11 -15   10.80    6.50
  -5 -11 -15   34.40    7.30
   5  11  15   30.80    7.70
  -2 -12 -15   14.00    7.60
  -3 -12 -15   -2.90    6.80
  -3 -12 -15    7.20    7.60
  -4 -12 -15    2.00    6.90
  -1  -4 -16    1.70    9.10
  -1  -4 -16    7.20    6.50
   1   4  16    6.00    5.10
  -2  -4 -16   19.70    7.00
  -2  -4 -16    8.80    9.90
   2   4  16   15.10    6.00
  -3  -4 -16    3.50   10.60
  -3  -4 -16   18.50    6.30
   3   4  16   42.30    8.00
   0  -5 -16   22.80   11.90
   0  -5 -16   31.90    7.50
   0  -5 -16   29.70    9.50
  -1  -5 -16   48.50    9.90
  -1  -5 -16   31.20   12.00
  -2  -5 -16   17.10    8.00
  -2  -5 -16    4.60    9.10
   2   5  16   22.20    6.40
  -3  -5 -16   22.50    7.00
  -3  -5 -16   -0.90    9.40
   3   5  16   15.50    6.20
  -4  -5 -16   60.99   14.20
  -4  -5 -16   62.39    8.60
   4   5  16   80.89   10.00
   0  -6 -16   56.69   13.80
   0  -6 -16   31.40    7.80
   0  -6 -16   39.30   10.10
  -1  -6 -16   63.39   10.50
  -1  -6 -16   58.49   10.80
  -1  -6 -16   60.39   14.10
  -2  -6 -16   11.00    9.80
  -2  -6 -16   27.80    8.40
   2   6  16   42.30    7.60
  -3  -6 -16    5.50    9.40
   3   6  16    0.30    5.00
  -4  -6 -16   18.90   10.50
  -4  -6 -16    8.30    6.10
   4   6  16   11.00    6.40
   0  -7 -16   48.20   13.30
   0  -7 -16   44.60   10.90
   0  -7 -16   55.99    9.60
  -1  -7 -16   23.70    8.70
  -1  -7 -16   -9.10    7.80
  -1  -7 -16    3.30    6.40
  -2  -7 -16   70.89   14.40
  -2  -7 -16   64.69   11.40
   2   7  16   68.09    9.40
  -3  -7 -16   60.89   13.40
  -3  -7 -16   42.10    9.40
   3   7  16   49.40    8.60
  -4  -7 -16   -1.70    6.80
  -4  -7 -16  -11.30    8.00
   4   7  16    3.10    5.40
   0  -8 -16   68.39   10.40
   0  -8 -16   60.29   13.20
  -1  -8 -16   -2.20    6.80
  -1  -8 -16    5.30    6.40
  -1  -8 -16    7.10    9.40
  -2  -8 -16   28.60   10.90
  -2  -8 -16   57.29   10.80
  -2  -8 -16   24.70    8.60
  -3  -8 -16   46.30   12.40
   3   8  16   45.40    8.30
  -4  -8 -16    4.60    8.30
   4   8  16   18.20    7.00
  -1  -9 -16   69.69   11.30
  -1  -9 -16   59.49   12.40
  -1  -9 -16   91.09   15.20
  -2  -9 -16    6.50    9.40
  -2  -9 -16    8.40    7.70
  -3  -9 -16    3.90    8.10
   4   9  16   47.30    9.20
   0   0   0    0.00    0.00

_computing_structure_solution     'SHELXT 2014/5 (Sheldrick, 2014)'
;
_shelx_hkl_checksum              74692
_shelx_fab_file
;
    2    0    0     22.09      0.00
    3    0    0      1.36      0.00
    4    0    0      3.13      0.00
    5    0    0     -5.50      0.00
    6    0    0      2.37      0.00
    7    0    0      0.48      0.00
    8    0    0     -1.09      0.00
    9    0    0      0.47      0.00
   10    0    0      0.86      0.00
   11    0    0     -0.44      0.00
   12    0    0     -0.90      0.00
  -11    1    0     -0.97      0.00
  -10    1    0      1.98      0.00
   -9    1    0     -2.22      0.00
   -8    1    0      0.60      0.00
   -7    1    0      0.09      0.00
   -6    1    0      1.33      0.00
   -5    1    0     -2.32      0.00
   -4    1    0      1.41      0.00
   -3    1    0     -4.15      0.00
   -2    1    0     17.98      0.00
   -1    1    0    -34.61      0.00
    1    1    0      6.40      0.00
    2    1    0     -6.12      0.00
    3    1    0    -10.37      0.00
    4    1    0     14.71      0.00
    5    1    0     -9.47      0.00
    6    1    0      3.78      0.00
    7    1    0     -1.21      0.00
    8    1    0      1.45      0.00
    9    1    0     -1.40      0.00
   10    1    0      0.38      0.00
   11    1    0      0.60      0.00
   12    1    0     -0.17      0.00
  -11    2    0     -0.40      0.00
  -10    2    0      1.25      0.00
   -9    2    0     -0.40      0.00
   -8    2    0     -1.74      0.00
   -7    2    0      2.31      0.00
   -6    2    0     -0.84      0.00
   -5    2    0     -0.89      0.00
   -4    2    0     -2.24      0.00
   -3    2    0      6.40      0.00
   -2    2    0     -2.70      0.00
   -1    2    0    -11.03      0.00
    0    2    0     16.69      0.00
    1    2    0     -5.36      0.00
    2    2    0     -2.89      0.00
    3    2    0      1.32      0.00
    4    2    0      0.59      0.00
    5    2    0     -0.24      0.00
    6    2    0     -0.52      0.00
    7    2    0      1.21      0.00
    8    2    0     -1.12      0.00
    9    2    0      0.80      0.00
   10    2    0      0.65      0.00
   11    2    0     -1.29      0.00
   12    2    0      0.45      0.00
  -11    3    0      0.40      0.00
  -10    3    0     -0.48      0.00
   -9    3    0      0.58      0.00
   -8    3    0     -1.05      0.00
   -7    3    0      0.48      0.00
   -6    3    0      0.56      0.00
   -5    3    0      1.30      0.00
   -4    3    0     -6.51      0.00
   -3    3    0      7.69      0.00
   -2    3    0     -3.01      0.00
   -1    3    0     -0.67      0.00
    0    3    0     -2.55      0.00
    1    3    0      1.18      0.00
    2    3    0      7.03      0.00
    3    3    0     -8.96      0.00
    4    3    0      5.28      0.00
    5    3    0     -1.57      0.00
    6    3    0     -0.84      0.00
    7    3    0      0.49      0.00
    8    3    0      0.59      0.00
    9    3    0     -0.35      0.00
   10    3    0     -0.04      0.00
   11    3    0      0.26      0.00
   12    3    0     -0.01      0.00
  -11    4    0      0.45      0.00
  -10    4    0     -0.87      0.00
   -9    4    0      1.37      0.00
   -8    4    0     -1.73      0.00
   -7    4    0      0.74      0.00
   -6    4    0     -0.23      0.00
   -5    4    0      1.87      0.00
   -4    4    0     -2.92      0.00
   -3    4    0      0.66      0.00
   -2    4    0      1.83      0.00
   -1    4    0     -1.11      0.00
    0    4    0      1.97      0.00
    1    4    0     -4.46      0.00
    2    4    0     -2.28      0.00
    3    4    0      9.18      0.00
    4    4    0     -6.83      0.00
    5    4    0      2.29      0.00
    6    4    0      0.65      0.00
    7    4    0     -1.47      0.00
    8    4    0      0.37      0.00
    9    4    0     -0.25      0.00
   10    4    0      0.49      0.00
   11    4    0     -0.60      0.00
   12    4    0      0.71      0.00
  -10    5    0     -1.18      0.00
   -9    5    0      0.87      0.00
   -8    5    0     -0.19      0.00
   -7    5    0     -0.32      0.00
   -6    5    0     -0.10      0.00
   -5    5    0      0.39      0.00
   -4    5    0      0.98      0.00
   -3    5    0     -1.65      0.00
   -2    5    0      1.16      0.00
   -1    5    0     -3.59      0.00
    0    5    0      8.22      0.00
    1    5    0     -6.13      0.00
    2    5    0     -2.22      0.00
    3    5    0      4.96      0.00
    4    5    0     -2.55      0.00
    5    5    0      1.38      0.00
    6    5    0     -1.98      0.00
    7    5    0      2.27      0.00
    8    5    0     -1.13      0.00
    9    5    0     -0.62      0.00
   10    5    0      0.17      0.00
   11    5    0      0.15      0.00
  -10    6    0      0.19      0.00
   -9    6    0      0.02      0.00
   -8    6    0     -0.05      0.00
   -7    6    0      0.46      0.00
   -6    6    0     -1.31      0.00
   -5    6    0      0.83      0.00
   -4    6    0      1.01      0.00
   -3    6    0     -1.14      0.00
   -2    6    0      0.59      0.00
   -1    6    0     -0.88      0.00
    0    6    0     -0.89      0.00
    1    6    0      6.13      0.00
    2    6    0     -9.26      0.00
    3    6    0      5.85      0.00
    4    6    0     -1.04      0.00
    5    6    0      0.01      0.00
    6    6    0     -1.15      0.00
    7    6    0      1.91      0.00
    8    6    0     -1.39      0.00
    9    6    0      0.66      0.00
   10    6    0     -1.28      0.00
   11    6    0      0.94      0.00
   -9    7    0     -0.26      0.00
   -8    7    0     -0.01      0.00
   -7    7    0      0.76      0.00
   -6    7    0      0.04      0.00
   -5    7    0     -1.84      0.00
   -4    7    0      2.83      0.00
   -3    7    0     -1.90      0.00
   -2    7    0      1.32      0.00
   -1    7    0     -1.57      0.00
    0    7    0      0.61      0.00
    1    7    0      2.14      0.00
    2    7    0     -2.84      0.00
    3    7    0      1.16      0.00
    4    7    0     -1.34      0.00
    5    7    0      3.71      0.00
    6    7    0     -4.95      0.00
    7    7    0      2.85      0.00
    8    7    0      0.12      0.00
    9    7    0     -0.19      0.00
   10    7    0     -1.17      0.00
   11    7    0      0.95      0.00
   -9    8    0      1.04      0.00
   -8    8    0     -1.32      0.00
   -7    8    0      0.10      0.00
   -6    8    0      0.68      0.00
   -5    8    0     -1.01      0.00
   -4    8    0      1.05      0.00
   -3    8    0     -1.31      0.00
   -2    8    0      3.29      0.00
   -1    8    0     -4.22      0.00
    0    8    0      2.44      0.00
    1    8    0     -0.38      0.00
    2    8    0      1.02      0.00
    3    8    0     -2.44      0.00
    4    8    0      1.88      0.00
    5    8    0      0.47      0.00
    6    8    0     -1.72      0.00
    7    8    0      0.97      0.00
    8    8    0     -0.49      0.00
    9    8    0      0.80      0.00
   10    8    0     -0.76      0.00
   11    8    0      0.39      0.00
   -8    9    0     -0.15      0.00
   -7    9    0     -0.63      0.00
   -6    9    0      1.12      0.00
   -5    9    0     -1.71      0.00
   -4    9    0      2.14      0.00
   -3    9    0     -4.45      0.00
   -2    9    0      7.05      0.00
   -1    9    0     -5.50      0.00
    0    9    0      2.15      0.00
    1    9    0     -0.71      0.00
    2    9    0      1.18      0.00
    3    9    0     -1.29      0.00
    4    9    0     -0.15      0.00
    5    9    0      1.66      0.00
    6    9    0     -1.38      0.00
    7    9    0      0.16      0.00
    8    9    0      0.50      0.00
    9    9    0     -0.36      0.00
   10    9    0      0.05      0.00
   -7   10    0     -1.10      0.00
   -6   10    0      0.93      0.00
   -5   10    0     -0.19      0.00
   -4   10    0     -0.03      0.00
   -3   10    0     -0.83      0.00
   -2   10    0      0.68      0.00
   -1   10    0      0.86      0.00
    0   10    0     -1.25      0.00
    1   10    0     -0.06      0.00
    2   10    0      1.96      0.00
    3   10    0     -2.24      0.00
    4   10    0      0.79      0.00
    5   10    0      0.31      0.00
    6   10    0     -0.21      0.00
    7   10    0     -0.13      0.00
    8   10    0     -0.18      0.00
    9   10    0      0.11      0.00
   10   10    0      0.22      0.00
   -6   11    0     -0.12      0.00
   -5   11    0     -0.26      0.00
   -4   11    0      0.30      0.00
   -3   11    0      0.22      0.00
   -2   11    0     -0.93      0.00
    0   11    0     -0.72      0.00
    1   11    0     -0.36      0.00
    2   11    0      0.51      0.00
    3   11    0      0.52      0.00
    4   11    0     -0.79      0.00
    5   11    0      0.55      0.00
    6   11    0     -0.35      0.00
    7   11    0      0.10      0.00
    8   11    0     -0.10      0.00
    9   11    0      0.09      0.00
   -5   12    0     -0.27      0.00
   -4   12    0     -0.79      0.00
   -3   12    0      1.45      0.00
   -2   12    0     -1.78      0.00
   -1   12    0      1.57      0.00
    0   12    0     -0.40      0.00
    1   12    0     -0.33      0.00
    2   12    0     -0.32      0.00
    3   12    0      0.45      0.00
    4   12    0     -0.08      0.00
    5   12    0      0.11      0.00
    6   12    0     -0.23      0.00
    7   12    0      0.10      0.00
    8   12    0     -0.24      0.00
   -4   13    0      0.08      0.00
   -3   13    0     -0.10      0.00
   -2   13    0     -0.01      0.00
   -1   13    0     -0.01      0.00
    0   13    0      0.10      0.00
    1   13    0      0.51      0.00
    2   13    0     -0.91      0.00
    3   13    0      0.45      0.00
    4   13    0     -0.02      0.00
    5   13    0     -0.23      0.00
    6   13    0     -0.09      0.00
    7   13    0     -0.13      0.00
   -2   14    0      0.81      0.00
   -1   14    0     -0.88      0.00
    0   14    0      0.75      0.00
    1   14    0     -0.28      0.00
    2   14    0      0.17      0.00
    3   14    0     -0.61      0.00
    4   14    0      0.56      0.00
    5   14    0     -0.29      0.00
   -4  -14    1      0.46      0.00
   -3  -14    1     -0.48      0.00
   -2  -14    1     -0.21      0.00
   -1  -14    1      0.52      0.00
    0  -14    1     -0.87      0.00
    1  -14    1      0.42      0.00
   -6  -13    1      0.20      0.00
   -5  -13    1     -0.27      0.00
   -4  -13    1      0.54      0.00
   -3  -13    1     -0.35      0.00
   -2  -13    1      0.21      0.00
   -1  -13    1     -0.95      0.00
    0  -13    1      1.31      0.00
    1  -13    1     -1.36      0.00
    2  -13    1      0.82      0.00
    3  -13    1     -0.38      0.00
   -7  -12    1      0.43      0.00
   -6  -12    1     -0.67      0.00
   -5  -12    1      0.51      0.00
   -4  -12    1     -0.96      0.00
   -3  -12    1      1.17      0.00
   -2  -12    1     -0.30      0.00
    0  -12    1      0.24      0.00
    1  -12    1      0.68      0.00
    2  -12    1     -0.94      0.00
    3  -12    1     -0.31      0.00
    4  -12    1      1.28      0.00
    5  -12    1     -0.51      0.00
   -8  -11    1     -0.10      0.00
   -7  -11    1      0.43      0.00
   -6  -11    1     -0.43      0.00
   -5  -11    1     -0.09      0.00
   -4  -11    1      0.68      0.00
   -3  -11    1     -1.19      0.00
   -2  -11    1      1.13      0.00
   -1  -11    1     -0.20      0.00
    0  -11    1     -1.05      0.00
    1  -11    1      1.35      0.00
    2  -11    1     -0.58      0.00
    3  -11    1      0.12      0.00
    4  -11    1     -0.33      0.00
    5  -11    1      0.92      0.00
    6  -11    1     -1.10      0.00
   -9  -10    1     -1.21      0.00
   -8  -10    1      1.03      0.00
   -7  -10    1     -0.19      0.00
   -6  -10    1      0.02      0.00
   -5  -10    1     -0.98      0.00
   -4  -10    1      1.72      0.00
   -3  -10    1     -1.37      0.00
   -2  -10    1      0.50      0.00
   -1  -10    1     -0.09      0.00
    0  -10    1      1.22      0.00
    1  -10    1     -2.67      0.00
    2  -10    1      1.99      0.00
    3  -10    1     -0.30      0.00
    4  -10    1      0.35      0.00
    5  -10    1     -0.90      0.00
    6  -10    1      0.91      0.00
    7  -10    1     -0.43      0.00
  -10   -9    1     -0.13      0.00
   -9   -9    1      0.61      0.00
   -8   -9    1     -0.29      0.00
   -7   -9    1      0.13      0.00
   -6   -9    1      0.22      0.00
   -5   -9    1     -1.71      0.00
   -4   -9    1      3.03      0.00
   -3   -9    1     -2.72      0.00
   -2   -9    1      1.06      0.00
   -1   -9    1     -1.05      0.00
    0   -9    1      3.19      0.00
    1   -9    1     -3.72      0.00
    2   -9    1      1.83      0.00
    3   -9    1     -0.33      0.00
    4   -9    1      0.83      0.00
    5   -9    1     -1.40      0.00
    6   -9    1      1.21      0.00
    7   -9    1     -0.39      0.00
    8   -9    1      0.32      0.00
  -10   -8    1     -0.62      0.00
   -9   -8    1      0.16      0.00
   -8   -8    1      0.14      0.00
   -7   -8    1      1.00      0.00
   -6   -8    1     -1.07      0.00
   -5   -8    1     -0.24      0.00
   -4   -8    1      1.16      0.00
   -3   -8    1     -0.82      0.00
   -2   -8    1      0.55      0.00
   -1   -8    1     -2.76      0.00
    0   -8    1      5.56      0.00
    1   -8    1     -6.15      0.00
    2   -8    1      4.50      0.00
    3   -8    1     -2.17      0.00
    4   -8    1      0.99      0.00
    5   -8    1     -0.20      0.00
    6   -8    1     -0.47      0.00
    7   -8    1      0.41      0.00
    8   -8    1     -0.01      0.00
    9   -8    1      0.20      0.00
  -11   -7    1     -0.05      0.00
  -10   -7    1     -0.61      0.00
   -9   -7    1      0.84      0.00
   -8   -7    1     -1.73      0.00
   -7   -7    1      2.00      0.00
   -6   -7    1      0.25      0.00
   -5   -7    1     -3.01      0.00
   -4   -7    1      3.01      0.00
   -3   -7    1     -0.84      0.00
   -2   -7    1     -0.22      0.00
   -1   -7    1     -1.12      0.00
    0   -7    1      2.28      0.00
    1   -7    1     -0.96      0.00
    2   -7    1     -1.07      0.00
    3   -7    1      0.93      0.00
    4   -7    1     -0.07      0.00
    5   -7    1      0.61      0.00
    6   -7    1     -0.39      0.00
    7   -7    1     -0.39      0.00
    8   -7    1      0.25      0.00
    9   -7    1     -0.04      0.00
  -11   -6    1      0.59      0.00
  -10   -6    1      0.09      0.00
   -9   -6    1     -0.61      0.00
   -8   -6    1     -1.20      0.00
   -7   -6    1      2.40      0.00
   -6   -6    1     -1.24      0.00
   -5   -6    1      0.15      0.00
   -4   -6    1     -1.60      0.00
   -3   -6    1      2.90      0.00
   -2   -6    1     -0.81      0.00
   -1   -6    1     -2.88      0.00
    0   -6    1      2.85      0.00
    1   -6    1     -0.63      0.00
    2   -6    1      0.81      0.00
    3   -6    1     -2.37      0.00
    4   -6    1      1.76      0.00
    5   -6    1     -0.10      0.00
    6   -6    1     -0.30      0.00
    7   -6    1      0.09      0.00
    8   -6    1      0.25      0.00
    9   -6    1      0.21      0.00
   10   -6    1     -0.68      0.00
  -11   -5    1      0.46      0.00
  -10   -5    1      0.19      0.00
   -9   -5    1      0.51      0.00
   -8   -5    1     -1.01      0.00
   -7   -5    1     -0.85      0.00
   -6   -5    1      2.35      0.00
   -5   -5    1     -1.28      0.00
   -4   -5    1     -2.33      0.00
   -3   -5    1      3.21      0.00
   -2   -5    1      2.09      0.00
   -1   -5    1     -5.79      0.00
    0   -5    1      4.37      0.00
    1   -5    1     -3.86      0.00
    2   -5    1      3.24      0.00
    3   -5    1     -0.61      0.00
    4   -5    1     -1.92      0.00
    5   -5    1      1.86      0.00
    6   -5    1     -0.57      0.00
    7   -5    1     -0.02      0.00
    8   -5    1     -0.12      0.00
    9   -5    1      0.38      0.00
   10   -5    1     -0.26      0.00
  -11   -4    1      0.22      0.00
  -10   -4    1      0.18      0.00
   -9   -4    1     -0.13      0.00
   -8   -4    1     -0.09      0.00
   -7   -4    1      0.55      0.00
   -6   -4    1     -0.78      0.00
   -5   -4    1      0.65      0.00
   -4   -4    1      0.25      0.00
   -3   -4    1     -6.08      0.00
   -2   -4    1     13.70      0.00
   -1   -4    1    -13.47      0.00
    0   -4    1      7.05      0.00
    1   -4    1     -1.37      0.00
    2   -4    1     -2.43      0.00
    3   -4    1      3.73      0.00
    4   -4    1     -1.79      0.00
    5   -4    1     -1.28      0.00
    6   -4    1      1.30      0.00
    7   -4    1      0.16      0.00
    8   -4    1     -0.51      0.00
    9   -4    1      0.26      0.00
   10   -4    1     -0.67      0.00
   11   -4    1      0.21      0.00
  -11   -3    1      0.20      0.00
  -10   -3    1     -0.31      0.00
   -9   -3    1      0.42      0.00
   -8   -3    1     -0.10      0.00
   -7   -3    1     -0.36      0.00
   -6   -3    1      0.70      0.00
   -5   -3    1      0.34      0.00
   -4   -3    1     -1.27      0.00
   -3   -3    1     -0.06      0.00
   -2   -3    1      0.47      0.00
   -1   -3    1      5.39      0.00
    0   -3    1    -11.37      0.00
    1   -3    1     10.85      0.00
    2   -3    1     -7.87      0.00
    3   -3    1      5.01      0.00
    4   -3    1     -0.89      0.00
    5   -3    1     -1.24      0.00
    6   -3    1     -0.46      0.00
    7   -3    1      1.53      0.00
    8   -3    1     -0.71      0.00
    9   -3    1     -0.48      0.00
   10   -3    1      0.17      0.00
   11   -3    1     -0.01      0.00
  -11   -2    1     -0.22      0.00
  -10   -2    1      0.10      0.00
   -9   -2    1     -0.17      0.00
   -8   -2    1      0.22      0.00
   -7   -2    1     -0.28      0.00
   -6   -2    1      2.90      0.00
   -5   -2    1     -7.29      0.00
   -4   -2    1     11.00      0.00
   -3   -2    1     -9.42      0.00
   -2   -2    1     -0.60      0.00
   -1   -2    1      6.83      0.00
    0   -2    1     -2.66      0.00
    1   -2    1      4.13      0.00
    2   -2    1     -8.20      0.00
    3   -2    1      5.70      0.00
    4   -2    1     -1.23      0.00
    5   -2    1     -0.27      0.00
    6   -2    1     -0.54      0.00
    7   -2    1     -0.15      0.00
    8   -2    1      1.59      0.00
    9   -2    1     -1.80      0.00
   10   -2    1      0.49      0.00
   11   -2    1      0.09      0.00
  -11   -1    1     -1.34      0.00
  -10   -1    1      0.26      0.00
   -9   -1    1      0.77      0.00
   -8   -1    1     -0.05      0.00
   -7   -1    1     -1.78      0.00
   -6   -1    1      4.14      0.00
   -5   -1    1     -4.02      0.00
   -4   -1    1      0.29      0.00
   -3   -1    1      2.13      0.00
   -2   -1    1     15.55      0.00
   -1   -1    1    -53.31      0.00
    0   -1    1     56.25      0.00
    3   -1    1      0.54      0.00
    4   -1    1      3.61      0.00
    5   -1    1     -0.82      0.00
    6   -1    1     -2.44      0.00
    7   -1    1      1.10      0.00
    8   -1    1      0.96      0.00
    9   -1    1     -1.49      0.00
   10   -1    1      1.01      0.00
   11   -1    1      0.02      0.00
  -11    0    1      0.20      0.00
  -10    0    1      0.46      0.00
   -9    0    1     -1.57      0.00
   -8    0    1      2.23      0.00
   -7    0    1     -3.80      0.00
   -6    0    1      6.02      0.00
   -5    0    1     -7.16      0.00
   -4    0    1      8.26      0.00
   -3    0    1    -15.85      0.00
   -2    0    1     33.31      0.00
   -1    0    1    -40.63      0.00
    1    0    1     12.59      0.00
    2    0    1     -4.07      0.00
    3    0    1     -8.36      0.00
    4    0    1      6.79      0.00
    5    0    1     -1.51      0.00
    6    0    1     -0.60      0.00
    7    0    1     -0.38      0.00
    8    0    1      1.96      0.00
    9    0    1     -1.75      0.00
   10    0    1      0.31      0.00
   11    0    1      0.21      0.00
   12    0    1      0.54      0.00
  -11    1    1     -0.94      0.00
  -10    1    1      1.19      0.00
   -9    1    1      0.42      0.00
   -8    1    1     -0.53      0.00
   -7    1    1     -0.81      0.00
   -6    1    1      1.50      0.00
   -5    1    1     -0.04      0.00
   -4    1    1     -2.89      0.00
   -3    1    1     -6.22      0.00
   -2    1    1     39.30      0.00
   -1    1    1    -72.69      0.00
    1    1    1     -9.49      0.00
    2    1    1     -5.59      0.00
    3    1    1     -0.87      0.00
    4    1    1      2.25      0.00
    5    1    1      0.62      0.00
    6    1    1     -2.48      0.00
    7    1    1      2.07      0.00
    8    1    1     -1.45      0.00
    9    1    1      1.66      0.00
   10    1    1     -0.29      0.00
   11    1    1     -0.19      0.00
   12    1    1     -0.39      0.00
  -11    2    1     -0.46      0.00
  -10    2    1      0.30      0.00
   -9    2    1      0.35      0.00
   -8    2    1     -0.48      0.00
   -7    2    1     -0.54      0.00
   -6    2    1      0.77      0.00
   -5    2    1      2.06      0.00
   -4    2    1     -2.78      0.00
   -3    2    1     -5.99      0.00
   -2    2    1     11.13      0.00
   -1    2    1     13.10      0.00
    0    2    1    -53.34      0.00
    1    2    1     49.82      0.00
    2    2    1     -9.04      0.00
    4    2    1      7.38      0.00
    5    2    1     -0.42      0.00
    6    2    1     -1.91      0.00
    7    2    1      0.27      0.00
    8    2    1      1.34      0.00
    9    2    1     -1.13      0.00
   10    2    1      0.05      0.00
   11    2    1      1.15      0.00
   12    2    1     -0.66      0.00
  -11    3    1      1.36      0.00
  -10    3    1     -1.39      0.00
   -9    3    1      1.53      0.00
   -8    3    1     -1.38      0.00
   -7    3    1      0.22      0.00
   -6    3    1      0.12      0.00
   -5    3    1      1.20      0.00
   -4    3    1     -2.29      0.00
   -3    3    1      0.69      0.00
   -2    3    1     -1.04      0.00
   -1    3    1      4.94      0.00
    0    3    1     -1.76      0.00
    1    3    1     -5.92      0.00
    3    3    1      7.02      0.00
    4    3    1     -8.49      0.00
    5    3    1      5.90      0.00
    6    3    1     -2.33      0.00
    7    3    1      0.52      0.00
    8    3    1     -0.30      0.00
    9    3    1     -0.24      0.00
   10    3    1      0.46      0.00
   11    3    1     -0.28      0.00
   12    3    1     -0.04      0.00
  -11    4    1      0.99      0.00
  -10    4    1     -1.22      0.00
   -9    4    1      0.76      0.00
   -8    4    1      0.19      0.00
   -7    4    1     -0.75      0.00
   -6    4    1      0.00      0.00
   -5    4    1      1.52      0.00
   -4    4    1     -1.32      0.00
   -3    4    1     -2.36      0.00
   -2    4    1      6.50      0.00
   -1    4    1     -8.51      0.00
    0    4    1      8.67      0.00
    1    4    1     -5.57      0.00
    2    4    1      1.47      0.00
    3    4    1     -1.12      0.00
    4    4    1      0.98      0.00
    5    4    1     -0.22      0.00
    6    4    1      0.12      0.00
    7    4    1     -0.55      0.00
    8    4    1      1.38      0.00
    9    4    1     -1.44      0.00
   10    4    1     -0.26      0.00
   11    4    1      0.75      0.00
   12    4    1     -0.57      0.00
  -10    5    1     -0.13      0.00
   -9    5    1      0.19      0.00
   -8    5    1      0.01      0.00
   -7    5    1      0.08      0.00
   -6    5    1     -0.87      0.00
   -5    5    1      0.36      0.00
   -4    5    1      2.72      0.00
   -3    5    1     -5.18      0.00
   -2    5    1      5.47      0.00
   -1    5    1     -2.88      0.00
    0    5    1     -2.01      0.00
    1    5    1      8.75      0.00
    2    5    1    -12.99      0.00
    3    5    1      9.26      0.00
    4    5    1     -3.50      0.00
    5    5    1      0.47      0.00
    6    5    1      0.79      0.00
    7    5    1     -0.42      0.00
    8    5    1      0.21      0.00
    9    5    1     -0.29      0.00
   10    5    1     -0.22      0.00
   11    5    1     -0.64      0.00
   12    5    1      0.56      0.00
  -10    6    1      0.06      0.00
   -9    6    1     -0.29      0.00
   -8    6    1      0.71      0.00
   -7    6    1     -0.51      0.00
   -6    6    1      0.10      0.00
   -5    6    1     -1.67      0.00
   -4    6    1      3.05      0.00
   -3    6    1     -0.67      0.00
   -2    6    1     -1.35      0.00
   -1    6    1      1.65      0.00
    0    6    1     -3.76      0.00
    1    6    1      7.59      0.00
    2    6    1     -5.86      0.00
    3    6    1      0.56      0.00
    4    6    1      0.05      0.00
    5    6    1      2.34      0.00
    6    6    1     -3.47      0.00
    7    6    1      2.34      0.00
    8    6    1      0.10      0.00
    9    6    1     -0.37      0.00
   10    6    1     -0.67      0.00
   11    6    1     -0.12      0.00
   -9    7    1      0.47      0.00
   -8    7    1     -0.29      0.00
   -7    7    1     -0.29      0.00
   -6    7    1      0.09      0.00
   -5    7    1     -0.53      0.00
   -4    7    1      0.19      0.00
   -3    7    1      0.95      0.00
   -2    7    1     -0.50      0.00
   -1    7    1      1.32      0.00
    0    7    1     -5.47      0.00
    1    7    1      7.80      0.00
    2    7    1     -4.18      0.00
    3    7    1      0.66      0.00
    4    7    1     -1.02      0.00
    5    7    1      2.11      0.00
    6    7    1     -1.00      0.00
    7    7    1     -0.39      0.00
    8    7    1      0.29      0.00
    9    7    1      1.07      0.00
   10    7    1     -1.37      0.00
   11    7    1      0.15      0.00
   -9    8    1      0.33      0.00
   -8    8    1     -0.26      0.00
   -7    8    1      0.01      0.00
   -6    8    1      1.16      0.00
   -4    8    1      2.04      0.00
   -3    8    1     -2.09      0.00
   -2    8    1      2.03      0.00
   -1    8    1     -0.18      0.00
    0    8    1     -1.43      0.00
    1    8    1      0.96      0.00
    2    8    1      0.43      0.00
    3    8    1      0.75      0.00
    4    8    1     -4.14      0.00
    5    8    1      5.40      0.00
    6    8    1     -3.01      0.00
    7    8    1      0.34      0.00
    8    8    1      0.39      0.00
    9    8    1      0.49      0.00
   10    8    1     -0.84      0.00
   11    8    1      0.37      0.00
   -8    9    1     -1.43      0.00
   -7    9    1     -0.06      0.00
   -6    9    1      0.66      0.00
   -5    9    1     -0.40      0.00
   -4    9    1      0.38      0.00
   -3    9    1     -1.20      0.00
   -2    9    1      0.59      0.00
   -1    9    1      1.05      0.00
    0    9    1     -0.95      0.00
    1    9    1     -0.40      0.00
    2    9    1      1.09      0.00
    3    9    1      0.12      0.00
    4    9    1     -1.56      0.00
    5    9    1      1.21      0.00
    6    9    1      0.31      0.00
    7    9    1     -0.38      0.00
    8    9    1     -0.60      0.00
    9    9    1      0.48      0.00
   10    9    1     -0.22      0.00
   -7   10    1      0.57      0.00
   -6   10    1     -1.11      0.00
   -5   10    1      0.39      0.00
   -4   10    1      0.81      0.00
   -3   10    1     -2.27      0.00
   -2   10    1      1.45      0.00
   -1   10    1      0.69      0.00
    0   10    1     -0.97      0.00
    1   10    1     -0.08      0.00
    2   10    1     -0.32      0.00
    3   10    1      1.67      0.00
    4   10    1     -2.03      0.00
    5   10    1      1.30      0.00
    6   10    1     -0.45      0.00
    7   10    1      0.54      0.00
    8   10    1     -0.16      0.00
    9   10    1     -0.67      0.00
   10   10    1      0.37      0.00
   -7   11    1     -0.17      0.00
   -6   11    1     -0.27      0.00
   -5   11    1      0.89      0.00
   -4   11    1     -0.70      0.00
   -3   11    1      1.11      0.00
   -2   11    1     -3.53      0.00
   -1   11    1      3.96      0.00
    0   11    1     -1.55      0.00
    1   11    1      0.02      0.00
    2   11    1     -0.63      0.00
    3   11    1      1.05      0.00
    4   11    1     -0.92      0.00
    5   11    1      0.88      0.00
    6   11    1     -0.86      0.00
    7   11    1      0.56      0.00
    8   11    1     -0.20      0.00
    9   11    1     -0.06      0.00
   -6   12    1      0.44      0.00
   -5   12    1     -0.27      0.00
   -4   12    1      0.13      0.00
   -3   12    1      0.96      0.00
   -2   12    1     -1.71      0.00
   -1   12    1      0.38      0.00
    0   12    1      0.39      0.00
    1   12    1      0.52      0.00
    2   12    1     -1.69      0.00
    3   12    1      1.78      0.00
    4   12    1     -0.93      0.00
    5   12    1      0.42      0.00
    6   12    1     -0.18      0.00
    7   12    1     -0.20      0.00
    8   12    1     -0.30      0.00
   -4   13    1     -1.54      0.00
   -3   13    1      1.16      0.00
   -2   13    1     -0.78      0.00
   -1   13    1      0.25      0.00
    0   13    1      0.11      0.00
    1   13    1      0.24      0.00
    2   13    1     -0.56      0.00
    3   13    1     -0.13      0.00
    4   13    1      0.56      0.00
    5   13    1     -0.34      0.00
    6   13    1      0.46      0.00
    7   13    1     -0.64      0.00
   -3   14    1     -0.67      0.00
   -2   14    1      0.12      0.00
   -1   14    1      0.48      0.00
    0   14    1     -0.58      0.00
    1   14    1      0.84      0.00
    2   14    1     -0.48      0.00
    3   14    1      0.37      0.00
    4   14    1     -0.55      0.00
    5   14    1      0.29      0.00
    6   14    1     -0.41      0.00
    0   15    1      0.61      0.00
    1   15    1     -0.01      0.00
    2   15    1      0.00      0.00
    3   15    1     -0.23      0.00
    4   15    1      0.39      0.00
   -5  -13    2     -0.62      0.00
   -4  -13    2      0.92      0.00
   -3  -13    2     -0.56      0.00
   -2  -13    2      0.22      0.00
   -1  -13    2      0.01      0.00
    0  -13    2     -0.21      0.00
    1  -13    2     -0.35      0.00
    2  -13    2      0.83      0.00
   -7  -12    2      0.35      0.00
   -6  -12    2      0.02      0.00
   -5  -12    2      0.07      0.00
   -4  -12    2     -0.19      0.00
   -3  -12    2     -0.04      0.00
   -2  -12    2      0.72      0.00
   -1  -12    2     -1.08      0.00
    0  -12    2      0.84      0.00
    1  -12    2     -0.58      0.00
    2  -12    2      0.57      0.00
    3  -12    2     -1.33      0.00
    4  -12    2      1.41      0.00
   -8  -11    2     -0.05      0.00
   -7  -11    2      0.47      0.00
   -6  -11    2     -0.16      0.00
   -5  -11    2     -0.14      0.00
   -4  -11    2     -0.01      0.00
   -3  -11    2     -0.02      0.00
   -2  -11    2     -0.14      0.00
   -1  -11    2      0.73      0.00
    0  -11    2     -0.53      0.00
    1  -11    2      0.42      0.00
    2  -11    2     -0.52      0.00
    3  -11    2     -0.12      0.00
    4  -11    2     -0.06      0.00
    5  -11    2      1.01      0.00
    6  -11    2     -0.44      0.00
   -9  -10    2      0.04      0.00
   -8  -10    2     -0.33      0.00
   -7  -10    2      0.56      0.00
   -6  -10    2      0.04      0.00
   -5  -10    2     -0.96      0.00
   -4  -10    2      1.46      0.00
   -3  -10    2     -1.22      0.00
   -2  -10    2      0.00      0.00
   -1  -10    2     -0.01      0.00
    0  -10    2      1.16      0.00
    1  -10    2     -1.19      0.00
    2  -10    2      0.77      0.00
    3  -10    2     -0.65      0.00
    4  -10    2      0.34      0.00
    5  -10    2      0.03      0.00
    6  -10    2     -0.16      0.00
    7  -10    2      0.37      0.00
   -9   -9    2     -0.44      0.00
   -8   -9    2      0.55      0.00
   -7   -9    2      0.32      0.00
   -6   -9    2      0.42      0.00
   -5   -9    2     -1.52      0.00
   -4   -9    2      0.91      0.00
   -3   -9    2      0.60      0.00
   -2   -9    2     -0.09      0.00
   -1   -9    2     -2.87      0.00
    0   -9    2      4.62      0.00
    1   -9    2     -3.85      0.00
    2   -9    2      1.73      0.00
    3   -9    2     -0.27      0.00
    4   -9    2      0.77      0.00
    5   -9    2     -1.28      0.00
    6   -9    2      0.59      0.00
    7   -9    2      0.21      0.00
    8   -9    2     -0.36      0.00
  -10   -8    2     -1.32      0.00
   -9   -8    2      1.04      0.00
   -8   -8    2     -0.92      0.00
   -7   -8    2      0.51      0.00
   -6   -8    2      1.41      0.00
   -5   -8    2     -2.40      0.00
   -4   -8    2      1.38      0.00
   -3   -8    2     -0.52      0.00
   -2   -8    2      1.14      0.00
   -1   -8    2     -2.35      0.00
    0   -8    2      1.93      0.00
    1   -8    2      0.75      0.00
    2   -8    2     -3.07      0.00
    3   -8    2      2.51      0.00
    4   -8    2     -0.84      0.00
    5   -8    2      0.49      0.00
    6   -8    2     -0.69      0.00
    7   -8    2      0.33      0.00
    8   -8    2      0.58      0.00
  -10   -7    2     -0.04      0.00
   -9   -7    2     -0.63      0.00
   -8   -7    2      0.27      0.00
   -7   -7    2     -0.13      0.00
   -6   -7    2      0.67      0.00
   -5   -7    2      0.14      0.00
   -4   -7    2     -1.40      0.00
   -3   -7    2      1.49      0.00
   -2   -7    2     -0.38      0.00
   -1   -7    2     -1.52      0.00
    0   -7    2      1.08      0.00
    1   -7    2      0.95      0.00
    2   -7    2     -0.98      0.00
    3   -7    2     -0.11      0.00
    4   -7    2     -0.06      0.00
    6   -7    2     -1.17      0.00
    7   -7    2      0.70      0.00
    8   -7    2     -0.23      0.00
    9   -7    2      0.42      0.00
  -11   -6    2     -0.61      0.00
  -10   -6    2      0.65      0.00
   -9   -6    2      0.25      0.00
   -8   -6    2     -0.48      0.00
   -7   -6    2     -1.46      0.00
   -6   -6    2      3.47      0.00
   -5   -6    2     -3.17      0.00
   -4   -6    2      1.32      0.00
   -3   -6    2     -0.80      0.00
   -2   -6    2      2.01      0.00
   -1   -6    2     -1.97      0.00
    0   -6    2     -0.41      0.00
    1   -6    2      2.48      0.00
    2   -6    2     -2.80      0.00
    3   -6    2      1.96      0.00
    4   -6    2     -1.71      0.00
    5   -6    2      1.57      0.00
    6   -6    2     -0.22      0.00
    7   -6    2     -0.97      0.00
    8   -6    2      0.39      0.00
    9   -6    2      0.09      0.00
   10   -6    2      0.13      0.00
  -11   -5    2     -0.64      0.00
  -10   -5    2      0.96      0.00
   -9   -5    2     -0.65      0.00
   -8   -5    2      1.07      0.00
   -7   -5    2     -1.94      0.00
   -6   -5    2      1.85      0.00
   -5   -5    2     -0.34      0.00
   -4   -5    2      0.01      0.00
   -3   -5    2     -4.01      0.00
   -2   -5    2      7.75      0.00
   -1   -5    2     -6.73      0.00
    0   -5    2      3.65      0.00
    1   -5    2     -1.83      0.00
    2   -5    2      1.08      0.00
    3   -5    2     -0.24      0.00
    4   -5    2     -0.70      0.00
    5   -5    2      0.23      0.00
    6   -5    2      0.76      0.00
    7   -5    2     -0.69      0.00
    8   -5    2     -0.10      0.00
    9   -5    2      0.83      0.00
   10   -5    2     -0.89      0.00
  -11   -4    2     -0.16      0.00
  -10   -4    2      0.10      0.00
   -9   -4    2      0.08      0.00
   -8   -4    2      1.43      0.00
   -7   -4    2     -3.03      0.00
   -6   -4    2      3.14      0.00
   -5   -4    2     -2.29      0.00
   -4   -4    2      3.49      0.00
   -3   -4    2     -7.27      0.00
   -2   -4    2      7.53      0.00
   -1   -4    2     -2.29      0.00
    0   -4    2      0.71      0.00
    1   -4    2     -3.16      0.00
    2   -4    2      1.31      0.00
    3   -4    2      2.30      0.00
    4   -4    2     -2.01      0.00
    5   -4    2      0.15      0.00
    6   -4    2      0.32      0.00
    7   -4    2     -0.62      0.00
    8   -4    2      1.06      0.00
    9   -4    2     -0.96      0.00
   10   -4    2      0.39      0.00
  -11   -3    2      0.15      0.00
  -10   -3    2      0.03      0.00
   -9   -3    2     -0.21      0.00
   -8   -3    2     -0.08      0.00
   -7   -3    2      0.76      0.00
   -6   -3    2      0.34      0.00
   -5   -3    2     -3.16      0.00
   -4   -3    2      7.61      0.00
   -3   -3    2    -10.53      0.00
   -2   -3    2      5.81      0.00
   -1   -3    2      0.72      0.00
    0   -3    2     -1.53      0.00
    1   -3    2      3.69      0.00
    2   -3    2     -6.20      0.00
    3   -3    2      3.05      0.00
    4   -3    2      2.52      0.00
    5   -3    2     -3.58      0.00
    6   -3    2      1.13      0.00
    7   -3    2     -0.32      0.00
    8   -3    2      1.19      0.00
    9   -3    2     -1.17      0.00
   10   -3    2     -0.06      0.00
   11   -3    2      0.05      0.00
  -11   -2    2      0.52      0.00
  -10   -2    2     -0.70      0.00
   -9   -2    2      0.59      0.00
   -8   -2    2     -0.50      0.00
   -7   -2    2     -0.84      0.00
   -6   -2    2      2.50      0.00
   -5   -2    2     -1.85      0.00
   -4   -2    2     -0.19      0.00
   -3   -2    2      4.66      0.00
   -2   -2    2     -8.52      0.00
   -1   -2    2      8.00      0.00
    0   -2    2     -9.85      0.00
    1   -2    2     10.46      0.00
    2   -2    2     -2.54      0.00
    3   -2    2     -4.01      0.00
    4   -2    2      4.52      0.00
    5   -2    2     -0.62      0.00
    6   -2    2     -0.94      0.00
    7   -2    2     -1.31      0.00
    8   -2    2      2.59      0.00
    9   -2    2     -2.01      0.00
   10   -2    2      0.92      0.00
   11   -2    2     -0.61      0.00
  -11   -1    2      0.37      0.00
  -10   -1    2     -0.34      0.00
   -9   -1    2     -0.39      0.00
   -8   -1    2      1.10      0.00
   -7   -1    2     -2.53      0.00
   -6   -1    2      4.63      0.00
   -5   -1    2     -6.81      0.00
   -4   -1    2      7.90      0.00
   -3   -1    2     -8.13      0.00
   -2   -1    2     10.12      0.00
   -1   -1    2    -10.15      0.00
    0   -1    2      2.67      0.00
    1   -1    2      0.52      0.00
    2   -1    2      4.36      0.00
    3   -1    2     -3.97      0.00
    4   -1    2     -0.28      0.00
    5   -1    2      2.02      0.00
    6   -1    2      1.02      0.00
    7   -1    2     -3.77      0.00
    8   -1    2      3.32      0.00
    9   -1    2     -1.28      0.00
   10   -1    2     -0.62      0.00
   11   -1    2      1.21      0.00
  -11    0    2     -0.76      0.00
  -10    0    2     -0.48      0.00
   -9    0    2      0.92      0.00
   -8    0    2      0.63      0.00
   -7    0    2     -1.89      0.00
   -6    0    2      1.18      0.00
   -5    0    2      2.02      0.00
   -4    0    2     -3.46      0.00
   -3    0    2     -8.04      0.00
   -2    0    2     33.91      0.00
   -1    0    2    -46.05      0.00
    0    0    2     19.41      0.00
    1    0    2      6.19      0.00
    2    0    2     -2.64      0.00
    3    0    2     -2.97      0.00
    4    0    2      1.16      0.00
    5    0    2      1.61      0.00
    6    0    2     -1.19      0.00
    7    0    2     -0.98      0.00
    8    0    2      0.42      0.00
    9    0    2      1.52      0.00
   10    0    2     -1.58      0.00
   11    0    2      1.30      0.00
   12    0    2     -0.59      0.00
  -11    1    2      0.04      0.00
  -10    1    2     -0.43      0.00
   -9    1    2     -0.58      0.00
   -8    1    2      1.68      0.00
   -7    1    2     -1.67      0.00
   -6    1    2     -0.13      0.00
   -5    1    2      1.60      0.00
   -4    1    2      4.89      0.00
   -3    1    2    -17.59      0.00
   -2    1    2      8.84      0.00
   -1    1    2     40.65      0.00
    1    1    2     54.13      0.00
    2    1    2     -4.21      0.00
    3    1    2     -8.29      0.00
    4    1    2      0.91      0.00
    5    1    2      3.11      0.00
    6    1    2     -1.13      0.00
    7    1    2     -1.40      0.00
    8    1    2      0.98      0.00
    9    1    2      0.28      0.00
   10    1    2     -0.87      0.00
   11    1    2      0.84      0.00
   12    1    2      0.23      0.00
  -11    2    2      0.05      0.00
  -10    2    2     -0.45      0.00
   -9    2    2      0.87      0.00
   -8    2    2      0.03      0.00
   -7    2    2     -0.02      0.00
   -6    2    2     -1.86      0.00
   -5    2    2      3.39      0.00
   -4    2    2     -2.07      0.00
   -3    2    2      0.51      0.00
   -2    2    2     -8.72      0.00
   -1    2    2     20.83      0.00
    0    2    2    -15.39      0.00
    1    2    2     -2.65      0.00
    3    2    2      6.36      0.00
    4    2    2    -11.08      0.00
    5    2    2      7.80      0.00
    6    2    2     -3.37      0.00
    7    2    2      1.42      0.00
    8    2    2     -1.66      0.00
    9    2    2      1.77      0.00
   10    2    2     -0.84      0.00
   11    2    2      0.41      0.00
   12    2    2     -0.84      0.00
  -11    3    2      0.72      0.00
  -10    3    2     -1.07      0.00
   -9    3    2      0.56      0.00
   -8    3    2      0.81      0.00
   -7    3    2     -1.16      0.00
   -6    3    2     -0.18      0.00
   -5    3    2      1.68      0.00
   -4    3    2      1.00      0.00
   -3    3    2     -2.50      0.00
   -2    3    2    -11.19      0.00
   -1    3    2     33.39      0.00
    0    3    2    -37.29      0.00
    1    3    2     18.54      0.00
    2    3    2     -3.08      0.00
    3    3    2      1.23      0.00
    4    3    2     -3.16      0.00
    5    3    2      2.38      0.00
    6    3    2     -0.50      0.00
    7    3    2     -1.41      0.00
    8    3    2      2.01      0.00
    9    3    2     -0.99      0.00
   11    3    2      1.05      0.00
   12    3    2     -0.76      0.00
  -11    4    2      1.70      0.00
  -10    4    2     -1.24      0.00
   -9    4    2     -0.11      0.00
   -8    4    2      1.14      0.00
   -7    4    2     -0.91      0.00
   -6    4    2      0.25      0.00
   -5    4    2     -1.63      0.00
   -4    4    2      4.42      0.00
   -3    4    2     -3.45      0.00
   -2    4    2     -1.18      0.00
   -1    4    2      0.43      0.00
    0    4    2      8.57      0.00
    1    4    2     -7.54      0.00
    2    4    2     -5.87      0.00
    3    4    2     11.93      0.00
    4    4    2     -8.62      0.00
    5    4    2      2.59      0.00
    6    4    2      1.17      0.00
    7    4    2     -0.98      0.00
    8    4    2      0.13      0.00
    9    4    2      0.38      0.00
   10    4    2     -0.48      0.00
   11    4    2     -0.48      0.00
   12    4    2      0.04      0.00
  -10    5    2      0.10      0.00
   -9    5    2     -0.80      0.00
   -8    5    2      1.36      0.00
   -7    5    2     -0.58      0.00
   -6    5    2      0.43      0.00
   -5    5    2     -2.55      0.00
   -4    5    2      3.87      0.00
   -3    5    2     -3.77      0.00
   -2    5    2      4.50      0.00
   -1    5    2     -4.80      0.00
    0    5    2      1.64      0.00
    1    5    2      3.87      0.00
    2    5    2     -1.69      0.00
    3    5    2     -3.91      0.00
    4    5    2      4.18      0.00
    5    5    2     -2.70      0.00
    6    5    2      0.88      0.00
    7    5    2      0.06      0.00
    8    5    2      0.80      0.00
    9    5    2     -0.08      0.00
   10    5    2     -0.86      0.00
   11    5    2      0.60      0.00
   12    5    2     -1.17      0.00
  -10    6    2      0.70      0.00
   -9    6    2     -0.73      0.00
   -8    6    2      0.47      0.00
   -7    6    2      0.56      0.00
   -6    6    2     -0.19      0.00
   -5    6    2     -1.70      0.00
   -4    6    2      1.94      0.00
   -3    6    2     -1.10      0.00
   -2    6    2     -0.05      0.00
   -1    6    2      4.84      0.00
    0    6    2    -10.78      0.00
    1    6    2     10.69      0.00
    2    6    2     -4.74      0.00
    3    6    2      1.10      0.00
    4    6    2     -0.72      0.00
    5    6    2      0.29      0.00
    6    6    2      0.69      0.00
    7    6    2     -1.35      0.00
    8    6    2      0.96      0.00
    9    6    2      1.00      0.00
   10    6    2     -0.70      0.00
   11    6    2     -0.68      0.00
   12    6    2      0.11      0.00
   -9    7    2      0.09      0.00
   -8    7    2      0.17      0.00
   -7    7    2     -0.05      0.00
   -6    7    2      0.74      0.00
   -5    7    2     -1.74      0.00
   -4    7    2      0.33      0.00
   -3    7    2      1.97      0.00
   -2    7    2     -3.06      0.00
   -1    7    2      4.15      0.00
    0    7    2     -3.89      0.00
    1    7    2      0.43      0.00
    2    7    2      3.37      0.00
    3    7    2     -2.48      0.00
    4    7    2     -0.87      0.00
    5    7    2      1.85      0.00
    6    7    2     -0.46      0.00
    7    7    2     -0.97      0.00
    8    7    2      1.05      0.00
    9    7    2      0.29      0.00
   10    7    2      0.09      0.00
   11    7    2     -0.70      0.00
   -9    8    2      0.73      0.00
   -8    8    2      0.49      0.00
   -7    8    2     -1.32      0.00
   -6    8    2      0.35      0.00
   -5    8    2      0.75      0.00
   -4    8    2     -1.39      0.00
   -3    8    2      0.56      0.00
   -2    8    2     -0.36      0.00
   -1    8    2      1.64      0.00
    0    8    2     -2.13      0.00
    1    8    2      0.47      0.00
    2    8    2      0.72      0.00
    3    8    2      0.76      0.00
    4    8    2     -1.25      0.00
    5    8    2     -1.19      0.00
    6    8    2      3.25      0.00
    7    8    2     -1.85      0.00
    8    8    2     -0.38      0.00
    9    8    2      1.01      0.00
   10    8    2     -0.17      0.00
   11    8    2     -0.66      0.00
   -8    9    2      0.54      0.00
   -7    9    2      0.01      0.00
   -6    9    2      0.07      0.00
   -5    9    2     -0.69      0.00
   -4    9    2      0.87      0.00
   -3    9    2     -0.67      0.00
   -2    9    2     -1.47      0.00
   -1    9    2      2.39      0.00
    0    9    2     -0.69      0.00
    1    9    2     -0.69      0.00
    2    9    2     -0.50      0.00
    3    9    2      2.57      0.00
    4    9    2     -2.82      0.00
    5    9    2      0.57      0.00
    6    9    2      0.81      0.00
    7    9    2      0.11      0.00
    8    9    2     -0.20      0.00
    9    9    2      0.08      0.00
   10    9    2     -0.19      0.00
   11    9    2     -0.35      0.00
   -8   10    2     -1.10      0.00
   -7   10    2      1.11      0.00
   -6   10    2     -1.19      0.00
   -5   10    2      1.36      0.00
   -4   10    2     -1.13      0.00
   -3   10    2      2.34      0.00
   -2   10    2     -4.81      0.00
   -1   10    2      3.92      0.00
    0   10    2     -0.94      0.00
    1   10    2      0.10      0.00
    2   10    2     -1.16      0.00
    3   10    2      1.36      0.00
    4   10    2     -0.18      0.00
    5   10    2     -1.31      0.00
    6   10    2      1.18      0.00
    7   10    2     -0.25      0.00
    8   10    2      0.36      0.00
    9   10    2     -0.63      0.00
   10   10    2      0.20      0.00
   -7   11    2      1.82      0.00
   -6   11    2     -1.92      0.00
   -5   11    2      0.53      0.00
   -4   11    2      0.00      0.00
   -3   11    2      1.51      0.00
   -2   11    2     -2.25      0.00
   -1   11    2      0.75      0.00
    0   11    2     -0.11      0.00
    1   11    2      1.35      0.00
    2   11    2     -2.74      0.00
    3   11    2      2.22      0.00
    4   11    2     -1.05      0.00
    5   11    2      0.61      0.00
    6   11    2     -0.39      0.00
    7   11    2      0.22      0.00
    8   11    2      0.30      0.00
    9   11    2     -0.90      0.00
   10   11    2      0.58      0.00
   -6   12    2      0.01      0.00
   -5   12    2      0.90      0.00
   -4   12    2     -1.66      0.00
   -3   12    2      2.96      0.00
   -2   12    2     -2.72      0.00
   -1   12    2      0.72      0.00
    0   12    2      0.02      0.00
    1   12    2      1.14      0.00
    2   12    2     -1.64      0.00
    3   12    2      0.12      0.00
    4   12    2      0.59      0.00
    5   12    2     -0.25      0.00
    6   12    2      0.34      0.00
    7   12    2     -0.57      0.00
    8   12    2      0.49      0.00
    9   12    2     -0.40      0.00
   -5   13    2      0.61      0.00
   -4   13    2      0.16      0.00
   -3   13    2     -0.21      0.00
   -2   13    2      1.02      0.00
   -1   13    2     -1.55      0.00
    0   13    2      0.07      0.00
    1   13    2      1.05      0.00
    2   13    2     -0.23      0.00
    3   13    2     -0.34      0.00
    4   13    2      0.17      0.00
    5   13    2     -0.21      0.00
    6   13    2      0.74      0.00
    7   13    2     -0.99      0.00
    8   13    2      0.11      0.00
   -3   14    2      0.39      0.00
   -2   14    2     -0.70      0.00
   -1   14    2      0.07      0.00
    0   14    2      0.62      0.00
    1   14    2     -0.67      0.00
    2   14    2      0.45      0.00
    3   14    2     -0.11      0.00
    4   14    2     -0.07      0.00
    5   14    2      0.26      0.00
    6   14    2      0.32      0.00
    7   14    2     -0.58      0.00
   -1   15    2     -0.56      0.00
    0   15    2      0.25      0.00
    1   15    2      0.38      0.00
    2   15    2     -0.16      0.00
    3   15    2      0.45      0.00
    4   15    2     -0.74      0.00
    5   15    2      0.56      0.00
   -4  -13    3      0.07      0.00
   -3  -13    3     -0.10      0.00
   -2  -13    3      0.91      0.00
   -1  -13    3     -1.36      0.00
    0  -13    3      1.21      0.00
    1  -13    3     -0.84      0.00
   -6  -12    3      0.11      0.00
   -5  -12    3     -0.45      0.00
   -4  -12    3      0.52      0.00
   -3  -12    3     -0.32      0.00
   -2  -12    3      0.30      0.00
   -1  -12    3     -0.27      0.00
    0  -12    3      0.35      0.00
    1  -12    3     -0.03      0.00
    2  -12    3      0.45      0.00
    3  -12    3     -1.49      0.00
   -7  -11    3     -0.19      0.00
   -6  -11    3      0.84      0.00
   -5  -11    3     -0.74      0.00
   -4  -11    3      0.44      0.00
   -3  -11    3     -0.18      0.00
   -2  -11    3     -0.11      0.00
   -1  -11    3     -0.48      0.00
    0  -11    3      0.66      0.00
    1  -11    3      0.04      0.00
    2  -11    3      0.69      0.00
    3  -11    3     -1.64      0.00
    4  -11    3      0.80      0.00
    5  -11    3     -0.15      0.00
   -8  -10    3      0.07      0.00
   -7  -10    3     -0.08      0.00
   -6  -10    3      0.59      0.00
   -5  -10    3     -0.66      0.00
   -4  -10    3      0.52      0.00
   -3  -10    3      0.01      0.00
   -2  -10    3     -0.37      0.00
   -1  -10    3     -0.42      0.00
    0  -10    3      1.11      0.00
    1  -10    3     -0.83      0.00
    2  -10    3      0.15      0.00
    3  -10    3      0.29      0.00
    4  -10    3     -0.11      0.00
    5  -10    3     -0.44      0.00
    6  -10    3      0.57      0.00
   -9   -9    3      0.83      0.00
   -8   -9    3     -0.95      0.00
   -7   -9    3      0.38      0.00
   -6   -9    3      0.73      0.00
   -5   -9    3     -0.50      0.00
   -4   -9    3      0.04      0.00
   -3   -9    3     -0.51      0.00
   -2   -9    3      1.41      0.00
   -1   -9    3     -2.54      0.00
    0   -9    3      2.16      0.00
    1   -9    3     -0.18      0.00
    2   -9    3     -0.71      0.00
    3   -9    3     -0.17      0.00
    4   -9    3      0.90      0.00
    5   -9    3     -0.16      0.00
    6   -9    3     -0.98      0.00
    7   -9    3      0.64      0.00
   -9   -8    3     -0.80      0.00
   -8   -8    3      0.39      0.00
   -7   -8    3     -0.04      0.00
   -6   -8    3      0.37      0.00
   -5   -8    3      0.78      0.00
   -4   -8    3     -1.97      0.00
   -3   -8    3      1.59      0.00
   -2   -8    3      0.56      0.00
   -1   -8    3     -2.20      0.00
    0   -8    3      0.48      0.00
    1   -8    3      1.30      0.00
    2   -8    3     -0.98      0.00
    3   -8    3      0.24      0.00
    4   -8    3      0.20      0.00
    5   -8    3      0.30      0.00
    6   -8    3     -0.71      0.00
    7   -8    3     -0.01      0.00
    8   -8    3     -0.33      0.00
  -10   -7    3      0.60      0.00
   -9   -7    3     -1.31      0.00
   -8   -7    3      0.58      0.00
   -7   -7    3     -0.38      0.00
   -6   -7    3      0.77      0.00
   -5   -7    3      0.07      0.00
   -4   -7    3     -1.04      0.00
   -3   -7    3      0.72      0.00
   -2   -7    3     -0.39      0.00
   -1   -7    3      2.44      0.00
    0   -7    3     -5.83      0.00
    1   -7    3      6.80      0.00
    2   -7    3     -5.02      0.00
    3   -7    3      2.43      0.00
    4   -7    3     -0.88      0.00
    5   -7    3      0.66      0.00
    6   -7    3     -0.27      0.00
    7   -7    3     -0.05      0.00
    8   -7    3     -0.18      0.00
    9   -7    3     -0.26      0.00
  -10   -6    3      1.52      0.00
   -9   -6    3     -2.53      0.00
   -8   -6    3      2.70      0.00
   -7   -6    3     -2.27      0.00
   -6   -6    3      0.84      0.00
   -5   -6    3      1.20      0.00
   -4   -6    3     -1.70      0.00
   -3   -6    3      0.99      0.00
   -2   -6    3     -1.08      0.00
   -1   -6    3      1.54      0.00
    0   -6    3     -2.53      0.00
    1   -6    3      2.34      0.00
    2   -6    3     -0.30      0.00
    3   -6    3     -0.43      0.00
    4   -6    3     -0.51      0.00
    5   -6    3      0.70      0.00
    6   -6    3     -0.63      0.00
    7   -6    3      1.08      0.00
    8   -6    3     -1.48      0.00
    9   -6    3      1.43      0.00
  -10   -5    3      1.00      0.00
   -9   -5    3     -1.12      0.00
   -8   -5    3      2.70      0.00
   -7   -5    3     -3.85      0.00
   -6   -5    3      3.62      0.00
   -5   -5    3     -2.77      0.00
   -4   -5    3      3.20      0.00
   -3   -5    3     -4.17      0.00
   -2   -5    3      3.34      0.00
   -1   -5    3     -0.79      0.00
    0   -5    3     -0.86      0.00
    1   -5    3      1.12      0.00
    2   -5    3     -2.26      0.00
    3   -5    3      3.56      0.00
    4   -5    3     -3.09      0.00
    5   -5    3      1.21      0.00
    6   -5    3      0.65      0.00
    7   -5    3     -1.27      0.00
    8   -5    3      0.57      0.00
    9   -5    3      0.05      0.00
   10   -5    3     -0.23      0.00
  -11   -4    3     -0.75      0.00
  -10   -4    3      0.67      0.00
   -9   -4    3     -1.56      0.00
   -8   -4    3      2.57      0.00
   -7   -4    3     -1.82      0.00
   -6   -4    3      0.83      0.00
   -5   -4    3     -1.24      0.00
   -4   -4    3      4.48      0.00
   -3   -4    3     -6.96      0.00
   -2   -4    3      3.98      0.00
   -1   -4    3     -0.92      0.00
    0   -4    3      1.03      0.00
    1   -4    3      0.88      0.00
    2   -4    3     -2.83      0.00
    3   -4    3      1.27      0.00
    4   -4    3      0.94      0.00
    5   -4    3     -1.22      0.00
    6   -4    3      0.66      0.00
    7   -4    3     -0.31      0.00
    8   -4    3      0.25      0.00
    9   -4    3      0.45      0.00
   10   -4    3     -1.02      0.00
  -11   -3    3      0.22      0.00
  -10   -3    3     -0.03      0.00
   -9   -3    3     -0.83      0.00
   -8   -3    3      1.25      0.00
   -7   -3    3     -1.53      0.00
   -6   -3    3      2.42      0.00
   -5   -3    3     -3.56      0.00
   -4   -3    3      4.40      0.00
   -3   -3    3     -0.89      0.00
   -2   -3    3     -5.04      0.00
   -1   -3    3      5.91      0.00
    0   -3    3     -3.24      0.00
    1   -3    3      1.69      0.00
    2   -3    3     -0.31      0.00
    3   -3    3     -1.59      0.00
    4   -3    3      1.97      0.00
    5   -3    3      0.23      0.00
    6   -3    3     -0.65      0.00
    7   -3    3     -1.08      0.00
    8   -3    3      2.11      0.00
    9   -3    3     -1.19      0.00
   10   -3    3     -0.06      0.00
   11   -3    3      0.45      0.00
  -11   -2    3     -0.01      0.00
  -10   -2    3      0.36      0.00
   -9   -2    3     -0.42      0.00
   -8   -2    3     -0.16      0.00
   -7   -2    3     -0.05      0.00
   -6   -2    3      1.36      0.00
   -5   -2    3     -3.26      0.00
   -4   -2    3      3.61      0.00
   -3   -2    3     -0.63      0.00
   -2   -2    3     -1.50      0.00
   -1   -2    3     -1.15      0.00
    0   -2    3      2.79      0.00
    1   -2    3     -0.87      0.00
    2   -2    3      0.75      0.00
    3   -2    3     -2.43      0.00
    4   -2    3      2.53      0.00
    5   -2    3     -1.54      0.00
    6   -2    3      2.50      0.00
    7   -2    3     -2.83      0.00
    8   -2    3      2.02      0.00
    9   -2    3     -0.55      0.00
   10   -2    3     -0.43      0.00
   11   -2    3      0.10      0.00
  -11   -1    3      0.97      0.00
  -10   -1    3     -1.39      0.00
   -9   -1    3      0.66      0.00
   -8   -1    3      0.55      0.00
   -7   -1    3     -1.54      0.00
   -6   -1    3      0.87      0.00
   -5   -1    3      2.02      0.00
   -4   -1    3     -5.00      0.00
   -3   -1    3      4.37      0.00
   -2   -1    3      2.13      0.00
   -1   -1    3     -6.54      0.00
    0   -1    3      1.58      0.00
    1   -1    3     -2.20      0.00
    2   -1    3      7.90      0.00
    3   -1    3     -5.59      0.00
    4   -1    3      0.47      0.00
    5   -1    3      0.76      0.00
    6   -1    3      2.02      0.00
    7   -1    3     -2.95      0.00
    8   -1    3      1.22      0.00
    9   -1    3      0.26      0.00
   10   -1    3     -0.12      0.00
   11   -1    3     -0.42      0.00
  -11    0    3      0.86      0.00
  -10    0    3     -0.52      0.00
   -9    0    3     -1.04      0.00
   -8    0    3      1.46      0.00
   -7    0    3     -0.54      0.00
   -6    0    3     -0.49      0.00
   -5    0    3     -0.80      0.00
   -4    0    3      6.13      0.00
   -3    0    3    -11.39      0.00
   -2    0    3      6.33      0.00
   -1    0    3     10.74      0.00
    0    0    3    -16.36      0.00
    1    0    3     -0.97      0.00
    2    0    3      8.98      0.00
    3    0    3     -0.59      0.00
    4    0    3     -3.87      0.00
    5    0    3      0.42      0.00
    6    0    3      3.74      0.00
    7    0    3     -2.14      0.00
    8    0    3     -0.79      0.00
    9    0    3      1.27      0.00
   10    0    3     -1.02      0.00
   11    0    3      0.80      0.00
   12    0    3      0.03      0.00
  -11    1    3     -0.22      0.00
  -10    1    3     -0.33      0.00
   -9    1    3      0.64      0.00
   -8    1    3     -0.85      0.00
   -7    1    3      2.64      0.00
   -6    1    3     -5.02      0.00
   -5    1    3      6.32      0.00
   -4    1    3     -4.67      0.00
   -3    1    3      3.68      0.00
   -2    1    3    -10.22      0.00
   -1    1    3     16.47      0.00
    0    1    3     -9.52      0.00
    1    1    3     -2.16      0.00
    2    1    3      0.67      0.00
    3    1    3      4.42      0.00
    4    1    3     -2.93      0.00
    5    1    3      0.05      0.00
    6    1    3      0.33      0.00
    7    1    3      0.97      0.00
    8    1    3     -2.47      0.00
    9    1    3      2.34      0.00
   10    1    3     -1.17      0.00
   11    1    3      0.97      0.00
   12    1    3     -1.16      0.00
  -11    2    3      0.42      0.00
  -10    2    3     -0.40      0.00
   -9    2    3     -0.25      0.00
   -8    2    3      0.19      0.00
   -7    2    3      1.26      0.00
   -6    2    3     -2.76      0.00
   -5    2    3      2.46      0.00
   -4    2    3     -0.08      0.00
   -3    2    3     10.45      0.00
   -2    2    3    -43.33      0.00
    1    2    3     19.75      0.00
    2    2    3     -2.20      0.00
    3    2    3      3.46      0.00
    4    2    3     -4.08      0.00
    5    2    3      1.60      0.00
    6    2    3      0.75      0.00
    7    2    3     -0.98      0.00
    8    2    3     -0.24      0.00
    9    2    3      0.21      0.00
   10    2    3     -0.55      0.00
   11    2    3      1.17      0.00
   12    2    3     -1.01      0.00
  -11    3    3      0.40      0.00
  -10    3    3      0.22      0.00
   -9    3    3     -0.66      0.00
   -8    3    3      0.57      0.00
   -7    3    3      0.73      0.00
   -6    3    3     -1.07      0.00
   -5    3    3      0.35      0.00
   -4    3    3     -4.11      0.00
   -3    3    3     16.67      0.00
   -2    3    3    -24.79      0.00
   -1    3    3      6.67      0.00
    1    3    3    -24.48      0.00
    2    3    3     -2.60      0.00
    3    3    3     16.88      0.00
    4    3    3    -12.28      0.00
    5    3    3      3.41      0.00
    6    3    3     -0.11      0.00
    7    3    3      1.00      0.00
    8    3    3     -1.65      0.00
    9    3    3      1.41      0.00
   10    3    3     -0.82      0.00
   11    3    3     -0.01      0.00
   12    3    3     -0.11      0.00
  -10    4    3      1.21      0.00
   -9    4    3     -1.70      0.00
   -8    4    3      1.34      0.00
   -7    4    3     -0.35      0.00
   -6    4    3      0.86      0.00
   -5    4    3     -2.08      0.00
   -4    4    3      2.10      0.00
   -3    4    3      0.50      0.00
   -2    4    3     -4.19      0.00
   -1    4    3      4.51      0.00
    0    4    3     -5.60      0.00
    1    4    3     10.60      0.00
    2    4    3     -8.58      0.00
    3    4    3      1.27      0.00
    4    4    3      3.19      0.00
    5    4    3     -3.65      0.00
    6    4    3      1.49      0.00
    7    4    3     -0.76      0.00
    8    4    3      0.65      0.00
    9    4    3      0.45      0.00
   10    4    3     -0.40      0.00
   11    4    3     -0.01      0.00
   12    4    3     -0.57      0.00
  -10    5    3      0.88      0.00
   -9    5    3     -1.54      0.00
   -8    5    3      1.25      0.00
   -7    5    3     -0.58      0.00
   -6    5    3      1.49      0.00
   -5    5    3     -3.33      0.00
   -4    5    3      3.44      0.00
   -3    5    3     -1.14      0.00
   -2    5    3     -0.67      0.00
   -1    5    3      0.05      0.00
    0    5    3      0.07      0.00
    1    5    3      2.88      0.00
    2    5    3     -4.44      0.00
    3    5    3      3.73      0.00
    4    5    3     -1.81      0.00
    5    5    3      0.03      0.00
    6    5    3      0.07      0.00
    7    5    3      0.65      0.00
    8    5    3     -1.26      0.00
    9    5    3      1.54      0.00
   10    5    3      0.09      0.00
   11    5    3     -0.42      0.00
   12    5    3     -0.44      0.00
  -10    6    3     -0.34      0.00
   -9    6    3      0.07      0.00
   -8    6    3     -0.02      0.00
   -7    6    3     -0.13      0.00
   -6    6    3      1.38      0.00
   -5    6    3     -1.92      0.00
   -4    6    3     -0.43      0.00
   -3    6    3      2.49      0.00
   -2    6    3     -2.85      0.00
   -1    6    3      3.19      0.00
    0    6    3     -3.03      0.00
    1    6    3     -0.02      0.00
    2    6    3      5.39      0.00
    3    6    3     -6.11      0.00
    4    6    3      3.22      0.00
    5    6    3     -1.13      0.00
    6    6    3      0.03      0.00
    7    6    3      0.11      0.00
    8    6    3     -0.31      0.00
    9    6    3      0.50      0.00
   10    6    3      0.74      0.00
   11    6    3      0.02      0.00
   12    6    3     -0.71      0.00
   -9    7    3     -0.66      0.00
   -8    7    3      0.38      0.00
   -7    7    3      0.23      0.00
   -6    7    3      0.28      0.00
   -5    7    3     -0.06      0.00
   -4    7    3     -1.42      0.00
   -3    7    3      1.53      0.00
   -2    7    3     -2.12      0.00
   -1    7    3      3.41      0.00
    0    7    3     -2.16      0.00
    1    7    3     -1.79      0.00
    2    7    3      2.73      0.00
    3    7    3      0.26      0.00
    4    7    3     -1.17      0.00
    5    7    3     -0.62      0.00
    6    7    3      2.22      0.00
    7    7    3     -1.53      0.00
    8    7    3     -0.57      0.00
    9    7    3      1.33      0.00
   10    7    3      0.25      0.00
   11    7    3     -0.56      0.00
   -9    8    3     -0.50      0.00
   -8    8    3     -0.01      0.00
   -7    8    3      0.79      0.00
   -6    8    3     -0.44      0.00
   -5    8    3      0.24      0.00
   -4    8    3     -0.37      0.00
   -3    8    3      0.68      0.00
   -2    8    3     -1.51      0.00
   -1    8    3      0.02      0.00
    1    8    3     -5.85      0.00
    2    8    3      3.86      0.00
    3    8    3     -0.94      0.00
    4    8    3      0.41      0.00
    5    8    3     -1.54      0.00
    6    8    3      1.29      0.00
    7    8    3     -0.24      0.00
    8    8    3      0.12      0.00
    9    8    3     -0.24      0.00
   10    8    3      0.82      0.00
   11    8    3     -0.56      0.00
   -8    9    3      0.65      0.00
   -7    9    3     -0.55      0.00
   -6    9    3     -0.75      0.00
   -5    9    3      1.94      0.00
   -4    9    3     -1.63      0.00
   -3    9    3      0.98      0.00
   -2    9    3     -0.88      0.00
   -1    9    3     -0.41      0.00
    0    9    3      1.49      0.00
    1    9    3     -1.03      0.00
    2    9    3     -0.30      0.00
    3    9    3      0.09      0.00
    4    9    3      2.62      0.00
    5    9    3     -4.75      0.00
    6    9    3      3.15      0.00
    7    9    3     -0.75      0.00
    8    9    3      0.10      0.00
    9    9    3      0.14      0.00
   10    9    3     -0.14      0.00
   11    9    3     -0.32      0.00
   -8   10    3      0.16      0.00
   -7   10    3      1.11      0.00
   -6   10    3     -0.95      0.00
   -5   10    3      0.24      0.00
   -4   10    3     -0.27      0.00
   -2   10    3     -1.97      0.00
   -1   10    3      0.22      0.00
    0   10    3      0.33      0.00
    1   10    3      1.00      0.00
    2   10    3     -1.65      0.00
    3   10    3      0.15      0.00
    4   10    3      1.34      0.00
    5   10    3     -1.35      0.00
    6   10    3     -0.05      0.00
    7   10    3      0.50      0.00
    8   10    3      0.38      0.00
    9   10    3      0.23      0.00
   10   10    3     -1.04      0.00
   -7   11    3      0.76      0.00
   -6   11    3     -0.74      0.00
   -5   11    3      1.32      0.00
   -4   11    3     -2.11      0.00
   -3   11    3      3.61      0.00
   -2   11    3     -3.30      0.00
   -1   11    3      1.44      0.00
    0   11    3     -0.70      0.00
    1   11    3      1.00      0.00
    2   11    3     -0.21      0.00
    3   11    3     -1.40      0.00
    4   11    3      1.72      0.00
    5   11    3     -1.29      0.00
    6   11    3      0.52      0.00
    7   11    3     -0.55      0.00
    8   11    3      0.80      0.00
    9   11    3     -0.05      0.00
   10   11    3     -0.61      0.00
   -6   12    3     -0.67      0.00
   -5   12    3      0.04      0.00
   -4   12    3     -0.39      0.00
   -3   12    3      0.67      0.00
   -2   12    3      1.24      0.00
   -1   12    3     -1.86      0.00
    0   12    3      0.19      0.00
    1   12    3      1.09      0.00
    2   12    3     -0.75      0.00
    3   12    3      0.24      0.00
    4   12    3     -0.30      0.00
    5   12    3      0.12      0.00
    6   12    3      0.54      0.00
    7   12    3     -0.18      0.00
    8   12    3     -0.66      0.00
    9   12    3      0.26      0.00
   -5   13    3      0.41      0.00
   -4   13    3     -0.52      0.00
   -3   13    3      0.41      0.00
   -2   13    3      0.36      0.00
   -1   13    3      0.03      0.00
    0   13    3     -0.87      0.00
    1   13    3      0.65      0.00
    2   13    3      0.37      0.00
    3   13    3     -1.06      0.00
    4   13    3      0.87      0.00
    5   13    3     -0.75      0.00
    6   13    3      0.95      0.00
    7   13    3     -0.09      0.00
    8   13    3     -0.28      0.00
   -3   14    3     -0.38      0.00
   -2   14    3      1.17      0.00
   -1   14    3     -0.24      0.00
    0   14    3     -1.33      0.00
    1   14    3      0.33      0.00
    2   14    3      1.45      0.00
    3   14    3     -0.96      0.00
    4   14    3      0.11      0.00
    5   14    3     -0.02      0.00
    6   14    3      0.14      0.00
    7   14    3      0.10      0.00
   -2   15    3      0.16      0.00
   -1   15    3     -0.69      0.00
    0   15    3      1.04      0.00
    1   15    3     -1.37      0.00
    2   15    3      0.84      0.00
    3   15    3     -0.26      0.00
    4   15    3      0.33      0.00
    5   15    3      0.08      0.00
    6   15    3      0.09      0.00
   -4  -12    4     -0.27      0.00
   -3  -12    4      0.13      0.00
   -2  -12    4      0.39      0.00
   -1  -12    4     -0.72      0.00
    0  -12    4      0.16      0.00
    1  -12    4      0.56      0.00
    2  -12    4      0.16      0.00
   -6  -11    4      0.22      0.00
   -5  -11    4     -0.51      0.00
   -4  -11    4      0.47      0.00
   -3  -11    4      0.39      0.00
   -2  -11    4     -0.78      0.00
   -1  -11    4      0.41      0.00
    0  -11    4     -0.50      0.00
    1  -11    4      0.48      0.00
    2  -11    4      0.55      0.00
    3  -11    4     -0.91      0.00
    4  -11    4      0.28      0.00
   -7  -10    4     -0.56      0.00
   -6  -10    4      1.05      0.00
   -5  -10    4     -0.78      0.00
   -4  -10    4      0.24      0.00
   -3  -10    4      0.32      0.00
   -2  -10    4      0.13      0.00
   -1  -10    4     -1.49      0.00
    0  -10    4      1.00      0.00
    1  -10    4     -0.08      0.00
    2  -10    4      0.73      0.00
    3  -10    4     -1.24      0.00
    4  -10    4      1.23      0.00
    5  -10    4     -1.34      0.00
    6  -10    4      0.78      0.00
   -8   -9    4     -0.16      0.00
   -7   -9    4     -0.54      0.00
   -6   -9    4      0.98      0.00
   -5   -9    4     -0.23      0.00
   -4   -9    4      0.07      0.00
   -3   -9    4     -0.37      0.00
   -2   -9    4      1.54      0.00
   -1   -9    4     -2.01      0.00
    0   -9    4      0.52      0.00
    1   -9    4      0.11      0.00
    2   -9    4     -0.32      0.00
    3   -9    4      0.51      0.00
    4   -9    4      0.21      0.00
    5   -9    4     -0.15      0.00
    6   -9    4     -0.20      0.00
    7   -9    4     -0.22      0.00
   -9   -8    4      0.03      0.00
   -8   -8    4     -0.94      0.00
   -7   -8    4      0.23      0.00
   -6   -8    4      0.24      0.00
   -5   -8    4      0.86      0.00
   -4   -8    4     -0.75      0.00
   -3   -8    4     -0.71      0.00
   -2   -8    4      1.20      0.00
   -1   -8    4      0.62      0.00
    0   -8    4     -2.76      0.00
    1   -8    4      2.88      0.00
    2   -8    4     -1.74      0.00
    3   -8    4      0.14      0.00
    4   -8    4      0.24      0.00
    5   -8    4      0.78      0.00
    6   -8    4     -0.22      0.00
    7   -8    4     -0.88      0.00
    8   -8    4      0.63      0.00
   -9   -7    4     -1.46      0.00
   -8   -7    4      0.32      0.00
   -7   -7    4      0.00      0.00
   -6   -7    4     -0.96      0.00
   -5   -7    4      2.44      0.00
   -4   -7    4     -2.08      0.00
   -3   -7    4      1.76      0.00
   -2   -7    4     -2.69      0.00
   -1   -7    4      3.74      0.00
    0   -7    4     -4.03      0.00
    1   -7    4      1.85      0.00
    2   -7    4      0.61      0.00
    3   -7    4     -1.09      0.00
    4   -7    4      0.50      0.00
    5   -7    4      0.20      0.00
    6   -7    4     -0.05      0.00
    7   -7    4      0.09      0.00
    8   -7    4     -0.93      0.00
  -10   -6    4      1.00      0.00
   -9   -6    4     -1.57      0.00
   -8   -6    4      1.13      0.00
   -7   -6    4     -0.59      0.00
   -6   -6    4      0.30      0.00
   -5   -6    4     -0.16      0.00
   -4   -6    4      0.31      0.00
   -3   -6    4      0.35      0.00
   -2   -6    4     -2.14      0.00
   -1   -6    4      4.97      0.00
    0   -6    4     -6.10      0.00
    1   -6    4      3.85      0.00
    2   -6    4     -2.10      0.00
    3   -6    4      1.68      0.00
    4   -6    4     -1.26      0.00
    5   -6    4      0.48      0.00
    6   -6    4      0.59      0.00
    7   -6    4     -0.24      0.00
    8   -6    4     -0.37      0.00
    9   -6    4     -0.13      0.00
  -10   -5    4      1.21      0.00
   -9   -5    4     -2.38      0.00
   -8   -5    4      2.22      0.00
   -7   -5    4     -0.97      0.00
   -6   -5    4     -0.01      0.00
   -5   -5    4      0.31      0.00
   -4   -5    4      0.52      0.00
   -3   -5    4     -0.28      0.00
   -2   -5    4     -1.44      0.00
   -1   -5    4      1.57      0.00
    0   -5    4     -0.08      0.00
    1   -5    4     -1.14      0.00
    2   -5    4      1.24      0.00
    3   -5    4     -0.27      0.00
    4   -5    4     -0.38      0.00
    5   -5    4     -0.25      0.00
    6   -5    4      0.34      0.00
    7   -5    4      0.60      0.00
    8   -5    4     -1.25      0.00
    9   -5    4      2.07      0.00
   10   -5    4     -1.58      0.00
  -10   -4    4      1.33      0.00
   -9   -4    4     -1.84      0.00
   -8   -4    4      1.31      0.00
   -7   -4    4     -0.91      0.00
   -6   -4    4      1.61      0.00
   -5   -4    4     -2.73      0.00
   -4   -4    4      3.59      0.00
   -3   -4    4     -1.37      0.00
   -2   -4    4     -1.44      0.00
   -1   -4    4      1.74      0.00
    0   -4    4     -1.48      0.00
    1   -4    4      1.96      0.00
    2   -4    4     -2.55      0.00
    3   -4    4      2.17      0.00
    4   -4    4     -1.00      0.00
    5   -4    4      0.26      0.00
    6   -4    4     -0.03      0.00
    7   -4    4     -0.20      0.00
    8   -4    4      0.36      0.00
    9   -4    4      0.10      0.00
   10   -4    4     -0.29      0.00
  -11   -3    4     -0.37      0.00
  -10   -3    4      1.16      0.00
   -9   -3    4     -0.71      0.00
   -8   -3    4     -0.80      0.00
   -7   -3    4      1.40      0.00
   -6   -3    4     -0.88      0.00
   -5   -3    4     -0.07      0.00
   -4   -3    4      0.16      0.00
   -3   -3    4      2.30      0.00
   -2   -3    4     -3.88      0.00
   -1   -3    4      2.14      0.00
    0   -3    4     -2.31      0.00
    1   -3    4      4.65      0.00
    2   -3    4     -2.15      0.00
    3   -3    4     -2.87      0.00
    4   -3    4      3.57      0.00
    5   -3    4     -1.18      0.00
    6   -3    4     -0.15      0.00
    7   -3    4      0.02      0.00
    8   -3    4      0.33      0.00
    9   -3    4      1.04      0.00
   10   -3    4     -1.66      0.00
   11   -3    4      0.62      0.00
  -11   -2    4      0.27      0.00
  -10   -2    4     -0.16      0.00
   -9   -2    4      0.26      0.00
   -8   -2    4     -0.36      0.00
   -7   -2    4     -0.43      0.00
   -6   -2    4      0.96      0.00
   -5   -2    4      0.43      0.00
   -4   -2    4     -3.92      0.00
   -3   -2    4      7.28      0.00
   -2   -2    4     -5.18      0.00
   -1   -2    4      1.06      0.00
    0   -2    4     -1.77      0.00
    1   -2    4     -0.17      0.00
    2   -2    4      5.07      0.00
    3   -2    4     -4.65      0.00
    4   -2    4      0.34      0.00
    5   -2    4      1.59      0.00
    6   -2    4      0.34      0.00
    7   -2    4     -1.87      0.00
    8   -2    4      1.19      0.00
    9   -2    4      0.64      0.00
   10   -2    4     -0.78      0.00
   11   -2    4      0.31      0.00
  -11   -1    4     -0.32      0.00
  -10   -1    4      0.88      0.00
   -9   -1    4     -0.91      0.00
   -8   -1    4      0.31      0.00
   -7   -1    4      0.22      0.00
   -6   -1    4     -0.87      0.00
   -5   -1    4      0.78      0.00
   -4   -1    4      0.40      0.00
   -3   -1    4     -3.30      0.00
   -2   -1    4      7.58      0.00
   -1   -1    4     -8.85      0.00
    0   -1    4      8.20      0.00
    1   -1    4     -8.21      0.00
    2   -1    4      3.12      0.00
    3   -1    4      2.79      0.00
    4   -1    4     -2.88      0.00
    5   -1    4     -1.28      0.00
    6   -1    4      3.36      0.00
    7   -1    4     -0.91      0.00
    8   -1    4     -1.43      0.00
    9   -1    4      2.21      0.00
   10   -1    4     -1.65      0.00
   11   -1    4      0.72      0.00
  -11    0    4      0.15      0.00
  -10    0    4     -0.45      0.00
   -9    0    4      0.30      0.00
   -8    0    4     -0.38      0.00
   -7    0    4      1.56      0.00
   -6    0    4     -3.19      0.00
   -5    0    4      4.64      0.00
   -4    0    4     -4.04      0.00
   -3    0    4      1.67      0.00
   -2    0    4     -0.27      0.00
   -1    0    4     -0.05      0.00
    0    0    4      1.37      0.00
    1    0    4     -3.03      0.00
    2    0    4      0.29      0.00
    3    0    4      1.80      0.00
    4    0    4     -0.06      0.00
    5    0    4     -1.68      0.00
    6    0    4      0.45      0.00
    7    0    4      1.70      0.00
    8    0    4     -2.42      0.00
    9    0    4      1.81      0.00
   10    0    4     -0.45      0.00
   11    0    4     -0.23      0.00
  -11    1    4      0.40      0.00
  -10    1    4      0.01      0.00
   -9    1    4     -0.58      0.00
   -8    1    4     -0.79      0.00
   -7    1    4      2.85      0.00
   -6    1    4     -3.05      0.00
   -5    1    4      0.53      0.00
   -4    1    4      2.05      0.00
   -3    1    4      5.98      0.00
   -2    1    4    -23.65      0.00
   -1    1    4     31.30      0.00
    0    1    4    -16.86      0.00
    1    1    4     -0.63      0.00
    2    1    4      1.29      0.00
    3    1    4      2.15      0.00
    4    1    4     -0.66      0.00
    5    1    4     -1.68      0.00
    6    1    4      0.79      0.00
    7    1    4      1.88      0.00
    8    1    4     -1.84      0.00
    9    1    4     -0.23      0.00
   10    1    4      0.29      0.00
   11    1    4      0.81      0.00
   12    1    4     -1.17      0.00
  -11    2    4     -0.53      0.00
  -10    2    4      0.45      0.00
   -9    2    4      0.70      0.00
   -8    2    4     -2.31      0.00
   -7    2    4      3.53      0.00
   -6    2    4     -3.43      0.00
   -5    2    4      5.07      0.00
   -4    2    4    -12.76      0.00
   -3    2    4     25.31      0.00
   -2    2    4    -25.55      0.00
   -1    2    4      1.00      0.00
    0    2    4     23.12      0.00
    2    2    4     -5.31      0.00
    3    2    4      8.04      0.00
    4    2    4     -1.03      0.00
    5    2    4     -1.77      0.00
    6    2    4     -0.81      0.00
    7    2    4      2.42      0.00
    8    2    4     -1.27      0.00
    9    2    4     -0.02      0.00
   10    2    4     -0.19      0.00
   11    2    4      0.89      0.00
   12    2    4     -1.46      0.00
  -10    3    4      0.52      0.00
   -9    3    4     -0.33      0.00
   -8    3    4     -0.28      0.00
   -7    3    4      0.54      0.00
   -6    3    4     -0.05      0.00
   -5    3    4      1.61      0.00
   -4    3    4     -6.58      0.00
   -3    3    4     15.49      0.00
   -2    3    4    -19.43      0.00
   -1    3    4     11.80      0.00
    0    3    4     -6.45      0.00
    1    3    4     10.84      0.00
    2    3    4    -10.45      0.00
    3    3    4      2.73      0.00
    4    3    4      2.46      0.00
    5    3    4     -2.62      0.00
    6    3    4      1.63      0.00
    7    3    4     -1.40      0.00
    8    3    4      1.02      0.00
    9    3    4     -0.63      0.00
   10    3    4      0.09      0.00
   11    3    4      0.22      0.00
   12    3    4     -0.27      0.00
  -10    4    4      1.01      0.00
   -9    4    4     -0.83      0.00
   -8    4    4     -0.09      0.00
   -7    4    4      0.41      0.00
   -6    4    4      1.27      0.00
   -5    4    4     -1.19      0.00
   -4    4    4     -3.73      0.00
   -2    4    4      5.22      0.00
   -1    4    4    -24.59      0.00
    0    4    4     27.27      0.00
    1    4    4     -9.56      0.00
    2    4    4     -4.74      0.00
    3    4    4      6.03      0.00
    4    4    4     -1.81      0.00
    5    4    4     -0.77      0.00
    6    4    4      0.05      0.00
    7    4    4      1.06      0.00
    8    4    4     -0.91      0.00
    9    4    4      0.73      0.00
   10    4    4     -0.32      0.00
   11    4    4      0.20      0.00
   12    4    4      0.21      0.00
  -10    5    4      1.31      0.00
   -9    5    4     -0.80      0.00
   -8    5    4     -0.14      0.00
   -7    5    4     -0.29      0.00
   -6    5    4      1.71      0.00
   -5    5    4     -1.13      0.00
   -4    5    4      0.04      0.00
   -3    5    4     -2.66      0.00
   -2    5    4      5.46      0.00
    0    5    4     -9.28      0.00
    2    5    4     -0.02      0.00
    3    5    4     -7.96      0.00
    4    5    4      7.56      0.00
    5    5    4     -2.83      0.00
    6    5    4     -0.50      0.00
    7    5    4      0.27      0.00
    8    5    4      0.15      0.00
    9    5    4     -0.25      0.00
   10    5    4      0.57      0.00
   11    5    4      0.74      0.00
   12    5    4     -0.83      0.00
  -10    6    4      0.03      0.00
   -9    6    4     -0.11      0.00
   -8    6    4     -0.07      0.00
   -7    6    4     -0.44      0.00
   -6    6    4      0.63      0.00
   -5    6    4      0.39      0.00
   -4    6    4     -1.57      0.00
   -3    6    4      2.38      0.00
   -2    6    4     -3.50      0.00
   -1    6    4      3.91      0.00
    0    6    4     -2.07      0.00
    1    6    4     -1.91      0.00
    2    6    4      2.45      0.00
    3    6    4      1.15      0.00
    4    6    4     -2.96      0.00
    5    6    4      2.32      0.00
    6    6    4     -1.03      0.00
    7    6    4      0.77      0.00
    8    6    4     -0.86      0.00
    9    6    4      0.04      0.00
   10    6    4      0.56      0.00
   11    6    4      0.36      0.00
   12    6    4      0.33      0.00
   -9    7    4      0.73      0.00
   -8    7    4     -0.44      0.00
   -7    7    4     -0.60      0.00
   -6    7    4      0.55      0.00
   -5    7    4      0.62      0.00
   -4    7    4     -2.12      0.00
   -3    7    4      3.19      0.00
   -2    7    4     -2.45      0.00
   -1    7    4     -1.12      0.00
    0    7    4      5.32      0.00
    1    7    4     -7.27      0.00
    2    7    4      5.26      0.00
    3    7    4     -1.83      0.00
    4    7    4      0.47      0.00
    5    7    4     -0.79      0.00
    6    7    4      0.12      0.00
    7    7    4      1.08      0.00
    8    7    4     -1.23      0.00
    9    7    4     -0.06      0.00
   10    7    4      0.91      0.00
   11    7    4     -0.13      0.00
   -9    8    4     -0.88      0.00
   -8    8    4      0.98      0.00
   -7    8    4     -0.54      0.00
   -6    8    4     -0.36      0.00
   -5    8    4      0.65      0.00
   -4    8    4      0.10      0.00
   -3    8    4     -0.78      0.00
   -2    8    4      1.13      0.00
   -1    8    4     -2.32      0.00
    0    8    4      3.12      0.00
    1    8    4     -2.48      0.00
    2    8    4      0.09      0.00
    3    8    4      0.80      0.00
    4    8    4      0.84      0.00
    5    8    4     -1.87      0.00
    6    8    4      0.80      0.00
    7    8    4      0.51      0.00
    8    8    4     -0.94      0.00
    9    8    4      0.52      0.00
   10    8    4     -0.03      0.00
   11    8    4     -0.18      0.00
   -8    9    4     -0.40      0.00
   -7    9    4      1.06      0.00
   -6    9    4     -0.69      0.00
   -5    9    4     -0.14      0.00
   -4    9    4      0.91      0.00
   -3    9    4     -0.20      0.00
   -2    9    4      0.30      0.00
   -1    9    4     -2.42      0.00
    0    9    4      3.11      0.00
    1    9    4     -1.59      0.00
    2    9    4      0.29      0.00
    3    9    4     -1.40      0.00
    4    9    4      2.07      0.00
    5    9    4     -0.77      0.00
    6    9    4     -0.95      0.00
    7    9    4      0.26      0.00
    8    9    4      1.12      0.00
    9    9    4     -0.73      0.00
   10    9    4      0.37      0.00
   11    9    4     -0.22      0.00
   -8   10    4      0.52      0.00
   -7   10    4     -0.68      0.00
   -6   10    4     -0.29      0.00
   -5   10    4      1.70      0.00
   -4   10    4     -2.07      0.00
   -2   10    4      0.36      0.00
   -1   10    4     -1.38      0.00
    0   10    4      0.22      0.00
    1   10    4      0.79      0.00
    2   10    4      0.32      0.00
    3   10    4     -2.24      0.00
    4   10    4      2.74      0.00
    5   10    4     -1.52      0.00
    6   10    4     -0.01      0.00
    7   10    4     -0.44      0.00
    8   10    4      0.42      0.00
    9   10    4      0.79      0.00
   10   10    4     -0.91      0.00
   -7   11    4      0.91      0.00
   -6   11    4     -0.98      0.00
   -5   11    4      0.82      0.00
   -4   11    4     -0.92      0.00
   -3   11    4      0.91      0.00
   -2   11    4      0.23      0.00
   -1   11    4     -0.69      0.00
    0   11    4     -0.23      0.00
    1   11    4      0.63      0.00
    2   11    4      0.63      0.00
    3   11    4     -1.41      0.00
    4   11    4      0.37      0.00
    5   11    4      0.83      0.00
    6   11    4     -0.61      0.00
    7   11    4     -0.03      0.00
    8   11    4     -0.30      0.00
    9   11    4      1.22      0.00
   10   11    4     -1.36      0.00
   -6   12    4      0.25      0.00
   -5   12    4      0.48      0.00
   -4   12    4     -0.67      0.00
   -3   12    4      0.35      0.00
   -2   12    4      0.35      0.00
   -1   12    4      0.21      0.00
    0   12    4     -0.52      0.00
    2   12    4      1.89      0.00
    3   12    4     -1.92      0.00
    4   12    4      1.18      0.00
    5   12    4     -1.23      0.00
    6   12    4      1.07      0.00
    7   12    4     -0.29      0.00
    8   12    4      0.04      0.00
    9   12    4      0.36      0.00
   -5   13    4     -0.67      0.00
   -4   13    4      1.22      0.00
   -3   13    4     -2.32      0.00
   -2   13    4      2.38      0.00
   -1   13    4     -0.26      0.00
    0   13    4     -0.35      0.00
    1   13    4     -0.74      0.00
    2   13    4      1.02      0.00
    3   13    4      0.12      0.00
    4   13    4     -0.67      0.00
    5   13    4      0.50      0.00
    6   13    4     -0.37      0.00
    7   13    4      0.90      0.00
    8   13    4     -0.71      0.00
    9   13    4     -0.12      0.00
   -4   14    4      0.09      0.00
   -3   14    4      0.02      0.00
   -2   14    4     -1.05      0.00
   -1   14    4      1.41      0.00
    0   14    4      0.19      0.00
    1   14    4     -1.42      0.00
    2   14    4      0.81      0.00
    3   14    4     -0.48      0.00
    4   14    4      0.63      0.00
    5   14    4     -0.25      0.00
    6   14    4     -0.17      0.00
    7   14    4      0.75      0.00
   -2   15    4      0.96      0.00
   -1   15    4     -0.26      0.00
    0   15    4     -0.44      0.00
    1   15    4     -0.50      0.00
    2   15    4      1.02      0.00
    3   15    4     -0.64      0.00
    4   15    4      0.17      0.00
    5   15    4      0.05      0.00
    6   15    4     -0.22      0.00
    1   16    4     -1.06      0.00
    2   16    4      0.27      0.00
    3   16    4     -0.03      0.00
   -2  -12    5     -1.04      0.00
   -1  -12    5      0.92      0.00
    0  -12    5     -1.24      0.00
   -5  -11    5     -0.04      0.00
   -4  -11    5     -0.46      0.00
   -3  -11    5      0.84      0.00
   -2  -11    5     -0.89      0.00
   -1  -11    5      0.88      0.00
    0  -11    5     -1.37      0.00
    1  -11    5      0.86      0.00
    2  -11    5      0.19      0.00
    3  -11    5      0.15      0.00
   -6  -10    5     -0.46      0.00
   -5  -10    5      0.54      0.00
   -4  -10    5     -0.15      0.00
   -3  -10    5      0.66      0.00
   -2  -10    5     -0.93      0.00
   -1  -10    5      1.30      0.00
    0  -10    5     -1.26      0.00
    1  -10    5     -0.03      0.00
    2  -10    5      0.12      0.00
    3  -10    5      0.39      0.00
    4  -10    5      0.08      0.00
    5  -10    5     -0.21      0.00
   -7   -9    5     -0.57      0.00
   -6   -9    5      0.60      0.00
   -5   -9    5     -0.19      0.00
   -4   -9    5      0.12      0.00
   -3   -9    5     -0.17      0.00
   -2   -9    5      0.51      0.00
   -1   -9    5     -0.24      0.00
    0   -9    5     -0.27      0.00
    1   -9    5      0.37      0.00
    2   -9    5     -0.29      0.00
    3   -9    5     -0.64      0.00
    4   -9    5      0.93      0.00
    5   -9    5     -0.19      0.00
    6   -9    5      0.30      0.00
   -8   -8    5     -0.70      0.00
   -7   -8    5     -0.02      0.00
   -6   -8    5     -0.42      0.00
   -5   -8    5      1.03      0.00
   -4   -8    5     -0.30      0.00
   -3   -8    5      0.13      0.00
   -2   -8    5     -0.39      0.00
   -1   -8    5      1.30      0.00
    0   -8    5     -1.73      0.00
    1   -8    5      0.40      0.00
    2   -8    5      0.09      0.00
    3   -8    5      0.21      0.00
    4   -8    5     -0.60      0.00
    5   -8    5      0.72      0.00
    6   -8    5      0.34      0.00
    7   -8    5     -0.53      0.00
   -9   -7    5      0.04      0.00
   -8   -7    5     -1.08      0.00
   -7   -7    5      0.97      0.00
   -6   -7    5     -1.18      0.00
   -5   -7    5      0.94      0.00
   -4   -7    5     -0.09      0.00
   -3   -7    5      0.49      0.00
   -2   -7    5     -2.24      0.00
   -1   -7    5      4.57      0.00
    0   -7    5     -4.11      0.00
    1   -7    5      1.50      0.00
    2   -7    5     -0.58      0.00
    3   -7    5      0.37      0.00
    4   -7    5     -0.52      0.00
    5   -7    5     -0.15      0.00
    6   -7    5      1.59      0.00
    7   -7    5     -0.79      0.00
    8   -7    5      0.14      0.00
   -9   -6    5      0.32      0.00
   -8   -6    5     -0.75      0.00
   -7   -6    5      0.24      0.00
   -6   -6    5     -0.45      0.00
   -5   -6    5      0.54      0.00
   -4   -6    5     -0.21      0.00
   -3   -6    5      1.78      0.00
   -2   -6    5     -3.63      0.00
   -1   -6    5      2.65      0.00
    0   -6    5      0.74      0.00
    1   -6    5     -2.92      0.00
    2   -6    5      2.02      0.00
    3   -6    5     -0.77      0.00
    4   -6    5      0.62      0.00
    5   -6    5     -0.99      0.00
    6   -6    5      0.32      0.00
    7   -6    5      0.64      0.00
    8   -6    5     -0.52      0.00
    9   -6    5      0.70      0.00
  -10   -5    5     -0.13      0.00
   -9   -5    5      0.59      0.00
   -8   -5    5     -0.92      0.00
   -7   -5    5      0.20      0.00
   -6   -5    5      0.55      0.00
   -5   -5    5     -0.98      0.00
   -4   -5    5      1.08      0.00
   -3   -5    5     -0.05      0.00
   -2   -5    5     -0.14      0.00
   -1   -5    5     -0.16      0.00
    0   -5    5      0.47      0.00
    1   -5    5      0.04      0.00
    2   -5    5     -1.48      0.00
    3   -5    5      1.29      0.00
    4   -5    5     -0.07      0.00
    5   -5    5     -0.90      0.00
    6   -5    5      1.17      0.00
    7   -5    5     -0.69      0.00
    8   -5    5     -0.17      0.00
    9   -5    5      0.56      0.00
  -10   -4    5      0.28      0.00
   -9   -4    5      0.21      0.00
   -8   -4    5     -1.03      0.00
   -7   -4    5      1.48      0.00
   -6   -4    5     -1.74      0.00
   -5   -4    5      1.29      0.00
   -4   -4    5     -0.91      0.00
   -3   -4    5      1.78      0.00
   -2   -4    5     -1.54      0.00
   -1   -4    5     -0.20      0.00
    0   -4    5      0.97      0.00
    1   -4    5     -0.56      0.00
    2   -4    5      1.44      0.00
    3   -4    5     -2.36      0.00
    4   -4    5      1.81      0.00
    5   -4    5     -0.94      0.00
    6   -4    5     -0.32      0.00
    7   -4    5      0.90      0.00
    8   -4    5     -1.26      0.00
    9   -4    5      1.91      0.00
   10   -4    5     -0.68      0.00
  -10   -3    5     -0.03      0.00
   -9   -3    5      0.91      0.00
   -8   -3    5     -1.79      0.00
   -7   -3    5      1.28      0.00
   -6   -3    5     -0.44      0.00
   -5   -3    5      0.41      0.00
   -4   -3    5     -2.15      0.00
   -3   -3    5      4.72      0.00
   -2   -3    5     -3.81      0.00
   -1   -3    5      2.29      0.00
    0   -3    5     -2.88      0.00
    1   -3    5      1.03      0.00
    2   -3    5      1.66      0.00
    3   -3    5     -1.15      0.00
    4   -3    5     -0.49      0.00
    5   -3    5      1.04      0.00
    6   -3    5     -0.68      0.00
    7   -3    5      0.08      0.00
    8   -3    5     -0.27      0.00
    9   -3    5      0.01      0.00
   10   -3    5      1.19      0.00
  -10   -2    5     -0.17      0.00
   -9   -2    5      1.99      0.00
   -8   -2    5     -2.56      0.00
   -7   -2    5      1.87      0.00
   -6   -2    5     -2.45      0.00
   -5   -2    5      3.89      0.00
   -4   -2    5     -5.22      0.00
   -3   -2    5      4.29      0.00
   -2   -2    5     -0.94      0.00
   -1   -2    5      0.26      0.00
    0   -2    5     -1.21      0.00
    1   -2    5     -0.40      0.00
    2   -2    5      1.82      0.00
    3   -2    5     -1.15      0.00
    4   -2    5      0.10      0.00
    5   -2    5     -0.46      0.00
    6   -2    5      0.88      0.00
    7   -2    5     -0.40      0.00
    8   -2    5     -0.61      0.00
    9   -2    5      1.45      0.00
   10   -2    5     -0.62      0.00
   11   -2    5     -0.49      0.00
  -10   -1    5     -0.71      0.00
   -9   -1    5      0.90      0.00
   -8   -1    5     -0.30      0.00
   -7   -1    5      0.14      0.00
   -6   -1    5     -0.94      0.00
   -5   -1    5      2.83      0.00
   -4   -1    5     -3.85      0.00
   -3   -1    5      2.11      0.00
   -2   -1    5      0.92      0.00
   -1   -1    5     -1.51      0.00
    0   -1    5      1.03      0.00
    1   -1    5     -2.94      0.00
    2   -1    5      2.17      0.00
    3   -1    5      1.39      0.00
    4   -1    5     -2.83      0.00
    5   -1    5      1.79      0.00
    6   -1    5     -1.15      0.00
    7   -1    5      1.59      0.00
    8   -1    5     -2.47      0.00
    9   -1    5      1.98      0.00
   10   -1    5     -0.32      0.00
   11   -1    5      0.19      0.00
  -10    0    5      0.99      0.00
   -9    0    5     -0.87      0.00
   -8    0    5     -0.70      0.00
   -7    0    5      1.91      0.00
   -6    0    5     -1.87      0.00
   -5    0    5      0.03      0.00
   -4    0    5      3.51      0.00
   -3    0    5     -4.81      0.00
   -2    0    5      3.55      0.00
   -1    0    5     -2.72      0.00
    0    0    5      4.55      0.00
    1    0    5     -3.00      0.00
    2    0    5     -4.19      0.00
    3    0    5      5.66      0.00
    4    0    5     -1.72      0.00
    5    0    5     -0.15      0.00
    6    0    5     -1.81      0.00
    7    0    5      3.71      0.00
    8    0    5     -3.18      0.00
    9    0    5      1.33      0.00
   10    0    5     -0.67      0.00
   11    0    5      0.95      0.00
  -10    1    5     -0.32      0.00
   -9    1    5      1.54      0.00
   -8    1    5     -2.62      0.00
   -7    1    5      2.46      0.00
   -6    1    5     -1.80      0.00
   -5    1    5      3.00      0.00
   -4    1    5     -6.79      0.00
   -3    1    5     11.66      0.00
   -2    1    5    -10.64      0.00
   -1    1    5      2.11      0.00
    0    1    5      2.23      0.00
    1    1    5      3.74      0.00
    2    1    5     -6.03      0.00
    3    1    5     -0.43      0.00
    4    1    5      3.22      0.00
    5    1    5      0.58      0.00
    6    1    5     -4.01      0.00
    7    1    5      2.47      0.00
    8    1    5      0.06      0.00
    9    1    5     -0.64      0.00
   10    1    5     -0.23      0.00
   11    1    5      1.16      0.00
  -10    2    5     -0.16      0.00
   -9    2    5      0.42      0.00
   -8    2    5     -0.86      0.00
   -7    2    5      0.39      0.00
   -6    2    5      0.39      0.00
   -5    2    5      0.93      0.00
   -4    2    5     -4.97      0.00
   -3    2    5     12.10      0.00
   -2    2    5    -13.92      0.00
   -1    2    5      7.99      0.00
    0    2    5     -4.32      0.00
    1    2    5      4.32      0.00
    2    2    5     -0.95      0.00
    3    2    5     -2.46      0.00
    4    2    5      1.45      0.00
    5    2    5      0.59      0.00
    6    2    5     -0.70      0.00
    7    2    5     -0.83      0.00
    8    2    5      2.09      0.00
    9    2    5     -1.41      0.00
   10    2    5     -0.46      0.00
   11    2    5      1.17      0.00
   12    2    5     -0.80      0.00
  -10    3    5      0.13      0.00
   -9    3    5      0.53      0.00
   -8    3    5     -1.00      0.00
   -7    3    5      0.29      0.00
   -6    3    5     -0.01      0.00
   -5    3    5      3.73      0.00
   -4    3    5     -9.35      0.00
   -3    3    5      6.48      0.00
   -2    3    5     12.86      0.00
   -1    3    5    -31.89      0.00
    0    3    5     27.19      0.00
    1    3    5     -6.59      0.00
    2    3    5     -3.68      0.00
    3    3    5      1.48      0.00
    4    3    5      1.88      0.00
    5    3    5     -1.70      0.00
    6    3    5     -0.14      0.00
    7    3    5     -0.08      0.00
    8    3    5      1.04      0.00
    9    3    5     -0.41      0.00
   10    3    5      0.43      0.00
   11    3    5     -1.09      0.00
   12    3    5      0.85      0.00
  -10    4    5      0.10      0.00
   -9    4    5     -0.26      0.00
   -8    4    5      0.63      0.00
   -7    4    5     -1.74      0.00
   -6    4    5      1.69      0.00
   -5    4    5     -0.23      0.00
   -4    4    5      2.47      0.00
   -2    4    5     12.57      0.00
   -1    4    5     -2.85      0.00
    0    4    5    -13.44      0.00
    1    4    5     15.39      0.00
    2    4    5     -1.26      0.00
    3    4    5     -8.03      0.00
    4    4    5      6.41      0.00
    5    4    5     -1.93      0.00
    6    4    5      1.32      0.00
    7    4    5     -2.52      0.00
    8    4    5      2.14      0.00
    9    4    5     -1.09      0.00
   10    4    5      0.85      0.00
   11    4    5     -0.49      0.00
   12    4    5      0.15      0.00
  -10    5    5     -0.19      0.00
   -9    5    5      0.21      0.00
   -8    5    5      0.01      0.00
   -7    5    5     -0.43      0.00
   -6    5    5      0.59      0.00
   -5    5    5     -0.51      0.00
   -4    5    5      1.20      0.00
   -3    5    5     -4.46      0.00
   -2    5    5      9.14      0.00
   -1    5    5    -10.22      0.00
    2    5    5      5.30      0.00
    3    5    5     -0.77      0.00
    4    5    5     -1.87      0.00
    5    5    5      1.60      0.00
    6    5    5     -0.74      0.00
    7    5    5      0.21      0.00
    8    5    5      0.81      0.00
    9    5    5     -1.08      0.00
   10    5    5      0.32      0.00
   11    5    5      0.36      0.00
   12    5    5      0.45      0.00
   -9    6    5      0.51      0.00
   -8    6    5     -0.50      0.00
   -7    6    5      0.23      0.00
   -6    6    5     -0.62      0.00
   -5    6    5      1.29      0.00
   -4    6    5     -1.21      0.00
   -3    6    5     -0.84      0.00
   -2    6    5      1.05      0.00
   -1    6    5      2.68      0.00
    0    6    5     -4.22      0.00
    1    6    5     -0.26      0.00
    2    6    5      4.21      0.00
    3    6    5     -4.07      0.00
    4    6    5      2.47      0.00
    5    6    5     -0.92      0.00
    6    6    5      0.41      0.00
    7    6    5     -0.82      0.00
    8    6    5      0.89      0.00
    9    6    5     -1.18      0.00
   10    6    5      0.89      0.00
   11    6    5     -0.30      0.00
   12    6    5      0.75      0.00
   -9    7    5     -0.23      0.00
   -8    7    5      0.04      0.00
   -7    7    5      0.88      0.00
   -6    7    5     -1.81      0.00
   -5    7    5      1.37      0.00
   -4    7    5     -1.25      0.00
   -3    7    5      1.51      0.00
   -2    7    5     -0.86      0.00
   -1    7    5     -1.43      0.00
    0    7    5      4.31      0.00
    1    7    5     -4.10      0.00
    2    7    5     -1.33      0.00
    3    7    5      4.82      0.00
    4    7    5     -3.39      0.00
    5    7    5      0.96      0.00
    6    7    5     -0.15      0.00
    7    7    5      0.45      0.00
    8    7    5     -0.29      0.00
    9    7    5     -0.09      0.00
   10    7    5     -0.26      0.00
   11    7    5     -0.26      0.00
   -9    8    5      0.80      0.00
   -8    8    5     -0.99      0.00
   -7    8    5      1.48      0.00
   -6    8    5     -1.44      0.00
   -5    8    5      0.10      0.00
   -4    8    5      0.47      0.00
   -3    8    5     -0.25      0.00
   -2    8    5      1.88      0.00
   -1    8    5     -4.11      0.00
    0    8    5      4.25      0.00
    1    8    5     -2.01      0.00
    2    8    5     -0.08      0.00
    3    8    5     -0.67      0.00
    4    8    5      1.55      0.00
    5    8    5     -1.04      0.00
    6    8    5     -0.54      0.00
    7    8    5      0.68      0.00
    8    8    5      0.12      0.00
    9    8    5     -0.52      0.00
   10    8    5      0.79      0.00
   11    8    5     -0.94      0.00
   -8    9    5      0.60      0.00
   -7    9    5     -0.15      0.00
   -6    9    5      0.05      0.00
   -5    9    5     -0.90      0.00
   -4    9    5      1.51      0.00
   -3    9    5     -1.72      0.00
   -2    9    5      2.18      0.00
   -1    9    5     -0.98      0.00
    0    9    5     -1.60      0.00
    1    9    5      2.84      0.00
    2    9    5     -1.51      0.00
    3    9    5     -0.68      0.00
    4    9    5      1.31      0.00
    5    9    5     -0.48      0.00
    6    9    5     -0.13      0.00
    7    9    5     -0.45      0.00
    8    9    5      0.18      0.00
    9    9    5      0.38      0.00
   10    9    5     -0.05      0.00
   11    9    5     -0.41      0.00
   -7   10    5      1.10      0.00
   -6   10    5     -1.46      0.00
   -5   10    5      0.83      0.00
   -4   10    5      0.14      0.00
   -2   10    5      0.80      0.00
   -1   10    5     -0.56      0.00
    0   10    5     -0.59      0.00
    1   10    5      0.92      0.00
    2   10    5      0.29      0.00
    3   10    5     -0.88      0.00
    4   10    5     -0.74      0.00
    5   10    5      2.07      0.00
    6   10    5     -1.44      0.00
    7   10    5      0.11      0.00
    8   10    5      0.21      0.00
    9   10    5      0.10      0.00
   10   10    5      0.18      0.00
   11   10    5     -0.17      0.00
   -7   11    5     -0.05      0.00
   -6   11    5     -1.19      0.00
   -5   11    5      1.88      0.00
   -4   11    5     -1.82      0.00
   -3   11    5      0.97      0.00
   -2   11    5      0.18      0.00
   -1   11    5      0.29      0.00
    0   11    5     -0.22      0.00
    1   11    5     -1.05      0.00
    2   11    5      2.03      0.00
    3   11    5     -1.10      0.00
    4   11    5      0.10      0.00
    5   11    5     -0.46      0.00
    6   11    5      0.74      0.00
    7   11    5     -0.51      0.00
    8   11    5     -0.19      0.00
    9   11    5      0.78      0.00
   10   11    5     -0.37      0.00
   -6   12    5      0.04      0.00
   -5   12    5     -0.77      0.00
   -4   12    5      0.91      0.00
   -3   12    5     -1.19      0.00
   -2   12    5      0.99      0.00
   -1   12    5     -0.42      0.00
    0   12    5      0.46      0.00
    1   12    5     -0.55      0.00
    2   12    5      0.37      0.00
    3   12    5      0.48      0.00
    4   12    5     -0.75      0.00
    5   12    5      0.23      0.00
    6   12    5      0.56      0.00
    7   12    5     -0.36      0.00
    8   12    5     -0.24      0.00
    9   12    5      0.72      0.00
   -5   13    5     -0.82      0.00
   -4   13    5      1.26      0.00
   -3   13    5     -1.39      0.00
   -2   13    5      0.73      0.00
   -1   13    5      0.11      0.00
    0   13    5      0.09      0.00
    1   13    5     -0.98      0.00
    2   13    5      1.33      0.00
    3   13    5     -0.98      0.00
    4   13    5      0.62      0.00
    5   13    5     -0.81      0.00
    6   13    5      0.82      0.00
    7   13    5     -0.59      0.00
    8   13    5      1.23      0.00
    9   13    5     -0.60      0.00
   -4   14    5      0.09      0.00
   -3   14    5     -0.81      0.00
   -2   14    5      0.84      0.00
   -1   14    5     -0.55      0.00
    0   14    5      1.61      0.00
    1   14    5     -2.11      0.00
    2   14    5      1.07      0.00
    3   14    5      0.00      0.00
    4   14    5     -0.41      0.00
    5   14    5      0.43      0.00
    6   14    5     -0.41      0.00
    7   14    5     -0.05      0.00
    8   14    5      0.80      0.00
   -2   15    5     -0.54      0.00
   -1   15    5     -0.71      0.00
    0   15    5      2.37      0.00
    1   15    5     -1.32      0.00
    2   15    5     -0.43      0.00
    3   15    5     -0.09      0.00
    4   15    5      0.87      0.00
    5   15    5     -0.64      0.00
    6   15    5      0.28      0.00
    1   16    5      0.10      0.00
    2   16    5      0.02      0.00
    3   16    5      0.00      0.00
    4   16    5     -0.31      0.00
   -3  -11    6      2.10      0.00
   -2  -11    6     -1.56      0.00
   -1  -11    6      0.72      0.00
    0  -11    6     -0.51      0.00
    1  -11    6      0.14      0.00
   -5  -10    6      0.37      0.00
   -4  -10    6     -0.78      0.00
   -3  -10    6      1.03      0.00
   -2  -10    6     -0.91      0.00
   -1  -10    6      0.79      0.00
    0  -10    6     -0.57      0.00
    1  -10    6      0.56      0.00
    2  -10    6     -0.75      0.00
    3  -10    6      0.67      0.00
    4  -10    6     -0.69      0.00
   -6   -9    6     -1.06      0.00
   -5   -9    6      1.14      0.00
   -4   -9    6     -0.34      0.00
   -3   -9    6      0.54      0.00
   -2   -9    6     -0.93      0.00
   -1   -9    6      1.46      0.00
    0   -9    6     -0.96      0.00
    1   -9    6      0.14      0.00
    2   -9    6     -0.30      0.00
    3   -9    6      0.10      0.00
    4   -9    6     -0.11      0.00
    5   -9    6      0.42      0.00
   -7   -8    6      0.18      0.00
   -6   -8    6     -0.81      0.00
   -5   -8    6      0.40      0.00
   -4   -8    6     -0.11      0.00
   -3   -8    6      0.54      0.00
   -2   -8    6     -1.12      0.00
   -1   -8    6      1.69      0.00
    0   -8    6     -0.59      0.00
    1   -8    6      0.01      0.00
    2   -8    6     -0.33      0.00
    3   -8    6     -0.33      0.00
    4   -8    6     -0.02      0.00
    5   -8    6      0.07      0.00
    6   -8    6      0.71      0.00
   -8   -7    6     -0.93      0.00
   -7   -7    6      0.89      0.00
   -6   -7    6     -1.57      0.00
   -5   -7    6      1.14      0.00
   -4   -7    6     -0.59      0.00
   -3   -7    6      1.60      0.00
   -2   -7    6     -2.76      0.00
   -1   -7    6      2.30      0.00
    0   -7    6      0.05      0.00
    1   -7    6     -1.24      0.00
    2   -7    6      0.37      0.00
    3   -7    6      0.40      0.00
    4   -7    6     -0.81      0.00
    5   -7    6      0.43      0.00
    6   -7    6     -0.64      0.00
    7   -7    6      1.01      0.00
   -9   -6    6      0.35      0.00
   -8   -6    6     -0.50      0.00
   -7   -6    6      0.54      0.00
   -6   -6    6     -0.48      0.00
   -5   -6    6     -0.38      0.00
   -4   -6    6      0.27      0.00
   -3   -6    6      0.79      0.00
   -2   -6    6     -0.77      0.00
   -1   -6    6      0.36      0.00
    0   -6    6      0.46      0.00
    1   -6    6      0.01      0.00
    2   -6    6     -1.07      0.00
    3   -6    6      0.66      0.00
    4   -6    6      0.08      0.00
    5   -6    6     -1.12      0.00
    6   -6    6      1.26      0.00
    7   -6    6     -0.58      0.00
    8   -6    6      0.25      0.00
   -9   -5    6      0.99      0.00
   -8   -5    6     -0.83      0.00
   -7   -5    6      0.08      0.00
   -6   -5    6      0.21      0.00
   -5   -5    6     -0.50      0.00
   -4   -5    6      0.05      0.00
   -3   -5    6      0.42      0.00
   -2   -5    6      1.24      0.00
   -1   -5    6     -4.25      0.00
    0   -5    6      5.59      0.00
    1   -5    6     -3.51      0.00
    2   -5    6      1.64      0.00
    3   -5    6     -1.48      0.00
    4   -5    6      1.92      0.00
    5   -5    6     -1.64      0.00
    6   -5    6     -0.23      0.00
    7   -5    6      0.90      0.00
    8   -5    6     -0.93      0.00
    9   -5    6      1.09      0.00
   -9   -4    6      1.47      0.00
   -8   -4    6     -1.53      0.00
   -7   -4    6      0.53      0.00
   -6   -4    6      0.10      0.00
   -5   -4    6     -0.31      0.00
   -4   -4    6     -0.02      0.00
   -3   -4    6     -0.21      0.00
   -2   -4    6      2.28      0.00
   -1   -4    6     -2.85      0.00
    0   -4    6      0.95      0.00
    1   -4    6      0.94      0.00
    2   -4    6     -0.86      0.00
    3   -4    6     -0.37      0.00
    4   -4    6      1.21      0.00
    5   -4    6     -0.83      0.00
    6   -4    6      0.23      0.00
    7   -4    6     -0.16      0.00
    8   -4    6     -0.29      0.00
    9   -4    6     -0.79      0.00
  -10   -3    6     -1.59      0.00
   -9   -3    6      2.39      0.00
   -8   -3    6     -1.92      0.00
   -7   -3    6      1.98      0.00
   -6   -3    6     -2.94      0.00
   -5   -3    6      3.29      0.00
   -4   -3    6     -3.84      0.00
   -3   -3    6      3.08      0.00
   -2   -3    6     -1.00      0.00
   -1   -3    6      0.49      0.00
    0   -3    6     -0.25      0.00
    1   -3    6     -1.38      0.00
    2   -3    6      3.08      0.00
    3   -3    6     -2.71      0.00
    4   -3    6      1.39      0.00
    5   -3    6     -0.53      0.00
    6   -3    6      0.13      0.00
    7   -3    6     -0.43      0.00
    8   -3    6      0.35      0.00
    9   -3    6     -0.44      0.00
   10   -3    6      0.78      0.00
  -10   -2    6     -2.13      0.00
   -9   -2    6      1.99      0.00
   -8   -2    6     -1.18      0.00
   -7   -2    6      0.77      0.00
   -6   -2    6     -1.17      0.00
   -5   -2    6      2.45      0.00
   -4   -2    6     -3.38      0.00
   -3   -2    6      2.42      0.00
   -2   -2    6     -0.85      0.00
   -1   -2    6      0.70      0.00
    0   -2    6      0.67      0.00
    1   -2    6     -3.53      0.00
    2   -2    6      1.92      0.00
    3   -2    6      2.15      0.00
    4   -2    6     -2.95      0.00
    5   -2    6      1.15      0.00
    6   -2    6      0.59      0.00
    7   -2    6     -0.62      0.00
    8   -2    6     -0.25      0.00
    9   -2    6     -1.13      0.00
   10   -2    6      2.34      0.00
  -10   -1    6     -0.38      0.00
   -9   -1    6      0.76      0.00
   -8   -1    6     -1.08      0.00
   -7   -1    6      1.52      0.00
   -6   -1    6     -2.85      0.00
   -5   -1    6      2.90      0.00
   -4   -1    6     -0.49      0.00
   -3   -1    6     -2.23      0.00
   -2   -1    6      3.10      0.00
   -1   -1    6     -2.34      0.00
    0   -1    6      3.18      0.00
    1   -1    6     -1.80      0.00
    2   -1    6     -3.24      0.00
    3   -1    6      4.47      0.00
    4   -1    6     -2.17      0.00
    5   -1    6      0.23      0.00
    6   -1    6     -0.44      0.00
    7   -1    6      1.52      0.00
    8   -1    6     -1.04      0.00
    9   -1    6     -0.30      0.00
   10   -1    6      0.18      0.00
   11   -1    6      0.09      0.00
  -10    0    6     -0.49      0.00
   -9    0    6      0.58      0.00
   -8    0    6     -0.76      0.00
   -7    0    6      0.72      0.00
   -6    0    6     -0.43      0.00
   -5    0    6      0.26      0.00
   -4    0    6     -0.25      0.00
   -3    0    6      1.26      0.00
   -2    0    6     -1.83      0.00
   -1    0    6      0.74      0.00
    0    0    6     -0.59      0.00
    1    0    6      2.67      0.00
    2    0    6     -2.86      0.00
    3    0    6      1.15      0.00
    4    0    6     -1.46      0.00
    5    0    6      3.04      0.00
    6    0    6     -4.10      0.00
    7    0    6      3.42      0.00
    8    0    6     -1.44      0.00
    9    0    6     -0.65      0.00
   10    0    6      0.81      0.00
   11    0    6      0.17      0.00
  -10    1    6      0.06      0.00
   -9    1    6      0.10      0.00
   -8    1    6     -1.13      0.00
   -7    1    6      0.79      0.00
   -6    1    6     -0.11      0.00
   -5    1    6     -0.35      0.00
   -4    1    6      0.50      0.00
   -3    1    6      2.11      0.00
   -2    1    6     -2.89      0.00
   -1    1    6      1.27      0.00
    0    1    6     -1.27      0.00
    1    1    6      2.21      0.00
    2    1    6     -1.31      0.00
    3    1    6      0.13      0.00
    4    1    6     -1.11      0.00
    5    1    6      2.52      0.00
    6    1    6     -2.29      0.00
    7    1    6      0.60      0.00
    8    1    6      0.95      0.00
    9    1    6     -1.36      0.00
   10    1    6      0.17      0.00
   11    1    6      0.67      0.00
  -10    2    6      0.08      0.00
   -9    2    6      1.06      0.00
   -8    2    6     -1.21      0.00
   -7    2    6     -0.37      0.00
   -6    2    6      0.03      0.00
   -5    2    6      3.52      0.00
   -4    2    6     -7.94      0.00
   -3    2    6      7.64      0.00
   -2    2    6      1.18      0.00
   -1    2    6     -7.96      0.00
    0    2    6      3.55      0.00
    1    2    6      3.23      0.00
    2    2    6     -1.09      0.00
    3    2    6     -2.79      0.00
    4    2    6      1.34      0.00
    5    2    6      1.44      0.00
    6    2    6     -0.55      0.00
    7    2    6     -2.53      0.00
    8    2    6      2.82      0.00
    9    2    6     -0.95      0.00
   10    2    6      0.04      0.00
   11    2    6      0.27      0.00
  -10    3    6      0.18      0.00
   -9    3    6     -0.34      0.00
   -8    3    6      1.27      0.00
   -7    3    6     -2.38      0.00
   -6    3    6      1.86      0.00
   -5    3    6     -0.97      0.00
   -4    3    6      3.42      0.00
   -3    3    6     -8.11      0.00
   -2    3    6      9.34      0.00
   -1    3    6     -1.69      0.00
    0    3    6     -7.90      0.00
    1    3    6      5.41      0.00
    2    3    6      3.77      0.00
    3    3    6     -4.60      0.00
    4    3    6      0.64      0.00
    5    3    6      0.29      0.00
    6    3    6      2.32      0.00
    7    3    6     -4.14      0.00
    8    3    6      2.51      0.00
    9    3    6     -0.02      0.00
   10    3    6      0.05      0.00
   11    3    6     -0.71      0.00
   12    3    6      0.73      0.00
  -10    4    6      0.10      0.00
   -9    4    6     -0.33      0.00
   -8    4    6      0.57      0.00
   -7    4    6     -1.20      0.00
   -6    4    6      1.38      0.00
   -5    4    6     -1.75      0.00
   -4    4    6      4.96      0.00
   -3    4    6    -12.52      0.00
   -2    4    6     19.65      0.00
   -1    4    6    -18.10      0.00
    0    4    6     10.89      0.00
    1    4    6     -6.67      0.00
    2    4    6      4.08      0.00
    3    4    6     -0.99      0.00
    4    4    6      0.34      0.00
    5    4    6     -0.75      0.00
    6    4    6      0.48      0.00
    7    4    6     -0.36      0.00
    8    4    6     -0.15      0.00
    9    4    6      0.45      0.00
   10    4    6      1.05      0.00
   11    4    6     -1.54      0.00
   12    4    6      1.01      0.00
   -9    5    6     -0.53      0.00
   -8    5    6      0.68      0.00
   -7    5    6     -0.94      0.00
   -6    5    6      0.83      0.00
   -5    5    6     -2.54      0.00
   -4    5    6      7.31      0.00
   -3    5    6    -10.16      0.00
   -2    5    6      1.70      0.00
   -1    5    6     12.85      0.00
    0    5    6    -16.32      0.00
    1    5    6      5.44      0.00
    2    5    6      5.10      0.00
    3    5    6     -6.32      0.00
    4    5    6      2.46      0.00
    5    5    6      0.16      0.00
    6    5    6      0.51      0.00
    7    5    6     -1.73      0.00
    8    5    6      1.60      0.00
    9    5    6     -1.30      0.00
   10    5    6      0.82      0.00
   11    5    6      0.05      0.00
   12    5    6     -0.43      0.00
   -9    6    6     -0.04      0.00
   -8    6    6     -0.16      0.00
   -7    6    6      1.27      0.00
   -6    6    6     -1.42      0.00
   -5    6    6      0.15      0.00
   -4    6    6      0.31      0.00
   -3    6    6      0.50      0.00
   -2    6    6     -1.44      0.00
   -1    6    6     -2.09      0.00
    0    6    6      9.15      0.00
    1    6    6    -10.23      0.00
    2    6    6      2.38      0.00
    3    6    6      4.23      0.00
    4    6    6     -4.47      0.00
    5    6    6      1.70      0.00
    6    6    6     -0.55      0.00
    7    6    6      0.28      0.00
    8    6    6      0.99      0.00
    9    6    6     -1.37      0.00
   10    6    6      0.49      0.00
   11    6    6     -0.50      0.00
   12    6    6      0.66      0.00
   -9    7    6     -0.13      0.00
   -8    7    6     -0.53      0.00
   -7    7    6      1.60      0.00
   -6    7    6     -1.28      0.00
   -5    7    6      0.72      0.00
   -4    7    6     -0.94      0.00
   -3    7    6     -0.02      0.00
   -2    7    6      1.03      0.00
   -1    7    6     -1.34      0.00
    0    7    6      1.12      0.00
    1    7    6      0.79      0.00
    3    7    6     -0.56      0.00
    4    7    6      2.07      0.00
    5    7    6     -1.70      0.00
    6    7    6      0.67      0.00
    7    7    6     -0.38      0.00
    8    7    6     -0.05      0.00
    9    7    6      0.03      0.00
   10    7    6      0.45      0.00
   11    7    6     -0.93      0.00
   -8    8    6     -1.22      0.00
   -7    8    6      2.79      0.00
   -6    8    6     -1.67      0.00
   -5    8    6     -0.33      0.00
   -4    8    6      0.75      0.00
   -3    8    6     -0.98      0.00
   -2    8    6      1.32      0.00
   -1    8    6     -1.07      0.00
    0    8    6     -0.03      0.00
    1    8    6      2.33      0.00
    2    8    6     -3.34      0.00
    3    8    6      1.62      0.00
    4    8    6     -0.12      0.00
    5    8    6     -0.08      0.00
    6    8    6     -0.05      0.00
    7    8    6     -0.25      0.00
    8    8    6      0.23      0.00
    9    8    6     -0.07      0.00
   10    8    6      0.11      0.00
   11    8    6     -0.54      0.00
   -8    9    6     -1.71      0.00
   -7    9    6      2.10      0.00
   -6    9    6     -0.41      0.00
   -5    9    6     -0.97      0.00
   -4    9    6      0.77      0.00
   -3    9    6     -0.61      0.00
   -2    9    6      1.18      0.00
   -1    9    6     -0.56      0.00
    0    9    6     -0.64      0.00
    1    9    6      0.99      0.00
    2    9    6      0.83      0.00
    3    9    6     -2.30      0.00
    4    9    6      1.33      0.00
    5    9    6     -0.37      0.00
    6    9    6      0.13      0.00
    7    9    6     -0.64      0.00
    8    9    6      0.79      0.00
    9    9    6     -0.70      0.00
   10    9    6      1.27      0.00
   11    9    6     -1.07      0.00
   -7   10    6      0.38      0.00
   -6   10    6     -0.50      0.00
   -5   10    6      0.45      0.00
   -4   10    6     -0.25      0.00
   -3   10    6     -0.44      0.00
   -2   10    6      0.08      0.00
   -1   10    6      2.18      0.00
    0   10    6     -3.04      0.00
    1   10    6      1.57      0.00
    2   10    6      0.47      0.00
    3   10    6     -0.04      0.00
    4   10    6     -0.60      0.00
    5   10    6      0.02      0.00
    6   10    6      0.32      0.00
    7   10    6     -0.44      0.00
    8   10    6     -0.31      0.00
    9   10    6      0.87      0.00
   10   10    6     -0.27      0.00
   11   10    6      0.03      0.00
   -7   11    6      2.45      0.00
   -6   11    6     -3.36      0.00
   -5   11    6      2.13      0.00
   -4   11    6     -0.29      0.00
   -3   11    6     -0.07      0.00
   -2   11    6     -0.86      0.00
    0   11    6     -0.03      0.00
    1   11    6     -0.99      0.00
    2   11    6      0.62      0.00
    3   11    6      1.05      0.00
    4   11    6     -1.48      0.00
    5   11    6      0.67      0.00
    6   11    6     -0.01      0.00
    7   11    6      0.13      0.00
    8   11    6     -0.26      0.00
    9   11    6      0.20      0.00
   10   11    6      0.19      0.00
   -6   12    6      0.09      0.00
   -5   12    6     -0.58      0.00
   -4   12    6      0.25      0.00
   -3   12    6     -0.17      0.00
   -2   12    6      0.11      0.00
   -1   12    6      0.06      0.00
    0   12    6      0.77      0.00
    1   12    6     -1.20      0.00
    2   12    6      0.50      0.00
    3   12    6     -0.14      0.00
    4   12    6      1.24      0.00
    5   12    6     -2.26      0.00
    6   12    6      1.35      0.00
    7   12    6     -0.07      0.00
    8   12    6     -0.16      0.00
    9   12    6      0.57      0.00
   10   12    6     -0.33      0.00
   -5   13    6     -1.07      0.00
   -4   13    6      1.30      0.00
   -3   13    6     -2.21      0.00
   -2   13    6      1.41      0.00
   -1   13    6     -0.75      0.00
    0   13    6      0.82      0.00
    1   13    6      0.12      0.00
    2   13    6     -1.15      0.00
    3   13    6      1.19      0.00
    4   13    6     -0.63      0.00
    5   13    6      0.48      0.00
    6   13    6     -0.35      0.00
    7   13    6     -0.27      0.00
    8   13    6      0.49      0.00
    9   13    6      0.19      0.00
   -4   14    6      0.59      0.00
   -3   14    6     -0.92      0.00
   -2   14    6      0.66      0.00
   -1   14    6     -1.26      0.00
    0   14    6      1.42      0.00
    1   14    6     -0.71      0.00
    2   14    6     -0.12      0.00
    3   14    6      0.15      0.00
    4   14    6      0.16      0.00
    5   14    6     -0.52      0.00
    6   14    6      0.79      0.00
    7   14    6     -1.09      0.00
    8   14    6      1.19      0.00
   -2   15    6      1.08      0.00
   -1   15    6     -1.29      0.00
    0   15    6      0.97      0.00
    1   15    6     -0.12      0.00
    2   15    6     -0.59      0.00
    3   15    6      0.48      0.00
    4   15    6     -0.05      0.00
    5   15    6     -0.32      0.00
    6   15    6      0.24      0.00
    7   15    6     -0.31      0.00
    0   16    6      0.60      0.00
    1   16    6      0.47      0.00
    2   16    6     -0.89      0.00
    3   16    6      0.02      0.00
    4   16    6      0.72      0.00
   -3  -10    7      1.56      0.00
   -2  -10    7     -0.51      0.00
   -1  -10    7     -0.34      0.00
    0  -10    7      0.48      0.00
    1  -10    7     -0.41      0.00
    2  -10    7      0.38      0.00
   -5   -9    7      0.02      0.00
   -4   -9    7     -0.49      0.00
   -3   -9    7      0.30      0.00
   -2   -9    7      0.34      0.00
   -1   -9    7     -0.52      0.00
    0   -9    7      0.41      0.00
    1   -9    7      0.59      0.00
    2   -9    7     -0.72      0.00
    3   -9    7      0.25      0.00
    4   -9    7     -0.63      0.00
   -6   -8    7     -0.89      0.00
   -5   -8    7      0.73      0.00
   -4   -8    7     -0.58      0.00
   -3   -8    7      0.70      0.00
   -2   -8    7     -0.83      0.00
   -1   -8    7      0.74      0.00
    0   -8    7     -0.14      0.00
    1   -8    7      0.02      0.00
    2   -8    7      0.18      0.00
    3   -8    7     -0.03      0.00
    4   -8    7     -0.39      0.00
    5   -8    7     -0.39      0.00
    6   -8    7      0.63      0.00
   -7   -7    7      0.27      0.00
   -6   -7    7     -0.29      0.00
   -5   -7    7     -0.38      0.00
   -4   -7    7     -0.12      0.00
   -3   -7    7      0.93      0.00
   -2   -7    7     -1.19      0.00
   -1   -7    7      0.73      0.00
    0   -7    7      0.59      0.00
    1   -7    7     -0.05      0.00
    2   -7    7     -0.61      0.00
    3   -7    7     -0.22      0.00
    4   -7    7      0.91      0.00
    5   -7    7     -1.31      0.00
    6   -7    7      0.74      0.00
    7   -7    7     -0.37      0.00
   -8   -6    7     -0.24      0.00
   -7   -6    7      0.03      0.00
   -6   -6    7      0.02      0.00
   -5   -6    7     -0.10      0.00
   -4   -6    7     -0.32      0.00
   -3   -6    7      0.52      0.00
   -2   -6    7      0.11      0.00
   -1   -6    7     -1.93      0.00
    0   -6    7      2.89      0.00
    1   -6    7     -0.99      0.00
    2   -6    7     -0.04      0.00
    3   -6    7     -0.31      0.00
    4   -6    7      0.21      0.00
    5   -6    7      0.61      0.00
    6   -6    7     -1.54      0.00
    7   -6    7      0.60      0.00
    8   -6    7      0.21      0.00
   -8   -5    7      0.43      0.00
   -7   -5    7     -0.49      0.00
   -6   -5    7      0.51      0.00
   -5   -5    7     -0.57      0.00
   -4   -5    7      0.52      0.00
   -3   -5    7     -1.86      0.00
   -2   -5    7      4.15      0.00
   -1   -5    7     -3.93      0.00
    0   -5    7      0.83      0.00
    1   -5    7      1.75      0.00
    2   -5    7     -1.01      0.00
    3   -5    7     -0.13      0.00
    4   -5    7      0.20      0.00
    5   -5    7     -0.01      0.00
    6   -5    7      0.41      0.00
    7   -5    7     -0.59      0.00
    8   -5    7     -0.56      0.00
   -9   -4    7     -0.08      0.00
   -8   -4    7      0.27      0.00
   -7   -4    7      0.26      0.00
   -6   -4    7     -0.57      0.00
   -4   -4    7     -0.12      0.00
   -3   -4    7     -1.11      0.00
   -2   -4    7      2.72      0.00
   -1   -4    7     -2.72      0.00
    0   -4    7      1.62      0.00
    1   -4    7     -1.51      0.00
    2   -4    7      2.43      0.00
    3   -4    7     -1.83      0.00
    4   -4    7      1.02      0.00
    5   -4    7      0.04      0.00
    6   -4    7     -1.00      0.00
    7   -4    7      0.91      0.00
    8   -4    7     -0.32      0.00
    9   -4    7     -0.82      0.00
   -9   -3    7      0.69      0.00
   -8   -3    7     -1.19      0.00
   -7   -3    7      1.04      0.00
   -6   -3    7     -0.43      0.00
   -5   -3    7      0.24      0.00
   -4   -3    7     -0.18      0.00
   -3   -3    7     -0.64      0.00
   -2   -3    7      0.87      0.00
   -1   -3    7      0.05      0.00
    0   -3    7     -0.39      0.00
    1   -3    7     -0.18      0.00
    2   -3    7     -0.17      0.00
    3   -3    7      0.49      0.00
    4   -3    7      0.06      0.00
    5   -3    7     -0.01      0.00
    6   -3    7      0.35      0.00
    7   -3    7     -0.53      0.00
    8   -3    7      0.64      0.00
    9   -3    7     -1.75      0.00
   10   -3    7      1.07      0.00
   -9   -2    7      1.39      0.00
   -8   -2    7     -0.81      0.00
   -7   -2    7      0.91      0.00
   -6   -2    7     -1.99      0.00
   -5   -2    7      2.18      0.00
   -4   -2    7     -1.43      0.00
   -3   -2    7      0.07      0.00
   -2   -2    7      0.56      0.00
   -1   -2    7     -0.99      0.00
    0   -2    7      2.36      0.00
    1   -2    7     -1.87      0.00
    2   -2    7      0.01      0.00
    3   -2    7      0.21      0.00
    4   -2    7      0.43      0.00
    5   -2    7     -0.96      0.00
    6   -2    7      1.04      0.00
    7   -2    7     -1.05      0.00
    8   -2    7      1.40      0.00
    9   -2    7     -0.84      0.00
   10   -2    7     -0.40      0.00
   -9   -1    7     -0.13      0.00
   -8   -1    7      0.36      0.00
   -7   -1    7     -0.40      0.00
   -6   -1    7      0.37      0.00
   -5   -1    7     -0.72      0.00
   -4   -1    7      1.87      0.00
   -3   -1    7     -2.17      0.00
   -2   -1    7      1.77      0.00
   -1   -1    7     -2.55      0.00
    0   -1    7      2.80      0.00
    1   -1    7     -0.22      0.00
    2   -1    7     -2.73      0.00
    3   -1    7      3.06      0.00
    4   -1    7     -1.74      0.00
    5   -1    7      0.62      0.00
    6   -1    7     -0.47      0.00
    7   -1    7      0.48      0.00
    8   -1    7      0.16      0.00
    9   -1    7     -1.17      0.00
   10   -1    7      0.99      0.00
  -10    0    7      0.90      0.00
   -9    0    7     -0.48      0.00
   -8    0    7     -0.82      0.00
   -7    0    7      1.22      0.00
   -6    0    7     -1.51      0.00
   -5    0    7     -0.46      0.00
   -4    0    7      2.87      0.00
   -3    0    7     -2.32      0.00
   -2    0    7      2.38      0.00
   -1    0    7     -2.75      0.00
    0    0    7      1.02      0.00
    1    0    7      2.46      0.00
    2    0    7     -3.65      0.00
    3    0    7      1.60      0.00
    4    0    7     -0.37      0.00
    5    0    7      0.75      0.00
    6    0    7     -1.48      0.00
    7    0    7      0.72      0.00
    8    0    7      1.29      0.00
    9    0    7     -1.57      0.00
   10    0    7      0.15      0.00
   11    0    7     -0.17      0.00
  -10    1    7     -0.10      0.00
   -9    1    7      0.99      0.00
   -8    1    7     -0.84      0.00
   -7    1    7     -0.27      0.00
   -6    1    7      0.21      0.00
   -5    1    7      0.71      0.00
   -4    1    7     -3.27      0.00
   -3    1    7      5.35      0.00
   -2    1    7     -3.84      0.00
   -1    1    7      2.71      0.00
    0    1    7     -3.83      0.00
    1    1    7      2.80      0.00
    2    1    7      1.46      0.00
    3    1    7     -2.00      0.00
    4    1    7     -0.66      0.00
    5    1    7      1.60      0.00
    6    1    7     -0.38      0.00
    7    1    7     -1.42      0.00
    8    1    7      1.87      0.00
    9    1    7     -1.26      0.00
   10    1    7      0.80      0.00
   11    1    7     -0.50      0.00
  -10    2    7     -0.12      0.00
   -9    2    7     -0.04      0.00
   -8    2    7      0.51      0.00
   -7    2    7     -0.82      0.00
   -6    2    7     -0.24      0.00
   -5    2    7      0.75      0.00
   -4    2    7      0.31      0.00
   -3    2    7     -1.27      0.00
   -2    2    7      1.81      0.00
   -1    2    7      0.18      0.00
    0    2    7     -1.45      0.00
    1    2    7     -2.30      0.00
    2    2    7      4.08      0.00
    3    2    7     -0.32      0.00
    4    2    7     -1.38      0.00
    5    2    7     -0.71      0.00
    6    2    7      3.72      0.00
    7    2    7     -4.11      0.00
    8    2    7      1.66      0.00
    9    2    7     -0.24      0.00
   10    2    7      0.56      0.00
   11    2    7     -0.63      0.00
   -9    3    7     -0.14      0.00
   -8    3    7      0.31      0.00
   -7    3    7     -0.82      0.00
   -6    3    7     -0.04      0.00
   -5    3    7      0.09      0.00
   -4    3    7      1.83      0.00
   -3    3    7     -5.84      0.00
   -2    3    7      9.11      0.00
   -1    3    7     -6.85      0.00
    0    3    7      2.89      0.00
    2    3    7      0.79      0.00
    3    3    7     -0.12      0.00
    4    3    7      0.86      0.00
    5    3    7     -1.79      0.00
    6    3    7      2.68      0.00
    7    3    7     -1.76      0.00
    8    3    7     -0.40      0.00
    9    3    7     -0.39      0.00
   10    3    7      2.34      0.00
   11    3    7     -1.56      0.00
   -9    4    7     -0.82      0.00
   -8    4    7      1.61      0.00
   -7    4    7     -2.13      0.00
   -6    4    7      2.74      0.00
   -5    4    7     -5.60      0.00
   -4    4    7     10.22      0.00
   -3    4    7    -10.79      0.00
   -2    4    7      1.27      0.00
    0    4    7    -10.66      0.00
    1    4    7      1.78      0.00
    2    4    7      3.69      0.00
    3    4    7     -2.09      0.00
    4    4    7     -0.17      0.00
    5    4    7      0.06      0.00
    6    4    7      1.37      0.00
    7    4    7     -1.31      0.00
    8    4    7      0.01      0.00
    9    4    7     -0.18      0.00
   10    4    7      0.65      0.00
   11    4    7     -0.05      0.00
   -9    5    7     -0.01      0.00
   -8    5    7     -0.47      0.00
   -7    5    7      0.55      0.00
   -6    5    7      0.77      0.00
   -5    5    7     -2.53      0.00
   -4    5    7      3.25      0.00
   -3    5    7     -2.11      0.00
   -2    5    7      1.23      0.00
   -1    5    7     -5.53      0.00
    0    5    7     11.45      0.00
    1    5    7    -10.37      0.00
    2    5    7      2.28      0.00
    3    5    7      3.03      0.00
    4    5    7     -2.19      0.00
    5    5    7      0.34      0.00
    6    5    7     -0.69      0.00
    7    5    7      1.33      0.00
    8    5    7     -1.46      0.00
    9    5    7      0.84      0.00
   10    5    7     -0.08      0.00
   11    5    7      0.00      0.00
   -9    6    7      0.26      0.00
   -8    6    7     -1.32      0.00
   -7    6    7      1.46      0.00
   -6    6    7     -0.15      0.00
   -5    6    7     -1.11      0.00
   -4    6    7      1.24      0.00
   -3    6    7      0.93      0.00
   -2    6    7     -5.83      0.00
   -1    6    7      8.21      0.00
    0    6    7     -6.45      0.00
    2    6    7     -0.84      0.00
    3    6    7     -1.03      0.00
    4    6    7      0.82      0.00
    5    6    7     -0.06      0.00
    6    6    7      0.12      0.00
    7    6    7     -0.92      0.00
    8    6    7      0.76      0.00
    9    6    7     -0.10      0.00
   10    6    7     -0.73      0.00
   11    6    7      0.68      0.00
   -8    7    7     -0.19      0.00
   -7    7    7      0.90      0.00
   -6    7    7     -0.33      0.00
   -5    7    7      0.52      0.00
   -4    7    7     -1.46      0.00
   -3    7    7      1.70      0.00
   -2    7    7      0.11      0.00
   -1    7    7     -4.90      0.00
    0    7    7      6.74      0.00
    1    7    7     -2.31      0.00
    2    7    7     -2.52      0.00
    3    7    7      3.50      0.00
    4    7    7     -2.05      0.00
    5    7    7      0.51      0.00
    6    7    7     -0.66      0.00
    7    7    7      0.60      0.00
    8    7    7      0.09      0.00
    9    7    7      0.13      0.00
   10    7    7     -0.57      0.00
   11    7    7     -0.03      0.00
   -8    8    7     -0.70      0.00
   -7    8    7      0.31      0.00
   -6    8    7      0.81      0.00
   -5    8    7     -0.26      0.00
   -4    8    7      0.12      0.00
   -3    8    7     -1.17      0.00
   -2    8    7      1.43      0.00
   -1    8    7      0.31      0.00
    0    8    7     -3.45      0.00
    1    8    7      4.09      0.00
    2    8    7      0.50      0.00
    3    8    7     -4.04      0.00
    4    8    7      3.29      0.00
    5    8    7     -1.62      0.00
    6    8    7      0.46      0.00
    7    8    7     -0.35      0.00
    8    8    7     -0.10      0.00
    9    8    7      0.28      0.00
   10    8    7      0.14      0.00
   11    8    7     -0.04      0.00
   -8    9    7     -0.61      0.00
   -7    9    7      0.07      0.00
   -6    9    7      0.95      0.00
   -5    9    7     -0.77      0.00
   -4    9    7      0.24      0.00
   -3    9    7      0.14      0.00
   -2    9    7     -1.27      0.00
   -1    9    7      2.80      0.00
    0    9    7     -3.10      0.00
    1    9    7      1.57      0.00
    2    9    7      0.44      0.00
    3    9    7     -0.20      0.00
    4    9    7      0.07      0.00
    5    9    7     -0.28      0.00
    6    9    7      0.33      0.00
    7    9    7     -0.75      0.00
    8    9    7      0.37      0.00
    9    9    7     -0.04      0.00
   10    9    7      0.16      0.00
   11    9    7     -0.02      0.00
   -7   10    7      0.16      0.00
   -6   10    7     -0.38      0.00
   -5   10    7      0.75      0.00
   -4   10    7     -0.95      0.00
   -3   10    7      1.01      0.00
   -2   10    7     -1.06      0.00
   -1   10    7      0.67      0.00
    0   10    7      0.75      0.00
    1   10    7     -1.82      0.00
    2   10    7      1.49      0.00
    3   10    7     -0.11      0.00
    4   10    7     -0.17      0.00
    5   10    7      0.00      0.00
    6   10    7      0.06      0.00
    7   10    7     -0.17      0.00
    8   10    7     -0.19      0.00
    9   10    7      0.22      0.00
   10   10    7      0.49      0.00
   -6   11    7     -0.22      0.00
   -5   11    7     -0.29      0.00
   -4   11    7     -0.05      0.00
   -3   11    7      0.65      0.00
   -2   11    7     -1.66      0.00
   -1   11    7      1.64      0.00
    0   11    7     -0.16      0.00
    1   11    7     -0.55      0.00
    2   11    7      0.10      0.00
    3   11    7      0.78      0.00
    4   11    7      0.01      0.00
    5   11    7     -0.88      0.00
    6   11    7      0.70      0.00
    7   11    7     -0.69      0.00
    8   11    7     -0.01      0.00
    9   11    7      0.77      0.00
   10   11    7     -0.31      0.00
   -6   12    7     -0.59      0.00
   -5   12    7      0.05      0.00
   -4   12    7      0.32      0.00
   -3   12    7      0.12      0.00
   -2   12    7     -0.94      0.00
   -1   12    7     -0.10      0.00
    0   12    7      0.66      0.00
    1   12    7     -0.15      0.00
    2   12    7     -0.20      0.00
    3   12    7      0.22      0.00
    4   12    7      0.11      0.00
    5   12    7      0.23      0.00
    6   12    7     -0.32      0.00
    7   12    7     -0.07      0.00
    8   12    7      0.04      0.00
    9   12    7      0.19      0.00
   -5   13    7     -0.44      0.00
   -4   13    7      0.72      0.00
   -3   13    7     -0.82      0.00
   -2   13    7      0.78      0.00
   -1   13    7     -0.95      0.00
    0   13    7      0.51      0.00
    1   13    7      0.01      0.00
    2   13    7      0.08      0.00
    3   13    7     -1.07      0.00
    4   13    7      1.33      0.00
    5   13    7     -0.94      0.00
    6   13    7      0.51      0.00
    7   13    7     -0.36      0.00
    8   13    7      0.41      0.00
    9   13    7     -0.02      0.00
   -3   14    7     -1.51      0.00
   -2   14    7      0.86      0.00
   -1   14    7     -1.12      0.00
    0   14    7      1.09      0.00
    1   14    7      0.74      0.00
    2   14    7     -1.67      0.00
    3   14    7      0.64      0.00
    4   14    7     -0.12      0.00
    5   14    7      0.67      0.00
    6   14    7     -0.87      0.00
    7   14    7      0.03      0.00
    8   14    7      0.35      0.00
   -2   15    7     -0.10      0.00
   -1   15    7     -0.64      0.00
    0   15    7      0.01      0.00
    1   15    7      1.38      0.00
    2   15    7     -1.50      0.00
    3   15    7      0.08      0.00
    4   15    7      0.63      0.00
    5   15    7     -0.06      0.00
    6   15    7     -0.07      0.00
    7   15    7     -0.05      0.00
    0   16    7     -1.02      0.00
    1   16    7      1.03      0.00
    2   16    7     -0.82      0.00
    3   16    7      0.23      0.00
    4   16    7     -0.18      0.00
   -3   -9    8     -0.05      0.00
   -2   -9    8      0.05      0.00
   -1   -9    8     -0.08      0.00
    0   -9    8      0.57      0.00
    1   -9    8     -1.27      0.00
    2   -9    8      1.35      0.00
    3   -9    8     -0.33      0.00
   -5   -8    8     -0.40      0.00
   -4   -8    8      0.06      0.00
   -3   -8    8     -0.17      0.00
   -2   -8    8      0.07      0.00
   -1   -8    8     -0.20      0.00
    0   -8    8      0.72      0.00
    1   -8    8     -0.15      0.00
    2   -8    8     -0.13      0.00
    3   -8    8     -0.03      0.00
    4   -8    8      0.14      0.00
   -6   -7    8      0.42      0.00
   -5   -7    8     -0.27      0.00
   -4   -7    8     -0.11      0.00
   -3   -7    8      0.42      0.00
   -2   -7    8     -0.90      0.00
   -1   -7    8      0.27      0.00
    0   -7    8      0.20      0.00
    1   -7    8      0.18      0.00
    2   -7    8      0.58      0.00
    3   -7    8     -0.71      0.00
    4   -7    8      0.46      0.00
    5   -7    8     -0.99      0.00
    6   -7    8      1.08      0.00
   -7   -6    8     -0.75      0.00
   -6   -6    8      1.15      0.00
   -5   -6    8     -1.27      0.00
   -4   -6    8      0.85      0.00
   -3   -6    8     -0.89      0.00
   -2   -6    8      1.77      0.00
   -1   -6    8     -2.14      0.00
    0   -6    8      0.68      0.00
    1   -6    8      1.00      0.00
    2   -6    8     -0.51      0.00
    3   -6    8     -0.54      0.00
    4   -6    8      1.43      0.00
    5   -6    8     -1.55      0.00
    6   -6    8      1.02      0.00
    7   -6    8     -0.39      0.00
   -7   -5    8     -0.43      0.00
   -6   -5    8      0.69      0.00
   -5   -5    8     -0.60      0.00
   -4   -5    8      0.65      0.00
   -3   -5    8     -1.96      0.00
   -2   -5    8      2.98      0.00
   -1   -5    8     -2.49      0.00
    0   -5    8      0.64      0.00
    1   -5    8      0.35      0.00
    2   -5    8      0.23      0.00
    3   -5    8     -0.03      0.00
    4   -5    8     -0.71      0.00
    5   -5    8      1.42      0.00
    6   -5    8     -0.93      0.00
    7   -5    8      0.33      0.00
    8   -5    8     -0.15      0.00
   -8   -4    8      0.21      0.00
   -7   -4    8     -0.01      0.00
   -6   -4    8     -0.13      0.00
   -5   -4    8      0.18      0.00
   -4   -4    8      0.67      0.00
   -3   -4    8     -2.20      0.00
   -2   -4    8      1.83      0.00
   -1   -4    8      0.98      0.00
    0   -4    8     -3.26      0.00
    1   -4    8      2.36      0.00
    2   -4    8     -0.98      0.00
    3   -4    8      0.94      0.00
    4   -4    8     -0.98      0.00
    5   -4    8      0.78      0.00
    6   -4    8      0.43      0.00
    7   -4    8     -0.65      0.00
    8   -4    8      0.46      0.00
   -8   -3    8     -0.20      0.00
   -7   -3    8      1.27      0.00
   -6   -3    8     -1.74      0.00
   -5   -3    8      1.08      0.00
   -4   -3    8     -0.53      0.00
   -3   -3    8      0.39      0.00
   -2   -3    8     -1.14      0.00
   -1   -3    8      1.39      0.00
    0   -3    8     -0.01      0.00
    1   -3    8     -1.89      0.00
    2   -3    8      2.02      0.00
    3   -3    8     -0.89      0.00
    4   -3    8      0.06      0.00
    5   -3    8      0.55      0.00
    6   -3    8     -0.58      0.00
    7   -3    8      0.52      0.00
    8   -3    8     -0.01      0.00
    9   -3    8     -0.06      0.00
   -9   -2    8      0.35      0.00
   -8   -2    8     -0.76      0.00
   -7   -2    8      0.53      0.00
   -6   -2    8      0.21      0.00
   -5   -2    8     -0.90      0.00
   -4   -2    8      1.37      0.00
   -3   -2    8     -0.98      0.00
   -2   -2    8      0.45      0.00
   -1   -2    8     -0.85      0.00
    0   -2    8      0.71      0.00
    1   -2    8      0.69      0.00
    2   -2    8     -1.99      0.00
    3   -2    8      1.33      0.00
    4   -2    8     -0.18      0.00
    5   -2    8     -0.21      0.00
    6   -2    8      0.39      0.00
    7   -2    8      0.08      0.00
    8   -2    8     -0.54      0.00
    9   -2    8      0.44      0.00
   10   -2    8     -0.13      0.00
   -9   -1    8     -0.02      0.00
   -8   -1    8      0.39      0.00
   -7   -1    8     -0.21      0.00
   -6   -1    8     -0.23      0.00
   -5   -1    8     -1.41      0.00
   -4   -1    8      2.34      0.00
   -3   -1    8     -1.60      0.00
   -2   -1    8      1.94      0.00
   -1   -1    8     -2.19      0.00
    0   -1    8      0.43      0.00
    1   -1    8      2.19      0.00
    2   -1    8     -1.82      0.00
    3   -1    8     -0.41      0.00
    4   -1    8      1.00      0.00
    5   -1    8     -0.46      0.00
    6   -1    8     -0.51      0.00
    7   -1    8      0.16      0.00
    8   -1    8      0.80      0.00
    9   -1    8     -0.09      0.00
   10   -1    8     -0.62      0.00
   -9    0    8      0.12      0.00
   -8    0    8      0.08      0.00
   -7    0    8     -0.96      0.00
   -6    0    8      2.22      0.00
   -5    0    8     -3.36      0.00
   -4    0    8      2.10      0.00
   -3    0    8     -0.26      0.00
   -2    0    8      0.30      0.00
   -1    0    8      0.03      0.00
    0    0    8     -1.84      0.00
    1    0    8      2.13      0.00
    2    0    8     -0.01      0.00
    3    0    8     -0.68      0.00
    4    0    8      0.18      0.00
    5    0    8      0.55      0.00
    6    0    8     -0.85      0.00
    7    0    8     -0.09      0.00
    8    0    8      0.53      0.00
    9    0    8     -0.75      0.00
   10    0    8      1.14      0.00
   -9    1    8      0.18      0.00
   -8    1    8      0.01      0.00
   -7    1    8     -0.29      0.00
   -6    1    8     -0.35      0.00
   -5    1    8     -0.07      0.00
   -4    1    8     -0.22      0.00
   -3    1    8      1.05      0.00
   -2    1    8     -0.13      0.00
   -1    1    8      0.68      0.00
    0    1    8     -1.26      0.00
    1    1    8     -0.26      0.00
    2    1    8      1.11      0.00
    3    1    8     -0.88      0.00
    4    1    8      0.84      0.00
    5    1    8     -0.75      0.00
    6    1    8      1.67      0.00
    7    1    8     -2.23      0.00
    8    1    8      1.49      0.00
    9    1    8     -0.92      0.00
   10    1    8      0.70      0.00
   11    1    8     -0.57      0.00
   -9    2    8      0.62      0.00
   -8    2    8      0.33      0.00
   -7    2    8     -0.98      0.00
   -6    2    8     -0.12      0.00
   -5    2    8      1.18      0.00
   -4    2    8     -2.61      0.00
   -3    2    8      2.01      0.00
   -2    2    8     -0.67      0.00
   -1    2    8      1.50      0.00
    0    2    8     -0.73      0.00
    1    2    8     -1.66      0.00
    2    2    8      2.35      0.00
    3    2    8     -1.24      0.00
    4    2    8      0.79      0.00
    5    2    8     -1.95      0.00
    6    2    8      3.52      0.00
    7    2    8     -2.35      0.00
    8    2    8      0.14      0.00
    9    2    8     -0.07      0.00
   10    2    8      0.56      0.00
   11    2    8     -0.28      0.00
   -9    3    8     -0.13      0.00
   -8    3    8      0.82      0.00
   -7    3    8     -0.73      0.00
   -6    3    8      0.82      0.00
   -5    3    8     -2.72      0.00
   -4    3    8      5.57      0.00
   -3    3    8     -5.93      0.00
   -2    3    8      1.93      0.00
   -1    3    8      1.51      0.00
    0    3    8     -0.17      0.00
    1    3    8     -2.70      0.00
    2    3    8      1.67      0.00
    3    3    8      0.33      0.00
    4    3    8      0.70      0.00
    5    3    8     -2.76      0.00
    6    3    8      3.44      0.00
    7    3    8     -1.01      0.00
    8    3    8     -0.88      0.00
    9    3    8     -0.09      0.00
   10    3    8      0.61      0.00
   11    3    8     -0.29      0.00
   -9    4    8     -0.50      0.00
   -8    4    8      0.34      0.00
   -7    4    8     -0.44      0.00
   -6    4    8      0.77      0.00
   -5    4    8     -2.22      0.00
   -4    4    8      3.28      0.00
   -3    4    8     -1.91      0.00
   -2    4    8      0.25      0.00
   -1    4    8     -1.33      0.00
    0    4    8      3.14      0.00
    1    4    8     -1.91      0.00
    2    4    8     -0.96      0.00
    3    4    8      0.64      0.00
    4    4    8      1.14      0.00
    5    4    8     -1.30      0.00
    6    4    8     -0.31      0.00
    7    4    8      2.59      0.00
    8    4    8     -2.05      0.00
    9    4    8     -1.01      0.00
   10    4    8      1.51      0.00
   11    4    8     -0.21      0.00
   -9    5    8     -0.09      0.00
   -8    5    8     -0.09      0.00
   -7    5    8     -0.08      0.00
   -6    5    8      1.15      0.00
   -5    5    8     -2.48      0.00
   -4    5    8      2.01      0.00
   -3    5    8      2.23      0.00
   -2    5    8     -8.50      0.00
   -1    5    8      9.75      0.00
    0    5    8     -5.87      0.00
    1    5    8      1.68      0.00
    2    5    8      0.28      0.00
    3    5    8     -0.48      0.00
    4    5    8      0.00      0.00
    5    5    8      0.49      0.00
    6    5    8     -0.75      0.00
    7    5    8      0.42      0.00
    8    5    8      0.38      0.00
    9    5    8     -0.61      0.00
   10    5    8     -0.68      0.00
   11    5    8      0.95      0.00
   -8    6    8     -1.34      0.00
   -7    6    8      1.59      0.00
   -6    6    8     -1.11      0.00
   -5    6    8      2.26      0.00
   -4    6    8     -4.35      0.00
   -3    6    8      5.46      0.00
   -2    6    8     -0.90      0.00
   -1    6    8     -8.33      0.00
    0    6    8     10.99      0.00
    1    6    8     -4.79      0.00
    2    6    8     -2.25      0.00
    3    6    8      4.00      0.00
    4    6    8     -1.78      0.00
    5    6    8      0.15      0.00
    6    6    8     -0.41      0.00
    7    6    8      0.58      0.00
    8    6    8     -0.89      0.00
    9    6    8      1.04      0.00
   10    6    8     -0.38      0.00
   11    6    8     -0.54      0.00
   -8    7    8     -0.79      0.00
   -7    7    8      0.82      0.00
   -6    7    8     -0.54      0.00
   -5    7    8      0.98      0.00
   -4    7    8     -1.07      0.00
   -3    7    8      1.07      0.00
   -2    7    8     -1.05      0.00
   -1    7    8      3.18      0.00
    0    7    8     -7.16      0.00
    1    7    8      6.92      0.00
    2    7    8     -1.85      0.00
    3    7    8     -1.70      0.00
    4    7    8      1.96      0.00
    5    7    8     -0.89      0.00
    6    7    8      0.62      0.00
    7    7    8     -1.23      0.00
    8    7    8      0.15      0.00
    9    7    8      1.07      0.00
   10    7    8     -1.01      0.00
   11    7    8      0.24      0.00
   -8    8    8      0.57      0.00
   -7    8    8     -0.67      0.00
   -6    8    8      0.48      0.00
   -5    8    8      0.43      0.00
   -4    8    8     -0.48      0.00
   -3    8    8     -0.30      0.00
   -2    8    8      1.33      0.00
   -1    8    8     -1.63      0.00
    0    8    8      1.30      0.00
    1    8    8     -1.30      0.00
    2    8    8      0.58      0.00
    3    8    8      0.84      0.00
    4    8    8     -0.35      0.00
    5    8    8     -0.05      0.00
    6    8    8     -0.31      0.00
    7    8    8      0.22      0.00
    8    8    8     -0.32      0.00
    9    8    8      0.22      0.00
   10    8    8      0.35      0.00
   11    8    8     -0.54      0.00
   -7    9    8     -1.49      0.00
   -6    9    8      1.30      0.00
   -5    9    8      0.36      0.00
   -3    9    8      0.73      0.00
   -2    9    8     -1.31      0.00
   -1    9    8      2.55      0.00
    0    9    8     -2.63      0.00
    1    9    8      0.73      0.00
    2    9    8      1.72      0.00
    4    9    8      1.72      0.00
    5    9    8     -0.68      0.00
    6    9    8      0.23      0.00
    7    9    8     -0.31      0.00
    8    9    8     -0.20      0.00
    9    9    8      0.02      0.00
   10    9    8      0.52      0.00
   11    9    8      0.01      0.00
   -7   10    8     -0.45      0.00
   -6   10    8     -0.45      0.00
   -5   10    8      1.23      0.00
   -4   10    8     -1.35      0.00
   -3   10    8      1.45      0.00
   -2   10    8     -2.23      0.00
   -1   10    8      2.04      0.00
    0   10    8     -0.76      0.00
    1   10    8     -0.04      0.00
    2   10    8     -0.84      0.00
    3   10    8      2.38      0.00
    4   10    8     -1.52      0.00
    5   10    8      0.87      0.00
    6   10    8     -0.40      0.00
    7   10    8     -0.18      0.00
    8   10    8     -0.47      0.00
    9   10    8      0.51      0.00
   10   10    8     -0.03      0.00
   -6   11    8     -0.43      0.00
   -5   11    8      0.07      0.00
   -4   11    8     -0.12      0.00
   -3   11    8      0.67      0.00
   -2   11    8     -0.34      0.00
   -1   11    8     -1.77      0.00
    0   11    8      2.95      0.00
    2   11    8     -0.09      0.00
    3   11    8      0.80      0.00
    4   11    8     -0.03      0.00
    5   11    8      0.46      0.00
    6   11    8     -0.60      0.00
    7   11    8      0.69      0.00
    8   11    8     -0.99      0.00
    9   11    8      0.23      0.00
   10   11    8      0.53      0.00
   -5   12    8     -2.10      0.00
   -4   12    8      0.42      0.00
   -3   12    8      0.79      0.00
   -2   12    8     -0.48      0.00
   -1   12    8     -0.25      0.00
    0   12    8     -0.21      0.00
    1   12    8      0.79      0.00
    2   12    8     -0.44      0.00
    3   12    8     -0.32      0.00
    4   12    8      0.36      0.00
    5   12    8     -0.13      0.00
    6   12    8      0.08      0.00
    7   12    8     -0.23      0.00
    8   12    8      0.11      0.00
    9   12    8      0.12      0.00
   -4   13    8     -0.55      0.00
   -3   13    8      0.37      0.00
   -2   13    8     -0.12      0.00
   -1   13    8     -0.31      0.00
    0   13    8     -0.60      0.00
    1   13    8      0.47      0.00
    2   13    8      0.48      0.00
    3   13    8     -0.06      0.00
    4   13    8     -1.14      0.00
    5   13    8      1.37      0.00
    6   13    8     -0.41      0.00
    7   13    8     -0.81      0.00
    8   13    8      0.98      0.00
    9   13    8     -0.51      0.00
   -3   14    8     -0.05      0.00
   -2   14    8      0.64      0.00
   -1   14    8     -0.96      0.00
    0   14    8     -0.21      0.00
    1   14    8      0.33      0.00
    2   14    8      0.59      0.00
    3   14    8     -1.27      0.00
    4   14    8      0.43      0.00
    5   14    8     -0.44      0.00
    6   14    8      1.24      0.00
    7   14    8     -1.01      0.00
    8   14    8      0.54      0.00
   -2   15    8      0.20      0.00
   -1   15    8     -0.17      0.00
    0   15    8     -0.90      0.00
    1   15    8      2.08      0.00
    2   15    8     -0.75      0.00
    3   15    8     -1.18      0.00
    4   15    8      0.35      0.00
    5   15    8      0.65      0.00
    6   15    8     -0.68      0.00
    1   16    8      1.33      0.00
    2   16    8     -0.02      0.00
    3   16    8     -0.99      0.00
    4   16    8      0.10      0.00
   -3   -8    9      0.21      0.00
   -2   -8    9     -1.18      0.00
   -1   -8    9      0.54      0.00
    0   -8    9      0.70      0.00
    1   -8    9     -1.47      0.00
    2   -8    9      1.68      0.00
    3   -8    9     -0.88      0.00
   -5   -7    9     -0.14      0.00
   -4   -7    9     -0.09      0.00
   -3   -7    9      0.59      0.00
   -2   -7    9     -0.63      0.00
   -1   -7    9     -0.05      0.00
    0   -7    9      0.21      0.00
    1   -7    9     -0.10      0.00
    2   -7    9      0.91      0.00
    3   -7    9     -1.71      0.00
    4   -7    9      1.76      0.00
    5   -7    9     -0.64      0.00
   -6   -6    9      0.70      0.00
   -5   -6    9     -0.55      0.00
   -4   -6    9      0.48      0.00
   -3   -6    9     -0.81      0.00
   -2   -6    9      0.66      0.00
   -1   -6    9     -0.22      0.00
    0   -6    9     -0.62      0.00
    1   -6    9      0.30      0.00
    2   -6    9      1.16      0.00
    3   -6    9     -0.93      0.00
    4   -6    9      0.02      0.00
    5   -6    9     -0.06      0.00
    6   -6    9      0.48      0.00
   -6   -5    9      0.64      0.00
   -5   -5    9     -0.81      0.00
   -4   -5    9      1.37      0.00
   -3   -5    9     -2.11      0.00
   -2   -5    9      2.08      0.00
   -1   -5    9     -0.48      0.00
    0   -5    9     -1.26      0.00
    1   -5    9      0.82      0.00
    2   -5    9     -0.26      0.00
    3   -5    9      0.35      0.00
    4   -5    9      0.48      0.00
    5   -5    9     -0.95      0.00
    6   -5    9      0.32      0.00
    7   -5    9      0.78      0.00
   -7   -4    9      0.24      0.00
   -6   -4    9      0.01      0.00
   -5   -4    9     -0.23      0.00
   -4   -4    9      0.22      0.00
   -3   -4    9     -0.21      0.00
   -2   -4    9     -0.75      0.00
   -1   -4    9      1.71      0.00
    0   -4    9     -0.99      0.00
    1   -4    9     -0.46      0.00
    2   -4    9      0.19      0.00
    3   -4    9      0.39      0.00
    4   -4    9     -0.67      0.00
    5   -4    9      0.70      0.00
    6   -4    9      0.04      0.00
    7   -4    9     -0.25      0.00
    8   -4    9      0.79      0.00
   -8   -3    9     -0.64      0.00
   -7   -3    9      0.40      0.00
   -6   -3    9      0.10      0.00
   -5   -3    9      0.09      0.00
   -4   -3    9     -0.27      0.00
   -3   -3    9      0.79      0.00
   -2   -3    9     -1.94      0.00
   -1   -3    9      2.38      0.00
    0   -3    9     -1.56      0.00
    1   -3    9      0.94      0.00
    2   -3    9     -1.54      0.00
    3   -3    9      1.11      0.00
    4   -3    9     -0.45      0.00
    5   -3    9      0.02      0.00
    6   -3    9      0.28      0.00
    7   -3    9      0.34      0.00
    8   -3    9     -0.63      0.00
   -8   -2    9      0.29      0.00
   -7   -2    9     -0.09      0.00
   -6   -2    9     -0.15      0.00
   -5   -2    9      0.08      0.00
   -4   -2    9     -0.70      0.00
   -3   -2    9      1.35      0.00
   -2   -2    9     -0.78      0.00
   -1   -2    9     -0.49      0.00
    0   -2    9      1.27      0.00
    1   -2    9     -1.22      0.00
    2   -2    9      1.24      0.00
    3   -2    9     -1.38      0.00
    4   -2    9      0.91      0.00
    5   -2    9     -0.48      0.00
    6   -2    9     -0.13      0.00
    7   -2    9      0.87      0.00
    8   -2    9     -1.32      0.00
    9   -2    9      1.16      0.00
   -8   -1    9     -0.16      0.00
   -7   -1    9      0.15      0.00
   -6   -1    9      1.12      0.00
   -5   -1    9     -2.21      0.00
   -4   -1    9      1.59      0.00
   -3   -1    9     -1.01      0.00
   -2   -1    9      1.39      0.00
   -1   -1    9     -0.61      0.00
    0   -1    9     -1.51      0.00
    1   -1    9      2.27      0.00
    2   -1    9     -1.37      0.00
    3   -1    9      0.49      0.00
    4   -1    9      0.09      0.00
    5   -1    9     -0.16      0.00
    6   -1    9      0.16      0.00
    7   -1    9      0.02      0.00
    8   -1    9     -0.73      0.00
    9   -1    9      0.40      0.00
   -8    0    9     -0.14      0.00
   -7    0    9      0.39      0.00
   -6    0    9      0.07      0.00
   -5    0    9     -1.45      0.00
   -4    0    9      0.74      0.00
   -3    0    9      0.05      0.00
   -2    0    9      0.06      0.00
   -1    0    9      1.30      0.00
    0    0    9     -1.83      0.00
    1    0    9      0.49      0.00
    2    0    9      1.08      0.00
    3    0    9     -1.41      0.00
    4    0    9      0.50      0.00
    5    0    9      0.58      0.00
    6    0    9     -0.54      0.00
    7    0    9     -0.23      0.00
    8    0    9      0.71      0.00
    9    0    9     -0.92      0.00
   10    0    9      0.74      0.00
   -8    1    9      0.78      0.00
   -7    1    9     -1.48      0.00
   -6    1    9      1.65      0.00
   -5    1    9     -0.67      0.00
   -4    1    9     -1.83      0.00
   -3    1    9      2.21      0.00
   -2    1    9     -2.15      0.00
   -1    1    9      2.47      0.00
    0    1    9     -0.57      0.00
    1    1    9     -2.22      0.00
    2    1    9      3.13      0.00
    3    1    9     -1.42      0.00
    4    1    9      0.20      0.00
    5    1    9     -0.61      0.00
    6    1    9      1.52      0.00
    7    1    9     -1.19      0.00
    8    1    9      0.72      0.00
    9    1    9     -1.38      0.00
   10    1    9      1.24      0.00
   -8    2    9      1.40      0.00
   -7    2    9     -0.56      0.00
   -6    2    9     -0.66      0.00
   -5    2    9      0.21      0.00
   -4    2    9      0.74      0.00
   -3    2    9     -0.89      0.00
   -2    2    9      0.21      0.00
   -1    2    9     -0.40      0.00
    0    2    9      2.24      0.00
    1    2    9     -2.89      0.00
    2    2    9      1.06      0.00
    3    2    9     -0.39      0.00
    4    2    9      1.47      0.00
    5    2    9     -2.55      0.00
    6    2    9      2.66      0.00
    7    2    9     -0.72      0.00
    8    2    9      0.16      0.00
    9    2    9     -0.92      0.00
   10    2    9      0.37      0.00
   -8    3    9      0.21      0.00
   -7    3    9     -0.61      0.00
   -6    3    9      0.69      0.00
   -5    3    9     -1.39      0.00
   -4    3    9      1.18      0.00
   -3    3    9     -0.67      0.00
   -2    3    9      0.24      0.00
   -1    3    9     -0.25      0.00
    0    3    9      0.69      0.00
    1    3    9     -0.02      0.00
    2    3    9     -0.30      0.00
    3    3    9     -0.77      0.00
    4    3    9      1.24      0.00
    5    3    9     -1.31      0.00
    6    3    9     -0.08      0.00
    7    3    9      2.03      0.00
    8    3    9     -0.74      0.00
    9    3    9     -0.89      0.00
   10    3    9      0.44      0.00
   11    3    9     -0.25      0.00
   -8    4    9      0.64      0.00
   -7    4    9     -1.33      0.00
   -6    4    9      2.56      0.00
   -5    4    9     -3.62      0.00
   -4    4    9      3.23      0.00
   -3    4    9     -0.57      0.00
   -2    4    9     -2.65      0.00
   -1    4    9      2.79      0.00
    0    4    9     -1.55      0.00
    1    4    9      0.46      0.00
    2    4    9      0.14      0.00
    3    4    9     -0.31      0.00
    4    4    9      0.33      0.00
    5    4    9      0.14      0.00
    6    4    9     -1.38      0.00
    7    4    9      1.29      0.00
    8    4    9      0.48      0.00
    9    4    9     -0.41      0.00
   10    4    9     -1.10      0.00
   11    4    9      0.96      0.00
   -8    5    9     -0.29      0.00
   -7    5    9      0.36      0.00
   -6    5    9     -0.70      0.00
   -5    5    9      1.71      0.00
   -4    5    9     -3.50      0.00
   -3    5    9      4.93      0.00
   -2    5    9     -1.47      0.00
   -1    5    9     -3.60      0.00
    1    5    9     -0.39      0.00
    2    5    9     -1.25      0.00
    3    5    9      0.49      0.00
    4    5    9      0.15      0.00
    5    5    9      0.69      0.00
    6    5    9     -1.92      0.00
    7    5    9      1.80      0.00
    8    5    9     -0.82      0.00
    9    5    9      0.66      0.00
   10    5    9     -0.97      0.00
   11    5    9      0.44      0.00
   -8    6    9     -0.97      0.00
   -7    6    9      1.19      0.00
   -6    6    9     -1.02      0.00
   -5    6    9      1.82      0.00
   -4    6    9     -3.56      0.00
   -3    6    9      4.31      0.00
   -2    6    9     -3.48      0.00
   -1    6    9      4.16      0.00
    0    6    9     -5.80      0.00
    1    6    9      4.73      0.00
    2    6    9     -1.74      0.00
    3    6    9     -0.43      0.00
    4    6    9      0.79      0.00
    5    6    9      0.00      0.00
    6    6    9      0.09      0.00
    7    6    9     -1.05      0.00
    8    6    9      0.80      0.00
    9    6    9      0.14      0.00
   10    6    9     -0.39      0.00
   11    6    9     -0.30      0.00
   -8    7    9      0.22      0.00
   -7    7    9      0.39      0.00
   -6    7    9     -1.51      0.00
   -5    7    9      3.45      0.00
   -4    7    9     -3.45      0.00
   -3    7    9      1.04      0.00
   -2    7    9      3.21      0.00
   -1    7    9     -5.95      0.00
    0    7    9      4.98      0.00
    1    7    9     -2.00      0.00
    2    7    9     -0.73      0.00
    3    7    9      1.46      0.00
    4    7    9     -0.53      0.00
    5    7    9     -0.07      0.00
    6    7    9      0.38      0.00
    7    7    9      0.28      0.00
    8    7    9     -1.33      0.00
    9    7    9      0.64      0.00
   10    7    9      0.76      0.00
   11    7    9     -0.90      0.00
   -7    8    9      0.54      0.00
   -6    8    9     -0.96      0.00
   -5    8    9      0.35      0.00
   -4    8    9      1.21      0.00
   -3    8    9     -1.09      0.00
   -2    8    9     -1.00      0.00
   -1    8    9      4.36      0.00
    0    8    9     -5.37      0.00
    1    8    9      2.68      0.00
    3    8    9     -2.30      0.00
    4    8    9      1.64      0.00
    5    8    9     -0.15      0.00
    6    8    9      0.16      0.00
    7    8    9     -0.48      0.00
    8    8    9     -0.05      0.00
    9    8    9     -0.19      0.00
   10    8    9      0.41      0.00
   11    8    9      0.06      0.00
   -7    9    9     -0.53      0.00
   -6    9    9     -0.19      0.00
   -5    9    9      0.79      0.00
   -4    9    9     -0.92      0.00
   -3    9    9      1.14      0.00
   -2    9    9     -1.13      0.00
   -1    9    9     -0.39      0.00
    0    9    9      2.64      0.00
    1    9    9     -2.70      0.00
    2    9    9     -0.13      0.00
    4    9    9     -1.39      0.00
    5    9    9      1.09      0.00
    6    9    9     -0.54      0.00
    7    9    9      0.47      0.00
    8    9    9     -0.83      0.00
    9    9    9     -0.22      0.00
   10    9    9      1.14      0.00
   -6   10    9     -0.72      0.00
   -5   10    9      1.39      0.00
   -4   10    9     -1.14      0.00
   -3   10    9      0.90      0.00
   -2   10    9     -0.40      0.00
   -1   10    9     -0.93      0.00
    0   10    9      1.14      0.00
    1   10    9      0.03      0.00
    2   10    9     -0.92      0.00
    3   10    9      0.35      0.00
    5   10    9      0.99      0.00
    6   10    9     -0.37      0.00
    7   10    9      0.60      0.00
    8   10    9     -1.24      0.00
    9   10    9      0.40      0.00
   10   10    9      0.24      0.00
   -6   11    9     -0.52      0.00
   -5   11    9     -0.26      0.00
   -4   11    9      0.70      0.00
   -3   11    9     -0.78      0.00
   -2   11    9      0.78      0.00
   -1   11    9     -1.01      0.00
    0   11    9      0.23      0.00
    1   11    9      0.52      0.00
    2   11    9     -1.09      0.00
    3   11    9      1.56      0.00
    4   11    9     -1.44      0.00
    5   11    9      1.09      0.00
    6   11    9     -0.50      0.00
    7   11    9      0.10      0.00
    8   11    9      0.09      0.00
    9   11    9     -0.54      0.00
   10   11    9      0.47      0.00
   -5   12    9     -0.56      0.00
   -4   12    9      0.28      0.00
   -3   12    9     -0.42      0.00
   -2   12    9      1.28      0.00
   -1   12    9     -1.91      0.00
    0   12    9      1.51      0.00
    1   12    9     -1.59      0.00
    2   12    9      0.93      0.00
    3   12    9     -0.78      0.00
    4   12    9      0.70      0.00
    5   12    9      0.54      0.00
    6   12    9     -1.39      0.00
    7   12    9      1.24      0.00
    8   12    9     -0.54      0.00
    9   12    9     -0.28      0.00
   -4   13    9     -0.10      0.00
   -3   13    9      0.15      0.00
   -2   13    9      0.23      0.00
   -1   13    9      0.85      0.00
    0   13    9     -1.38      0.00
    1   13    9      0.56      0.00
    2   13    9     -0.01      0.00
    3   13    9     -0.09      0.00
    4   13    9     -0.72      0.00
    5   13    9      0.35      0.00
    6   13    9      0.18      0.00
    7   13    9     -0.44      0.00
    8   13    9      0.52      0.00
   -3   14    9      0.40      0.00
   -2   14    9     -0.11      0.00
   -1   14    9      0.52      0.00
    0   14    9     -0.39      0.00
    1   14    9     -0.37      0.00
    2   14    9      0.66      0.00
    3   14    9      0.62      0.00
    4   14    9     -1.37      0.00
    5   14    9      0.28      0.00
    6   14    9      0.18      0.00
    7   14    9     -0.65      0.00
    8   14    9      0.69      0.00
   -1   15    9      0.12      0.00
    0   15    9     -1.12      0.00
    1   15    9      0.24      0.00
    2   15    9      1.25      0.00
    3   15    9     -0.96      0.00
    4   15    9     -0.10      0.00
    5   15    9     -0.55      0.00
    6   15    9      0.96      0.00
    1   16    9      0.95      0.00
    2   16    9      0.72      0.00
    3   16    9     -0.79      0.00
    4   16    9     -0.55      0.00
   -3   -7   10      0.44      0.00
   -2   -7   10     -0.66      0.00
   -1   -7   10      0.16      0.00
    0   -7   10     -0.03      0.00
    1   -7   10     -0.60      0.00
    2   -7   10      1.49      0.00
    3   -7   10     -1.00      0.00
   -4   -6   10     -0.20      0.00
   -3   -6   10     -0.13      0.00
   -2   -6   10      0.70      0.00
   -1   -6   10     -0.40      0.00
    0   -6   10     -0.66      0.00
    1   -6   10      0.22      0.00
    2   -6   10      0.86      0.00
    3   -6   10     -1.47      0.00
    4   -6   10      1.62      0.00
    5   -6   10     -0.52      0.00
   -5   -5   10     -0.13      0.00
   -4   -5   10      0.37      0.00
   -3   -5   10     -0.83      0.00
   -2   -5   10     -0.20      0.00
   -1   -5   10      1.50      0.00
    0   -5   10     -1.13      0.00
    1   -5   10     -0.26      0.00
    2   -5   10      0.80      0.00
    3   -5   10     -0.54      0.00
    4   -5   10     -0.32      0.00
    5   -5   10      0.68      0.00
    6   -5   10     -0.26      0.00
   -6   -4   10     -0.17      0.00
   -5   -4   10      0.18      0.00
   -4   -4   10      0.33      0.00
   -3   -4   10      0.12      0.00
   -2   -4   10     -1.41      0.00
   -1   -4   10      1.49      0.00
    0   -4   10     -0.21      0.00
    1   -4   10     -0.43      0.00
    2   -4   10     -0.26      0.00
    3   -4   10      0.24      0.00
    4   -4   10      0.35      0.00
    5   -4   10     -0.53      0.00
    6   -4   10     -0.37      0.00
    7   -4   10      0.91      0.00
   -7   -3   10      0.08      0.00
   -6   -3   10      0.02      0.00
   -5   -3   10      0.25      0.00
   -4   -3   10     -1.05      0.00
   -3   -3   10      2.02      0.00
   -2   -3   10     -1.77      0.00
   -1   -3   10      0.01      0.00
    0   -3   10      1.58      0.00
    1   -3   10     -1.33      0.00
    2   -3   10      0.61      0.00
    3   -3   10     -0.72      0.00
    4   -3   10      0.18      0.00
    5   -3   10      0.08      0.00
    6   -3   10     -0.08      0.00
    7   -3   10      0.52      0.00
    8   -3   10     -0.62      0.00
   -7   -2   10     -0.87      0.00
   -6   -2   10      1.14      0.00
   -5   -2   10     -0.34      0.00
   -4   -2   10     -0.50      0.00
   -3   -2   10      0.48      0.00
   -2   -2   10      0.36      0.00
   -1   -2   10     -0.78      0.00
    0   -2   10      0.20      0.00
    1   -2   10      0.88      0.00
    2   -2   10     -1.16      0.00
    3   -2   10      0.37      0.00
    4   -2   10      0.25      0.00
    5   -2   10     -0.62      0.00
    6   -2   10      0.02      0.00
    7   -2   10      1.21      0.00
    8   -2   10     -1.32      0.00
   -7   -1   10     -0.47      0.00
   -6   -1   10      0.61      0.00
   -5   -1   10     -0.56      0.00
   -4   -1   10      0.07      0.00
   -3   -1   10     -0.17      0.00
   -2   -1   10      0.37      0.00
   -1   -1   10     -0.10      0.00
    0   -1   10      0.19      0.00
    1   -1   10     -0.55      0.00
    2   -1   10      1.26      0.00
    3   -1   10     -1.53      0.00
    4   -1   10      1.10      0.00
    5   -1   10     -0.42      0.00
    6   -1   10     -0.20      0.00
    7   -1   10      0.64      0.00
    8   -1   10     -0.51      0.00
    9   -1   10     -0.20      0.00
   -8    0   10     -1.03      0.00
   -7    0   10      0.89      0.00
   -6    0   10      0.46      0.00
   -5    0   10     -0.62      0.00
   -4    0   10     -0.45      0.00
   -3    0   10      0.56      0.00
   -2    0   10     -0.83      0.00
   -1    0   10      1.38      0.00
    0    0   10     -1.30      0.00
    1    0   10      0.35      0.00
    2    0   10      0.15      0.00
    3    0   10      0.45      0.00
    4    0   10     -0.59      0.00
    5    0   10      0.26      0.00
    6    0   10      0.62      0.00
    7    0   10     -0.50      0.00
    8    0   10      0.11      0.00
    9    0   10     -0.60      0.00
   -8    1   10      0.65      0.00
   -7    1   10      0.31      0.00
   -6    1   10     -1.39      0.00
   -5    1   10      1.87      0.00
   -4    1   10     -1.87      0.00
   -3    1   10      1.39      0.00
   -2    1   10     -1.44      0.00
   -1    1   10      0.79      0.00
    0    1   10      1.41      0.00
    1    1   10     -2.46      0.00
    2    1   10      1.47      0.00
    3    1   10     -0.56      0.00
    4    1   10      0.12      0.00
    5    1   10     -0.22      0.00
    6    1   10      0.72      0.00
    7    1   10     -0.26      0.00
    8    1   10      0.40      0.00
    9    1   10     -0.78      0.00
   10    1   10      0.48      0.00
   -8    2   10      1.41      0.00
   -7    2   10     -0.39      0.00
   -6    2   10     -0.50      0.00
   -5    2   10      0.73      0.00
   -4    2   10     -1.08      0.00
   -3    2   10      0.68      0.00
   -2    2   10     -0.38      0.00
   -1    2   10     -0.90      0.00
    0    2   10      2.13      0.00
    1    2   10     -1.81      0.00
    2    2   10      1.20      0.00
    3    2   10     -0.40      0.00
    4    2   10      0.39      0.00
    5    2   10     -1.42      0.00
    6    2   10      0.85      0.00
    7    2   10      0.18      0.00
    8    2   10      0.67      0.00
    9    2   10     -0.89      0.00
   10    2   10      0.09      0.00
   -8    3   10      0.62      0.00
   -7    3   10      0.29      0.00
   -6    3   10      0.24      0.00
   -5    3   10     -2.13      0.00
   -4    3   10      3.10      0.00
   -3    3   10     -2.14      0.00
   -2    3   10      1.07      0.00
   -1    3   10     -1.43      0.00
    0    3   10      1.10      0.00
    1    3   10     -0.06      0.00
    2    3   10     -1.00      0.00
    3    3   10      0.62      0.00
    4    3   10      0.86      0.00
    5    3   10     -0.79      0.00
    6    3   10     -0.99      0.00
    7    3   10      0.93      0.00
    8    3   10      0.92      0.00
    9    3   10     -1.08      0.00
   10    3   10      0.60      0.00
   -8    4   10      0.27      0.00
   -7    4   10     -0.96      0.00
   -6    4   10      1.32      0.00
   -5    4   10     -1.12      0.00
   -4    4   10     -0.28      0.00
   -3    4   10      1.05      0.00
   -2    4   10      0.09      0.00
   -1    4   10     -0.48      0.00
    0    4   10     -0.40      0.00
    1    4   10      0.89      0.00
    2    4   10     -0.73      0.00
    3    4   10      0.18      0.00
    4    4   10     -0.69      0.00
    5    4   10      2.24      0.00
    6    4   10     -3.54      0.00
    7    4   10      2.02      0.00
    8    4   10      0.21      0.00
    9    4   10     -0.32      0.00
   10    4   10      0.29      0.00
   -8    5   10      0.19      0.00
   -7    5   10     -0.79      0.00
   -6    5   10      1.53      0.00
   -5    5   10     -0.60      0.00
   -4    5   10     -1.04      0.00
   -3    5   10      1.50      0.00
   -2    5   10     -1.47      0.00
   -1    5   10      2.08      0.00
    1    5   10      1.17      0.00
    2    5   10     -0.56      0.00
    3    5   10      0.77      0.00
    4    5   10     -1.28      0.00
    5    5   10      2.18      0.00
    6    5   10     -1.95      0.00
    7    5   10     -0.06      0.00
    8    5   10      0.60      0.00
    9    5   10      0.40      0.00
   10    5   10     -0.49      0.00
   -7    6   10      0.62      0.00
   -6    6   10     -1.51      0.00
   -5    6   10      3.39      0.00
   -4    6   10     -3.89      0.00
   -3    6   10      1.84      0.00
   -2    6   10      2.53      0.00
   -1    6   10     -3.74      0.00
    0    6   10      0.98      0.00
    1    6   10      1.28      0.00
    2    6   10     -1.55      0.00
    3    6   10      0.84      0.00
    4    6   10     -0.75      0.00
    5    6   10      0.95      0.00
    6    6   10     -0.49      0.00
    7    6   10      0.60      0.00
    8    6   10     -1.53      0.00
    9    6   10      1.43      0.00
   10    6   10     -0.12      0.00
   -7    7   10      0.51      0.00
   -6    7   10     -0.41      0.00
   -5    7   10      0.31      0.00
   -4    7   10      0.09      0.00
   -3    7   10     -0.98      0.00
   -2    7   10      0.24      0.00
   -1    7   10      3.71      0.00
    0    7   10     -5.50      0.00
    1    7   10      3.39      0.00
    2    7   10     -0.36      0.00
    3    7   10     -0.90      0.00
    4    7   10      0.77      0.00
    5    7   10     -0.59      0.00
    6    7   10      1.02      0.00
    7    7   10     -0.58      0.00
    8    7   10     -0.43      0.00
    9    7   10      0.53      0.00
   10    7   10     -0.04      0.00
   -7    8   10     -0.63      0.00
   -6    8   10      0.20      0.00
   -5    8   10      0.10      0.00
   -4    8   10      0.50      0.00
   -3    8   10     -1.06      0.00
   -2    8   10      1.61      0.00
   -1    8   10     -2.96      0.00
    0    8   10      4.06      0.00
    1    8   10     -3.16      0.00
    3    8   10      0.90      0.00
    4    8   10     -1.12      0.00
    5    8   10      0.59      0.00
    6    8   10     -0.24      0.00
    7    8   10      1.41      0.00
    8    8   10     -1.05      0.00
    9    8   10     -0.87      0.00
   10    8   10      1.11      0.00
   -6    9   10     -0.61      0.00
   -5    9   10     -0.29      0.00
   -4    9   10      0.31      0.00
   -2    9   10     -2.44      0.00
   -1    9   10      2.05      0.00
    0    9   10     -1.77      0.00
    1    9   10      1.18      0.00
    2    9   10      0.11      0.00
    3    9   10     -0.84      0.00
    4    9   10      0.05      0.00
    5    9   10      0.64      0.00
    6    9   10      0.12      0.00
    7    9   10     -0.44      0.00
    8    9   10      1.00      0.00
    9    9   10     -1.32      0.00
   10    9   10      0.33      0.00
   -6   10   10     -0.98      0.00
   -5   10   10      0.84      0.00
   -4   10   10     -0.96      0.00
   -3   10   10      0.81      0.00
   -2   10   10      0.71      0.00
   -1   10   10     -2.50      0.00
    2   10   10     -1.19      0.00
    3   10   10      2.66      0.00
    4   10   10     -2.17      0.00
    5   10   10      1.13      0.00
    6   10   10     -0.21      0.00
    7   10   10      0.64      0.00
    8   10   10     -1.01      0.00
    9   10   10      0.30      0.00
   10   10   10      0.09      0.00
   -5   11   10     -0.83      0.00
   -4   11   10      1.43      0.00
   -3   11   10     -1.40      0.00
   -2   11   10      1.99      0.00
   -1   11   10     -2.18      0.00
    0   11   10      1.04      0.00
    1   11   10     -0.17      0.00
    2   11   10     -0.42      0.00
    3   11   10     -0.61      0.00
    4   11   10      0.53      0.00
    5   11   10      0.48      0.00
    6   11   10     -0.45      0.00
    7   11   10      0.69      0.00
    8   11   10     -0.71      0.00
    9   11   10      0.10      0.00
   -4   12   10      1.37      0.00
   -3   12   10     -1.34      0.00
   -2   12   10      0.88      0.00
   -1   12   10      0.56      0.00
    0   12   10     -1.14      0.00
    1   12   10      0.35      0.00
    2   12   10      0.43      0.00
    3   12   10     -0.37      0.00
    4   12   10     -0.50      0.00
    5   12   10      0.27      0.00
    6   12   10      0.12      0.00
    7   12   10     -0.74      0.00
    8   12   10      1.07      0.00
    9   12   10     -0.85      0.00
   -3   13   10     -0.59      0.00
   -2   13   10      0.32      0.00
   -1   13   10      0.12      0.00
    0   13   10      0.86      0.00
    1   13   10     -1.89      0.00
    2   13   10      1.54      0.00
    3   13   10     -0.86      0.00
    4   13   10      0.68      0.00
    5   13   10     -0.04      0.00
    6   13   10     -0.76      0.00
    7   13   10      0.24      0.00
    8   13   10     -0.15      0.00
   -2   14   10     -0.12      0.00
   -1   14   10      0.98      0.00
    0   14   10     -0.53      0.00
    1   14   10      0.21      0.00
    2   14   10      0.06      0.00
    3   14   10      0.04      0.00
    4   14   10     -0.45      0.00
    5   14   10     -0.15      0.00
    6   14   10      0.41      0.00
    7   14   10     -0.27      0.00
   -1   15   10      0.62      0.00
    0   15   10      0.17      0.00
    1   15   10     -0.47      0.00
    2   15   10      0.65      0.00
    3   15   10      0.39      0.00
    4   15   10     -0.29      0.00
    5   15   10     -0.31      0.00
    6   15   10     -0.61      0.00
   -2   -6   11      0.45      0.00
   -1   -6   11     -0.10      0.00
    0   -6   11     -0.01      0.00
    1   -6   11     -0.32      0.00
    2   -6   11      0.14      0.00
    3   -6   11      0.42      0.00
   -4   -5   11     -0.01      0.00
   -3   -5   11      0.12      0.00
   -2   -5   11      0.05      0.00
   -1   -5   11     -0.34      0.00
    0   -5   11      0.05      0.00
    1   -5   11     -0.10      0.00
    2   -5   11      0.29      0.00
    3   -5   11     -0.56      0.00
    4   -5   11      0.63      0.00
   -5   -4   11     -0.07      0.00
   -4   -4   11     -0.45      0.00
   -3   -4   11      1.17      0.00
   -2   -4   11     -1.41      0.00
   -1   -4   11      0.66      0.00
    0   -4   11      0.33      0.00
    1   -4   11     -0.29      0.00
    2   -4   11      0.11      0.00
    3   -4   11     -0.23      0.00
    4   -4   11     -0.45      0.00
    5   -4   11      0.53      0.00
    6   -4   11      0.02      0.00
   -5   -3   11      0.70      0.00
   -4   -3   11     -0.81      0.00
   -3   -3   11      1.10      0.00
   -2   -3   11     -0.56      0.00
   -1   -3   11     -0.71      0.00
    0   -3   11      1.08      0.00
    1   -3   11     -0.23      0.00
    2   -3   11     -0.17      0.00
    3   -3   11      0.11      0.00
    4   -3   11      0.05      0.00
    5   -3   11     -0.23      0.00
    6   -3   11     -0.88      0.00
    7   -3   11      1.39      0.00
   -6   -2   11     -0.27      0.00
   -5   -2   11      0.69      0.00
   -4   -2   11     -0.92      0.00
   -3   -2   11      0.49      0.00
   -2   -2   11      1.01      0.00
   -1   -2   11     -2.05      0.00
    0   -2   11      1.72      0.00
    1   -2   11     -0.98      0.00
    2   -2   11      1.20      0.00
    3   -2   11     -1.35      0.00
    4   -2   11      0.89      0.00
    5   -2   11     -0.42      0.00
    6   -2   11     -0.01      0.00
    7   -2   11      0.07      0.00
   -6   -1   11      0.05      0.00
   -5   -1   11     -0.21      0.00
   -4   -1   11      0.30      0.00
   -3   -1   11     -0.75      0.00
   -2   -1   11      1.10      0.00
   -1   -1   11     -0.38      0.00
    0   -1   11     -0.91      0.00
    1   -1   11      1.26      0.00
    2   -1   11     -0.80      0.00
    3   -1   11      0.41      0.00
    4   -1   11     -0.30      0.00
    5   -1   11      0.36      0.00
    6   -1   11     -0.50      0.00
    7   -1   11      0.59      0.00
    8   -1   11      0.30      0.00
   -7    0   11      0.39      0.00
   -6    0   11     -0.05      0.00
   -5    0   11     -0.04      0.00
   -4    0   11     -0.13      0.00
   -3    0   11      0.64      0.00
   -2    0   11     -1.34      0.00
   -1    0   11      0.92      0.00
    0    0   11      0.42      0.00
    1    0   11     -1.25      0.00
    2    0   11      1.30      0.00
    3    0   11     -0.99      0.00
    4    0   11      0.21      0.00
    5    0   11      0.43      0.00
    6    0   11     -0.72      0.00
    7    0   11      0.86      0.00
    8    0   11      0.31      0.00
    9    0   11     -1.05      0.00
   -7    1   11      0.49      0.00
   -6    1   11     -0.42      0.00
   -5    1   11      0.87      0.00
   -4    1   11     -1.78      0.00
   -3    1   11      1.91      0.00
   -2    1   11     -0.95      0.00
   -1    1   11     -0.67      0.00
    0    1   11      0.89      0.00
    1    1   11     -0.58      0.00
    2    1   11     -0.03      0.00
    3    1   11      1.01      0.00
    4    1   11     -0.70      0.00
    5    1   11     -0.51      0.00
    6    1   11      0.65      0.00
    7    1   11      0.03      0.00
    8    1   11      0.54      0.00
    9    1   11     -0.78      0.00
   -7    2   11      0.55      0.00
   -6    2   11     -0.91      0.00
   -5    2   11      0.79      0.00
   -4    2   11     -0.38      0.00
   -3    2   11     -0.11      0.00
   -2    2   11      0.73      0.00
   -1    2   11     -1.36      0.00
    0    2   11      1.24      0.00
    1    2   11     -0.45      0.00
    2    2   11     -0.72      0.00
    3    2   11      0.13      0.00
    4    2   11      1.05      0.00
    5    2   11     -0.78      0.00
    6    2   11     -0.29      0.00
    7    2   11      0.52      0.00
    8    2   11     -0.19      0.00
    9    2   11      0.51      0.00
   -7    3   11     -0.14      0.00
   -6    3   11      0.73      0.00
   -5    3   11     -0.79      0.00
   -4    3   11     -0.03      0.00
   -3    3   11     -0.06      0.00
   -2    3   11      0.88      0.00
   -1    3   11     -0.85      0.00
    0    3   11     -0.60      0.00
    1    3   11      1.65      0.00
    2    3   11     -0.95      0.00
    3    3   11     -0.08      0.00
    4    3   11     -0.14      0.00
    5    3   11      1.21      0.00
    6    3   11     -1.94      0.00
    7    3   11      0.60      0.00
    8    3   11      0.42      0.00
    9    3   11     -0.03      0.00
   10    3   11      0.07      0.00
   -7    4   11     -0.31      0.00
   -6    4   11      1.09      0.00
   -5    4   11     -1.19      0.00
   -4    4   11      0.98      0.00
   -3    4   11     -0.79      0.00
   -2    4   11      0.36      0.00
   -1    4   11      0.32      0.00
    0    4   11     -0.89      0.00
    1    4   11      0.77      0.00
    2    4   11     -1.02      0.00
    3    4   11      1.11      0.00
    4    4   11     -1.14      0.00
    5    4   11      1.92      0.00
    6    4   11     -1.24      0.00
    7    4   11     -0.91      0.00
    8    4   11      0.77      0.00
    9    4   11      0.20      0.00
   10    4   11     -0.01      0.00
   -7    5   11     -0.18      0.00
   -6    5   11     -0.49      0.00
   -5    5   11      1.81      0.00
   -4    5   11     -2.31      0.00
   -3    5   11      1.45      0.00
   -2    5   11      0.19      0.00
   -1    5   11     -0.31      0.00
    1    5   11     -0.13      0.00
    2    5   11     -0.28      0.00
    3    5   11      0.36      0.00
    4    5   11     -1.07      0.00
    5    5   11      1.62      0.00
    6    5   11     -0.82      0.00
    7    5   11      0.34      0.00
    8    5   11     -1.25      0.00
    9    5   11      1.09      0.00
   10    5   11      0.08      0.00
   -7    6   11      0.15      0.00
   -6    6   11      0.20      0.00
   -5    6   11      0.41      0.00
   -4    6   11     -0.18      0.00
   -3    6   11     -0.63      0.00
   -2    6   11     -0.65      0.00
   -1    6   11      2.75      0.00
    0    6   11     -2.08      0.00
    1    6   11      0.76      0.00
    2    6   11     -0.45      0.00
    3    6   11      0.57      0.00
    4    6   11     -0.14      0.00
    5    6   11     -0.34      0.00
    6    6   11      0.59      0.00
    7    6   11     -0.10      0.00
    8    6   11     -0.33      0.00
    9    6   11     -0.59      0.00
   10    6   11      1.28      0.00
   -6    7   11     -0.68      0.00
   -5    7   11      1.00      0.00
   -4    7   11      0.24      0.00
   -3    7   11     -1.41      0.00
   -2    7   11      1.99      0.00
   -1    7   11     -1.62      0.00
    0    7   11      0.78      0.00
    2    7   11     -0.10      0.00
    3    7   11      0.34      0.00
    4    7   11      0.04      0.00
    5    7   11     -0.48      0.00
    6    7   11      0.06      0.00
    7    7   11      1.41      0.00
    8    7   11     -1.42      0.00
    9    7   11      0.43      0.00
   10    7   11      0.01      0.00
   -6    8   11      0.82      0.00
   -5    8   11     -2.15      0.00
   -4    8   11      2.00      0.00
   -3    8   11     -0.73      0.00
   -2    8   11     -1.52      0.00
   -1    8   11      3.77      0.00
    0    8   11     -3.23      0.00
    1    8   11      0.93      0.00
    2    8   11      0.39      0.00
    3    8   11     -0.54      0.00
    4    8   11      0.80      0.00
    5    8   11     -0.88      0.00
    6    8   11      0.79      0.00
    7    8   11     -0.79      0.00
    8    8   11      1.13      0.00
    9    8   11     -0.61      0.00
   10    8   11      0.07      0.00
   -6    9   11      1.25      0.00
   -5    9   11     -0.79      0.00
   -4    9   11     -0.63      0.00
   -3    9   11      0.83      0.00
   -1    9   11     -2.90      0.00
    0    9   11      3.47      0.00
    1    9   11     -2.53      0.00
    2    9   11      0.23      0.00
    3    9   11      1.16      0.00
    4    9   11     -0.77      0.00
    5    9   11      0.19      0.00
    6    9   11     -0.20      0.00
    7    9   11      0.74      0.00
    8    9   11      0.23      0.00
    9    9   11     -1.18      0.00
   10    9   11      0.72      0.00
   -5   10   11      0.11      0.00
   -4   10   11     -0.77      0.00
   -3   10   11      0.66      0.00
   -2   10   11      0.60      0.00
   -1   10   11     -0.17      0.00
    0   10   11     -1.17      0.00
    1   10   11      1.15      0.00
    2   10   11     -0.53      0.00
    3   10   11     -0.75      0.00
    4   10   11      0.43      0.00
    5   10   11     -0.06      0.00
    6   10   11      0.57      0.00
    7   10   11     -0.69      0.00
    8   10   11      0.94      0.00
    9   10   11     -0.53      0.00
   -5   11   11     -0.30      0.00
   -4   11   11      0.17      0.00
   -3   11   11     -0.73      0.00
   -2   11   11      0.96      0.00
   -1   11   11      0.12      0.00
    0   11   11     -0.39      0.00
    1   11   11      0.03      0.00
    2   11   11     -0.68      0.00
    3   11   11      1.07      0.00
    4   11   11     -0.79      0.00
    5   11   11      0.01      0.00
    6   11   11     -0.04      0.00
    7   11   11      0.28      0.00
    8   11   11     -0.13      0.00
    9   11   11     -0.17      0.00
   -4   12   11      0.84      0.00
   -3   12   11     -0.29      0.00
   -2   12   11     -0.44      0.00
   -1   12   11      0.81      0.00
    0   12   11      0.05      0.00
    1   12   11     -0.57      0.00
    2   12   11      0.56      0.00
    3   12   11     -1.58      0.00
    4   12   11      1.25      0.00
    5   12   11      0.49      0.00
    7   12   11      0.71      0.00
    8   12   11     -0.67      0.00
   -3   13   11     -0.12      0.00
   -2   13   11     -0.79      0.00
   -1   13   11      1.54      0.00
    0   13   11     -1.01      0.00
    1   13   11      0.69      0.00
    2   13   11     -0.16      0.00
    3   13   11      0.70      0.00
    4   13   11     -1.33      0.00
    5   13   11      0.24      0.00
    6   13   11      0.68      0.00
    8   13   11      0.33      0.00
   -2   14   11     -0.27      0.00
   -1   14   11     -0.18      0.00
    0   14   11      0.71      0.00
    1   14   11     -0.54      0.00
    2   14   11      0.46      0.00
    3   14   11      0.18      0.00
    4   14   11      0.75      0.00
    5   14   11     -0.64      0.00
    6   14   11     -0.34      0.00
    7   14   11      0.08      0.00
    0   15   11     -1.02      0.00
    1   15   11      0.97      0.00
    2   15   11     -0.08      0.00
    3   15   11      0.04      0.00
    4   15   11      0.05      0.00
    5   15   11      0.11      0.00
   -1   -5   12     -0.14      0.00
    0   -5   12      0.53      0.00
    1   -5   12     -0.47      0.00
    2   -5   12     -0.23      0.00
   -3   -4   12      0.78      0.00
   -2   -4   12     -0.06      0.00
   -1   -4   12     -0.92      0.00
    0   -4   12      0.60      0.00
    1   -4   12     -0.05      0.00
    2   -4   12      0.00      0.00
    3   -4   12      0.28      0.00
    4   -4   12     -0.27      0.00
   -4   -3   12     -0.94      0.00
   -3   -3   12      0.95      0.00
   -2   -3   12      0.15      0.00
   -1   -3   12     -0.53      0.00
    0   -3   12     -0.07      0.00
    1   -3   12      0.61      0.00
    2   -3   12     -0.26      0.00
    3   -3   12     -0.20      0.00
    4   -3   12      0.25      0.00
    5   -3   12     -0.14      0.00
   -5   -2   12      0.47      0.00
   -4   -2   12     -0.48      0.00
   -3   -2   12     -0.43      0.00
   -2   -2   12      1.26      0.00
   -1   -2   12     -0.82      0.00
    0   -2   12     -0.23      0.00
    1   -2   12      0.62      0.00
    2   -2   12     -0.14      0.00
    3   -2   12     -0.06      0.00
    4   -2   12     -0.02      0.00
    5   -2   12      0.21      0.00
    6   -2   12     -0.67      0.00
   -5   -1   12      0.03      0.00
   -4   -1   12     -0.03      0.00
   -3   -1   12     -0.31      0.00
   -2   -1   12      0.69      0.00
   -1   -1   12     -0.53      0.00
    0   -1   12      0.19      0.00
    1   -1   12     -0.27      0.00
    2   -1   12      0.75      0.00
    3   -1   12     -0.91      0.00
    4   -1   12      0.23      0.00
    5   -1   12      0.59      0.00
    6   -1   12     -0.60      0.00
    7   -1   12     -0.24      0.00
   -6    0   12     -0.04      0.00
   -5    0   12      0.12      0.00
   -4    0   12     -0.79      0.00
   -3    0   12      0.79      0.00
   -2    0   12     -0.03      0.00
   -1    0   12      0.01      0.00
    0    0   12     -0.62      0.00
    1    0   12      0.47      0.00
    2    0   12     -0.41      0.00
    3    0   12      0.73      0.00
    4    0   12     -1.06      0.00
    5    0   12      0.86      0.00
    6    0   12     -0.62      0.00
    7    0   12      0.23      0.00
    8    0   12      0.69      0.00
   -6    1   12     -0.23      0.00
   -5    1   12      0.74      0.00
   -4    1   12     -0.72      0.00
   -3    1   12      0.37      0.00
   -2    1   12      0.03      0.00
   -1    1   12     -0.48      0.00
    0    1   12      1.23      0.00
    1    1   12     -1.33      0.00
    2    1   12      0.42      0.00
    3    1   12     -0.38      0.00
    4    1   12      0.56      0.00
    5    1   12     -0.29      0.00
    6    1   12     -0.54      0.00
    7    1   12      0.42      0.00
    8    1   12      0.72      0.00
   -6    2   12      0.03      0.00
   -5    2   12     -0.11      0.00
   -4    2   12     -0.33      0.00
   -3    2   12      0.04      0.00
   -2    2   12      1.14      0.00
   -1    2   12     -1.35      0.00
    0    2   12      0.06      0.00
    1    2   12      0.81      0.00
    2    2   12     -0.98      0.00
    3    2   12      0.79      0.00
    4    2   12     -0.22      0.00
    5    2   12     -0.12      0.00
    6    2   12     -0.16      0.00
    7    2   12     -0.40      0.00
    8    2   12      1.02      0.00
    9    2   12     -0.39      0.00
   -6    3   12      1.33      0.00
   -5    3   12     -0.90      0.00
   -4    3   12      0.68      0.00
   -3    3   12     -1.21      0.00
   -2    3   12      1.12      0.00
   -1    3   12      0.18      0.00
    0    3   12     -1.08      0.00
    1    3   12      1.05      0.00
    2    3   12     -1.06      0.00
    3    3   12      0.07      0.00
    4    3   12      0.19      0.00
    5    3   12      0.94      0.00
    6    3   12     -0.73      0.00
    7    3   12     -0.36      0.00
    8    3   12     -0.17      0.00
   -6    4   12      0.41      0.00
   -5    4   12      1.03      0.00
   -4    4   12     -1.47      0.00
   -3    4   12      0.90      0.00
   -2    4   12     -0.40      0.00
   -1    4   12      0.81      0.00
    0    4   12     -1.17      0.00
    1    4   12      1.20      0.00
    2    4   12     -0.53      0.00
    3    4   12      0.34      0.00
    4    4   12     -1.65      0.00
    5    4   12      2.25      0.00
    6    4   12     -1.19      0.00
    7    4   12      0.45      0.00
    8    4   12     -0.77      0.00
    9    4   12      0.32      0.00
   -6    5   12     -0.38      0.00
   -5    5   12      0.81      0.00
   -4    5   12     -0.39      0.00
   -3    5   12      0.02      0.00
   -2    5   12     -0.21      0.00
   -1    5   12      0.24      0.00
    0    5   12      0.22      0.00
    1    5   12     -0.27      0.00
    2    5   12     -0.26      0.00
    3    5   12      0.89      0.00
    4    5   12     -0.63      0.00
    5    5   12     -0.29      0.00
    6    5   12      1.50      0.00
    7    5   12     -1.19      0.00
    8    5   12     -0.22      0.00
    9    5   12      0.46      0.00
   -6    6   12     -1.13      0.00
   -5    6   12      1.36      0.00
   -4    6   12     -0.83      0.00
   -3    6   12      0.33      0.00
   -2    6   12      0.51      0.00
   -1    6   12     -0.76      0.00
    0    6   12      0.67      0.00
    1    6   12     -0.48      0.00
    2    6   12      0.72      0.00
    3    6   12     -1.17      0.00
    4    6   12      1.38      0.00
    5    6   12     -1.52      0.00
    6    6   12      1.25      0.00
    7    6   12      0.48      0.00
    8    6   12     -1.64      0.00
    9    6   12      1.31      0.00
   -6    7   12     -0.20      0.00
   -5    7   12     -0.73      0.00
   -4    7   12      1.80      0.00
   -3    7   12     -1.54      0.00
   -2    7   12     -1.23      0.00
   -1    7   12      2.82      0.00
    0    7   12     -1.10      0.00
    2    7   12      0.59      0.00
    3    7   12     -0.46      0.00
    4    7   12      1.24      0.00
    5    7   12     -1.48      0.00
    6    7   12      0.77      0.00
    7    7   12      0.04      0.00
    8    7   12      0.16      0.00
    9    7   12     -0.50      0.00
   -5    8   12     -0.38      0.00
   -4    8   12      0.78      0.00
   -3    8   12     -0.43      0.00
   -2    8   12      0.51      0.00
   -1    8   12     -1.87      0.00
    0    8   12      2.15      0.00
    1    8   12     -0.99      0.00
    2    8   12     -0.35      0.00
    3    8   12      0.11      0.00
    4    8   12      0.63      0.00
    5    8   12     -0.35      0.00
    6    8   12     -0.31      0.00
    7    8   12      0.42      0.00
    8    8   12      0.79      0.00
    9    8   12     -1.09      0.00
   -5    9   12     -0.99      0.00
   -4    9   12      0.20      0.00
   -3    9   12      0.01      0.00
   -2    9   12     -0.53      0.00
   -1    9   12      1.55      0.00
    0    9   12     -1.45      0.00
    1    9   12      0.77      0.00
    2    9   12     -0.16      0.00
    3    9   12     -1.18      0.00
    4    9   12      1.12      0.00
    5    9   12     -0.73      0.00
    6    9   12      1.31      0.00
    7    9   12     -2.34      0.00
    8    9   12      2.35      0.00
    9    9   12     -0.94      0.00
   -4   10   12     -0.19      0.00
   -3   10   12     -1.18      0.00
   -2   10   12      1.98      0.00
   -1   10   12     -2.23      0.00
    0   10   12      2.13      0.00
    1   10   12     -0.89      0.00
    2   10   12     -0.63      0.00
    3   10   12      0.75      0.00
    4   10   12     -0.62      0.00
    5   10   12      0.36      0.00
    6   10   12     -0.68      0.00
    7   10   12      1.29      0.00
    8   10   12     -1.15      0.00
    9   10   12      0.43      0.00
   -4   11   12      0.53      0.00
   -3   11   12     -0.88      0.00
   -2   11   12      0.27      0.00
   -1   11   12      1.11      0.00
    0   11   12     -1.22      0.00
    1   11   12      1.00      0.00
    2   11   12      0.04      0.00
    3   11   12     -1.82      0.00
    4   11   12      1.16      0.00
    5   11   12     -0.46      0.00
    6   11   12      0.73      0.00
    7   11   12     -0.72      0.00
    8   11   12      0.44      0.00
   -3   12   12      0.17      0.00
   -2   12   12     -1.19      0.00
   -1   12   12      1.56      0.00
    1   12   12     -0.11      0.00
    2   12   12      0.43      0.00
    3   12   12      0.06      0.00
    4   12   12     -0.38      0.00
    5   12   12     -0.41      0.00
    6   12   12      0.48      0.00
    7   12   12     -0.18      0.00
    8   12   12      0.17      0.00
   -2   13   12     -0.89      0.00
   -1   13   12      0.22      0.00
    0   13   12      0.56      0.00
    1   13   12     -0.71      0.00
    2   13   12      0.80      0.00
    3   13   12     -0.68      0.00
    4   13   12      0.45      0.00
    5   13   12      1.08      0.00
    6   13   12     -1.32      0.00
   -1   14   12      0.49      0.00
    0   14   12     -1.01      0.00
    2   14   12     -0.56      0.00
    3   14   12      1.12      0.00
    4   14   12     -1.05      0.00
    5   14   12      0.33      0.00
    6   14   12      0.67      0.00
    2   15   12     -0.32      0.00
    3   15   12      0.18      0.00
    4   15   12      1.26      0.00
   -2   -3   13      0.28      0.00
   -1   -3   13     -0.20      0.00
    0   -3   13     -0.21      0.00
    1   -3   13      0.02      0.00
    2   -3   13      0.55      0.00
    3   -3   13     -0.32      0.00
   -3   -2   13     -0.30      0.00
   -2   -2   13      0.37      0.00
   -1   -2   13      0.34      0.00
    0   -2   13     -0.94      0.00
    1   -2   13      0.63      0.00
    2   -2   13      0.09      0.00
    3   -2   13     -0.28      0.00
    4   -2   13      0.01      0.00
    5   -2   13      0.11      0.00
   -4   -1   13      0.10      0.00
   -3   -1   13     -0.36      0.00
   -2   -1   13      0.18      0.00
   -1   -1   13      0.75      0.00
    0   -1   13     -1.45      0.00
    1   -1   13      1.13      0.00
    2   -1   13     -0.48      0.00
    3   -1   13      0.77      0.00
    4   -1   13     -1.51      0.00
    5   -1   13      1.24      0.00
    6   -1   13     -0.63      0.00
   -4    0   13     -0.38      0.00
   -3    0   13      0.59      0.00
   -2    0   13     -0.57      0.00
   -1    0   13      0.45      0.00
    0    0   13      0.19      0.00
    1    0   13     -0.50      0.00
    2    0   13      0.28      0.00
    3    0   13     -0.11      0.00
    4    0   13     -0.10      0.00
    5    0   13      0.19      0.00
    6    0   13     -0.52      0.00
    7    0   13      0.17      0.00
   -5    1   13      0.76      0.00
   -4    1   13     -1.04      0.00
   -3    1   13      0.19      0.00
   -2    1   13      0.70      0.00
   -1    1   13     -0.43      0.00
    0    1   13     -0.03      0.00
    1    1   13      0.45      0.00
    2    1   13     -0.90      0.00
    3    1   13      0.77      0.00
    4    1   13     -0.16      0.00
    5    1   13     -0.38      0.00
    6    1   13      0.26      0.00
    7    1   13     -0.42      0.00
   -5    2   13      0.52      0.00
   -4    2   13      0.60      0.00
   -3    2   13     -1.39      0.00
   -2    2   13      0.54      0.00
   -1    2   13      0.62      0.00
    0    2   13     -0.35      0.00
    1    2   13      0.25      0.00
    2    2   13     -0.35      0.00
    3    2   13     -0.69      0.00
    4    2   13      0.90      0.00
    5    2   13     -0.17      0.00
    6    2   13      0.09      0.00
    7    2   13     -0.66      0.00
    8    2   13      0.17      0.00
   -5    3   13     -0.29      0.00
   -4    3   13      0.58      0.00
   -3    3   13     -0.25      0.00
   -2    3   13     -0.24      0.00
   -1    3   13      0.90      0.00
    0    3   13     -1.22      0.00
    1    3   13      1.08      0.00
    2    3   13     -0.51      0.00
    3    3   13      0.70      0.00
    4    3   13     -1.54      0.00
    5    3   13      1.23      0.00
    6    3   13      0.03      0.00
    7    3   13     -0.63      0.00
    8    3   13      0.27      0.00
   -5    4   13     -0.01      0.00
   -4    4   13      0.38      0.00
   -3    4   13     -0.61      0.00
   -2    4   13     -0.12      0.00
   -1    4   13      1.03      0.00
    0    4   13     -0.59      0.00
    1    4   13     -0.06      0.00
    2    4   13     -0.31      0.00
    3    4   13      0.71      0.00
    4    4   13     -0.68      0.00
    5    4   13      0.30      0.00
    6    4   13      0.62      0.00
    7    4   13     -0.41      0.00
    8    4   13     -0.31      0.00
   -5    5   13      1.17      0.00
   -4    5   13     -0.89      0.00
   -3    5   13      0.72      0.00
   -2    5   13     -0.49      0.00
   -1    5   13      0.10      0.00
    0    5   13      0.57      0.00
    1    5   13     -0.46      0.00
    2    5   13      0.09      0.00
    3    5   13     -0.03      0.00
    4    5   13      0.17      0.00
    5    5   13     -0.22      0.00
    6    5   13     -0.36      0.00
    7    5   13      1.35      0.00
    8    5   13     -0.68      0.00
    9    5   13     -0.59      0.00
   -5    6   13     -0.82      0.00
   -4    6   13      1.06      0.00
   -3    6   13     -0.90      0.00
   -2    6   13      0.52      0.00
   -1    6   13     -0.79      0.00
    0    6   13      1.17      0.00
    1    6   13     -0.75      0.00
    2    6   13      0.02      0.00
    3    6   13     -0.02      0.00
    4    6   13      1.05      0.00
    5    6   13     -1.17      0.00
    6    6   13      0.54      0.00
    7    6   13     -0.04      0.00
    8    6   13      0.23      0.00
    9    6   13     -0.18      0.00
   -5    7   13     -0.46      0.00
   -4    7   13      0.47      0.00
   -3    7   13     -0.17      0.00
   -2    7   13      0.43      0.00
   -1    7   13     -0.68      0.00
    0    7   13      0.20      0.00
    1    7   13     -0.33      0.00
    2    7   13      1.06      0.00
    3    7   13     -1.70      0.00
    4    7   13      1.24      0.00
    5    7   13     -0.18      0.00
    6    7   13     -0.76      0.00
    7    7   13      1.57      0.00
    8    7   13     -1.58      0.00
    9    7   13      1.52      0.00
   -4    8   13      1.06      0.00
   -3    8   13     -0.77      0.00
   -2    8   13     -0.97      0.00
    0    8   13     -1.05      0.00
    1    8   13     -0.08      0.00
    2    8   13      0.62      0.00
    3    8   13     -0.73      0.00
    4    8   13      0.24      0.00
    5    8   13      0.03      0.00
    6    8   13     -0.02      0.00
    7    8   13     -0.52      0.00
    8    8   13      0.96      0.00
    9    8   13     -0.66      0.00
   -4    9   13      0.02      0.00
   -3    9   13     -0.34      0.00
   -2    9   13      1.63      0.00
   -1    9   13     -3.00      0.00
    0    9   13      1.85      0.00
    1    9   13      0.12      0.00
    2    9   13     -0.74      0.00
    3    9   13      0.19      0.00
    4    9   13     -0.22      0.00
    5    9   13      0.10      0.00
    6    9   13     -0.05      0.00
    7    9   13     -0.12      0.00
    8    9   13      0.77      0.00
   -4   10   13      0.24      0.00
   -3   10   13     -0.68      0.00
   -2   10   13      0.14      0.00
   -1   10   13      1.46      0.00
    0   10   13     -2.24      0.00
    1   10   13      2.07      0.00
    2   10   13     -0.55      0.00
    3   10   13     -0.48      0.00
    4   10   13     -0.43      0.00
    5   10   13      0.00      0.00
    6   10   13      0.92      0.00
    7   10   13     -1.13      0.00
    8   10   13      0.54      0.00
   -3   11   13     -0.77      0.00
   -2   11   13     -0.31      0.00
   -1   11   13      0.03      0.00
    0   11   13      0.60      0.00
    1   11   13      0.17      0.00
    2   11   13     -0.55      0.00
    3   11   13      1.17      0.00
    4   11   13     -0.96      0.00
    5   11   13      0.15      0.00
    6   11   13     -0.80      0.00
    7   11   13      1.56      0.00
    8   11   13     -1.32      0.00
   -2   12   13     -0.44      0.00
   -1   12   13     -0.04      0.00
    0   12   13      0.55      0.00
    1   12   13     -0.45      0.00
    2   12   13      0.76      0.00
    3   12   13     -1.10      0.00
    4   12   13      1.16      0.00
    5   12   13     -1.00      0.00
    6   12   13      1.29      0.00
    7   12   13     -0.94      0.00
   -1   13   13     -0.43      0.00
    0   13   13      0.80      0.00
    1   13   13     -0.66      0.00
    2   13   13      0.27      0.00
    3   13   13      0.93      0.00
    4   13   13     -0.79      0.00
    5   13   13     -0.52      0.00
    6   13   13      1.16      0.00
    1   14   13     -1.08      0.00
    2   14   13      1.15      0.00
    3   14   13     -0.68      0.00
    4   14   13      0.42      0.00
    5   14   13      0.88      0.00
    1   -2   14     -0.61      0.00
   -2   -1   14     -0.48      0.00
   -1   -1   14      0.86      0.00
    0   -1   14     -0.54      0.00
    1   -1   14      0.09      0.00
    2   -1   14     -0.32      0.00
    3   -1   14      0.86      0.00
    4   -1   14     -0.66      0.00
   -3    0   14      0.38      0.00
   -2    0   14     -0.44      0.00
   -1    0   14      0.50      0.00
    0    0   14     -0.37      0.00
    1    0   14      0.42      0.00
    2    0   14     -0.55      0.00
    3    0   14      0.84      0.00
    4    0   14     -0.70      0.00
    5    0   14      0.18      0.00
   -3    1   14      0.02      0.00
   -2    1   14     -0.29      0.00
   -1    1   14      0.06      0.00
    0    1   14      0.56      0.00
    1    1   14     -0.16      0.00
    2    1   14     -0.18      0.00
    3    1   14     -0.35      0.00
    4    1   14      0.79      0.00
    5    1   14     -0.45      0.00
    6    1   14     -0.19      0.00
   -4    2   14      0.18      0.00
   -3    2   14     -0.38      0.00
   -2    2   14      0.10      0.00
   -1    2   14      0.38      0.00
    0    2   14     -0.68      0.00
    1    2   14      1.17      0.00
    2    2   14     -0.87      0.00
    3    2   14      0.39      0.00
    4    2   14     -0.23      0.00
    5    2   14     -0.08      0.00
    6    2   14      0.41      0.00
   -4    3   14      0.84      0.00
   -3    3   14     -0.56      0.00
   -2    3   14     -0.71      0.00
   -1    3   14      1.15      0.00
    0    3   14     -0.45      0.00
    1    3   14      0.27      0.00
    2    3   14     -0.24      0.00
    3    3   14     -0.09      0.00
    4    3   14     -0.02      0.00
    5    3   14      0.13      0.00
    6    3   14      0.18      0.00
    7    3   14      0.15      0.00
   -4    4   14      0.18      0.00
   -3    4   14      0.75      0.00
   -2    4   14     -1.07      0.00
   -1    4   14      0.50      0.00
    0    4   14      0.26      0.00
    1    4   14     -0.14      0.00
    2    4   14     -0.35      0.00
    3    4   14      0.99      0.00
    4    4   14     -1.17      0.00
    5    4   14      0.48      0.00
    6    4   14     -0.13      0.00
    7    4   14      0.58      0.00
   -4    5   14      0.68      0.00
   -3    5   14     -0.78      0.00
   -2    5   14      0.70      0.00
   -1    5   14     -0.91      0.00
    0    5   14      1.23      0.00
    1    5   14     -0.79      0.00
    2    5   14      0.10      0.00
    3    5   14     -0.28      0.00
    4    5   14      0.72      0.00
    5    5   14     -0.60      0.00
    6    5   14      0.68      0.00
    7    5   14     -0.59      0.00
    8    5   14      0.53      0.00
   -4    6   14      0.49      0.00
   -3    6   14     -0.44      0.00
   -2    6   14      0.33      0.00
   -1    6   14     -0.44      0.00
    0    6   14      0.59      0.00
    1    6   14     -0.63      0.00
    2    6   14      0.74      0.00
    3    6   14     -1.24      0.00
    4    6   14      0.94      0.00
    5    6   14      0.20      0.00
    6    6   14     -1.15      0.00
    7    6   14      1.16      0.00
    8    6   14     -0.13      0.00
   -4    7   14      1.02      0.00
   -3    7   14     -0.54      0.00
   -2    7   14     -0.12      0.00
   -1    7   14     -0.30      0.00
    0    7   14      1.06      0.00
    1    7   14     -0.99      0.00
    2    7   14      0.03      0.00
    3    7   14      0.06      0.00
    4    7   14      0.17      0.00
    5    7   14      0.48      0.00
    6    7   14     -1.10      0.00
    7    7   14      0.53      0.00
    8    7   14      0.12      0.00
   -3    8   14      0.38      0.00
   -2    8   14      0.32      0.00
   -1    8   14     -0.71      0.00
    0    8   14      0.26      0.00
    1    8   14     -0.31      0.00
    2    8   14      0.63      0.00
    3    8   14     -1.09      0.00
    4    8   14      0.49      0.00
    5    8   14      0.49      0.00
    6    8   14     -1.39      0.00
    7    8   14      1.46      0.00
    8    8   14     -0.75      0.00
   -3    9   14     -0.39      0.00
   -2    9   14     -0.21      0.00
   -1    9   14      1.56      0.00
    0    9   14     -1.70      0.00
    1    9   14      0.70      0.00
    2    9   14      0.35      0.00
    3    9   14     -0.31      0.00
    4    9   14     -0.27      0.00
    5    9   14     -0.12      0.00
    6    9   14      0.34      0.00
    7    9   14     -0.74      0.00
   -2   10   14      0.73      0.00
   -1   10   14     -0.99      0.00
    0   10   14      0.24      0.00
    1   10   14      0.67      0.00
    2   10   14     -1.02      0.00
    3   10   14      1.39      0.00
    4   10   14     -0.86      0.00
    5   10   14      0.09      0.00
    6   10   14     -0.38      0.00
    7   10   14      0.84      0.00
   -2   11   14     -0.77      0.00
   -1   11   14      1.52      0.00
    0   11   14     -1.39      0.00
    1   11   14      0.76      0.00
    2   11   14      0.31      0.00
    3   11   14     -0.58      0.00
    4   11   14      0.30      0.00
    5   11   14     -0.40      0.00
    6   11   14      0.66      0.00
    7   11   14     -0.55      0.00
   -1   12   14     -0.79      0.00
    0   12   14      1.36      0.00
    1   12   14     -0.52      0.00
    2   12   14     -0.22      0.00
    3   12   14      0.74      0.00
    4   12   14      0.08      0.00
    5   12   14     -0.28      0.00
    6   12   14     -0.51      0.00
    1   13   14     -0.56      0.00
    2   13   14     -0.21      0.00
    3   13   14     -0.07      0.00
    4   13   14      0.85      0.00
    5   13   14     -0.51      0.00
   -1    1   15     -0.46      0.00
    0    1   15      0.18      0.00
    1    1   15      0.55      0.00
    2    1   15     -0.23      0.00
    3    1   15     -0.15      0.00
   -2    2   15     -0.30      0.00
   -1    2   15      0.03      0.00
    0    2   15     -0.11      0.00
    1    2   15      0.33      0.00
    2    2   15      0.17      0.00
    3    2   15     -0.49      0.00
    4    2   15      0.07      0.00
    5    2   15      0.46      0.00
   -2    3   15     -0.14      0.00
   -1    3   15      0.10      0.00
    0    3   15     -0.38      0.00
    1    3   15      0.91      0.00
    2    3   15     -0.87      0.00
    3    3   15      0.86      0.00
    4    3   15     -0.74      0.00
    5    3   15      0.23      0.00
   -2    4   15     -0.02      0.00
   -1    4   15     -0.55      0.00
    0    4   15      0.65      0.00
    1    4   15      0.13      0.00
    2    4   15     -0.47      0.00
    3    4   15     -0.12      0.00
    4    4   15      0.54      0.00
    5    4   15     -0.18      0.00
    6    4   15     -0.37      0.00
   -2    5   15      0.17      0.00
   -1    5   15     -0.85      0.00
    0    5   15      0.75      0.00
    1    5   15     -0.10      0.00
    2    5   15     -0.23      0.00
    3    5   15      0.04      0.00
    4    5   15     -0.15      0.00
    5    5   15      0.29      0.00
    6    5   15     -0.27      0.00
   -2    6   15      1.05      0.00
   -1    6   15     -1.05      0.00
    0    6   15      0.55      0.00
    1    6   15      0.09      0.00
    2    6   15     -0.08      0.00
    3    6   15     -0.44      0.00
    4    6   15     -0.05      0.00
    5    6   15      0.38      0.00
    6    6   15      0.39      0.00
   -2    7   15     -0.02      0.00
   -1    7   15      0.25      0.00
    0    7   15     -0.30      0.00
    1    7   15     -0.14      0.00
    2    7   15      0.61      0.00
    3    7   15     -0.72      0.00
    4    7   15     -0.24      0.00
    5    7   15      0.78      0.00
    6    7   15     -0.94      0.00
   -2    8   15     -0.33      0.00
   -1    8   15     -0.07      0.00
    0    8   15      0.91      0.00
    1    8   15     -0.54      0.00
    2    8   15     -0.52      0.00
    3    8   15      0.72      0.00
    4    8   15     -0.46      0.00
    5    8   15      0.31      0.00
    6    8   15     -0.30      0.00
   -2    9   15      0.08      0.00
   -1    9   15     -0.39      0.00
    0    9   15      0.40      0.00
    1    9   15      0.18      0.00
    2    9   15     -0.47      0.00
    3    9   15      0.25      0.00
    4    9   15     -0.04      0.00
    5    9   15     -0.14      0.00
    6    9   15     -0.04      0.00
   -1   10   15      1.21      0.00
    0   10   15     -1.23      0.00
    1   10   15      1.21      0.00
    2   10   15     -0.62      0.00
    3   10   15      0.61      0.00
    4   10   15     -0.50      0.00
    5   10   15     -0.30      0.00
    6   10   15      0.58      0.00
    0   11   15      0.58      0.00
    1   11   15     -0.13      0.00
    2   11   15     -0.05      0.00
    3   11   15      0.29      0.00
    4   11   15      0.17      0.00
    5   11   15     -0.04      0.00
    2   12   15      1.47      0.00
    3   12   15     -1.91      0.00
    4   12   15      1.01      0.00
    1    4   16      0.62      0.00
    2    4   16     -0.52      0.00
    3    4   16      0.15      0.00
    0    5   16     -0.02      0.00
    1    5   16      0.46      0.00
    2    5   16      0.02      0.00
    3    5   16     -0.71      0.00
    4    5   16      0.45      0.00
    0    6   16     -0.59      0.00
    1    6   16      0.48      0.00
    2    6   16     -0.27      0.00
    3    6   16      0.16      0.00
    4    6   16     -0.30      0.00
    0    7   16      0.41      0.00
    1    7   16      0.12      0.00
    2    7   16     -0.42      0.00
    3    7   16      0.19      0.00
    4    7   16     -0.25      0.00
    0    8   16      0.08      0.00
    1    8   16      0.14      0.00
    2    8   16      0.17      0.00
    3    8   16      0.05      0.00
    4    8   16     -0.56      0.00
    1    9   16      0.20      0.00
    2    9   16     -0.47      0.00
    3    9   16      1.21      0.00
    4    9   16     -0.96      0.00
    1    0    0    -98.77      0.00
    0    1    0     22.68      0.00
   -1   11    0      1.20      0.00
   -8  -12    1      0.14      0.00
   -1  -12    1     -0.50      0.00
  -12   -3    1      0.03      0.00
  -12   -2    1      0.29      0.00
  -12   -1    1      0.25      0.00
    1   -1    1    -15.45      0.00
    2   -1    1     -5.73      0.00
    0    0    1     13.85      0.00
    0    1    1     55.69      0.00
    3    2    1    -11.44      0.00
    2    3    1      1.28      0.00
   -5    8    1     -2.34      0.00
   -8   10    1     -0.15      0.00
    9   12    1      0.45      0.00
    8   13    1      0.09      0.00
   -2  -14    2     -0.02      0.00
   -1  -14    2     -0.30      0.00
    3  -13    2     -0.83      0.00
    5   -7    2      0.83      0.00
   11   -4    2     -0.15      0.00
    0    1    2    -82.02      0.00
    2    2    2      4.40      0.00
   10    3    2     -0.71      0.00
    4  -12    3      0.89      0.00
  -11   -5    3     -1.07      0.00
   -1    2    3     70.93      0.00
    0    2    3    -57.50      0.00
    0    3    3     24.43      0.00
   12    7    3      0.23      0.00
    0    8    3      3.70      0.00
   -3   10    3      1.53      0.00
   -4   14    3      0.27      0.00
   -5  -12    4     -0.01      0.00
    3  -12    4     -0.83      0.00
   12    0    4      0.12      0.00
    1    2    4    -15.10      0.00
  -11    3    4     -0.09      0.00
   -3    4    4      6.49      0.00
   -1    5    4     -0.97      0.00
    1    5    4     10.96      0.00
   12    7    4      0.48      0.00
   -3   10    4      1.55      0.00
   11   10    4      0.34      0.00
    1   12    4     -0.49      0.00
    8   14    4     -0.08      0.00
    4   16    4      0.23      0.00
   -3  -12    5      1.07      0.00
    1  -12    5      1.24      0.00
   12    1    5     -1.28      0.00
   -3    4    5     -9.41      0.00
    0    5    5      7.83      0.00
    1    5    5     -7.04      0.00
   12    7    5      1.07      0.00
   -8   10    5     -0.15      0.00
   -3   10    5     -0.30      0.00
   10   12    5     -0.71      0.00
    7   15    5     -0.18      0.00
    0   16    5     -0.11      0.00
    2  -11    6      0.14      0.00
    7   -8    6     -0.27      0.00
    8   -7    6     -0.04      0.00
   10   -4    6      1.58      0.00
   12    2    6     -0.42      0.00
  -10    5    6      0.27      0.00
    2    7    6     -1.69      0.00
   -1   11    6      1.14      0.00
    5   16    6     -0.57      0.00
   -4  -10    7     -0.96      0.00
   -5   -4    7      0.17      0.00
  -10   -1    7     -0.58      0.00
  -10    3    7      0.37      0.00
    1    3    7     -1.55      0.00
   -1    4    7     10.18      0.00
    1    6    7      3.62      0.00
   -9    7    7     -0.28      0.00
   11   10    7     -0.27      0.00
   10   12    7      0.02      0.00
   -4   14    7      0.73      0.00
    5   16    7      0.33      0.00
   -4   -9    8      0.03      0.00
    5   -8    8     -0.16      0.00
   -8   -5    8      0.01      0.00
    9   -4    8     -0.77      0.00
   -4    9    8     -0.88      0.00
    3    9    8     -2.23      0.00
    1   11    8     -2.09      0.00
    7   15    8      0.44      0.00
    0   16    8     -0.99      0.00
    5   16    8      0.62      0.00
   -7   -5    9     -0.61      0.00
    9   -3    9      0.74      0.00
   10   -1    9      0.27      0.00
   -9    1    9      0.45      0.00
   -9    2    9     -0.60      0.00
   11    2    9      0.16      0.00
   -9    3    9      0.12      0.00
    0    5    9      3.41      0.00
    2    8    9      0.89      0.00
    3    9    9      2.18      0.00
   11    9    9     -0.74      0.00
    4   10    9     -0.23      0.00
    9   13    9     -0.18      0.00
    0    5   10     -2.22      0.00
   11    5   10      0.20      0.00
   11    6   10     -0.69      0.00
   11    7   10     -0.27      0.00
    2    8   10      0.93      0.00
   -3    9   10      1.49      0.00
    0   10   10      2.32      0.00
    1   10   10     -1.06      0.00
   -5   12   10     -1.23      0.00
   -4   13   10     -0.12      0.00
    2   16   10      0.90      0.00
    3   16   10      0.15      0.00
    5   -5   11     -0.21      0.00
   -6   -3   11     -0.43      0.00
    8   -2   11      0.28      0.00
   -7   -1   11      0.05      0.00
    0    5   11      0.22      0.00
   -7    7   11     -0.08      0.00
    1    7   11     -0.19      0.00
   -2    9   11      0.76      0.00
    6   12   11     -1.10      0.00
    9   12   11      0.31      0.00
    7   13   11     -0.83      0.00
    6   -3   12     -0.03      0.00
    9    3   12      0.59      0.00
    1    7   12     -0.52      0.00
   -6    8   12     -0.11      0.00
   -5   10   12      0.11      0.00
    9   11   12     -0.18      0.00
    0   12   12     -0.31      0.00
    7   13   12      0.67      0.00
    1   14   12      0.91      0.00
    1   15   12      0.21      0.00
    4   -3   13      0.08      0.00
   -5    8   13     -0.63      0.00
   -1    8   13      1.84      0.00
    9    9   13     -1.02      0.00
    0   -2   14     -0.03      0.00
    2   -2   14      0.81      0.00
    7    2   14     -0.32      0.00
   -4    8   14     -0.09      0.00
    8    9   14      0.67      0.00
   -3   10   14     -0.21      0.00
    0   13   14      0.91      0.00
    1    0   15     -0.06      0.00
    2    0   15     -0.39      0.00
    4    1   15      0.09      0.00
    6    3   15     -0.13      0.00
   -3    4   15      0.12      0.00
   -3    5   15      0.47      0.00
   -3    6   15     -0.77      0.00
    7    6   15     -0.87      0.00
    7    7   15      0.81      0.00
    7    8   15     -0.31      0.00
    1   12   15     -0.73      0.00
    1    3   16      0.01      0.00
    2    3   16      0.19      0.00
    0    4   16     -0.31      0.00
    4    4   16     -0.05      0.00
    5    6   16      0.04      0.00
    5    7   16      0.21      0.00
    5    8   16      0.40      0.00
    2   10   16     -0.45      0.00
    3   10   16      0.92      0.00
    0    0    0      0.00      0.00
# SQUEEZE RESULTS (Version = 180518)
# Note: Data are Listed for all Voids in the P1 Unit Cell
# i.e. Centre of Gravity, Solvent Accessible Volume,
# Recovered number of Electrons in the Void and
# Details about the Squeezed Material
loop_
  _platon_squeeze_void_nr
  _platon_squeeze_void_average_x
  _platon_squeeze_void_average_y
  _platon_squeeze_void_average_z
  _platon_squeeze_void_volume
  _platon_squeeze_void_count_electrons
  _platon_squeeze_void_content
   1  0.500  1.045  0.955       517       145 ' '
# Missing Reflections Below sin(th)/lambda = 0.25
loop_
  _platon_missing_refln_index_h
  _platon_missing_refln_index_k
  _platon_missing_refln_index_l
  _platon_missing_refln_theta
    1    0    0     2.200
    0    1    0     1.792
    1   -1    1     3.740
    2   -1    1     5.370
    0    0    1     1.778
    0    1    1     1.968
    3    2    1     6.758
    2    3    1     5.982
    0    1    2     3.296
    2    2    2     5.214
   -1    2    3     5.997
    0    2    3     5.134
    0    3    3     5.914
    1    2    4     6.550
   -1    5    4     9.770
    1    5    4     8.801
    0    5    5     9.888
    1    5    5     9.635
_platon_squeeze_void_probe_radius                  1.20
_platon_squeeze_details
)
TITL 200903fzt01_0m_a.res in P-1
CELL    9.4968   12.6034   12.6524     65.58     79.79     78.57
SPGR P-1
# Solvent Accessible Volume =       516
# Electrons Found in S.A.V. =       143
# Note: Atoms in Void are Labelled as Cxxx and Qxxx for all Others
C101 0.574 0.573 0.448 !       4.06 eA-3
C102 0.713 0.154 0.154 !       3.86 eA-3
C103 0.637 0.227 0.076 !       3.66 eA-3
C104 0.495 0.107 0.094 !       3.66 eA-3
C105 0.531 0.214 0.047 !       3.60 eA-3
C106 0.574 0.032 0.165 !       3.51 eA-3
C107 0.527 0.033 0.138 !       3.30 eA-3
C108 0.686 0.050 0.205 !       3.17 eA-3
C109 0.410 0.523 0.479 !       2.94 eA-3
C110 0.353 0.507 0.491 !       2.70 eA-3
C111 0.344 0.614 0.410 !       2.59 eA-3
C112 0.524 0.909 0.232 !       1.98 eA-3
C113 0.640 0.964 0.271 !       1.52 eA-3
Q114 0.188 0.831 0.176 !       0.80 eA-3
C115 0.467 0.020 0.049 !       0.63 eA-3
Q116 0.875 0.719 0.250 !       0.60 eA-3
Q117 0.975 0.364 0.048 !       0.55 eA-3
Q118 1.000 1.000 0.500 !       0.54 eA-3
Q119 0.105 0.077 0.360 !       0.54 eA-3
Q120 0.066 0.906 0.144 !       0.53 eA-3
Q121 0.701 0.531 0.189 !       0.52 eA-3
Q122 0.126 0.431 0.244 !       0.51 eA-3
C123 0.599 0.910 0.104 !       0.50 eA-3
Q124 1.010 0.860 0.407 !       0.50 eA-3
)
;
_shelx_fab_checksum              77402
_olex2_submission_special_instructions 'No special instructions were received'
loop_
_space_group_symop_operation_xyz
'x, y, z'
'-x, -y, -z'
loop_
_atom_site_label
_atom_site_type_symbol
_atom_site_fract_x
_atom_site_fract_y
_atom_site_fract_z
_atom_site_U_iso_or_equiv
_atom_site_adp_type
_atom_site_occupancy
_atom_site_site_symmetry_order
_atom_site_calc_flag
_atom_site_refinement_flags_posn
_atom_site_refinement_flags_adp
_atom_site_refinement_flags_occupancy
_atom_site_disorder_assembly
_atom_site_disorder_group
B1 B 0.2179(3) 0.3343(2) 0.3040(2) 0.0340(6) Uani 1 1 d . . . . .
Br1 Br -0.15163(3) 0.11485(3) 0.87720(2) 0.05986(12) Uani 1 1 d . . . . .
C1 C 0.1319(2) 0.16139(19) 0.34780(18) 0.0317(5) Uani 1 1 d . . . . .
C2 C 0.0949(2) 0.19055(19) 0.44547(18) 0.0315(5) Uani 1 1 d . . . . .
C3 C 0.0173(2) 0.11908(19) 0.54973(18) 0.0305(5) Uani 1 1 d . . . . .
C4 C -0.0218(2) 0.1487(2) 0.64714(19) 0.0369(5) Uani 1 1 d . . . . .
H4 H 0.002559 0.219011 0.645398 0.044 Uiso 1 1 calc R U . . .
C5 C -0.0963(3) 0.0748(2) 0.74604(18) 0.0382(5) Uani 1 1 d . . . . .
C6 C -0.1329(2) -0.0279(2) 0.75065(18) 0.0372(5) Uani 1 1 d . . . . .
H6 H -0.183851 -0.077797 0.819198 0.045 Uiso 1 1 calc R U . . .
C7 C -0.0944(2) -0.05772(19) 0.65377(18) 0.0309(5) Uani 1 1 d . . . . .
C8 C -0.0190(2) 0.01505(19) 0.55022(17) 0.0295(5) Uani 1 1 d . . . . .
C9 C 0.3863(2) 0.3329(2) 0.31064(19) 0.0363(5) Uani 1 1 d . . . . .
C10 C 0.4625(3) 0.4283(2) 0.2534(2) 0.0407(6) Uani 1 1 d . . . . .
C11 C 0.6061(3) 0.4233(2) 0.2643(2) 0.0460(6) Uani 1 1 d . . . . .
C12 C 0.6788(3) 0.3210(3) 0.3348(2) 0.0530(7) Uani 1 1 d . . . . .
C13 C 0.6102(3) 0.2245(3) 0.3935(2) 0.0554(7) Uani 1 1 d . . . . .
C14 C 0.4672(3) 0.2320(2) 0.3794(2) 0.0468(6) Uani 1 1 d . . . . .
C15 C 0.1286(2) 0.4569(2) 0.22413(19) 0.0350(5) Uani 1 1 d . . . . .
C16 C 0.1462(3) 0.4949(2) 0.1040(2) 0.0453(6) Uani 1 1 d . . . . .
C17 C 0.0728(4) 0.5972(2) 0.0309(2) 0.0545(7) Uani 1 1 d . . . . .
C18 C -0.0250(3) 0.6663(2) 0.0782(3) 0.0562(8) Uani 1 1 d . . . . .
C19 C -0.0449(3) 0.6334(2) 0.1961(3) 0.0488(6) Uani 1 1 d . . . . .
C20 C 0.0318(3) 0.5301(2) 0.2669(2) 0.0412(6) Uani 1 1 d . . . . .
F1 F 0.39746(16) 0.53208(13) 0.18419(14) 0.0565(4) Uani 1 1 d . . . . .
F2 F 0.67297(17) 0.51891(15) 0.20712(14) 0.0635(5) Uani 1 1 d . . . . .
F3 F 0.81901(16) 0.31570(18) 0.34663(16) 0.0764(6) Uani 1 1 d . . . . .
F4 F 0.68213(19) 0.12303(17) 0.46220(18) 0.0872(7) Uani 1 1 d . . . . .
F5 F 0.40541(16) 0.13288(13) 0.43857(15) 0.0635(5) Uani 1 1 d . . . . .
F6 F 0.2428(2) 0.43094(14) 0.05304(12) 0.0646(5) Uani 1 1 d . . . . .
F7 F 0.0949(2) 0.62952(16) -0.08512(13) 0.0803(6) Uani 1 1 d . . . . .
F8 F -0.0970(2) 0.76655(15) 0.00836(17) 0.0856(6) Uani 1 1 d . . . . .
F9 F -0.13832(19) 0.70111(15) 0.24316(16) 0.0725(5) Uani 1 1 d . . . . .
F10 F 0.00803(18) 0.50617(14) 0.38191(13) 0.0595(4) Uani 1 1 d . . . . .
O1 O 0.20227(16) 0.23857(13) 0.26249(12) 0.0348(4) Uani 1 1 d . . . . .
O2 O 0.14051(16) 0.28781(13) 0.42837(12) 0.0337(3) Uani 1 1 d . . . . .
loop_
_atom_site_aniso_label
_atom_site_aniso_U_11
_atom_site_aniso_U_22
_atom_site_aniso_U_33
_atom_site_aniso_U_23
_atom_site_aniso_U_13
_atom_site_aniso_U_12
B1 0.0355(14) 0.0350(14) 0.0294(12) -0.0092(11) -0.0006(10) -0.0104(11)
Br1 0.0808(2) 0.0694(2) 0.04130(15) -0.03338(14) 0.01847(13) -0.03285(17)
C1 0.0287(11) 0.0337(12) 0.0273(10) -0.0065(9) -0.0011(9) -0.0063(9)
C2 0.0276(11) 0.0321(12) 0.0325(11) -0.0093(9) -0.0035(9) -0.0064(9)
C3 0.0264(11) 0.0334(12) 0.0285(10) -0.0098(9) -0.0020(8) -0.0031(9)
C4 0.0377(12) 0.0386(13) 0.0336(11) -0.0138(10) 0.0003(10) -0.0081(10)
C5 0.0411(13) 0.0478(14) 0.0282(11) -0.0181(10) 0.0030(10) -0.0100(11)
C6 0.0385(13) 0.0406(13) 0.0275(10) -0.0087(10) 0.0020(9) -0.0096(11)
C7 0.0288(11) 0.0325(12) 0.0285(10) -0.0094(9) -0.0035(9) -0.0030(9)
C8 0.0256(10) 0.0326(11) 0.0270(10) -0.0094(9) -0.0022(8) -0.0026(9)
C9 0.0341(12) 0.0386(13) 0.0330(11) -0.0103(10) -0.0032(10) -0.0067(10)
C10 0.0397(13) 0.0431(14) 0.0346(12) -0.0086(11) -0.0049(10) -0.0091(11)
C11 0.0378(13) 0.0593(17) 0.0416(13) -0.0172(12) 0.0023(11) -0.0203(13)
C12 0.0297(13) 0.076(2) 0.0520(15) -0.0226(15) -0.0056(12) -0.0093(13)
C13 0.0372(14) 0.0574(18) 0.0560(16) -0.0066(14) -0.0131(13) -0.0002(13)
C14 0.0379(14) 0.0458(15) 0.0475(14) -0.0077(12) -0.0029(11) -0.0110(12)
C15 0.0338(12) 0.0364(13) 0.0351(11) -0.0110(10) -0.0032(10) -0.0128(10)
C16 0.0543(16) 0.0402(14) 0.0385(13) -0.0105(11) -0.0055(12) -0.0106(12)
C17 0.080(2) 0.0437(16) 0.0391(13) -0.0053(12) -0.0213(14) -0.0180(15)
C18 0.0696(19) 0.0351(15) 0.0582(17) -0.0042(13) -0.0304(15) -0.0052(14)
C19 0.0454(15) 0.0368(14) 0.0641(17) -0.0184(13) -0.0091(13) -0.0053(12)
C20 0.0410(13) 0.0419(14) 0.0397(12) -0.0127(11) -0.0037(11) -0.0117(11)
F1 0.0491(9) 0.0441(9) 0.0636(10) -0.0009(7) -0.0112(8) -0.0191(7)
F2 0.0487(9) 0.0749(11) 0.0655(10) -0.0175(9) 0.0000(8) -0.0335(8)
F3 0.0324(8) 0.1081(15) 0.0817(12) -0.0248(11) -0.0131(8) -0.0157(9)
F4 0.0517(11) 0.0732(12) 0.1021(15) 0.0029(11) -0.0318(10) 0.0050(9)
F5 0.0465(9) 0.0422(9) 0.0777(11) 0.0038(8) -0.0135(8) -0.0080(7)
F6 0.0912(13) 0.0546(10) 0.0367(8) -0.0140(7) 0.0026(8) -0.0025(9)
F7 0.1353(18) 0.0606(11) 0.0369(8) -0.0047(8) -0.0268(10) -0.0127(11)
F8 0.1126(16) 0.0465(10) 0.0839(13) -0.0041(9) -0.0528(12) 0.0085(10)
F9 0.0679(11) 0.0515(10) 0.0880(13) -0.0266(9) -0.0081(10) 0.0120(9)
F10 0.0715(11) 0.0545(9) 0.0416(8) -0.0170(7) 0.0021(7) 0.0039(8)
O1 0.0382(9) 0.0340(9) 0.0287(7) -0.0078(6) 0.0017(7) -0.0118(7)
O2 0.0362(8) 0.0348(8) 0.0296(7) -0.0103(6) -0.0011(6) -0.0112(7)
loop_
_atom_type_symbol
_atom_type_description
_atom_type_scat_dispersion_real
_atom_type_scat_dispersion_imag
_atom_type_scat_source
C C 0.0033 0.0016 'International Tables Vol C Tables 4.2.6.8 and 6.1.1.4'
H H 0.0000 0.0000 'International Tables Vol C Tables 4.2.6.8 and 6.1.1.4'
B B 0.0013 0.0007 'International Tables Vol C Tables 4.2.6.8 and 6.1.1.4'
Br Br -0.2901 2.4595 'International Tables Vol C Tables 4.2.6.8 and 6.1.1.4'
F F 0.0171 0.0103 'International Tables Vol C Tables 4.2.6.8 and 6.1.1.4'
O O 0.0106 0.0060 'International Tables Vol C Tables 4.2.6.8 and 6.1.1.4'
loop_
_geom_angle_atom_site_label_1
_geom_angle_atom_site_label_2
_geom_angle_atom_site_label_3
_geom_angle
_geom_angle_site_symmetry_1
_geom_angle_site_symmetry_3
_geom_angle_publ_flag
C9 B1 C15 117.74(18) . . ?
O1 B1 C9 109.5(2) . . ?
O1 B1 C15 108.09(18) . . ?
O2 B1 C9 109.20(18) . . ?
O2 B1 C15 110.09(19) . . ?
O2 B1 O1 100.90(16) . . ?
C2 C1 C7 122.08(19) . 2_556 ?
O1 C1 C2 112.08(19) . . ?
O1 C1 C7 125.8(2) . 2_556 ?
C1 C2 C3 122.3(2) . . ?
O2 C2 C1 111.89(18) . . ?
O2 C2 C3 125.8(2) . . ?
C4 C3 C2 122.5(2) . . ?
C4 C3 C8 121.15(19) . . ?
C8 C3 C2 116.4(2) . . ?
C3 C4 H4 120.3 . . ?
C5 C4 C3 119.5(2) . . ?
C5 C4 H4 120.3 . . ?
C4 C5 Br1 119.86(19) . . ?
C6 C5 Br1 118.83(17) . . ?
C6 C5 C4 121.3(2) . . ?
C5 C6 H6 120.3 . . ?
C5 C6 C7 119.4(2) . . ?
C7 C6 H6 120.3 . . ?
C6 C7 C1 122.05(19) . 2_556 ?
C6 C7 C8 121.6(2) . . ?
C8 C7 C1 116.3(2) . 2_556 ?
C3 C8 C8 121.4(2) . 2_556 ?
C7 C8 C3 117.0(2) . . ?
C7 C8 C8 121.5(2) . 2_556 ?
C10 C9 B1 125.6(2) . . ?
C14 C9 B1 120.5(2) . . ?
C14 C9 C10 113.9(2) . . ?
C11 C10 C9 123.4(2) . . ?
F1 C10 C9 120.4(2) . . ?
F1 C10 C11 116.2(2) . . ?
C12 C11 C10 119.5(2) . . ?
F2 C11 C10 120.4(2) . . ?
F2 C11 C12 120.2(2) . . ?
C11 C12 C13 120.0(2) . . ?
F3 C12 C11 119.8(2) . . ?
F3 C12 C13 120.2(3) . . ?
C12 C13 C14 119.1(2) . . ?
F4 C13 C12 120.1(2) . . ?
F4 C13 C14 120.8(2) . . ?
C9 C14 C13 124.1(2) . . ?
F5 C14 C9 119.4(2) . . ?
F5 C14 C13 116.4(2) . . ?
C16 C15 B1 120.4(2) . . ?
C20 C15 B1 124.6(2) . . ?
C20 C15 C16 114.9(2) . . ?
C17 C16 C15 123.6(3) . . ?
F6 C16 C15 119.5(2) . . ?
F6 C16 C17 116.9(2) . . ?
C18 C17 C16 119.2(3) . . ?
F7 C17 C16 120.8(3) . . ?
F7 C17 C18 120.0(3) . . ?
C19 C18 C17 119.4(2) . . ?
F8 C18 C17 120.1(3) . . ?
F8 C18 C19 120.4(3) . . ?
C18 C19 C20 119.7(3) . . ?
F9 C19 C18 120.0(2) . . ?
F9 C19 C20 120.3(3) . . ?
C15 C20 C19 123.1(2) . . ?
F10 C20 C15 121.3(2) . . ?
F10 C20 C19 115.6(2) . . ?
C1 O1 B1 107.43(17) . . ?
C2 O2 B1 107.69(18) . . ?
loop_
_geom_bond_atom_site_label_1
_geom_bond_atom_site_label_2
_geom_bond_distance
_geom_bond_site_symmetry_2
_geom_bond_publ_flag
B1 C9 1.612(3) . ?
B1 C15 1.619(3) . ?
B1 O1 1.542(3) . ?
B1 O2 1.535(3) . ?
Br1 C5 1.888(2) . ?
C1 C2 1.399(3) . ?
C1 C7 1.429(3) 2_556 ?
C1 O1 1.300(2) . ?
C2 C3 1.425(3) . ?
C2 O2 1.302(3) . ?
C3 C4 1.400(3) . ?
C3 C8 1.417(3) . ?
C4 H4 0.9500 . ?
C4 C5 1.385(3) . ?
C5 C6 1.382(3) . ?
C6 H6 0.9500 . ?
C6 C7 1.394(3) . ?
C7 C8 1.416(3) . ?
C8 C8 1.439(4) 2_556 ?
C9 C10 1.391(3) . ?
C9 C14 1.378(3) . ?
C10 C11 1.381(3) . ?
C10 F1 1.336(3) . ?
C11 C12 1.360(4) . ?
C11 F2 1.341(3) . ?
C12 C13 1.361(4) . ?
C12 F3 1.352(3) . ?
C13 C14 1.381(4) . ?
C13 F4 1.342(3) . ?
C14 F5 1.351(3) . ?
C15 C16 1.380(3) . ?
C15 C20 1.375(4) . ?
C16 C17 1.376(4) . ?
C16 F6 1.354(3) . ?
C17 C18 1.375(4) . ?
C17 F7 1.339(3) . ?
C18 C19 1.361(4) . ?
C18 F8 1.339(3) . ?
C19 C20 1.385(4) . ?
C19 F9 1.343(3) . ?
C20 F10 1.344(3) . ?
loop_
_geom_torsion_atom_site_label_1
_geom_torsion_atom_site_label_2
_geom_torsion_atom_site_label_3
_geom_torsion_atom_site_label_4
_geom_torsion
_geom_torsion_site_symmetry_1
_geom_torsion_site_symmetry_2
_geom_torsion_site_symmetry_3
_geom_torsion_site_symmetry_4
_geom_torsion_publ_flag
B1 C9 C10 C11 178.2(2) . . . . ?
B1 C9 C10 F1 -1.2(4) . . . . ?
B1 C9 C14 C13 -177.4(3) . . . . ?
B1 C9 C14 F5 2.1(4) . . . . ?
B1 C15 C16 C17 179.3(2) . . . . ?
B1 C15 C16 F6 -2.4(3) . . . . ?
B1 C15 C20 C19 -178.7(2) . . . . ?
B1 C15 C20 F10 2.6(3) . . . . ?
Br1 C5 C6 C7 179.13(17) . . . . ?
C1 C2 C3 C4 -179.1(2) . . . . ?
C1 C2 C3 C8 1.0(3) . . . . ?
C1 C2 O2 B1 0.5(2) . . . . ?
C1 C7 C8 C3 179.12(19) 2_556 . . . ?
C1 C7 C8 C8 -0.8(4) 2_556 . . 2_556 ?
C2 C1 O1 B1 0.2(2) . . . . ?
C2 C3 C4 C5 -179.5(2) . . . . ?
C2 C3 C8 C7 179.13(19) . . . . ?
C2 C3 C8 C8 -1.0(4) . . . 2_556 ?
C3 C2 O2 B1 -179.9(2) . . . . ?
C3 C4 C5 Br1 -179.21(17) . . . . ?
C3 C4 C5 C6 0.0(4) . . . . ?
C4 C3 C8 C7 -0.8(3) . . . . ?
C4 C3 C8 C8 179.1(2) . . . 2_556 ?
C4 C5 C6 C7 -0.1(4) . . . . ?
C5 C6 C7 C1 -178.6(2) . . . 2_556 ?
C5 C6 C7 C8 -0.3(3) . . . . ?
C6 C7 C8 C3 0.7(3) . . . . ?
C6 C7 C8 C8 -179.2(2) . . . 2_556 ?
C7 C1 C2 C3 -0.1(3) 2_556 . . . ?
C7 C1 C2 O2 179.52(19) 2_556 . . . ?
C7 C1 O1 B1 -179.8(2) 2_556 . . . ?
C8 C3 C4 C5 0.5(3) . . . . ?
C9 B1 C15 C16 76.2(3) . . . . ?
C9 B1 C15 C20 -104.1(3) . . . . ?
C9 B1 O1 C1 115.18(19) . . . . ?
C9 B1 O2 C2 -115.7(2) . . . . ?
C9 C10 C11 C12 -0.4(4) . . . . ?
C9 C10 C11 F2 -179.7(2) . . . . ?
C10 C9 C14 C13 1.1(4) . . . . ?
C10 C9 C14 F5 -179.3(2) . . . . ?
C10 C11 C12 C13 0.2(4) . . . . ?
C10 C11 C12 F3 -179.5(3) . . . . ?
C11 C12 C13 C14 0.7(5) . . . . ?
C11 C12 C13 F4 179.4(3) . . . . ?
C12 C13 C14 C9 -1.4(5) . . . . ?
C12 C13 C14 F5 179.1(3) . . . . ?
C14 C9 C10 C11 -0.2(4) . . . . ?
C14 C9 C10 F1 -179.6(2) . . . . ?
C15 B1 C9 C10 0.0(4) . . . . ?
C15 B1 C9 C14 178.4(2) . . . . ?
C15 B1 O1 C1 -115.40(19) . . . . ?
C15 B1 O2 C2 113.6(2) . . . . ?
C15 C16 C17 C18 -0.7(4) . . . . ?
C15 C16 C17 F7 179.8(2) . . . . ?
C16 C15 C20 C19 1.1(3) . . . . ?
C16 C15 C20 F10 -177.6(2) . . . . ?
C16 C17 C18 C19 1.4(4) . . . . ?
C16 C17 C18 F8 179.7(2) . . . . ?
C17 C18 C19 C20 -0.9(4) . . . . ?
C17 C18 C19 F9 178.9(2) . . . . ?
C18 C19 C20 C15 -0.4(4) . . . . ?
C18 C19 C20 F10 178.4(2) . . . . ?
C20 C15 C16 C17 -0.5(4) . . . . ?
C20 C15 C16 F6 177.8(2) . . . . ?
F1 C10 C11 C12 179.0(2) . . . . ?
F1 C10 C11 F2 -0.2(4) . . . . ?
F2 C11 C12 C13 179.4(3) . . . . ?
F2 C11 C12 F3 -0.2(4) . . . . ?
F3 C12 C13 C14 -179.7(3) . . . . ?
F3 C12 C13 F4 -1.0(5) . . . . ?
F4 C13 C14 C9 179.9(3) . . . . ?
F4 C13 C14 F5 0.3(4) . . . . ?
F6 C16 C17 C18 -179.0(2) . . . . ?
F6 C16 C17 F7 1.4(4) . . . . ?
F7 C17 C18 C19 -179.0(2) . . . . ?
F7 C17 C18 F8 -0.8(4) . . . . ?
F8 C18 C19 C20 -179.2(2) . . . . ?
F8 C18 C19 F9 0.6(4) . . . . ?
F9 C19 C20 C15 179.8(2) . . . . ?
F9 C19 C20 F10 -1.5(3) . . . . ?
O1 B1 C9 C10 124.0(2) . . . . ?
O1 B1 C9 C14 -57.7(3) . . . . ?
O1 B1 C15 C16 -48.5(3) . . . . ?
O1 B1 C15 C20 131.3(2) . . . . ?
O1 B1 O2 C2 -0.4(2) . . . . ?
O1 C1 C2 C3 179.95(19) . . . . ?
O1 C1 C2 O2 -0.5(3) . . . . ?
O2 B1 C9 C10 -126.4(2) . . . . ?
O2 B1 C9 C14 52.0(3) . . . . ?
O2 B1 C15 C16 -157.8(2) . . . . ?
O2 B1 C15 C20 21.9(3) . . . . ?
O2 B1 O1 C1 0.1(2) . . . . ?
O2 C2 C3 C4 1.4(4) . . . . ?
O2 C2 C3 C8 -178.6(2) . . . . ?
