#------------------------------------------------------------------------------
#$Date: 2022-03-06 06:37:54 +0200 (Sun, 06 Mar 2022) $
#$Revision: 273468 $
#$URL: file:///home/coder/svn-repositories/cod/cif/1/56/59/1565940.cif $
#------------------------------------------------------------------------------
#
# This file is available in the Crystallography Open Database (COD),
# http://www.crystallography.net/
#
# All data on this site have been placed in the public domain by the
# contributors.
#
data_1565940
loop_
_publ_author_name
'Wildner, Manfred'
'Zakharov, Boris A.'
'Bogdanov, Nikita E.'
'Talla, Dominik'
'Boldyreva, Elena V.'
'Miletich, Ronald'
_publ_section_title
;
 Crystallography relevant to Mars and Galilean icy moons: crystal behavior
 of kieserite-type monohydrate sulfates at extraterrestrial conditions
 down to 15 K
;
_journal_issue                   2
_journal_name_full               IUCrJ
_journal_page_first              194
_journal_page_last               203
_journal_paper_doi               10.1107/S2052252521012720
_journal_volume                  9
_journal_year                    2022
_chemical_formula_sum            'Fe0 H2 Mg O5 S'
_chemical_formula_weight         138.39
_space_group_crystal_system      monoclinic
_space_group_IT_number           15
_space_group_name_Hall           '-C 2yc'
_space_group_name_H-M_alt        'C 1 2/c 1'
_atom_sites_solution_hydrogens   difmap
_audit_creation_method           SHELXL-2017/1
_cell_angle_alpha                90
_cell_angle_beta                 118.021(10)
_cell_angle_gamma                90
_cell_formula_units_Z            4
_cell_length_a                   6.9070(10)
_cell_length_b                   7.6356(10)
_cell_length_c                   7.6373(10)
_cell_measurement_temperature    273(2)
_cell_volume                     355.57(9)
_computing_structure_refinement  'SHELXL-2017/1 (Sheldrick, 2017)'
_diffrn_ambient_temperature      273(2)
_diffrn_measured_fraction_theta_full 0.994
_diffrn_measured_fraction_theta_max 0.998
_diffrn_radiation_type           MoK\a
_diffrn_radiation_wavelength     0.71073
_diffrn_reflns_av_R_equivalents  0.0187
_diffrn_reflns_av_unetI/netI     0.0099
_diffrn_reflns_Laue_measured_fraction_full 0.994
_diffrn_reflns_Laue_measured_fraction_max 0.998
_diffrn_reflns_limit_h_max       12
_diffrn_reflns_limit_h_min       -12
_diffrn_reflns_limit_k_max       13
_diffrn_reflns_limit_k_min       -13
_diffrn_reflns_limit_l_max       13
_diffrn_reflns_limit_l_min       -13
_diffrn_reflns_number            9929
_diffrn_reflns_point_group_measured_fraction_full 0.994
_diffrn_reflns_point_group_measured_fraction_max 0.998
_diffrn_reflns_theta_full        25.242
_diffrn_reflns_theta_max         39.977
_diffrn_reflns_theta_min         4.235
_exptl_absorpt_coefficient_mu    0.968
_exptl_absorpt_correction_T_max  0.7479
_exptl_absorpt_correction_T_min  0.6905
_exptl_absorpt_correction_type   multi-scan
_exptl_absorpt_process_details
;
 SADABS 2016/2: Krause, L., Herbst-Irmer, R., Sheldrick G.M. & Stalke D.,
 J. Appl. Cryst. 48 (2015) 3-10
;
_exptl_crystal_density_diffrn    2.585
_exptl_crystal_F_000             280
_refine_diff_density_max         0.523
_refine_diff_density_min         -0.367
_refine_diff_density_rms         0.067
_refine_ls_extinction_coef       0.005(2)
_refine_ls_extinction_expression Fc^*^=kFc[1+0.001xFc^2^\l^3^/sin(2\q)]^-1/4^
_refine_ls_extinction_method     'SHELXL-2017/1 (Sheldrick 2017)'
_refine_ls_goodness_of_fit_ref   1.211
_refine_ls_hydrogen_treatment    refall
_refine_ls_matrix_type           full
_refine_ls_number_parameters     40
_refine_ls_number_reflns         1101
_refine_ls_number_restraints     0
_refine_ls_restrained_S_all      1.211
_refine_ls_R_factor_all          0.0166
_refine_ls_R_factor_gt           0.0157
_refine_ls_shift/su_max          0.000
_refine_ls_shift/su_mean         0.000
_refine_ls_structure_factor_coef Fsqd
_refine_ls_weighting_details
'w=1/[\s^2^(Fo^2^)+(0.0200P)^2^+0.1700P] where P=(Fo^2^+2Fc^2^)/3'
_refine_ls_weighting_scheme      calc
_refine_ls_wR_factor_gt          0.0454
_refine_ls_wR_factor_ref         0.0457
_reflns_Friedel_coverage         0.000
_reflns_number_gt                1058
_reflns_number_total             1101
_reflns_threshold_expression     'I > 2\s(I)'
_cod_data_source_file            lt5044.cif
_cod_data_source_block           MgSO4H2O_N2_273K
_cod_depositor_comments
'Adding full bibliography for 1565934--1565967.cif.'
_cod_original_sg_symbol_H-M      'C 2/c'
_cod_database_code               1565940
_shelx_shelxl_version_number     2017/1
_shelx_space_group_comment
;
The symmetry employed for this shelxl refinement is uniquely defined
by the following loop, which should always be used as a source of
symmetry information in preference to the above space-group names.
They are only intended as comments.
;
_shelx_res_file
;
TITL 204dkiesx1 273K Apex in C2/c kieserite cell
    latt_corr_for_Nonius20C_204dkiesx1_Apex273K.res
    created by SHELXL-2017/1 at 15:51:25 on 08-Oct-2018

REM meas.  mon  6.88875(9) 7.62540(9) 7.50588(9) 90.0   116.2117(5) 90.0
REM trans. cryscomp 6.8887 7.6254 7.6235 90.0 117.953 90.0
REM meas.trcl 6.88862(9)7.62522(9)7.50641(9) 89.9883(6)116.2133(6)90.0497(7)
REM trans. cryscomp 6.8886 7.6252 7.6235 90.033 117.948 89.950
REM CELL 0.71073   6.8887 7.6254 7.6235 90.0 117.953 90.0
REM latt corr for Nonius20C +.0183 +.0102 +.0138         +.068
CELL 0.71073   6.9070 7.6356 7.6373 90.0 118.021 90.0
ZERR    4.00   0.001   0.001   0.001   0.00   0.01   0.00
LATT  7
SYMM -X, Y, .5-Z
SFAC O H S MG FE
UNIT 20 8 4 4 0
SHEL 20 0.55285
OMIT -2 2 2
OMIT 1 1 2
L.S. 10
CONN 12 1.8 $O
EQIV $9 -x+1/2, y+1/2, -z+1/2
BOND $H
FMAP 2
PLAN 20
ACTA
HTAB O3 O2_$9
HTAB
REM EXYZ MG FE
REM EADP MG FE
REM SUMP 1.0 0 1.0 2 1.0 3
REM Fe wird negativ verfeinert
WGHT    0.020000    0.170000
EXTI    0.004609
FVAR       1.01149
MG    4    0.000000    0.500000    0.000000    10.50000    0.00655    0.00777 =
         0.00747    0.00049    0.00280   -0.00039
REM FE  5  0.000000    0.500000    0.000000    10.50000    0.00571    0.00681 =
REM      0.00653    0.00034    0.00244   -0.00039
S     3    0.000000    0.155288    0.250000    10.50000    0.00453    0.00592 =
         0.00710    0.00000    0.00226    0.00000
O1    1    0.175692    0.045360    0.394859    11.00000    0.00720    0.01384 =
         0.01366    0.00604    0.00358    0.00361
O2    1    0.092351    0.268058    0.149575    11.00000    0.01084    0.01001 =
         0.01447    0.00436    0.00785    0.00112
O3    1    0.000000    0.634967    0.250000    10.50000    0.00953    0.01079 =
         0.00958    0.00000    0.00462    0.00000
H     2    0.103795    0.702413    0.293197    11.00000    0.02510
HKLF 4 1  1 0 0 0 -1 0 -1 0 -1




REM  204dkiesx1 273K Apex in C2/c kieserite cell
REM R1 =  0.0157 for    1058 Fo > 4sig(Fo)  and  0.0166 for all    1101 data
REM     40 parameters refined using      0 restraints

END

WGHT      0.0205      0.1731

REM Instructions for potential hydrogen bonds
EQIV $20 x+1/2, y+1/2, z
HTAB O3 S_$20
HTAB O3 O2_$9

REM Highest difference peak  0.523,  deepest hole -0.367,  1-sigma level  0.067
Q1    1   0.0536  0.2123  0.2043  11.00000  0.05    0.52
Q2    1   0.0968  0.1011  0.3293  11.00000  0.05    0.39
Q3    1   0.2625  0.0668  0.3850  11.00000  0.05    0.22
Q4    1   0.2033  0.0129  0.3371  11.00000  0.05    0.22
Q5    1   0.0009  0.3068  0.1280  11.00000  0.05    0.20
Q6    1   0.1412  0.2313  0.1518  11.00000  0.05    0.19
Q7    1   0.2500  0.7500  0.5000  10.50000  0.05    0.18
Q8    1   0.0141  0.5832  0.3184  11.00000  0.05    0.16
Q9    1   0.2415  0.4390  0.2596  11.00000  0.05    0.15
Q10   1   0.1742  0.0025  0.6427  11.00000  0.05    0.15
Q11   1   0.1711  0.5173  0.1104  11.00000  0.05    0.14
Q12   1   0.0997  0.6314 -0.0509  11.00000  0.05    0.13
Q13   1   0.0952 -0.0646  0.1648  11.00000  0.05    0.13
Q14   1   0.2208  0.1321  0.4070  11.00000  0.05    0.12
Q15   1   0.1441 -0.0506  0.3668  11.00000  0.05    0.12
Q16   1   0.3189  0.4142  0.3466  11.00000  0.05    0.12
Q17   1   0.2650  0.2308  0.4772  11.00000  0.05    0.10
Q18   1   0.0000 -0.0662  0.2500  10.50000  0.05    0.10
Q19   1   0.0790  0.0057  0.3709  11.00000  0.05    0.10
Q20   1   0.2568  0.0262  0.2809  11.00000  0.05    0.09
;
_shelx_res_checksum              63880
_shelx_hkl_file
;
  -2   0   0 2296.37 38.3282   8
   2   0   0 2289.61 37.0048   4
   2   0   0 2337.46 37.2086  10
   2   0   0 2320.31 47.1848  13
   2   0   0 2276.40 38.8887  11
  -2   0   0 2324.71 37.6086  15
  -2   0   0 2362.53 47.5310  13
  -2   0   0 2369.85 41.9980  16
   2   0   0 2269.49 40.9050  16
   2   0   0 2314.75 37.4738   1
  -4   0   0 9496.94 148.684  15
   4   0   0 9392.71 156.361   4
  -4   0   0 9272.24 184.563  13
   4   0   0 9411.36 162.889   7
  -4   0   0 9560.67 161.610  16
   4   0   0 9529.35 161.761   1
   4   0   0 9345.10 160.014  10
  -4   0   0 9461.58 170.365   8
  -4   0   0 9349.42 149.798   2
   4   0   0 9320.92 186.947  13
   4   0   0 9402.49 163.641  11
   6   0   0 960.081 20.0057   1
  -6   0   0 933.328 19.3507  16
   6   0   0 935.744 19.0689   4
   6   0   0 955.648 20.8268   7
  -6   0   0 940.910 22.6481   8
  -6   0   0 948.139 20.5478  15
  -8   0   0 708.421 21.4675   8
  -8   0   0 677.911 18.0907  15
   8   0   0 707.132 19.3258   7
  -8   0   0 707.242 20.6462   3
  10   0   0 237.657 11.8771   7
 -10   0   0 241.139 13.2340   3
 -10   0   0 229.998 13.7036   8
   1  -1   0 3208.70 56.7100  16
   1  -1   0 3140.30 54.9835   5
  -1  -1   0 3250.51 60.6604  13
   1  -1   0 3113.79 51.8137  11
   1   1   0 3105.99 55.2424   1
   1   1   0 3145.05 53.2737   7
  -1   1   0 3251.37 56.0394  16
  -1   1   0 3225.99 53.3398   8
  -1   1   0 3195.39 51.6520  15
   3  -1   0 61.9823 4.17684  13
  -3  -1   0 58.6633 1.93976   2
   3  -1   0 59.4321 2.88720   5
  -3  -1   0 60.9175 4.22169  13
  -3  -1   0 60.1596 2.59103  16
  -3  -1   0 62.3169 3.28593   8
  -3  -1   0 59.9869 2.81848  15
   3  -1   0 61.1922 2.63828  10
   3  -1   0 61.6015 2.49543   4
   3  -1   0 56.3915 2.33771   1
   3  -1   0 61.6557 2.68496  11
   3   1   0 53.4630 2.58322   7
  -3   1   0 56.8721 1.82861   2
   3   1   0 63.7659 2.48366  10
   3   1   0 62.1031 4.30693  13
  -3   1   0 62.2429 3.49577   8
   3   1   0 54.6352 2.77638   1
  -3   1   0 58.8239 3.02976  15
  -3   1   0 62.4407 2.66574  16
  -5  -1   0 1671.67 32.2087   8
   5  -1   0 1582.55 36.7335  13
   5  -1   0 1618.28 29.1685   1
  -5  -1   0 1667.13 29.5101  16
   5  -1   0 1633.53 30.0613   7
  -5  -1   0 1655.63 30.2468  15
   5  -1   0 1611.43 29.0456   4
   5  -1   0 1614.06 29.6978  11
  -5  -1   0 1598.26 37.0525  13
   5   1   0 1593.30 36.9107  13
  -5   1   0 1639.87 30.6487  15
   5   1   0 1650.33 30.5152   1
  -5   1   0 1622.61 29.3584  16
  -5   1   0 1671.18 32.4618   8
   5   1   0 1631.11 29.2516  10
   5   1   0 1652.52 30.5750   7
  -7  -1   0 57.5644 6.04754   8
   7  -1   0 54.2486 4.12553  11
   7  -1   0 56.8498 4.55676   7
  -7  -1   0 50.8251 3.78911  16
  -7  -1   0 49.7157 4.40355  15
  -7   1   0 47.7885 3.72216  16
  -7   1   0 47.4636 4.52220  15
   7   1   0 57.9975 4.70937   7
  -7   1   0 58.7835 5.97374   3
  -7   1   0 47.2414 5.68247   8
   7   1   0 52.2786 4.24892   1
   9  -1   0 83.3488 6.83600   7
  -9  -1   0 92.2408 9.13172   3
  -9  -1   0 95.5205 9.54422   8
  -9   1   0 95.7205 8.15125   8
  -9   1   0 89.3995 8.05998   3
   9   1   0 91.4828 7.11382   7
 -11  -1   0 132.385 11.3433   8
 -11  -1   0 146.796 11.6315   3
  11  -1   0 111.594 9.03271   7
 -11   1   0 128.402 10.8954   3
 -11   1   0 133.016 11.7666   8
  11   1   0 132.758 9.66367   7
   0  -2   0 23.3497 1.24624  11
   0  -2   0 21.8212 1.31667   5
   0   2   0 24.2758 1.24913   6
   0   2   0 22.8340 1.09831   9
   0   2   0 20.9989 1.19957   8
   0   2   0 21.6535 1.26676  15
   2  -2   0 187.961 5.00604   5
   2  -2   0 188.464 4.88567  11
  -2  -2   0 189.824 6.88346  13
   2   2   0 183.879 4.12931  10
  -2   2   0 189.954 4.28415   2
   2   2   0 189.653 4.53579   6
   2   2   0 179.774 4.91206   7
  -2   2   0 184.347 5.46457   8
  -2   2   0 196.944 5.39432  15
   2   2   0 184.049 5.17004   1
   2   2   0 193.326 4.61295   9
  -2   2   0 186.799 4.77463   3
  -2   2   0 196.043 5.06950  16
  -4  -2   0 590.875 13.1099  15
  -4  -2   0 616.598 18.0213  13
  -4  -2   0 613.853 13.0170  16
  -4  -2   0 613.267 14.3772   8
   4  -2   0 600.534 17.4275  13
   4  -2   0 610.436 13.6423   5
   4  -2   0 611.448 12.8347   4
   4  -2   0 622.242 13.0329  11
   4   2   0 601.676 12.2425  10
  -4   2   0 596.737 13.7784  15
   4   2   0 639.157 13.7031   7
  -4   2   0 594.390 13.6379   3
  -4   2   0 613.354 14.8085   8
  -4   2   0 618.981 12.9951  16
   4   2   0 609.699 13.7861   1
  -4   2   0 586.999 11.0945   2
  -6  -2   0 962.174 19.8880  16
  -6  -2   0 938.978 20.2864  15
  -6  -2   0 966.504 22.6004   8
   6  -2   0 956.837 20.3300  11
   6  -2   0 942.699 19.5727   4
   6   2   0 949.939 21.2118   7
  -6   2   0 944.541 21.1907  15
   6   2   0 954.232 21.2116   1
  -6   2   0 914.998 19.6726  16
  -6   2   0 967.053 22.0965   3
   6   2   0 958.333 19.5160  10
  -6   2   0 938.246 22.9802   8
   8  -2   0 176.287 8.76910   7
  -8  -2   0 197.346 10.7803   8
   8  -2   0 195.547 8.58591  11
  -8  -2   0 190.840 10.3634   3
   8   2   0 186.693 8.90494   7
  -8   2   0 206.520 11.2342   8
  -8   2   0 185.383 8.86519  15
  -8   2   0 193.174 10.0035   3
  10  -2   0 474.900 17.1263   7
 -10  -2   0 481.516 19.3865   8
 -10  -2   0 457.956 18.9982   3
 -10   2   0 500.496 19.1021   3
 -10   2   0 504.033 20.2079   8
  10   2   0 490.889 17.7049   7
   1  -3   0 264.942 6.38023   5
   1  -3   0 272.586 6.36957  11
   1  -3   0 265.552 6.79988   4
   1   3   0 272.371 6.08624   9
  -1   3   0 269.246 6.39028   8
   1   3   0 276.032 6.25201   7
   1   3   0 269.011 5.90891   6
  -1   3   0 264.501 6.61801  15
  -1   3   0 269.460 5.65736   9
   1   3   0 267.328 6.24870   1
  -3  -3   0 2003.89 34.1002  16
   3  -3   0 2008.65 38.4341  13
   3  -3   0 1929.77 33.9142   5
   3  -3   0 1914.08 33.7275   4
   3  -3   0 1937.10 33.6067  11
  -3  -3   0 1996.00 39.0411  13
   3   3   0 1944.68 32.0846  10
  -3   3   0 1928.31 34.5065  15
   3   3   0 1955.75 32.9891   9
  -3   3   0 1901.16 33.3028   3
   3   3   0 1930.59 34.0072   7
   3   3   0 1925.52 34.4068   1
  -3   3   0 1948.14 35.0785   8
   3   3   0 1958.12 32.8941   6
   5  -3   0 66.7330 3.83432   4
  -5  -3   0 69.1831 3.92803  16
   5  -3   0 65.6645 6.01091  13
  -5  -3   0 70.0281 6.33634  13
   5  -3   0 65.9793 4.01588  11
  -5  -3   0 78.5509 4.98561   8
  -5  -3   0 70.8283 4.11203  15
   5   3   0 71.2913 4.32448   7
  -5   3   0 66.4091 3.84033  16
   5   3   0 72.4834 3.43673  10
  -5   3   0 66.8378 4.52172  15
  -5   3   0 74.9305 5.42740   8
   5   3   0 66.7523 4.36830   1
  -5   3   0 63.4974 4.33858   3
   7  -3   0 79.4493 5.59808   4
  -7  -3   0 116.870 7.68358   8
   7  -3   0 109.479 6.05344  11
  -7  -3   0 105.488 6.65730  16
   7   3   0 104.057 6.33991   1
  -7   3   0 111.836 7.02645   3
   7   3   0 123.388 6.83238   7
  -7   3   0 113.344 7.98392   8
  -7   3   0 120.917 6.94602  15
   9  -3   0 1.01024 2.30974   7
  -9  -3   0 0.65222 3.16421   3
  -9  -3   0 3.20516 3.94077   8
   9  -3   0 0.82039 2.07317  11
  -9   3   0 -3.8201 3.31671   8
   9   3   0 0.81099 1.45017   7
  -9   3   0 2.91215 3.14929   3
  -9   3   0 0.89962 2.57804  15
 -11  -3   0 24.8339 6.58112   8
  11  -3   0 31.5257 5.11740   7
 -11   3   0 22.6989 5.58910   3
  11   3   0 31.6079 5.64939   7
   0  -4   0 1066.08 19.0043  12
   0  -4   0 1142.33 20.6784   5
   0  -4   0 1149.54 20.6348  11
   0   4   0 1148.99 20.7897  15
   0   4   0 1142.94 20.0057   6
   0   4   0 1149.74 19.9716   9
   0   4   0 1140.19 19.9543   8
   0   4   0 1164.46 19.4606   1
   2  -4   0 5770.05 102.109   5
   2  -4   0 5932.70 100.071  11
   2  -4   0 5935.92 105.449   4
  -2   4   0 5903.67 99.0481   3
  -2   4   0 5926.03 93.4781   9
  -2   4   0 6001.84 100.715   8
   2   4   0 5934.09 99.9757   1
   2   4   0 6088.41 95.1176   7
  -2   4   0 5968.65 102.050  15
   2   4   0 5807.11 96.0546  10
   2   4   0 5930.25 101.490   9
   2   4   0 6138.48 97.9363   6
   4  -4   0 2.20063 1.37390   5
   4  -4   0 4.20905 1.37933  11
   4  -4   0 3.31544 1.64327   4
   4  -4   0 2.83901 1.81865  13
  -4  -4   0 1.67780 1.65371  13
  -4  -4   0 4.16548 1.27323  16
   4   4   0 3.25556 1.16590   1
   4   4   0 3.03239 0.85701  10
  -4   4   0 10.1638 2.63637   8
  -4   4   0 3.22959 1.33914   3
   4   4   0 3.88793 1.17331   9
   4   4   0 2.83826 1.24248   7
   4   4   0 1.21269 0.72405   6
  -4   4   0 4.09707 1.86575  15
  -6  -4   0 977.418 21.2569  16
  -6  -4   0 954.131 20.9377  15
   6  -4   0 943.543 20.6723   4
   6  -4   0 964.600 21.2617  11
  -6  -4   0 1004.15 23.5061   8
  -6   4   0 971.315 24.1785   8
  -6   4   0 981.003 22.6810  15
   6   4   0 972.805 22.2667   7
   6   4   0 956.193 19.3544  10
   6   4   0 987.732 22.7312   1
  -6   4   0 964.460 21.9250   3
   8  -4   0 281.046 10.8335  11
  -8  -4   0 275.374 12.7855   3
  -8  -4   0 274.525 12.8017   8
   8  -4   0 269.556 10.7684   7
  -8   4   0 274.808 11.5520  15
   8   4   0 277.752 11.6997   7
   8   4   0 271.802 11.4740   1
  -8   4   0 277.845 11.9254   3
  -8   4   0 280.352 13.5927   8
 -10  -4   0 228.677 13.4061   3
 -10  -4   0 200.608 13.1920   8
  10  -4   0 210.942 11.2321   7
 -10   4   0 213.578 13.6214   8
  10   4   0 244.222 12.0829   7
 -10   4   0 214.348 11.9590   3
  -1  -5   0 157.038 4.51696  12
  -1  -5   0 156.352 5.56568   5
   1  -5   0 153.524 5.42754   5
   1  -5   0 166.846 5.71588  11
  -1   5   0 164.693 4.83969   9
   1   5   0 161.252 4.93605   6
  -1   5   0 163.903 5.11519   6
   1   5   0 160.278 3.62349  10
  -1   5   0 160.036 5.26329   8
   1   5   0 167.387 5.08593   1
   1   5   0 161.538 5.14445   9
  -1   5   0 161.076 5.75759  15
   3  -5   0 359.155 9.74060  11
  -3  -5   0 330.771 12.7460  13
   3  -5   0 343.592 9.89209   4
   3  -5   0 344.536 9.42727   5
  -3   5   0 346.325 10.2075  15
   3   5   0 350.808 9.82481   1
  -3   5   0 332.544 8.02893   3
  -3   5   0 360.583 10.3809   8
   3   5   0 337.473 7.14065  10
   3   5   0 354.758 9.07823   9
   3   5   0 345.621 8.64264   6
   3   5   0 343.729 9.46015   7
  -3   5   0 355.340 7.99418   9
   5  -5   0 4.53178 1.82715   5
  -5  -5   0 4.50950 1.63314  16
   5  -5   0 4.92970 2.12180  11
   5  -5   0 3.33837 1.95701   4
   5   5   0 6.43836 1.65495   9
  -5   5   0 3.59380 1.64981   3
  -5   5   0 2.56193 2.33392   8
   5   5   0 1.29856 0.95504  10
   5   5   0 3.01570 1.77806   1
  -5   5   0 4.46755 2.19751  15
   5   5   0 3.13560 1.65770   7
   5   5   0 1.45217 1.19942   6
  -7  -5   0 315.601 12.5520   8
   7  -5   0 335.389 11.4404  11
   7  -5   0 308.927 12.0125   4
  -7   5   0 312.168 11.5211   3
   7   5   0 318.933 11.6275   7
  -7   5   0 341.131 12.7466  15
  -7   5   0 315.971 13.4442   8
   7   5   0 326.210 12.2012   1
   9  -5   0 139.594 8.23127  11
  -9  -5   0 159.796 10.7658   3
   9  -5   0 143.487 8.85438   7
  -9  -5   0 141.499 10.3320   8
  -9   5   0 159.559 11.1686   8
   9   5   0 146.095 9.04737   7
  -9   5   0 157.605 9.27330  15
   0  -6   0 1165.43 22.9214   5
   0  -6   0 1191.45 23.0181  11
   0   6   0 1197.70 22.1255   9
   0   6   0 1178.62 22.1054   6
   0   6   0 1149.64 20.7041   1
   2  -6   0 295.037 9.58414   4
  -2  -6   0 280.567 7.79117  12
   2  -6   0 301.457 9.06691  11
   2  -6   0 297.346 8.70715   5
  -2  -6   0 295.691 9.08675   5
   2   6   0 293.288 8.32759   9
  -2   6   0 306.312 7.67253   9
   2   6   0 304.353 8.54221   1
   2   6   0 285.384 8.33848   7
  -2   6   0 299.497 8.83910   8
   2   6   0 292.071 7.96139   6
  -2   6   0 289.374 9.17812  15
  -4  -6   0 1517.70 30.5215  16
   4  -6   0 1511.77 29.6002  11
   4  -6   0 1491.96 29.5295   5
   4  -6   0 1489.21 30.1649   4
   4   6   0 1499.24 29.6658   7
   4   6   0 1546.30 30.4657   1
  -4   6   0 1534.29 31.0825   8
  -4   6   0 1469.40 26.6284   9
   4   6   0 1513.73 28.6495   9
   4   6   0 1487.64 28.0790   6
  -4   6   0 1503.55 30.9779  15
  -6  -6   0 16.6009 3.71282   8
   6  -6   0 15.9625 3.30306   5
   6  -6   0 13.4093 3.06583  11
  -6  -6   0 11.2745 2.48818  16
   6  -6   0 14.0156 3.04298   4
   6   6   0 13.8983 2.86641   7
   6   6   0 9.97297 2.26881   9
  -6   6   0 9.81875 3.42087   8
   6   6   0 11.4869 2.44024   6
   6   6   0 8.28263 2.66706   1
  -6   6   0 13.3199 2.92785  15
  -8  -6   0 930.276 26.0004   3
   8  -6   0 953.183 23.7272  11
   8   6   0 915.819 24.2531   7
  -8   6   0 929.916 26.7487   8
  -8   6   0 913.810 24.9180  15
  10  -6   0 3.37784 3.04209   7
  10  -6   0 3.75896 2.46063  11
 -10  -6   0 6.18333 4.17702   3
 -10   6   0 1.03810 2.90821   8
 -10   6   0 4.80209 3.05180  15
  10   6   0 3.18488 2.33253   7
  -1  -7   0 717.511 16.7348   5
   1  -7   0 719.053 16.4285   5
   1  -7   0 724.240 16.7069  11
   1  -7   0 727.138 18.0676   4
  -1  -7   0 713.873 16.5136  11
  -1   7   0 706.958 15.7030   6
  -1   7   0 700.838 15.6750   8
   1   7   0 727.450 15.8483   9
  -1   7   0 735.448 15.4903   9
   1   7   0 719.503 15.1155   1
   1   7   0 740.726 15.7364   6
  -1   7   0 731.014 17.0942  15
   3  -7   0 1163.33 24.2690   5
  -3  -7   0 1125.55 23.4655  12
  -3  -7   0 1150.53 30.1589  13
   3  -7   0 1206.98 26.1812   4
   3  -7   0 1187.54 24.7366  11
   3   7   0 1215.92 23.5106   6
  -3   7   0 1181.89 22.3477   9
  -3   7   0 1181.65 25.0533   8
   3   7   0 1177.86 23.8425   9
   3   7   0 1173.42 24.2343   7
   3   7   0 1226.20 24.7709   1
  -3   7   0 1187.31 25.8455  15
   5  -7   0 104.981 6.05082   5
   5  -7   0 93.9392 6.37030   4
  -5  -7   0 90.4673 5.97494  16
   5  -7   0 89.0414 5.64456  11
   5   7   0 96.6312 6.20627   1
  -5   7   0 91.8270 6.59087   8
   5   7   0 100.713 6.04667   7
   5   7   0 97.6289 5.10385   6
  -5   7   0 99.9136 6.73344  15
   5   7   0 101.409 5.49677   9
   7  -7   0 263.727 10.7043  11
  -7  -7   0 269.154 11.9758   3
   7   7   0 270.237 11.3051   7
   7   7   0 266.319 11.5057   1
  -7   7   0 247.503 12.2582   8
  -7   7   0 278.250 12.3192  15
  -9  -7   0 23.7111 5.17258   3
   9  -7   0 36.8275 5.55371  11
  -9   7   0 39.0218 5.81516  15
  -9   7   0 40.2157 6.62985   8
   9   7   0 32.9245 5.10428   7
   0  -8   0 578.029 14.9333  11
   0   8   0 560.839 13.7149   9
   0   8   0 557.407 13.7161   6
   2  -8   0 527.820 14.4227  11
  -2  -8   0 521.119 14.4252   5
   2  -8   0 518.022 13.6562   5
   2  -8   0 504.918 15.3770   4
  -2  -8   0 520.060 14.1114  11
   2   8   0 512.068 12.9307   1
  -2   8   0 499.845 12.4182   9
  -2   8   0 519.554 13.4103   6
   2   8   0 505.130 13.2764   9
  -2   8   0 517.546 14.8308  15
  -2   8   0 506.196 13.4635   8
   2   8   0 514.028 12.9397   6
   4  -8   0 233.274 9.55893  11
   4  -8   0 238.637 10.4169   4
   4  -8   0 250.791 9.34783   5
  -4  -8   0 229.289 8.87828  12
  -4   8   0 245.927 10.2952  15
   4   8   0 246.816 9.48643   1
   4   8   0 259.232 9.11208   9
   4   8   0 244.293 8.48917   6
   4   8   0 245.858 9.38351   7
  -4   8   0 248.515 10.0725   8
   6  -8   0 31.7667 4.85001   4
   6  -8   0 21.2426 3.74383   5
  -6  -8   0 21.2712 3.57421  16
   6  -8   0 23.1502 3.83845  11
  -6   8   0 27.3985 4.79644   8
   6   8   0 30.8084 4.17391   9
   6   8   0 26.4935 4.27137   1
   6   8   0 25.8888 3.60021   6
   6   8   0 25.6605 4.00386   7
  -6   8   0 27.9738 4.89443  15
   8  -8   0 36.8009 5.24447  11
  -8   8   0 38.7051 5.98175  15
   8   8   0 32.7448 4.69178   7
  -8   8   0 37.6846 6.23632   8
   1  -9   0 222.782 8.78174   5
  -1  -9   0 231.195 9.18337   5
  -1  -9   0 250.315 9.54230  11
   1  -9   0 228.189 10.5004   4
   1  -9   0 233.513 9.44888  11
  -1   9   0 229.844 8.11547   9
   1   9   0 252.008 8.85284   9
  -1   9   0 238.760 8.68372   6
   1   9   0 240.583 8.49041   6
  -3  -9   0 49.8814 4.97995   5
  -3  -9   0 45.7925 5.00513  11
   3  -9   0 54.3763 5.92346   4
   3  -9   0 46.6929 5.36308  11
   3  -9   0 45.6070 4.26827   5
   3   9   0 52.8650 4.30542   1
   3   9   0 49.2725 4.03146   6
  -3   9   0 45.5483 4.55229   6
  -3   9   0 48.5948 5.40317  15
  -3   9   0 50.0958 4.53018   8
   3   9   0 47.5721 4.71262   9
  -3   9   0 43.6252 3.51142   9
  -5  -9   0 162.501 8.96389  16
   5  -9   0 171.936 9.15426  11
   5  -9   0 170.154 9.73442   4
  -5  -9   0 159.764 9.21684   5
   5   9   0 183.439 8.78960   7
   5   9   0 179.618 8.91703   1
   5   9   0 160.147 7.83337   9
  -5   9   0 152.667 8.77410   8
  -5   9   0 166.570 9.59052  15
   5   9   0 158.122 7.32843   6
   7  -9   0 1.13007 2.16756  11
   7   9   0 6.75533 2.82712   7
  -7   9   0 3.08647 3.11265  15
  -7   9   0 6.56224 3.22415   8
   0 -10   0 550.486 18.0297   4
   0 -10   0 554.675 16.2961  11
   0  10   0 552.318 14.9871   6
   0  10   0 550.861 14.7916   9
  -2 -10   0 1290.01 28.9315  11
   2 -10   0 1298.51 29.3081  11
   2 -10   0 1343.16 31.8149   4
   2  10   0 1274.79 27.2753   6
  -2  10   0 1288.79 28.1944   6
   2  10   0 1290.82 27.6259   9
   4 -10   0 265.019 11.1251  11
   4 -10   0 257.797 12.1183   4
  -4 -10   0 260.260 11.0417  11
  -4  10   0 257.482 10.6429   6
   4  10   0 278.435 9.96135   6
  -4  10   0 253.891 11.8814  15
  -4  10   0 310.502 14.6943   8
   4  10   0 269.719 10.4193   9
   6 -10   0 708.490 21.5675   4
   6 -10   0 704.441 20.8519  11
   6  10   0 714.740 19.3844   9
  -6  10   0 699.048 20.2896   6
  -6  10   0 688.747 22.1195  15
  -1 -11   0 317.068 12.5080  11
   1 -11   0 318.845 14.2816   4
  -1 -11   0 333.120 14.6952   4
   1 -11   0 315.586 12.5325  11
   1  11   0 310.958 11.0276   9
  -1  11   0 324.542 11.5440   6
   1  11   0 326.137 11.3369   6
  -1  11   0 318.991 10.8257   9
   3 -11   0 202.386 10.3974  11
   3 -11   0 179.493 10.9238   4
  -3 -11   0 206.905 10.0713  11
  -3  11   0 187.561 9.26537   6
   3  11   0 182.003 8.57837   9
  -5 -11   0 257.286 11.4186  11
   5 -11   0 280.888 12.6409  11
   5 -11   0 274.014 12.9620   4
   5  11   0 275.122 11.4450   9
  -5  11   0 282.371 11.8072   6
   0 -12   0 117.876 9.21370   4
   0 -12   0 106.683 7.97847  11
   0  12   0 103.764 6.68531   9
   0  12   0 112.440 6.98103   6
  -2 -12   0 62.3659 7.92955   4
  -2 -12   0 57.2444 6.13728  11
   2 -12   0 62.5650 8.10756   4
   2 -12   0 66.8881 7.64493  11
   2  12   0 46.8903 4.95723   6
   2  12   0 66.6575 6.30605   9
  -2  12   0 56.6988 5.70146   6
  -4 -12   0 98.2658 7.70645  11
   4 -12   0 109.008 8.72581  11
   4 -12   0 95.9400 9.26533   4
  -4  12   0 100.578 7.40881   6
   4  12   0 103.327 7.37132   9
  -1 -13   0 7.32272 3.55044   4
   1 -13   0 9.14471 4.75767   4
  -1 -13   0 5.60974 3.59392  11
   1 -13   0 3.62159 2.82079  11
   1  13   0 1.50484 2.41326   9
  -1  13   0 2.12284 1.73048   6
   3 -13   0 5.43241 4.46578   4
  -3 -13   0 8.97163 4.59913   4
  -3 -13   0 3.69052 3.39251  11
   3 -13   0 0.21558 3.70649  11
  -3  13   0 1.45502 2.47947   6
   3  13   0 2.84174 2.91641   9
 -10   0   1 1.26142 3.35485   3
 -10   0   1 -0.8795 3.49975   8
  10   0  -1 2.38625 2.52039   7
   8   0  -1 -1.4898 1.57579   7
  -8   0   1 0.28801 2.14494  15
   8   0  -1 3.95869 1.75891   1
  -8   0   1 -1.2520 2.61815   8
   6   0  -1 1.19120 1.08101  11
  -6   0   1 3.24438 1.08942  16
   6   0  -1 3.32872 1.19573   7
  -6   0   1 3.74518 2.17800   8
  -6   0   1 3.24378 1.91088  15
   6   0  -1 0.81557 1.07655   1
   4   0  -1 0.98226 0.46141   4
  -4   0   1 5.74193 1.76207   8
  -4   0   1 4.87403 1.45849  15
   4   0  -1 1.06419 0.60007   1
   4   0  -1 0.66046 1.06678  13
   4   0  -1 0.71317 0.64096  11
   4   0  -1 0.98860 0.55781   7
  -4   0   1 0.32184 0.76173   2
  -4   0   1 0.59134 0.56363  16
   2   0  -1 0.43509 0.41048   1
  -2   0   1 -0.0735 0.57542   2
   2   0  -1 2.02825 0.92913  13
   2   0  -1 1.18746 0.64134   5
  -2   0   1 1.76663 0.30137  16
  -2   0   1 1.38995 0.81024  15
   2   0  -1 0.28015 0.38266  11
   0   0  -1 0.21319 0.16487  16
   0   0   1 0.33859 0.24750  16
   2   0   1 3.78587 1.22233  13
  -2   0  -1 2.11339 0.98033   8
  -2   0  -1 1.71876 1.08063  13
  -2   0  -1 3.40487 0.84426  15
   2   0   1 1.90099 0.55411   7
  -2   0  -1 1.48308 0.84643   3
   2   0   1 2.07888 0.63054   4
   2   0   1 2.80000 0.54236  14
   2   0   1 1.87004 0.55812  11
   4   0   1 2.62530 1.70457  13
  -4   0  -1 4.66457 1.88041   8
  -4   0  -1 6.94447 1.68316  15
  -4   0  -1 3.50745 1.90313  13
  -4   0  -1 1.62661 1.47566   3
   4   0   1 2.66605 0.97132  11
  -4   0  -1 1.29169 1.17713  16
   4   0   1 2.26425 1.03210  10
   4   0   1 2.01911 1.05440   4
   4   0   1 2.07803 0.85043   7
  -6   0  -1 3.09035 1.64118  16
  -6   0  -1 0.99560 1.35781  15
   6   0   1 2.48674 1.56754  10
  -6   0  -1 2.03769 2.25762   3
  -6   0  -1 1.41900 2.36015   8
   6   0   1 0.86498 0.90143   4
   6   0   1 4.12764 1.74821   7
  -8   0  -1 -1.8105 2.58395   3
  -8   0  -1 1.23152 3.46313   8
   8   0   1 2.49013 2.26874   7
  10   0   1 0.68448 2.71988   7
 -10   0  -1 0.82024 3.64493   3
 -10   0  -1 0.00464 4.03881   8
  11  -1  -1 19.3208 4.49580   7
 -11  -1   1 22.2166 6.42280   8
 -11  -1   1 19.7954 5.57380   3
  11   1  -1 22.7327 4.44846   7
 -11   1   1 12.6821 4.10922   3
 -11   1   1 8.78517 5.32081   8
  -9  -1   1 89.4527 8.42962   8
  -9  -1   1 106.198 8.36264   3
   9  -1  -1 103.100 7.06939   7
   9   1  -1 102.708 7.12821   7
   9   1  -1 97.5403 6.10661   1
  -9   1   1 95.6600 7.07686  15
  -9   1   1 108.428 8.26577   3
  -9   1   1 108.536 9.14402   8
   7  -1  -1 270.722 8.85618  11
   7  -1  -1 265.409 9.54867   7
   7  -1  -1 275.291 8.65322   1
  -7  -1   1 263.846 11.0664   8
  -7  -1   1 258.468 9.75535  15
  -7   1   1 274.712 10.1366  15
   7   1  -1 264.320 9.63355   7
  -7   1   1 282.137 11.4157   8
   7   1  -1 259.985 9.28359   1
  -5  -1   1 486.542 13.1846   8
   5  -1  -1 473.931 10.9664  11
  -5  -1   1 470.483 15.7194  13
  -5  -1   1 483.653 10.2901  16
  -5  -1   1 480.975 12.1232  15
   5  -1  -1 477.618 9.95695   4
   5  -1  -1 480.598 10.9552   1
   5  -1  -1 475.169 16.0911  13
  -5  -1   1 469.172 9.72827   2
  -5   1   1 469.555 12.2682  15
  -5   1   1 480.971 13.2079   8
   5   1  -1 477.022 11.7398   1
  -5   1   1 478.181 9.54233   2
   5   1  -1 480.126 15.9555  13
   5   1  -1 492.129 11.7173   7
  -5   1   1 483.826 10.2834  16
  -3  -1   1 2511.10 40.6328   2
   3  -1  -1 2442.30 41.5252   4
   3  -1  -1 2513.84 40.8416  11
   3  -1  -1 2469.62 41.7837   5
   3  -1  -1 2496.63 40.7636   1
   3  -1  -1 2536.58 42.9587  16
   3  -1  -1 2477.22 45.3512  13
  -3  -1   1 2522.31 44.4232  16
  -3  -1   1 2552.43 45.4429  13
  -3   1   1 2492.50 42.2097  15
  -3   1   1 2519.70 40.3783   2
   3   1  -1 2505.47 40.2003   9
   3   1  -1 2541.88 41.3118   7
  -3   1   1 2613.62 44.9161  16
  -3   1   1 2515.86 42.6397   8
   3   1  -1 2479.16 41.8633   1
   3   1  -1 2534.90 45.3367  13
   1  -1  -1 113.640 3.12636   5
  -1  -1   1 122.613 3.14783  13
   1  -1  -1 112.754 2.84519  12
   1  -1  -1 115.211 2.91849  11
   1   1  -1 115.386 3.25277   1
  -1   1   1 115.555 2.83382   2
   1   1  -1 120.733 3.14666  13
  -1   1   1 118.759 3.13327  15
  -1  -1  -1 7602.87 123.680   8
  -1  -1  -1 7586.00 128.906   3
   1  -1   1 7383.75 124.428  10
   1  -1   1 7606.11 123.859  14
   1  -1   1 7922.76 138.536  13
   1  -1   1 7461.71 126.662   4
   1  -1   1 7521.24 125.231  11
  -1  -1  -1 7706.34 130.772  16
   1   1   1 7549.36 123.945  10
   1   1   1 7403.64 125.447   6
  -1   1  -1 7734.35 138.385  13
  -1   1  -1 7649.15 128.826   3
   1   1   1 7560.69 125.165  14
  -1   1  -1 7575.55 124.164  15
  -1   1  -1 7711.53 128.718  16
   1   1   1 7611.90 127.071   7
  -1   1  -1 7626.63 129.628   8
  -3  -1  -1 130.899 6.81618  13
   3  -1   1 135.641 4.45959  11
  -3  -1  -1 129.687 3.97168  15
   3  -1   1 134.195 4.55144   4
   3  -1   1 139.466 3.37650  14
  -3  -1  -1 129.858 4.53478  16
  -3  -1  -1 136.389 5.16347   8
   3  -1   1 127.072 4.30113  10
   3  -1   1 134.022 6.68457  13
  -3   1  -1 125.709 6.45093  13
   3   1   1 136.904 4.68495   1
  -3   1  -1 141.572 4.85410  16
   3   1   1 126.996 4.39656   4
  -3   1  -1 124.952 4.95676   3
   3   1   1 124.688 4.48120   7
  -3   1  -1 129.309 4.39421  15
  -3   1  -1 137.682 5.43416   8
   3   1   1 134.531 4.25553  10
   5  -1   1 1896.89 46.9071  13
  -5  -1  -1 1991.69 37.9117   3
   5  -1   1 1979.11 35.6444  11
  -5  -1  -1 1961.33 34.8717  15
  -5  -1  -1 1898.88 43.6117  13
   5  -1   1 1947.57 35.4820   4
  -5  -1  -1 1983.82 35.8456  16
   5  -1   1 1984.61 36.0897   7
  -5  -1  -1 1998.98 37.9233   8
   5  -1   1 1993.80 35.5746  10
   5   1   1 2019.34 36.1602   1
  -5   1  -1 1991.49 35.9263  16
   5   1   1 1972.34 35.2724  10
  -5   1  -1 1963.00 38.1914   8
  -5   1  -1 2017.71 37.9785   3
  -5   1  -1 1941.06 35.5439  15
   5   1   1 1993.96 36.4855   7
  -7  -1  -1 38.4780 5.20464   3
   7  -1   1 33.1576 3.70469   4
   7  -1   1 34.7862 4.25766   7
  -7  -1  -1 34.9227 3.78490  16
  -7  -1  -1 31.2302 4.88211   8
  -7   1  -1 25.3247 3.30292  16
   7   1   1 29.5314 3.44296  10
  -7   1  -1 36.1708 4.96531   3
  -7   1  -1 34.5726 3.96308  15
  -7   1  -1 26.7755 4.83040   8
   7   1   1 24.3123 3.69346   7
   9  -1   1 337.570 13.5906   7
  -9  -1  -1 325.027 15.2002   3
  -9  -1  -1 347.894 15.5679   8
  -9   1  -1 358.426 15.6754   3
   9   1   1 335.255 13.7408   7
  -9   1  -1 333.172 15.6660   8
  10  -2  -1 187.770 10.3709   7
 -10  -2   1 205.289 12.7126   8
 -10  -2   1 204.520 12.3830   3
  10   2  -1 194.913 10.5857   7
 -10   2   1 189.282 11.4154   3
 -10   2   1 189.432 12.3855   8
 -10   2   1 183.384 9.96662  15
  -8  -2   1 504.510 15.0782  15
   8  -2  -1 507.084 15.3092   7
  -8  -2   1 530.686 17.5234   8
   8  -2  -1 508.513 14.2572  11
   8   2  -1 497.136 15.3679   7
  -8   2   1 515.589 17.6606   8
   8   2  -1 514.401 15.3084   1
  -8   2   1 525.533 16.5816   3
  -8   2   1 508.301 15.7438  15
   6  -2  -1 626.591 13.5717   1
  -6  -2   1 640.945 15.7458  15
   6  -2  -1 622.891 14.4134  11
  -6  -2   1 623.522 16.9835   8
  -6  -2   1 626.878 13.5814  16
   6   2  -1 628.635 15.3105   7
   6   2  -1 635.626 15.7281   1
  -6   2   1 621.452 13.6560  16
  -6   2   1 631.711 16.1159  15
  -6   2   1 637.677 17.1956   8
   4  -2  -1 2204.35 37.8541  11
   4  -2  -1 2214.52 39.0496   5
  -4  -2   1 2282.24 37.4556  16
  -4  -2   1 2257.96 43.7792  13
   4  -2  -1 2218.46 36.7985   1
   4  -2  -1 2248.19 37.1835   4
   4  -2  -1 2251.79 44.1303  13
   4   2  -1 2217.05 38.3912   7
  -4   2   1 2236.40 39.9884   8
   4   2  -1 2224.84 36.9717   9
  -4   2   1 2253.31 39.5337  15
   4   2  -1 2227.97 39.2315   1
  -4   2   1 2232.78 36.7704   2
   4   2  -1 2235.26 43.5935  13
   2  -2  -1 5363.36 92.5764  11
   2  -2  -1 5458.36 91.8800  12
   2  -2  -1 5241.41 91.8486   5
  -2  -2   1 5637.97 108.956  13
   2  -2  -1 5194.29 93.2917   4
   2   2  -1 5489.04 88.0619   7
   2   2  -1 5138.11 91.6072   1
  -2   2   1 5446.89 85.6871   2
   2   2  -1 5365.38 88.9782   6
  -2   2   1 5417.64 88.5954  15
   2   2  -1 5356.76 90.4708   9
  -2   2   1 5420.21 94.7998   8
   0  -2  -1 6527.47 108.234  12
   0  -2  -1 6417.94 111.292   5
   0  -2   1 6448.64 109.488   4
   0  -2   1 6377.76 106.930  11
   0   2   1 6449.65 106.325   2
   0   2   1 6484.71 107.494  15
   0   2   1 6465.09 106.444   9
   0   2   1 6420.09 104.748   7
   0   2   1 6341.35 106.770   6
   0   2  -1 6564.85 110.621   8
   0   2  -1 6414.58 105.897   3
   2  -2   1 6950.82 122.167   5
   2  -2   1 7051.66 122.654   4
   2  -2   1 7077.07 117.808  14
   2  -2   1 7073.46 120.872  11
  -2  -2  -1 7106.67 124.803  16
  -2  -2  -1 7015.03 119.187   8
   2  -2   1 6982.53 117.719  10
   2  -2   1 7302.69 140.158  13
  -2  -2  -1 7294.32 137.177  13
  -2   2  -1 6914.55 126.374  16
   2   2   1 6908.47 118.489   1
   2   2   1 7268.62 118.544   7
   2   2   1 7055.90 118.797  10
   2   2   1 7051.69 119.461   6
   2   2   1 6918.78 117.405   9
  -2   2  -1 6782.67 115.723   3
  -2   2  -1 6871.15 116.516  15
  -2   2  -1 7166.65 112.332   8
  -4  -2  -1 2309.03 39.3764  15
   4  -2   1 2237.64 37.6093  14
   4  -2   1 2317.18 40.5746   4
   4  -2   1 2382.01 40.3406  10
   4  -2   1 2345.70 40.4330  11
  -4  -2  -1 2346.33 40.8388  16
   4  -2   1 2362.48 46.9805  13
  -4  -2  -1 2310.60 47.7228  13
  -4  -2  -1 2289.92 41.4779   8
   4   2   1 2353.64 39.9523   6
  -4   2  -1 2373.94 40.9494  16
  -4   2  -1 2315.97 42.6093   8
   4   2   1 2371.06 39.8670  10
   4   2   1 2357.50 41.2070   1
   4   2   1 2348.58 41.1317   7
  -4   2  -1 2318.82 40.7279  15
  -4   2  -1 2333.53 41.6094   3
  -6  -2  -1 1246.75 28.0824   3
   6  -2   1 1239.73 25.4467  11
   6  -2   1 1198.74 25.0857   4
  -6  -2  -1 1224.52 25.4773  16
  -6  -2  -1 1256.51 27.7744   8
   6  -2   1 1222.57 25.7808   7
  -6   2  -1 1246.65 25.7304  15
  -6   2  -1 1264.41 28.5988   8
   6   2   1 1246.49 24.7714  10
  -6   2  -1 1226.09 25.4436  16
  -6   2  -1 1268.52 27.4952   3
   6   2   1 1261.61 26.5878   7
  -8  -2  -1 745.711 22.4800   3
   8  -2   1 717.951 20.1978   7
  -8  -2  -1 754.935 22.3589   8
  -8   2  -1 743.879 23.0126   8
   8   2   1 754.948 20.8204   7
  -8   2  -1 751.003 22.0616   3
  10  -2   1 214.614 11.2316   7
 -10  -2  -1 239.542 13.9235   3
 -10  -2  -1 234.083 13.4018   8
 -10   2  -1 242.276 12.9823   3
 -10   2  -1 234.945 13.4438   8
  10   2   1 236.875 12.2360   7
 -11  -3   1 15.0452 5.56943   3
  11  -3  -1 13.3040 4.14273   7
 -11  -3   1 20.5808 5.27779   8
 -11   3   1 20.7770 6.23154   8
 -11   3   1 16.8638 5.26282   3
  11   3  -1 21.5119 4.78152   7
   9  -3  -1 890.697 22.1951  11
  -9  -3   1 922.023 26.4778   8
   9  -3  -1 857.003 23.2149   7
   9   3  -1 873.658 23.5267   7
  -9   3   1 908.037 24.4929   3
   9   3  -1 839.649 22.7658   1
  -9   3   1 903.305 23.8071  15
  -9   3   1 911.281 26.4692   8
  -7  -3   1 55.2908 5.03570  15
  -7  -3   1 51.5096 5.80979   8
   7  -3  -1 58.0759 4.35212  11
  -7   3   1 61.3396 5.48768  15
   7   3  -1 63.6701 4.66466   1
   7   3  -1 63.7662 4.80117   7
  -7   3   1 57.7883 6.30574   8
  -7   3   1 51.6858 4.92167   3
   5  -3  -1 1693.56 38.7102  13
   5  -3  -1 1759.56 32.8549   5
   5  -3  -1 1691.89 29.0401   1
   5  -3  -1 1739.84 31.5459  11
   5  -3  -1 1702.44 30.6377   4
  -5  -3   1 1783.60 31.1438  16
  -5  -3   1 1709.95 38.3241  13
   5   3  -1 1737.94 32.2268   7
  -5   3   1 1711.34 29.7243   2
  -5   3   1 1734.56 34.0261   8
   5   3  -1 1739.14 30.3345   9
  -5   3   1 1758.71 33.3044  15
   5   3  -1 1753.40 33.0247   1
   3  -3  -1 5.12350 1.14381  11
   3  -3  -1 4.18885 1.14499   4
  -3  -3   1 5.38411 1.58362  13
   3  -3  -1 7.02369 1.37397   5
  -3   3   1 4.46064 1.46889  15
   3   3  -1 7.03864 1.00164   6
  -3   3   1 4.77139 1.49119   8
   3   3  -1 4.30024 0.94576   9
   3   3  -1 6.36930 1.33942   1
   3   3  -1 6.03344 1.20722   7
  -3   3   1 6.00409 1.05206   2
   3   3  -1 6.28838 0.75357  10
   1  -3  -1 910.976 16.6664  11
   1  -3  -1 913.547 15.7710  12
   1  -3  -1 910.122 17.2002   5
   1   3  -1 898.276 16.1894   9
  -1   3   1 926.229 15.5878   9
  -1   3   1 922.195 16.2704   6
   1   3  -1 922.841 15.9911   7
  -1   3   1 929.679 16.8609  15
   1   3  -1 909.249 16.4775   1
   1   3  -1 920.505 15.5944   6
  -1   3   1 905.936 15.8207   8
  -1   3   1 893.803 16.2040   2
   1  -3   1 826.369 16.2046   4
   1  -3   1 823.316 15.3261  11
   1  -3   1 826.127 14.8015   5
   1   3   1 811.917 15.1436   6
   1   3   1 836.637 14.4031  10
   1   3   1 837.045 15.5284   7
  -1   3  -1 823.567 16.0580   8
  -1   3  -1 836.774 14.9214   3
  -1   3  -1 837.185 15.8962  15
   1   3   1 836.524 15.4310   1
   1   3   1 841.737 15.0904   9
   3  -3   1 1245.03 22.7481  10
   3  -3   1 1251.24 23.1379   5
  -3  -3  -1 1249.44 28.8386  13
   3  -3   1 1216.00 21.9639  14
  -3  -3  -1 1235.35 23.4091   8
   3  -3   1 1246.10 23.7549   4
   3  -3   1 1292.86 23.2848  11
  -3  -3  -1 1275.89 24.0497  16
   3  -3   1 1250.22 27.3442  13
  -3   3  -1 1279.13 24.0049  16
   3   3   1 1226.57 22.6664   6
  -3   3  -1 1226.56 23.3991   3
   3   3   1 1293.15 23.8848   7
  -3   3  -1 1260.43 24.9061   8
   3   3   1 1247.84 22.4496   9
  -3   3  -1 1236.43 23.7801  15
   3   3   1 1237.60 22.1223  10
   3   3   1 1235.22 23.8153   1
   5  -3   1 222.603 7.66243   4
  -5  -3  -1 233.480 8.00615  16
  -5  -3  -1 214.037 7.07322  15
   5  -3   1 226.937 7.68169  11
  -5  -3  -1 219.689 8.72804   3
  -5  -3  -1 230.279 8.56195   8
  -5   3  -1 212.307 7.93713  15
  -5   3  -1 215.580 8.41200   3
   5   3   1 216.975 8.10959   7
   5   3   1 217.354 6.90802  10
  -5   3  -1 227.010 8.04039  16
  -5   3  -1 217.768 9.37548   8
   5   3   1 223.243 8.15339   1
   7  -3   1 613.602 16.5059  11
  -7  -3  -1 663.027 19.5643   3
   7  -3   1 629.830 17.0565   7
  -7  -3  -1 619.495 18.6463   8
  -7  -3  -1 594.192 16.2346  16
   7  -3   1 644.421 16.3655   4
  -7   3  -1 653.149 20.0302   8
  -7   3  -1 654.944 18.6420   3
   7   3   1 620.078 17.6305   7
   7   3   1 610.475 15.5036  10
  -7   3  -1 586.164 16.3179  16
  -7   3  -1 608.826 16.7990  15
  -9  -3  -1 1.36960 3.64443   8
   9  -3   1 0.72554 2.37701   7
  -9  -3  -1 0.83299 3.31860   3
   9   3   1 -1.2772 2.15855   7
  -9   3  -1 0.70900 3.40168   3
  -9   3  -1 3.65152 4.16157   8
 -10  -4   1 252.722 13.7885   3
  10  -4  -1 249.492 11.6054   7
 -10  -4   1 222.632 13.1672   8
  10  -4  -1 238.609 10.7255  11
 -10   4   1 226.642 11.5534  15
  10   4  -1 234.858 11.5141   7
 -10   4   1 207.582 11.6120   3
 -10   4   1 227.996 13.6085   8
   8  -4  -1 654.633 17.5259  11
  -8  -4   1 667.553 20.5069   8
  -8   4   1 625.589 20.4027   8
   8   4  -1 648.645 18.7925   1
   8   4  -1 670.220 18.7550   7
  -8   4   1 651.415 18.5723   3
  -8   4   1 629.787 18.8582  15
   6  -4  -1 307.269 10.4897   5
  -6  -4   1 306.294 10.1245  15
   6  -4  -1 293.340 8.88116   4
   6  -4  -1 297.645 9.48494  11
  -6  -4   1 289.378 8.96934  16
  -6   4   1 299.011 10.7568  15
  -6   4   1 291.876 9.79527   3
  -6   4   1 306.095 11.4201   8
   6   4  -1 318.259 10.2780   7
   6   4  -1 302.747 8.52275   9
   6   4  -1 299.364 10.4240   1
   4  -4  -1 872.756 18.1941   4
  -4  -4   1 931.063 23.4902  13
   4  -4  -1 902.076 19.2046   5
   4  -4  -1 907.364 18.4778  11
  -4   4   1 877.674 17.5933   3
   4   4  -1 925.975 19.6438   1
   4   4  -1 900.121 15.9987  10
   4   4  -1 911.530 18.6293   7
  -4   4   1 916.238 19.8250  15
   4   4  -1 893.237 17.1170   6
  -4   4   1 908.764 15.7948   9
  -4   4   1 924.553 17.4384   2
  -4   4   1 901.653 19.7569   8
   4   4  -1 930.941 17.8420   9
  -2  -4   1 576.649 14.2508  13
   2  -4  -1 583.468 12.2956  11
   2  -4  -1 562.562 10.6860  12
   2  -4  -1 560.811 12.6093   5
   2   4  -1 567.678 12.3291   1
   2   4  -1 558.087 10.9426   6
  -2   4   1 580.708 12.7927  15
  -2   4   1 573.354 12.0301   8
  -2   4   1 575.976 10.6669   9
   2   4  -1 560.336 11.7016   9
  -2   4   1 575.075 11.7346   2
   2   4  -1 566.095 11.6851   7
   0  -4  -1 -0.1385 0.88286   5
   0  -4   1 1.72296 0.78621   5
   0  -4   1 0.65440 0.99447   4
   0  -4  -1 0.35833 0.74502  12
   0  -4   1 4.87649 1.17400  11
   0   4  -1 1.53305 0.77036   8
   0   4   1 0.84476 0.64701   6
   0   4  -1 1.72259 0.59506   1
   0   4   1 0.30667 0.50157   9
   0   4  -1 1.95635 0.73702   9
   0   4   1 1.93823 0.76123  15
   0   4  -1 1.07137 0.60125   6
   0   4  -1 0.50597 0.39888   3
   2  -4   1 321.685 8.36916  11
   2  -4   1 319.676 8.93861   4
   2  -4   1 329.234 7.97416   5
   2   4   1 336.017 8.62320   1
  -2   4  -1 322.146 8.84892  15
   2   4   1 336.307 8.57324   7
   2   4   1 333.280 7.13700  10
   2   4   1 336.003 8.13331   6
   2   4   1 338.149 8.03204   9
  -2   4  -1 326.394 9.18913   8
  -2   4  -1 328.821 7.84074   3
  -4  -4  -1 1.51434 1.33397   8
   4  -4   1 -0.3728 1.20394  13
   4  -4   1 0.88586 0.92768  14
  -4  -4  -1 0.59055 1.42292  13
  -4  -4  -1 0.17028 1.15062  16
   4  -4   1 10.2184 2.14869  11
   4  -4   1 -0.2718 1.09571   4
   4  -4   1 0.72657 1.11954   5
   4   4   1 0.35788 0.96605   9
   4   4   1 1.04063 0.81810  10
  -4   4  -1 3.58154 2.05028   8
   4   4   1 -0.3769 0.72871   1
  -4   4  -1 3.46869 1.69549  15
   4   4   1 -0.2974 0.98912   7
  -4   4  -1 3.50099 1.67132   3
   4   4   1 3.62788 1.25430   6
  -6  -4  -1 35.3639 4.74207   3
  -6  -4  -1 41.7885 4.88865   8
   6  -4   1 35.1816 3.45899   4
  -6  -4  -1 32.0600 3.61829  16
   6  -4   1 35.7814 3.95718  11
  -6   4  -1 36.1960 4.85885   8
  -6   4  -1 41.0909 4.67312   3
  -6   4  -1 38.5358 4.38850  15
   6   4   1 40.1030 4.50817   1
   6   4   1 42.7807 3.31139  10
   6   4   1 38.4813 4.37593   7
   8  -4   1 96.8480 6.65725  11
   8  -4   1 96.2775 6.91133   7
  -8  -4  -1 102.265 8.39643   3
  -8  -4  -1 76.5257 7.30554   8
  -8   4  -1 96.2821 7.73863   3
  -8   4  -1 85.8436 6.46969  15
  -8   4  -1 91.2969 8.00611   8
   8   4   1 105.238 7.43268   7
 -10  -4  -1 10.5278 4.93541   3
  10  -4   1 14.1539 4.05744   7
 -10   4  -1 12.2281 5.38389   8
 -10   4  -1 -0.6212 3.54475   3
  10   4   1 18.3736 3.97450   7
   9  -5  -1 1.45424 2.15874  11
  -9  -5   1 0.27314 3.70283   8
   9  -5  -1 2.96862 2.70766   7
  -9  -5   1 2.71271 3.12272   3
  -9   5   1 4.99304 4.03107   8
   9   5  -1 1.86567 2.54465   1
   9   5  -1 1.73872 1.70077   7
  -9   5   1 2.65945 3.17308  15
   7  -5  -1 281.950 10.1218  11
  -7  -5   1 261.247 10.6815  15
  -7  -5   1 289.371 12.0409   8
  -7   5   1 260.133 10.1663   3
  -7   5   1 273.511 11.3751  15
   7   5  -1 272.999 11.0776   1
   7   5  -1 270.476 10.3869   7
  -7   5   1 275.488 12.0946   8
   5  -5  -1 259.844 8.52238   4
  -5  -5   1 254.590 12.3987  13
  -5  -5   1 259.288 8.60756  16
   5  -5  -1 254.495 9.00835   5
   5  -5  -1 271.311 8.86540  11
   5   5  -1 269.911 8.92156   7
   5   5  -1 255.849 7.90069   9
  -5   5   1 246.996 9.69239   8
   5   5  -1 274.490 9.66275   1
  -5   5   1 252.593 7.77949   3
   5   5  -1 262.104 7.43563   6
  -5   5   1 265.791 9.81881  15
   3  -5  -1 1957.99 36.1488   4
   3  -5  -1 1994.73 36.3793   5
  -3  -5   1 2024.03 40.0972  13
   3  -5  -1 2035.24 35.9974  11
   3   5  -1 2068.72 35.5365   7
  -3   5   1 1986.82 36.0428   8
  -3   5   1 1981.46 33.2308   9
   3   5  -1 2038.50 36.3976   1
  -3   5   1 1934.73 32.8553   3
   3   5  -1 1968.77 34.0617   6
   3   5  -1 2015.95 35.1854   9
  -3   5   1 2036.40 37.1243  15
   1  -5  -1 649.816 14.5268   5
  -1  -5   1 651.043 13.3484   5
   1  -5  -1 661.963 14.1521  11
  -1  -5   1 651.200 13.5444  11
   1  -5  -1 646.213 12.1979  12
   1   5  -1 662.653 12.9019   6
   1   5  -1 653.370 13.4336   9
  -1   5   1 669.315 12.9151   9
  -1   5   1 659.694 13.5679   6
   1   5  -1 652.206 13.3612   1
  -1   5   1 681.205 14.3694  15
  -1   5   1 657.511 12.8631   8
   1  -5   1 1632.00 29.0220   5
  -1  -5  -1 1683.07 31.1621   5
   1  -5   1 1682.00 31.3595   4
   1  -5   1 1677.24 29.9605  11
  -1  -5  -1 1684.48 29.4470  12
  -1  -5  -1 1656.01 27.9944   3
   1   5   1 1712.52 29.5213   1
   1   5   1 1692.37 27.8193  10
  -1   5  -1 1663.21 27.9933   3
  -1   5  -1 1635.61 30.3946   8
  -1   5  -1 1688.85 29.0731   9
  -1   5  -1 1677.19 30.7853  15
   1   5   1 1654.35 29.5466   6
   1   5   1 1698.35 29.4207   9
   1   5   1 1715.11 29.9706   7
   3  -5   1 33.3387 3.83315  13
   3  -5   1 30.8562 2.61051   5
   3  -5   1 26.7178 3.38907   4
   3  -5   1 31.5470 3.40381  11
  -3  -5  -1 29.5075 2.96171  16
  -3  -5  -1 28.9438 4.08675  13
   3   5   1 29.9308 1.98915  10
  -3   5  -1 29.7774 3.27861  15
  -3   5  -1 30.0875 3.66360   8
  -3   5  -1 31.4821 2.68618   3
   3   5   1 26.9359 2.28551   6
   3   5   1 28.5741 2.57131   7
   3   5   1 33.2657 2.63537   9
   3   5   1 26.6408 2.99090   1
   5  -5   1 273.009 9.50397   4
  -5  -5  -1 272.936 9.66520   8
  -5  -5  -1 266.263 9.68845  16
  -5  -5  -1 268.786 9.98485   3
   5  -5   1 259.372 9.16789  11
  -5   5  -1 267.529 9.49247   3
  -5   5  -1 269.000 9.92953  15
   5   5   1 267.644 9.62390   7
   5   5   1 275.305 7.79028  10
  -5   5  -1 268.679 10.6293   8
   5   5   1 279.841 10.0659   1
   5   5   1 260.696 8.46839   6
  -7  -5  -1 -0.2336 2.58759   3
  -7  -5  -1 1.17353 1.48014  16
  -7  -5  -1 1.53813 2.59179   8
   7  -5   1 1.52834 1.67710  11
   7  -5   1 1.86623 2.14809   4
   7   5   1 3.91309 2.28678   7
  -7   5  -1 1.01986 2.46042   3
  -7   5  -1 2.68344 3.35483   8
  -7   5  -1 2.33666 2.36184  15
   9  -5   1 93.0062 7.38095   7
  -9  -5  -1 99.5201 8.93107   3
   9  -5   1 87.9765 6.91645  11
   9   5   1 105.630 8.12085   7
  -9   5  -1 88.1541 9.60737   8
 -10  -6   1 229.232 13.3109   3
  10  -6  -1 225.187 11.6491   7
  10  -6  -1 240.901 11.1590  11
 -10   6   1 220.108 11.9197  15
 -10   6   1 251.177 13.9158   8
  10   6  -1 227.215 11.6890   7
  -8  -6   1 159.742 10.0130   8
   8  -6  -1 166.357 8.51161  11
  -8   6   1 184.972 10.2777  15
   8   6  -1 155.689 9.13037   1
   8   6  -1 155.759 8.68766   7
  -8   6   1 152.558 10.1215   8
  -6  -6   1 762.569 18.7095  16
   6  -6  -1 747.968 18.2503   4
   6  -6  -1 758.322 18.6966  11
   6  -6  -1 774.016 19.6398   5
   6   6  -1 797.761 19.1927   7
  -6   6   1 747.682 20.3831  15
   6   6  -1 743.599 17.4221   9
  -6   6   1 782.582 20.7692   8
   6   6  -1 763.186 19.8264   1
   6   6  -1 751.798 16.7937   6
   4  -6  -1 263.009 8.95963   4
  -4  -6   1 233.804 11.0779  13
   4  -6  -1 253.042 8.75962  11
   4  -6  -1 261.936 9.07567   5
   4   6  -1 250.631 8.05748   9
   4   6  -1 242.066 8.21027   7
  -4   6   1 240.539 8.95655   8
   4   6  -1 242.533 7.21046   6
  -4   6   1 248.854 9.49972  15
  -4   6   1 275.947 7.76047   9
   4   6  -1 252.665 9.00031   1
  -2  -6   1 170.776 6.11738   5
   2  -6  -1 183.138 6.98698   5
   2  -6  -1 176.871 6.74718  11
  -2   6   1 168.554 5.82655   8
  -2   6   1 175.223 6.13142   6
  -2   6   1 185.376 7.03921  15
   2   6  -1 178.628 6.26580   1
   2   6  -1 180.909 6.19536   9
   2   6  -1 167.937 5.38211   6
  -2   6   1 174.755 5.26326   9
   0  -6   1 378.410 9.93741  11
   0  -6  -1 364.687 8.45112  12
   0  -6   1 399.225 11.4125   4
   0  -6  -1 365.354 10.0966  11
   0  -6  -1 370.932 10.5028   5
   0  -6   1 376.753 9.33146   5
   0   6   1 380.246 9.55926   6
   0   6   1 381.328 9.22850   9
   0   6  -1 387.143 9.15457   6
   0   6  -1 374.943 9.44744   9
   0   6  -1 384.164 9.93521   8
   0   6  -1 365.997 8.22895   1
   2  -6   1 40.3572 3.64070  11
  -2  -6  -1 39.0362 2.60899   3
  -2  -6  -1 44.2795 3.17378  12
   2  -6   1 48.7623 3.12087   5
   2  -6   1 43.4477 3.74998   4
  -2   6  -1 42.8278 2.74750   9
  -2   6  -1 45.2263 3.71636  15
   2   6   1 41.9344 3.25285   7
   2   6   1 46.2710 3.24920   1
  -2   6  -1 41.2025 3.63234   8
   2   6   1 42.5506 3.08293   9
  -2   6  -1 46.8708 2.44130   3
   2   6   1 45.3618 2.99238   6
   2   6   1 40.8593 2.10527  10
   4  -6   1 91.7577 5.39507  11
   4  -6   1 96.9151 4.72929  14
  -4  -6  -1 94.1569 5.69419  16
   4  -6   1 94.4818 5.00060   5
   4  -6   1 99.8359 6.20023   4
  -4  -6  -1 92.1075 5.22415   3
  -4   6  -1 86.0017 4.59423   3
  -4   6  -1 94.8946 5.89003  15
   4   6   1 96.2142 4.93187   9
   4   6   1 92.4327 5.24009   7
   4   6   1 97.7665 4.92640   6
   4   6   1 105.798 5.81347   1
  -4   6  -1 91.9904 6.13634   8
   6  -6   1 33.2704 4.52910   4
  -6  -6  -1 30.6289 4.57549   3
  -6  -6  -1 32.3692 4.14960  16
   6  -6   1 36.3029 4.56074  11
  -6   6  -1 28.0665 4.27594  15
  -6   6  -1 33.4587 5.17242   8
   6   6   1 28.4274 3.62378   6
   6   6   1 25.6248 3.96306   7
  -8  -6  -1 4.21190 3.24237   3
   8  -6   1 -1.6725 2.34129  11
  -8   6  -1 0.74334 3.19434   8
  -8   6  -1 5.54828 2.98667  15
   8   6   1 1.72985 2.54932   7
   9  -7  -1 -3.0902 2.09528  11
  -9  -7   1 5.44872 3.62396   3
   9   7  -1 2.01117 2.91035   1
  -9   7   1 -0.4905 2.79085  15
  -9   7   1 3.25236 3.61544   8
   9   7  -1 -0.0702 2.32339   7
   7  -7  -1 562.290 17.0868   5
   7  -7  -1 566.861 16.3314  11
  -7  -7   1 527.511 17.5804   8
   7   7  -1 551.321 17.4726   1
  -7   7   1 540.377 18.0571   8
   7   7  -1 524.029 16.1631   7
  -7   7   1 540.755 17.7381  15
   7   7  -1 540.764 14.8395   9
   5  -7  -1 43.4400 4.65793   4
   5  -7  -1 36.7382 4.43847  11
  -5  -7   1 40.3911 3.91864  16
   5  -7  -1 41.7127 4.26461   5
   5   7  -1 35.8469 3.05826   6
  -5   7   1 40.1376 4.88794  15
   5   7  -1 44.5437 3.58481   9
   5   7  -1 46.7203 4.98738   1
   5   7  -1 45.0723 3.78295   7
  -5   7   1 44.3710 4.98055   8
  -3  -7   1 418.656 11.9278   5
  -3  -7   1 416.201 14.9577  13
   3  -7  -1 435.694 12.5160   5
   3  -7  -1 436.784 12.4852  11
   3  -7  -1 457.548 13.2949   4
   3   7  -1 433.574 12.0642   1
  -3   7   1 427.763 12.9222  15
  -3   7   1 414.643 9.93295   9
   3   7  -1 428.315 10.6442   6
   3   7  -1 430.169 11.5532   9
  -3   7   1 422.417 11.6744   8
  -3   7   1 439.463 11.7634   6
   3   7  -1 443.784 11.5897   7
   1  -7  -1 11.9984 2.31286  11
   1  -7  -1 14.1054 2.77760   5
  -1  -7   1 15.0657 2.47883  11
  -1  -7   1 12.3725 2.32168   5
   1   7  -1 12.8288 2.17474   9
  -1   7   1 12.8071 1.81943   9
  -1   7   1 12.1067 1.60008   8
   1   7  -1 10.8473 1.70501   6
  -1   7   1 11.1208 2.05686   6
  -1   7   1 12.2505 2.28355  15
   1   7  -1 11.3414 1.81895   1
  -1  -7  -1 698.027 14.8446  12
   1  -7   1 711.851 16.4631  11
   1  -7   1 727.019 18.2207   4
  -1  -7  -1 710.191 17.4162   5
   1  -7   1 691.646 15.3201   5
  -1   7  -1 701.235 15.4758   6
  -1   7  -1 726.941 16.6513   8
  -1   7  -1 725.333 15.5303   9
   1   7   1 723.213 15.9325   6
   1   7   1 724.557 15.7205   9
   3  -7   1 115.934 5.43236   5
   3  -7   1 128.216 6.50167  11
  -3  -7  -1 133.092 6.18158  12
   3  -7   1 129.015 7.22385   4
  -3   7  -1 128.889 6.80062  15
   3   7   1 137.325 5.89827   6
  -3   7  -1 122.900 5.08959   9
   3   7   1 128.534 6.23416   7
  -3   7  -1 124.673 6.74230   8
   3   7   1 134.387 6.25596   1
   3   7   1 131.531 5.80137   9
  -5  -7  -1 783.000 20.7077  16
   5  -7   1 799.846 20.5715   4
  -5  -7  -1 741.596 19.2568   3
   5  -7   1 765.408 19.2248  11
   5   7   1 772.651 18.2963   6
  -5   7  -1 755.448 20.3071  15
  -5   7  -1 757.076 21.1167   8
   5   7   1 789.383 19.9346   7
   5   7   1 769.783 18.2407   9
  -7  -7  -1 66.9002 6.76579   3
   7  -7   1 73.5938 6.30300  11
   7  -7   1 65.5439 6.19342   4
   7   7   1 75.1184 6.44372   7
  -7   7  -1 75.8822 8.29377   8
  -7   7  -1 73.4268 6.17883  15
   9  -7   1 156.787 9.56601   7
  -9  -7  -1 145.596 10.5866   3
   9  -7   1 156.238 9.29942  11
  -9   7  -1 155.188 9.52199  15
   9   7   1 153.824 9.75325   7
  -9   7  -1 156.294 11.2074   8
   8  -8  -1 52.2890 6.32143  11
  -8   8   1 34.7088 5.85114   8
  -8   8   1 44.0113 5.92070  15
   8   8  -1 35.9904 4.87986   7
   8   8  -1 44.7136 6.06127   1
  -6  -8   1 598.236 17.6934  16
   6  -8  -1 646.908 18.3519   5
   6  -8  -1 640.250 17.9132  11
   6  -8  -1 621.480 17.7865   4
   6   8  -1 625.685 18.5557   1
   6   8  -1 634.962 16.6999   9
  -6   8   1 616.556 18.6244   8
  -6   8   1 629.529 19.3239  15
   6   8  -1 661.091 17.9254   7
   6   8  -1 611.537 15.2763   6
   4  -8  -1 337.271 12.1887   4
   4  -8  -1 351.886 11.7614   5
  -4  -8   1 342.897 11.6268   5
   4  -8  -1 332.461 11.6197  11
  -4   8   1 333.256 10.9382   6
   4   8  -1 331.176 10.5370   9
   4   8  -1 338.547 9.74492   6
   4   8  -1 337.018 11.2119   1
  -4   8   1 346.516 12.5372  15
   4   8  -1 338.728 10.8456   7
  -4   8   1 340.112 11.3911   8
  -2  -8   1 738.266 17.3989   5
   2  -8  -1 761.072 18.5514   5
   2  -8  -1 762.569 18.4967  11
   2  -8  -1 794.895 19.9056   4
  -2  -8   1 760.816 17.8367  11
   2   8  -1 738.586 16.3144   6
   2   8  -1 717.842 16.6792   1
  -2   8   1 734.118 17.3005   6
  -2   8   1 749.258 16.1073   9
   2   8  -1 770.076 17.5117   9
  -2   8   1 726.997 16.4501   8
  -2   8   1 758.639 18.8093  15
   0  -8   1 1767.23 33.7749   5
   0  -8   1 1860.24 37.5957   4
   0  -8   1 1850.82 35.2377  11
   0  -8  -1 1885.90 35.9544  11
   0  -8  -1 1853.29 36.3445   5
   0   8   1 1819.48 34.4399   6
   0   8   1 1881.30 34.0704   9
   0   8  -1 1841.25 33.8642   6
   0   8  -1 1869.42 34.4721   9
   2  -8   1 550.002 16.5124   4
   2  -8   1 576.600 15.1720  11
  -2  -8  -1 556.371 15.9134   5
   2  -8   1 527.930 13.7914   5
   2   8   1 562.227 14.1315   9
  -2   8  -1 562.003 13.5465   9
  -2   8  -1 570.998 14.0716   6
  -2   8  -1 549.184 15.0091   8
   2   8   1 542.508 14.0716   6
  -4  -8  -1 1237.56 27.7186  12
   4  -8   1 1329.23 28.3231  11
   4  -8   1 1275.29 29.2439   4
  -4  -8  -1 1253.11 29.6570  16
   4   8   1 1295.07 26.8673   9
   4   8   1 1288.85 26.8438   6
  -4   8  -1 1314.21 29.6174   8
  -4   8  -1 1290.12 29.4573  15
   4   8   1 1301.47 27.9471   7
  -6  -8  -1 587.144 18.6067  12
  -6  -8  -1 565.457 17.9898  16
   6  -8   1 599.596 17.5770  11
   6  -8   1 574.595 17.6348   4
   6   8   1 581.481 17.7526   7
   6   8   1 586.169 15.9875   6
  -6   8  -1 595.044 19.3655   8
  -6   8  -1 546.646 18.0644  15
   8  -8   1 181.315 10.1007  11
  -8  -8  -1 185.274 11.4687  12
  -8   8  -1 174.023 10.2920  15
  -8   8  -1 190.660 11.8357   8
   8   8   1 191.428 10.4202   7
   7  -9  -1 4.91798 2.71726   5
   7  -9  -1 2.13040 2.96591  11
   7   9  -1 9.86749 3.08074   7
   7   9  -1 7.01991 2.89449   9
   7   9  -1 4.68062 2.97030   1
  -7   9   1 2.63602 2.28540  15
  -7   9   1 4.38834 2.91109   8
   5  -9  -1 818.027 21.2610  11
   5  -9  -1 798.547 20.8418   5
   5  -9  -1 809.362 21.9615   4
  -5   9   1 801.255 20.7235   6
   5   9  -1 805.244 20.0055   9
   5   9  -1 802.705 21.0942   1
  -5   9   1 802.573 21.1420   8
   5   9  -1 821.237 20.3876   7
  -5   9   1 826.255 22.8263  15
   3  -9  -1 13.6383 3.49843   4
   3  -9  -1 9.21501 2.79317   5
   3  -9  -1 13.1150 3.47517  11
  -3  -9   1 13.0404 2.88958  11
   3   9  -1 9.24205 2.40051   9
   3   9  -1 14.6293 2.43748   6
   3   9  -1 9.23052 2.30481   1
  -3   9   1 12.6245 2.47908   6
  -3   9   1 14.6550 3.24796  15
  -1  -9   1 2010.26 41.8210   4
   1  -9  -1 1968.17 39.3981   5
   1  -9  -1 2078.78 39.8538  11
  -1  -9   1 2002.59 38.6893  11
   1   9  -1 2034.37 38.2017   9
  -1   9   1 2012.13 38.3124   6
  -1   9   1 2024.76 37.0892   9
   1   9  -1 1971.72 37.1342   6
   1  -9   1 91.0523 6.95326   4
  -1  -9  -1 87.0422 5.82871  11
   1  -9   1 87.0953 5.59944  11
  -1  -9  -1 79.8306 5.93717   5
  -1   9  -1 82.9008 4.95765   6
  -1   9  -1 90.2558 5.12323   9
   1   9   1 84.7503 5.05614   9
   1   9   1 94.8657 5.40522   6
   3  -9   1 919.559 24.4086   4
   3  -9   1 955.886 23.0228  11
  -3  -9  -1 981.268 24.5761   5
   3   9   1 952.350 21.6680   6
   3   9   1 941.273 21.5991   9
  -3   9  -1 1015.02 23.8914   8
  -3   9  -1 934.555 20.5238   9
  -3   9  -1 911.046 21.6139   6
   5  -9   1 372.078 14.5825   4
  -5  -9  -1 344.168 13.9446  16
  -5  -9  -1 366.734 14.9115   5
   5  -9   1 354.897 13.0687  11
   5   9   1 359.434 12.1928   9
  -5   9  -1 377.465 14.5257   8
  -5   9  -1 358.804 14.2571  15
   5   9   1 362.991 13.1880   7
   5   9   1 364.046 12.1107   6
   7  -9   1 286.121 12.5877  11
  -7   9  -1 262.396 13.2777   8
   7   9   1 293.804 12.5653   7
  -7   9  -1 291.142 13.1232  15
   8 -10  -1 10.2910 3.21317  11
   8  10  -1 6.36551 3.03041   7
  -8  10   1 5.05756 3.39095   6
  -8  10   1 12.7114 4.29688  15
  -6 -10   1 114.995 8.89243  11
   6 -10  -1 93.2523 7.24986   4
   6 -10  -1 101.597 8.02601  11
   6  10  -1 87.1237 7.02817   1
  -6  10   1 94.7867 7.12388   6
   6  10  -1 91.5610 6.19354   9
  -6  10   1 94.0758 8.00100  15
   4 -10  -1 7.32238 3.34478  11
  -4 -10   1 2.57924 2.26817  11
   4 -10  -1 4.38211 2.64541   4
   4 -10  -1 2.68328 2.33359   5
  -4  10   1 10.4627 2.58526   6
  -4  10   1 1.17895 2.13704  15
   4  10  -1 6.73020 2.33020   1
   4  10  -1 1.46249 1.98041   9
  -2 -10   1 2.58815 2.37899  11
   2 -10  -1 1.18563 2.65116  11
   2 -10  -1 1.31550 2.32813   5
  -2 -10   1 -1.5576 1.34401   4
   2 -10  -1 -1.0898 2.51353   4
   2  10  -1 2.58866 1.31364   6
   2  10  -1 -0.4648 1.59071   9
  -2  10   1 1.13175 1.42896   9
  -2  10   1 2.03335 1.91359   6
   0 -10  -1 68.9770 5.47359  11
   0 -10   1 62.2982 6.02410   4
   0 -10  -1 68.2595 5.93756   5
   0 -10   1 63.1141 6.03870  11
   0  10  -1 64.2998 4.63593   6
   0  10  -1 63.4670 4.82854   9
   0  10   1 65.4821 5.00399   6
   0  10   1 69.3775 4.80077   9
  -2 -10  -1 75.4023 6.49385   5
  -2 -10  -1 75.8474 6.17840  11
   2 -10   1 82.1283 7.53093   4
   2 -10   1 79.7103 6.37779  11
   2  10   1 75.0627 5.38136   9
  -2  10  -1 77.6946 5.06249   9
  -2  10  -1 84.3735 5.93048   8
  -2  10  -1 74.6886 5.36246   6
   2  10   1 74.8694 5.26013   6
   4 -10   1 22.1930 3.87246  14
  -4 -10  -1 17.4811 3.60747  16
   4 -10   1 26.2983 4.70527   4
   4 -10   1 22.5774 4.54352  11
  -4 -10  -1 21.5134 4.65834   5
  -4  10  -1 16.2200 3.36493   6
  -4  10  -1 29.2544 4.79300   8
   4  10   1 21.7309 3.63716   9
   4  10   1 25.2954 3.79840   6
  -6 -10  -1 3.79310 2.30597   5
   6 -10   1 3.10139 3.36455   4
   6 -10   1 -0.1080 2.09830  11
   6  10   1 -1.4850 2.01888   6
  -6  10  -1 2.47280 3.01195   8
   7 -11  -1 96.4794 8.83485  11
   7  11  -1 93.6144 7.27945   9
  -7  11   1 96.4850 7.62651   6
  -5 -11   1 1.21438 2.82239  11
   5 -11  -1 -3.1660 3.12944  11
   5 -11  -1 -3.0160 3.07863   4
  -5  11   1 0.87429 2.34608   6
  -5  11   1 3.64663 2.77967  15
   5  11  -1 1.37190 1.79669   9
  -3 -11   1 -0.5951 2.68942   4
   3 -11  -1 0.01180 3.06287   4
  -3 -11   1 2.59544 1.83429  11
   3 -11  -1 2.56541 2.42180  11
   3  11  -1 -0.0952 2.02096   9
  -3  11   1 3.50449 2.69477   6
  -1 -11   1 40.4004 6.35792   4
   1 -11  -1 51.4503 6.08020  11
   1 -11  -1 37.9023 5.66964   4
  -1 -11   1 40.9888 5.23896  11
   1  11  -1 30.0474 3.80422   6
   1  11  -1 34.3485 4.31256   9
  -1  11   1 32.2168 3.86619   9
  -1  11   1 33.7080 4.58007   6
   1 -11   1 4.05986 2.49210  11
  -1 -11  -1 1.80933 2.13238  11
   1 -11   1 1.33800 3.48169   4
  -1  11  -1 2.74514 2.06083   9
   1  11   1 2.72537 2.12679   9
   1  11   1 0.70016 1.99686   6
  -1  11  -1 4.28425 2.21506   6
  -3 -11  -1 341.087 13.5101  11
   3 -11   1 345.482 13.4796  11
   3 -11   1 361.416 15.5910   4
   3  11   1 320.850 11.9466   9
   3  11   1 324.692 11.7625   6
  -3  11  -1 323.320 12.2099   6
   5 -11   1 59.4675 7.01732  11
   5 -11   1 52.8152 7.18211   4
  -5 -11  -1 62.1946 7.01555  11
   5  11   1 50.1513 5.12681   6
  -5  11  -1 42.9240 5.06145   6
  -6 -12   1 15.1783 5.21517   4
  -6  12   1 19.0228 4.22760   6
   6  12  -1 17.5150 4.28719   9
  -4 -12   1 196.174 10.9445  11
   4 -12  -1 244.283 11.8133  11
   4 -12  -1 258.766 13.1312   4
  -4 -12   1 266.015 13.4110   4
  -4  12   1 272.265 11.7714   6
   4  12  -1 255.193 11.0249   9
  -2 -12   1 256.601 13.7200   4
   2 -12  -1 241.368 11.4463  11
   2 -12  -1 245.766 12.8479   4
  -2 -12   1 243.372 11.1762  11
  -2  12   1 243.775 10.7695   6
   2  12  -1 247.080 10.6667   9
   0 -12   1 70.5982 7.28945  11
   0 -12  -1 82.2957 9.14068   4
   0 -12  -1 69.5688 7.41670  11
   0 -12   1 77.6188 8.70421   4
   0  12   1 74.5664 6.04371   6
   0  12  -1 65.8344 5.72309   9
   0  12  -1 76.4149 5.69979   6
   0  12   1 71.4248 5.53258   9
   2 -12   1 487.862 16.2518  11
   2 -12   1 507.739 19.2115   4
  -2 -12  -1 501.360 17.2040  11
  -2  12  -1 472.546 15.3908   6
   2  12   1 465.167 15.1045   6
   2  12   1 462.544 14.9327   9
   4 -12   1 73.7696 7.28511  11
   4 -12   1 83.6628 7.94416   4
  -4 -12  -1 63.1262 7.36098  11
  -4  12  -1 61.8488 6.50173   6
   4  12   1 77.1032 6.47953   9
   3 -13  -1 586.382 19.6678  11
  -3 -13   1 597.261 22.1517   4
   3 -13  -1 572.176 21.0166   4
  -3  13   1 596.383 18.4799   6
   3  13  -1 557.372 17.4525   9
   1 -13  -1 -2.0614 2.19387  11
  -1 -13   1 4.80836 3.98791   4
   1 -13  -1 -0.0754 3.58131   4
  -1 -13   1 1.89363 3.32975  11
  -1  13   1 0.27032 2.44360   6
   1  13  -1 4.57972 2.74913   9
   1 -13   1 285.142 12.8037  11
   1 -13   1 296.917 14.6420   4
  -1 -13  -1 293.977 13.3820  11
  -1 -13  -1 316.224 15.6587   4
  -1  13  -1 237.020 12.1101   9
   1  13   1 298.997 11.5520   9
   3 -13   1 20.0127 4.14023  11
  -3 -13  -1 28.4780 6.38940   4
  -3 -13  -1 22.7286 5.03763  11
   3 -13   1 24.3225 4.38678  14
   3 -13   1 25.9535 5.46555   4
  -3  13  -1 18.1277 3.93519   6
   3  13   1 23.7363 4.58751   9
  10   0  -2 356.180 14.3154   1
 -10   0   2 441.646 15.9018  15
  10   0  -2 492.063 16.5494   7
 -10   0   2 464.961 18.2070   8
 -10   0   2 483.543 17.8168   3
  -8   0   2 21.2316 3.95733  15
   8   0  -2 18.4922 2.98740   1
  -8   0   2 17.3636 4.25960   8
   8   0  -2 20.1049 3.51182   7
  -6   0   2 3400.41 58.7709  15
  -6   0   2 3391.86 53.6899  16
  -6   0   2 3414.41 60.1986   8
   6   0  -2 3303.61 55.5178  11
   6   0  -2 3346.50 57.0581   7
   6   0  -2 3197.04 69.4096  13
   6   0  -2 3288.66 56.9752   1
  -4   0   2 1302.43 22.7979   2
   4   0  -2 1343.96 28.2910  13
  -4   0   2 1316.25 20.9118  16
   4   0  -2 1275.97 23.8232   5
   4   0  -2 1297.41 22.2773  11
   4   0  -2 1312.90 21.1931   9
   4   0  -2 1296.23 23.7586   1
  -4   0   2 1285.00 24.6759  15
   2   0  -2 9655.94 162.935  12
  -2   0   2 9999.99 161.199   2
   2   0  -2 9512.14 159.845   5
  -2   0   2 9835.69 159.174  14
   0   0  -2 2083.92 33.5617   8
   0   0  -2 2031.65 33.9581  12
   0   0   2 2069.12 33.4209  10
   0   0  -2 2062.53 34.0680   3
   0   0   2 2131.47 33.9251  14
   0   0  -2 2158.21 36.9356  16
   0   0   2 2115.46 33.8853   4
   0   0   2 1990.92 34.4821   2
  -2   0  -2 4083.19 72.2240  16
  -2   0  -2 3950.88 64.6824   3
   2   0   2 3877.52 66.5751   7
  -2   0  -2 4002.85 68.2910  13
   2   0   2 3918.46 68.1538   4
  -2   0  -2 3842.49 65.4228  15
  -2   0  -2 3965.99 64.2995   8
   2   0   2 3853.72 66.7891  14
   2   0   2 3908.97 63.3047  10
  -4   0  -2 2187.70 37.6554  15
   4   0   2 2180.47 36.7683  14
  -4   0  -2 2249.20 39.9598  16
   4   0   2 2233.26 39.4310   7
  -4   0  -2 2182.55 46.3425  13
   4   0   2 2246.62 39.1360  10
  -4   0  -2 2284.57 41.2370   8
  -4   0  -2 2240.68 41.1333   3
   4   0   2 2301.23 39.9376   4
   6   0   2 1953.08 37.6770   4
  -6   0  -2 1973.36 40.2137   3
   6   0   2 1953.83 37.0896  10
   6   0   2 1948.19 38.0578   7
  -6   0  -2 1989.11 40.1808   8
  -6   0  -2 1978.63 38.1645  16
   8   0   2 355.674 13.4352   7
  -8   0  -2 378.762 15.7056   8
  -8   0  -2 335.909 14.8512   3
 -10   0  -2 951.303 28.9865   8
  10   0   2 952.280 26.8191   7
 -10   0  -2 931.351 28.6673   3
  11  -1  -2 188.719 10.7758   7
 -11  -1   2 200.367 12.5979   3
 -11  -1   2 197.175 13.3115   8
  11   1  -2 200.156 10.7627   7
 -11   1   2 196.705 13.4531   8
 -11   1   2 195.685 12.4701   3
  -9  -1   2 1.57644 3.41606   8
  -9  -1   2 4.19861 2.92577  15
   9  -1  -2 0.10331 2.00472   7
  -9   1   2 -0.8593 3.15372   8
   9   1  -2 1.91839 1.95673   7
   9   1  -2 1.07152 1.42305   1
  -9   1   2 1.05157 2.76100  15
  -7  -1   2 409.778 14.0514   8
  -7  -1   2 398.467 12.6992  15
   7  -1  -2 391.873 10.5889  11
   7  -1  -2 410.676 11.7681   7
   7  -1  -2 395.773 10.9170   1
   7   1  -2 397.471 11.7711   7
   7   1  -2 403.127 11.9119   1
  -7   1   2 394.665 12.8368  15
  -7   1   2 409.276 13.9477   8
  -5  -1   2 178.897 6.92403  15
  -5  -1   2 155.023 3.73353  14
   5  -1  -2 175.399 5.28960  11
   5  -1  -2 168.849 8.77215  13
  -5  -1   2 175.540 4.31264  16
   5  -1  -2 164.110 3.93877   4
   5  -1  -2 164.951 6.23889   5
  -5  -1   2 170.660 5.22119   2
   5  -1  -2 170.976 5.58696   1
   5   1  -2 175.256 4.41901   9
  -5   1   2 175.301 6.96039  15
   5   1  -2 170.173 6.20110   1
   5   1  -2 171.815 5.79475   7
   5   1  -2 176.276 8.74956  13
  -5   1   2 179.854 7.24475   8
  -5   1   2 169.694 5.06683   2
   3  -1  -2 362.608 8.15965  12
   3  -1  -2 362.563 7.38365  11
   3  -1  -2 370.637 6.48024  16
  -3  -1   2 351.509 7.90389   2
  -3  -1   2 366.146 7.38956  14
   3  -1  -2 368.089 7.86895   1
   3  -1  -2 363.557 8.50551   5
   3   1  -2 366.056 7.06742   9
   3   1  -2 366.422 10.1492  13
   3   1  -2 362.412 7.60597   7
   3   1  -2 365.084 8.50046   1
  -3   1   2 362.742 6.85144  14
  -3   1   2 366.723 7.84507   2
  -3   1   2 365.065 8.89127  15
  -1  -1   2 4215.06 72.0094  16
  -1  -1   2 4270.53 72.9952  14
   1  -1  -2 4337.10 73.0482  16
   1  -1  -2 4238.77 72.0056   3
   1  -1  -2 4199.47 75.7035   5
  -1  -1   2 4305.68 70.9815   4
   1  -1  -2 4060.02 71.8424  12
  -1   1   2 4241.66 71.1374   6
  -1   1   2 4244.29 71.8780  15
  -1   1   2 4380.44 74.6108  14
   1   1  -2 4217.50 72.9206  12
   1   1  -2 4143.80 74.0166   3
  -1   1   2 4276.36 72.0249   2
   1   1  -2 4325.38 74.4083  16
  -1  -1  -2 412.919 9.09077  16
   1  -1   2 411.686 8.43984  14
  -1  -1  -2 406.253 8.96892   3
   1  -1   2 416.491 8.33171  10
   1  -1   2 401.068 8.14779  11
   1  -1   2 414.578 8.96039   4
  -1  -1  -2 418.078 9.18136  12
  -1  -1  -2 401.551 8.22777   8
   1  -1   2 427.327 10.1734  13
   1   1   2 405.382 8.83889   4
  -1   1  -2 408.329 9.10246   8
  -1   1  -2 421.269 9.14122  16
  -1   1  -2 402.833 9.02021   3
   1   1   2 406.251 8.28559   6
   1   1   2 411.287 8.36748   7
   1   1   2 396.211 8.35695  14
  -1   1  -2 417.715 10.1929  13
  -1   1  -2 426.097 8.58247  12
   1   1   2 398.256 7.26081   2
  -1   1  -2 398.741 7.93467  15
   1   1   2 410.430 8.32773  10
  -3  -1  -2 538.341 12.3825  16
   3  -1   2 528.210 15.4917  13
  -3  -1  -2 521.808 12.3298   8
  -3  -1  -2 539.876 16.3237  13
   3  -1   2 508.875 11.3921  11
   3  -1   2 520.072 11.5168  10
  -3  -1  -2 520.275 12.7206   3
   3  -1   2 517.824 10.4113  14
   3  -1   2 521.973 12.0104   4
   3  -1   2 522.798 11.3534   7
  -3  -1  -2 506.682 9.88012  15
   3   1   2 511.162 11.9245   4
  -3   1  -2 519.193 15.4723  13
  -3   1  -2 541.013 13.0678   8
   3   1   2 508.614 11.3420  10
  -3   1  -2 530.163 12.3679  16
  -3   1  -2 530.664 12.8289   3
   3   1   2 506.366 10.5293  14
   3   1   2 516.924 11.7128   7
  -3   1  -2 530.523 10.9856  15
   3   1   2 504.504 11.2284   6
   5  -1   2 613.040 15.3718   4
  -5  -1  -2 649.301 16.0068  16
   5  -1   2 670.142 15.7486   7
   5  -1   2 644.873 15.2814  11
  -5  -1  -2 649.878 16.9601   8
  -5  -1  -2 642.964 17.0981   3
   5  -1   2 673.812 15.4843  10
  -5   1  -2 676.992 17.5664   8
  -5   1  -2 628.671 14.4202  15
   5   1   2 655.383 15.8779   7
   5   1   2 634.364 15.0149  10
  -5   1  -2 679.212 17.4632   3
  -5   1  -2 644.960 15.9676  16
   7  -1   2 15.5218 3.16765   7
   7  -1   2 19.2803 3.11539   4
  -7  -1  -2 18.0517 4.41003   8
  -7  -1  -2 16.7702 3.03462  16
  -7  -1  -2 18.9879 4.25751   3
   7   1   2 14.5164 3.16779   7
   7   1   2 17.4081 3.22714  10
  -7   1  -2 13.3416 2.92761  16
  -7   1  -2 26.8455 5.33936   8
  -7   1  -2 22.9864 4.29608   3
  -9  -1  -2 294.844 14.6494   8
  -9  -1  -2 317.960 15.4910   3
   9  -1   2 299.958 12.9860   7
  -9   1  -2 302.956 14.7978   3
  -9   1  -2 290.761 14.8394   8
   9   1   2 292.923 12.8909   7
 -10  -2   2 7.63232 4.47039   8
  10  -2  -2 6.10533 2.53778   7
 -10   2   2 10.5849 5.24944   8
  10   2  -2 5.51315 2.81462   1
 -10   2   2 12.1601 4.01779  15
 -10   2   2 5.01419 3.35350   3
  10   2  -2 6.04713 2.74449   7
   8  -2  -2 596.914 15.2688  11
   8  -2  -2 595.634 16.3769   7
  -8  -2   2 620.717 19.4485   8
  -8  -2   2 598.698 17.3012  15
   8   2  -2 620.869 16.9496   1
  -8   2   2 566.069 18.4752   8
   8   2  -2 592.740 16.4980   7
  -8   2   2 576.504 17.4156  15
   6  -2  -2 473.275 11.0978   1
  -6  -2   2 468.958 10.9662   2
   6  -2  -2 489.598 11.6838  11
   6  -2  -2 481.310 13.1507   5
  -6  -2   2 495.898 10.4206  16
  -6  -2   2 494.310 13.6900  15
   6   2  -2 483.410 10.3528   9
  -6   2   2 462.421 10.4360   2
   6   2  -2 443.669 18.9419  13
   6   2  -2 501.572 13.3181   1
   6   2  -2 486.303 12.4388   7
  -6   2   2 510.484 14.6082   8
  -6   2   2 485.818 13.8109  15
   4  -2  -2 1257.75 21.5948   4
   4  -2  -2 1298.49 22.3412   1
  -4  -2   2 1281.79 21.8416  16
  -4  -2   2 1255.12 22.9421   2
   4  -2  -2 1238.98 24.0661   5
   4  -2  -2 1241.51 22.6546  11
  -4  -2   2 1278.73 27.2384  13
   4   2  -2 1300.22 27.4430  13
   4   2  -2 1259.14 24.1371   1
   4   2  -2 1319.62 22.1761   9
  -4   2   2 1276.91 24.5488   8
   4   2  -2 1293.49 23.0796   7
  -4   2   2 1257.43 22.5018   2
  -4   2   2 1270.42 24.6176  15
   2  -2  -2 603.825 11.4471  11
  -2  -2   2 629.737 12.4306  13
   2  -2  -2 599.962 12.4891   5
   2  -2  -2 587.831 11.7060  12
  -2  -2   2 606.092 11.4415   4
  -2   2   2 624.033 12.4098  15
  -2   2   2 618.856 11.3784  14
   2   2  -2 615.563 12.3246   1
  -2   2   2 605.187 11.6520   2
   2   2  -2 628.694 12.4743  13
   2   2  -2 599.644 11.2204   9
   2   2  -2 614.856 10.9760   7
  -2   2   2 601.747 11.5771   8
   0  -2   2 6035.40 101.463  11
   0  -2  -2 6139.71 104.795  16
   0  -2  -2 6070.09 102.158   3
   0  -2   2 6277.16 104.528  13
   0  -2  -2 6076.99 104.811  12
   0  -2   2 6091.39 103.375  14
   0  -2   2 6111.98 106.934   4
   0  -2   2 6217.07 101.272  10
   0   2  -2 6037.57 104.726   3
   0   2  -2 6124.34 101.702  12
   0   2  -2 6246.37 109.284  16
   0   2  -2 6056.04 106.721   8
   0   2   2 6004.66 102.757   2
   0   2   2 6149.21 107.051  14
   0   2   2 6171.56 103.934   7
   0   2   2 5970.97 103.155   6
  -2  -2  -2 1932.84 33.2125   8
   2  -2   2 1974.32 33.3595  11
   2  -2   2 1939.45 32.9661  14
  -2  -2  -2 1958.82 39.1570  13
   2  -2   2 1932.93 33.2115  10
   2  -2   2 1989.05 36.8668  13
   2  -2   2 2009.52 34.4618   4
  -2  -2  -2 1992.93 34.5675  16
  -2  -2  -2 1957.22 34.3433   3
  -2   2  -2 1928.75 33.3666  15
   2   2   2 1928.50 33.2089  14
   2   2   2 1957.96 33.8555   7
   2   2   2 1964.41 33.1275  10
   2   2   2 1971.78 33.4033   6
  -2   2  -2 2038.08 34.6755  16
  -2   2  -2 1969.83 34.9779   8
  -2   2  -2 1955.01 34.3981   3
  -4  -2  -2 1857.81 34.2053  16
  -4  -2  -2 1844.39 34.1771   8
   4  -2   2 1788.20 33.7341   4
   4  -2   2 1822.37 33.1955  11
   4  -2   2 1837.62 33.1386  10
   4  -2   2 1772.21 39.0010  13
   4  -2   2 1740.78 30.7326  14
  -4  -2  -2 1833.71 41.2973  13
  -4  -2  -2 1890.49 35.2226   3
  -4   2  -2 1808.69 34.1019  16
   4   2   2 1863.65 33.9367   7
   4   2   2 1882.39 32.9452  10
   4   2   2 1835.86 32.8144   6
  -4   2  -2 1861.80 34.9337   3
  -4   2  -2 1786.89 32.8680  15
  -4   2  -2 1816.94 35.5564   8
   6  -2   2 427.134 12.4783  10
   6  -2   2 433.891 12.6178  11
   6  -2   2 420.732 12.6706   7
   6  -2   2 437.642 12.8633   4
  -6  -2  -2 422.971 13.8633   8
  -6  -2  -2 427.927 13.0311  16
  -6  -2  -2 442.826 14.6905   3
  -6   2  -2 433.172 14.9661   8
   6   2   2 435.685 13.2696   7
  -6   2  -2 409.665 11.9217  15
  -6   2  -2 446.531 14.5281   3
  -6   2  -2 418.456 13.0583  16
   6   2   2 431.586 12.2059  10
  -8  -2  -2 86.7272 8.32751   3
   8  -2   2 75.9894 6.45409   7
  -8  -2  -2 87.5742 7.89875   8
   8   2   2 95.0304 7.12338   7
  -8   2  -2 87.8620 8.08579   3
  -8   2  -2 96.8510 8.79173   8
 -10  -2  -2 4.36230 4.35770   3
  10  -2   2 0.83403 1.91502   7
 -10  -2  -2 2.28679 4.23719   8
 -10   2  -2 -0.8736 4.03841   3
  10   2   2 4.18818 2.70350   7
 -10   2  -2 -2.5239 3.85828   8
 -11  -3   2 78.1332 9.60934   8
  11  -3  -2 90.5307 7.99238   7
 -11  -3   2 93.7795 9.92524   3
  11   3  -2 94.6421 7.89497   7
 -11   3   2 94.6473 10.4247   8
 -11   3   2 73.0738 7.61351  15
 -11   3   2 88.6363 8.48169   3
   9  -3  -2 23.4073 3.47377  11
  -9  -3   2 15.0188 3.94922  15
   9  -3  -2 21.3522 3.86852   7
  -9  -3   2 18.8175 4.98706   8
  -9   3   2 35.9519 6.11905   8
  -9   3   2 12.8040 4.00061  15
   9   3  -2 25.0400 4.21781   1
  -9   3   2 18.8793 4.27545   3
   9   3  -2 20.5515 3.84595   7
   7  -3  -2 249.438 9.74760   5
  -7  -3   2 265.261 10.3060  15
   7  -3  -2 272.073 8.89030  11
   7   3  -2 257.693 9.83171   1
  -7   3   2 267.397 10.7829  15
  -7   3   2 259.653 10.8233   8
   7   3  -2 271.364 9.43891   7
  -5  -3   2 246.075 6.63362  16
   5  -3  -2 236.665 5.93864   1
   5  -3  -2 240.874 7.22828  11
   5  -3  -2 231.741 6.43795   4
   5  -3  -2 242.989 8.25438   5
   5  -3  -2 235.105 11.1531  13
  -5  -3   2 257.970 10.9298  13
   5   3  -2 247.117 8.38466   1
   5   3  -2 246.834 7.57346   7
  -5   3   2 250.934 8.76143   8
  -5   3   2 231.264 8.60212  15
  -5   3   2 235.912 6.65421   2
   5   3  -2 239.225 10.4665  13
   5   3  -2 243.389 6.63607   9
   3  -3  -2 2.09960 0.83176  12
   3  -3  -2 5.14389 1.31528  11
   3  -3  -2 8.21551 1.75928   5
  -3  -3   2 3.69658 1.23703  13
   3  -3  -2 3.19523 0.59515   1
   3   3  -2 3.43086 1.13567   1
   3   3  -2 3.76244 0.62151   6
   3   3  -2 3.78890 0.81943   9
  -3   3   2 2.66877 1.09456  15
  -3   3   2 3.95973 1.07097   2
  -3   3   2 2.72542 1.10011   8
   3   3  -2 2.64572 0.78943   7
   1  -3  -2 2855.28 48.0842   5
  -1  -3   2 2860.22 45.9478  11
  -1  -3   2 2920.58 51.2228  13
  -1  -3   2 2852.42 47.5127   4
   1  -3  -2 2849.87 46.8384  12
   1   3  -2 2852.13 46.9324   1
   1   3  -2 2866.12 46.5063   9
  -1   3   2 2859.77 46.7930  15
  -1   3   2 2856.94 46.6860   2
  -1   3   2 2894.02 45.6517   9
  -1   3   2 2879.13 46.7525   6
   1   3  -2 2845.41 46.5309   3
   1   3  -2 2914.78 48.1634   6
   1  -3   2 575.841 12.4663   4
  -1  -3  -2 543.077 11.2118   3
   1  -3   2 557.599 11.2172  11
   1  -3   2 541.868 11.6737  14
  -1  -3  -2 562.642 12.4063  16
   1  -3   2 543.236 10.6252  10
  -1  -3  -2 544.214 12.0456  12
  -1  -3  -2 547.427 10.2958   8
   1  -3   2 572.073 12.4993  13
  -1   3  -2 545.307 11.6859  15
  -1   3  -2 552.059 12.4038   8
   1   3   2 556.440 10.8302  10
  -1   3  -2 563.920 12.4253  16
  -1   3  -2 534.952 9.98160  12
   1   3   2 548.506 11.4888   7
   1   3   2 545.197 11.3233   6
   1   3   2 550.757 10.9103   9
  -1   3  -2 558.923 11.5967   3
   3  -3   2 4.58204 1.84479   4
   3  -3   2 5.00961 1.29613  10
   3  -3   2 7.09239 1.35247  14
  -3  -3  -2 5.64469 1.64525   8
   3  -3   2 8.68729 1.56096  11
  -3  -3  -2 2.77590 1.54947   3
  -3  -3  -2 4.56876 1.88579  13
  -3  -3  -2 3.99238 1.23228  16
   3  -3   2 7.91247 2.17010  13
  -3  -3  -2 5.36427 0.98160  15
  -3   3  -2 5.62664 1.83402   3
  -3   3  -2 7.67455 1.86993  16
   3   3   2 4.02990 1.38447   7
  -3   3  -2 6.49182 1.60705  15
   3   3   2 7.08413 1.38274   6
   3   3   2 4.94914 1.25229  10
  -3   3  -2 3.94453 1.94972   8
  -5  -3  -2 1.60494 2.02931   3
   5  -3   2 4.62406 2.03331   4
  -5  -3  -2 2.67777 1.66075  16
  -5  -3  -2 0.34601 1.72914   8
   5  -3   2 4.00829 1.43904  10
   5  -3   2 3.53069 1.85000  11
  -5   3  -2 2.78712 2.52101   8
  -5   3  -2 2.02664 1.65675  16
  -5   3  -2 1.07018 1.40135  15
   5   3   2 -2.0579 0.88188  10
   5   3   2 2.24926 1.47746   7
  -5   3  -2 3.21871 2.22716   3
   7  -3   2 249.145 9.87663  11
   7  -3   2 242.805 9.82456   4
  -7  -3  -2 244.152 11.1267   8
  -7  -3  -2 240.902 11.5808   3
  -7  -3  -2 237.082 10.0476  16
   7  -3   2 251.515 9.95856   7
   7   3   2 247.639 10.4437   7
  -7   3  -2 229.776 9.39468  15
   7   3   2 230.950 9.09565  10
  -7   3  -2 250.406 11.4044   3
  -7   3  -2 246.261 12.2712   8
  -7   3  -2 234.350 10.0050  16
  -9  -3  -2 4.31217 4.12150   3
   9  -3   2 2.64316 1.94374   7
   9   3   2 1.64505 2.87264   7
  -9   3  -2 3.34204 4.16973   3
  -9   3  -2 1.49209 4.10067   8
  10  -4  -2 108.385 7.14316  11
 -10  -4   2 99.4576 9.72495   8
  10  -4  -2 111.176 8.12434   7
 -10   4   2 94.9622 8.13187  15
  10   4  -2 107.480 7.90486   7
 -10   4   2 98.8986 8.08541   3
 -10   4   2 97.3979 9.45860   8
  10   4  -2 92.6947 7.68579   1
  -8  -4   2 1734.43 38.6675   8
   8  -4  -2 1719.36 34.1596  11
  -8  -4   2 1664.98 35.8971  15
   8   4  -2 1687.95 36.2990   1
  -8   4   2 1674.68 37.9102   8
  -8   4   2 1703.25 35.5127   3
   8   4  -2 1696.90 35.4009   7
  -8   4   2 1727.19 37.0306  15
   6  -4  -2 7.97795 2.30680   5
  -6  -4   2 13.2258 1.96656  16
  -6  -4   2 4.20531 1.58318   2
   6  -4  -2 5.16118 1.93998  11
  -6  -4   2 5.49363 2.63445  13
   6   4  -2 6.97665 2.22666   1
   6   4  -2 5.05389 1.64939   7
  -6   4   2 4.41216 1.32127   2
  -6   4   2 3.12498 2.33821   8
   6   4  -2 4.48472 1.30730   9
  -6   4   2 6.40097 2.47106  15
  -4  -4   2 6631.66 114.033  13
   4  -4  -2 6649.86 115.764   4
   4  -4  -2 6811.25 109.447  11
   4  -4  -2 6830.11 111.008   5
  -4   4   2 6794.36 110.591   8
   4   4  -2 6941.95 109.317   7
   4   4  -2 6819.07 110.986   1
  -4   4   2 7043.70 111.625  15
   4   4  -2 6671.73 107.173   6
  -4   4   2 7010.66 113.736   2
   4   4  -2 6834.71 112.923   9
   2  -4  -2 53.7260 3.05373  11
  -2  -4   2 54.9814 3.11453  13
   2  -4  -2 53.2966 2.59876  12
  -2  -4   2 56.5773 2.53222  11
   2  -4  -2 54.3198 3.66003   5
  -2   4   2 59.8453 2.99535   2
  -2   4   2 57.1143 2.12164   9
   2   4  -2 58.0961 2.53465   7
  -2   4   2 57.8601 2.66505   8
   2   4  -2 56.1023 2.80481   9
  -2   4   2 51.6471 3.18262  15
   2   4  -2 49.2505 2.83218   1
   2   4  -2 58.0970 2.13027   6
  -2   4   2 57.1402 2.85699   6
   0  -4   2 3692.51 62.3790   5
   0  -4   2 3858.19 63.3453   4
   0  -4  -2 3824.06 62.0401  12
   0  -4  -2 3737.11 59.8949   3
   0  -4   2 3848.18 61.4860  11
   0  -4  -2 3809.10 63.6327   5
   0   4  -2 3855.18 61.2549   3
   0   4   2 3858.78 61.0810   9
   0   4  -2 3746.67 62.6535   8
   0   4   2 3857.32 61.5164   2
   0   4   2 3863.18 61.9338   6
   0   4  -2 3768.30 61.0041   1
   0   4   2 3716.02 61.0026  15
  -2  -4  -2 620.565 13.5583   3
   2  -4   2 632.054 14.6984   4
   2  -4   2 634.651 12.7976   5
   2  -4   2 638.609 15.8728  13
   2  -4   2 630.081 13.7058  14
  -2  -4  -2 651.450 14.9641  16
   2  -4   2 636.624 12.8999  10
   2  -4   2 620.407 13.4686  11
  -2  -4  -2 605.043 12.3591   8
  -2  -4  -2 630.715 14.5281  12
  -2   4  -2 630.596 14.1876  15
  -2   4  -2 638.982 14.8473  16
  -2   4  -2 623.564 13.7013   3
   2   4   2 627.831 13.4832   6
   2   4   2 629.412 12.6838  10
  -2   4  -2 629.005 14.9888   8
  -2   4  -2 616.626 11.7390  12
   2   4   2 668.190 14.1618   7
   2   4   2 635.703 13.1329   9
   4  -4   2 681.812 14.8156  14
  -4  -4  -2 761.892 17.9728  16
  -4  -4  -2 714.670 16.4131   8
  -4  -4  -2 724.422 17.6491   3
   4  -4   2 716.640 21.1005  13
   4  -4   2 729.294 16.5772  11
   4  -4   2 740.245 17.6170   4
  -4   4  -2 746.137 17.8967  16
  -4   4  -2 733.351 17.3055   3
   4   4   2 752.276 15.6967  10
  -4   4  -2 759.674 19.0185   8
   4   4   2 750.659 16.3404   6
  -4   4  -2 715.786 16.9735  15
   4   4   2 742.329 17.3247   7
   6  -4   2 130.967 6.90578  11
  -6  -4  -2 143.162 8.36307   3
   6  -4   2 128.740 7.11090   4
  -6  -4  -2 123.925 7.00963  16
  -6  -4  -2 131.908 7.34330   8
  -6   4  -2 134.355 8.51728   8
  -6   4  -2 119.487 6.93584  16
  -6   4  -2 128.926 7.71866   3
   6   4   2 125.919 6.86649   7
   6   4   2 115.726 5.78237  10
  -6   4  -2 129.460 6.85021  15
   8  -4   2 401.029 14.5021   7
   8  -4   2 407.275 14.3213  11
  -8  -4  -2 419.749 16.9045   3
  -8   4  -2 412.413 15.9170   3
  -8   4  -2 405.479 17.1442   8
   8   4   2 413.479 15.1726   7
  11  -5  -2 69.7612 6.13869  11
  11  -5  -2 67.1165 7.35165   7
 -11  -5   2 59.2556 8.36846   8
 -11   5   2 67.9931 7.76835  15
  11   5  -2 60.8389 7.06766   7
 -11   5   2 59.0061 8.45922   8
  -9  -5   2 703.092 23.0374   8
   9  -5  -2 724.783 19.4291  11
  -9   5   2 707.619 21.5511  15
   9   5  -2 702.643 20.9288   1
   9   5  -2 702.497 20.1360   7
  -9   5   2 690.778 22.6081   8
   7  -5  -2 483.448 13.5219  11
   7  -5  -2 463.115 14.6812   5
  -7  -5   2 469.786 14.8047  15
   7   5  -2 474.864 12.2857   9
  -7   5   2 467.311 15.3474  15
  -7   5   2 474.999 13.4289   3
   7   5  -2 481.008 13.9758   7
  -7   5   2 456.987 15.5212   8
   7   5  -2 469.612 15.0459   1
  -5  -5   2 962.386 25.5625  13
   5  -5  -2 974.737 20.3414   4
   5  -5  -2 1007.25 21.0518  11
   5  -5  -2 977.460 22.0571   5
   5   5  -2 1002.20 20.9344   7
   5   5  -2 982.278 18.7651   6
  -5   5   2 988.478 22.2780   8
   5   5  -2 1021.89 20.3010   9
  -5   5   2 1002.01 19.9725   2
  -5   5   2 1018.71 22.9087  15
   5   5  -2 1033.79 22.6996   1
   3  -5  -2 2403.74 43.6263   5
  -3  -5   2 2457.53 45.1877  13
   3  -5  -2 2383.71 40.7296  12
   3  -5  -2 2486.28 42.7081  11
   3   5  -2 2420.39 41.8439   9
  -3   5   2 2453.65 41.8669   2
  -3   5   2 2409.18 39.5062   9
   3   5  -2 2384.39 40.0451   6
   3   5  -2 2466.39 41.5855   7
  -3   5   2 2453.80 43.6152  15
  -3   5   2 2451.31 42.1063   8
   3   5  -2 2462.65 43.1922   1
  -1  -5   2 89.3847 3.75578  11
   1  -5  -2 92.7944 3.66703  12
   1  -5  -2 99.8346 4.99600   5
  -1  -5   2 95.4036 4.61738   4
  -1  -5   2 94.2995 3.22703   5
   1  -5  -2 99.0665 4.40906  11
   1   5  -2 94.8275 3.85453   1
   1   5  -2 102.497 3.37705   6
   1   5  -2 95.7250 3.96267   9
  -1   5   2 89.6478 2.73454   8
  -1   5   2 93.3621 3.86256   2
  -1   5   2 97.9956 3.45677   9
  -1   5   2 90.1779 4.03427  15
  -1   5   2 106.743 4.26535   6
   1  -5   2 1295.95 22.7663   5
  -1  -5  -2 1322.74 26.3167   5
   1  -5   2 1340.84 26.0767   4
  -1  -5  -2 1275.14 22.8263   3
   1  -5   2 1289.01 24.2111  11
  -1  -5  -2 1301.92 24.7847  12
   1   5   2 1342.42 24.6472   7
   1   5   2 1317.71 24.4251   6
  -1   5  -2 1308.78 25.6583   8
  -1   5  -2 1246.01 22.3154   1
  -1   5  -2 1297.02 23.4816   3
   1   5   2 1325.67 22.9908  10
   1   5   2 1314.87 23.7741   9
   3  -5   2 111.330 4.96936  14
  -3  -5  -2 124.072 6.02791  12
   3  -5   2 113.966 5.36738  11
  -3  -5  -2 88.0270 4.94760   8
   3  -5   2 114.875 5.87612   4
   3  -5   2 112.394 6.74745  13
  -3  -5  -2 116.799 5.98168  16
  -3  -5  -2 111.402 5.24242   3
  -3   5  -2 118.246 5.54310   3
   3   5   2 120.718 5.22443   6
  -3   5  -2 113.159 5.64923  15
  -3   5  -2 116.015 6.30229   8
   3   5   2 119.419 4.44921  10
   3   5   2 115.579 5.37035   7
   3   5   2 116.819 4.93163   9
  -5  -5  -2 17.1621 3.13945  16
   5  -5   2 20.9895 3.39374  11
  -5  -5  -2 18.4830 3.37238   3
   5  -5   2 18.8065 3.20089   4
  -5   5  -2 25.1709 3.65028   3
   5   5   2 23.1265 3.04814   6
   5   5   2 16.8296 2.37905  10
  -5   5  -2 22.0346 4.28425   8
  -5   5  -2 24.7087 3.64254  15
   5   5   2 23.4310 3.49952   7
  -7  -5  -2 169.092 10.0749   3
   7  -5   2 168.028 8.45732   7
   7  -5   2 163.517 8.59562  11
   7  -5   2 178.644 8.93572   4
  -7  -5  -2 158.207 8.72429  16
  -7   5  -2 162.542 8.56550  15
  -7   5  -2 169.714 9.38065   3
   7   5   2 166.908 7.37637  10
   7   5   2 166.058 8.99234   7
  -7   5  -2 192.307 11.2280   8
  -9  -5  -2 14.1928 4.70802  12
  -9  -5  -2 4.06157 4.11380   3
   9  -5   2 6.33325 2.75780   7
  -9   5  -2 4.03174 4.04880   8
  -9   5  -2 5.95575 4.04115   3
   9   5   2 4.29258 3.13567   7
  10  -6  -2 462.516 15.6234  11
 -10  -6   2 452.188 18.6632   8
  10   6  -2 442.668 16.7639   1
 -10   6   2 451.344 17.6666  15
  10   6  -2 459.284 16.5223   7
 -10   6   2 443.451 18.6011   8
   8  -6  -2 191.772 9.98497   5
  -8  -6   2 203.488 11.2228   8
   8  -6  -2 196.039 9.00474  11
  -8   6   2 200.356 10.6569  15
  -8   6   2 202.566 10.9287   8
   8   6  -2 196.601 9.29587   7
   8   6  -2 200.242 10.3067   1
  -6  -6   2 783.348 18.5677  16
   6  -6  -2 791.371 18.3761   4
   6  -6  -2 804.063 19.1956  11
   6  -6  -2 797.801 20.1927   5
   6   6  -2 812.751 19.1477   7
   6   6  -2 814.531 18.2011   9
  -6   6   2 798.616 20.9846  15
   6   6  -2 784.047 20.4052   1
  -6   6   2 819.857 20.7358   8
  -4  -6   2 455.019 15.0482  13
   4  -6  -2 446.870 12.3074   4
   4  -6  -2 466.870 12.5827  11
   4  -6  -2 479.073 13.3669   5
  -4   6   2 450.682 13.2449  15
   4   6  -2 456.567 11.6324   7
   4   6  -2 455.752 12.8890   1
   4   6  -2 445.781 10.1468   6
  -4   6   2 453.629 11.4926   2
  -4   6   2 441.016 12.1849   8
   4   6  -2 451.754 11.6066   9
   2  -6  -2 2173.50 37.0900  12
   2  -6  -2 2201.87 40.6806   5
  -2  -6   2 2207.99 38.2243  11
   2  -6  -2 2230.18 39.6035  11
  -2  -6   2 2227.51 40.7860  13
  -2  -6   2 2131.48 37.4020   5
  -2   6   2 2177.62 36.8820   9
   2   6  -2 2183.41 36.9302   6
   2   6  -2 2196.99 38.6093   9
   2   6  -2 2209.92 38.9313   1
  -2   6   2 2193.84 38.7747   6
  -2   6   2 2195.31 39.7437  15
   0  -6   2 36.0101 3.94056   4
   0  -6   2 29.0514 2.07261   5
   0  -6  -2 28.9623 2.46758  12
   0  -6   2 33.5474 3.16514  11
   0  -6  -2 34.0088 3.25901   5
   0   6  -2 29.9447 3.19173   8
   0   6  -2 37.0145 2.58254   9
   0   6  -2 30.0447 2.17564   6
   0   6   2 30.8870 2.53044   6
   0   6   2 28.8635 2.33427   9
   0   6  -2 32.8245 2.08343   1
   0   6  -2 30.3839 2.02996   3
   2  -6   2 3451.86 59.6266   4
   2  -6   2 3354.77 57.1069  11
   2  -6   2 3303.01 60.1375  13
  -2  -6  -2 3192.23 55.4385   3
  -2  -6  -2 3300.86 57.6807  12
   2   6   2 3385.10 55.0025  10
   2   6   2 3370.18 56.3965   9
  -2   6  -2 3360.93 58.5022  15
  -2   6  -2 3258.33 55.5936   3
   2   6   2 3365.23 57.0477   6
   2   6   2 3342.76 57.5006   7
  -2   6  -2 3371.96 59.0907   8
  -2   6  -2 3351.92 56.0054   9
  -4  -6  -2 5.53575 2.29837  12
   4  -6   2 0.40404 1.23424  14
   4  -6   2 2.79863 1.96260  11
   4  -6   2 2.96031 2.50696   4
  -4  -6  -2 1.87582 1.67101  16
  -4  -6  -2 1.99675 1.81615   3
   4   6   2 2.34587 1.26150   6
   4   6   2 1.54860 1.18000   7
  -4   6  -2 1.09380 1.55505  15
  -4   6  -2 2.24242 2.29976   8
  -4   6  -2 0.84999 1.59774   3
   4   6   2 1.88892 1.08126  10
  -6  -6  -2 1127.07 27.1470   3
   6  -6   2 1123.73 26.3923   4
   6  -6   2 1110.51 25.6817  11
  -6  -6  -2 1106.93 26.8483  16
  -6   6  -2 1124.22 28.7310   8
  -6   6  -2 1127.44 26.6069  15
   6   6   2 1107.88 24.7471   6
   6   6   2 1102.68 26.4308   7
   8  -6   2 31.5678 4.59257  11
  -8  -6  -2 31.1854 5.78044   3
   8  -6   2 25.4841 4.13136   7
  -8  -6  -2 28.5398 6.16174  12
   8   6   2 31.3370 4.94872   7
  -8   6  -2 28.6469 6.23606   8
   9  -7  -2 67.4832 6.19344  11
  -9  -7   2 54.4643 8.38674   8
  -9   7   2 87.2422 7.96463  15
  -9   7   2 78.5440 7.82477   8
   9   7  -2 83.6740 7.75671   1
   9   7  -2 72.2025 6.45089   7
   7  -7  -2 4.42942 2.76666  11
   7  -7  -2 2.48606 2.50539   5
   7   7  -2 0.08295 2.06952   1
  -7   7   2 6.38239 2.93160   8
   7   7  -2 5.70789 2.35595   7
   7   7  -2 0.76836 1.71913   9
  -7   7   2 5.89485 3.34052  15
   5  -7  -2 11.5538 2.98516   5
   5  -7  -2 14.6166 3.05728  11
   5  -7  -2 16.1033 3.02214   4
   5   7  -2 10.7406 1.94721   6
   5   7  -2 13.5386 2.83406   1
  -5   7   2 7.63087 2.33378  15
  -5   7   2 9.59243 2.93496   8
   5   7  -2 10.6958 2.12013   7
   5   7  -2 11.8219 2.38784   9
  -3  -7   2 190.668 6.81852  11
   3  -7  -2 191.568 8.09726   4
   3  -7  -2 206.105 8.10711  11
  -3  -7   2 185.638 6.65551   5
   3  -7  -2 180.627 8.09879   5
  -3   7   2 193.872 7.97996  15
   3   7  -2 196.733 7.14596   9
   3   7  -2 192.673 7.49128   1
   3   7  -2 199.139 6.01946   6
  -3   7   2 185.033 5.56686   9
  -3   7   2 190.545 6.67414   8
  -3   7   2 183.062 7.10749   6
  -1  -7   2 1.17344 1.85803   4
   1  -7  -2 2.98319 1.27452  12
   1  -7  -2 4.19946 1.62610  11
  -1  -7   2 -0.1523 1.41780  11
   1  -7  -2 3.18997 2.10732   5
   1   7  -2 0.76829 0.94093   1
  -1   7   2 2.75210 1.12737   9
  -1   7   2 1.92323 1.53346   6
   1   7  -2 1.59530 1.06574   9
  -1   7   2 0.77908 1.18986  15
   1   7  -2 1.77257 0.95202   6
   1  -7   2 602.376 14.5500  11
  -1  -7  -2 596.382 16.1878   5
   1  -7   2 599.798 16.3341   4
  -1  -7  -2 579.821 13.9001  12
  -1   7  -2 572.718 15.1249   8
   1   7   2 591.054 13.6260   9
   1   7   2 598.017 12.2816  10
  -1   7  -2 597.292 13.5897   6
  -1   7  -2 563.080 13.5268   9
   1   7   2 603.740 14.4025   6
  -3  -7  -2 212.628 8.57228  12
   3  -7   2 208.182 8.34677  11
   3  -7   2 217.870 9.59075   4
   3  -7   2 193.448 7.93142  14
  -3  -7  -2 208.207 9.17510  16
   3   7   2 228.957 8.20170   6
  -3   7  -2 207.037 7.18088   9
  -3   7  -2 221.574 9.12541  15
   3   7   2 212.259 7.70900   9
   3   7   2 228.870 8.70707   7
  -3   7  -2 226.458 9.60762   8
  -5  -7  -2 222.454 10.2298  16
  -5  -7  -2 196.990 9.06943   3
   5  -7   2 226.065 9.21610  11
  -5  -7  -2 196.887 9.93190  12
   5  -7   2 193.737 9.81326   4
  -5   7  -2 194.114 10.3433   8
   5   7   2 228.790 9.74255   7
   5   7   2 219.751 8.72851   6
  -5   7  -2 204.238 9.65396  15
  -7  -7  -2 362.501 14.5724   3
   7  -7   2 363.871 13.5248  11
  -7  -7  -2 366.281 15.6108  12
   7   7   2 366.756 14.2277   7
  -7   7  -2 378.452 14.3205  15
  -7   7  -2 350.802 15.6001   8
   8  -8  -2 11.8530 3.69287  11
   8  -8  -2 6.22013 3.11226   5
   8   8  -2 2.37690 1.72134   7
   8   8  -2 4.04430 1.91144   9
   8   8  -2 2.18764 2.66254   1
  -8   8   2 2.41161 3.41422   8
  -8   8   2 7.00584 3.46051  15
   6  -8  -2 773.861 20.3444  11
   6  -8  -2 804.338 21.3247   5
   6  -8  -2 757.232 19.7922   4
   6   8  -2 781.182 21.0872   1
   6   8  -2 777.804 19.5316   7
  -6   8   2 762.266 21.9094  15
   6   8  -2 753.857 18.9705   9
   4  -8  -2 58.3756 5.24918   5
   4  -8  -2 55.1314 5.02867   4
  -4  -8   2 51.9738 4.02563  11
   4  -8  -2 58.5086 5.31296  11
   4   8  -2 55.0208 4.32212   9
  -4   8   2 46.1663 4.11852   8
   4   8  -2 54.3953 4.63838   1
  -4   8   2 49.6849 4.50903  15
  -4   8   2 56.8207 4.54103   6
   4   8  -2 55.4508 3.84897   6
   2  -8  -2 968.412 22.8191   5
  -2  -8   2 976.744 20.7846  11
   2  -8  -2 941.753 21.9550  11
  -2  -8   2 946.018 23.1144   4
  -2   8   2 946.948 21.0913   6
   2   8  -2 965.324 20.4366   1
   2   8  -2 921.091 20.6662   9
  -2   8   2 960.831 19.1854   9
   2   8  -2 925.226 19.0944   6
  -2   8   2 1000.53 22.2328  15
   0  -8   2 18.5168 3.10434  11
   0  -8   2 17.1079 3.29515   4
   0  -8  -2 18.5783 3.05750  11
   0  -8  -2 23.7142 3.89703   5
   0   8  -2 22.4170 2.68494   6
   0   8  -2 18.1518 2.69335   9
   0   8   2 17.3711 2.45677   9
   0   8   2 22.0677 3.00611   6
  -2  -8  -2 190.919 7.68198  12
   2  -8   2 209.634 9.72010   4
  -2  -8  -2 199.502 9.55075   5
   2  -8   2 192.551 7.92178  11
  -2   8  -2 193.817 8.64663   8
   2   8   2 190.511 7.26323   9
  -2   8  -2 203.474 7.43254   9
   2   8   2 192.435 7.72532   6
   4  -8   2 2.22885 2.42460  14
  -4  -8  -2 1.74858 2.12220  12
   4  -8   2 1.12806 1.84626  11
   4  -8   2 2.22498 3.15570   4
  -4  -8  -2 1.44489 1.72206  16
  -4   8  -2 4.45432 2.46876  15
  -4   8  -2 1.68131 1.56507   9
   4   8   2 4.14714 1.88896   7
  -4   8  -2 5.20505 2.67168   8
   4   8   2 3.34900 2.06619   6
  -6  -8  -2 22.6695 4.87316  12
   6  -8   2 45.1073 6.07889   4
  -6  -8  -2 24.7131 5.04265  16
   6  -8   2 36.4400 5.34015  11
   6   8   2 32.9740 5.07940   7
   6   8   2 38.5070 4.77915   6
  -6   8  -2 26.9657 5.07031   8
  -6   8  -2 37.8885 5.45772  15
   8  -8   2 26.7000 5.06325  11
   8  -8   2 14.9873 3.95180   7
  -8  -8  -2 32.7701 6.43828  12
   8   8   2 27.9187 4.56550   7
  -8   8  -2 21.3350 4.37123  15
   9  -9  -2 3.39872 2.96324  11
  -9   9   2 1.35035 3.18495  15
   9   9  -2 1.97220 2.51798   7
   9   9  -2 0.29572 2.96327   1
   7  -9  -2 18.2337 4.12351   5
   7  -9  -2 12.2819 3.82293  11
   7   9  -2 5.88882 2.56151   9
  -7   9   2 11.1558 2.91818   6
   7   9  -2 9.93953 2.56585   7
  -7   9   2 9.97706 3.87578  15
   7   9  -2 12.5254 3.74803   1
  -5  -9   2 5.52408 2.27970  11
   5  -9  -2 7.17853 3.15757   5
   5  -9  -2 9.63134 3.48716  11
   5  -9  -2 11.3335 3.35519   4
  -5   9   2 15.2334 3.32245   6
   5   9  -2 6.26612 2.51699   1
   5   9  -2 7.18087 2.34247   9
  -5   9   2 8.91150 3.00438  15
   3  -9  -2 -0.6059 2.27859  11
  -3  -9   2 2.98321 1.92942  11
   3  -9  -2 0.90741 2.44415   5
  -3  -9   2 0.59234 2.11207   4
   3  -9  -2 4.24193 2.48918   4
  -3   9   2 2.28849 1.86016  15
   3   9  -2 2.48528 1.74185   9
   3   9  -2 0.37394 1.47624   1
  -3   9   2 -0.5149 1.57573   6
   1  -9  -2 133.696 7.32401  11
  -1  -9   2 139.788 8.02884   4
   1  -9  -2 128.696 7.65712   5
  -1  -9   2 140.953 6.88102  11
   1   9  -2 128.531 5.56365   6
  -1   9   2 123.795 5.61581   9
   1   9  -2 127.926 6.22318   9
  -1   9   2 122.664 6.38280   6
   1  -9   2 9.55701 2.88356  11
  -1  -9  -2 7.73611 2.64616  11
   1  -9   2 7.06084 3.22751   4
  -1  -9  -2 3.36498 2.69677   5
  -1   9  -2 9.45494 2.22120   6
   1   9   2 10.6236 2.47666   6
   1   9   2 10.4244 2.22747   9
  -1   9  -2 7.50709 2.09308   9
  -1   9  -2 9.65840 2.76753   8
   3  -9   2 116.909 7.32221  11
  -3  -9  -2 117.875 8.41064   5
   3  -9   2 124.312 7.25649  14
   3  -9   2 124.263 8.75553   4
  -3  -9  -2 108.911 7.57557  16
  -3   9  -2 108.030 5.77798   9
  -3   9  -2 116.094 7.46801   8
   3   9   2 121.013 6.47514   9
   3   9   2 108.919 6.12021   6
  -5  -9  -2 112.028 9.05123   5
   5  -9   2 115.660 8.89360   4
  -5  -9  -2 101.113 7.73275  12
  -5  -9  -2 93.7188 8.21063  16
   5  -9   2 107.808 7.63212  11
   5   9   2 96.5083 7.20778   7
  -5   9  -2 114.901 8.56531   8
   5   9   2 100.098 6.65027   6
   7  -9   2 14.9900 4.20904  11
  -7  -9  -2 11.3681 4.31280  12
  -7   9  -2 13.9313 3.91874   8
   7   9   2 9.27136 3.50751   7
   8 -10  -2 134.586 9.24866   5
   8 -10  -2 155.407 9.04607  11
   8  10  -2 153.009 9.94555   1
  -8  10   2 140.735 9.09338   6
   8  10  -2 151.991 8.57136   9
   8  10  -2 146.837 8.64641   7
  -8  10   2 150.916 9.89070  15
   6 -10  -2 36.5539 4.94959   5
   6 -10  -2 49.0611 6.13403  11
  -6  10   2 35.6162 5.69455  15
  -6  10   2 37.9208 5.29630   6
   6  10  -2 25.7558 4.29873   1
   6  10  -2 34.8575 4.63945   9
   4 -10  -2 361.511 14.1312   4
  -4 -10   2 348.643 11.8790  11
   4 -10  -2 338.678 13.0864   5
   4 -10  -2 345.411 13.2228  11
  -4 -10   2 338.741 14.1237   4
  -4  10   2 349.989 12.3857   6
   4  10  -2 354.017 12.2905   9
  -4  10   2 389.092 14.3624  15
   4  10  -2 324.931 11.9252   1
  -2 -10   2 58.9181 6.87824   4
   2 -10  -2 41.7024 6.01248   4
   2 -10  -2 41.5385 5.17129  11
  -2 -10   2 43.2056 4.73020  11
   2 -10  -2 41.3764 5.30426   5
   2  10  -2 57.2665 4.81466   9
  -2  10   2 43.6771 3.55974   9
  -2  10   2 40.9108 4.66247   6
   0 -10   2 901.972 21.6007  11
   0 -10  -2 869.148 22.5725  11
   0 -10   2 911.146 24.8381   4
   0  10  -2 889.377 20.1950   6
   0  10  -2 876.864 20.9421   9
   0  10   2 889.458 21.5489   6
   0  10   2 885.534 20.1473   9
   2 -10   2 60.1807 7.20287   4
   2 -10   2 78.7414 7.13307  11
  -2 -10  -2 64.3711 6.51420   5
  -2 -10  -2 49.4981 5.79900  11
  -2  10  -2 57.9852 5.62440   8
  -2  10  -2 53.6000 4.34689   6
   2  10   2 60.2767 5.07217   6
   2  10   2 58.4541 4.85614   9
  -2  10  -2 48.8338 4.31418   9
   4 -10   2 1021.14 27.4808   4
  -4 -10  -2 982.822 27.7423   5
   4 -10   2 1026.48 25.5471  11
  -4  10  -2 1022.41 26.8905   8
  -4  10  -2 1023.56 24.7023   6
   4  10   2 1037.75 24.5457   6
   6 -10   2 69.3123 7.12721  11
   6 -10   2 80.7804 8.19104   4
  -6 -10  -2 62.5149 8.13054   5
   6  10   2 65.4032 5.92368   6
  -6  10  -2 72.3083 6.97409   8
   7 -11  -2 173.016 10.3667  11
   7  11  -2 174.346 10.2058   1
  -7  11   2 176.245 11.0879  15
   7  11  -2 160.320 9.04021   9
   5 -11  -2 211.766 10.8717   4
   5 -11  -2 236.688 11.8077  11
  -5 -11   2 216.873 11.7413   4
  -5  11   2 205.249 10.2815   6
  -5  11   2 246.005 12.1392  15
   5  11  -2 225.371 10.3137   9
  -3 -11   2 206.087 9.15916  11
   3 -11  -2 201.352 10.7565   4
   3 -11  -2 189.598 10.3548  11
  -3 -11   2 211.023 11.7662   4
   3 -11  -2 196.934 10.1000   5
   3  11  -2 200.923 9.39692   9
  -3  11   2 202.012 9.74779   6
   1 -11  -2 372.687 14.1740   5
   1 -11  -2 358.930 13.8829  11
  -1 -11   2 378.343 15.7116   4
   1 -11  -2 376.644 15.6553   4
  -1 -11   2 370.264 12.9460  11
  -1  11   2 359.872 11.2591   9
   1  11  -2 359.601 12.4669   9
  -1  11   2 373.906 13.0982   6
   1 -11   2 163.819 10.7268   4
   1 -11   2 167.462 8.95191  11
  -1 -11  -2 154.174 9.64310   5
  -1 -11  -2 152.464 8.66118  11
  -1  11  -2 156.859 7.75239   6
  -1  11  -2 153.185 7.75734   9
   1  11   2 162.031 8.40830   6
   1  11   2 159.278 7.63447   9
   3 -11   2 240.036 10.8079  11
   3 -11   2 226.535 12.1232   4
   3 -11   2 248.927 11.5398  14
  -3 -11  -2 252.147 12.7329   5
  -3 -11  -2 243.436 11.3820  11
  -3  11  -2 235.430 10.2267   6
   3  11   2 223.566 9.90884   9
  -3  11  -2 244.337 11.5546   8
   3  11   2 219.882 9.82126   6
   5 -11   2 121.080 10.0989   4
  -5 -11  -2 118.019 9.79523   5
   5 -11   2 124.927 8.05533  11
  -5  11  -2 117.033 7.43523   6
  -5  11  -2 120.913 8.85268   8
   6 -12  -2 315.577 14.2646  11
   6  12  -2 320.662 12.5667   9
  -6  12   2 323.002 13.4901   6
  -4 -12   2 7.27054 3.90932   4
   4 -12  -2 11.9667 4.40577   4
   4 -12  -2 8.85411 3.34824  11
   4  12  -2 11.6005 2.97923   9
  -4  12   2 10.0645 3.75304   6
   2 -12  -2 367.506 16.2078   4
  -2 -12   2 359.211 15.7765   4
   2 -12  -2 356.473 14.0860  11
  -2 -12   2 342.621 13.0059  11
   2  12  -2 349.180 13.0843   9
  -2  12   2 358.670 13.3190   6
   0 -12  -2 -0.0982 2.89577  11
   0 -12   2 -2.7252 2.54314  11
   0 -12   2 -0.8589 3.57633   4
   0  12   2 1.75163 2.15040   6
   0  12  -2 -0.1780 2.04327   9
   0  12   2 3.42038 2.20881   9
   2 -12   2 141.846 10.0395   4
  -2 -12  -2 135.030 9.23911  11
   2 -12   2 129.578 8.89754  14
   2 -12   2 130.779 8.08924  11
  -2  12  -2 88.5527 7.39143   9
   2  12   2 138.212 7.90322   9
   2  12   2 149.151 8.41875   6
  -4 -12  -2 2.97261 2.40247  11
   4 -12   2 3.66678 4.45651   4
   4 -12   2 3.21659 3.56021  11
   4  12   2 2.06075 2.70587   6
  -4  12  -2 0.87947 2.50293   6
   3 -13  -2 44.0564 6.58738   4
  -3 -13   2 37.5234 7.03211   4
   3 -13  -2 37.8252 6.52463  11
  -3  13   2 38.8678 5.40984   6
   3  13  -2 42.4498 5.72659   9
   1 -13  -2 58.1061 7.71634   4
  -1 -13   2 57.0431 6.52685  11
   1 -13  -2 60.3791 7.02303  11
  -1 -13   2 50.5730 7.24769   4
  -1  13   2 45.3020 5.40167   6
   1  13  -2 51.6896 5.71404   9
   1 -13   2 24.2677 5.06255  11
  -1 -13  -2 26.8745 5.95553   4
  -1 -13  -2 32.4950 6.03296  11
   1 -13   2 24.6695 6.65466   4
   1  13   2 20.8263 3.74493   6
   1  13   2 18.0984 3.77877   9
  -1  13  -2 14.9413 3.49809   9
 -12   0   3 -2.7914 2.52516   3
 -12   0   3 11.7496 5.84798   8
  12   0  -3 3.62143 3.21147   7
 -10   0   3 -0.7303 2.91367  15
  10   0  -3 1.55232 2.20957   7
  10   0  -3 -0.1900 1.74278   1
 -10   0   3 3.07952 3.86495   8
   8   0  -3 1.26556 1.49752   1
   8   0  -3 2.61907 1.74400   7
  -8   0   3 2.27144 2.79698   8
  -8   0   3 2.68170 2.10514  15
   6   0  -3 1.76742 1.67756  13
  -6   0   3 0.59970 1.30034   2
   6   0  -3 0.24690 0.89092  11
   6   0  -3 1.34559 1.06715   7
   6   0  -3 0.03302 1.00768   1
  -6   0   3 3.26746 2.26342  15
  -4   0   3 0.48693 1.19730  15
  -4   0   3 0.95270 0.58000  14
  -4   0   3 0.58767 0.81296   2
   4   0  -3 9.68435 1.43043   5
   2   0  -3 1.21584 0.66918   3
   2   0  -3 2.61715 0.94442   5
   2   0  -3 1.92383 0.52365  16
   2   0  -3 1.69712 0.84649  12
   0   0  -3 0.12486 0.68346  16
   0   0   3 2.71395 0.47844   7
   0   0  -3 1.00704 0.59340   8
   0   0  -3 0.61299 0.83587   3
   0   0   3 1.63680 0.53618   6
   0   0   3 1.10658 0.82389   2
   0   0   3 0.91106 0.89059  14
   0   0   3 0.88869 0.78781   4
   0   0   3 0.55805 0.54631  10
   0   0  -3 0.36514 0.81623  12
  -2   0  -3 2.48334 1.45564   3
  -2   0  -3 1.00590 1.16042   8
   2   0   3 -0.0170 0.71179  14
   2   0   3 2.27922 0.82071  10
  -2   0  -3 0.35309 1.00845  13
   2   0   3 0.77929 0.81902   4
  -2   0  -3 0.64276 1.12070  16
   4   0   3 1.26709 0.75480  14
   4   0   3 0.39492 1.29605   4
  -4   0  -3 0.24348 1.78434   8
   4   0   3 -0.2688 1.19870  10
  -4   0  -3 4.01948 1.76918   3
   4   0   3 -0.6587 0.87042   7
  -4   0  -3 1.10482 1.40703  13
  -4   0  -3 1.89571 1.30780  16
   6   0   3 3.41112 1.94023  10
  -6   0  -3 8.22885 3.29192   8
   6   0   3 8.79064 2.45593   7
  -6   0  -3 1.73684 2.52642   3
   6   0   3 4.25979 1.94801   4
  -6   0  -3 -2.0394 1.75294  16
  -8   0  -3 -3.3035 3.17858   8
   8   0   3 -0.4327 2.04445   7
  -8   0  -3 -0.4234 2.53666   3
  11  -1  -3 6.31482 3.22191   7
 -11  -1   3 2.07570 3.95917   8
 -11  -1   3 -0.5085 3.12322  15
 -11   1   3 0.11259 3.48175  15
 -11   1   3 8.14712 5.18459   8
  11   1  -3 0.56942 1.80586   7
  11   1  -3 -2.4026 1.91590   1
 -11   1   3 -4.2812 2.67478   3
  -9  -1   3 308.266 14.0027   8
   9  -1  -3 288.040 10.2059   1
   9  -1  -3 303.734 11.6527   7
  -9  -1   3 316.953 13.0383  15
   9   1  -3 310.646 11.4393   1
  -9   1   3 300.405 13.5181   8
  -9   1   3 309.429 13.0380  15
   9   1  -3 303.073 11.6055   7
   7  -1  -3 338.738 9.20443  11
   7  -1  -3 339.853 10.2131   7
  -7  -1   3 330.896 11.5395  15
   7  -1  -3 330.555 9.87555   1
  -7  -1   3 342.478 9.34865   2
  -7   1   3 338.194 12.4084   8
  -7   1   3 339.168 11.8612  15
   7   1  -3 345.314 10.3972   7
  -7   1   3 318.830 8.68982   2
   7   1  -3 326.991 10.6907   1
   5  -1  -3 302.338 8.59905   5
   5  -1  -3 274.625 6.76484  11
  -5  -1   3 268.460 8.96168  15
   5  -1  -3 306.192 11.7133  13
  -5  -1   3 261.370 6.16472  14
  -5  -1   3 267.924 7.56730   2
   5  -1  -3 269.170 7.65271   1
   5   1  -3 268.172 6.00818   9
   5   1  -3 272.154 8.36885   1
  -5   1   3 263.030 5.54762  14
   5   1  -3 279.420 10.9965  13
   5   1  -3 268.301 7.32679   7
  -5   1   3 275.559 9.09939  15
  -5   1   3 261.522 7.30504   2
   3  -1  -3 3179.61 53.4617  16
   3  -1  -3 3234.89 53.2211  12
  -3  -1   3 3211.65 52.3676  16
  -3  -1   3 3301.50 52.4910  14
   3  -1  -3 3206.01 53.1855  11
   3  -1  -3 3234.99 53.4158   5
  -3  -1   3 3307.46 53.1427   2
  -3   1   3 3242.49 54.2149  14
   3   1  -3 3199.55 61.2275  13
   3   1  -3 3227.04 51.4862   7
   3   1  -3 3228.53 52.9724  12
   3   1  -3 3284.78 53.1720   9
  -3   1   3 3249.60 53.8834  15
   3   1  -3 3290.62 53.6629   1
   3   1  -3 3137.09 52.1224   5
  -3   1   3 3284.03 52.8916   2
   1  -1  -3 10.8938 1.54269   5
   1  -1  -3 8.59221 1.20621   3
  -1  -1   3 8.81894 1.29525  14
  -1  -1   3 12.2418 1.37625   2
   1  -1  -3 10.1490 1.49560  12
   1  -1  -3 9.22561 1.15118  16
  -1  -1   3 9.55514 1.32234   4
  -1  -1   3 9.18740 0.94404  10
  -1   1   3 7.83397 1.06868   4
  -1   1   3 15.2509 1.28708  15
  -1   1   3 8.74771 1.19619  14
   1   1  -3 9.42457 1.25800  12
   1   1  -3 7.23860 1.24542   3
  -1   1   3 9.76824 1.29497   2
  -1   1   3 9.39069 0.97927   6
  -1  -1  -3 1896.29 33.6618  12
   1  -1   3 1896.72 32.7361  14
  -1  -1  -3 1970.95 33.7118  16
  -1  -1  -3 1914.53 33.5163   3
   1  -1   3 1888.09 33.3273   4
   1  -1   3 1888.97 31.3192   2
   1  -1   3 1936.57 32.1194  11
   1  -1   3 1916.27 32.3836  10
   1  -1   3 1924.02 31.5562   7
  -1  -1  -3 1907.00 32.1947   8
   1   1   3 1949.01 32.3524   6
  -1   1  -3 1980.32 35.5320  13
  -1   1  -3 1899.44 33.6302   3
   1   1   3 1899.16 32.7297  14
   1   1   3 1927.82 32.5290  10
  -1   1  -3 1965.34 33.7795  16
  -1   1  -3 1941.45 33.4338   8
  -1   1  -3 1893.02 32.9245  12
   1   1   3 1906.81 31.0022   2
   1   1   3 1942.58 32.2796   7
   1   1   3 1881.45 33.2818   4
  -3  -1  -3 408.486 11.1792  16
   3  -1   3 422.790 10.3098  10
   3  -1   3 407.728 9.96283   7
   3  -1   3 403.853 10.1709  11
   3  -1   3 399.774 10.8569   4
  -3  -1  -3 423.330 10.9856   8
  -3  -1  -3 421.740 11.7400   3
   3  -1   3 396.061 9.32538  14
  -3  -1  -3 401.704 14.6415  13
   3   1   3 405.996 9.54401  14
   3   1   3 406.307 10.9684   4
   3   1   3 407.626 10.2247  10
  -3   1  -3 410.653 14.1067  13
  -3   1  -3 399.466 9.04002  15
  -3   1  -3 402.716 11.4655   8
  -3   1  -3 423.956 11.4121  16
  -3   1  -3 404.267 11.5187   3
   3   1   3 404.700 10.2448   7
  -5  -1  -3 87.5232 5.68949  16
  -5  -1  -3 93.7275 6.16016   3
  -5  -1  -3 91.1971 6.10994   8
   5  -1   3 91.3348 4.96783   7
   5  -1   3 93.8377 5.29601  10
   5  -1   3 82.5101 5.31114   4
   5   1   3 84.8535 4.79976  10
   5   1   3 93.6907 5.35882   7
  -5   1  -3 85.0802 6.25259   8
  -5   1  -3 95.5409 6.58367   3
  -5   1  -3 79.7403 5.24878  16
  -7  -1  -3 337.272 12.9115  16
   7  -1   3 359.913 12.8720   7
   7  -1   3 369.148 13.0536   4
   7  -1   3 354.355 12.4645  10
  -7  -1  -3 348.854 14.6319   3
  -7  -1  -3 357.347 14.3148   8
   7   1   3 386.547 12.6146  10
   7   1   3 355.603 13.0135   7
  -7   1  -3 379.048 14.5152   3
  -7   1  -3 332.222 12.5723  16
  -7   1  -3 387.165 15.2572   8
  -9  -1  -3 -3.1768 3.49721   3
  -9  -1  -3 4.60806 2.98615  12
  -9  -1  -3 0.67777 3.57023   8
   9  -1   3 0.47525 1.76407   7
  -9   1  -3 1.25054 4.05531   3
  -9   1  -3 4.29817 2.91298  12
   9   1   3 -1.2684 2.27296   7
  -9   1  -3 -1.0135 3.94326   8
 -12  -2   3 164.149 13.4409   8
 -12  -2   3 198.838 13.4566   3
  12  -2  -3 201.709 11.5966   7
 -12   2   3 178.167 13.9725   8
 -12   2   3 194.041 12.5639   3
  12   2  -3 207.430 11.7240   7
 -12   2   3 197.918 11.8717  15
 -10  -2   3 473.467 16.8451  15
  10  -2  -3 474.826 16.2427   7
 -10  -2   3 469.288 18.9158   8
 -10   2   3 472.315 17.3913  15
  10   2  -3 443.834 15.3183   1
  10   2  -3 479.204 16.0212   7
 -10   2   3 468.478 18.7120   8
  -8  -2   3 558.947 18.1795   8
   8  -2  -3 569.080 14.3339  11
  -8  -2   3 541.079 16.8697  15
  -8   2   3 550.418 17.0433  15
  -8   2   3 564.357 17.9715   8
   8   2  -3 578.558 16.2681   1
   8   2  -3 554.190 15.4176   7
   6  -2  -3 599.945 13.4228   1
   6  -2  -3 614.724 13.4020  11
   6  -2  -3 636.622 15.6659   5
  -6  -2   3 609.477 13.7877   2
  -6  -2   3 595.920 15.9290  15
   6   2  -3 603.635 15.3724   1
   6   2  -3 585.609 18.8044  13
   6   2  -3 599.122 12.1475   9
  -6   2   3 624.576 16.3087   8
  -6   2   3 596.848 13.1998   2
  -6   2   3 630.145 16.2970  15
   6   2  -3 609.050 14.1513   7
  -4  -2   3 1341.79 24.7996   2
  -4  -2   3 1356.11 24.0811  14
  -4  -2   3 1326.57 22.6434   4
   4  -2  -3 1342.69 22.3868  16
   4  -2  -3 1359.07 23.9491   1
   4  -2  -3 1349.01 24.8455  12
   4  -2  -3 1353.64 23.6983  11
   4  -2  -3 1299.70 22.3202   4
   4  -2  -3 1399.32 25.8344   5
  -4   2   3 1333.51 24.2781   2
   4   2  -3 1350.82 23.7860   7
  -4   2   3 1321.05 25.4076   8
   4   2  -3 1396.22 23.3988   9
   4   2  -3 1358.49 27.8254  13
   4   2  -3 1351.50 25.7503   1
  -4   2   3 1372.12 26.1471  15
  -4   2   3 1354.67 23.0397  14
  -2  -2   3 759.998 14.0763   4
  -2  -2   3 764.909 14.8988  14
   2  -2  -3 734.847 13.6125   3
   2  -2  -3 757.457 14.8843  12
   2  -2  -3 756.848 13.8215  11
   2  -2  -3 718.678 15.1383   5
  -2   2   3 781.854 14.4777   2
  -2   2   3 756.086 14.2771  14
   2   2  -3 747.921 14.6366   3
   2   2  -3 732.875 13.8903  12
  -2   2   3 760.194 13.8127   6
  -2   2   3 741.165 14.6129  15
   2   2  -3 766.686 13.8381  13
   0  -2   3 1485.75 26.3838   4
   0  -2   3 1470.49 24.6221  11
   0  -2  -3 1491.49 26.4369  16
   0  -2  -3 1466.96 26.5935  12
   0  -2  -3 1486.38 25.7526   3
   0  -2   3 1490.45 26.2511  14
   0  -2   3 1485.84 24.8424  10
   0   2  -3 1452.48 26.4314   8
   0   2  -3 1455.52 25.0625  12
   0   2   3 1454.98 25.3839   6
   0   2  -3 1522.87 26.5365  16
   0   2  -3 1508.24 25.3962  13
   0   2   3 1457.27 25.9973  14
   0   2   3 1457.67 25.1128   7
   0   2  -3 1486.32 26.3363   3
   0   2   3 1474.01 24.9747   2
   0   2   3 1469.03 25.3381  10
  -2  -2  -3 1362.14 26.0339  12
   2  -2   3 1334.43 24.1004  10
   2  -2   3 1328.27 27.6064  13
   2  -2   3 1334.81 25.3653   4
  -2  -2  -3 1335.11 25.5678  16
   2  -2   3 1330.40 24.1279  14
  -2  -2  -3 1312.34 30.2697  13
  -2  -2  -3 1308.42 23.8034   8
   2  -2   3 1344.59 24.1189  11
  -2  -2  -3 1324.79 25.3955   3
   2   2   3 1313.06 24.2239  14
  -2   2  -3 1312.33 27.5417  13
  -2   2  -3 1297.29 24.2805  12
  -2   2  -3 1327.19 25.7428   8
  -2   2  -3 1275.57 25.2838   3
  -2   2  -3 1296.18 23.6334  15
   2   2   3 1350.11 24.5155   7
   2   2   3 1311.25 24.0185  10
  -2   2  -3 1342.34 25.5793  16
   2   2   3 1319.32 24.1095   6
  -4  -2  -3 618.898 15.3049   8
   4  -2   3 628.855 15.7003   4
   4  -2   3 616.836 14.5111   7
  -4  -2  -3 656.254 16.8499   3
   4  -2   3 635.901 14.8554  11
  -4  -2  -3 628.882 15.9514  16
   4  -2   3 645.615 14.9298  10
   4  -2   3 592.653 19.2148  13
  -4   2  -3 629.479 16.7965   8
  -4   2  -3 632.060 16.0378  16
   4   2   3 645.662 15.4395   7
  -4   2  -3 640.175 16.6224   3
   4   2   3 613.791 14.4938  10
  -4   2  -3 619.703 13.9031  15
   6  -2   3 656.142 17.8886   4
  -6  -2  -3 680.628 19.8123   3
  -6  -2  -3 687.474 18.9646   8
   6  -2   3 686.156 17.7549   7
  -6  -2  -3 662.172 18.3792  16
   6  -2   3 666.975 17.4276  10
   6   2   3 696.373 18.4922   7
  -6   2  -3 654.061 18.3889  16
  -6   2  -3 710.492 20.0867   3
   6   2   3 703.383 17.4042  10
  -6   2  -3 707.853 20.4787   8
  -8  -2  -3 323.513 14.7488   3
   8  -2   3 321.276 12.7031   7
  -8  -2  -3 312.681 14.1404   8
  -8   2  -3 310.419 14.8769   3
  -8   2  -3 330.782 15.1612   8
   8   2   3 328.403 12.4021  10
   8   2   3 313.786 12.9795   7
 -11  -3   3 264.835 15.4121   8
  11  -3  -3 265.173 12.5924   7
  11   3  -3 243.833 11.8789   1
 -11   3   3 258.625 13.1792  15
 -11   3   3 256.620 14.6519   8
  11   3  -3 261.393 12.3972   7
 -11   3   3 227.592 12.5998   3
  -9  -3   3 82.1420 8.86471   8
   9  -3  -3 78.4963 6.03897   7
  -9  -3   3 62.9832 6.73979  15
   9  -3  -3 74.5158 5.21310  11
  -9   3   3 72.7343 7.66498  15
  -9   3   3 81.1195 7.86110   8
   9   3  -3 68.5868 5.99161   1
   9   3  -3 64.1957 5.27947   7
   7  -3  -3 1190.54 23.8299  11
  -7  -3   3 1194.90 27.1836  15
  -7  -3   3 1151.54 23.5198   2
   7  -3  -3 1170.89 26.0928   5
   7   3  -3 1158.86 24.6074   7
   7   3  -3 1186.45 26.3987   1
  -7   3   3 1209.42 27.4445   8
  -7   3   3 1181.01 22.8891   2
  -7   3   3 1195.93 27.1542  15
   7   3  -3 1172.13 22.1463   9
   5  -3  -3 187.292 5.11956   4
   5  -3  -3 191.727 7.42321   5
  -5  -3   3 198.632 5.36929  16
   5  -3  -3 189.409 5.47954   1
  -5  -3   3 196.647 6.72042   2
   5  -3  -3 204.220 6.38876  11
  -5  -3   3 185.470 5.95632  14
   5   3  -3 196.058 6.30685   7
   5   3  -3 188.200 8.68406  13
  -5   3   3 211.096 8.18318  15
  -5   3   3 203.316 6.37478   2
   5   3  -3 201.053 5.78840   9
  -5   3   3 197.655 7.61247   8
   5   3  -3 203.868 7.56649   1
  -3  -3   3 5059.37 80.8193  14
   3  -3  -3 4950.79 83.6930  11
   3  -3  -3 4965.75 80.4161  12
   3  -3  -3 4992.81 81.8525   5
  -3  -3   3 4897.03 82.7665   4
   3   3  -3 5060.86 80.9331   7
  -3   3   3 4965.13 80.2291   2
   3   3  -3 4934.14 79.5672   9
  -3   3   3 5139.74 81.6235  15
   3   3  -3 4999.36 81.4822   1
  -3   3   3 4879.87 79.9567   8
  -1  -3   3 18.7265 1.32357  11
  -1  -3   3 18.9007 2.17247   4
   1  -3  -3 19.8897 2.20930  12
  -1  -3   3 19.3886 2.24451  14
   1  -3  -3 16.7488 2.30557   5
   1  -3  -3 18.1451 1.28087   3
  -1  -3   3 19.0831 1.09208  10
  -1   3   3 17.5377 1.50321  15
  -1   3   3 20.9400 1.73800  14
   1   3  -3 17.5433 2.02736   8
   1   3  -3 16.8256 1.21735  12
  -1   3   3 20.7401 1.67104   6
  -1   3   3 19.8787 1.88542   2
  -1  -3  -3 4968.65 79.3920  16
  -1  -3  -3 4812.49 77.9155   3
   1  -3   3 4803.62 78.2438  14
  -1  -3  -3 4877.01 79.2050  12
   1  -3   3 4676.18 80.2666  11
   1  -3   3 4890.03 76.9163  10
   1  -3   3 4900.85 79.1825   4
   1  -3   3 4927.48 92.8063  13
  -1  -3  -3 4619.56 75.2340   8
  -1   3  -3 4913.42 79.2586  16
   1   3   3 4839.75 77.6965   7
  -1   3  -3 4874.71 79.2449   8
   1   3   3 4763.83 77.2284  10
   1   3   3 4751.38 77.6264   6
   1   3   3 4589.10 78.3983   2
   1   3   3 4879.27 78.2713  14
  -1   3  -3 4709.42 78.5551  12
  -1   3  -3 4771.38 78.3531   3
  -3  -3  -3 5.38423 1.73464  16
  -3  -3  -3 2.05605 1.73438   3
  -3  -3  -3 2.64611 1.61515  13
   3  -3   3 4.88756 1.57736  11
   3  -3   3 3.03987 1.46577   4
   3  -3   3 7.15669 1.38911  10
   3  -3   3 3.64320 1.69998  13
  -3  -3  -3 10.8428 2.35274  12
  -3  -3  -3 0.30583 1.30766   8
   3  -3   3 2.94368 1.30252  14
  -3   3  -3 13.1004 2.49070  16
  -3   3  -3 4.96516 2.06200   8
   3   3   3 4.17458 1.34281  10
  -3   3  -3 2.44611 1.88331   3
  -3   3  -3 6.20516 1.52279  15
  -5  -3  -3 959.887 21.6915   8
   5  -3   3 944.507 21.0817  10
   5  -3   3 942.749 20.9090   7
  -5  -3  -3 976.792 23.6522   3
   5  -3   3 959.460 21.2025  11
  -5  -3  -3 921.713 22.3152  16
   5  -3   3 943.910 22.1221   4
  -5   3  -3 963.735 24.0019   8
   5   3   3 928.900 20.6335  10
  -5   3  -3 962.307 23.1883   3
  -5   3  -3 898.384 20.2366  15
  -5   3  -3 929.666 22.4629  16
   5   3   3 948.912 22.0777   7
  -7  -3  -3 15.7790 3.78154  16
  -7  -3  -3 15.6371 4.32591   3
   7  -3   3 14.0244 3.31133   7
   7  -3   3 19.3598 3.83383   4
  -7   3  -3 17.8860 4.82767   8
  -7   3  -3 17.8612 4.57646   3
   7   3   3 18.4166 3.70194   7
  -7   3  -3 14.6906 3.55037  16
   7   3   3 18.3203 3.14668  10
  -9  -3  -3 127.305 10.1171  12
  -9  -3  -3 90.3975 9.70175   3
   9  -3   3 99.5197 7.78464   7
  -9   3  -3 129.591 10.5556   8
   9   3   3 102.820 8.14189   7
  -9   3  -3 101.170 9.85539   3
  10  -4  -3 247.867 11.1239   7
  10  -4  -3 229.908 9.82585  11
 -10  -4   3 234.219 13.6155   8
 -10   4   3 253.523 12.0069   3
 -10   4   3 227.246 13.0771   8
  10   4  -3 232.838 10.8907   7
  10   4  -3 224.017 11.1696   1
 -10   4   3 232.218 12.2731  15
   8  -4  -3 353.525 12.9754   5
   8  -4  -3 339.822 11.0205  11
  -8  -4   3 373.013 13.8317  15
   8   4  -3 342.824 11.7119   7
   8   4  -3 356.165 12.9702   1
  -8   4   3 340.809 13.6352   8
   8   4  -3 347.805 9.72310   9
  -8   4   3 350.608 13.6553  15
   6  -4  -3 632.838 16.5779   5
  -6  -4   3 602.712 13.9391  14
  -6  -4   3 607.204 14.7811   2
   6  -4  -3 628.455 14.6571  11
  -6  -4   3 607.494 19.3825  13
  -6   4   3 636.458 17.0118  15
   6   4  -3 628.454 16.6908   1
   6   4  -3 619.348 13.7556   9
  -6   4   3 645.517 16.8896   8
  -6   4   3 610.522 13.9997   2
   6   4  -3 607.676 14.7798   7
   4  -4  -3 2585.76 45.0488   5
   4  -4  -3 2500.78 42.8041  12
   4  -4  -3 2396.48 42.2029   4
   4  -4  -3 2458.39 42.8774  11
   4  -4  -3 2381.95 40.4097   1
   4   4  -3 2518.28 42.1831   7
   4   4  -3 2512.63 44.6819   1
  -4   4   3 2603.35 45.1175  15
  -4   4   3 2506.80 42.8796   2
  -4   4   3 2456.28 43.3423   8
   4   4  -3 2453.16 40.0257   6
   4   4  -3 2530.34 42.4542   9
   2  -4  -3 1715.58 31.8082   5
  -2  -4   3 1695.87 28.0074  13
   2  -4  -3 1686.06 30.0037  11
   2  -4  -3 1682.27 29.9698  12
  -2  -4   3 1679.89 30.4892   4
  -2  -4   3 1693.15 28.3177  11
   2   4  -3 1691.77 29.5521   9
  -2   4   3 1679.10 27.8752   8
  -2   4   3 1685.97 29.6698   6
   2   4  -3 1675.37 30.4873   1
  -2   4   3 1722.31 27.8417   9
  -2   4   3 1693.46 30.2582  15
  -2   4   3 1679.10 29.7834   2
   2   4  -3 1685.83 27.3204   6
   0  -4  -3 2638.79 46.5570   5
   0  -4   3 2656.57 47.6891  13
   0  -4   3 2601.08 43.3535  11
   0  -4   3 2614.80 42.3904  10
   0  -4   3 2611.13 45.6586   4
   0  -4   3 2630.37 45.4603  14
   0  -4  -3 2678.07 45.2100  12
   0  -4  -3 2634.54 45.6483  16
   0  -4  -3 2528.66 42.8282   3
   0   4   3 2580.77 42.5643  15
   0   4  -3 2604.28 45.4902   8
   0   4   3 2704.64 44.4502   6
   0   4  -3 2642.19 44.3024   3
   0   4   3 2606.86 43.6773   2
   2  -4   3 1552.81 30.1260   4
  -2  -4  -3 1571.96 30.2090  12
   2  -4   3 1509.80 28.5874  14
   2  -4   3 1538.32 28.1080  11
  -2  -4  -3 1534.71 28.7587   3
   2  -4   3 1526.11 27.5816  10
  -2  -4  -3 1532.34 30.1310  16
   2  -4   3 1542.38 30.8230  13
  -2   4  -3 1496.20 26.6050  12
   2   4   3 1575.83 28.6234   6
  -2   4  -3 1536.87 29.0745   3
  -2   4  -3 1541.88 30.2970  16
   2   4   3 1532.25 28.7473   7
   2   4   3 1565.76 27.8076  10
  -2   4  -3 1572.11 30.5704   8
  -2   4  -3 1512.50 28.7408  15
   4  -4   3 279.412 9.26859  11
   4  -4   3 293.714 10.3757   4
  -4  -4  -3 313.668 11.1593  12
  -4  -4  -3 303.724 10.6775   3
   4  -4   3 301.880 9.19058  10
  -4  -4  -3 285.886 10.2924  16
   4  -4   3 270.480 8.11334  14
   4  -4   3 284.420 12.3431  13
  -4   4  -3 299.370 11.3046   8
   4   4   3 280.584 8.86550  10
  -4   4  -3 304.312 10.4887   3
  -4   4  -3 293.122 9.41350  15
  -4   4  -3 287.062 10.3433  16
   4   4   3 300.825 10.0275   7
   4   4   3 294.887 9.29950   6
  -6  -4  -3 324.812 12.9607   3
   6  -4   3 325.813 12.1519   4
   6  -4   3 332.555 11.4755   7
   6  -4   3 321.434 11.2772  11
  -6  -4  -3 326.462 12.3607  16
  -6   4  -3 342.271 14.1191   8
   6   4   3 343.337 11.0416  10
   6   4   3 319.628 12.0210   7
  -6   4  -3 312.916 10.9213  15
  -6   4  -3 310.272 12.3141  16
  -6   4  -3 342.378 13.0610   3
  -8  -4  -3 60.9102 7.34841   3
   8  -4   3 54.4616 6.16037   7
  -8  -4  -3 45.8161 7.32155  12
  -8   4  -3 66.6556 8.44371   8
  -8   4  -3 55.3330 6.97085   3
   8   4   3 59.3992 6.38751   7
   8   4   3 51.9199 5.36844  10
  11  -5  -3 18.7569 3.81971  11
  11  -5  -3 20.5537 4.89238   7
 -11  -5   3 11.3539 5.74069   8
  11   5  -3 8.49945 3.52347   7
 -11   5   3 9.13736 4.26912  15
 -11   5   3 7.41969 4.79796   8
  11   5  -3 5.89320 3.52710   1
   9  -5  -3 359.456 12.2783  11
  -9  -5   3 341.978 14.4506  15
  -9  -5   3 336.632 15.3986   8
  -9   5   3 330.849 14.7222   8
   9   5  -3 318.224 12.2789   7
   9   5  -3 326.687 13.5705   1
  -9   5   3 350.161 14.6045  15
  -7  -5   3 204.360 8.21036   2
   7  -5  -3 215.142 9.50086   5
   7  -5  -3 200.835 8.14502  11
  -7   5   3 197.870 9.65746  15
  -7   5   3 200.031 7.26840   2
  -7   5   3 199.027 9.55345   8
   7   5  -3 199.172 9.38080   1
   7   5  -3 205.293 8.20347   7
   7   5  -3 210.291 7.28529   9
   5  -5  -3 888.892 20.5282   5
   5  -5  -3 865.251 18.7392  11
   5  -5  -3 818.322 17.7388   4
  -5  -5   3 847.480 22.2209  13
   5   5  -3 856.172 18.1027   7
  -5   5   3 833.253 19.1992   8
  -5   5   3 855.681 18.1530   2
  -5   5   3 862.047 20.5550  15
   5   5  -3 868.065 20.2446   1
   5   5  -3 872.720 18.0306   9
   3  -5  -3 164.920 6.98816   5
  -3  -5   3 154.807 5.97746  13
  -3  -5   3 162.647 6.24543   4
   3  -5  -3 168.357 6.29042  11
   3  -5  -3 167.909 5.58213  12
  -3  -5   3 152.137 4.82237  11
  -3   5   3 165.436 6.61500  15
  -3   5   3 166.975 6.01720   2
   3   5  -3 165.614 4.18184   6
  -3   5   3 162.523 4.07050   9
  -3   5   3 160.762 5.28689   8
   3   5  -3 173.416 6.58520   1
   3   5  -3 157.228 5.02445   7
  -3   5   3 162.807 5.72930   6
   3   5  -3 156.882 5.66433   9
   1  -5  -3 464.339 11.1746  12
   1  -5  -3 465.604 12.7190   5
  -1  -5   3 484.614 8.51231  13
  -1  -5   3 462.317 10.2598  11
  -1  -5   3 477.086 12.3833   4
  -1   5   3 458.424 10.7049  15
   1   5  -3 464.362 10.6180   3
  -1   5   3 468.428 9.88931   9
   1   5  -3 464.232 9.38735   6
   1   5  -3 468.953 10.8835   9
  -1   5   3 471.287 10.9821   2
  -1   5   3 469.635 11.1161   6
   1   5  -3 461.238 10.9624   1
   1  -5   3 22.5881 2.85655  14
   1  -5   3 30.1976 3.76154   4
  -1  -5  -3 23.2546 2.98474  12
  -1  -5  -3 22.6841 3.18634   5
   1  -5   3 23.2340 1.92964  10
  -1  -5  -3 22.9040 2.94281  16
   1  -5   3 24.7587 2.78954  11
  -1  -5  -3 17.7890 2.15969   3
   1   5   3 18.7251 2.27713   7
   1   5   3 23.8572 2.10636  10
  -1   5  -3 22.1505 2.55508   3
  -1   5  -3 18.5003 2.84503   8
   1   5   3 22.3368 2.33676   9
   1   5   3 25.4774 2.83540   6
   3  -5   3 326.838 9.72917  14
  -3  -5  -3 332.994 11.2667  16
  -3  -5  -3 346.151 10.4535   3
  -3  -5  -3 336.427 11.3278  12
   3  -5   3 337.781 11.2690   4
   3  -5   3 332.805 9.91701  11
   3   5   3 345.671 10.0943   6
  -3   5  -3 348.311 10.5258   3
  -3   5  -3 343.899 10.5534  15
   3   5   3 334.496 10.4112   7
   3   5   3 327.116 9.09315  10
  -3   5  -3 327.011 11.6019   8
   5  -5   3 45.0834 4.85824  11
   5  -5   3 33.1109 4.76623   4
  -5  -5  -3 41.6745 5.43788  12
  -5  -5  -3 48.6867 5.60391   3
  -5  -5  -3 36.9466 4.66221  16
  -5   5  -3 42.1632 5.68964   8
   5   5   3 37.8939 4.28718   6
   5   5   3 36.0429 4.37416   7
  -5   5  -3 46.0326 4.36601  15
  -5   5  -3 38.9486 4.71978   3
   5   5   3 45.7543 3.79137  10
  -7  -5  -3 284.901 13.5981  12
  -7  -5  -3 281.344 13.4183   3
   7  -5   3 290.584 11.5483  11
  -7  -5  -3 289.199 12.5304  16
   7  -5   3 289.733 11.9047   4
   7  -5   3 284.526 11.5522   7
  -7   5  -3 310.085 14.4375   8
   7   5   3 280.786 10.5664  10
   7   5   3 277.739 11.9108   7
  -7   5  -3 282.599 13.0477   3
   9  -5   3 22.3931 4.44392   7
  -9  -5  -3 18.4199 5.70865   3
   9   5   3 26.0879 5.02669   7
  10  -6  -3 32.3713 4.64774  11
 -10  -6   3 28.1695 6.24650   8
 -10   6   3 32.4246 6.20989   8
  10   6  -3 33.3495 4.83416   7
 -10   6   3 34.7700 6.20460  15
  10   6  -3 26.0336 4.71892   1
  -8  -6   3 269.441 12.0617  15
   8  -6  -3 282.731 10.6153  11
   8  -6  -3 268.122 11.7851   5
  -8   6   3 256.243 12.0575   8
  -8   6   3 275.581 12.4980  15
   8   6  -3 262.188 11.9524   1
   8   6  -3 260.936 10.4901   7
   8   6  -3 252.107 9.03791   9
   6  -6  -3 838.972 19.6796  11
   6  -6  -3 878.319 21.7480   5
  -6   6   3 850.571 21.9049  15
  -6   6   3 832.880 20.8446   8
   6   6  -3 872.800 19.5324   7
  -6   6   3 857.313 18.9975   2
   6   6  -3 857.205 18.9755   9
   6   6  -3 853.893 21.6715   1
   4  -6  -3 532.686 13.6160   4
   4  -6  -3 508.455 12.0189  12
  -4  -6   3 523.834 13.8133   4
   4  -6  -3 534.177 13.6601  11
   4  -6  -3 544.627 15.0657   5
  -4   6   3 517.535 12.8249   8
  -4   6   3 519.637 14.4589  15
  -4   6   3 530.702 13.0634   2
   4   6  -3 495.681 13.9590   1
   4   6  -3 510.222 12.8185   9
  -4   6   3 520.879 13.0718   6
   4   6  -3 519.984 12.2556   7
   2  -6  -3 2103.72 37.8240  12
   2  -6  -3 2153.17 39.3163  11
  -2  -6   3 2141.55 37.5200  11
  -2  -6   3 2209.56 40.5131   4
  -2  -6   3 2189.10 37.6676  13
   2  -6  -3 2188.10 41.1040   5
   2   6  -3 2141.43 36.1872   6
   2   6  -3 2148.89 38.9891   1
   2   6  -3 2224.19 38.7494   9
  -2   6   3 2189.61 36.5816   9
  -2   6   3 2213.25 39.4526  15
  -2   6   3 2166.83 38.8989   6
  -2   6   3 2230.58 38.9621   2
   0  -6  -3 1023.05 23.1001   5
   0  -6   3 1010.88 20.0696  11
   0  -6  -3 993.539 20.8049  12
   0  -6   3 1021.78 22.5544   4
   0   6  -3 1043.20 20.5372   9
   0   6   3 1034.80 20.9737   6
   0   6  -3 951.248 19.2018   1
   0   6   3 1029.92 19.6754   9
   0   6  -3 1013.07 19.7860   3
   0   6  -3 1049.28 22.1873   8
  -2  -6  -3 451.978 11.4558   3
   2  -6   3 466.520 12.1278  11
   2  -6   3 474.666 13.0454  14
   2  -6   3 489.187 14.3673   4
  -2  -6  -3 488.211 13.6217  12
  -2  -6  -3 462.174 13.8906  16
  -2   6  -3 461.444 11.9859   3
  -2   6  -3 459.560 13.9273   8
   2   6   3 465.877 12.6305   7
   2   6   3 497.226 12.7153   6
   2   6   3 463.297 11.2095  10
  -4  -6  -3 624.129 17.8293  16
  -4  -6  -3 629.760 18.0892  12
  -4  -6  -3 622.526 16.8289   3
   4  -6   3 609.432 16.4136  14
   4  -6   3 647.576 18.0318   4
   4  -6   3 604.993 16.0405  11
  -4   6  -3 616.204 16.3308   3
   4   6   3 621.653 14.8391  10
   4   6   3 645.875 16.2182   6
  -4   6  -3 635.450 18.5700   8
   4   6   3 627.718 16.8604   7
  -4   6  -3 630.723 16.9912  15
   6  -6   3 37.3535 4.63440  11
  -6  -6  -3 27.5210 4.27615  16
  -6  -6  -3 24.9792 4.67929   3
   6  -6   3 32.2823 4.96839   4
  -6  -6  -3 41.0960 6.30337  12
  -6   6  -3 31.3745 4.74030   3
  -6   6  -3 31.3647 4.55064  15
  -6   6  -3 33.9392 5.79950   8
   6   6   3 34.2929 4.35766   7
  -8  -6  -3 53.0417 7.29478   3
   8  -6   3 68.6722 7.26292  11
   8  -6   3 58.8703 6.06685   7
  -8  -6  -3 70.4304 8.31133  12
  -8   6  -3 72.1608 8.79791   8
   8   6   3 70.1395 6.37113   7
   9  -7  -3 166.321 8.59747  11
  -9  -7   3 164.898 11.0867   8
   9  -7  -3 164.444 10.0363   5
   9   7  -3 139.573 9.68958   1
   9   7  -3 154.639 8.58286   7
  -9   7   3 158.785 10.4849  15
  -9   7   3 159.619 10.3035   8
   7  -7  -3 98.8439 7.16651   5
   7  -7  -3 103.399 6.62013  11
   7   7  -3 102.406 6.12658   7
  -7   7   3 98.5019 7.06973   8
   7   7  -3 109.858 7.51889   1
   7   7  -3 107.476 5.99543   9
  -7   7   3 96.5408 7.47823  15
   5  -7  -3 675.310 17.1985   4
   5  -7  -3 685.344 18.6793   5
   5  -7  -3 689.990 17.4345  11
  -5   7   3 678.795 16.4840   2
   5   7  -3 702.435 16.8648   9
   5   7  -3 684.393 16.2529   7
   5   7  -3 716.814 18.6389   1
  -5   7   3 712.962 19.2275  15
  -5   7   3 703.938 17.3548   6
   3  -7  -3 2.59455 1.81139  12
   3  -7  -3 7.03568 2.27441  11
   3  -7  -3 0.10869 2.08390   5
  -3  -7   3 0.51407 1.64270   4
  -3  -7   3 3.60592 1.40937  11
  -3   7   3 5.69023 1.88774  15
  -3   7   3 2.45804 1.62506   6
   3   7  -3 2.49432 1.43193   9
   3   7  -3 1.14654 1.29404   1
   1  -7  -3 2086.17 38.4446  12
  -1  -7   3 2198.82 38.7849  11
   1  -7  -3 2179.14 42.2409   5
   1  -7  -3 2194.42 40.6289  11
  -1  -7   3 2257.74 42.2676   4
   1   7  -3 2230.89 39.5912   9
  -1   7   3 2211.66 37.8500   9
   1   7  -3 2144.49 37.3787   6
   1   7  -3 2173.75 38.7239   1
  -1   7   3 2214.50 39.8107   6
  -1   7   3 2111.77 39.0774  15
  -1  -7  -3 37.9171 3.66571  12
   1  -7   3 46.7401 5.38075   4
   1  -7   3 45.6560 3.49416  11
  -1  -7  -3 52.9770 5.00790   5
   1  -7   3 41.7850 4.05827  14
  -1   7  -3 47.9050 3.64504   9
  -1   7  -3 39.8276 2.96118   3
   1   7   3 50.3538 3.91253   6
  -1   7  -3 46.8520 4.35411   8
   1   7   3 47.0845 2.93162  10
   1   7   3 46.6295 3.39655   9
   3  -7   3 1199.49 27.9243   4
   3  -7   3 1197.66 25.4573  11
  -3  -7  -3 1234.96 28.4743  16
  -3  -7  -3 1191.85 27.1330  12
   3  -7   3 1145.17 25.7246  14
   3   7   3 1215.99 25.7392   6
   3   7   3 1175.27 23.3699  10
   3   7   3 1219.09 26.3028   7
  -3   7  -3 1239.61 28.3897   8
  -5  -7  -3 7.40015 3.44052  12
   5  -7   3 10.1822 3.66782   4
   5  -7   3 12.9652 2.99489  11
  -5  -7  -3 8.32172 3.05174  16
  -5   7  -3 6.99820 3.36851   8
   5   7   3 3.92133 2.22034   6
   5   7   3 8.27430 2.95877   7
   7  -7   3 125.220 8.22966  11
   7  -7   3 124.680 7.87501   7
  -7  -7  -3 134.577 10.0827  12
   7  -7   3 117.942 7.88145   4
   7   7   3 122.418 8.35814   7
  -7   7  -3 122.038 9.63153   8
  10  -8  -3 73.9755 6.59592  11
  10   8  -3 72.9737 7.80320   1
  10   8  -3 84.7651 7.10081   7
 -10   8   3 63.6364 7.56655   8
 -10   8   3 74.5544 9.41039  15
   8  -8  -3 267.498 11.4235  11
   8  -8  -3 257.799 12.2161   5
   8   8  -3 252.765 10.6231   7
  -8   8   3 262.526 12.8871  15
  -8   8   3 240.303 11.9704   8
   8   8  -3 248.221 9.93316   9
   8   8  -3 258.445 12.2080   1
   6  -8  -3 412.185 13.4722  11
   6  -8  -3 425.011 14.7592   5
  -6  -8   3 405.669 13.5832   4
  -6   8   3 415.169 13.2905   6
  -6   8   3 407.723 14.8656  15
   6   8  -3 412.292 14.4387   1
   6   8  -3 392.314 12.3561   9
   6   8  -3 433.152 12.7366   7
   4  -8  -3 61.9826 5.12986   4
   4  -8  -3 57.7138 5.68459   5
  -4  -8   3 53.7459 3.88621  11
  -4  -8   3 64.2693 5.37620   4
   4  -8  -3 64.6716 5.43394  11
   4   8  -3 63.9616 5.00721   1
  -4   8   3 59.2691 4.73207   6
   4   8  -3 59.2898 4.57002   9
  -4   8   3 58.2633 4.84303  15
   2  -8  -3 629.950 17.9520   5
   2  -8  -3 628.636 16.7370  11
  -2  -8   3 624.278 14.9829  11
  -2  -8   3 642.200 17.6694   4
   2   8  -3 620.188 15.2533   1
   2   8  -3 640.887 15.7982   9
  -2   8   3 634.110 16.0526   6
  -2   8   3 626.139 13.6710   9
  -2   8   3 643.068 16.2993  15
   0  -8  -3 224.842 9.88926   5
   0  -8   3 221.472 9.64205   4
   0  -8  -3 236.227 9.34621  11
   0  -8   3 229.424 8.06410  11
   0  -8  -3 217.712 7.90470  12
   0   8   3 229.005 7.57727   9
   0   8   3 236.461 8.55784   6
   0   8  -3 221.018 7.21929   6
   0   8   3 224.997 6.89274  10
   0   8  -3 229.707 8.30090   9
   2  -8   3 223.174 9.46155  14
  -2  -8  -3 239.102 10.5520  16
   2  -8   3 221.916 8.56750  11
  -2  -8  -3 202.378 8.93084  12
   2  -8   3 214.359 9.99749   4
  -2  -8  -3 216.758 10.6280   5
   2   8   3 221.285 8.01978   9
   2   8   3 212.998 8.67983   6
  -2   8  -3 232.082 8.33583   9
  -2   8  -3 227.222 9.97280   8
  -4  -8  -3 626.603 20.6169   5
   4  -8   3 649.164 19.6650   4
   4  -8   3 646.603 17.5557  11
  -4  -8  -3 612.329 19.1939  16
  -4  -8  -3 631.849 18.8763  12
  -4   8  -3 623.024 19.6412   8
  -4   8  -3 596.136 15.6066   9
   4   8   3 607.801 17.6475   7
   4   8   3 631.288 17.1530   6
   6  -8   3 137.370 9.17135   4
  -6  -8  -3 117.701 9.21833  12
   6  -8   3 143.692 8.22873  11
   6   8   3 132.391 7.90074   6
  -6   8  -3 131.532 9.59903   8
   6   8   3 135.407 8.56851   7
   9  -9  -3 5.93126 3.32183   5
   9  -9  -3 2.13221 2.87989  11
  -9   9   3 6.87555 3.51776  15
   9   9  -3 0.33236 2.29331   7
   9   9  -3 7.82975 3.73175   1
  -9   9   3 6.81765 3.36024   6
   7  -9  -3 645.113 19.8854   5
   7  -9  -3 653.852 18.9940  11
   7   9  -3 618.496 17.4365   7
  -7   9   3 591.706 18.2525   6
   7   9  -3 632.561 19.6680   1
  -7   9   3 653.355 20.8334  15
   7   9  -3 577.909 16.7559   9
   5  -9  -3 30.0659 4.63891  11
   5  -9  -3 23.5194 4.56021   5
  -5  -9   3 25.7276 4.22649   4
   5  -9  -3 24.8626 4.12340   4
  -5   9   3 28.1933 3.92951   6
   5   9  -3 26.0159 3.83250   9
   5   9  -3 29.1061 4.25745   1
  -5   9   3 24.8708 4.57658  15
  -3  -9   3 378.786 11.4512  11
   3  -9  -3 391.033 13.2343  11
   3  -9  -3 388.045 14.0706   5
  -3  -9   3 382.936 13.8420   4
  -3   9   3 386.041 12.3285   6
  -3   9   3 399.161 13.0827  15
   3   9  -3 386.352 12.2767   9
   3   9  -3 363.326 11.7554   1
  -1  -9   3 25.1965 4.20800   4
  -1  -9   3 21.5683 3.38028  11
   1  -9  -3 22.5317 4.26460   5
   1  -9  -3 23.7487 3.65415  11
  -1   9   3 25.7826 2.99523   9
   1   9  -3 17.2095 2.98842   9
  -1   9   3 19.2619 3.20844   6
   1  -9   3 164.611 7.82901  11
   1  -9   3 161.771 9.12695   4
  -1  -9  -3 171.430 8.52895  11
   1  -9   3 173.535 8.86609  14
  -1  -9  -3 165.349 9.53293   5
  -1   9  -3 170.044 8.70258   8
   1   9   3 169.155 7.85038   6
  -1   9  -3 164.129 7.41068   9
   1   9   3 162.148 7.00334   9
  -1   9  -3 162.187 6.88870   6
  -3  -9  -3 37.4488 6.01781  12
   3  -9   3 35.1919 4.72459  14
   3  -9   3 44.0678 4.80170  11
  -3  -9  -3 43.6532 5.84908  16
   3  -9   3 38.6333 5.91892   4
  -3  -9  -3 35.6037 5.89550   5
  -3   9  -3 35.6499 3.97286   9
  -3   9  -3 40.0565 5.62082   8
   3   9   3 35.9090 4.43138   6
   5  -9   3 347.613 13.2206  11
  -5  -9  -3 328.613 15.5850   5
   5  -9   3 326.088 14.5413   4
  -5  -9  -3 328.103 14.0673  12
   5   9   3 321.754 12.2349   6
  -5   9  -3 351.069 15.0646   8
   5   9   3 325.842 13.0823   7
  -7  -9  -3 -3.1025 3.58643  12
  -7  -9  -3 1.65734 2.55311   5
   7  -9   3 5.26413 3.44556  11
   7  -9   3 2.00346 5.13540   4
   7   9   3 0.82926 2.71421   7
  -7   9  -3 2.36812 3.76233   8
   8 -10  -3 7.44366 3.61093   5
   8 -10  -3 13.8622 4.15040  11
  -8  10   3 6.60957 3.42696  15
   8  10  -3 3.92218 2.58382   1
  -8  10   3 5.08532 3.33886   6
   8  10  -3 3.59092 2.80881   9
   6 -10  -3 68.1151 6.83498   5
   6 -10  -3 76.3086 7.51314  11
   6  10  -3 70.8590 5.99512   1
   6  10  -3 73.8124 6.05236   9
  -6  10   3 78.5017 7.21719  15
  -6  10   3 64.4276 6.74874   6
   4 -10  -3 15.0616 4.20479   5
   4 -10  -3 17.9101 4.37577   4
   4 -10  -3 25.6069 4.31817  11
  -4 -10   3 13.3089 3.97504   4
   4  10  -3 12.2141 2.95825   1
  -4  10   3 21.9861 3.68364   6
   4  10  -3 14.4871 3.29019   9
  -4  10   3 13.6512 3.36506  15
   2 -10  -3 161.207 9.48866   5
  -2 -10   3 135.152 7.01567  11
   2 -10  -3 162.181 8.84729  11
  -2 -10   3 155.053 9.56485   4
  -2  10   3 144.295 7.61694   6
   2  10  -3 150.466 7.67877   9
   0 -10  -3 5.15764 3.52787   5
   0 -10   3 3.70943 2.61723  11
   0 -10  -3 3.67377 2.13734  11
   0 -10   3 -1.0215 2.95109   4
   0  10   3 4.66878 2.00131   9
   0  10   3 -0.5046 1.78205   6
   0  10  -3 3.12053 2.01768   9
   2 -10   3 1.75119 2.47286  14
  -2 -10  -3 4.44062 3.44227   5
   2 -10   3 4.46800 2.98250   4
   2 -10   3 0.50832 2.00045  11
  -2 -10  -3 2.74014 2.07332  16
  -2 -10  -3 4.08071 2.18918  11
   2  10   3 1.48269 2.11737   9
  -2  10  -3 1.25903 1.79009   6
  -2  10  -3 -1.6984 1.58855   9
   2  10   3 -0.8128 1.04648   6
  -2  10  -3 2.19466 2.28621   8
   4 -10   3 74.3299 7.01574  11
   4 -10   3 64.9948 7.92845   4
  -4 -10  -3 60.3601 7.99037   5
  -4  10  -3 64.0984 7.35915   8
  -4  10  -3 61.8885 6.01986   6
   4  10   3 59.9731 5.85141   6
   6 -10   3 34.8953 5.45015  11
   6 -10   3 27.1729 5.57512   4
  -6 -10  -3 27.7072 5.48946   5
   6  10   3 34.6922 4.64715   6
  -6  10  -3 31.7250 6.03362   8
   7 -11  -3 12.6141 4.02803   5
   7 -11  -3 6.41469 3.04701  11
   7  11  -3 10.9680 3.81659   1
  -7  11   3 9.21645 3.28483  15
  -7  11   3 12.9007 3.78967   6
   7  11  -3 18.0658 4.09129   9
  -5 -11   3 99.6346 8.39843   4
   5 -11  -3 83.0694 7.69333   4
   5 -11  -3 85.4570 7.86131  11
   5 -11  -3 81.8379 7.47707   5
  -5  11   3 76.4760 6.31097   6
   5  11  -3 79.6659 6.46977   9
  -5  11   3 90.0905 7.51396  15
  -3 -11   3 8.63188 4.19132   4
   3 -11  -3 13.1082 4.11036  11
   3 -11  -3 8.63923 3.07843   5
   3 -11  -3 15.0623 4.23583   4
  -3  11   3 6.27932 2.88877   6
   3  11  -3 7.43363 2.90011   9
  -1 -11   3 490.045 15.1429  11
  -1 -11   3 533.047 19.0015   4
   1 -11  -3 511.661 17.1131  11
   1 -11  -3 508.913 17.8769   5
   1  11  -3 519.963 15.8093   9
  -1  11   3 495.389 13.7380   9
  -1  11   3 510.946 16.0191   6
   1 -11   3 125.345 10.0197   4
   1 -11   3 112.740 7.49230  11
   1 -11   3 113.956 8.42847  14
  -1 -11  -3 108.822 8.18658  11
  -1 -11  -3 102.768 8.88287   5
   1  11   3 112.089 6.53093   9
   1  11   3 112.403 7.20608   6
  -1  11  -3 102.496 6.75976   9
   3 -11   3 225.546 10.9016  11
   3 -11   3 234.588 12.6288   4
  -3 -11  -3 250.533 12.2168  11
  -3 -11  -3 233.965 13.1335   5
   3 -11   3 229.351 11.4384  14
   3  11   3 243.970 10.8452   6
  -3  11  -3 229.879 10.4777   6
  -3  11  -3 247.958 12.2488   8
  -5 -11  -3 27.9600 6.09371   5
   5 -11   3 21.8724 4.88934   4
   5 -11   3 22.7734 4.69939  11
  -5  11  -3 28.3810 5.40701   8
   5  11   3 21.7060 4.02446   6
  -5  11  -3 21.7499 4.29539   6
  -6 -12   3 49.1580 6.52926  14
   6 -12  -3 51.7866 7.03817  11
   6  12  -3 37.7217 5.23950   9
  -6  12   3 52.8857 6.99869  15
  -6  12   3 47.4706 6.02587   6
   4 -12  -3 244.078 15.0381   5
   4 -12  -3 336.844 14.3933  11
  -4 -12   3 329.680 15.2128   4
   4 -12  -3 330.256 14.8917   4
  -4  12   3 308.639 12.6053   6
   4  12  -3 332.043 13.0326   9
   2 -12  -3 34.1179 5.88177  11
  -2 -12   3 26.7095 5.21418   4
   2 -12  -3 28.1029 5.50335   5
   2 -12  -3 33.7132 6.10300   4
   2  12  -3 39.5201 5.26809   9
  -2  12   3 23.0768 3.95475   6
   0 -12   3 180.455 10.9354  14
   0 -12   3 159.144 9.06457  11
   0 -12  -3 174.390 10.0118  11
   0 -12  -3 177.688 11.1102   5
   0 -12   3 199.193 12.3253   4
   0  12   3 174.899 8.14630   9
   0  12   3 189.574 9.48571   6
   0  12  -3 165.677 8.89409   9
   2 -12   3 163.713 11.1082   4
   2 -12   3 173.024 10.5027  14
   2 -12   3 146.503 8.43453  11
  -2 -12  -3 163.765 9.89307  11
  -2 -12  -3 168.403 11.4267   5
  -2  12  -3 157.667 8.48756   9
   3 -13  -3 138.807 10.4679   4
  -3 -13   3 134.113 10.1173   4
   3 -13  -3 121.436 9.59819  11
   3  13  -3 121.531 8.49251   9
  -3  13   3 136.082 8.78227   6
   1 -13  -3 316.271 15.7821   4
  -1 -13   3 328.055 14.9724  14
   1 -13  -3 300.572 14.2575  11
   1  13  -3 310.211 12.6170   9
  -1  13   3 322.811 13.2800   6
  -1 -13  -3 236.548 11.9934  11
   1 -13   3 239.171 12.9073  14
   1 -13   3 205.002 10.8680  11
   1 -13   3 239.272 14.5317   4
  -1  13  -3 219.985 10.4877   9
   1  13   3 246.419 11.3929   6
 -12   0   4 1218.97 35.4534   8
  12   0  -4 1192.60 31.1600   7
  10   0  -4 116.872 7.58339   7
  10   0  -4 97.2920 6.46261   1
 -10   0   4 113.753 9.86623   8
 -10   0   4 98.0607 8.64617  15
  -8   0   4 3309.42 63.5464   8
  -8   0   4 3388.09 62.7319  15
  -8   0   4 3308.38 57.1976   2
   8   0  -4 3391.98 59.5301   7
   8   0  -4 3342.01 59.9314   1
   6   0  -4 334.554 9.97489   1
   6   0  -4 330.520 9.87685   5
  -6   0   4 324.472 9.15689   2
  -6   0   4 346.347 11.3612  15
   6   0  -4 322.543 13.3607  13
   6   0  -4 322.804 7.51877  11
   6   0  -4 330.505 8.87938   7
   4   0  -4 2152.45 37.8937   1
   4   0  -4 2143.30 34.4521  11
   4   0  -4 2182.30 34.6635   9
   4   0  -4 2133.23 37.2560   5
  -4   0   4 2158.94 38.8868  15
  -4   0   4 2207.31 37.7536   2
   4   0  -4 2196.11 37.9515  12
  -4   0   4 2161.49 36.3770  14
  -2   0   4 1291.70 23.4400  14
   2   0  -4 1345.30 22.5627  16
   2   0  -4 1285.86 23.4961   3
   2   0  -4 1307.23 23.8184  12
  -2   0   4 1312.79 21.3823   6
   2   0  -4 1282.89 22.9705   5
  -2   0   4 1300.71 23.3688   2
  -2   0   4 1288.63 22.3260   4
   0   0   4 822.876 16.2286  14
   0   0   4 795.605 14.1097   7
   0   0  -4 808.074 16.6277   3
   0   0   4 813.887 15.4227  10
   0   0  -4 792.532 16.3679  12
   0   0   4 797.228 14.9621   2
   0   0  -4 830.630 16.4969  16
   0   0   4 802.632 16.1526   4
   0   0   4 822.152 14.7838   6
   0   0  -4 800.872 15.5621   8
   2   0   4 10.5946 1.85631  14
  -2   0  -4 7.85611 2.28579  13
   2   0   4 7.56562 1.34964   7
  -2   0  -4 6.46220 2.13581   3
   2   0   4 8.71253 1.63829  10
  -2   0  -4 6.90925 1.89898  12
  -2   0  -4 7.61305 1.80790  16
   2   0   4 9.41424 1.98276   4
  -2   0  -4 9.43110 1.97380   8
   4   0   4 1794.77 33.2719   7
  -4   0  -4 1730.72 35.0773  16
   4   0   4 1704.62 33.1308  10
  -4   0  -4 1750.85 34.6009   8
  -4   0  -4 1771.82 35.9119   3
  -4   0  -4 1707.34 34.9443  12
   4   0   4 1702.41 34.3955   4
   6   0   4 11.0138 2.83646   7
  -6   0  -4 12.7649 3.45571  16
   6   0   4 10.5774 2.71385  10
  -6   0  -4 12.5921 3.44683  12
   6   0   4 9.79865 2.54029   4
  -6   0  -4 17.5561 4.12880   8
  -6   0  -4 6.39614 3.70181   3
   8   0   4 771.042 22.2447   7
   8   0   4 793.675 21.8778  10
  -8   0  -4 784.931 25.1699   3
  -8   0  -4 757.134 23.7882   8
  -8   0  -4 779.553 24.0407  12
 -11  -1   4 100.958 10.9195   8
  11  -1  -4 110.857 8.07656   7
 -11  -1   4 90.5914 8.81780  15
 -11   1   4 107.481 10.0058   8
  11   1  -4 94.4581 7.55411   7
 -11   1   4 86.1663 8.87948  15
  11   1  -4 103.632 7.36370   1
  -9  -1   4 92.0024 7.22171  15
   9  -1  -4 74.2532 5.62817   7
   9  -1  -4 74.3654 5.08610   1
  -9  -1   4 80.4032 7.81634   8
   9   1  -4 86.0690 5.68869   7
  -9   1   4 103.982 8.26057   8
  -9   1   4 81.2768 7.36804  15
   9   1  -4 79.9186 5.91375   1
  -7  -1   4 984.108 23.5913  15
   7  -1  -4 959.901 19.1575  11
   7  -1  -4 995.162 22.3326   5
   7  -1  -4 994.693 21.2878   1
  -7  -1   4 988.682 20.5001   2
  -7   1   4 999.288 23.9541   8
   7   1  -4 968.896 22.2462   1
  -7   1   4 984.700 23.6594  15
   7   1  -4 982.822 20.8568   7
  -7   1   4 956.213 20.0351   2
  -5  -1   4 9.92144 2.13537   2
   5  -1  -4 15.2415 1.60712  11
   5  -1  -4 12.9399 1.95901   1
  -5  -1   4 16.2128 2.81033  15
  -5  -1   4 13.1350 1.71092  14
   5  -1  -4 14.3633 2.34808   5
   5   1  -4 12.3556 1.60816   7
   5   1  -4 13.6076 1.93666   5
  -5   1   4 13.6849 2.90698  15
   5   1  -4 14.4393 2.76284  13
   5   1  -4 14.2266 1.20400   9
   5   1  -4 14.6000 2.23085   1
  -5   1   4 13.6086 1.33352  14
  -5   1   4 13.3696 1.95519   2
   3  -1  -4 849.383 17.0797   5
  -3  -1   4 847.409 14.9538   4
   3  -1  -4 846.622 17.1810  12
   3  -1  -4 864.584 14.9303  16
  -3  -1   4 868.238 16.9868   2
  -3  -1   4 865.718 16.6747  14
   3  -1  -4 835.013 14.8186  11
  -3   1   4 850.182 17.3462  15
   3   1  -4 847.402 14.4607   7
  -3   1   4 856.727 16.7199   2
   3   1  -4 869.444 15.0531  16
   3   1  -4 843.415 16.7289  12
  -3   1   4 862.756 16.2656  14
  -3   1   4 858.793 15.1642   6
   3   1  -4 869.068 15.7596   5
  -1  -1   4 355.286 8.42721   2
   1  -1  -4 373.599 9.11435   5
  -1  -1   4 371.811 7.94544  10
  -1  -1   4 363.801 8.96798  14
   1  -1  -4 365.250 8.67244  16
   1  -1  -4 359.469 8.74972   3
  -1  -1   4 363.874 8.61466   4
   1  -1  -4 372.482 9.31253  12
  -1   1   4 362.358 8.83739  14
  -1   1   4 374.693 8.39849   2
   1   1  -4 366.928 7.71598   5
  -1   1   4 375.337 8.62583   4
  -1   1   4 384.572 7.86554   6
   1   1  -4 393.091 8.91613  12
   1   1  -4 359.003 9.02083   3
   1   1  -4 382.818 8.90294  16
  -1   1   4 366.279 7.86903  15
   1  -1   4 157.021 5.53154  14
   1  -1   4 150.645 4.24931   7
   1  -1   4 144.669 5.66560   4
   1  -1   4 160.161 5.11084  10
  -1  -1  -4 156.595 6.11676  12
  -1  -1  -4 156.051 5.94081   3
  -1  -1  -4 151.770 5.90075  16
   1  -1   4 137.764 4.18810   2
  -1  -1  -4 151.706 4.91987   8
   1   1   4 153.631 5.72112   4
   1   1   4 155.032 5.37545  14
   1   1   4 148.134 4.83630   6
   1   1   4 145.381 3.96510   2
  -1   1  -4 145.618 5.43351  12
  -1   1  -4 152.237 5.97998  16
  -1   1  -4 145.072 5.96575   3
  -1   1  -4 142.400 5.44277   8
  -1   1  -4 141.705 6.50281  13
   1   1   4 147.877 5.09592  10
   1   1   4 148.669 4.60401   7
   3  -1   4 699.313 15.1502  14
  -3  -1  -4 707.474 17.2376  16
  -3  -1  -4 679.675 21.4011  13
   3  -1   4 722.816 16.0664  10
   3  -1   4 723.615 15.4491   7
  -3  -1  -4 714.619 17.7603   3
   3  -1   4 734.319 17.1258   4
  -3  -1  -4 700.964 17.4736  12
  -3  -1  -4 726.637 16.3526   8
  -3   1  -4 712.209 16.8697  12
   3   1   4 701.220 16.9416   4
  -3   1  -4 690.993 17.2440  16
  -3   1  -4 695.331 20.5221  13
   3   1   4 702.058 15.3537  14
   3   1   4 714.136 15.9543  10
   3   1   4 694.947 15.6898   7
  -3   1  -4 702.146 17.1262   8
  -3   1  -4 710.509 17.5735   3
   5  -1   4 3.79854 1.69829   7
  -5  -1  -4 7.53878 3.11304   8
  -5  -1  -4 4.59360 2.30824  16
   5  -1   4 1.88514 1.78891  10
  -5  -1  -4 5.13586 2.46783  12
  -5  -1  -4 2.27055 2.49215   3
   5  -1   4 4.15548 2.19049   4
  -5   1  -4 2.67266 2.46735   8
   5   1   4 3.33754 1.61481   7
   5   1   4 3.03758 1.87551  10
  -5   1  -4 6.22016 2.42004  12
  -5   1  -4 5.89796 2.54353  16
  -5   1  -4 1.90563 2.57238   3
  -7  -1  -4 70.1934 6.63735  16
   7  -1   4 65.8649 5.52946   7
  -7  -1  -4 63.8681 7.12645   8
  -7  -1  -4 74.4464 8.32027   3
  -7  -1  -4 73.8644 7.02600  12
   7  -1   4 57.1763 5.84894   4
   7  -1   4 71.4883 6.03544  10
  -7   1  -4 71.6188 8.01004   3
   7   1   4 66.9416 5.88753   7
   7   1   4 67.2502 5.80216  10
  -7   1  -4 69.5485 6.46311  12
  -7   1  -4 66.5659 6.45668  16
  -7   1  -4 69.5587 7.85560   8
   9  -1   4 99.2350 8.01490   7
  -9  -1  -4 102.136 9.30027  12
  -9  -1  -4 88.5992 9.81035   3
  -9   1  -4 99.1598 9.20125   8
   9   1   4 100.279 8.31494   7
  -9   1  -4 107.679 10.8916   3
 -12  -2   4 10.9877 5.76221   8
  12  -2  -4 -0.0423 1.87924   7
 -12   2   4 0.72846 3.75143  15
 -12   2   4 -0.0537 4.55061   8
 -12   2   4 3.73521 3.82598   3
  12   2  -4 0.18989 1.85940   7
  12   2  -4 -1.3162 2.41631   1
 -10  -2   4 5.85460 3.45672   8
  10  -2  -4 1.37160 2.46679   7
 -10  -2   4 1.24005 3.60872  15
  10   2  -4 6.07925 2.93712   1
 -10   2   4 4.64051 4.22938   8
 -10   2   4 0.05351 3.50729  15
  10   2  -4 6.38148 2.69959   7
   8  -2  -4 2.95972 2.07967   5
   8  -2  -4 4.66754 1.66591   1
  -8  -2   4 6.78644 3.34914  15
   8  -2  -4 6.99409 1.82496  11
  -8  -2   4 8.73068 2.80211   2
  -8   2   4 2.65307 2.65251   8
   8   2  -4 8.20530 2.23902   7
   8   2  -4 2.75725 1.96379   1
  -8   2   4 4.40340 3.07957  15
  -8   2   4 2.88101 1.62030   2
   6  -2  -4 891.297 18.5664   1
  -6  -2   4 852.975 17.0883  14
  -6  -2   4 894.478 21.3773  15
  -6  -2   4 907.102 19.1750   2
   6  -2  -4 899.074 17.6492  11
   6  -2  -4 911.573 20.3604   5
   6   2  -4 886.204 16.6879   9
  -6   2   4 907.263 18.5593   2
   6   2  -4 877.177 18.2341   7
   6   2  -4 931.057 20.6615   1
  -6   2   4 904.835 21.2034  15
   6   2  -4 862.822 23.6166  13
  -6   2   4 917.682 21.1738   8
   4  -2  -4 523.107 12.1969  12
  -4  -2   4 498.805 11.3429  14
   4  -2  -4 529.813 12.6782   5
  -4  -2   4 510.785 12.0562   2
   4  -2  -4 501.918 10.4977  11
  -4  -2   4 495.466 9.70380   4
   4  -2  -4 493.178 9.46218  16
   4   2  -4 521.168 12.6936   1
   4   2  -4 509.974 13.4398  13
  -4   2   4 505.551 11.6696   2
  -4   2   4 521.423 12.9000  15
   4   2  -4 516.433 10.3990   9
   4   2  -4 502.970 10.1558   7
  -4   2   4 495.435 10.6878  14
   2  -2  -4 8507.37 144.305  16
   2  -2  -4 8294.25 142.211  12
   2  -2  -4 8109.12 149.930   5
  -2  -2   4 8161.89 139.318   4
  -2  -2   4 8265.77 143.308  14
   2  -2  -4 8200.87 140.307   3
  -2  -2   4 8283.98 135.011  10
  -2   2   4 8328.05 141.500   2
   2   2  -4 8404.54 147.643   3
  -2   2   4 8295.06 139.892   6
   2   2  -4 8497.61 144.103  12
  -2   2   4 8282.36 142.571  14
  -2   2   4 8168.04 143.855  15
   2   2  -4 8281.83 145.578  16
   0  -2   4 168.878 5.95898  14
   0  -2  -4 165.768 4.10194   8
   0  -2  -4 173.447 6.32081  12
   0  -2  -4 172.109 5.68443   3
   0  -2   4 186.385 5.11023  10
   0  -2   4 174.921 4.69023  11
   0  -2  -4 184.312 6.20301  16
   0  -2   4 179.767 6.18163   4
   0  -2   4 171.888 3.88259   7
   0   2   4 174.289 5.22009   6
   0   2   4 176.806 4.99288   2
   0   2   4 173.227 4.90060   7
   0   2  -4 179.768 6.11529  16
   0   2  -4 173.425 5.59070  13
   0   2  -4 178.510 6.16568   3
   0   2   4 172.481 5.70169  14
   0   2  -4 168.355 5.33308  12
   0   2  -4 174.294 6.01570   8
   0   2   4 176.089 5.26545  10
  -2  -2  -4 3021.00 52.6757  12
   2  -2   4 3022.45 50.3885  10
   2  -2   4 2987.05 50.0535  11
  -2  -2  -4 2973.38 58.3773  13
   2  -2   4 2810.40 47.9364   2
   2  -2   4 3019.62 52.0815   4
  -2  -2  -4 2962.10 49.7428   8
  -2  -2  -4 3001.11 52.3426  16
   2  -2   4 2927.72 50.4288  14
   2  -2   4 2980.51 49.2138   7
  -2  -2  -4 3017.66 52.1425   3
   2   2   4 2990.52 50.2881   6
   2   2   4 3058.87 50.5713  10
   2   2   4 2959.37 50.2772   7
  -2   2  -4 2903.53 50.6859  12
  -2   2  -4 3004.32 52.2785   8
  -2   2  -4 2948.01 54.7586  13
  -2   2  -4 2992.00 52.3436  16
   2   2   4 2864.30 47.2531   2
   2   2   4 2975.02 50.7283  14
  -2   2  -4 2970.33 52.3172   3
   4  -2   4 91.2621 5.14871  11
  -4  -2  -4 98.9340 6.19054  16
   4  -2   4 96.0674 4.92946   7
   4  -2   4 88.7311 4.38530  14
  -4  -2  -4 96.0815 6.35705  12
  -4  -2  -4 89.7032 5.33192   8
   4  -2   4 92.9955 5.21335  10
  -4  -2  -4 97.8304 6.45889   3
   4  -2   4 88.8350 5.82789   4
  -4   2  -4 108.375 6.75304   3
  -4   2  -4 96.1207 6.09130  16
   4   2   4 82.1073 5.01234   7
   4   2   4 95.8732 5.21205  10
  -4   2  -4 98.3519 6.39256   8
  -4   2  -4 105.329 5.79355  12
   6  -2   4 192.944 8.57129   7
  -6  -2  -4 210.251 11.0649   3
  -6  -2  -4 197.589 9.83035  16
   6  -2   4 200.453 8.99153  10
  -6  -2  -4 205.681 9.82294   8
   6  -2   4 205.508 9.78049   4
  -6  -2  -4 217.233 10.9525  12
   6   2   4 192.778 9.22664   7
  -6   2  -4 198.799 9.92076  16
  -6   2  -4 212.693 11.0027   8
  -6   2  -4 202.864 9.66216  12
  -6   2  -4 192.990 10.5330   3
   6   2   4 217.161 9.07912  10
  -8  -2  -4 47.1193 7.38358   3
   8  -2   4 52.8645 6.07396   7
  -8  -2  -4 54.1643 7.57093  12
  -8   2  -4 61.6925 7.81384   8
   8   2   4 64.5455 6.97263   7
  -8   2  -4 33.2701 5.08640  12
   8   2   4 47.0549 5.31958  10
  -8   2  -4 58.2139 7.75077   3
 -11  -3   4 51.9675 7.24916  15
 -11  -3   4 57.4439 8.15091   8
  11  -3  -4 69.8174 7.61466   7
  11   3  -4 46.3595 5.51876   7
 -11   3   4 51.9705 8.08066   8
 -11   3   4 57.4246 7.85552  15
 -11   3   4 52.4635 6.52858   3
  11   3  -4 59.2024 6.76160   1
   9  -3  -4 137.687 6.61894  11
  -9  -3   4 121.382 9.22629   8
  -9  -3   4 128.822 8.87217  15
  -9   3   4 120.896 8.80618   8
  -9   3   4 129.692 9.16628  15
   9   3  -4 121.988 6.83385   7
   9   3  -4 122.337 7.70627   1
  -7  -3   4 65.2305 4.85196   2
   7  -3  -4 66.4422 5.22760   5
  -7  -3   4 69.1514 5.89598  15
   7  -3  -4 65.6138 3.93678  11
  -7   3   4 70.7978 5.96740  15
   7   3  -4 64.2053 5.08316   1
  -7   3   4 71.9723 4.34830   2
  -7   3   4 67.8096 6.19758   8
   7   3  -4 62.9134 4.10693   7
   7   3  -4 68.1755 3.38504   9
   5  -3  -4 261.695 8.93016   5
   5  -3  -4 226.536 6.65495   1
  -5  -3   4 237.784 8.08447   2
  -5  -3   4 215.961 6.21832   4
   5  -3  -4 231.539 7.65809  12
  -5  -3   4 226.597 7.17056  14
   5  -3  -4 232.124 6.82222  11
  -5   3   4 230.199 8.00193   8
  -5   3   4 232.059 7.39564   2
   5   3  -4 228.478 9.14850  13
   5   3  -4 238.782 8.53374   1
   5   3  -4 246.287 6.64316   9
   5   3  -4 225.396 6.53741   7
  -5   3   4 235.859 8.64731  15
   3  -3  -4 447.389 11.9380   5
   3  -3  -4 461.700 10.2180  11
  -3  -3   4 470.687 11.3938  14
  -3  -3   4 447.466 10.2101   4
   3  -3  -4 463.083 11.2142  12
   3   3  -4 470.199 11.6438   1
  -3   3   4 476.806 10.9246   2
  -3   3   4 452.717 10.4932  14
   3   3  -4 459.188 10.0089   9
   3   3  -4 434.216 8.61322   7
  -3   3   4 438.385 9.85329   8
   3   3  -4 463.648 10.1087  13
  -3   3   4 462.813 11.3544  15
  -3   3   4 469.978 10.2114   6
  -1  -3   4 501.686 9.65430  11
   1  -3  -4 508.659 12.7531   5
   1  -3  -4 499.489 10.6631   3
   1  -3  -4 520.410 11.9509  16
  -1  -3   4 499.538 9.86897  10
  -1  -3   4 487.263 11.7986   4
   1  -3  -4 520.636 12.3193  12
  -1  -3   4 503.916 12.1370  14
  -1   3   4 508.798 10.2973  15
   1   3  -4 514.482 11.8840   3
  -1   3   4 511.982 11.1202   2
   1   3  -4 526.302 12.1306  16
   1   3  -4 511.573 12.2439   8
   1   3  -4 516.700 10.5221  12
  -1   3   4 513.874 11.8278  14
  -1   3   4 505.013 11.0591   6
   1  -3   4 14.8233 2.17733  14
  -1  -3  -4 8.56239 2.20404  12
   1  -3   4 21.5610 2.81040   4
  -1  -3  -4 7.55248 0.98838   8
   1  -3   4 10.6095 1.62469  11
   1  -3   4 11.2624 1.62168  10
  -1  -3  -4 10.3981 2.06114  16
  -1  -3  -4 12.7224 2.14030   3
   1   3   4 9.77097 1.89017  14
  -1   3  -4 7.72247 1.98946   8
  -1   3  -4 10.2028 1.92811  16
  -1   3  -4 10.1285 2.14907   3
   1   3   4 7.57540 1.62882   6
  -1   3  -4 8.86293 1.52817  12
   1   3   4 7.79979 1.56140  10
   1   3   4 12.8857 1.81256   7
   1   3   4 12.1168 1.49880   2
  -3  -3  -4 554.937 14.8608   3
  -3  -3  -4 540.844 15.2227  12
   3  -3   4 512.770 12.2164   7
   3  -3   4 548.844 13.2261  10
   3  -3   4 536.898 13.1727  11
  -3  -3  -4 516.843 12.4260   8
   3  -3   4 524.958 14.3569   4
  -3  -3  -4 528.310 14.7234  16
   3  -3   4 507.608 12.6190  14
  -3   3  -4 540.982 14.9179  16
   3   3   4 524.079 13.0605   6
   3   3   4 537.514 13.1075  10
  -3   3  -4 533.859 15.0408   8
   3   3   4 530.045 13.4974   7
  -3   3  -4 506.396 12.8453  12
  -3   3  -4 556.402 14.9374   3
  -5  -3  -4 4.70870 2.18368  16
  -5  -3  -4 5.08755 2.99766   3
   5  -3   4 0.72672 2.25162   4
   5  -3   4 4.31572 2.11208  11
   5  -3   4 2.85404 1.74761   7
  -5  -3  -4 1.89094 2.77847  12
   5  -3   4 -0.8562 1.57834  10
  -5   3  -4 2.24920 2.19928  16
  -5   3  -4 1.36776 1.91345  12
  -5   3  -4 2.17096 2.65584   8
   5   3   4 6.12805 2.17190  10
   5   3   4 2.85176 1.76170   7
  -5   3  -4 1.70090 2.71424   3
   7  -3   4 11.5090 3.08792   7
  -7  -3  -4 9.37633 2.96602  16
   7  -3   4 13.8575 3.62932   4
  -7  -3  -4 9.60145 4.29599  12
  -7  -3  -4 13.1215 4.69627   3
  -7   3  -4 9.13836 4.12050   8
   7   3   4 10.6190 3.12342  10
  -7   3  -4 17.2020 4.83567   3
  -7   3  -4 8.13931 3.18403  16
   7   3   4 12.9638 3.51670   7
 -10  -4   4 880.281 27.5880   8
 -10  -4   4 860.220 25.2490  15
  10  -4  -4 835.866 22.8640   7
 -10   4   4 877.113 25.6348  15
 -10   4   4 847.804 32.4108   3
 -10   4   4 903.852 26.5601   8
  10   4  -4 849.644 22.7769   7
  10   4  -4 829.042 23.8227   1
   8  -4  -4 0.34078 1.09183  11
  -8  -4   4 8.10892 2.66292   2
  -8  -4   4 -0.7878 2.66228  15
   8  -4  -4 -1.2298 1.74981   5
   8   4  -4 0.74329 1.47669   1
  -8   4   4 0.22719 1.25341   2
  -8   4   4 1.74415 2.78770   8
  -8   4   4 -2.2149 1.50125  15
   8   4  -4 0.00316 1.20125   9
   8   4  -4 1.15664 1.35465   7
  -6  -4   4 1784.69 33.4904  14
  -6  -4   4 1846.20 34.8494   2
   6  -4  -4 1835.50 33.4014  11
   6  -4  -4 1807.13 36.0309   5
  -6   4   4 1827.61 33.6096   2
   6   4  -4 1810.37 32.6027   9
  -6   4   4 1822.27 36.6085  15
   6   4  -4 1782.88 33.1885   7
   6   4  -4 1842.54 36.4510   1
  -6   4   4 1747.71 35.1679   8
   4  -4  -4 603.408 15.2177   5
  -4  -4   4 581.553 13.9152  14
   4  -4  -4 583.792 13.1069  11
   4  -4  -4 569.057 13.4448  12
  -4  -4   4 571.786 12.7879   4
  -4   4   4 539.961 12.7476   8
  -4   4   4 596.890 13.4444   2
  -4   4   4 594.582 13.0627   6
   4   4  -4 577.218 12.7652   9
   4   4  -4 570.246 11.7819   7
  -4   4   4 572.586 14.4950  15
   4   4  -4 588.434 14.6294   1
   2  -4  -4 1899.99 32.7215   3
  -2  -4   4 1970.60 35.5590   4
   2  -4  -4 2008.90 37.2965   5
  -2  -4   4 2008.57 36.3581  14
   2  -4  -4 1972.25 35.0027  11
  -2  -4   4 1967.40 31.7903  10
   2  -4  -4 1972.44 35.5425  12
   2   4  -4 2004.32 34.5205   9
  -2   4   4 1996.66 34.8503  15
   2   4  -4 1985.09 35.1860   3
  -2   4   4 1990.84 34.9100   2
  -2   4   4 2006.21 34.7094   6
   2   4  -4 1998.89 35.6746   1
   0  -4  -4 1012.85 19.7280   3
   0  -4  -4 1050.96 21.7893  12
   0  -4   4 1043.13 19.3466  11
   0  -4   4 1045.67 21.6538  14
   0  -4  -4 1078.17 22.0810  16
   0  -4   4 1058.99 21.8954   4
   0  -4   4 1052.47 18.9985  10
   0  -4  -4 1079.71 23.0630   5
   0   4   4 1028.33 19.8031   2
   0   4  -4 1027.65 18.5786  12
   0   4   4 1050.51 20.1461   7
   0   4  -4 1096.80 22.2970  16
   0   4  -4 1039.54 21.0146   3
   0   4  -4 1034.69 21.8579   8
   0   4   4 1058.99 20.6525   6
   0   4   4 1059.03 20.0546  10
   2  -4   4 2350.04 41.0481  10
  -2  -4  -4 2399.32 44.2365  16
   2  -4   4 2363.15 41.3125  11
   2  -4   4 2371.42 43.8500   4
   2  -4   4 2374.43 42.2865  14
  -2  -4  -4 2383.34 44.2553  12
  -2  -4  -4 2325.23 42.4524   3
  -2   4  -4 2367.10 43.1878   3
  -2   4  -4 2281.29 40.2020  12
  -2   4  -4 2375.39 44.2039   8
   2   4   4 2377.71 41.3971  10
   2   4   4 2460.52 42.2372   6
  -2   4  -4 2320.12 44.0849  16
   2   4   4 2303.10 41.9589   7
   4  -4   4 59.4411 4.51723  11
  -4  -4  -4 59.8618 5.76545   3
   4  -4   4 58.2896 4.39441  10
  -4  -4  -4 52.4853 5.77447  12
   4  -4   4 53.1856 3.81296   7
  -4  -4  -4 56.3623 5.10968  16
   4  -4   4 57.3884 5.17004   4
   4   4   4 59.2894 4.31623  10
   4   4   4 62.1692 4.49087   7
  -4   4  -4 55.9564 5.55012   8
  -4   4  -4 63.8742 5.57900   3
   4   4   4 62.3702 4.50495   6
  -4   4  -4 56.5937 5.28297  16
  -6  -4  -4 1200.63 29.5240  16
   6  -4   4 1258.10 29.4151   4
  -6  -4  -4 1244.23 31.4708  12
   6  -4   4 1219.46 27.3668   7
  -6  -4  -4 1235.10 30.4940   3
   6  -4   4 1208.01 27.8525  11
   6   4   4 1226.42 27.0463  10
  -6   4  -4 1243.67 30.2028   3
  -6   4  -4 1193.99 29.7093  16
   6   4   4 1202.80 28.3669   7
  -6   4  -4 1229.36 31.1298   8
   8  -4   4 2.32853 2.72522   7
  -8  -4  -4 3.62224 3.98338   3
  -8  -4  -4 -1.8853 3.30480  12
  -8   4  -4 4.49224 3.96466   8
  -8   4  -4 1.21392 3.59775   3
   8   4   4 1.84813 2.29192  10
   8   4   4 0.97974 2.77675   7
  11  -5  -4 24.3726 4.81269   7
 -11  -5   4 25.1404 6.40830   8
  11   5  -4 36.9962 5.87159   1
 -11   5   4 25.6182 6.27363   8
 -11   5   4 23.5130 5.58465  15
  11   5  -4 28.9825 4.51703   7
   9  -5  -4 150.259 8.84799   5
   9  -5  -4 137.520 6.97928  11
  -9  -5   4 160.052 10.1925  15
   9   5  -4 138.988 7.38612   7
   9   5  -4 145.552 9.07758   1
  -9   5   4 148.334 9.79824  15
  -9   5   4 147.222 9.59957   8
   7  -5  -4 12.8127 2.51730  11
  -7  -5   4 11.6809 2.85642   2
   7  -5  -4 12.9205 3.17014   5
   7   5  -4 16.2232 2.38923   9
   7   5  -4 10.8698 2.78007   1
  -7   5   4 15.2120 2.55786   2
  -7   5   4 9.16065 2.89448   8
  -7   5   4 17.5725 3.91778  15
   7   5  -4 9.10178 2.07762   7
  -5  -5   4 1034.64 21.2466   4
   5  -5  -4 1068.48 24.1132   5
   5  -5  -4 1063.23 21.7596  12
   5  -5  -4 1055.08 21.8807  11
  -5  -5   4 1055.58 22.5943  14
  -5   5   4 1057.69 21.7826   6
  -5   5   4 1067.88 23.9501  15
   5   5  -4 1049.18 20.6211   7
  -5   5   4 1033.31 22.1234   8
  -5   5   4 1066.70 21.8382   2
   5   5  -4 1063.39 23.9550   1
   5   5  -4 1033.74 21.1851   9
   3  -5  -4 442.882 13.1779   5
  -3  -5   4 440.854 11.6931   4
   3  -5  -4 444.426 11.3741  11
  -3  -5   4 439.491 12.1886  14
   3  -5  -4 422.508 11.1150  12
  -3  -5   4 421.462 9.09873  11
  -3   5   4 439.340 11.7624  15
  -3   5   4 451.675 11.3627   2
   3   5  -4 447.213 12.0101   1
  -3   5   4 449.223 11.1625   6
   3   5  -4 438.402 10.8663   9
   1  -5  -4 932.518 21.1506   5
  -1  -5   4 887.726 16.8934  11
   1  -5  -4 884.936 19.1059  12
  -1  -5   4 911.100 19.8809   4
   1  -5  -4 879.550 19.4735  16
  -1  -5   4 898.505 19.9298  14
   1  -5  -4 868.954 16.7831   3
  -1   5   4 910.416 18.3399   2
   1   5  -4 875.502 18.4432   3
  -1   5   4 904.750 18.5529   6
   1   5  -4 876.005 18.3767   1
   1   5  -4 893.178 18.1783   9
  -1  -5  -4 1901.38 35.1465   3
   1  -5   4 1986.76 35.2872  11
   1  -5   4 1989.98 34.4497  10
  -1  -5  -4 2024.26 39.4411   5
   1  -5   4 2001.20 38.2947   4
  -1  -5  -4 2035.14 37.9775  12
   1  -5   4 1971.56 37.2294  14
  -1  -5  -4 2029.80 38.5435  16
   1   5   4 1992.59 35.4542  10
   1   5   4 1962.72 36.0413   7
  -1   5  -4 2011.07 36.7626   3
  -1   5  -4 2005.50 38.4544   8
   1   5   4 1974.45 36.3720   6
   3  -5   4 282.720 9.46713  14
  -3  -5  -4 287.224 11.0404  16
  -3  -5  -4 276.890 10.2203   3
  -3  -5  -4 315.500 11.5572  12
   3  -5   4 298.847 9.57670  11
   3  -5   4 286.532 9.03358  10
   3  -5   4 302.155 11.0637   4
  -3   5  -4 311.710 10.6465   3
   3   5   4 305.036 9.74111   6
  -3   5  -4 301.556 11.4359   8
   3   5   4 290.715 9.93265   7
  -3   5  -4 277.679 10.8891  16
   3   5   4 312.836 9.35113  10
  -5  -5  -4 724.358 21.3389  12
  -5  -5  -4 697.729 20.3255  16
   5  -5   4 740.994 20.3456   4
  -5  -5  -4 713.114 20.2724   3
   5  -5   4 722.353 18.7057  11
  -5   5  -4 698.093 19.6810   3
   5   5   4 697.009 17.6470  10
  -5   5  -4 725.842 21.5809   8
   5   5   4 710.822 18.3877   6
   5   5   4 710.539 19.1343   7
  -5   5  -4 685.532 20.1664  16
   7  -5   4 158.241 8.70990   7
   7  -5   4 168.413 9.26988   4
  -7  -5  -4 153.758 10.8072  12
  -7  -5  -4 155.448 10.6201   3
   7  -5   4 154.993 8.96853  11
  -7   5  -4 181.643 11.4992   8
   7   5   4 142.750 8.91522   7
  -7   5  -4 153.809 10.1350   3
   7   5   4 157.954 8.27409  10
 -10  -6   4 135.724 10.9311   8
  10  -6  -4 157.113 8.24733  11
 -10  -6   4 158.997 12.2669  15
  10   6  -4 153.825 9.92716   1
 -10   6   4 150.485 10.5343  15
 -10   6   4 134.668 10.1015   8
  10   6  -4 143.824 8.40712   7
  -8  -6   4 541.401 15.6074   2
   8  -6  -4 566.740 15.6810  11
  -8  -6   4 561.594 18.4312  15
   8  -6  -4 508.524 17.3077   5
   8   6  -4 558.987 18.0252   1
  -8   6   4 540.917 14.5602   2
  -8   6   4 520.501 17.8839  15
   8   6  -4 513.356 14.8468   7
  -8   6   4 508.251 16.9792   8
   8   6  -4 525.059 13.9550   9
  -6  -6   4 61.9618 4.90645  14
   6  -6  -4 52.9058 4.90201   5
   6  -6  -4 57.6277 4.73648  11
  -6   6   4 56.0236 4.94069   8
   6   6  -4 60.7798 5.00320   1
   6   6  -4 60.3494 4.03059   7
   6   6  -4 56.1999 4.06573   9
  -6   6   4 60.8613 4.41927   2
  -6   6   4 57.7419 5.25392  15
  -6   6   4 65.0935 4.75618   6
   4  -6  -4 2518.67 45.3931  11
  -4  -6   4 2519.00 46.5557  14
  -4  -6   4 2509.25 45.6285   4
   4  -6  -4 2484.50 44.4070  12
   4  -6  -4 2535.16 47.7468   5
   4   6  -4 2470.69 42.8351   7
   4   6  -4 2528.95 44.7402   9
  -4   6   4 2538.73 45.2015   2
   4   6  -4 2531.09 46.8357   1
  -4   6   4 2532.24 45.0757   6
  -4   6   4 2570.76 46.8388  15
   2  -6  -4 16.7247 2.73821  12
  -2  -6   4 15.0665 2.90611  14
   2  -6  -4 14.2417 3.26760   5
  -2  -6   4 17.6998 2.10884  11
   2  -6  -4 17.3224 2.68282  11
  -2  -6   4 18.9397 2.89383   4
   2   6  -4 15.9039 2.40643   1
  -2   6   4 16.7243 2.45257   2
  -2   6   4 13.5712 2.22305  15
   2   6  -4 17.7220 2.45388   9
  -2   6   4 30.3101 2.69127   6
   0  -6   4 3123.85 55.8554   4
   0  -6   4 3040.09 52.0912  11
   0  -6   4 3045.78 55.1073  14
   0  -6  -4 3149.22 57.1261   5
   0  -6  -4 3103.50 54.4274  12
   0  -6  -4 3012.93 55.5271  16
   0   6   4 3060.72 52.1004  10
   0   6   4 3179.02 53.8768   6
   0   6  -4 2981.35 52.2122   1
   0   6  -4 3143.48 55.6117   8
   0   6  -4 3048.82 53.0348   9
   0   6  -4 3102.85 53.1275   3
   2  -6   4 52.5405 5.65290   4
  -2  -6  -4 59.2498 4.76830  16
   2  -6   4 43.5546 3.77858  11
  -2  -6  -4 45.6227 5.56085   5
   2  -6   4 46.8255 4.32063  14
  -2  -6  -4 51.4293 5.39223  12
  -2   6  -4 39.4045 4.82288   8
   2   6   4 47.6887 3.99405   6
   2   6   4 47.7967 3.98117   7
   2   6   4 42.8709 3.28689  10
  -2   6  -4 46.7276 4.44104   3
  -4  -6  -4 874.230 23.1944  16
   4  -6   4 865.807 20.6947  11
  -4  -6  -4 862.717 21.5339   3
   4  -6   4 878.021 22.8875   4
  -4  -6  -4 850.594 23.1847  12
   4   6   4 855.580 19.6878  10
   4   6   4 854.914 20.5825   6
  -4   6  -4 861.758 23.5393   8
   4   6   4 881.275 21.5380   7
  -4   6  -4 856.076 21.3098   3
  -6  -6  -4 187.141 11.4390  12
   6  -6   4 187.043 9.34696  11
   6  -6   4 184.734 8.79869   7
   6  -6   4 191.464 9.92067   4
  -6  -6  -4 197.571 10.7135   3
   6   6   4 142.978 8.62113  10
  -6   6  -4 194.399 10.5845   3
   6   6   4 180.898 9.61749   7
  -6   6  -4 200.627 11.6063   8
  -8   6  -4 189.485 15.1858   8
   8   6   4 149.283 9.73897   7
  -9  -7   4 255.410 13.2172  15
   9  -7  -4 282.546 12.8574   5
   9  -7  -4 271.486 11.0784  11
   9   7  -4 241.562 9.35085   9
   9   7  -4 245.266 10.3640   7
   9   7  -4 255.048 12.2748   1
  -9   7   4 234.695 11.8921   8
  -9   7   4 261.668 13.1939  15
   7  -7  -4 65.4899 5.62233  11
   7  -7  -4 55.5728 6.29958   5
  -7   7   4 59.9126 5.68248   8
  -7   7   4 56.3791 4.83110   6
   7   7  -4 58.6794 4.67065   9
   7   7  -4 65.5805 5.98884   1
   7   7  -4 58.5978 4.48436   7
  -7   7   4 58.9193 4.70332   2
  -7   7   4 65.6499 6.29819  15
  -5  -7   4 391.001 12.9550  14
   5  -7  -4 405.034 14.0545   5
  -5  -7   4 411.106 12.6166   4
   5  -7  -4 406.605 12.6227  11
   5  -7  -4 390.729 12.1332   4
   5   7  -4 400.427 11.8753   9
  -5   7   4 399.025 11.8475   2
  -5   7   4 404.952 12.3177   6
   5   7  -4 397.267 10.8058   7
   5   7  -4 404.062 13.3810   1
  -5   7   4 423.389 13.7915  15
   3  -7  -4 29.7077 3.86150  11
  -3  -7   4 27.5339 3.96377   4
   3  -7  -4 22.6955 3.03141  12
   3  -7  -4 24.2458 4.25244   5
  -3   7   4 23.9942 3.16134   2
  -3   7   4 28.6585 3.59280  15
   3   7  -4 25.2572 3.39017   1
   3   7  -4 28.6379 3.16830   9
  -3   7   4 34.4342 3.57400   6
   1  -7  -4 18.4872 3.81787   5
   1  -7  -4 18.9651 3.08418  11
  -1  -7   4 15.6414 2.40981  11
  -1  -7   4 13.9301 3.20741   4
   1  -7  -4 14.4549 2.62056  12
  -1  -7   4 18.2936 3.49021  14
   1   7  -4 17.3671 2.56897   1
  -1   7   4 18.8852 2.65928   6
  -1   7   4 15.0886 2.14808  15
   1   7  -4 18.5440 2.74100   9
  -1  -7  -4 100.119 6.20794  16
  -1  -7  -4 100.688 6.04661  12
   1  -7   4 102.103 6.36364  14
   1  -7   4 99.6169 5.21748  11
  -1  -7  -4 95.8899 6.94904   5
   1  -7   4 88.3453 6.67976   4
  -1   7  -4 95.6566 6.36362   8
   1   7   4 89.2108 4.53347  10
  -1   7  -4 92.8469 5.03008   3
   1   7   4 99.2838 5.60658   6
  -1   7  -4 94.2579 5.25978   9
   3  -7   4 16.5199 3.27468  11
   3  -7   4 20.0848 4.38583   4
  -3  -7  -4 15.2654 3.91320   5
  -3  -7  -4 13.7542 3.66582  12
  -3  -7  -4 16.1930 3.50438  16
   3  -7   4 15.6232 3.14990  14
   3   7   4 11.5156 2.50059   7
   3   7   4 13.2661 2.40250  10
   3   7   4 10.8451 2.33604   6
  -3   7  -4 17.3072 3.85915   8
  -3   7  -4 17.4439 3.04420   3
   5  -7   4 68.5425 7.02891   4
   5  -7   4 74.2302 6.11758  11
  -5  -7  -4 64.2164 5.99370  16
  -5  -7  -4 74.7225 7.93082  12
  -5   7  -4 67.4248 7.56238   8
   5   7   4 84.2413 6.19185   6
   5   7   4 66.1213 6.43737   7
   7  -7   4 14.1970 4.12682   4
   7  -7   4 10.0157 3.73746  11
  -7  -7  -4 20.5399 5.64477  12
   7   7   4 16.3750 4.07388   7
  -7   7  -4 15.3264 5.04446   8
  10  -8  -4 110.220 7.59829  11
 -10  -8   4 69.7762 8.41165   8
  10   8  -4 109.014 9.02462   1
 -10   8   4 94.3938 7.92495   6
 -10   8   4 87.9168 9.46311  15
   8  -8  -4 180.793 10.5008   5
   8  -8  -4 167.663 8.74289  11
   8   8  -4 175.975 8.21231   9
   8   8  -4 175.177 9.98760   1
  -8   8   4 176.245 10.9099  15
   8   8  -4 164.081 7.94341   7
  -8   8   4 161.255 8.63018   6
   6  -8  -4 41.1328 4.81698  11
   6  -8  -4 32.5244 5.20242   5
  -6  -8   4 40.5484 5.20430  14
   6   8  -4 37.8184 5.10192   1
  -6   8   4 37.2387 4.74008   6
   6   8  -4 40.0443 4.46621   9
   6   8  -4 37.4793 3.81009   7
  -6   8   4 41.6525 5.52285  15
   4  -8  -4 250.093 9.94776  11
  -4  -8   4 242.150 9.94203   4
   4  -8  -4 225.678 10.6888   5
  -4   8   4 252.664 10.3091  15
   4   8  -4 235.793 9.62372   1
  -4   8   4 224.909 9.18474   6
   4   8  -4 235.443 8.99856   9
  -2  -8   4 10.3381 2.16768  11
   2  -8  -4 14.3314 3.28412   5
   2  -8  -4 13.1455 2.85740  11
  -2  -8   4 8.25253 3.28361   4
   2   8  -4 10.5373 2.24098   1
   2   8  -4 8.87926 2.27607   9
  -2   8   4 13.4768 1.98265   9
  -2   8   4 14.0954 2.70393   6
  -2   8   4 13.7794 2.49087  15
   0  -8   4 329.918 12.2820  14
   0  -8  -4 339.498 13.1740   5
   0  -8  -4 323.593 10.7636  12
   0  -8  -4 320.560 12.1071  16
   0  -8   4 334.073 12.4502   4
   0  -8   4 334.249 10.1647  11
   0   8   4 331.581 11.0421   6
   0   8   4 323.417 9.30363  10
   0   8  -4 332.903 10.6483   9
  -2  -8  -4 8.47558 3.57506   5
   2  -8   4 4.76168 2.19841  14
   2  -8   4 7.06157 2.17462  11
  -2  -8  -4 6.08706 2.32233  16
  -2  -8  -4 9.94014 3.16205  12
   2  -8   4 11.4645 4.05623   4
   2   8   4 6.31704 2.33165   6
  -2   8  -4 9.22581 3.13139   8
  -2   8  -4 5.26999 2.24040   9
   4  -8   4 388.845 13.2100  11
  -4  -8  -4 390.603 16.5874   5
   4  -8   4 399.622 15.6130   4
  -4  -8  -4 371.063 14.8004  12
  -4  -8  -4 364.753 14.7816  16
   4   8   4 374.362 13.3684   7
  -4   8  -4 375.223 15.3250   8
   4   8   4 399.695 13.3872   6
  -4   8  -4 379.462 12.1279   9
  -6  -8  -4 17.5565 5.20222  12
   6  -8   4 5.15268 3.48465   4
   6  -8   4 8.02785 3.02565  11
   6   8   4 7.60795 3.18748   6
  -6   8  -4 9.68507 4.07934   8
   6   8   4 14.2392 3.84710   7
   9  -9  -4 17.2455 3.99837  11
   9  -9  -4 17.0398 3.94999   5
   9   9  -4 14.5485 3.33872   9
   9   9  -4 15.5877 4.28856   1
  -9   9   4 19.8825 4.54056   6
  -9   9   4 24.1289 5.19578  15
   7  -9  -4 128.230 8.60543   5
   7  -9  -4 121.815 7.64665  11
  -7  -9   4 84.2077 9.08109  14
   7   9  -4 111.039 8.10898   1
  -7   9   4 116.548 7.46602   6
   7   9  -4 116.076 7.15389   9
  -7   9   4 128.242 8.96225  15
   5  -9  -4 0.46494 2.90211   5
   5  -9  -4 0.20168 2.78426  11
  -5  -9   4 1.71496 2.28917   4
   5  -9  -4 0.35486 1.92854   4
  -5  -9   4 -2.0676 2.35212  14
   5   9  -4 0.20158 1.70863   9
  -5   9   4 5.21866 2.80440  15
  -5   9   4 0.04307 1.83529   6
   5   9  -4 -0.1533 1.86491   1
   3  -9  -4 48.0791 5.49868  11
   3  -9  -4 36.2418 5.60332   5
  -3  -9   4 31.6424 4.67111   4
   3   9  -4 42.7283 4.56227   9
  -3   9   4 39.6506 4.41291   6
   3   9  -4 36.4944 4.35631   1
  -3   9   4 40.5551 4.52029  15
  -1  -9   4 8.17886 3.10256  14
  -1  -9   4 7.03111 2.34984  11
  -1  -9   4 12.8445 3.67199   4
   1  -9  -4 7.46293 2.90847  11
   1  -9  -4 2.48835 3.14784   5
  -1   9   4 4.18916 2.23944   6
  -1   9   4 6.46515 1.85654   9
   1   9  -4 11.8827 2.73865   9
  -1  -9  -4 2.19254 1.95257  16
   1  -9   4 8.09577 3.29582  14
   1  -9   4 5.56701 3.59747   4
  -1  -9  -4 4.76123 3.50952   5
   1  -9   4 5.17921 2.33881  11
   1   9   4 3.95842 2.17537   6
  -1   9  -4 7.15124 2.28530   9
  -1   9  -4 2.36808 2.41495   8
   3  -9   4 41.4110 5.32433  14
   3  -9   4 52.4361 5.75813  11
  -3  -9  -4 42.6142 6.43567  16
  -3  -9  -4 46.0290 5.86691  12
   3  -9   4 48.1805 6.28860   4
  -3  -9  -4 42.9268 6.45424   5
   3   9   4 47.9016 5.54765   6
  -3   9  -4 46.4048 6.39791   8
  -3   9  -4 51.7912 5.22929   9
  -5  -9  -4 3.94830 3.74105  12
   5  -9   4 4.31531 3.03151   4
  -5  -9  -4 6.73494 3.23563   5
   5  -9   4 9.83556 3.43348  11
   5   9   4 2.57443 2.55348   7
   5   9   4 3.79689 2.82656   6
  -5   9  -4 1.19258 2.98085   8
   8 -10  -4 141.479 9.45261   5
   8 -10  -4 142.647 9.16866  11
   8  10  -4 146.525 8.36537   9
   8  10  -4 146.272 9.79531   1
  -8  10   4 145.240 8.87382   6
  -8  10   4 156.800 10.3869  15
   6 -10  -4 650.508 20.8477   5
  -6 -10   4 654.229 20.6484  14
   6 -10  -4 656.420 19.7159  11
   6  10  -4 631.009 18.1803   9
  -6  10   4 677.996 21.0595  15
  -6  10   4 657.557 19.5538   6
   6  10  -4 657.922 19.9680   1
   4 -10  -4 31.9304 5.38755   5
   4 -10  -4 33.5072 5.12089   4
   4 -10  -4 33.0182 5.25770  11
  -4 -10   4 36.6632 5.74337   4
  -4  10   4 31.3631 4.66976   6
   4  10  -4 32.8828 4.49754   9
  -4  10   4 33.1525 4.74038  15
  -2 -10   4 798.179 22.9874   4
   2 -10  -4 817.031 21.8694  11
  -2 -10   4 782.942 22.8813  14
   2 -10  -4 797.000 22.9887   5
   2  10  -4 801.645 20.7038   9
  -2  10   4 786.488 20.7546   6
   0 -10   4 -2.3323 3.21277   4
   0 -10  -4 -1.6699 2.19468  11
   0 -10   4 2.93013 2.87883  14
   0 -10  -4 8.07695 3.90112   5
   0 -10   4 0.97737 1.58117  11
   0 -10  -4 2.54603 1.61597  16
   0  10  -4 1.45085 1.94941   9
   0  10   4 -1.3140 1.74944   6
   2 -10   4 450.896 16.1702  14
   2 -10   4 445.631 17.0105   4
   2 -10   4 425.870 14.0842  11
  -2 -10  -4 431.239 17.4376   5
  -2  10  -4 431.976 13.9117   9
   2  10   4 434.111 14.4334   6
  -2  10  -4 450.712 16.6133   8
   4 -10   4 10.8741 2.94071  11
  -4 -10  -4 7.63864 4.20862   5
   4 -10   4 9.05764 4.62865   4
   4  10   4 4.01797 2.83115   6
  -4  10  -4 5.31910 3.38782   8
   7 -11  -4 232.565 11.6968  11
   7 -11  -4 216.285 11.7903   5
  -7  11   4 204.894 11.2603   6
   7  11  -4 217.220 11.5189   1
  -7  11   4 219.733 11.7897  15
   7  11  -4 222.534 10.6116   9
   5 -11  -4 169.418 10.5433   5
   5 -11  -4 163.786 9.87324  11
  -5 -11   4 171.422 10.8228  14
  -5 -11   4 178.856 10.6581   4
   5 -11  -4 160.054 9.95524   4
  -5  11   4 166.461 9.51650   6
  -5  11   4 171.811 9.86653  15
   5  11  -4 168.313 9.23258   9
   3 -11  -4 326.424 13.4230  11
  -3 -11   4 306.752 13.8585  14
   3 -11  -4 332.467 14.4269   4
  -3 -11   4 315.840 14.2471   4
   3 -11  -4 307.122 13.9733   5
  -3  11   4 297.594 12.1948   6
   3  11  -4 307.805 12.2903   9
   1 -11  -4 266.727 12.3586  11
  -1 -11   4 250.399 13.3550   4
  -1 -11   4 269.820 12.7876  14
   1 -11  -4 257.218 13.3155   5
  -1  11   4 247.709 10.9683   6
   1  11  -4 270.245 11.2976   9
   1 -11   4 196.508 11.2429  14
   1 -11   4 190.070 9.09462  11
   1 -11   4 183.456 11.2709   4
  -1 -11  -4 200.624 10.9189  11
  -1 -11  -4 182.730 11.8558   5
   1  11   4 192.631 9.48045   6
  -1  11  -4 190.139 9.18509   9
  -3 -11  -4 218.279 13.3232   5
   3 -11   4 202.374 10.1156  11
   3 -11   4 202.111 11.9809   4
  -3 -11  -4 226.361 11.7997  11
  -3  11  -4 215.040 11.6962   8
   3  11   4 210.779 10.0608   6
  -3  11  -4 202.406 9.74353   9
   6 -12  -4 1.13465 3.28689   5
   6 -12  -4 -0.9434 3.51923  11
  -6 -12   4 -0.1572 3.31119  14
   6  12  -4 1.26833 2.74802   9
  -6  12   4 -0.9193 2.77447   6
  -6  12   4 1.64916 1.65231  15
  -4 -12   4 199.730 11.8432   4
   4 -12  -4 202.747 11.7135   5
  -4 -12   4 195.493 12.1276  14
   4 -12  -4 198.698 11.3991  11
   4 -12  -4 209.054 11.3712   4
   4  12  -4 203.113 10.4396   9
  -4  12   4 221.395 10.5962   6
  -2 -12   4 28.4390 5.25339   4
  -2 -12   4 29.6051 5.47686  14
   2 -12  -4 22.2868 5.06746  11
   2 -12  -4 34.9800 6.20183   4
   2 -12  -4 21.6190 5.18177   5
  -2  12   4 20.5782 3.76671   6
   2  12  -4 28.4472 4.65108   9
   0 -12   4 278.788 13.4445  14
   0 -12  -4 267.726 13.1180  11
   0 -12  -4 287.604 14.4703   5
   0 -12   4 280.703 14.9579   4
   0  12   4 250.513 11.5659   6
   0  12  -4 268.576 11.6189   9
   2 -12   4 38.1543 7.34684   4
   2 -12   4 42.8920 6.63116  14
   2 -12   4 35.9189 5.29225  11
  -2 -12  -4 40.0922 7.01229   5
  -2 -12  -4 46.2271 6.50786  11
  -2  12  -4 41.2682 5.21696   9
   2  12   4 39.2334 5.58631   6
  -3 -13   4 37.7323 6.75745   4
   3 -13  -4 32.1490 6.29606  11
   3 -13  -4 33.5351 5.79943   4
  -3 -13   4 34.0180 6.51545  14
   3  13  -4 31.2947 5.13224   9
  -3  13   4 36.1717 5.35315   6
   1 -13  -4 27.3672 5.95489  11
   1 -13  -4 27.7550 5.81084   5
   1 -13  -4 37.4452 7.07017   4
  -1 -13   4 31.5741 5.88691  14
  -1 -13   4 28.1919 6.58241   4
  -1  13   4 24.9114 4.78123   6
   1  13  -4 39.3654 5.10484   9
 -12   0   5 0.46637 4.41332   8
  12   0  -5 5.45870 3.00893   7
 -12   0   5 0.91583 4.27813  15
  10   0  -5 -2.0115 1.73818   7
  10   0  -5 1.33603 1.72251   1
 -10   0   5 0.04114 3.58687  15
 -10   0   5 -2.5544 2.11165   8
   8   0  -5 1.28454 1.69893   1
  -8   0   5 -0.9124 2.70175  15
   8   0  -5 1.40182 1.53504   7
  -8   0   5 5.51847 2.29423   2
   6   0  -5 1.98065 1.79983  13
  -6   0   5 1.39926 0.91163  14
  -6   0   5 0.49405 1.80555   2
   6   0  -5 -0.3215 1.10577   1
  -6   0   5 -1.7172 1.74820  15
   6   0  -5 0.73573 0.85678   7
   6   0  -5 1.76964 1.29049   5
   4   0  -5 1.80424 1.31670   5
  -4   0   5 0.60077 0.48573   6
  -4   0   5 2.86172 1.05734  14
  -4   0   5 1.62164 1.73638   2
  -4   0   5 -1.0525 1.15109  15
   4   0  -5 2.84830 1.36149  12
   4   0  -5 2.81054 0.55118  16
  -2   0   5 0.37859 1.26341   2
   2   0  -5 0.62584 0.81346   3
   2   0  -5 1.93061 1.07755   5
  -2   0   5 2.59162 1.43779  14
   2   0  -5 2.34941 0.98301  16
  -2   0   5 2.94162 0.65963   6
  -2   0   5 1.14057 0.62689   4
   2   0  -5 1.34705 1.24507  12
   0   0   5 1.32876 0.47877   7
   0   0  -5 0.82991 0.91931   8
   0   0  -5 -0.1980 1.33134   3
   0   0   5 0.99084 0.86075   4
   0   0   5 1.74859 0.98092  10
   0   0   5 0.25452 0.88918  14
   0   0  -5 1.52076 1.36170  16
   0   0   5 5.22203 1.30367   2
   0   0   5 1.53176 0.77884   6
   0   0  -5 3.94344 1.67501  12
   2   0   5 -0.7775 1.10554  10
  -2   0  -5 0.32599 1.54601  16
   2   0   5 1.64208 1.54299   4
  -2   0  -5 1.68575 2.00122   3
  -2   0  -5 0.55350 1.37926  13
  -2   0  -5 4.19947 1.96268  12
   2   0   5 0.81544 0.86668  14
   2   0   5 0.81350 0.84621   7
  -4   0  -5 0.44079 1.65728   3
  -4   0  -5 -3.1162 1.33235  12
   4   0   5 -0.6377 1.09607   4
   4   0   5 0.14756 0.98583  10
   4   0   5 -0.5404 1.07941   7
   4   0   5 2.01934 1.21266  14
  -4   0  -5 0.21695 1.87641   8
  -4   0  -5 0.15634 2.05597  16
   6   0   5 1.95216 2.17883  10
  -6   0  -5 0.89202 2.39333  12
   6   0   5 0.35108 1.21461   7
  -6   0  -5 4.67117 2.69572   8
  -6   0  -5 -1.6044 2.97630   3
  -6   0  -5 0.90933 2.60460  16
  -8   0  -5 3.39010 4.59671   3
   8   0   5 -5.3983 2.14346  10
   8   0   5 1.36559 2.68731   7
  -8   0  -5 -1.3406 3.00901  12
  11  -1  -5 499.982 16.5994   7
 -11  -1   5 472.777 18.5984  15
 -11  -1   5 487.467 19.9289   8
 -11   1   5 445.386 17.6516  15
  11   1  -5 446.697 15.5385   1
 -11   1   5 480.033 19.7221   8
  11   1  -5 461.717 16.2410   7
  -9  -1   5 49.7422 6.87333   8
  -9  -1   5 48.5033 6.55521  15
  -9  -1   5 35.6393 4.00210   2
   9  -1  -5 47.3828 4.92540   7
   9  -1  -5 41.0049 4.49600   1
  -9   1   5 38.1030 5.78031   8
  -9   1   5 42.1468 4.36147   2
   9   1  -5 49.6269 5.44269   1
  -9   1   5 43.0967 6.30436  15
   9   1  -5 43.0396 4.59584   7
  -7  -1   5 1474.99 32.3587  15
   7  -1  -5 1469.24 30.3782   5
   7  -1  -5 1474.04 29.6452   1
  -7  -1   5 1466.33 29.1680   2
  -7   1   5 1493.16 28.9053   2
   7   1  -5 1487.20 30.7875   1
  -7   1   5 1501.22 32.3190  15
   7   1  -5 1483.63 28.3382   7
   5  -1  -5 14.7008 1.26136  11
  -5  -1   5 15.3321 2.45849   2
  -5  -1   5 15.6663 2.21868  14
   5  -1  -5 12.5443 2.29269   5
  -5  -1   5 13.7654 2.76135  15
   5  -1  -5 13.0588 2.10353   1
   5  -1  -5 15.2151 2.41330  12
  -5   1   5 18.3095 2.74117   2
  -5   1   5 20.3493 3.35514  15
   5   1  -5 14.1242 2.32713  12
   5   1  -5 14.8492 1.58223   7
   5   1  -5 16.6572 1.39763   9
   5   1  -5 18.5669 3.16300  13
  -5   1   5 13.0105 1.78108  14
   5   1  -5 14.9037 2.44454   1
   5   1  -5 16.0284 2.07669   5
   3  -1  -5 1876.96 34.0530  12
   3  -1  -5 1884.34 31.6165  16
   3  -1  -5 1857.83 33.6113   5
   3  -1  -5 1865.16 33.0940   3
  -3  -1   5 1871.09 33.3943  14
  -3  -1   5 1929.27 33.7609   2
   3  -1  -5 1818.79 30.6870  11
  -3  -1   5 1861.17 31.5524   4
   3   1  -5 1886.68 31.8509   5
  -3   1   5 1895.45 33.1315  14
  -3   1   5 1852.31 31.0951   6
   3   1  -5 1867.51 33.6791   3
  -3   1   5 1822.41 33.6160  15
   3   1  -5 1918.68 33.7076  12
   3   1  -5 1893.60 31.8067  16
  -3   1   5 1876.66 33.2432   2
   1  -1  -5 248.720 7.35620  16
   1  -1  -5 245.332 7.45685   3
  -1  -1   5 253.368 7.63051  14
  -1  -1   5 242.745 7.17270   4
  -1  -1   5 230.732 6.84300   2
   1  -1  -5 222.915 7.23368   5
   1  -1  -5 237.775 7.80410  12
  -1  -1   5 240.653 6.44615  10
   1   1  -5 235.029 6.22069   5
  -1   1   5 231.432 5.96105  15
  -1   1   5 240.762 6.65291  10
  -1   1   5 248.352 7.45247  14
   1   1  -5 233.905 7.21616  12
   1   1  -5 248.303 7.46697  16
  -1   1   5 244.231 6.72964   2
  -1   1   5 246.342 6.15141   6
   1   1  -5 246.997 7.75926   3
  -1   1   5 242.995 7.07770   4
   1  -1   5 670.783 14.2963  10
  -1  -1  -5 642.763 15.5903   3
  -1  -1  -5 641.151 18.8035  13
   1  -1   5 643.888 15.3374   4
  -1  -1  -5 652.572 15.6847  12
   1  -1   5 639.774 12.6129   7
   1  -1   5 662.176 14.9118  14
  -1  -1  -5 623.723 13.6977   8
  -1  -1  -5 649.516 15.6114  16
   1  -1   5 622.110 12.6658   2
  -1   1  -5 652.359 15.0161   8
   1   1   5 616.159 12.3188   2
  -1   1  -5 661.516 15.2202  12
   1   1   5 629.363 14.6269  14
   1   1   5 642.314 15.3773   4
  -1   1  -5 668.836 15.8850   3
   1   1   5 626.713 13.1281   7
  -1   1  -5 647.265 15.6289  16
   1   1   5 665.268 13.8415   6
   1   1   5 651.146 14.3382  10
  -1   1  -5 647.717 17.3256  13
   3  -1   5 304.634 9.72746  10
   3  -1   5 321.710 10.9197   4
   3  -1   5 307.193 8.96442   7
   3  -1   5 302.320 9.19939  14
  -3  -1  -5 314.057 11.1969  12
  -3  -1  -5 306.425 11.0351  16
  -3  -1  -5 330.905 11.6007   3
  -3  -1  -5 302.269 9.74673   8
   3   1   5 311.155 9.37657   7
  -3   1  -5 308.284 10.5354  12
  -3   1  -5 304.727 11.0289  16
  -3   1  -5 301.028 11.2610   3
   3   1   5 302.925 10.5721   4
   3   1   5 302.945 9.38819  14
  -3   1  -5 312.020 10.6315   8
   3   1   5 324.952 9.97743  10
  -3   1  -5 291.534 13.0583  13
  -5  -1  -5 139.331 7.77053   8
  -5  -1  -5 137.447 8.43397   3
   5  -1   5 132.621 6.79401   7
   5  -1   5 123.024 6.86830  10
  -5  -1  -5 125.909 8.09433  12
   5  -1   5 129.787 7.55069   4
  -5  -1  -5 117.605 8.05924  16
   5   1   5 132.813 7.01709   7
  -5   1  -5 133.307 8.89336   3
  -5   1  -5 124.068 8.00913  16
  -5   1  -5 129.240 8.08526   8
   5   1   5 123.354 6.74527  10
  -5   1  -5 120.788 7.70253  12
  -7  -1  -5 79.0756 7.59053  12
   7  -1   5 75.0578 6.46917  10
   7  -1   5 73.8156 5.93684   7
  -7  -1  -5 85.8186 8.90593   3
   7   1   5 71.3801 6.39441   7
  -7   1  -5 67.3435 7.37187  12
  -7   1  -5 76.5450 8.81544   3
   7   1   5 71.7717 6.97407  10
  -7   1  -5 68.0504 7.59312   8
 -12  -2   5 330.264 17.6154   8
 -12  -2   5 309.822 15.4919  15
  12  -2  -5 319.871 14.0728   7
  12   2  -5 315.678 13.6816   7
 -12   2   5 307.794 15.5264  15
 -12   2   5 306.390 16.5598   8
 -10  -2   5 731.691 22.9187  15
  10  -2  -5 792.212 21.1097   7
 -10  -2   5 777.006 25.0454   8
  10   2  -5 754.999 21.6057   1
 -10   2   5 743.872 23.3104  15
 -10   2   5 753.322 24.0435   8
  10   2  -5 741.650 20.1930   7
  -8  -2   5 917.190 20.9950   2
  -8  -2   5 935.140 24.5017  15
   8  -2  -5 903.307 22.6050   5
   8  -2  -5 932.197 20.7567   1
  -8   2   5 921.491 24.1275  15
   8   2  -5 903.129 22.7327   1
  -8   2   5 915.057 20.2025   2
   8   2  -5 909.261 20.5570   7
  -8   2   5 952.637 24.3236   8
   6  -2  -5 1868.19 35.4413   5
  -6  -2   5 1809.29 32.5043  14
  -6  -2   5 1850.89 34.5742   2
   6  -2  -5 1786.54 33.6614   1
   6   2  -5 1820.78 35.7498   1
   6   2  -5 1789.20 32.2009   7
   6   2  -5 1790.61 38.8365  13
  -6   2   5 1836.60 33.7552   2
  -6   2   5 1850.54 36.5700  15
  -4  -2   5 2202.62 39.0430   2
   4  -2  -5 2145.20 35.7981  16
   4  -2  -5 2153.68 39.0747  12
  -4  -2   5 2128.55 35.9423   4
  -4  -2   5 2255.31 38.6787  14
   4  -2  -5 2175.85 36.3080  11
   4  -2  -5 2203.60 39.6035   5
   4   2  -5 2173.96 36.5152   9
  -4   2   5 2184.97 39.5434  15
  -4   2   5 2250.64 38.6441   2
   4   2  -5 2102.12 36.2187   5
  -4   2   5 2164.16 37.6579  14
   4   2  -5 2094.01 35.2241   7
  -4   2   5 2204.04 36.7077   6
   4   2  -5 2210.72 39.7794   1
   4   2  -5 2200.23 39.9145  13
   4   2  -5 2148.16 38.3204  12
  -2  -2   5 1716.55 31.4069  14
   2  -2  -5 1721.77 31.7171  12
   2  -2  -5 1640.01 31.4573   5
   2  -2  -5 1694.59 30.2288   3
  -2  -2   5 1741.74 31.0723   2
   2  -2  -5 1751.17 30.4132  16
  -2  -2   5 1700.14 30.2378   4
  -2  -2   5 1671.91 28.8526  10
  -2   2   5 1658.60 29.8249  15
   2   2  -5 1764.27 30.6381  16
   2   2  -5 1677.87 30.3592  12
  -2   2   5 1704.59 30.7826  14
   2   2  -5 1632.95 27.5632   5
  -2   2   5 1709.95 29.3480   6
  -2   2   5 1711.72 30.3828   2
   2   2  -5 1731.48 31.3664   3
   0  -2  -5 1789.69 33.0530  16
   0  -2  -5 1754.11 33.4483   5
   0  -2   5 1820.48 33.0084   4
   0  -2  -5 1774.66 32.5052   3
   0  -2  -5 1813.91 33.6679  12
   0  -2   5 1757.88 31.0372  10
   0  -2  -5 1703.15 29.6424   8
   0  -2   5 1790.46 32.7697  14
   0  -2   5 1757.70 31.1745   2
   0   2   5 1806.23 31.7545  10
   0   2   5 1753.23 30.6509   2
   0   2  -5 1751.54 32.4975  13
   0   2  -5 1796.76 33.2092  16
   0   2   5 1780.12 31.2393   6
   0   2  -5 1751.04 31.8966  12
   0   2  -5 1783.23 33.1486   3
   0   2   5 1757.05 32.5889  14
   0   2   5 1761.70 30.4364   7
   0   2  -5 1776.35 32.7512   8
  -2  -2  -5 671.747 17.0912  16
  -2  -2  -5 660.502 24.1921  13
   2  -2   5 685.998 15.7593  14
   2  -2   5 689.613 15.4871  10
   2  -2   5 659.616 14.0575   7
  -2  -2  -5 691.048 17.6674  12
   2  -2   5 713.943 17.1992   4
  -2  -2  -5 699.198 17.1486   3
  -2  -2  -5 645.720 14.4325   8
   2   2   5 685.813 15.2703   6
  -2   2  -5 663.377 17.0291  16
   2   2   5 680.315 15.5311  10
   2   2   5 682.264 15.8159  14
  -2   2  -5 693.708 17.3412   3
  -2   2  -5 662.597 16.6606   8
   2   2   5 665.868 14.9668   7
  -2   2  -5 671.700 15.9613  12
  -2   2  -5 659.161 18.6848  13
  -4  -2  -5 435.708 14.3971  16
  -4  -2  -5 450.537 14.9050  12
  -4  -2  -5 441.089 14.8096   3
   4  -2   5 437.991 12.1034   7
   4  -2   5 442.354 14.1567   4
  -4  -2  -5 386.831 12.3506   8
   4  -2   5 439.786 12.8036  10
  -4   2  -5 428.610 14.1877  16
   4   2   5 446.521 12.1572  14
   4   2   5 433.281 12.8096  10
   4   2   5 426.530 12.5060   7
  -4   2  -5 433.204 13.4181  12
  -4   2  -5 448.109 14.8886   3
  -4   2  -5 414.944 14.1061   8
   6  -2   5 269.806 11.1278  10
  -6  -2  -5 274.982 13.4091   3
   6  -2   5 280.956 10.9131   7
  -6  -2  -5 264.764 12.4712  16
   6  -2   5 285.467 12.2826   4
  -6  -2  -5 277.211 12.6972  12
  -6   2  -5 253.992 11.9473  16
   6   2   5 289.014 11.2610  10
  -6   2  -5 278.127 12.4750   8
  -6   2  -5 273.622 11.7483  12
  -6   2  -5 279.588 13.2829   3
   6   2   5 269.709 11.1452   7
  -8  -2  -5 83.2941 9.31596   3
  -8  -2  -5 107.266 9.40639  12
   8   2   5 92.9454 7.44863  10
  -8   2  -5 90.2075 9.71196   3
  -8   2  -5 69.7427 8.18943   8
   8   2   5 91.3438 7.46076   7
 -11  -3   5 -0.0486 4.19432  15
 -11  -3   5 6.91166 4.75264   8
  11  -3  -5 2.17345 2.71272   7
  11   3  -5 3.75343 2.77011   1
 -11   3   5 2.78551 4.33746   8
  11   3  -5 1.25035 2.23652   7
 -11   3   5 3.55461 4.12445  15
  -9  -3   5 288.150 10.9332   2
   9  -3  -5 343.372 13.2733   5
  -9  -3   5 349.525 14.6196  15
  -9   3   5 319.201 13.6146  15
   9   3  -5 336.972 11.5675   7
  -9   3   5 322.905 10.4853   2
  -9   3   5 341.562 14.2231   8
   9   3  -5 349.033 13.4319   1
  -7  -3   5 72.4435 5.35031   2
   7  -3  -5 71.0280 5.40056   5
  -7  -3   5 71.1656 6.15091  15
   7  -3  -5 67.2804 3.88991  11
  -7   3   5 74.0041 4.77448   2
   7   3  -5 65.7078 4.00699   7
   7   3  -5 74.5777 5.49627   1
  -7   3   5 69.0443 5.46220   8
   7   3  -5 64.1449 3.39335   9
  -7   3   5 70.2177 6.15324  15
   5  -3  -5 1427.58 26.2191  11
  -5  -3   5 1501.09 28.8915   2
   5  -3  -5 1387.60 24.6993  16
   5  -3  -5 1475.26 28.5179  12
  -5  -3   5 1465.79 27.7645  14
   5  -3  -5 1438.33 29.4415   5
   5   3  -5 1448.52 25.5435   7
  -5   3   5 1403.69 28.0291   8
   5   3  -5 1502.81 29.7697   1
   5   3  -5 1458.25 26.1740   9
  -5   3   5 1494.45 26.6801   6
  -5   3   5 1466.16 27.8238   2
  -5   3   5 1457.61 29.5270  15
   5   3  -5 1400.09 29.6468  13
  -5   3   5 1426.66 26.4305  14
  -3  -3   5 163.974 4.25726  10
   3  -3  -5 157.638 6.75427   5
   3  -3  -5 159.862 5.33239  16
  -3  -3   5 162.437 5.60471   4
  -3  -3   5 158.723 6.43435   2
  -3  -3   5 168.951 6.58131  14
   3  -3  -5 163.212 5.28961  11
   3  -3  -5 170.724 6.61632  12
   3   3  -5 162.345 5.25533   9
   3   3  -5 154.336 5.37782  12
   3   3  -5 158.543 4.05913  13
  -3   3   5 163.310 6.08263  15
   3   3  -5 161.397 6.23864   3
  -3   3   5 162.731 5.26556   6
  -3   3   5 157.733 5.94357   2
  -3   3   5 165.351 5.93744  14
   1  -3  -5 2195.74 40.1218   5
   1  -3  -5 2132.11 39.2875  12
  -1  -3   5 2153.11 36.1747  10
  -1  -3   5 2203.76 38.7609   4
  -1  -3   5 2103.97 35.3498  11
  -1  -3   5 2199.40 39.1729  14
   1  -3  -5 2104.87 37.3400   3
   1  -3  -5 2149.05 38.5868  16
   1   3  -5 2141.92 38.9335   3
  -1   3   5 2155.51 37.3030   2
   1   3  -5 2132.75 39.0032   8
  -1   3   5 2156.24 38.5645  14
  -1   3   5 2175.44 37.3931   6
   1   3  -5 2196.72 39.0256  16
  -1   3   5 2096.33 35.5370  15
   1   3  -5 2156.44 37.1236  12
  -1  -3  -5 36.2701 3.57668  16
  -1  -3  -5 35.8903 4.18815  12
   1  -3   5 40.1629 2.14456   7
   1  -3   5 40.8802 2.74592  11
   1  -3   5 42.5951 4.08969   4
  -1  -3  -5 36.7790 3.54724   3
   1  -3   5 39.5758 2.90000  10
   1  -3   5 44.2851 3.56034  14
   1   3   5 36.0296 2.93219  10
   1   3   5 39.1802 2.76831   7
   1   3   5 37.4542 3.36421  14
  -1   3  -5 38.4803 3.11008  12
   1   3   5 39.7394 3.07569   6
  -1   3  -5 39.1544 4.06308   3
  -1   3  -5 39.4284 3.61146  16
  -1   3  -5 37.6695 3.97802   8
   1   3   5 36.6397 2.24289   2
   3  -3   5 1015.43 21.9654  14
  -3  -3  -5 1043.38 24.6210  16
   3  -3   5 1065.76 22.4655  10
  -3  -3  -5 1038.93 25.0458  12
  -3  -3  -5 1048.90 24.2833   3
   3  -3   5 1056.56 24.3658   4
   3  -3   5 1069.70 22.3175  11
   3  -3   5 1040.73 21.1424   7
  -3   3  -5 1025.20 22.3735  12
  -3   3  -5 1057.07 24.5818   8
   3   3   5 1072.97 22.6513  10
  -3   3  -5 1022.58 24.5770  16
   3   3   5 1078.67 22.6934   7
  -3   3  -5 1058.43 24.6157   3
   3   3   5 1051.84 22.3291   6
   5  -3   5 102.580 6.02420   7
   5  -3   5 119.303 7.78836   4
  -5  -3  -5 111.608 8.36475   3
   5  -3   5 107.652 6.66777  10
  -5  -3  -5 102.630 7.60067  16
  -5  -3  -5 111.700 8.18401  12
  -5   3  -5 120.876 7.22454  12
  -5   3  -5 125.726 8.66732   3
  -5   3  -5 102.875 7.52502  16
   5   3   5 109.436 6.78450   7
  -5   3  -5 123.531 8.44867   8
   5   3   5 104.370 6.51736  10
  -7  -3  -5 390.805 16.7396  12
  -7  -3  -5 398.850 16.8667   3
   7  -3   5 361.998 14.7144   4
  -7   3  -5 386.589 16.4443   8
  -7   3  -5 397.133 16.8538   3
   7   3   5 353.854 13.6134  10
   7   3   5 361.886 14.0231   7
  12  -4  -5 12.1949 4.08150   7
  12   4  -5 12.0991 4.20630   1
 -12   4   5 5.02225 3.96788   8
  12   4  -5 11.8061 4.57671   7
 -12   4   5 8.80495 5.00219  15
 -10  -4   5 59.8723 7.95185  15
 -10   4   5 64.0739 7.73122   8
  10   4  -5 65.9113 6.19545   1
  10   4  -5 59.4431 5.43187   7
 -10   4   5 67.0724 8.09182  15
  -8  -4   5 0.43842 2.73048  15
   8  -4  -5 3.59444 2.51043   5
  -8  -4   5 1.10133 2.33880   2
   8  -4  -5 2.05580 1.67879  11
  -8   4   5 4.75285 1.99623   2
   8   4  -5 0.13958 1.78888   1
  -8   4   5 3.04141 2.83872  15
   8   4  -5 1.17082 1.41111   7
  -8   4   5 2.91871 2.74029   8
   6  -4  -5 121.099 6.94143   5
   6  -4  -5 120.295 6.19726  12
   6  -4  -5 113.640 5.23993  11
  -6  -4   5 125.830 6.71777   2
  -6  -4   5 120.575 5.82823  14
  -6   4   5 109.985 5.63051   2
   6   4  -5 119.363 6.61392   1
  -6   4   5 118.426 7.04925  15
  -6   4   5 120.922 6.25270   8
   6   4  -5 115.484 4.75904   7
  -6   4   5 111.367 5.29378   6
   6   4  -5 112.929 4.83714   9
  -4  -4   5 169.517 7.00407  14
   4  -4  -5 164.329 6.65087  12
   4  -4  -5 199.002 8.18420   5
   4  -4  -5 163.942 5.59247  16
   4  -4  -5 170.314 5.97376  11
  -4  -4   5 155.666 5.77745   4
  -4   4   5 171.396 7.09453  15
  -4   4   5 164.956 5.79709   6
  -4   4   5 170.672 6.53048   2
   4   4  -5 163.866 5.73455   9
  -4   4   5 150.428 5.43470   8
   4   4  -5 148.366 4.89521   7
   4   4  -5 169.144 7.21615   1
   2  -4  -5 128.336 6.00537  12
   2  -4  -5 131.230 5.52342  16
  -2  -4   5 132.138 5.86184   4
  -2  -4   5 117.510 3.44349  11
   2  -4  -5 125.113 4.43457   3
   2  -4  -5 127.771 6.28329   5
  -2  -4   5 134.016 6.34493  14
  -2  -4   5 127.004 3.71179  10
  -2   4   5 132.681 5.10636   6
   2   4  -5 137.326 5.81930   3
   2   4  -5 121.441 4.28193  12
  -2   4   5 133.044 4.95297  15
  -2   4   5 127.714 5.28898   2
  -2   4   5 135.986 5.70843  14
   0  -4  -5 936.092 21.8547   5
   0  -4  -5 941.218 21.1366  12
   0  -4   5 924.141 17.8620  10
   0  -4  -5 911.956 18.8584   3
   0  -4   5 943.425 20.8005   4
   0  -4  -5 923.162 20.7247  16
   0  -4   5 902.839 17.6912  11
   0  -4   5 939.931 20.5454  14
   0   4   5 930.124 18.9628  10
   0   4   5 922.693 20.1511  14
   0   4  -5 912.368 20.9285  16
   0   4  -5 919.573 17.8603  12
   0   4   5 913.621 18.3271   2
   0   4   5 939.235 19.3177   6
   0   4  -5 917.364 20.7945   8
   0   4  -5 963.343 20.4310   3
   2  -4   5 418.863 10.4874   7
  -2  -4  -5 419.004 13.2147  16
   2  -4   5 393.901 11.6634  14
  -2  -4  -5 393.508 12.0199   3
   2  -4   5 419.029 11.0880  11
  -2  -4  -5 418.703 13.4954  12
   2  -4   5 421.398 11.0442  10
   2  -4   5 416.762 13.0814   4
  -2   4  -5 424.897 12.8474   3
  -2   4  -5 397.174 13.0507  16
   2   4   5 404.284 11.4375   6
   2   4   5 399.143 11.2741   7
   2   4   5 399.547 11.1562  10
  -2   4  -5 412.025 13.1717   8
   4  -4   5 423.361 11.9740   7
  -4  -4  -5 407.881 14.5751  16
   4  -4   5 410.019 14.0765   4
   4  -4   5 430.207 12.9550  11
  -4  -4  -5 435.351 15.3833  12
  -4  -4  -5 443.211 14.7383   3
   4  -4   5 426.162 12.8085  10
  -4   4  -5 416.287 14.5272   3
  -4   4  -5 399.480 14.5500  16
  -4   4  -5 431.293 15.1097   8
   4   4   5 425.708 12.7967  10
   4   4   5 410.247 12.9774   7
   4   4   5 422.625 12.8027   6
  -6  -4  -5 366.197 15.4743   3
  -6  -4  -5 383.071 16.4275  12
   6  -4   5 390.184 14.8933   4
   6   4   5 380.254 13.8090   7
  -6   4  -5 367.579 15.6284   8
   6   4   5 377.363 13.1665  10
  -6   4  -5 379.056 15.4118   3
 -11  -5   5 216.826 14.2816   8
 -11  -5   5 212.978 13.0302  15
  11  -5  -5 208.392 10.9132   7
 -11   5   5 204.051 12.6292   8
 -11   5   5 212.374 12.7496  15
  11   5  -5 224.825 12.0813   1
   9  -5  -5 14.5101 2.95773  11
  -9  -5   5 14.6917 4.76259  15
   9  -5  -5 16.8391 3.69723   5
   9   5  -5 18.8205 3.10310   7
  -9   5   5 9.70956 2.43568   2
  -9   5   5 15.3826 4.87882  15
   9   5  -5 17.3290 3.71964   1
  -9   5   5 17.0448 4.46556   8
   7  -5  -5 293.081 9.60611  11
   7  -5  -5 303.133 11.8858   5
  -7  -5   5 266.673 9.70268  14
  -7  -5   5 303.574 11.0694   2
  -7   5   5 301.709 11.9086  15
  -7   5   5 268.144 10.8515   8
   7   5  -5 287.235 9.10619   7
   7   5  -5 296.624 9.09371   9
  -7   5   5 300.120 9.90776   2
   7   5  -5 289.363 11.5884   1
  -5  -5   5 0.66940 1.71682  14
  -5  -5   5 0.42468 1.27073   4
   5  -5  -5 4.46782 2.40973   5
   5  -5  -5 0.07485 1.74054  12
   5  -5  -5 4.47510 1.85766  11
   5   5  -5 -0.3035 0.93179   9
  -5   5   5 3.11326 1.71036   2
   5   5  -5 0.38754 1.33854   1
   5   5  -5 -0.1512 0.66688   7
  -5   5   5 0.78832 1.26196   6
  -5   5   5 0.64024 1.82573  15
  -5   5   5 1.76512 1.18210   8
   3  -5  -5 439.376 13.6775   5
   3  -5  -5 449.499 11.6557  11
  -3  -5   5 447.614 12.9507  14
   3  -5  -5 439.066 11.6271  16
   3  -5  -5 431.524 12.0944  12
  -3  -5   5 449.353 12.0594   4
  -3   5   5 456.948 11.8901   2
  -3   5   5 440.882 11.7790  15
   3   5  -5 437.819 12.5268   1
   3   5  -5 431.313 11.2224   9
  -3   5   5 440.360 11.3683   6
   1  -5  -5 96.3397 5.33947  16
   1  -5  -5 97.1908 5.55237  12
  -1  -5   5 91.0284 3.76200  11
   1  -5  -5 94.0492 5.95158   5
   1  -5  -5 91.3707 3.89421   3
  -1  -5   5 86.1676 5.57560   4
  -1  -5   5 103.025 5.96556  14
   1   5  -5 90.8641 4.99618   3
  -1   5   5 94.6852 4.62609   2
  -1   5   5 89.5869 4.66289   6
  -1  -5  -5 604.851 17.5793   5
  -1  -5  -5 591.909 14.4261   3
   1  -5   5 584.600 16.3591   4
   1  -5   5 605.727 13.4679  10
  -1  -5  -5 616.005 16.6771  12
  -1  -5  -5 588.573 16.3948  16
   1  -5   5 599.532 15.7514  14
   1  -5   5 576.503 13.5877  11
   1   5   5 601.123 14.5036   7
   1   5   5 603.376 14.8772   6
   1   5   5 606.119 14.3815  10
  -1   5  -5 631.992 16.7752   8
  -1   5  -5 618.649 15.8028   3
  -1   5  -5 607.470 16.6468  16
   3  -5   5 213.273 8.54215  14
   3  -5   5 215.322 8.04321  10
  -3  -5  -5 206.739 9.77474  16
  -3  -5  -5 196.351 8.78602   3
   3  -5   5 225.554 9.86891   4
   3  -5   5 215.108 8.35040  11
  -3  -5  -5 220.563 10.3431  12
  -3   5  -5 207.497 9.98617   8
   3   5   5 229.238 8.43602  10
  -3   5  -5 208.420 9.72158  16
   3   5   5 217.444 8.64851   7
   3   5   5 218.779 8.49370   6
  -3   5  -5 205.019 9.34662   3
   5  -5   5 245.664 11.7410   4
   5  -5   5 268.803 10.8230  11
  -5  -5  -5 273.315 13.3123  12
  -5  -5  -5 262.345 12.3562  16
  -5  -5  -5 281.684 12.4416   3
   5   5   5 268.772 10.5692  10
   5   5   5 294.505 11.5658   7
  -5   5  -5 276.675 12.2774   3
  -5   5  -5 285.722 13.2648   8
  -5   5  -5 262.391 12.2835  16
  -7  -5  -5 21.5889 5.21813   3
   7  -5   5 21.9267 4.17225   4
  -7  -5  -5 24.1969 5.80184  12
  -7   5  -5 15.4640 5.13202   8
   7   5   5 31.6038 5.01706   7
   7   5   5 15.6832 3.55506  10
  -7   5  -5 25.0246 5.35207   3
  10  -6  -5 8.27057 3.89441   5
 -10  -6   5 8.94302 4.70989  15
 -10   6   5 8.74387 3.65431   8
 -10   6   5 6.09797 4.07068  15
  10   6  -5 11.8056 3.79488   1
   8  -6  -5 83.0839 6.95249   5
  -8  -6   5 89.1561 6.67766   2
   8  -6  -5 77.0642 5.29812  11
   8   6  -5 96.5190 7.48141   1
  -8   6   5 80.8781 6.61534   8
   8   6  -5 87.4236 5.15755   9
  -8   6   5 84.9687 6.03894   6
   8   6  -5 80.3750 5.29587   7
  -8   6   5 75.4577 7.01371  15
  -8   6   5 79.9972 5.44967   2
  -6  -6   5 3.53898 2.27545  14
   6  -6  -5 4.67031 2.62470   5
   6  -6  -5 7.33497 2.39759  11
   6   6  -5 0.67558 1.74974   1
  -6   6   5 2.31214 1.44070   6
  -6   6   5 0.42656 1.59559   2
  -6   6   5 4.33994 2.54822  15
   6   6  -5 -0.3798 1.20932   9
   4  -6  -5 55.2970 4.99059   5
   4  -6  -5 58.5716 4.44067  12
  -4  -6   5 59.8259 5.14004  14
   4  -6  -5 63.8283 4.52539  11
  -4  -6   5 59.7967 4.54847   4
  -4   6   5 75.0603 4.74078   2
   4   6  -5 51.9077 4.27902   1
   4   6  -5 62.9584 4.19597   9
  -4   6   5 52.9346 4.07120   6
  -4   6   5 57.0740 4.56865  15
   2  -6  -5 453.561 14.7079   5
   2  -6  -5 447.356 12.9969  16
  -2  -6   5 457.556 13.2913   4
  -2  -6   5 469.492 14.0191  14
   2  -6  -5 460.843 12.6276  11
   2  -6  -5 454.490 12.8055  12
  -2   6   5 468.664 12.4652   6
  -2   6   5 453.896 11.5434  15
  -2   6   5 433.173 12.0562   2
   2   6  -5 440.932 12.5660   1
   2   6  -5 468.285 12.2368   9
   0  -6  -5 97.5750 6.86969   5
   0  -6   5 99.1189 4.56276  11
   0  -6   5 105.680 6.47484  14
   0  -6  -5 94.8725 6.01667  12
   0  -6   5 99.2169 6.67442   4
   0  -6  -5 96.6785 6.03543  16
   0   6   5 97.6024 5.42582   6
   0   6  -5 93.3265 6.06721   8
   0   6  -5 91.7005 5.61375   3
   0   6   5 92.3638 4.68343   2
   0   6   5 92.1012 4.74318  10
   2  -6   5 589.719 14.1484  10
   2  -6   5 600.731 17.7369   4
   2  -6   5 596.193 14.8656  11
  -2  -6  -5 583.671 17.5323  16
   2  -6   5 584.428 16.1827  14
  -2  -6  -5 575.678 18.5232   5
  -2  -6  -5 596.039 17.6020  12
   2   6   5 596.670 15.5996   7
   2   6   5 596.822 14.8487  10
  -2   6  -5 581.692 16.1323   3
   2   6   5 613.333 15.8936   6
  -2   6  -5 586.637 17.7140   8
  -4  -6  -5 335.916 13.9956  12
   4  -6   5 336.683 11.7263  11
  -4  -6  -5 309.220 12.0702   3
  -4  -6  -5 317.141 13.1423  16
   4  -6   5 336.962 13.6274   4
  -4   6  -5 310.652 12.4027   3
   4   6   5 314.693 11.6954   7
   4   6   5 314.111 11.4593   6
  -4   6  -5 325.329 13.8947   8
   4   6   5 308.947 10.9980  10
   6  -6   5 146.346 8.54134  11
   6  -6   5 126.027 9.03070   4
  -6  -6  -5 139.752 10.5793  12
  -6  -6  -5 124.289 9.07842   3
   6   6   5 130.565 8.38114   7
  -6   6  -5 125.735 9.96865   8
   6   6   5 127.925 7.49192  10
  -6   6  -5 121.571 8.84923   3
  -9  -7   5 2.00044 3.62728  15
   9  -7  -5 4.16187 2.77501   5
   9  -7  -5 1.02477 2.35389  11
   9   7  -5 0.54490 1.86268   9
  -9   7   5 4.64662 2.86970   6
  -9   7   5 2.53893 1.58409   2
  -9   7   5 1.27308 2.47141  15
   9   7  -5 0.41408 2.71868   1
   7  -7  -5 498.825 17.0457   5
  -7  -7   5 499.273 15.9792   2
  -7  -7   5 479.712 15.2798  14
   7  -7  -5 485.069 14.6505  11
  -7   7   5 521.933 14.7463   2
   7   7  -5 494.673 16.9402   1
  -7   7   5 506.927 14.9936   6
  -7   7   5 501.484 16.9269  15
   7   7  -5 474.491 13.8175   9
   5  -7  -5 132.540 6.98949  11
   5  -7  -5 147.857 8.70008   5
  -5  -7   5 137.857 7.89488  14
   5  -7  -5 142.836 6.56773  12
  -5  -7   5 144.853 7.17887   4
  -5   7   5 147.595 7.13578   2
   5   7  -5 155.290 8.03301   1
   5   7  -5 148.446 6.85173   9
  -5   7   5 145.945 7.85631  15
  -5   7   5 151.470 6.96610   6
   3  -7  -5 1023.04 25.4541   5
   3  -7  -5 1040.62 23.1106  11
   3  -7  -5 1026.90 22.3557  12
  -3  -7   5 992.412 23.3392   4
  -3  -7   5 1054.01 24.6251  14
  -3   7   5 1047.18 22.6633   2
  -3   7   5 1054.32 22.6156   6
  -3   7   5 1005.86 22.4594  15
   3   7  -5 1005.93 22.2956   9
   3   7  -5 1007.20 23.1262   1
  -1  -7   5 31.2178 4.22658   4
   1  -7  -5 32.6460 4.29810  12
  -1  -7   5 23.8489 2.66218  11
   1  -7  -5 28.6567 4.74318   5
   1  -7  -5 34.2834 4.23711  16
  -1  -7   5 27.2697 4.27167  14
   1   7  -5 24.8211 3.09616   3
   1   7  -5 23.6962 3.09472   1
  -1   7   5 34.4636 3.67907   2
  -1   7   5 30.9720 3.59660   6
   1   7  -5 32.9904 3.69786   9
  -1  -7  -5 450.532 16.1066   5
   1  -7   5 454.489 12.3440  11
  -1  -7  -5 432.970 14.9009  16
   1  -7   5 483.377 14.9498  14
   1  -7   5 447.671 15.1008   4
  -1  -7  -5 467.297 14.8610  12
  -1   7  -5 482.402 15.4965   8
   1   7   5 474.363 12.6136  10
  -1   7  -5 476.470 13.6585   3
   1   7   5 471.271 13.7456   6
   3  -7   5 65.8349 7.27171   4
  -3  -7  -5 61.0135 5.79292  16
   3  -7   5 72.4351 5.90652  14
   3  -7   5 66.8333 5.25804  11
  -3  -7  -5 70.9640 7.47634  12
  -3  -7  -5 68.3953 7.05925   5
   3   7   5 60.3568 4.97347   7
  -3   7  -5 70.5763 5.71906   3
   3   7   5 69.9150 5.21581   6
  -3   7  -5 66.7119 7.12635   8
   3   7   5 57.1128 4.58811  10
   5  -7   5 132.185 8.83967   4
   5  -7   5 156.068 8.52706  11
  -5  -7  -5 151.179 10.5319  12
   5   7   5 162.667 8.56845   6
   5   7   5 148.881 8.63583   7
  -5   7  -5 177.052 11.0365   8
  10  -8  -5 193.906 9.88991  11
  10  -8  -5 214.772 12.1521   5
  10   8  -5 203.449 11.8627   1
 -10   8   5 190.390 12.1445  15
 -10   8   5 195.855 10.6037   6
  -8  -8   5 857.259 23.5862   2
   8  -8  -5 860.433 22.1377  11
   8  -8  -5 880.416 25.2884   5
  -8   8   5 841.767 22.5891   6
   8   8  -5 839.723 21.0115   9
   8   8  -5 858.642 24.9379   1
  -8   8   5 908.580 25.7768  15
   6  -8  -5 518.014 15.6021  11
  -6  -8   5 505.588 16.5922  14
   6  -8  -5 516.688 17.5729   5
  -6   8   5 518.287 16.9856  15
  -6   8   5 506.752 15.3810   6
   6   8  -5 488.775 14.6211   9
   6   8  -5 503.443 16.6496   1
  -6   8   5 537.049 15.3979   2
   4  -8  -5 643.225 17.5677  11
   4  -8  -5 639.171 19.6161   5
  -4  -8   5 668.030 19.3206  14
  -4  -8   5 642.552 17.9485   4
   4   8  -5 637.576 16.9224   9
   4   8  -5 634.111 17.8275   1
  -4   8   5 652.325 17.9201  15
  -4   8   5 657.517 17.4882   6
  -4   8   5 649.343 17.1506   2
   2  -8  -5 942.375 22.8682  11
  -2  -8   5 964.449 24.2827  14
  -2  -8   5 958.636 24.0956   4
   2  -8  -5 982.756 25.2063   5
  -2   8   5 961.499 22.2989   6
   2   8  -5 967.385 22.1579   9
   2   8  -5 947.047 21.7113   1
   0  -8   5 151.071 8.62982  14
   0  -8   5 139.217 8.78652   4
   0  -8   5 142.594 6.39425  11
   0  -8  -5 152.960 8.38846  16
   0  -8  -5 131.026 7.46387  12
   0  -8  -5 146.210 8.79341   5
   0   8  -5 134.838 6.95117   9
   0   8   5 140.595 7.28160   6
   0   8   5 148.181 6.39398  10
  -2  -8  -5 410.258 15.4035  16
  -2  -8  -5 419.620 14.9097  12
   2  -8   5 398.760 14.1289  14
   2  -8   5 419.963 15.7085   4
   2  -8   5 402.063 12.4964  11
  -2  -8  -5 428.134 16.7035   5
  -2   8  -5 412.720 12.9831   9
   2   8   5 406.593 13.5323   6
   2   8   5 399.250 11.8275  10
  -2   8  -5 414.290 15.4422   8
  -4  -8  -5 159.219 11.3648   5
   4  -8   5 158.592 8.55336  11
   4  -8   5 145.634 9.99865   4
  -4  -8  -5 157.984 10.3488  12
  -4   8  -5 146.889 7.68285   9
   4   8   5 144.582 7.94456   6
  -4   8  -5 154.093 10.0991   8
   4   8   5 143.430 7.99042   7
  -6  -8  -5 32.6869 6.94108   5
  -6  -8  -5 19.7400 5.67791  12
   6  -8   5 28.3925 5.63169   4
   6  -8   5 24.4712 4.19378  11
  -6   8  -5 24.0461 5.86510   8
   6   8   5 25.4071 4.79116   7
  -9  -9   5 525.467 20.4332  15
   9  -9  -5 532.469 17.0341  11
   9  -9  -5 522.317 19.1852   5
  -9   9   5 543.295 19.6943  15
  -9   9   5 539.039 17.9701   6
   9   9  -5 538.413 19.4674   1
   7  -9  -5 247.307 10.9322  11
   7  -9  -5 202.822 11.0514   5
  -7  -9   5 214.370 10.9714  14
   7   9  -5 216.397 9.45659   9
   7   9  -5 235.412 11.6955   1
  -7   9   5 241.597 11.8445  15
  -7   9   5 236.591 10.8143   6
   5  -9  -5 513.502 15.9827   4
  -5  -9   5 504.905 16.3201   4
   5  -9  -5 554.750 16.7479  11
  -5  -9   5 520.827 17.6445  14
   5  -9  -5 529.247 18.3007   5
   5   9  -5 515.615 16.7067   1
   5   9  -5 534.535 15.8152   9
  -5   9   5 551.865 17.2351  15
  -5   9   5 532.223 16.1574   6
  -3  -9   5 237.332 10.7630   4
  -3  -9   5 264.970 12.2634  14
   3  -9  -5 275.252 10.9410  11
   3  -9  -5 276.618 12.5395   5
  -3   9   5 277.875 10.7109   6
  -3   9   5 274.536 10.2765  15
   3   9  -5 265.106 10.2412   9
   1  -9  -5 639.286 18.4049  11
  -1  -9   5 639.612 19.7674   4
   1  -9  -5 616.609 19.0715  16
   1  -9  -5 636.822 20.4187   5
  -1  -9   5 647.525 19.8537  14
  -1   9   5 627.945 15.5088  10
  -1   9   5 632.374 17.4892   6
   1   9  -5 625.404 17.2242   9
  -1  -9  -5 -0.7027 2.32909  12
   1  -9   5 -2.8390 3.32110   4
   1  -9   5 0.70747 1.91049  11
  -1  -9  -5 6.37734 3.85701   5
   1  -9   5 -1.7452 2.38198  14
  -1  -9  -5 1.04485 1.82753  16
   1   9   5 1.51599 1.50344   6
  -1   9  -5 1.85797 2.60035   8
  -1   9  -5 -2.0828 1.74922   9
  -3  -9  -5 541.359 18.4173  12
   3  -9   5 533.993 15.9944  11
  -3  -9  -5 550.938 20.8259   5
   3  -9   5 549.858 19.1343   4
   3  -9   5 567.402 19.6780  14
  -3   9  -5 517.942 15.7820   9
  -3   9  -5 563.441 19.5663   8
   3   9   5 519.899 16.6702   6
   5  -9   5 19.1200 3.79984  11
  -5  -9  -5 17.6975 5.41355  12
  -5  -9  -5 26.0010 6.45813   5
   5  -9   5 26.0651 5.51690   4
  -5   9  -5 33.6847 6.05628   8
   5   9   5 18.8493 4.12131   6
   8 -10  -5 39.0809 5.63838  11
  -8 -10   5 39.8404 5.99846   2
   8 -10  -5 37.4975 5.65115   5
   8  10  -5 33.2540 4.84693   9
   8  10  -5 49.7564 6.85170   1
  -8  10   5 48.2325 6.20281  15
  -8  10   5 44.5635 6.06961   6
   6 -10  -5 9.76586 3.50826   5
  -6 -10   5 13.4568 4.33111  14
   6 -10  -5 10.9509 3.27864  11
  -6  10   5 11.1636 3.11825   6
  -6  10   5 21.1605 4.09624  15
   6  10  -5 6.28440 2.91617   1
   6  10  -5 10.3912 3.25000   9
  -4 -10   5 3.70349 3.81733  14
  -4 -10   5 -0.7104 2.63127   4
   4 -10  -5 5.67698 3.41551  11
   4 -10  -5 -2.6654 3.18997   5
   4 -10  -5 2.74220 2.60286   4
   4  10  -5 0.49306 1.44689   9
  -4  10   5 4.34805 2.13269  15
  -4  10   5 1.86988 1.85136   6
  -2 -10   5 89.9792 7.37030  14
   2 -10  -5 82.1770 6.87107  11
   2 -10  -5 83.9057 6.66067  16
   2 -10  -5 89.2740 8.57672   5
  -2 -10   5 81.0474 7.90601   4
  -2  10   5 83.2922 6.39423   6
   2  10  -5 89.9058 6.42063   9
   0 -10  -5 18.1144 5.20360   5
   0 -10   5 13.7389 4.30547  14
   0 -10  -5 18.4607 4.01488  11
   0 -10   5 17.2246 4.89028   4
   0  10   5 14.2636 3.07457   6
   0  10  -5 16.3175 3.64365   9
  -2 -10  -5 76.8274 9.25204   5
   2 -10   5 93.0200 8.35918   4
   2 -10   5 79.4769 6.21010  11
   2 -10   5 89.0700 7.66988  14
  -2  10  -5 82.7285 5.97966   9
  -2  10  -5 88.1868 7.67117   8
   2  10   5 82.3262 6.24048   6
  -4 -10  -5 5.35622 4.25519   5
   4 -10   5 6.52969 4.74755   4
   4 -10   5 12.7392 3.64709  11
  -4  10  -5 10.0022 4.17710   8
   4  10   5 5.19240 3.16023   6
  -7 -11   5 16.5038 4.92690  14
   7 -11  -5 23.3826 5.02135  11
   7 -11  -5 21.0442 5.38928   5
   7  11  -5 17.1642 3.60221   9
  -7  11   5 23.3111 4.90622   6
   7  11  -5 19.5949 4.54860   1
  -7  11   5 18.0794 3.96336  15
   5 -11  -5 375.867 14.7645  11
   5 -11  -5 362.490 15.6646   5
  -5 -11   5 288.854 13.8060   4
  -5 -11   5 346.136 15.5474  14
   5  11  -5 347.502 13.4572   9
  -5  11   5 378.301 14.5149  15
  -5  11   5 349.922 13.7787   6
   3 -11  -5 121.443 9.78946   5
  -3 -11   5 120.954 9.55445  14
   3 -11  -5 134.536 8.91495  11
  -3 -11   5 132.192 9.26793   4
   3  11  -5 127.764 8.07810   9
  -3  11   5 119.873 7.65575   6
   1 -11  -5 104.948 8.17082  11
   1 -11  -5 120.533 9.98580   5
  -1 -11   5 114.976 9.29936  14
  -1 -11   5 104.739 8.51167   4
  -1  11   5 104.372 7.48165   6
   1  11  -5 100.407 7.28361   9
  -1 -11  -5 51.7045 7.98702   5
  -1 -11  -5 37.8018 5.79124  11
   1 -11   5 34.4581 6.05263  14
   1 -11   5 46.5351 6.84644   4
   1  11   5 39.5922 5.01938   6
  -1  11  -5 36.7084 4.98232   9
   3 -11   5 22.7929 5.92083   4
  -3 -11  -5 12.2322 4.11524  11
  -3 -11  -5 11.9392 5.23739   5
  -3  11  -5 10.5352 3.36664   9
   3  11   5 3.35445 2.93016   6
   6 -12  -5 280.480 14.9008  11
   6 -12  -5 226.395 14.1452   5
  -6 -12   5 236.711 13.4929  14
   6  12  -5 234.821 11.2162   9
  -4 -12   5 216.240 12.6135   4
  -4 -12   5 230.264 13.4008  14
   4 -12  -5 228.489 12.5058   4
   4 -12  -5 217.272 12.5613   5
   4 -12  -5 212.370 11.8078  11
   4  12  -5 214.006 10.8991   9
  -4  12   5 216.742 11.0993   6
  -2 -12   5 83.2764 8.04251   4
  -2 -12   5 80.4018 8.76328  14
   2 -12  -5 67.5198 8.47339   5
   2 -12  -5 81.7279 8.21334  11
   2  12  -5 85.3744 7.11876   9
  -2  12   5 71.3902 6.20835   6
   0 -12  -5 368.952 16.4903   5
   0 -12   5 392.248 17.5521   4
   0 -12   5 366.630 16.0418  14
   0 -12  -5 367.954 15.2521  11
   0  12  -5 356.115 13.8496   9
   0  12   5 345.148 14.0247   6
 -12   0   6 95.9434 10.2345  15
 -12   0   6 77.9006 9.99679   8
  10   0  -6 1034.27 24.8079   7
 -10   0   6 1016.76 29.4154   8
 -10   0   6 1049.80 28.6920  15
  10   0  -6 1016.22 25.5245   1
  -8   0   6 1288.77 30.5997  15
   8   0  -6 1231.45 25.6331   7
   8   0  -6 1237.40 27.8399   1
  -8   0   6 1275.32 26.7228   2
   8   0  -6 1272.42 27.7144   5
  -6   0   6 2949.73 51.0321   2
   6   0  -6 2836.28 51.4606   1
  -6   0   6 2861.68 48.6459  14
   6   0  -6 2810.18 50.1929   5
  -6   0   6 2943.43 53.4719  15
   6   0  -6 2760.65 56.3507  13
   6   0  -6 2816.82 51.0666  12
  -4   0   6 2171.76 38.4811  14
  -4   0   6 2131.30 39.7895  15
   4   0  -6 2133.01 38.0857   5
   4   0  -6 2157.46 39.3562  12
  -4   0   6 2179.46 39.0768   2
   4   0  -6 2180.15 35.9974  16
  -2   0   6 7224.92 123.228   4
   2   0  -6 7397.36 119.165   5
  -2   0   6 7514.30 119.492   2
   2   0  -6 7679.30 120.995  12
  -2   0   6 7439.65 118.604  10
   2   0  -6 7581.49 123.770  16
  -2   0   6 7487.21 126.725  14
   2   0  -6 7426.16 127.582   3
  -2   0   6 7311.36 119.660   6
   0   0   6 204.089 6.01922   6
   0   0   6 199.558 7.44967   4
   0   0  -6 199.042 7.03579   5
   0   0  -6 197.222 8.95320  13
   0   0   6 199.445 6.65553  10
   0   0  -6 204.263 7.83525  12
   0   0   6 191.006 7.38856  14
   0   0  -6 190.474 7.79474   3
   0   0   6 201.196 6.13366   2
   0   0  -6 187.419 6.55964   8
   0   0  -6 204.424 7.71823  16
   2   0   6 4045.12 68.9006  14
  -2   0  -6 3839.35 75.8007  13
  -2   0  -6 4122.41 71.4358   3
  -2   0  -6 4061.90 71.4222  16
  -2   0  -6 4088.94 70.7729  12
   2   0   6 3947.19 66.6975   7
   2   0   6 4037.08 70.6609   4
   2   0   6 4070.81 68.8008  10
   4   0   6 35.1822 4.07165  10
   4   0   6 31.3388 4.71188   4
  -4   0  -6 30.1485 4.77040  16
   4   0   6 40.3185 4.12665   7
  -4   0  -6 33.5212 5.01297  12
  -4   0  -6 38.4772 5.14134   3
  -4   0  -6 39.5927 4.82809   8
  -6   0  -6 568.145 19.4300  12
  -6   0  -6 557.720 20.0826   3
   6   0   6 482.857 18.6724   7
   6   0   6 563.401 17.3975  10
  11  -1  -6 4.57909 2.66033   7
 -11  -1   6 10.5438 5.23678  15
 -11  -1   6 7.57434 4.45854   8
 -11   1   6 7.41544 4.74038  15
  11   1  -6 3.17430 2.48966   7
  11   1  -6 5.35454 2.70976   1
 -11   1   6 -0.8862 3.69805   8
   9  -1  -6 437.045 13.9403   1
  -9  -1   6 455.532 16.7951  15
   9  -1  -6 469.076 13.9002   7
  -9  -1   6 453.113 13.6307   2
   9   1  -6 452.893 13.3520   7
   9   1  -6 474.534 15.3282   1
  -9   1   6 449.630 16.9895  15
  -9   1   6 460.926 16.9532   8
  -9   1   6 434.820 13.1716   2
  -7  -1   6 330.345 12.6296  15
   7  -1  -6 333.654 10.9480   5
  -7  -1   6 326.353 10.9694   2
   7  -1  -6 329.646 10.7479   1
   7   1  -6 325.332 11.4269   1
  -7   1   6 321.083 12.4011  15
   7   1  -6 312.020 8.88373   7
  -7   1   6 324.907 10.6251   2
  -5  -1   6 127.674 5.67562  14
   5  -1  -6 129.935 6.13547  12
  -5  -1   6 124.553 5.97214   2
   5  -1  -6 121.452 5.77052   5
   5   1  -6 132.414 5.15090   5
  -5   1   6 130.726 5.26991  14
  -5   1   6 125.831 4.11562   6
  -5   1   6 129.211 6.21699   2
  -5   1   6 126.257 6.60909  15
   5   1  -6 134.421 6.37186   1
   5   1  -6 134.089 7.15400  13
   5   1  -6 127.210 5.86796  12
   5   1  -6 128.474 4.08515   9
  -3  -1   6 1864.56 32.5773   4
  -3  -1   6 1876.70 34.5233  14
  -3  -1   6 1876.56 34.3097   2
   3  -1  -6 1871.15 34.3710   5
   3  -1  -6 1834.39 31.0720  11
   3  -1  -6 1869.08 32.6526  16
   3  -1  -6 1864.50 34.1031   3
   3  -1  -6 1871.44 35.1014  12
   3   1  -6 1842.65 34.5986   3
   3   1  -6 1876.79 34.5075  12
  -3   1   6 1806.38 33.9242  15
   3   1  -6 1853.35 32.2164   5
  -3   1   6 1924.52 34.2518  14
   3   1  -6 1902.99 32.9613  16
  -3   1   6 1862.34 33.9503   2
  -3   1   6 1900.46 31.5368   6
   1  -1  -6 41.8856 3.44256  16
  -1  -1   6 34.0894 3.17016   4
  -1  -1   6 29.6670 3.12392   2
  -1  -1   6 33.7027 2.60163  10
   1  -1  -6 32.8952 3.14564   5
  -1  -1   6 36.8122 3.86684  14
   1  -1  -6 46.1946 3.72669   3
   1  -1  -6 36.1068 3.97421  12
  -1   1   6 31.0989 2.65210  10
  -1   1   6 34.7688 3.37730  14
  -1   1   6 36.7968 3.08966   4
   1   1  -6 31.8725 2.39086   5
  -1   1   6 34.4252 2.30785   6
  -1   1   6 36.8129 3.22081   2
   1   1  -6 32.7713 3.25571  16
   1   1  -6 36.6102 3.81306   3
  -1   1   6 35.6274 2.20207  15
   1   1  -6 33.0249 3.17967  12
  -1  -1  -6 477.211 13.6663  12
  -1  -1  -6 464.846 13.3551  16
  -1  -1  -6 431.548 11.1051   8
  -1  -1  -6 445.070 16.1285  13
   1  -1   6 467.779 13.1732   4
   1  -1   6 427.974 10.0018   2
   1  -1   6 467.909 12.5065  14
  -1  -1  -6 456.450 13.2587   3
   1  -1   6 465.708 11.7880  10
   1   1   6 466.908 12.6119  14
   1   1   6 456.587 13.0008   4
   1   1   6 460.532 11.9537  10
   1   1   6 477.671 11.3733   6
  -1   1  -6 433.979 14.5345  13
  -1   1  -6 446.538 12.6880  12
  -1   1  -6 446.340 13.3000   3
  -1   1  -6 457.797 12.4921   8
   1   1   6 436.358 10.3138   7
  -1   1  -6 447.253 13.1960  16
   3  -1   6 301.058 9.86917  14
  -3  -1  -6 292.485 9.85505   8
   3  -1   6 312.309 11.5934   4
   3  -1   6 308.258 10.3574  10
   3  -1   6 276.015 9.84159   7
  -3  -1  -6 296.080 11.3150  16
  -3  -1  -6 318.483 12.2382   3
  -3  -1  -6 299.851 11.7592  12
  -3   1  -6 301.318 11.7963  16
   3   1   6 301.686 11.3941   4
   3   1   6 301.056 9.40166   7
   3   1   6 326.927 10.4135  14
   3   1   6 311.144 10.3325  10
  -3   1  -6 312.997 12.1653   3
  -3   1  -6 320.401 11.4902  12
  -3   1  -6 295.277 10.8765   8
  -5  -1  -6 5.95020 4.14551   3
   5  -1   6 6.92698 3.14168   4
   5  -1   6 2.34649 2.12726  10
  -5  -1  -6 7.29835 3.49753  12
  -5  -1  -6 4.33689 2.51371  16
   5   1   6 4.95640 2.16073   7
  -5   1  -6 3.61966 3.71800   3
   5   1   6 4.16835 2.35923  10
  -5   1  -6 3.13061 2.97420  16
  -5   1  -6 3.31730 2.83161   8
  -5   1  -6 12.1120 3.58925  12
  -7  -1  -6 153.884 11.4814   3
   7  -1   6 136.270 8.78649  10
  -7  -1  -6 151.918 10.6561  12
  -7   1  -6 156.193 10.8769   3
  -7   1  -6 135.841 10.1613  12
  -7   1  -6 137.195 9.54906   8
   7   1   6 150.700 9.03422  10
 -12  -2   6 89.5628 10.1749   8
  12  -2  -6 93.2363 7.26392   7
 -12  -2   6 83.1628 9.41000  15
 -12   2   6 81.4766 9.71052   8
 -12   2   6 73.2809 8.71385  15
  12   2  -6 99.3910 7.99260   1
 -10  -2   6 100.955 9.29275   8
  10  -2  -6 106.798 7.08702   7
 -10  -2   6 88.1518 9.26438  15
  10   2  -6 94.5469 7.38607   1
 -10   2   6 96.8661 8.81384   8
  10   2  -6 99.9029 6.49385   7
 -10   2   6 113.013 9.70311  15
  -8  -2   6 599.799 16.4668   2
   8  -2  -6 619.890 17.6245   5
  -8  -2   6 616.074 19.3493  15
   8  -2  -6 590.651 15.9150   1
  -8   2   6 640.184 16.1149   2
   8   2  -6 605.671 17.9174   1
  -8   2   6 626.951 18.7397   8
   8   2  -6 576.930 14.6900   7
  -8   2   6 609.471 18.8261  15
   6  -2  -6 1109.66 23.4349   1
  -6  -2   6 1116.79 22.5600  14
   6  -2  -6 1103.98 24.1408  12
  -6  -2   6 1107.40 23.9154   2
   6  -2  -6 1142.13 24.6234   5
   6   2  -6 1145.34 25.2112   1
   6   2  -6 1086.95 26.9165  13
  -6   2   6 1139.91 23.5935   2
  -6   2   6 1089.11 21.5184  14
   6   2  -6 1096.85 20.5675   9
  -6   2   6 1099.30 21.0298   6
  -6   2   6 1122.31 25.5251  15
  -4  -2   6 622.931 12.9056   4
  -4  -2   6 645.080 15.4832   2
   4  -2  -6 638.033 15.7287   5
   4  -2  -6 659.567 15.9295  12
   4  -2  -6 626.013 12.8407  16
   4  -2  -6 621.500 12.6131  11
  -4  -2   6 656.166 15.2841  14
   4   2  -6 612.324 12.5003   5
   4   2  -6 630.111 15.2226  13
   4   2  -6 652.511 14.9502  12
  -4   2   6 638.074 14.9826   2
  -4   2   6 644.594 15.4590  15
  -4   2   6 641.528 13.0173   6
   4   2  -6 645.735 13.2116   9
  -4   2   6 635.523 14.5356  14
   2  -2  -6 435.904 12.2516   5
   2  -2  -6 443.214 11.4212   3
   2  -2  -6 447.619 12.5499  12
  -2  -2   6 467.653 12.4346  14
  -2  -2   6 451.682 11.5649   2
   2  -2  -6 457.984 11.3742  16
  -2  -2   6 442.555 10.1409  10
  -2  -2   6 450.998 11.2716   4
  -2   2   6 458.218 11.1950   2
  -2   2   6 431.050 10.3664  15
  -2   2   6 448.425 10.2263   6
   2   2  -6 450.011 11.5291  12
   2   2  -6 454.827 11.6870  16
   2   2  -6 446.448 12.1698   3
  -2   2   6 462.489 11.9603  14
   0  -2  -6 88.5849 5.60484  12
   0  -2  -6 83.4713 5.07240  16
   0  -2   6 83.7019 4.16554  10
   0  -2  -6 87.5251 5.12016   3
   0  -2   6 87.5200 5.34162  14
   0  -2   6 87.5075 5.22804   4
   0  -2  -6 82.0802 5.19311   5
   0  -2   6 79.0151 4.05074   2
   0   2  -6 82.2532 4.58160  12
   0   2   6 94.4706 5.13191  14
   0   2  -6 84.6247 4.92756   8
   0   2  -6 85.5381 5.38037   3
   0   2  -6 82.7812 5.11785  16
   0   2   6 87.5607 4.15766   6
   0   2   6 76.2042 3.68523   2
   0   2  -6 78.9981 4.60483  13
   0   2   6 84.4529 3.56718   7
   0   2   6 85.4276 4.50433  10
  -2  -2  -6 6.33068 2.60622   3
   2  -2   6 11.4994 2.32177  10
  -2  -2  -6 11.6983 2.68303  12
   2  -2   6 9.62681 2.75435   4
  -2  -2  -6 9.38986 2.75160  16
   2  -2   6 12.1070 2.63518  14
   2   2   6 9.08709 1.84929   7
   2   2   6 13.7467 2.49867  10
  -2   2  -6 15.1468 3.34292   3
  -2   2  -6 8.73626 2.67115  16
  -2   2  -6 11.5998 2.71275   8
  -2   2  -6 8.48137 2.40920  12
   2   2   6 13.4903 2.44748   6
   2   2   6 14.1746 2.70270  14
  -4  -2  -6 153.885 9.32574   3
  -4  -2  -6 144.520 8.94062  16
  -4  -2  -6 158.073 9.36312  12
   4  -2   6 160.831 7.78013  10
   4  -2   6 166.241 8.92869   4
  -4   2  -6 146.139 8.50346   8
   4   2   6 146.517 7.04823   7
  -4   2  -6 130.669 8.49784  16
  -4   2  -6 152.430 9.23460   3
   4   2   6 150.393 7.61650  10
   4   2   6 134.144 6.91382  14
  -4   2  -6 151.124 8.48632  12
  -6  -2  -6 -1.1717 2.91172  12
   6  -2   6 -0.6109 1.54291  10
  -6  -2  -6 -0.5169 2.52891   3
   6  -2   6 1.47841 2.56320   4
  -6   2  -6 0.70402 3.70266   3
   6   2   6 -0.9177 2.06479  10
   6   2   6 2.73317 2.35643   7
  -6   2  -6 1.89996 3.02182   8
  -6   2  -6 -0.6734 2.44178  12
 -11  -3   6 78.5455 9.06983  15
 -11  -3   6 77.9606 9.46482   8
  11  -3  -6 84.9002 7.13064   7
  11   3  -6 92.2031 7.30985   1
 -11   3   6 96.8141 9.32710  15
 -11   3   6 87.2268 9.54295   8
  -9  -3   6 2.73985 2.76248   2
   9  -3  -6 0.93519 2.21067   5
  -9  -3   6 -0.7909 3.12127  15
   9   3  -6 -1.1726 1.78077   1
   9   3  -6 1.00421 1.56329   7
  -9   3   6 3.06333 3.34848  15
  -9   3   6 1.97592 2.92479   8
  -9   3   6 2.55869 1.99497   2
  -7  -3   6 96.7503 5.19258  14
   7  -3  -6 95.9398 6.41568   5
  -7  -3   6 87.8636 6.17521   2
   7  -3  -6 85.5361 4.84387   1
   7   3  -6 82.7741 5.84093   1
  -7   3   6 86.6468 5.48614   2
  -7   3   6 95.8129 4.75703   6
   7   3  -6 90.9731 4.48746   9
  -7   3   6 88.7270 6.16737   8
  -7   3   6 92.4209 6.85129  15
  -5  -3   6 458.058 12.9953   2
   5  -3  -6 473.305 13.2043  12
  -5  -3   6 479.132 12.8592  14
   5  -3  -6 480.317 13.8376   5
   5  -3  -6 452.891 10.6990  11
  -5   3   6 458.059 11.7209  14
   5   3  -6 461.034 10.9482   9
  -5   3   6 470.549 11.2128   6
  -5   3   6 478.269 12.6530   2
   5   3  -6 490.147 14.0336   1
  -5   3   6 462.982 13.3395  15
  -3  -3   6 13.4952 2.59587   2
   3  -3  -6 12.3625 2.70857  12
  -3  -3   6 9.89493 2.66236  14
   3  -3  -6 17.2116 2.01374  11
   3  -3  -6 12.7342 2.84431   5
   3  -3  -6 15.4541 2.07344   3
   3  -3  -6 12.5387 1.85834  16
  -3  -3   6 17.7936 1.75309  10
  -3  -3   6 13.2110 2.24419   4
   3   3  -6 14.1321 2.44000   3
   3   3  -6 16.4725 2.25016  12
  -3   3   6 16.9803 2.56964  14
  -3   3   6 14.3018 1.89500   6
  -3   3   6 9.95985 1.99925  15
  -3   3   6 11.8972 2.34185   2
   1  -3  -6 579.753 15.6541   5
  -1  -3   6 605.627 14.2441   2
   1  -3  -6 573.769 13.8946   3
  -1  -3   6 611.236 15.3439  14
   1  -3  -6 590.546 14.7540  16
  -1  -3   6 597.374 14.7891   4
  -1  -3   6 583.169 12.6905  10
   1  -3  -6 594.336 15.6253  12
  -1   3   6 598.780 14.8473  14
   1   3  -6 580.408 14.9397  16
  -1   3   6 566.147 13.2656   2
  -1   3   6 607.081 13.8846  10
   1   3  -6 577.586 13.6517  12
   1   3  -6 610.848 15.4614   3
  -1   3   6 596.830 13.4906   6
   1  -3   6 10.6444 1.90792  10
   1  -3   6 15.1044 2.99170  14
   1  -3   6 11.8902 1.89450   2
  -1  -3  -6 15.5806 2.98377  16
  -1  -3  -6 13.9088 3.19155  12
  -1  -3  -6 12.6314 2.79187   3
   1  -3   6 8.69587 2.38827   4
   1   3   6 11.9959 1.61806   2
   1   3   6 9.79112 1.88497   7
  -1   3  -6 18.0617 3.29106   3
   1   3   6 25.7281 3.44219  14
  -1   3  -6 9.29215 2.63441   8
   1   3   6 11.9169 2.04861   6
  -1   3  -6 12.1185 2.54070  12
  -1   3  -6 12.5595 2.56929  16
   1   3   6 10.0604 2.20543  10
  -3  -3  -6 0.37604 2.39332  12
   3  -3   6 -0.6029 1.12896  10
  -3  -3  -6 5.28903 2.94460   3
   3  -3   6 9.65406 2.75466   4
   3  -3   6 -0.4669 1.51130  14
  -3  -3  -6 2.39380 2.32257  16
   3   3   6 0.05901 1.29219  14
  -3   3  -6 3.08920 2.62145   3
  -3   3  -6 -0.4932 2.03486   8
  -3   3  -6 -0.5428 1.99100  12
  -3   3  -6 1.74365 1.78620  16
   3   3   6 1.08785 1.77626   6
   3   3   6 3.76949 1.70943  10
   3   3   6 0.18220 1.24528   7
   5  -3   6 50.9558 6.03075   4
   5  -3   6 50.7322 5.48710  10
  -5  -3  -6 38.5992 5.87521  16
  -5  -3  -6 50.7724 7.19797  12
  -5  -3  -6 54.7696 6.79682   3
  -5   3  -6 51.5632 6.71966   8
   5   3   6 48.7979 4.98094   7
  -5   3  -6 50.7152 6.31167   3
  -5   3  -6 49.9739 5.54744  16
   5   3   6 57.4023 5.91284  10
  -7  -3  -6 43.7376 7.11561  12
   7  -3   6 67.9671 6.93129   4
  -7  -3  -6 49.7525 7.43474   3
  -7   3  -6 52.9483 7.36003   3
   7   3   6 33.8350 5.02019   7
  -7   3  -6 42.2829 6.51149   8
   7   3   6 47.8417 6.22687  10
  12  -4  -6 339.249 14.5020   7
 -12  -4   6 362.770 17.2555  15
  12   4  -6 358.672 15.5217   1
 -12   4   6 349.127 16.9733   8
 -10  -4   6 86.1791 9.04780  15
  10  -4  -6 83.8802 7.44927   5
 -10   4   6 82.6359 8.06241   8
 -10   4   6 81.5792 8.49060  15
  10   4  -6 84.7576 7.54182   1
  -8  -4   6 356.890 14.6418  15
  -8  -4   6 365.798 12.7356   2
   8  -4  -6 382.257 13.7759   5
  -8   4   6 343.192 13.0332   8
  -8   4   6 368.860 14.3915  15
  -8   4   6 348.239 10.9984   6
  -8   4   6 359.707 11.5992   2
   8   4  -6 344.111 13.4320   1
  -6  -4   6 183.675 7.76059  14
   6  -4  -6 189.401 8.87724   5
   6  -4  -6 179.264 8.15793  12
  -6  -4   6 191.958 8.54170   2
   6  -4  -6 192.298 6.75063  11
  -6   4   6 185.477 7.51079   2
   6   4  -6 194.045 6.68557   9
  -6   4   6 177.703 7.63172   8
   6   4  -6 191.635 8.78170   1
  -6   4   6 195.312 7.06441   6
  -6   4   6 212.674 9.35235  15
  -4  -4   6 972.834 21.7687   2
  -4  -4   6 973.899 21.7855  14
   4  -4  -6 998.427 23.0602   5
   4  -4  -6 940.121 19.4824  11
   4  -4  -6 955.395 19.4399  16
   4  -4  -6 941.114 21.5031  12
  -4  -4   6 941.922 19.6667   4
   4   4  -6 960.387 19.6397   9
   4   4  -6 999.600 22.6097   1
  -4   4   6 998.954 20.9359   2
  -4   4   6 955.750 20.4842  14
  -4   4   6 976.012 21.2484  15
  -4   4   6 968.846 19.7756   6
   2  -4  -6 0.76441 1.85137   5
   2  -4  -6 0.54414 1.15766  16
  -2  -4   6 1.37763 2.04431  14
  -2  -4   6 4.78111 1.02941  10
   2  -4  -6 2.58766 1.30765   3
   2  -4  -6 0.43620 1.89691  12
  -2  -4   6 1.24240 1.73727   4
   2   4  -6 1.10796 1.04918  12
  -2   4   6 2.68428 1.18291   2
   2   4  -6 7.89481 2.13270   3
  -2   4   6 1.94589 1.10327  15
  -2   4   6 1.15023 1.17664   6
  -2   4   6 2.69598 1.49334  14
   0  -4  -6 2317.17 44.1304  16
   0  -4   6 2392.56 43.9683  14
   0  -4   6 2306.01 39.9254  11
   0  -4   6 2381.09 44.1751   4
   0  -4  -6 2299.36 45.3648   5
   0  -4  -6 2339.60 44.7215  12
   0  -4   6 2318.06 40.5141  10
   0   4   6 2330.49 40.7641   2
   0   4  -6 2323.65 44.3723  16
   0   4   6 2351.09 43.4109  14
   0   4  -6 2299.39 40.8317  12
   0   4  -6 2396.30 44.4757   8
   0   4  -6 2332.48 43.6036   3
   0   4   6 2288.22 41.8802  10
   0   4   6 2351.30 41.9259   6
   2  -4   6 16.0570 3.44763   4
   2  -4   6 9.65103 2.11018  10
  -2  -4  -6 9.29768 2.94676   3
  -2  -4  -6 4.80777 2.40941  16
   2  -4   6 8.68605 2.58753  14
   2  -4   6 6.32783 1.88408  11
  -2  -4  -6 10.2222 3.41303  12
   2   4   6 12.6825 2.52813  10
   2   4   6 8.80439 1.87187   7
  -2   4  -6 10.1446 2.87730   8
   2   4   6 8.31723 2.28288   6
  -2   4  -6 13.9098 3.43006   3
  -4  -4  -6 1125.31 27.8054   3
   4  -4   6 1172.49 28.4016   4
  -4  -4  -6 1069.78 27.9446  16
   4  -4   6 1115.32 25.3297  10
  -4  -4  -6 1129.16 29.2158  12
   4   4   6 1160.40 26.0191  10
  -4   4  -6 1064.78 28.0205  16
   4   4   6 1088.84 25.3605   7
  -4   4  -6 1118.79 28.4535   8
  -4   4  -6 1127.25 28.2330   3
  -6  -4  -6 52.7412 7.74957  12
  -6  -4  -6 38.6900 6.41131   3
   6  -4   6 44.5776 6.14485   4
  -6   4  -6 47.3929 6.63076   3
  -6   4  -6 48.5728 7.06696   8
   6   4   6 39.2811 5.04065  10
   6   4   6 37.6137 4.79888   7
  11  -5  -6 223.042 10.9795   7
 -11  -5   6 214.226 14.1694   8
 -11  -5   6 219.558 13.5651  15
 -11   5   6 179.068 11.6715   8
  11   5  -6 231.374 12.4806   1
 -11   5   6 202.589 12.0652  15
 -11   5   6 193.060 9.96892   6
  -9  -5   6 7.02972 3.36427   2
   9  -5  -6 9.89038 3.53730   5
  -9  -5   6 10.8291 4.42797  15
  -9   5   6 4.86288 2.55994   6
  -9   5   6 7.67475 3.38878   8
  -9   5   6 12.9961 4.53157  15
   9   5  -6 1.14285 2.24515   1
  -9   5   6 9.86484 2.66310   2
   7  -5  -6 43.9275 3.94436  11
  -7  -5   6 41.5169 4.54408  14
   7  -5  -6 48.3933 5.76279   5
  -7  -5   6 45.7765 5.27980   2
  -7   5   6 57.4795 6.47432  15
  -7   5   6 40.1579 4.86202   8
   7   5  -6 44.4805 5.49423   1
  -7   5   6 47.6607 4.13534   6
   7   5  -6 46.2355 3.50642   9
  -7   5   6 56.5822 5.16639   2
  -5  -5   6 124.276 6.85371  14
  -5  -5   6 124.204 7.01627   2
   5  -5  -6 123.378 7.27540   5
   5  -5  -6 129.932 5.87692  11
   5  -5  -6 131.681 6.69734  12
  -5   5   6 137.747 6.08449   6
  -5   5   6 132.422 6.99795  15
   5   5  -6 136.371 7.30983   1
  -5   5   6 118.308 6.18081   2
   5   5  -6 119.562 5.59276   9
   3  -5  -6 54.1578 4.62512  12
   3  -5  -6 57.9317 3.91885  11
   3  -5  -6 57.6587 5.48343   5
  -3  -5   6 59.5442 5.07006  14
   3  -5  -6 54.7812 3.89524  16
  -3  -5   6 52.2590 4.40831   4
  -3   5   6 59.3981 4.31397   2
  -3   5   6 58.4132 4.03014  15
  -3   5   6 56.1220 3.80409   6
   3   5  -6 59.2244 4.61342   1
   3   5  -6 58.4812 3.90923   9
   1  -5  -6 282.983 11.1404   5
   1  -5  -6 275.311 8.26962   3
   1  -5  -6 291.312 10.6214  12
  -1  -5   6 273.663 10.3211  14
   1  -5  -6 263.376 9.77906  16
  -1  -5   6 263.896 9.79683   4
  -1   5   6 276.837 9.07179   6
   1   5  -6 287.049 9.94282   3
  -1   5   6 283.841 8.83221   2
  -1   5   6 281.206 8.89041  10
   1  -5   6 42.2915 3.22840  10
  -1  -5  -6 41.4065 5.43596   5
  -1  -5  -6 40.6234 3.81272   3
   1  -5   6 43.5470 5.00990  14
   1  -5   6 46.9343 3.45674  11
  -1  -5  -6 33.8249 3.84995  16
  -1  -5  -6 45.3704 5.50579  12
   1  -5   6 41.4120 5.13456   4
   1   5   6 37.3064 3.33454   7
   1   5   6 43.5439 3.77866  10
   1   5   6 45.0032 4.42132   6
  -1   5  -6 36.0743 4.62591  16
  -1   5  -6 42.2126 4.94310   8
  -1   5  -6 43.4336 4.83724   3
   3  -5   6 79.5342 5.91240  14
  -3  -5  -6 97.1706 6.96551   3
  -3  -5  -6 86.5779 7.48680  12
   3  -5   6 88.9147 5.68788  11
   3  -5   6 87.0600 5.48438  10
   3  -5   6 89.8991 6.71615   4
  -3  -5  -6 83.8760 6.87874  16
   3   5   6 86.0025 5.71883  10
   3   5   6 84.3534 5.50751   6
   3   5   6 89.5605 5.81825   7
  -3   5  -6 78.5331 6.74022  16
  -3   5  -6 96.3896 7.07672   3
  -3   5  -6 90.2636 7.27289   8
   5  -5   6 273.656 12.8071   4
  -5  -5  -6 259.466 12.4428   3
  -5  -5  -6 250.604 13.1097  12
  -5   5  -6 267.690 12.7021   3
  -5   5  -6 275.334 13.4369   8
   5   5   6 264.706 10.7219  10
   5   5   6 256.775 11.0652   7
 -10  -6   6 645.657 22.9528  15
  10  -6  -6 589.716 20.3549   5
  10   6  -6 603.305 20.8953   1
 -10   6   6 639.467 21.7430  15
 -10   6   6 576.430 17.5717   6
   8  -6  -6 2.08729 2.03583  11
   8  -6  -6 3.44399 3.03509   5
  -8  -6   6 -0.7859 2.79992   2
  -8   6   6 3.90012 2.20007   2
  -8   6   6 3.75263 1.71141   6
  -8   6   6 6.17606 3.40470  15
   8   6  -6 1.08559 2.45598   1
   8   6  -6 -0.2605 1.35036   9
  -6  -6   6 1721.11 35.8204   2
   6  -6  -6 1681.82 33.2432  11
   6  -6  -6 1713.07 37.0880   5
  -6  -6   6 1699.25 35.0842  14
   6   6  -6 1706.45 36.6511   1
  -6   6   6 1668.51 35.8577  15
  -6   6   6 1661.00 33.8044   2
  -6   6   6 1704.79 33.4872   6
   6   6  -6 1654.52 32.7304   9
   4  -6  -6 5.85005 1.60682  16
   4  -6  -6 5.13034 3.01440   5
   4  -6  -6 3.43959 2.04870  12
  -4  -6   6 4.72390 2.25897   4
   4  -6  -6 8.11220 2.27893  11
  -4  -6   6 2.11232 2.54247  14
  -4   6   6 4.00566 1.80421   6
   4   6  -6 7.01270 2.02963   9
  -4   6   6 5.43306 2.05191   2
   4   6  -6 2.87979 1.77612   1
  -4   6   6 8.91864 2.39520  15
   2  -6  -6 1240.79 27.0303  16
   2  -6  -6 1232.76 26.2796  11
  -2  -6   6 1265.76 27.3824   4
   2  -6  -6 1218.23 27.0450  12
   2  -6  -6 1231.74 29.2844   5
  -2  -6   6 1251.93 28.0876  14
   2   6  -6 1238.82 26.7621   1
  -2   6   6 1249.73 25.7911   2
   2   6  -6 1288.16 26.6519   3
   2   6  -6 1264.29 25.8760   9
  -2   6   6 1217.70 25.6906   6
   0  -6   6 161.745 8.38504  14
   0  -6   6 162.515 6.00688  11
   0  -6   6 170.268 8.70780   4
   0  -6  -6 171.356 9.17790   5
   0  -6  -6 166.571 8.71216  12
   0  -6  -6 168.287 8.33450  16
   0   6  -6 161.540 8.48511   8
   0   6   6 150.472 6.72160  10
   0   6   6 157.309 6.41789   2
   0   6   6 166.898 7.42907   6
   0   6  -6 170.271 7.90883   3
   2  -6   6 407.839 11.6451  10
  -2  -6  -6 415.377 15.0309  16
  -2  -6  -6 418.533 16.2403   5
  -2  -6  -6 442.109 15.5064  12
   2  -6   6 411.199 13.7617  14
   2  -6   6 406.544 14.5857   4
   2  -6   6 429.536 12.3748  11
  -2   6  -6 417.848 14.9670   8
   2   6   6 404.521 12.4160  10
  -2   6  -6 421.293 14.0983   3
   2   6   6 442.996 13.4803   6
   2   6   6 434.145 12.9518   7
   4  -6   6 98.0137 6.67588  11
   4  -6   6 101.305 7.75486   4
  -4  -6  -6 123.090 9.55883  12
   4   6   6 116.889 7.32666   7
   4   6   6 104.567 7.19500   6
  -4   6  -6 112.939 8.05747   3
  -4   6  -6 116.808 8.92599   8
   4   6   6 120.903 7.11243  10
  -6  -6  -6 244.331 13.9838  12
   6   6   6 248.297 10.5511  10
  -6   6  -6 244.140 13.1334   8
   6   6   6 232.816 11.3277   7
  -6   6  -6 263.498 12.8239   3
   9  -7  -6 108.479 8.90411   5
   9  -7  -6 88.3251 7.64282  11
  -9  -7   6 104.346 8.17315   2
  -9  -7   6 105.164 9.71544  15
  -9   7   6 103.775 6.67339   2
  -9   7   6 110.716 7.44081   6
  -9   7   6 125.656 9.23597  15
   9   7  -6 108.516 8.25004   1
   7  -7  -6 359.488 12.1173  11
  -7  -7   6 325.803 12.5040  14
   7  -7  -6 348.700 14.3470   5
  -7  -7   6 340.534 13.5726   2
  -7   7   6 362.122 14.0631  15
  -7   7   6 358.815 12.3206   2
   7   7  -6 357.351 14.0945   1
  -7   7   6 340.834 11.9041   6
   7   7  -6 342.908 11.3883   9
   5  -7  -6 749.052 21.4046   5
   5  -7  -6 717.649 18.4727  11
  -5  -7   6 719.984 18.3406   4
  -5  -7   6 739.218 20.4029  14
   5   7  -6 741.783 20.3844   1
  -5   7   6 728.368 18.5159   6
  -5   7   6 729.858 19.4895  15
   5   7  -6 734.535 18.1262   9
  -5   7   6 738.927 18.6569   2
  -3  -7   6 263.505 11.2046  14
  -3  -7   6 250.064 10.2577   4
   3  -7  -6 250.225 9.72914  16
   3  -7  -6 252.314 9.39582  11
   3  -7  -6 248.907 11.3866   5
   3  -7  -6 253.852 9.82212  12
   3   7  -6 246.046 9.80828   1
  -3   7   6 256.647 9.08398  15
  -3   7   6 267.848 9.68036   2
   3   7  -6 253.092 9.34587   9
  -3   7   6 257.323 9.39165   6
   1  -7  -6 712.029 19.7089  16
  -1  -7   6 722.221 20.2073  14
   1  -7  -6 740.421 19.4781  12
   1  -7  -6 777.480 22.0987   5
  -1  -7   6 747.069 20.2214   4
  -1   7   6 748.977 18.6638   6
   1   7  -6 729.729 18.2618   9
   1   7  -6 686.045 17.6888   1
  -1   7   6 729.256 17.6658   2
  -1   7   6 748.453 17.4720  10
   1   7  -6 760.527 18.6393   3
  -1  -7  -6 160.038 9.66833   5
   1  -7   6 160.150 8.87879  14
   1  -7   6 143.169 6.53830  11
  -1  -7  -6 149.892 8.91257  12
   1  -7   6 141.434 9.14519   4
  -1  -7  -6 160.664 8.93000  16
   1   7   6 156.501 7.84398   6
  -1   7  -6 159.428 9.09302   8
   1   7   6 151.441 7.10028  10
  -1   7  -6 177.908 8.49388   3
   3  -7   6 68.1349 5.43388  11
  -3  -7  -6 71.2272 8.54084   5
   3  -7   6 75.0215 7.52432   4
  -3  -7  -6 67.5679 7.82669  12
   3  -7   6 53.4854 6.63113  14
  -3   7  -6 71.0094 6.21057   3
   3   7   6 73.5321 5.79024   7
  -3   7  -6 75.4605 8.02026   8
   3   7   6 72.6747 5.49083  10
   3   7   6 81.6405 5.90288   6
   5  -7   6 111.936 7.60304  11
  -5  -7  -6 102.858 9.70422  12
  -5  -7  -6 105.080 10.0313   5
   5  -7   6 102.525 8.78286   4
   5   7   6 106.927 7.55776   7
  -5   7  -6 98.9647 9.04086   8
 -10  -8   6 31.8097 6.06317  15
  10  -8  -6 39.2553 6.53222   5
 -10   8   6 37.2620 6.37832  15
  10   8  -6 33.7701 5.53174   1
 -10   8   6 32.9434 5.34210   6
   8  -8  -6 6.61502 2.92389  11
  -8  -8   6 10.9019 4.17708   2
   8  -8  -6 10.6958 4.40302   5
   8   8  -6 11.6485 2.83856   9
  -8   8   6 8.80418 3.59659  15
   8   8  -6 9.49876 3.89949   1
  -8   8   6 11.4167 3.17258   2
  -8   8   6 10.6224 3.39341   6
   6  -8  -6 16.1164 4.50199   5
   6  -8  -6 19.9237 3.98564  11
  -6  -8   6 10.6304 3.85746  14
  -6   8   6 17.9607 3.21399   2
   6   8  -6 18.5240 4.08299   1
   6   8  -6 19.9596 3.45578   9
  -6   8   6 18.3344 3.59477   6
  -6   8   6 21.9248 3.97635  15
   4  -8  -6 79.5823 5.62219  12
  -4  -8   6 88.4550 7.31040  14
   4  -8  -6 80.7721 5.60394  16
   4  -8  -6 75.3675 7.23390   5
  -4  -8   6 72.4449 6.25604   4
   4  -8  -6 80.3434 6.04736  11
  -4   8   6 70.6594 5.44493   6
   4   8  -6 83.8273 5.71237   9
  -4   8   6 77.2862 5.58735  15
  -4   8   6 73.4432 5.65157   2
   4   8  -6 73.1333 5.95233   1
   2  -8  -6 114.041 6.86400  12
   2  -8  -6 101.943 8.17224   5
  -2  -8   6 111.113 8.12490  14
  -2  -8   6 121.008 8.18203   4
   2  -8  -6 121.878 7.26525  16
   2  -8  -6 110.199 6.88465  11
  -2   8   6 115.710 6.70917   6
   2   8  -6 97.4641 6.89432   1
   2   8  -6 129.218 6.99607   9
   0  -8  -6 210.238 10.2193  12
   0  -8   6 198.684 10.8448   4
   0  -8  -6 194.434 10.0816  16
   0  -8   6 213.913 10.6829  14
   0  -8  -6 218.401 11.7210   5
   0   8   6 198.709 8.24773  10
   0   8   6 205.860 9.27656   6
   0   8  -6 217.134 9.25846   9
   2  -8   6 233.955 11.1180  14
  -2  -8  -6 232.509 13.2052   5
   2  -8   6 231.924 11.8684   4
   2  -8   6 224.770 9.13872  11
  -2  -8  -6 231.515 11.7586  12
   2   8   6 247.420 10.3354   6
   2   8   6 217.621 9.00932  10
  -2   8  -6 241.957 12.1207   8
  -2   8  -6 229.648 9.60835   9
  -4  -8  -6 67.4154 8.65497   5
   4  -8   6 69.0903 7.61994   4
  -4  -8  -6 67.1356 8.13159  12
   4  -8   6 68.3777 5.87485  11
   4   8   6 63.2447 6.40151   6
  -4   8  -6 67.3741 7.69572   8
   9  -9  -6 104.520 7.59291  11
   9  -9  -6 98.8723 8.94311   5
  -9  -9   6 73.8737 10.1087   2
   9   9  -6 89.3644 9.17618   1
  -9   9   6 95.2248 7.09935   6
  -9   9   6 102.495 8.58028  15
   9   9  -6 87.4087 6.44433   9
  -7  -9   6 91.7149 7.80155  14
   7  -9  -6 82.5179 8.83031   5
   7  -9  -6 78.8621 6.89845  11
  -7  -9   6 82.4346 8.14410   2
  -7   9   6 75.9514 6.82962   6
  -7   9   6 90.3438 7.03221  15
   7   9  -6 78.7094 6.90861   1
   7   9  -6 85.3615 6.38213   9
   5  -9  -6 81.2837 8.10429   5
  -5  -9   6 64.3253 7.37096  14
   5  -9  -6 63.8704 6.45556  11
   5   9  -6 64.7183 6.25811   9
  -5   9   6 63.1554 5.63262  15
   5   9  -6 70.5948 6.22886   1
  -5   9   6 75.7504 5.69054   6
   3  -9  -6 209.924 10.0005  16
  -3  -9   6 211.599 11.4897  14
   3  -9  -6 227.132 11.7640   5
   3  -9  -6 237.466 10.4247  11
  -3  -9   6 221.373 10.9680   4
  -3   9   6 217.448 9.81786   6
   3   9  -6 216.237 9.78619   9
   1  -9  -6 18.4076 3.66111  16
   1  -9  -6 11.4371 3.42447  12
  -1  -9   6 18.7724 4.30326   4
   1  -9  -6 18.8298 4.21602  11
   1  -9  -6 16.5395 4.88135   5
  -1  -9   6 23.1635 4.93220  14
  -1   9   6 13.7555 2.77898  10
   1   9  -6 10.1911 2.67598   9
  -1   9   6 11.2605 3.01469   6
  -1  -9  -6 76.7296 8.98526   5
   1  -9   6 68.8994 7.01067   4
   1  -9   6 85.0471 7.51104  14
  -1  -9  -6 68.9142 7.37786  12
  -1   9  -6 81.1588 5.95012   9
   1   9   6 83.9346 6.60696   6
  -3  -9  -6 7.87818 4.62155   5
  -3  -9  -6 8.84209 3.97161  12
   3  -9   6 20.5439 4.82177   4
   3  -9   6 13.5210 3.29035  11
   3   9   6 8.03578 3.34740   6
  -3   9  -6 8.78095 3.08222   9
  -3   9  -6 20.4183 4.72945   8
   8 -10  -6 727.318 23.6808   5
   8 -10  -6 683.483 20.5596  11
  -8 -10   6 710.333 22.6430   2
   8  10  -6 691.209 19.7619   9
  -8  10   6 711.909 21.3183   6
   8  10  -6 695.953 22.6309   1
  -8  10   6 724.629 22.8462  15
   6 -10  -6 123.050 9.76189   5
  -6 -10   6 145.829 10.3664  14
   6 -10  -6 131.774 8.70725  11
   6  10  -6 126.258 8.69206   1
   6  10  -6 122.190 7.92578   9
  -6  10   6 147.600 8.81671   6
  -6  10   6 144.451 8.89073  15
   4 -10  -6 1216.64 32.1469   5
   4 -10  -6 1168.09 29.0082  11
  -4 -10   6 1220.72 31.8386  14
  -4 -10   6 1213.76 30.0279   4
   4  10  -6 1231.33 28.8082   9
  -4  10   6 1201.63 28.8844   6
  -2 -10   6 232.530 12.6072  14
  -2 -10   6 241.065 12.6510   4
   2 -10  -6 253.261 13.7527   5
   2 -10  -6 234.322 11.2775  11
   2  10  -6 248.147 10.9823   9
  -2  10   6 240.431 10.7278   6
  -2  10   6 191.421 9.30454  10
   0 -10  -6 763.957 25.0817   5
   0 -10   6 744.829 22.7781  14
   0 -10  -6 745.740 21.8529  11
   0 -10   6 728.974 22.9680   4
   0  10  -6 732.252 20.3341   9
   0  10   6 698.934 20.5557   6
  -2 -10  -6 164.682 12.1064   5
   2 -10   6 170.867 9.83223  14
   2 -10   6 163.320 11.7113   4
   2  10   6 170.917 9.18392   6
  -2  10  -6 156.973 8.39733   9
  -7 -11   6 120.226 9.51928  14
   7 -11  -6 122.868 9.78851   5
  -7 -11   6 146.929 10.1865   2
   7 -11  -6 124.507 8.22182  11
   7  11  -6 116.571 7.97636   9
  -7  11   6 127.024 8.53315  15
  -7  11   6 125.278 8.77008   6
   5 -11  -6 150.890 9.68589  11
   5 -11  -6 138.208 10.6535   5
  -5 -11   6 132.380 10.6436  14
  -5  11   6 140.388 8.51768   6
   5  11  -6 139.948 8.74583   9
  -3 -11   6 263.847 13.3868   4
  -3 -11   6 260.665 13.9898  14
   3 -11  -6 275.486 12.6380  11
   3 -11  -6 247.438 13.7874   5
  -3  11   6 269.086 11.9895   6
   3  11  -6 264.010 11.8800   9
   1 -11  -6 140.071 9.36905  11
   1 -11  -6 140.162 11.0216   5
  -1 -11   6 152.155 11.0531   4
  -1 -11   6 146.047 10.4675  14
   1  11  -6 141.776 8.42378   9
  -1  11   6 139.745 8.35900   6
   1 -11   6 239.473 13.0539   4
  -1 -11  -6 248.854 12.7083  11
   1 -11   6 239.891 12.5935  14
  -1 -11  -6 268.351 15.1933   5
   1  11   6 235.010 11.0760   6
  -1  11  -6 218.076 10.7422   9
   4 -12  -6 21.2681 5.62464   5
   4 -12  -6 19.6450 4.81338  11
   4 -12  -6 22.5749 5.42697   4
  -4 -12   6 18.4026 5.70993  14
  -4 -12   6 15.0008 4.86281   4
  -4  12   6 28.7583 5.18964   6
   4  12  -6 22.7689 4.36752   9
  -2 -12   6 36.3001 7.01831   4
   2 -12  -6 37.3781 7.01332   5
  -2 -12   6 46.7781 6.69702  14
   2 -12  -6 45.7603 6.52323  11
  -2  12   6 45.6283 6.27626   6
   2  12  -6 39.6035 5.47326   9
   0 -12  -6 18.4895 5.72480   5
   0 -12   6 15.7174 5.85986   4
   0 -12   6 14.4332 5.04776  14
   0 -12  -6 24.7330 5.14508  11
   0  12  -6 9.89733 3.42029   9
   0  12   6 12.2932 3.70824   6
 -12   0   7 -0.1774 2.76088   8
 -12   0   7 0.45835 4.62069  15
 -10   0   7 -2.2134 3.04754   8
 -10   0   7 2.77507 2.44526   2
  10   0  -7 3.54431 2.29614   1
 -10   0   7 -0.6834 2.81076  15
   8   0  -7 0.44938 1.55516   1
   8   0  -7 1.75298 1.71923   5
  -8   0   7 3.60199 2.04668   2
  -8   0   7 0.38971 2.81326  15
   6   0  -7 -1.7796 1.17616  12
  -6   0   7 1.18484 1.40325  14
   6   0  -7 -0.1789 1.20512   5
  -6   0   7 0.32433 2.18249   2
  -6   0   7 2.19577 2.37438  15
   6   0  -7 -0.0132 1.27207   1
  -4   0   7 -0.8038 1.30217  15
   4   0  -7 1.26971 1.32236   5
   4   0  -7 0.26235 1.24017   3
   4   0  -7 2.66183 1.10157  16
  -4   0   7 2.05430 2.10682   2
  -4   0   7 -0.4494 1.63371  14
   4   0  -7 6.91075 2.28079  12
   2   0  -7 1.83218 1.40071   5
   2   0  -7 1.58642 1.90646  12
  -2   0   7 1.49098 0.73218   6
   2   0  -7 0.88609 1.63627   3
  -2   0   7 -0.3277 1.66330   2
  -2   0   7 -0.5608 1.66445  14
  -2   0   7 0.45586 1.09301  10
   2   0  -7 1.50094 1.53203  16
  -2   0   7 0.89836 1.24448   4
   0   0  -7 2.06709 2.01909  16
   0   0   7 2.86699 1.96893  14
   0   0   7 2.05365 1.75083   4
   0   0  -7 0.87487 2.04548  12
   0   0  -7 2.40380 2.05787   3
   0   0  -7 1.70402 1.69976   5
   0   0   7 0.07549 1.22377  10
   0   0   7 3.30845 1.47946   2
   0   0  -7 1.27204 1.48374  13
   0   0  -7 0.97432 1.23413   8
   2   0   7 5.84836 2.28631  14
   2   0   7 2.30859 1.62774   4
  -2   0  -7 -1.1837 1.59296   3
  -2   0  -7 -2.0632 2.01718  16
  -2   0  -7 -0.1474 1.47686   8
  -2   0  -7 -1.3836 1.93309  12
   2   0   7 2.89431 1.95950  10
  -4   0  -7 1.65347 2.90096  12
   4   0   7 -1.6506 2.08129   4
  -4   0  -7 -2.3599 2.66242  16
  -4   0  -7 2.81728 3.41939   3
   4   0   7 2.81062 2.11244  10
  -6   0  -7 -1.2179 3.68121   3
  -6   0  -7 -0.4250 3.26479  12
   6   0   7 -1.4387 2.56983  10
 -11  -1   7 37.7663 7.39244  15
 -11  -1   7 31.1597 6.59894   8
 -11   1   7 32.6905 6.91391  15
  11   1  -7 29.7159 5.09036   1
 -11   1   7 37.9370 6.62662   8
   9  -1  -7 223.610 9.90953   1
  -9  -1   7 211.892 9.72686   2
   9  -1  -7 222.885 10.1960   5
   9  -1  -7 223.326 8.75651   7
  -9  -1   7 231.340 12.3922  15
   9   1  -7 225.823 10.5313   1
  -9   1   7 222.829 9.49461   2
  -9   1   7 226.310 12.2271  15
  -9   1   7 209.686 11.2281   8
  -7  -1   7 13.9855 2.91324   2
   7  -1  -7 11.7459 2.70242   1
  -7  -1   7 13.1945 2.36166  14
  -7  -1   7 16.2824 3.84490  15
   7  -1  -7 14.6917 2.89069   5
   7   1  -7 12.9351 2.75557   1
  -7   1   7 8.98358 3.27155  15
   7   1  -7 10.4569 2.14708   5
  -7   1   7 6.69113 2.73057   2
  -5  -1   7 1275.10 26.3915   2
  -5  -1   7 1227.00 25.1087  14
   5  -1  -7 1252.63 25.6063   5
  -5  -1   7 1210.74 26.9621  15
   5  -1  -7 1238.12 26.2938  12
  -5   1   7 1237.48 25.6230   2
   5   1  -7 1171.93 23.4734   5
  -5   1   7 1241.24 24.7741  14
   5   1  -7 1206.56 22.2486   9
   5   1  -7 1252.52 25.9755  12
  -5   1   7 1230.89 26.5679  15
   3  -1  -7 4.72450 1.46939  16
   3  -1  -7 2.53697 1.77481   5
   3  -1  -7 -0.8863 1.74326  12
  -3  -1   7 2.40931 1.23159   4
  -3  -1   7 3.32486 2.16201  14
   3  -1  -7 7.30034 1.95469   3
  -3  -1   7 4.78961 1.38776  10
  -3  -1   7 5.71856 2.16868   2
  -3   1   7 2.78101 1.50569  15
   3   1  -7 3.72772 1.83699  12
  -3   1   7 2.71913 0.92532   6
  -3   1   7 3.28525 1.78851  14
   3   1  -7 4.06290 1.37795  16
  -3   1   7 2.20036 1.86863   2
   3   1  -7 2.26491 1.57891   3
   3   1  -7 5.11198 1.45751   5
  -1  -1   7 1841.28 35.3253  14
   1  -1  -7 1878.88 36.3170  12
   1  -1  -7 1843.23 35.4620   3
  -1  -1   7 1854.92 33.6416   2
  -1  -1   7 1829.66 33.3747  10
   1  -1  -7 1804.18 35.0112   5
   1  -1  -7 1811.45 35.0360  16
  -1  -1   7 1817.29 34.6977   4
   1   1  -7 1812.93 35.6241   3
   1   1  -7 1835.67 35.3084  16
  -1   1   7 1818.71 35.0841  14
   1   1  -7 1855.96 35.2199  12
   1   1  -7 1766.27 36.2537  13
  -1   1   7 1903.40 34.0631  10
  -1   1   7 1832.85 34.8552   4
   1   1  -7 1756.84 32.8240   5
  -1   1   7 1808.11 32.1584   6
  -1   1   7 1785.82 32.9745   2
  -1  -1  -7 11.0795 3.14859  12
   1  -1   7 13.1944 2.30338  10
  -1  -1  -7 13.1466 3.16037   3
  -1  -1  -7 15.9999 3.36515  16
   1  -1   7 12.0517 2.90717   4
   1  -1   7 11.3924 2.76653  14
   1   1   7 16.6963 3.27167   4
  -1   1  -7 7.89212 2.80814  12
  -1   1  -7 13.3827 2.57660   8
   1   1   7 9.88268 2.62307  14
  -1   1  -7 8.82326 2.91201   3
   1   1   7 13.4185 2.37356   6
   1   1   7 14.4181 2.64266  10
  -1   1  -7 12.3631 3.07062  16
  -3  -1  -7 640.252 19.2171  12
   3  -1   7 608.350 16.7616  10
  -3  -1  -7 606.652 18.8129   3
   3  -1   7 602.210 18.3379   4
  -3  -1  -7 602.503 18.7882  16
   3  -1   7 588.957 16.0800  14
   3   1   7 599.597 16.4156  14
  -3   1  -7 593.184 18.5678  16
   3   1   7 618.053 16.9731  10
  -3   1  -7 624.529 18.1079  12
  -3   1  -7 593.525 17.1751   8
  -3   1  -7 594.333 18.8176   3
   5  -1   7 2.40648 2.14812   4
   5  -1   7 4.13105 2.24977  10
  -5  -1  -7 6.60741 4.13848   3
  -5  -1  -7 -0.0442 2.15491  12
  -5   1  -7 3.32180 3.23324  12
  -5   1  -7 5.36029 3.09241   8
   5   1   7 1.16303 2.41454  10
  -5   1  -7 3.50377 4.02361   3
 -12  -2   7 182.642 13.0476  15
 -12  -2   7 195.445 13.8432   8
  12   2  -7 178.288 10.5486   1
 -12   2   7 200.418 13.0752   8
 -12   2   7 182.433 12.7519  15
 -10  -2   7 287.577 11.5649   2
  10  -2  -7 310.566 11.6578   7
 -10  -2   7 322.365 15.4740  15
 -10   2   7 286.985 13.8119   8
 -10   2   7 303.887 11.3394   2
  10   2  -7 312.937 13.3493   1
 -10   2   7 313.547 15.1507  15
   8  -2  -7 517.256 14.9999   1
  -8  -2   7 527.109 15.5547   2
   8  -2  -7 523.386 15.8839   5
  -8  -2   7 532.570 18.3640  15
   8   2  -7 529.435 16.6464   1
  -8   2   7 520.496 17.5082  15
  -8   2   7 498.170 16.3966   8
  -8   2   7 516.059 14.9780   2
   6  -2  -7 1180.75 25.8973   5
   6  -2  -7 1173.79 25.0955   1
   6  -2  -7 1175.76 25.9979  12
  -6  -2   7 1152.38 24.4626  14
  -6  -2   7 1220.01 26.0703   2
  -6   2   7 1174.01 23.7025  14
   6   2  -7 1174.92 26.7165   1
  -6   2   7 1181.26 25.2360   2
   6   2  -7 1130.25 21.8005   9
  -6   2   7 1136.00 22.0873   6
  -6   2   7 1197.24 26.8909  15
   4  -2  -7 1196.65 25.1143   5
   4  -2  -7 1136.18 21.9385  16
   4  -2  -7 1173.54 25.2925  12
  -4  -2   7 1113.22 21.8434   4
  -4  -2   7 1141.73 24.5586   2
  -4  -2   7 1177.67 24.7434  14
   4   2  -7 1170.87 24.2155  12
  -4   2   7 1116.48 24.0004  15
  -4   2   7 1171.52 21.6066   6
  -4   2   7 1163.96 24.1095   2
  -4   2   7 1182.29 24.0343  14
   2  -2  -7 1557.75 30.6308  16
   2  -2  -7 1573.12 31.9498   5
   2  -2  -7 1648.14 32.7422  12
   2  -2  -7 1586.97 31.0802   3
  -2  -2   7 1585.16 29.1264  10
  -2  -2   7 1576.85 30.7366   2
  -2  -2   7 1596.73 30.6583   4
  -2  -2   7 1627.77 32.1245  14
   2   2  -7 1618.02 31.3389  16
  -2   2   7 1604.14 28.8821   6
   2   2  -7 1585.16 32.0371   3
  -2   2   7 1610.76 30.1433   2
   2   2  -7 1600.99 31.0222  12
  -2   2   7 1632.46 30.3823  10
  -2   2   7 1607.95 31.4891  14
   0  -2   7 1420.84 29.0005  14
   0  -2   7 1342.99 26.1345   2
   0  -2   7 1360.31 26.7849  10
   0  -2   7 1400.54 29.0592   4
   0  -2  -7 1340.55 28.9908  16
   0  -2  -7 1393.14 29.9623  12
   0  -2  -7 1377.12 28.7073   3
   0  -2  -7 1380.97 29.6915   5
   0   2  -7 1354.75 29.1409  16
   0   2   7 1402.06 26.5343   6
   0   2  -7 1373.49 29.5612   3
   0   2   7 1388.48 28.7395  14
   0   2  -7 1344.42 28.0276  12
   0   2  -7 1389.62 28.5848   8
   0   2   7 1402.00 27.6450  10
  -2  -2  -7 736.079 20.4345  16
  -2  -2  -7 748.718 20.7753  12
   2  -2   7 756.026 18.7084  14
  -2  -2  -7 741.900 20.1114   3
   2  -2   7 719.053 17.9745  10
   2  -2   7 706.343 19.6510   4
  -2   2  -7 722.681 20.1496  16
   2   2   7 752.744 18.4766  10
   2   2   7 768.818 17.8476   6
  -2   2  -7 740.246 19.1389  12
   2   2   7 762.292 19.1127  14
  -2   2  -7 745.073 19.6142   8
  -2   2  -7 742.158 20.6311   3
   4  -2   7 584.020 18.7951   4
  -4  -2  -7 591.935 19.4287   3
  -4  -2  -7 591.198 19.5339  12
  -4  -2  -7 574.458 19.2643  16
   4  -2   7 536.251 16.3466  10
  -4   2  -7 543.789 18.6233  16
   4   2   7 582.568 16.9724  10
  -4   2  -7 558.335 19.1374   3
  -4   2  -7 574.112 18.1231   8
  -4   2  -7 535.798 17.1648  12
  -6  -2  -7 231.246 12.7676   3
   6  -2   7 249.490 12.7552   4
  -6  -2  -7 225.817 12.9898  12
   6  -2   7 251.967 11.4588  10
  -6   2  -7 245.771 13.7473   3
  -6   2  -7 232.832 12.2163   8
   6   2   7 218.537 10.5578  10
 -11  -3   7 588.764 21.9337  15
  11  -3  -7 554.821 17.7901   7
 -11  -3   7 562.420 21.9799   8
 -11   3   7 569.698 20.6559   8
 -11   3   7 565.747 21.4203  15
  11   3  -7 554.886 19.4671   1
  -9  -3   7 5.47568 2.73221   2
   9  -3  -7 7.15600 2.80339   5
  -9  -3   7 5.79561 3.30875  15
  -9   3   7 8.16804 2.92509   2
   9   3  -7 2.54374 2.55276   1
  -9   3   7 8.41201 3.40142  15
  -9   3   7 5.12291 3.28171   8
   7  -3  -7 919.295 22.6561  12
  -7  -3   7 938.655 21.0881  14
  -7  -3   7 960.779 22.9888   2
   7  -3  -7 953.006 23.3979   5
   7  -3  -7 953.709 21.6736   1
  -7   3   7 914.899 19.4900   6
  -7   3   7 955.749 24.1866  15
  -7   3   7 993.098 22.1851   2
   7   3  -7 912.523 23.7370   1
  -7   3   7 924.919 22.6747   8
  -5  -3   7 6.90869 2.63787  14
   5  -3  -7 8.05832 2.76762   5
   5  -3  -7 4.03775 2.23149  12
  -5  -3   7 10.1398 2.84852   2
  -5   3   7 5.30515 1.43156   6
  -5   3   7 7.44224 1.98524  14
   5   3  -7 5.09693 1.38368   9
   5   3  -7 4.86009 1.83606   1
  -5   3   7 5.46200 2.42742  15
  -5   3   7 6.67264 2.32433   2
   5   3  -7 4.55427 1.70855  12
  -3  -3   7 599.572 15.5392   2
   3  -3  -7 582.868 14.3187   3
  -3  -3   7 642.443 16.5205  14
   3  -3  -7 616.509 16.5962   5
  -3  -3   7 619.276 13.0253  10
  -3  -3   7 609.373 14.6161   4
   3  -3  -7 636.053 16.7249  12
   3  -3  -7 602.566 14.4846  16
   3   3  -7 611.859 14.7730  12
   3   3  -7 626.378 15.0701  16
  -3   3   7 615.102 14.9412   2
  -3   3   7 620.906 15.6066  14
   3   3  -7 608.269 15.8958   3
  -3   3   7 582.737 14.0338  15
  -3   3   7 599.618 13.6416   6
   1  -3  -7 8.77684 3.02233  12
   1  -3  -7 12.3879 3.06428   5
  -1  -3   7 8.74996 2.26761   2
   1  -3  -7 10.2360 2.43571  16
  -1  -3   7 9.11030 2.33543   4
  -1  -3   7 12.5787 3.20075  14
   1  -3  -7 11.8869 2.42726   3
  -1  -3   7 10.3891 1.88455  10
  -1   3   7 10.0845 2.00671  10
   1   3  -7 8.58397 2.51500   3
  -1   3   7 9.07385 1.75498   6
  -1   3   7 11.3748 2.12028   2
   1   3  -7 8.90959 2.18029  12
  -1   3   7 8.89833 2.36526  14
   1   3  -7 8.44340 2.07172  16
  -1  -3  -7 399.189 14.0311  12
   1  -3   7 387.857 13.1934   4
   1  -3   7 380.465 12.4826  14
  -1  -3  -7 392.290 13.7087   5
  -1  -3  -7 386.319 13.2657  16
  -1  -3  -7 395.564 12.8730   3
   1  -3   7 393.763 11.4283  10
  -1   3  -7 391.257 11.9438  12
  -1   3  -7 377.739 13.4131  16
   1   3   7 386.859 11.2923   6
  -1   3  -7 407.634 13.1361   8
   1   3   7 376.198 10.3232   7
   1   3   7 400.577 12.6627  14
   1   3   7 398.257 11.8226  10
  -1   3  -7 408.336 13.6512   3
   3  -3   7 6.71631 2.07181  10
  -3  -3  -7 6.30906 3.58977  12
  -3  -3  -7 3.39345 2.82970  16
  -3  -3  -7 1.91112 3.09917   3
   3  -3   7 7.32974 2.62474  14
   3  -3   7 7.28853 3.38067   4
  -3   3  -7 4.98262 3.01993  16
  -3   3  -7 8.04132 2.97896   8
   3   3   7 7.88924 2.17532   7
  -3   3  -7 3.61485 3.11679   3
   3   3   7 5.39384 2.14589  14
   3   3   7 5.83683 2.39288  10
   5  -3   7 276.714 11.6395  10
  -5  -3  -7 294.127 14.3167  12
  -5  -3  -7 247.858 13.0449   3
   5  -3   7 285.629 12.9306   4
   5   3   7 269.127 11.7641  10
  -5   3  -7 289.542 13.9951   3
  -5   3  -7 275.627 13.1242   8
 -10  -4   7 246.425 11.1269   2
  10  -4  -7 240.184 11.8758   5
 -10  -4   7 224.748 13.4851  15
 -10   4   7 234.532 9.91445   2
 -10   4   7 240.963 13.1217  15
 -10   4   7 236.006 12.1813   8
  10   4  -7 232.938 11.8962   1
  -8  -4   7 181.616 9.43166   2
  -8  -4   7 169.524 10.6749  15
   8  -4  -7 180.900 9.40546   5
   8   4  -7 176.906 9.68201   1
  -8   4   7 171.056 9.00829   8
  -8   4   7 176.573 7.40468   6
  -8   4   7 162.212 9.93083  15
  -8   4   7 173.816 8.33081   2
   6  -4  -7 401.219 13.7140   5
  -6  -4   7 370.991 12.1264  14
   6  -4  -7 361.253 12.3308  12
  -6  -4   7 364.644 12.3960   2
   6   4  -7 380.737 13.5116   1
  -6   4   7 383.546 10.6756   6
  -6   4   7 375.077 11.9783   2
   6   4  -7 378.743 10.4402   9
  -6   4   7 359.666 12.5488  15
  -4  -4   7 34.5032 3.44257   4
  -4  -4   7 39.8878 4.58868   2
   4  -4  -7 38.8000 3.05345  16
   4  -4  -7 37.9510 4.57007  12
   4  -4  -7 38.4616 3.03341  11
  -4  -4   7 40.2728 4.74213  14
   4  -4  -7 36.9082 4.70683   5
  -4   4   7 38.9081 3.70989  15
   4   4  -7 41.3477 3.23815   9
   4   4  -7 38.3769 3.23224  12
  -4   4   7 39.2126 3.68496  14
  -4   4   7 36.6752 4.04709   2
  -4   4   7 38.8280 3.15086   6
   4   4  -7 41.0475 4.72491   1
  -2  -4   7 91.7851 6.28980  14
  -2  -4   7 91.0326 5.69868   4
   2  -4  -7 92.4255 6.42319   5
  -2  -4   7 86.1288 3.95142  10
   2  -4  -7 91.8839 5.36008  16
  -2  -4   7 83.3330 5.59811   2
   2  -4  -7 88.0252 6.20401  12
   2  -4  -7 85.5850 4.59292   3
   2   4  -7 81.7679 5.36581   3
   2   4  -7 95.1136 4.79821  12
  -2   4   7 91.8911 4.78656   6
  -2   4   7 79.2692 4.50539   2
  -2   4   7 89.3631 5.62551  14
   2   4  -7 76.7553 5.15406  16
   0  -4  -7 82.8454 5.30482   3
   0  -4   7 83.0824 4.45848  10
   0  -4   7 76.5026 5.87927   4
   0  -4  -7 78.6102 6.26852   5
   0  -4   7 87.9493 6.22141  14
   0  -4   7 75.2695 4.70394   2
   0  -4  -7 82.9293 6.58210  12
   0  -4  -7 72.1266 5.56317  16
   0   4   7 78.6591 4.63771   6
   0   4   7 82.7317 4.85388  10
   0   4  -7 72.5046 5.67154  16
   0   4   7 86.5841 4.55290   2
   0   4  -7 77.8994 5.73624   8
   0   4   7 84.8575 5.40158  14
   0   4  -7 84.7583 6.02823   3
   2  -4   7 2.46707 2.71860   4
  -2  -4  -7 6.61541 3.40194  12
   2  -4   7 3.09812 2.66640  14
  -2  -4  -7 4.94932 2.34757  16
  -2  -4  -7 5.66794 2.94937   3
   2  -4   7 5.44156 1.77850  10
  -2  -4  -7 2.37279 2.38568   5
  -2   4  -7 7.51332 2.97306  16
   2   4   7 4.57633 1.81903   6
   2   4   7 3.91672 1.76310   7
  -2   4  -7 4.25963 2.23803   8
   2   4   7 2.60865 2.06470  10
  -2   4  -7 2.87238 2.67887   3
  -4  -4  -7 97.8505 8.19996   3
   4  -4   7 81.1869 7.38191   4
  -4  -4  -7 89.2117 8.60297  12
   4  -4   7 85.1718 5.97732  10
  -4   4  -7 92.5386 8.15859   3
  -4   4  -7 89.5119 7.87219   8
   4   4   7 95.5589 6.81424  10
   4   4   7 80.4955 5.84193   7
  -6  -4  -7 28.0533 5.98543  12
   6  -4   7 22.3425 4.79279   4
  -6  -4  -7 18.8803 5.18016   3
   6   4   7 19.7315 4.15972  10
  -6   4  -7 18.5913 4.89175   8
  -6   4  -7 26.3497 5.11560   3
 -11  -5   7 0.34605 3.20975  15
  11  -5  -7 0.79638 3.02203   5
 -11   5   7 2.14762 2.97030  15
  11   5  -7 0.29942 2.03244   1
   9  -5  -7 88.9607 7.47819   5
  -9  -5   7 89.1454 7.90206   2
  -9  -5   7 93.5146 8.95098  15
  -9   5   7 95.4219 8.36810  15
  -9   5   7 93.5978 6.15587   6
   9   5  -7 97.0788 7.91700   1
  -9   5   7 89.1811 6.40703   2
   7  -5  -7 2.91120 2.66177   5
   7  -5  -7 3.87846 2.49445  12
  -7  -5   7 4.23501 3.03220   2
  -7  -5   7 -1.1562 2.27692  14
   7   5  -7 3.46749 2.51032   1
   7   5  -7 2.25871 1.42760   9
  -7   5   7 1.00855 1.73802   6
  -7   5   7 1.17421 2.04220   2
  -7   5   7 7.74175 3.29468  15
   5  -5  -7 584.988 16.4470  12
   5  -5  -7 582.723 14.4714  11
  -5  -5   7 587.128 16.7642  14
   5  -5  -7 596.033 17.8809   5
  -5  -5   7 635.390 17.5872   2
   5   5  -7 591.976 17.5302   1
  -5   5   7 577.791 16.0670  15
  -5   5   7 584.884 15.7520   2
   5   5  -7 594.176 14.7470   9
  -5   5   7 576.248 14.5505   6
  -3  -5   7 97.8147 5.97702   4
  -3  -5   7 101.886 6.86894  14
   3  -5  -7 91.8496 5.08037  11
   3  -5  -7 102.059 7.16866   5
   3  -5  -7 93.7186 5.34445  16
   3  -5  -7 99.7788 6.53564  12
  -3  -5   7 92.7449 6.20367   2
   3   5  -7 100.807 5.35685   9
   3   5  -7 90.3402 5.86737   3
  -3   5   7 102.583 5.29975   6
  -3   5   7 104.177 5.70489   2
   3   5  -7 80.6107 5.54255   1
  -3   5   7 95.4869 5.76057  14
   1  -5  -7 824.612 20.9136  16
  -1  -5   7 839.592 19.8638   2
   1  -5  -7 807.212 22.3654   5
  -1  -5   7 844.154 21.3304  14
  -1  -5   7 825.672 20.7953   4
   1  -5  -7 822.285 21.5272  12
   1   5  -7 860.093 21.0045   3
  -1   5   7 855.456 18.9010   2
  -1   5   7 838.505 19.2667  10
  -1   5   7 837.177 19.3209   6
   1  -5   7 80.9136 5.89542  14
   1  -5   7 71.5497 4.32057  11
   1  -5   7 70.2186 4.51717  10
  -1  -5  -7 63.7163 5.18390   3
  -1  -5  -7 74.6132 6.87415   5
  -1  -5  -7 75.3219 6.25651  16
   1  -5   7 79.2566 6.63581   4
  -1  -5  -7 67.7332 6.09636  12
  -1   5  -7 71.1877 6.25005   8
   1   5   7 66.6479 4.73842   6
   1   5   7 67.3294 4.82949  10
  -1   5  -7 86.6568 6.02874   3
  -1   5  -7 63.1934 5.54913  16
   3  -5   7 171.184 8.13236  10
   3  -5   7 193.241 10.6477   4
  -3  -5  -7 185.935 11.1721   5
  -3  -5  -7 175.075 10.3784  16
  -3  -5  -7 185.740 11.1191  12
  -3  -5  -7 171.733 9.40643   3
   3   5   7 185.299 8.90225  10
  -3   5  -7 198.507 10.5161   3
   3   5   7 184.147 8.53849   6
  -3   5  -7 174.036 10.3765  16
  -3   5  -7 187.172 10.3753   8
   5  -5   7 1.12170 2.81045   4
  -5  -5  -7 3.76023 3.58929   3
  -5  -5  -7 -2.1967 3.90340  12
   5   5   7 -1.2875 1.98411   7
   5   5   7 1.42660 2.50779  10
  -5   5  -7 1.50053 3.20044   8
  -5   5  -7 1.81455 3.24024   3
  10  -6  -7 195.803 11.5213   5
 -10  -6   7 176.406 12.8037  15
 -10   6   7 187.815 11.5793  15
 -10   6   7 170.665 8.69666   2
  10   6  -7 168.465 10.6002   1
 -10   6   7 180.177 9.10014   6
  -8  -6   7 229.812 11.1595   2
   8  -6  -7 230.009 11.6325   5
  -8   6   7 212.409 9.61800   2
   8   6  -7 211.294 8.35155   9
  -8   6   7 213.651 9.22733   6
   8   6  -7 230.467 11.8165   1
  -8   6   7 219.126 11.4575  15
  -6  -6   7 16.1841 4.12753   2
  -6  -6   7 14.2732 3.74130  14
   6  -6  -7 16.2737 3.50671  12
   6  -6  -7 25.8255 4.85475   5
   6  -6  -7 23.1756 3.40703  11
   6   6  -7 14.2565 2.84590   9
  -6   6   7 19.4306 3.82552  15
  -6   6   7 18.6335 3.23188   6
  -6   6   7 25.1241 3.51211   2
   6   6  -7 7.00689 2.75436   1
   4  -6  -7 165.283 9.63142   5
   4  -6  -7 159.038 7.06221  16
   4  -6  -7 163.261 7.29099  11
   4  -6  -7 161.552 8.21811  12
  -4  -6   7 164.335 8.92285  14
  -4  -6   7 165.424 7.76410   4
  -4   6   7 167.053 7.70726   2
   4   6  -7 172.813 7.39815   9
  -4   6   7 169.987 7.42018   6
  -4   6   7 159.130 7.33976  15
   4   6  -7 168.680 8.39978   1
  -2  -6   7 10.2738 3.16065   4
   2  -6  -7 6.54375 3.06441  12
   2  -6  -7 4.34821 2.07351  16
  -2  -6   7 7.71138 2.68208  14
   2  -6  -7 9.62643 3.08837   5
   2   6  -7 3.23591 1.89256   9
  -2   6   7 6.85621 1.94668   6
   2   6  -7 9.88412 2.70964   1
  -2   6   7 7.64279 2.31325   2
   2   6  -7 3.20460 2.08182   3
   0  -6   7 2.22287 2.20861   4
   0  -6  -7 0.85007 2.92590  12
   0  -6  -7 1.36310 2.20283  16
   0  -6  -7 1.10871 2.51879   5
   0  -6   7 3.33281 2.35351  14
   0   6   7 3.89885 2.15775   6
   0   6   7 1.87394 1.44782   2
   0   6  -7 1.38672 2.23719   8
   0   6   7 2.21463 1.82325  10
   0   6  -7 2.88973 2.38388   3
  -2  -6  -7 59.2114 6.40272  16
  -2  -6  -7 86.0930 8.64843  12
   2  -6   7 76.4148 5.17859  11
   2  -6   7 82.5429 6.81600   4
   2  -6   7 84.8749 6.82272  14
  -2  -6  -7 66.6917 8.00823   5
   2   6   7 82.6022 5.86612  10
  -2   6  -7 85.2893 7.35608   8
   2   6   7 75.5618 5.93084   6
  -2   6  -7 82.7390 6.73294   3
  -4  -6  -7 0.90691 2.18813   5
   4  -6   7 -0.2916 3.06189   4
  -4  -6  -7 1.50280 2.73510  12
   4   6   7 5.73609 2.66820   7
   4   6   7 0.63572 1.93958   6
  -4   6  -7 -1.9914 2.92630   3
   4   6   7 1.84085 2.38829  10
  -4   6  -7 8.92811 3.83192   8
   9  -7  -7 532.033 19.4141   5
  -9  -7   7 536.426 18.1373   2
  -9  -7   7 543.803 20.9350  15
  -9   7   7 538.873 16.5669   2
   9   7  -7 549.427 19.8428   1
  -9   7   7 544.286 19.4294  15
  -9   7   7 521.583 16.4703   6
   7  -7  -7 3.94157 3.47298   5
  -7  -7   7 3.45999 2.93596  14
  -7  -7   7 4.21870 2.66336   2
   7  -7  -7 1.18860 2.20102  11
  -7   7   7 6.72641 2.55880   2
   7   7  -7 1.85443 1.79050   9
  -7   7   7 2.99372 2.53553  15
   7   7  -7 5.90031 2.81210   1
  -7   7   7 6.02966 2.45430   6
  -5  -7   7 457.305 15.7705   2
   5  -7  -7 442.574 14.1372  12
   5  -7  -7 456.446 13.8032  11
  -5  -7   7 454.059 15.6690  14
   5  -7  -7 444.948 16.1919   5
  -5   7   7 459.516 14.2601   2
  -5   7   7 452.537 14.2224  15
  -5   7   7 430.093 13.4887   6
   5   7  -7 454.498 13.5845   9
   5   7  -7 456.888 15.6814   1
   3  -7  -7 15.0737 2.93919  16
   3  -7  -7 15.1673 2.88089  11
  -3  -7   7 23.3906 3.90688   4
  -3  -7   7 17.4998 3.84680  14
   3  -7  -7 25.6598 4.26503  12
   3  -7  -7 20.3955 4.90795   5
  -3   7   7 18.2913 3.35044   6
   3   7  -7 14.0492 3.24386   1
  -3   7   7 13.2728 2.97982   2
   3   7  -7 17.5203 3.17695   9
  -1  -7   7 164.186 8.88797   4
  -1  -7   7 166.899 8.99015  14
   1  -7  -7 150.889 8.94147  12
   1  -7  -7 147.823 9.39804   5
   1  -7  -7 157.385 8.52783  16
  -1   7   7 161.033 7.27053  10
   1   7  -7 148.184 7.77184   1
  -1   7   7 163.919 7.41505   2
   1   7  -7 156.093 7.84301   9
  -1   7   7 158.581 7.86168   6
   1   7  -7 157.443 8.21559   3
  -1  -7  -7 4.18522 2.74714  16
  -1  -7  -7 5.63627 3.84016   5
   1  -7   7 1.38329 3.42499   4
  -1  -7  -7 -1.3867 3.03347  12
   1  -7   7 8.04955 3.63801  14
   1   7   7 1.77016 2.28416   6
  -1   7  -7 2.49802 2.69243   8
  -1   7  -7 0.84974 2.31194   3
   1   7   7 0.53396 2.01138  10
  -3  -7  -7 162.949 11.4440   5
  -3  -7  -7 174.145 11.4259  12
   3  -7   7 158.600 10.6329   4
   3  -7   7 135.090 7.80812  11
   3   7   7 149.370 8.34038   6
   3   7   7 152.325 8.29444  10
  -3   7  -7 146.584 9.54909   3
  -3   7  -7 165.494 10.7331   8
   5  -7   7 24.1003 6.19161   4
  -5  -7  -7 20.5017 7.16903  12
  -5   7  -7 21.4006 6.15980   8
   5   7   7 21.6857 3.85309   7
 -10  -8   7 150.392 14.0896  15
  10  -8  -7 155.721 11.9130   5
 -10   8   7 153.175 10.4825  15
  10   8  -7 155.375 10.3120   1
 -10   8   7 161.151 9.39004   6
   8  -8  -7 424.862 17.2091   5
  -8  -8   7 415.247 16.2396   2
   8   8  -7 422.193 16.7390   1
  -8   8   7 401.141 14.0137   2
   8   8  -7 394.838 13.2802   9
  -8   8   7 425.561 16.4782  15
  -8   8   7 459.557 15.2473   6
   6  -8  -7 230.771 10.1486  11
  -6  -8   7 248.893 11.8719  14
   6  -8  -7 235.413 12.0853   5
  -6  -8   7 240.362 11.9425   2
   6   8  -7 258.819 11.9892   1
   6   8  -7 239.536 9.99338   9
  -6   8   7 251.189 10.3332   6
  -6   8   7 251.268 10.3537   2
  -6   8   7 237.785 10.9113  15
   4  -8  -7 1008.82 27.5637   5
   4  -8  -7 978.882 24.0120  11
  -4  -8   7 1005.48 26.3414  14
  -4  -8   7 984.932 24.5781   4
   4  -8  -7 985.466 24.0912  12
  -4   8   7 1003.25 23.9876   2
   4   8  -7 1004.51 24.0523   9
  -4   8   7 981.475 23.7381   6
   4   8  -7 991.268 25.1653   1
   2  -8  -7 616.589 17.6039  11
  -2  -8   7 609.315 19.2444  14
  -2  -8   7 643.045 19.3903   4
   2  -8  -7 605.169 18.2670  12
   2  -8  -7 592.931 20.5597   5
   2  -8  -7 581.428 18.0785  16
  -2   8   7 636.028 17.0067   2
  -2   8   7 581.258 17.0030   6
   2   8  -7 633.049 17.6250   9
  -2   8   7 603.418 16.2967  10
   0  -8   7 469.304 16.6819  14
   0  -8   7 458.057 16.5515   4
   0  -8  -7 466.589 16.3177  12
   0  -8  -7 466.698 18.4859   5
   0  -8  -7 439.191 16.2511  16
   0   8  -7 444.095 14.8451   3
   0   8  -7 471.431 14.9756   9
   0   8   7 448.895 14.7413   6
   0   8   7 461.838 13.9451  10
   2  -8   7 657.126 19.9777  14
  -2  -8  -7 660.896 23.6571   5
   2  -8   7 645.185 21.0871   4
  -2  -8  -7 653.578 21.5688  12
   2   8   7 620.552 17.6306  10
  -2   8  -7 678.137 22.1701   8
   2   8   7 647.373 19.1770   6
  -2   8  -7 624.294 18.3302   9
   4  -8   7 111.200 9.51092   4
  -4  -8  -7 102.504 9.73632  12
  -4  -8  -7 106.937 10.8188   5
   4   8   7 117.860 8.31509   6
  -4   8  -7 103.128 9.20806   8
   9  -9  -7 51.9417 7.34926   5
  -9  -9   7 46.4369 6.88816   2
  -9   9   7 70.1275 7.25888   6
   9   9  -7 58.6940 7.77451   1
  -9   9   7 73.0839 8.23357  15
   7  -9  -7 285.970 13.7933   5
   7  -9  -7 261.448 11.4735  11
  -7  -9   7 264.392 13.3101   2
  -7  -9   7 248.719 12.0316  14
   7   9  -7 282.221 13.0908   1
  -7   9   7 257.757 11.2866   6
  -7   9   7 250.884 10.8299   2
  -7   9   7 263.296 11.9622  15
   7   9  -7 265.736 11.0076   9
  -5  -9   7 52.0837 7.15311  14
   5  -9  -7 47.9975 7.21866   5
   5  -9  -7 44.2020 5.55321  11
  -5   9   7 50.7339 5.41596   2
   5   9  -7 42.1479 5.28795   9
   5   9  -7 45.9852 5.49906   1
  -5   9   7 47.4590 5.35332   6
   3  -9  -7 1046.23 26.2331  11
  -3  -9   7 1097.47 29.0916  14
   3  -9  -7 1109.79 30.4927   5
  -3  -9   7 1071.92 27.7115   4
   3   9  -7 1076.28 26.0751   9
  -3   9   7 1070.61 26.0439   6
   1  -9  -7 18.2907 5.40483   5
  -1  -9   7 22.2660 4.89798  14
  -1  -9   7 15.4345 4.80253   4
   1  -9  -7 16.6700 4.17445  12
   1  -9  -7 18.0195 3.64766  11
  -1   9   7 15.9763 3.73718   6
  -1   9   7 17.3103 3.21766  10
   1   9  -7 15.2252 3.36541   9
   1  -9   7 844.645 25.5869   4
  -1  -9  -7 833.656 27.0199   5
  -1  -9  -7 800.062 23.8023  12
   1  -9   7 820.327 24.0361  14
   1   9   7 825.748 22.6251   6
  -1   9  -7 821.921 22.1446   9
  -3  -9  -7 70.1702 9.45841   5
   3  -9   7 68.3800 8.36749   4
  -3  -9  -7 52.3805 7.77577  12
  -3   9  -7 46.8406 5.80703   9
   3   9   7 71.5479 7.27911   6
  -3   9  -7 74.2080 8.85634   8
  -8 -10   7 15.8062 5.25889   2
   8 -10  -7 11.5919 4.01989  11
   8 -10  -7 12.5605 4.01842   5
  -8  10   7 15.7356 3.85891  15
   8  10  -7 13.3656 3.47826   9
   8  10  -7 11.1407 4.15160   1
  -8  10   7 10.2006 3.64558   6
  -6 -10   7 43.8001 6.74423  14
   6 -10  -7 34.0476 5.33144  11
   6 -10  -7 32.3552 6.35962   5
   6  10  -7 33.9003 5.46818   1
   6  10  -7 40.1816 5.15847   9
  -6  10   7 29.9411 4.83799   6
  -4 -10   7 27.0838 5.14505   4
  -4 -10   7 33.6251 6.62215  14
   4 -10  -7 27.5900 6.19357   5
   4 -10  -7 26.9179 4.80595  11
  -4  10   7 27.6829 4.95929   6
   4  10  -7 25.5008 4.47366   9
  -2 -10   7 8.15787 4.35384  14
   2 -10  -7 6.83047 3.30802  11
  -2 -10   7 14.6381 5.02089   4
   2 -10  -7 12.3108 4.20828   5
  -2  10   7 8.83479 2.66671  10
  -2  10   7 8.05789 3.24608   6
   2  10  -7 11.0217 3.46957   9
   0 -10   7 7.92975 3.78235   4
   0 -10   7 4.54270 2.97364  14
   0 -10  -7 2.37699 4.78668   5
   0 -10  -7 8.21301 3.42343  11
   0  10   7 11.4407 3.66903   6
   0  10  -7 5.76869 3.08714   9
   2 -10   7 20.9179 5.92150   4
  -2 -10  -7 22.0854 6.11181   5
   2  10   7 28.4047 4.54710   6
  -2  10  -7 17.7881 4.10170   9
   5 -11  -7 6.51615 3.73517  11
   5 -11  -7 5.70262 4.25647   5
  -5 -11   7 10.4897 5.03409  14
  -5  11   7 12.5123 3.99000   6
   5  11  -7 9.55648 3.08286   9
   3 -11  -7 34.5392 6.81435   5
  -3 -11   7 39.2574 6.48191   4
   3 -11  -7 44.1294 6.26423  11
  -3 -11   7 47.7680 7.29743  14
  -3  11   7 42.2353 5.43953   6
   3  11  -7 51.3351 6.51672   9
  -1 -11   7 21.2698 5.79613   4
   1 -11  -7 32.1878 4.98552  11
  -1 -11   7 18.6420 5.27379  14
   1 -11  -7 24.5797 6.67172   5
   1  11  -7 23.7682 4.12812   9
  -1  11   7 22.9988 4.68644   6
  -1  11  -7 39.9683 5.44714   9
 -12   0   8 74.9511 9.00464  15
 -12   0   8 61.7404 8.55244   8
 -10   0   8 86.3568 8.37583   8
 -10   0   8 82.6514 9.63513  15
  10   0  -8 87.0693 6.81835   1
 -10   0   8 81.5159 6.75283   2
   8   0  -8 755.401 19.3217   5
  -8   0   8 761.877 19.9928   2
   8   0  -8 717.843 20.3194   1
  -8   0   8 775.991 22.6991  15
   6   0  -8 1.41142 1.75580  12
   6   0  -8 0.74604 1.47424   5
  -6   0   8 0.88932 1.66316  14
  -6   0   8 -1.1636 1.98246  15
  -6   0   8 5.28114 2.78429   2
   4   0  -8 3390.25 60.0439  12
  -4   0   8 3362.60 59.0794  14
   4   0  -8 3209.35 57.1080   5
  -4   0   8 3324.58 58.7655   2
   4   0  -8 3328.52 59.3736   3
   2   0  -8 40.4862 4.54712   3
  -2   0   8 39.3865 4.50431  14
   2   0  -8 38.7667 3.87554  16
  -2   0   8 40.9862 3.46092  10
  -2   0   8 44.5582 3.84624   4
   2   0  -8 44.4953 4.90564  12
  -2   0   8 40.9750 4.13530   2
   2   0  -8 40.3219 3.72271   5
   0   0  -8 2548.48 48.6730  12
   0   0   8 2553.74 48.1989   4
   0   0   8 2526.68 47.5902  14
   0   0  -8 2448.69 48.2139  16
   0   0  -8 2578.93 49.0072   3
   0   0   8 2510.63 46.1349  10
  -2   0  -8 467.085 16.3887  16
  -2   0  -8 483.206 16.2752  12
   2   0   8 485.439 16.2693   4
   2   0   8 472.518 14.7207  14
   2   0   8 481.060 14.5753  10
  -2   0  -8 487.829 16.8086   3
  -4   0  -8 672.076 22.0074   3
   4   0   8 647.297 19.2161  10
  -4   0  -8 640.359 20.7822  12
 -11  -1   8 31.5380 7.00597  15
 -11  -1   8 13.1395 5.00423   8
  11   1  -8 14.8193 3.87759   1
 -11   1   8 16.2211 5.84880  15
 -11   1   8 10.2528 3.93977   2
 -11   1   8 11.3038 4.77277   8
   9  -1  -8 316.479 12.2453   5
  -9  -1   8 292.934 11.9847   2
  -9  -1   8 301.658 14.3859  15
   9  -1  -8 297.041 11.9342   1
   9   1  -8 295.091 12.6384   1
  -9   1   8 292.859 11.5059   2
  -9   1   8 293.204 13.5725  15
  -7  -1   8 0.81131 2.81658   2
  -7  -1   8 0.42703 1.64488  14
   7  -1  -8 2.01176 1.97730  12
  -7  -1   8 2.64366 3.02472  15
   7  -1  -8 3.11084 1.70520   1
   7  -1  -8 7.12587 2.33267   5
   7   1  -8 -1.2443 1.39409   1
  -7   1   8 3.39985 2.72454   2
  -7   1   8 2.25194 1.52806  14
  -7   1   8 1.68560 2.73719  15
  -5  -1   8 394.872 12.2284  14
   5  -1  -8 395.243 12.8569  12
  -5  -1   8 385.764 12.6783   2
  -5  -1   8 396.277 13.2136  15
   5  -1  -8 389.376 11.8622   5
  -5   1   8 389.450 11.7618  14
  -5   1   8 399.226 12.3671   2
  -5   1   8 363.133 12.2971  15
   5   1  -8 399.103 12.5926  12
  -3  -1   8 270.641 8.72626   4
   3  -1  -8 273.494 9.07095  16
   3  -1  -8 291.507 10.7273  12
  -3  -1   8 278.080 8.51159  10
   3  -1  -8 283.921 10.0348   3
  -3  -1   8 279.776 10.2939  14
  -3  -1   8 280.424 9.93082   2
   3  -1  -8 262.166 9.46717   5
  -3   1   8 282.048 8.98955  10
  -3   1   8 278.485 8.86033  15
   3   1  -8 274.475 9.13362  16
   3   1  -8 279.450 10.3312   3
  -3   1   8 282.933 10.0436  14
  -3   1   8 273.497 9.47509   2
   3   1  -8 283.055 10.2147  12
  -1  -1   8 42.1243 4.70616  14
   1  -1  -8 38.3450 4.13502  16
  -1  -1   8 40.0400 4.50849   4
   1  -1  -8 36.6723 4.29007   5
   1  -1  -8 53.9903 5.58992  12
  -1  -1   8 40.0863 3.45606  10
  -1  -1   8 32.8575 3.54340   2
   1  -1  -8 31.4441 4.11599   3
  -1   1   8 43.5395 3.78199  10
  -1   1   8 37.8477 4.39541   4
   1   1  -8 32.5097 4.42922   3
   1   1  -8 30.9894 4.00376  16
   1   1  -8 42.6255 4.76467  12
  -1   1   8 46.9372 3.10692   6
  -1   1   8 35.1326 3.42571   2
  -1   1   8 45.1325 4.77807  14
   1  -1   8 501.936 14.2812  10
   1  -1   8 515.089 15.1169  14
  -1  -1  -8 526.416 16.4519   3
  -1  -1  -8 546.749 16.9390  12
  -1  -1  -8 509.868 15.7306   5
   1  -1   8 516.870 16.1530   4
  -1  -1  -8 507.178 16.4676  16
   1   1   8 534.706 15.5730  14
  -1   1  -8 500.070 16.2963   3
  -1   1  -8 525.903 15.9894  12
  -1   1  -8 513.695 14.8612   8
   1   1   8 516.730 14.6814  10
   1   1   8 534.086 16.3315   4
  -1   1  -8 503.513 16.3251  16
   3  -1   8 22.8265 3.88885  10
  -3  -1  -8 27.4566 4.69082  16
   3  -1   8 27.7324 4.02320  14
   3  -1   8 31.4987 5.34358   4
  -3  -1  -8 34.0104 5.71374   3
  -3  -1  -8 34.0174 5.52786  12
  -3   1  -8 35.9566 5.93409   3
  -3   1  -8 36.7397 5.58681  12
   3   1   8 26.1185 4.11922  10
  -3   1  -8 24.9652 3.94639   8
   3   1   8 28.9851 4.11882  14
  -3   1  -8 26.7987 4.66257  16
  -5  -1  -8 73.3070 7.23420  12
   5  -1   8 79.8405 6.87808  10
  -5  -1  -8 102.468 9.86971   3
  -5   1  -8 87.8547 8.94456   3
   5   1   8 80.6090 7.85254  10
  -5   1  -8 86.5787 8.07576  12
 -12  -2   8 0.12832 4.64377  15
 -12  -2   8 8.78317 4.91000   8
 -12   2   8 5.23203 3.81285  15
  12   2  -8 5.64141 3.44186   1
 -12   2   8 4.34810 4.18172   8
 -10  -2   8 813.029 22.0157   2
  10  -2  -8 823.922 23.3578   5
 -10  -2   8 839.129 26.3793  15
 -10   2   8 765.668 24.1134   8
 -10   2   8 850.748 25.9406  15
  10   2  -8 809.465 23.9774   1
  -8  -2   8 13.0075 4.02894   2
   8  -2  -8 26.9451 4.13642   5
   8  -2  -8 14.1790 2.96791   1
  -8  -2   8 15.4594 4.51315  15
  -8   2   8 20.8018 4.79773  15
  -8   2   8 23.2595 3.96017   2
   8   2  -8 12.7014 3.37971   1
  -6  -2   8 518.552 14.4682  14
  -6  -2   8 538.469 15.7961   2
   6  -2  -8 525.970 15.6565  12
   6  -2  -8 511.711 15.0869   5
  -6   2   8 503.822 13.8326  14
   6   2  -8 542.677 16.4894   1
  -6   2   8 516.215 15.9774  15
   6   2  -8 507.748 14.8367  12
  -6   2   8 508.524 14.8229   2
  -4  -2   8 54.4348 3.40768  10
  -4  -2   8 56.8596 3.67712   4
  -4  -2   8 61.4987 4.86181   2
   4  -2  -8 63.3306 5.17664   5
   4  -2  -8 55.7294 4.27427   3
   4  -2  -8 58.4549 3.73062  16
  -4  -2   8 68.4436 5.11614  14
   4  -2  -8 59.0276 5.29039  12
   4   2  -8 66.5961 5.06477   3
  -4   2   8 56.0732 4.60012  14
  -4   2   8 59.6460 5.24951   2
  -4   2   8 56.3788 4.35234  15
   4   2  -8 66.1369 4.90405  12
   2  -2  -8 147.566 7.19005   3
  -2  -2   8 146.125 6.89870   2
  -2  -2   8 149.270 6.99885   4
   2  -2  -8 144.758 7.95149  12
   2  -2  -8 147.231 6.92861  16
  -2  -2   8 155.308 6.15367  10
   2  -2  -8 152.666 7.50212   5
  -2  -2   8 152.978 7.60894  14
  -2   2   8 157.941 6.73688  10
  -2   2   8 146.383 5.60388   6
   2   2  -8 157.443 7.27197  12
  -2   2   8 151.439 6.54797   2
   2   2  -8 151.521 7.24423  16
  -2   2   8 152.407 7.46142  14
   2   2  -8 150.526 7.71829   3
   0  -2   8 44.0648 3.85918  10
   0  -2  -8 56.4682 5.23511  12
   0  -2  -8 46.7775 4.81310   5
   0  -2  -8 47.5241 5.20848   3
   0  -2  -8 42.8562 4.86682  16
   0  -2   8 51.0750 4.70594  14
   0  -2   8 42.3654 5.06094   4
   0   2  -8 43.4204 4.75365   8
   0   2  -8 44.0816 5.22397   3
   0   2   8 45.2431 5.14693  14
   0   2   8 38.3850 4.18360  10
   0   2  -8 40.9324 4.55676  12
   0   2   8 39.6468 3.46181   6
   0   2  -8 47.1243 4.94400  16
  -2  -2  -8 195.131 9.92012  16
  -2  -2  -8 198.311 10.1180   5
   2  -2   8 205.123 10.3024   4
   2  -2   8 203.520 8.95865  10
  -2  -2  -8 219.650 10.8588   3
   2  -2   8 206.231 9.30211  14
  -2  -2  -8 223.931 11.2955  12
  -2   2  -8 209.748 10.8090   3
  -2   2  -8 215.002 9.80295   8
  -2   2  -8 218.952 9.94423  12
   2   2   8 194.302 8.95934  10
  -2   2  -8 204.903 10.2803  16
   2   2   8 209.551 9.51023  14
   4  -2   8 168.209 10.3444   4
  -4  -2  -8 161.462 10.7322  12
  -4  -2  -8 166.349 10.3347   3
   4  -2   8 161.011 8.93131  10
  -4   2  -8 164.444 9.64101   8
   4   2   8 157.712 9.02379  10
  -4   2  -8 151.747 10.5516   3
 -11  -3   8 3.51346 4.86010  15
 -11   3   8 -2.3023 3.36609   8
 -11   3   8 8.47229 3.11812   2
  11   3  -8 4.15397 3.28776   1
 -11   3   8 7.01063 4.64165  15
   9  -3  -8 185.077 10.0194   5
  -9  -3   8 188.388 10.3438   2
  -9  -3   8 179.924 11.7684  15
  -9   3   8 171.449 8.95672   2
  -9   3   8 160.264 10.7243  15
   9   3  -8 189.471 10.5261   1
  -9   3   8 172.005 9.81586   8
   7  -3  -8 16.6008 3.09459   1
  -7  -3   8 21.2379 4.41279   2
   7  -3  -8 14.8152 3.61815   5
   7  -3  -8 15.9345 3.64108  12
  -7  -3   8 17.9731 3.58970  14
   7   3  -8 16.6613 3.70466   1
  -7   3   8 14.0192 2.79336  14
  -7   3   8 16.1550 3.56124   2
  -7   3   8 20.1279 4.34600  15
   5  -3  -8 88.5135 6.39044   5
  -5  -3   8 81.5370 6.42751   2
   5  -3  -8 90.5878 6.46048  12
  -5  -3   8 89.2692 6.36754  14
  -5   3   8 91.1243 5.32779  14
   5   3  -8 90.9575 4.72300   9
  -5   3   8 95.7792 5.99505   2
  -5   3   8 88.9889 4.36562   6
   5   3  -8 82.0937 5.28710  12
   5   3  -8 100.203 6.73896   1
  -5   3   8 81.2545 5.72419  15
   3  -3  -8 1.00376 1.79877   3
   3  -3  -8 0.62114 2.29297  12
  -3  -3   8 5.68737 1.47673  10
  -3  -3   8 1.10892 2.38941   2
   3  -3  -8 -0.3277 2.10965   5
   3  -3  -8 5.07103 1.75328  16
  -3  -3   8 7.60820 3.07472  14
  -3  -3   8 6.00358 1.78752   4
   3   3  -8 18.0086 3.47327   3
  -3   3   8 7.78968 2.43773  14
  -3   3   8 3.60543 1.59012   2
   3   3  -8 4.47635 1.85567  16
  -3   3   8 4.54376 1.48680   6
   3   3  -8 6.25904 2.05365  12
   1  -3  -8 115.151 6.50337   3
  -1  -3   8 114.251 5.50058  10
  -1  -3   8 122.306 6.34503   2
   1  -3  -8 116.099 7.56429  12
  -1  -3   8 117.624 6.57453   4
   1  -3  -8 112.542 6.41706  16
  -1  -3   8 130.790 7.67368  14
   1  -3  -8 125.466 7.39983   5
   1   3  -8 121.062 6.41099  12
  -1   3   8 117.750 6.20545  10
   1   3  -8 118.969 6.76576  16
   1   3  -8 118.488 7.32866   3
  -1   3   8 117.390 5.57959   6
  -1   3   8 120.351 5.61633   2
  -1   3   8 125.900 6.97043  14
  -1  -3  -8 16.7313 3.68496  16
  -1  -3  -8 16.2688 3.75751   3
   1  -3   8 11.7239 3.39823  14
   1  -3   8 11.3549 2.52139  10
  -1  -3  -8 11.8020 3.09896   5
  -1  -3  -8 12.4385 3.96085  12
   1  -3   8 12.5307 3.79919   4
  -1   3  -8 12.2671 3.21200   3
   1   3   8 14.6819 2.89303   6
  -1   3  -8 19.8804 3.65553   8
   1   3   8 13.2252 3.13020  14
   1   3   8 13.3792 2.91542  10
  -1   3  -8 15.6670 3.47057  12
  -1   3  -8 13.4316 3.56295  16
  -3  -3  -8 110.603 8.92720  12
  -3  -3  -8 114.045 8.55922   3
   3  -3   8 120.065 7.29062  10
   3  -3   8 123.902 8.25919   4
  -3   3  -8 118.440 8.94713   3
  -3   3  -8 102.795 7.72415   8
   3   3   8 110.320 6.94341  10
  -5  -3  -8 5.94276 4.29828   3
   5  -3   8 16.5713 3.97361  10
   5  -3   8 10.9044 3.42648   4
  -5  -3  -8 17.8102 5.35656  12
  -5   3  -8 11.0788 4.06513   3
   5   3   8 7.57650 2.71032  10
  -5   3  -8 6.42186 3.49795   8
 -10  -4   8 424.536 18.8257  15
 -10  -4   8 410.762 15.3931   2
  10  -4  -8 467.576 17.2272   5
 -10   4   8 452.014 14.8707   2
  10   4  -8 468.845 17.6799   1
 -10   4   8 447.586 18.0252  15
  -8  -4   8 129.180 9.80660  15
  -8  -4   8 130.442 8.77691   2
   8  -4  -8 142.621 8.86820   5
   8   4  -8 133.037 8.83991   1
  -8   4   8 124.751 8.83149  15
  -8   4   8 134.384 7.72376   2
  -6  -4   8 1616.38 33.9045  14
  -6  -4   8 1629.79 34.9676   2
   6  -4  -8 1631.13 35.5454   5
   6  -4  -8 1600.34 34.7502  12
  -6   4   8 1581.87 34.2360  15
   6   4  -8 1673.73 36.5508   1
  -6   4   8 1646.69 31.0711   6
  -6   4   8 1601.28 32.5142  14
  -6   4   8 1632.37 33.6199   2
  -4  -4   8 4.35676 1.93714   4
  -4  -4   8 5.03450 2.53728   2
  -4  -4   8 3.45688 2.81499  14
   4  -4  -8 6.55913 1.91079  11
   4  -4  -8 0.82283 2.40790  12
   4  -4  -8 6.29612 3.04296   5
   4  -4  -8 3.60874 1.58461  16
   4   4  -8 3.60670 1.72345  12
  -4   4   8 4.71452 2.31094   2
  -4   4   8 6.26970 1.75386   6
   4   4  -8 4.83950 1.80034   9
  -4   4   8 5.35540 2.31887  14
   2  -4  -8 1697.54 36.1113   5
  -2  -4   8 1669.90 33.5107   2
   2  -4  -8 1630.22 32.3752   3
  -2  -4   8 1652.44 34.8444  14
   2  -4  -8 1736.88 36.1556  12
  -2  -4   8 1731.38 34.1390   4
   2  -4  -8 1635.25 33.7818  16
   2   4  -8 1645.63 34.5343  16
  -2   4   8 1695.81 34.7432  14
  -2   4   8 1665.98 31.9333   6
  -2   4   8 1642.84 32.6995  10
   2   4  -8 1426.02 32.6162  12
  -2   4   8 1708.18 32.5402   2
   2   4  -8 1722.84 35.4215   3
   0  -4   8 4.94971 2.48086  14
   0  -4  -8 1.45114 2.52756   5
   0  -4  -8 2.31178 3.09632  12
   0  -4  -8 1.99932 2.11898   3
   0  -4  -8 0.82028 1.94008  16
   0  -4   8 2.06162 2.45861   4
   0   4   8 0.33870 1.10537  10
   0   4  -8 -3.0233 1.77678   3
   0   4   8 0.51627 1.26829   6
   0   4   8 1.36567 1.43974  14
   0   4  -8 1.15661 2.19773   8
   0   4  -8 0.29685 1.98667  16
  -2  -4  -8 388.401 14.3608   3
  -2  -4  -8 409.840 16.3148   5
  -2  -4  -8 410.712 16.1977  12
   2  -4   8 386.331 14.8302   4
   2  -4   8 387.536 13.6780  14
   2  -4   8 383.848 12.6145  10
  -2  -4  -8 381.434 15.2328  16
  -2   4  -8 393.323 14.9094   8
  -2   4  -8 386.858 15.1565  16
   2   4   8 410.926 13.6221  10
   2   4   8 414.683 13.2125   6
  -2   4  -8 398.905 15.2224   3
  -4  -4  -8 64.5392 7.04968   3
   4  -4   8 57.0992 6.07683  10
  -4  -4  -8 70.8125 7.21844   5
   4  -4   8 64.7525 6.51186   4
  -4  -4  -8 71.1105 8.31451  12
  -4   4  -8 55.0922 6.84850   8
  -4   4  -8 52.6075 7.04804   3
   4   4   8 58.3271 6.32536  10
  11  -5  -8 387.926 16.4482   5
 -11  -5   8 374.027 18.3038  15
 -11   5   8 365.667 16.9095  15
  11   5  -8 383.961 16.4981   1
   9  -5  -8 217.230 11.5620   5
  -9  -5   8 215.433 11.4639   2
  -9  -5   8 211.613 13.0003  15
   9   5  -8 193.815 11.3640   1
  -9   5   8 213.130 11.8879  15
  -9   5   8 206.062 9.85155   2
   7  -5  -8 862.938 23.9232   5
  -7  -5   8 844.005 23.0181   2
   7  -5  -8 860.754 22.5311  12
  -7  -5   8 868.338 22.1183  14
   7   5  -8 830.203 19.2930   9
  -7   5   8 872.236 21.7240   2
  -7   5   8 825.900 19.6600   6
   7   5  -8 863.772 24.2631   1
  -7   5   8 824.243 22.7714  15
  -5  -5   8 246.821 10.8469  14
   5  -5  -8 241.374 10.6881  12
  -5  -5   8 236.678 10.6879   2
   5  -5  -8 236.209 11.3507   5
  -5   5   8 236.892 9.58391   2
   5   5  -8 247.251 11.2252   1
  -5   5   8 231.028 9.42196  15
   5   5  -8 236.665 8.71366   9
  -5   5   8 230.245 8.53771   6
  -3  -5   8 236.686 10.4130  14
   3  -5  -8 236.501 9.25195  16
  -3  -5   8 258.436 10.5335   2
   3  -5  -8 239.436 11.3564   5
   3  -5  -8 216.411 8.33533  11
   3  -5  -8 234.467 10.6944  12
  -3  -5   8 245.428 9.66919   4
  -3   5   8 228.107 9.61243  14
  -3   5   8 232.720 8.68747   6
   3   5  -8 233.481 8.89589   9
   3   5  -8 241.832 10.3477   3
  -3   5   8 243.266 9.24992   2
  -1  -5   8 282.088 11.5356   4
   1  -5  -8 284.069 11.3705  16
  -1  -5   8 260.613 10.1129   2
  -1  -5   8 297.006 12.1609  14
   1  -5  -8 299.865 12.4801  12
   1  -5  -8 273.451 12.4806   5
  -1   5   8 301.886 9.78017   2
  -1   5   8 271.305 9.75312   6
  -1   5   8 280.639 11.2907  14
  -1   5   8 280.608 10.2448  10
   1   5  -8 281.015 11.5194   3
  -1  -5  -8 -1.2208 2.94601  12
  -1  -5  -8 1.84793 2.82442   5
  -1  -5  -8 0.70503 2.45041  16
   1  -5   8 2.09564 2.97346  14
  -1  -5  -8 -0.3423 1.89424   3
   1  -5   8 5.32105 3.04850   4
   1  -5   8 -0.2459 1.50235  10
   1   5   8 -0.2751 1.65593  10
  -1   5  -8 -0.8377 2.21737   8
  -1   5  -8 -0.6062 2.33786   3
   1   5   8 -1.8016 1.65622   6
  -1   5  -8 1.58358 1.78132  16
  -3  -5  -8 82.0883 7.98749   3
  -3  -5  -8 81.0329 8.17862   5
   3  -5   8 77.8163 6.03283  10
   3  -5   8 85.8565 8.10727   4
  -3  -5  -8 78.7750 8.94400  12
  -3   5  -8 87.9228 7.85919   3
   3   5   8 83.2750 6.19900   6
  -3   5  -8 83.7783 7.77751   8
   3   5   8 83.7318 6.69626  10
 -10  -6   8 22.2554 6.28719  15
  10  -6  -8 23.6424 5.28058   5
 -10  -6   8 19.5799 5.10401   2
 -10   6   8 18.5276 3.59659   2
  10   6  -8 23.6542 4.73500   1
 -10   6   8 15.1354 4.07902  15
   8  -6  -8 736.895 22.9537   5
  -8  -6   8 790.302 22.9179   2
  -8   6   8 786.975 20.8318   2
  -8   6   8 742.260 19.4250   6
   8   6  -8 775.885 23.7787   1
  -8   6   8 763.312 22.7333  15
  -6  -6   8 190.407 10.1378  14
   6  -6  -8 230.277 11.1760   5
  -6  -6   8 196.198 10.4994   2
   6  -6  -8 208.219 9.86827  12
   6   6  -8 209.878 10.8827   1
  -6   6   8 204.907 8.49282   6
  -6   6   8 199.488 9.31780   2
  -6   6   8 203.182 9.86164  15
   6   6  -8 199.366 8.34448   9
   4  -6  -8 712.065 19.8804  12
  -4  -6   8 672.086 18.0143   4
   4  -6  -8 711.322 21.5529   5
  -4  -6   8 687.992 19.7303   2
   4  -6  -8 677.065 17.3736  11
  -4  -6   8 696.517 20.0993  14
   4   6  -8 725.870 20.5735   1
  -4   6   8 690.052 17.5165   6
   4   6  -8 704.239 17.9505   9
  -4   6   8 681.673 18.1819   2
  -2  -6   8 271.676 12.1421  14
  -2  -6   8 263.412 11.2531   4
   2  -6  -8 267.227 12.9136   5
   2  -6  -8 275.182 12.2241  12
  -2  -6   8 266.319 10.9954   2
   2  -6  -8 266.239 10.9219  16
  -2   6   8 268.580 10.0561   6
   2   6  -8 277.674 10.3519   9
  -2   6   8 270.755 9.88696  10
  -2   6   8 266.186 9.89514   2
   2   6  -8 275.593 11.3299   3
   0  -6  -8 655.864 21.6161   5
   0  -6   8 633.933 19.2304  14
   0  -6  -8 609.416 19.1054  16
   0  -6  -8 660.247 20.5316  12
   0  -6   8 629.857 19.5819   4
   0   6  -8 632.453 19.0386   3
   0   6   8 613.683 17.3378   6
   0   6   8 653.214 17.5687  10
   2  -6   8 37.0008 5.43542  14
  -2  -6  -8 27.0573 5.35142   5
   2  -6   8 28.7800 4.93949   4
  -2  -6  -8 31.0992 6.15896  12
   2   6   8 32.5275 4.67597   6
   2   6   8 24.6680 4.06565  10
  -2   6  -8 30.3060 5.48393   8
  -2   6  -8 27.7237 4.97062   3
   4  -6   8 442.867 17.5761   4
  -4  -6  -8 413.027 18.5415   5
  -4  -6  -8 446.696 19.0308  12
  -4   6  -8 440.784 17.1023   3
  -4   6  -8 429.601 17.7899   8
   4   6   8 419.843 15.0010  10
   9  -7  -8 8.01313 3.89954   5
  -9  -7   8 4.06116 4.38655   2
  -9   7   8 6.70031 2.83697   2
  -9   7   8 2.92398 3.27027  15
  -9   7   8 7.13556 2.47765   6
   9   7  -8 6.67990 3.34398   1
   7  -7  -8 118.558 9.11975   5
   7  -7  -8 107.845 7.34767  12
  -7  -7   8 102.166 8.59293   2
  -7  -7   8 107.794 8.24182  14
   7   7  -8 122.752 8.99043   1
  -7   7   8 115.421 6.83918   6
  -7   7   8 102.361 7.60294  15
  -7   7   8 110.300 7.38809   2
   7   7  -8 110.829 6.58880   9
   5  -7  -8 21.2644 3.68984  11
   5  -7  -8 20.8058 4.18408  12
  -5  -7   8 23.9655 5.07910  14
  -5  -7   8 20.6549 4.71043   2
   5  -7  -8 27.0899 5.58233   5
   5   7  -8 22.4559 4.42642   1
  -5   7   8 19.8511 3.40142   6
  -5   7   8 25.5783 4.00255   2
   5   7  -8 27.3479 4.00419   9
   3  -7  -8 135.870 7.66365  16
   3  -7  -8 137.686 9.96317   5
   3  -7  -8 144.438 7.65183  11
  -3  -7   8 133.983 9.31832  14
   3  -7  -8 137.964 8.69747  12
  -3  -7   8 130.748 7.68997   4
  -3  -7   8 138.342 8.56002   2
  -3   7   8 131.163 7.27929   6
   3   7  -8 139.280 7.54867   9
  -3   7   8 131.183 7.41751   2
   3   7  -8 139.850 8.39858   1
   1  -7  -8 302.648 12.7544  16
   1  -7  -8 323.793 13.7700  12
   1  -7  -8 331.744 15.0449   5
  -1  -7   8 307.877 13.2473   4
  -1  -7   8 310.138 13.5643  14
  -1  -7   8 314.691 12.1460   2
   1   7  -8 333.523 12.8264   3
  -1   7   8 313.373 11.4434  10
  -1   7   8 303.146 11.5002   6
   1   7  -8 307.095 11.5853   9
  -1   7   8 309.332 10.7441   2
   1  -7   8 72.3423 6.86915   4
  -1  -7  -8 78.2122 8.33287  12
   1  -7   8 70.3604 7.53476  14
  -1  -7  -8 79.5151 8.79066   5
   1   7   8 76.0177 6.31211   6
   1   7   8 63.7354 5.25404  10
  -1   7  -8 74.6865 6.86147   3
  -3  -7  -8 275.000 14.4464  12
  -3  -7  -8 288.291 15.3837   5
   3  -7   8 242.342 12.8227   4
   3   7   8 242.789 10.9059  10
  -3   7  -8 260.449 13.5342   8
  -3   7  -8 241.542 12.2819   3
   3   7   8 248.214 11.5011   6
   8  -8  -8 217.705 12.7827   5
  -8  -8   8 236.908 12.5379   2
  -8   8   8 225.328 10.4961   6
   8   8  -8 206.698 9.49451   9
  -8   8   8 217.451 11.4375  15
   8   8  -8 228.166 12.5261   1
  -8   8   8 224.852 10.3173   2
  -6  -8   8 3.15534 3.60946   2
   6  -8  -8 8.13069 2.99058  12
  -6  -8   8 3.47209 3.55149  14
   6  -8  -8 4.09658 3.99669   5
   6  -8  -8 6.82220 3.17200  11
   6   8  -8 6.48267 2.84067   9
  -6   8   8 8.21083 3.22734   2
  -6   8   8 5.45419 2.27960   6
   6   8  -8 4.20035 2.87731   1
   4  -8  -8 423.664 17.5459   5
   4  -8  -8 424.693 14.1582  11
  -4  -8   8 410.438 15.7816  14
  -4  -8   8 403.434 15.2929   2
  -4  -8   8 406.389 14.5386   4
   4  -8  -8 414.899 15.0067  12
  -4   8   8 424.579 13.9371   6
   4   8  -8 430.859 14.4840   9
  -4   8   8 417.775 14.2093   2
   4   8  -8 432.531 15.5106   1
  -2  -8   8 82.9504 8.47556  14
   2  -8  -8 67.8056 5.91686  11
   2  -8  -8 73.8784 7.26399  12
   2  -8  -8 96.6295 10.0618   5
   2  -8  -8 70.4474 5.89840  16
  -2  -8   8 64.2661 7.29449   4
  -2   8   8 66.6733 5.53958  10
  -2   8   8 68.3285 5.51578   6
  -2   8   8 71.9863 5.63224   2
   2   8  -8 80.3962 6.45998   9
   0  -8   8 164.432 10.8214   4
   0  -8   8 183.767 11.0440  14
   0  -8  -8 194.709 12.5637   5
   0  -8  -8 172.863 10.8349  12
   0   8   8 185.719 9.60729   6
   0   8  -8 189.941 9.95186   3
   0   8  -8 182.830 9.56718   9
   0   8   8 192.586 9.11403  10
   2  -8   8 26.7786 5.21031   4
  -2  -8  -8 21.9453 5.96319   5
   2  -8   8 31.6176 5.05511  14
  -2  -8  -8 23.2886 5.92369  12
  -2   8  -8 28.5886 4.55556   9
   2   8   8 18.9320 3.83813  10
   2   8   8 25.0169 4.79087   6
   7  -9  -8 4.57237 3.08093   5
  -7  -9   8 -2.1408 3.28770  14
  -7  -9   8 2.50810 3.92794   2
  -7   9   8 1.74206 2.85946  15
   7   9  -8 0.47414 2.29961   9
  -7   9   8 1.72082 2.69532   6
  -7   9   8 2.21450 2.42954   2
   7   9  -8 -1.9884 2.55660   1
   5  -9  -8 55.5997 5.96113  11
  -5  -9   8 68.4219 8.01187   2
   5  -9  -8 64.0282 8.49368   5
  -5  -9   8 71.2184 8.35631  14
  -5   9   8 73.4528 7.02779   2
  -5   9   8 63.4341 6.41468   6
   5   9  -8 64.2600 6.33416   9
   5   9  -8 52.1086 6.53058   1
   3  -9  -8 52.7198 8.36639   5
   3  -9  -8 30.2760 4.87658  12
  -3  -9   8 35.9522 5.90037   4
   3  -9  -8 41.5718 5.47540  11
  -3  -9   8 45.0892 6.30583  14
  -3   9   8 39.4267 4.73356  10
   3   9  -8 47.7842 5.45912   9
  -3   9   8 48.6955 5.87704   6
   1  -9  -8 37.9218 5.10600  11
   1  -9  -8 27.8414 5.49011  12
  -1  -9   8 34.5229 5.86301   4
   1  -9  -8 40.7205 7.74739   5
  -1  -9   8 43.3574 6.31477  14
  -1   9   8 33.3320 4.63340   6
   1   9  -8 26.6337 4.78485   9
  -1   9   8 33.0615 4.35827  10
  -1  -9  -8 116.990 11.2220   5
   1  -9   8 99.0572 8.86782  14
  -1  -9  -8 97.2483 8.90281  12
   1  -9   8 106.088 9.72127   4
  -1   9  -8 95.1023 7.05188   9
   1   9   8 104.268 7.78791   6
  -6 -10   8 231.428 13.1272  14
   6 -10  -8 258.453 14.3675   5
  -6 -10   8 248.443 13.4454   2
   6  10  -8 238.647 13.1417   1
  -6  10   8 241.207 11.1784   6
   6  10  -8 239.289 11.3630   9
   4 -10  -8 87.4796 10.0380   5
  -4 -10   8 81.0149 9.15847  14
   4 -10  -8 70.0982 7.22952  11
   4  10  -8 78.4948 6.79616   9
  -4  10   8 63.5419 6.98718   6
  -2 -10   8 357.175 16.0890  14
   2 -10  -8 356.278 14.3180  11
  -2 -10   8 327.695 15.2476   4
   2 -10  -8 349.625 17.5082   5
  -2  10   8 356.954 13.9851   6
   2  10  -8 343.087 13.9650   9
   0 -10   8 123.776 10.3754   4
   0 -10  -8 123.040 8.42531  11
   0 -10  -8 137.491 12.0685   5
   0 -10   8 111.016 9.58779  14
   0  10  -8 135.361 8.79187   9
   0  10   8 131.032 8.76745   6
  -5 -11   8 117.945 12.8772  14
   5 -11  -8 132.916 9.21792  11
   5 -11  -8 146.785 12.8812   5
   5  11  -8 148.328 9.33844   9
  -5  11   8 153.550 9.51635   6
  -3 -11   8 82.4134 8.43870   4
   3 -11  -8 63.0273 7.02108  11
   3 -11  -8 69.1761 9.38712   5
  -3 -11   8 86.5317 9.43279  14
  -3  11   8 79.2688 7.08920   6
   3  11  -8 75.9934 7.55954   9
 -12   0   9 -6.1176 4.39768  15
 -12   0   9 5.54032 4.42054   8
 -10   0   9 4.15782 4.10707  15
  10   0  -9 2.71847 2.40956   1
 -10   0   9 -3.0174 2.79925   2
  -8   0   9 5.01952 3.26851   2
   8   0  -9 0.70511 1.89953   1
  -8   0   9 -2.2720 2.67073  15
  -6   0   9 -2.0342 1.92611  14
  -6   0   9 -0.0481 2.36423  15
  -6   0   9 9.78841 3.33538   2
   6   0  -9 -0.3874 1.87491  12
  -4   0   9 0.83759 1.30680  10
  -4   0   9 0.77333 1.73552  15
  -4   0   9 2.20439 2.31369  14
   4   0  -9 1.95607 1.93255   3
  -4   0   9 -0.3088 2.29553   2
   4   0  -9 3.30889 2.31583  12
  -2   0   9 1.98141 1.70309   4
   2   0  -9 0.57977 2.30172  12
  -2   0   9 -1.6092 1.72084   2
  -2   0   9 -0.0128 1.03922  10
   2   0  -9 -1.2586 1.09169   3
   2   0  -9 0.42900 1.63579  16
  -2   0   9 -0.3266 1.34272  14
   0   0   9 -1.2438 1.95902   4
   0   0  -9 2.68436 2.74332  12
   0   0  -9 -0.4939 2.45033   3
   0   0   9 -0.0565 2.12802  14
   0   0  -9 3.05880 2.60065  16
   0   0   9 -0.2992 1.86039  10
  -2   0  -9 -1.3470 2.86771   3
   2   0   9 4.31547 2.78316   4
   2   0   9 2.00267 1.82297  10
  -2   0  -9 2.61651 3.23658  12
   2   0   9 5.22604 2.55264  14
  -4   0  -9 -0.0053 3.34373  12
   4   0   9 -3.2154 2.36345  10
  -4   0  -9 5.32733 3.98878   3
 -11  -1   9 66.6592 9.42384  15
 -11  -1   9 58.3100 7.98806   8
 -11  -1   9 64.4805 6.42757   2
 -11   1   9 81.8876 9.87817  15
  11   1  -9 59.3000 7.21351   1
 -11   1   9 51.7904 5.81481   2
 -11   1   9 62.1818 8.07230   8
  -9  -1   9 122.573 8.57130   2
  -9  -1   9 121.762 9.79489  15
   9  -1  -9 133.284 7.88663   5
   9  -1  -9 120.164 7.84512   1
   9   1  -9 121.386 8.47705   1
  -9   1   9 126.150 8.23334   2
  -9   1   9 126.434 9.97722  15
  -7  -1   9 111.043 7.83246   2
   7  -1  -9 93.0887 6.14997   5
   7  -1  -9 100.545 6.95368   1
   7  -1  -9 100.146 7.12924  12
  -7  -1   9 102.865 7.82133  15
  -7  -1   9 114.131 6.65554  14
  -7   1   9 92.5399 6.96345  15
   7   1  -9 94.5541 6.69095  12
   7   1  -9 102.540 7.08745   1
  -7   1   9 103.512 6.11388  14
  -7   1   9 97.8538 7.10036   2
  -5  -1   9 281.456 9.10783  10
  -5  -1   9 288.744 10.9351  14
  -5  -1   9 300.360 11.5706  15
   5  -1  -9 289.925 10.2927   5
  -5  -1   9 308.208 11.4814   2
   5  -1  -9 291.620 11.5636  12
  -5   1   9 277.914 10.5680  14
  -5   1   9 276.448 10.7724  15
  -5   1   9 317.819 11.3754   2
   5   1  -9 300.165 11.2690  12
   3  -1  -9 176.479 8.00065   5
  -3  -1   9 181.370 7.60485   4
  -3  -1   9 188.075 8.38244   2
   3  -1  -9 171.393 7.60369  16
  -3  -1   9 182.397 7.28822  10
   3  -1  -9 172.971 8.41505   3
  -3  -1   9 188.572 8.84748  14
   3  -1  -9 178.762 9.02231  12
  -3   1   9 178.900 7.48635  10
  -3   1   9 178.707 8.53925  14
   3   1  -9 168.857 8.46048  12
  -3   1   9 177.328 7.96514   2
   3   1  -9 168.680 8.62062   3
   3   1  -9 184.574 7.86824  16
  -1  -1   9 79.5257 5.23313  10
  -1  -1   9 86.9079 6.55618  14
  -1  -1   9 83.4618 5.47387   2
   1  -1  -9 72.6792 6.26321   3
   1  -1  -9 84.7221 5.79854   5
  -1  -1   9 78.1027 5.92969   4
   1  -1  -9 89.2908 6.55695  16
   1  -1  -9 86.3625 6.89144  12
   1   1  -9 88.0671 6.47771  12
  -1   1   9 80.8665 5.18956  10
   1   1  -9 79.9702 5.81581  16
  -1   1   9 89.1884 5.02404   2
   1   1  -9 93.6293 6.94476   3
  -1   1   9 80.4643 6.16987  14
   1  -1   9 197.400 10.2144   4
  -1  -1  -9 194.923 10.6431   3
  -1  -1  -9 192.702 10.5313  12
  -1  -1  -9 191.719 10.4419  16
   1  -1   9 195.628 9.01996  10
   1  -1   9 201.276 9.35876  14
   1   1   9 205.029 9.23750  10
  -1   1  -9 180.505 9.76662  16
   1   1   9 210.513 9.90676  14
  -1   1  -9 201.042 10.2301  12
  -1   1  -9 194.629 10.7656   3
  -3  -1  -9 1.33928 3.55031  12
   3  -1   9 1.74405 2.79648   4
   3  -1   9 0.62378 2.54908  10
  -3  -1  -9 0.13651 3.38801   3
  -3   1  -9 2.82392 3.97028  12
  -3   1  -9 5.81670 3.66176   3
   3   1   9 -0.7455 1.40002  10
 -12  -2   9 229.428 17.1248   8
 -12   2   9 209.247 13.2261   8
  12   2  -9 197.926 11.7441   1
 -10  -2   9 187.111 10.5292   2
  10  -2  -9 193.136 10.4100   5
 -10  -2   9 186.837 11.8606  15
 -10   2   9 191.122 9.89463   2
 -10   2   9 188.985 11.2268   8
  10   2  -9 174.625 10.8316   1
 -10   2   9 171.782 11.0375  15
   8  -2  -9 336.109 13.2685  12
   8  -2  -9 334.346 12.7517   5
  -8  -2   9 328.650 14.8759  15
  -8  -2   9 337.709 13.4799   2
   8  -2  -9 322.498 12.5735   1
   8   2  -9 331.465 13.6008   1
  -8   2   9 313.640 13.9103  15
  -8   2   9 321.973 12.5342   2
  -6  -2   9 357.566 13.4291   2
   6  -2  -9 352.009 12.3885   5
  -6  -2   9 365.059 12.6073  14
   6  -2  -9 357.097 13.2814  12
  -6  -2   9 357.593 13.8875  15
  -6   2   9 364.340 12.0092  14
  -6   2   9 340.654 12.7929  15
  -6   2   9 361.857 12.4953   2
   6   2  -9 358.039 13.7636   1
   6   2  -9 355.645 12.4450  12
   4  -2  -9 331.739 12.4711  12
  -4  -2   9 322.301 12.1082  14
   4  -2  -9 317.947 11.1852   3
  -4  -2   9 316.282 9.56746  10
   4  -2  -9 332.480 11.8986   5
  -4  -2   9 329.443 12.0782   2
   4   2  -9 348.076 12.4877   3
  -4   2   9 318.230 11.4061  14
  -4   2   9 320.095 11.0802   2
   4   2  -9 328.678 11.5840  12
  -2  -2   9 503.798 14.7095   4
  -2  -2   9 494.828 13.1512  10
   2  -2  -9 500.718 15.1357   3
  -2  -2   9 489.931 15.6544  14
   2  -2  -9 478.100 14.5978  16
   2  -2  -9 475.274 15.9643  12
  -2  -2   9 480.731 14.0989   2
   2  -2  -9 496.286 15.4111   5
  -2   2   9 494.188 14.0847  10
   2   2  -9 498.064 15.8512   3
   2   2  -9 482.540 14.9428  16
  -2   2   9 479.292 12.2937   6
   2   2  -9 497.258 15.0137  12
  -2   2   9 494.393 13.4997   2
  -2   2   9 507.536 15.5288  14
   0  -2  -9 330.047 13.7692  12
   0  -2  -9 326.126 12.7826  16
   0  -2  -9 340.872 13.0942   3
   0  -2   9 353.094 13.0155   4
   0  -2   9 318.344 11.1042  10
   0  -2  -9 338.408 13.1066   5
   0  -2   9 344.456 12.8452  14
   0   2  -9 320.497 13.1420   3
   0   2   9 346.369 11.8627  10
   0   2  -9 310.517 11.9491  12
   0   2   9 345.736 12.8436  14
   0   2   9 329.294 10.4543   6
   0   2  -9 324.669 12.9073  16
  -2  -2  -9 297.344 13.3017   3
   2  -2   9 298.155 11.6410  10
  -2  -2  -9 300.376 14.0538  12
   2  -2   9 324.834 13.7647   4
   2  -2   9 292.297 11.8290  14
  -2   2  -9 311.011 14.1862   3
   2   2   9 297.341 12.0890  10
  -2   2  -9 282.727 12.0444   8
  -2   2  -9 303.069 12.5070  12
   2   2   9 311.846 12.4770  14
   4  -2   9 258.078 11.5723  10
  -4  -2  -9 245.972 13.6424  12
  -4  -2  -9 234.741 13.3392   3
   4  -2   9 261.151 13.0527   4
  -4   2  -9 256.402 13.8146   3
   4   2   9 248.611 11.7663  10
 -11  -3   9 50.9433 6.35226   2
 -11  -3   9 41.6439 7.66745  15
  11   3  -9 53.3390 7.25210   1
 -11   3   9 49.0245 7.82769  15
 -11   3   9 44.7033 5.44125   2
  -9  -3   9 678.161 23.3806  15
   9  -3  -9 660.376 20.3508   5
  -9  -3   9 664.384 20.4968   2
  -9   3   9 708.231 19.9365   2
  -9   3   9 676.954 22.1664  15
   9   3  -9 707.749 22.2735   1
   7  -3  -9 197.880 10.1139  12
  -7  -3   9 183.831 10.4465  15
  -7  -3   9 184.974 9.10143  14
   7  -3  -9 190.435 9.02279   1
  -7  -3   9 206.469 10.5985   2
   7  -3  -9 202.351 9.95553   5
   7   3  -9 198.810 10.4680   1
  -7   3   9 193.564 8.41349  14
  -7   3   9 197.606 9.44518   2
  -7   3   9 186.052 9.92898  15
  -5  -3   9 1038.30 25.2173   2
   5  -3  -9 1030.12 25.3170   5
  -5  -3   9 1049.09 25.3707  14
   5  -3  -9 1073.56 26.4127  12
  -5   3   9 1032.61 24.1363   2
   5   3  -9 1024.21 21.9671   9
  -5   3   9 1027.94 24.0945  14
   5   3  -9 1067.92 24.4173  12
   3  -3  -9 85.9242 5.71980   3
  -3  -3   9 101.808 6.85831  14
   3  -3  -9 74.9131 5.28294  16
   3  -3  -9 82.3734 6.89919  12
   3  -3  -9 81.0526 6.43127   5
  -3  -3   9 82.0414 4.53823  10
  -3  -3   9 84.3786 5.60421   4
  -3  -3   9 94.0855 6.62700   2
   3   3  -9 83.2688 5.69527  16
  -3   3   9 82.9044 6.21849  14
  -3   3   9 85.9281 5.48893  10
  -3   3   9 86.1164 5.71859   2
   3   3  -9 94.7728 6.82022   3
  -3   3   9 86.2331 4.69416   6
   3   3  -9 87.2246 5.79786  12
   1  -3  -9 857.653 23.4690  12
  -1  -3   9 861.993 22.5680  14
  -1  -3   9 861.215 22.0480   4
   1  -3  -9 842.693 22.8668   5
   1  -3  -9 810.823 21.7751  16
  -1  -3   9 869.130 19.6269  10
   1  -3  -9 859.697 21.8788   3
  -1  -3   9 821.123 20.0917   2
  -1   3   9 828.924 20.6311  10
  -1   3   9 877.996 22.3987  14
   1   3  -9 826.666 20.6408  12
   1   3  -9 846.284 23.0390   3
  -1   3   9 832.224 19.0063   2
  -1   3   9 854.377 19.2564   6
   1   3  -9 826.129 22.2192  16
   1  -3   9 -1.1952 1.89968  10
  -1  -3  -9 2.13208 3.27897  12
  -1  -3  -9 -3.8323 2.23478   3
   1  -3   9 2.11071 2.16430   4
  -1  -3  -9 0.00896 2.28106   5
   1  -3   9 -2.5500 2.00887  14
  -1  -3  -9 -0.9789 1.80174  16
   1   3   9 1.49351 2.18057  10
  -1   3  -9 1.69237 2.62810  16
  -1   3  -9 0.94294 2.79374   3
   1   3   9 0.51253 1.89697  14
   1   3   9 -1.9904 1.89912   6
  -1   3  -9 2.64330 2.41954   8
   3  -3   9 286.032 13.8039   4
  -3  -3  -9 286.764 14.1238   5
   3  -3   9 264.557 11.4650  10
  -3  -3  -9 295.800 13.7943   3
  -3  -3  -9 293.123 14.5464  12
  -3   3  -9 291.390 13.0547   8
  -3   3  -9 312.829 14.6518   3
   3   3   9 296.848 12.5336  10
 -10  -4   9 177.194 10.7508   2
 -10  -4   9 185.642 13.1114  15
  10  -4  -9 191.854 11.0807   5
  10   4  -9 165.633 10.6323   1
 -10   4   9 181.741 11.6535  15
 -10   4   9 185.492 9.67196   2
  -8  -4   9 551.612 20.1506  15
   8  -4  -9 544.803 18.0309   5
   8  -4  -9 567.917 18.0649  12
  -8  -4   9 553.824 18.3986   2
   8   4  -9 549.129 19.1838   1
  -8   4   9 494.695 17.7460  15
  -8   4   9 533.636 16.8514   2
  -6  -4   9 599.060 17.9120  14
  -6  -4   9 612.850 18.6267   2
   6  -4  -9 618.538 18.5957  12
   6  -4  -9 599.833 18.6642   5
  -6   4   9 598.879 17.3722   2
  -6   4   9 609.616 16.8231  14
   6   4  -9 592.105 15.0882   9
  -6   4   9 596.034 17.3994  15
   6   4  -9 606.885 19.5591   1
  -4  -4   9 432.202 14.6414   2
   4  -4  -9 437.093 15.3352  12
  -4  -4   9 434.110 15.0484  14
   4  -4  -9 438.348 15.5283   5
  -4   4   9 423.800 14.1575  14
  -4   4   9 410.310 11.7081   6
   4   4  -9 399.293 12.6444  12
   4   4  -9 435.215 12.6202   9
  -4   4   9 435.792 13.4778   2
  -2  -4   9 604.173 17.3028   4
   2  -4  -9 602.086 18.9493   5
   2  -4  -9 617.276 18.9822  12
  -2  -4   9 582.223 16.5909   2
  -2  -4   9 627.552 18.8693  14
   2  -4  -9 582.734 16.1474   3
   2  -4  -9 590.437 17.1116  16
  -2   4   9 600.450 15.3820   6
   2   4  -9 611.540 18.5826   3
  -2   4   9 612.642 15.9335   2
  -2   4   9 595.829 17.8758  14
  -2   4   9 591.253 16.5141  10
   0  -4   9 173.914 9.25174  14
   0  -4  -9 169.126 10.0262  12
   0  -4  -9 180.537 9.80601  16
   0  -4   9 183.678 10.0116   4
   0  -4   9 183.337 7.89496  10
   0  -4  -9 187.179 10.8076   5
   0  -4  -9 181.999 9.00955   3
   0   4  -9 160.454 9.20440  16
   0   4  -9 188.327 9.87147   3
   0   4   9 178.560 8.65868  10
   0   4   9 171.174 7.84823   6
   0   4   9 174.347 9.28668  14
   2  -4   9 109.134 6.62645  10
   2  -4   9 117.747 7.85613  14
  -2  -4  -9 126.348 9.54517   5
  -2  -4  -9 121.715 9.92339  12
   2  -4   9 111.811 8.91113   4
  -2  -4  -9 118.322 8.39970   3
  -2   4  -9 124.240 9.28959   3
  -2   4  -9 111.015 8.39474   8
   2   4   9 118.228 7.80139  10
   4  -4   9 61.9535 6.11899  10
  -4  -4  -9 49.5994 6.68086   3
  -4  -4  -9 56.8635 7.77901   5
  -4  -4  -9 86.3702 9.96213  12
   4  -4   9 80.4733 8.12615   4
   4   4   9 79.6919 7.03124  10
  -4   4  -9 73.2126 8.04502   3
  -4   4  -9 68.6151 7.87374   8
  11  -5  -9 60.6410 7.64885   5
 -11  -5   9 50.2017 6.85016   2
 -11  -5   9 44.4447 9.39183  15
 -11   5   9 61.2499 8.42087  15
 -11   5   9 69.1418 6.84721   2
  11   5  -9 51.1448 7.25820   1
  -9  -5   9 51.3599 7.62740  15
  -9  -5   9 56.2106 7.50235   2
   9  -5  -9 65.1483 7.62135   5
  -9   5   9 66.1102 8.05470  15
  -9   5   9 58.6064 6.13946   2
   9   5  -9 57.0678 7.17116   1
   7  -5  -9 296.877 13.2870   5
  -7  -5   9 292.927 12.6858   2
   7  -5  -9 322.192 13.2401  12
  -7  -5   9 285.511 12.1682  14
  -7   5   9 288.209 12.3316  15
   7   5  -9 292.826 13.5639   1
  -7   5   9 293.490 11.8040   2
   5  -5  -9 115.010 8.06854   5
  -5  -5   9 110.271 7.99282   2
  -5  -5   9 118.956 8.30633  14
   5  -5  -9 100.991 7.79587  12
   5   5  -9 108.241 6.22615   9
  -5   5   9 103.023 5.83014   6
   5   5  -9 95.9051 7.77839   1
  -5   5   9 109.824 7.02569   2
  -3  -5   9 297.235 12.4466  14
   3  -5  -9 318.404 13.6374   5
   3  -5  -9 309.876 11.4685  16
   3  -5  -9 336.214 13.7181  12
  -3  -5   9 302.675 11.2667   4
   3  -5  -9 331.572 11.9828  11
  -3  -5   9 307.859 12.1979   2
  -3   5   9 327.218 11.5579  10
   3   5  -9 321.360 12.8485   3
  -3   5   9 316.025 10.6379   6
  -3   5   9 314.308 11.2610   2
  -3   5   9 305.132 12.2000  14
   1  -5  -9 6.15020 3.91432  12
  -1  -5   9 6.90752 3.96587  14
  -1  -5   9 3.58301 2.69789   2
   1  -5  -9 3.36191 2.44974  16
  -1  -5   9 3.67929 3.03761   4
   1  -5  -9 14.4909 4.60465   5
  -1   5   9 0.10231 2.09536  10
  -1   5   9 3.67046 2.01642   6
  -1   5   9 5.82276 2.77392  14
   1   5  -9 4.39004 2.89166   3
  -1  -5  -9 107.234 9.14764  12
   1  -5   9 98.9434 7.78520  14
   1  -5   9 115.524 8.79615   4
  -1  -5  -9 116.602 8.84669   5
  -1   5  -9 103.060 8.34446   3
   1   5   9 100.390 6.86133   6
   1   5   9 105.601 7.08824  10
  -3  -5  -9 8.45547 4.26056   5
   3  -5   9 4.04502 2.25249  10
  -3  -5  -9 0.14832 3.79995  12
   3  -5   9 3.50860 2.66754   4
  -3   5  -9 6.95042 3.75011   3
  -3   5  -9 3.92752 3.38758   8
   3   5   9 0.49227 2.76390  10
  10  -6  -9 330.661 15.2270   5
 -10  -6   9 335.259 17.8157  15
 -10  -6   9 315.966 14.9204   2
  10   6  -9 333.396 15.8747   1
 -10   6   9 320.410 14.7716  15
 -10   6   9 314.860 12.6803   2
   8  -6  -9 264.436 13.0788   5
  -8  -6   9 266.604 13.2296   2
  -8   6   9 212.039 11.3205  15
   8   6  -9 240.419 12.8289   1
  -8   6   9 227.827 10.4436   2
   6  -6  -9 387.101 15.7467   5
  -6  -6   9 372.159 14.8773   2
  -6  -6   9 353.127 14.6180  14
   6  -6  -9 369.153 14.3465  12
  -6   6   9 373.192 13.5159   2
   6   6  -9 396.601 15.7295   1
   6   6  -9 351.233 12.1161   9
  -6   6   9 376.723 12.2202   6
  -4  -6   9 554.465 18.3771  14
  -4  -6   9 569.408 17.9492   2
   4  -6  -9 603.679 20.1154   5
   4  -6  -9 553.303 18.3236  12
   4   6  -9 558.169 16.0491   9
  -4   6   9 534.960 15.5254   6
   4   6  -9 588.340 19.0465   1
  -4   6   9 564.000 16.4612   2
  -2  -6   9 128.667 7.89531   4
  -2  -6   9 126.896 9.06847  14
  -2  -6   9 132.951 8.27430   2
   2  -6  -9 130.584 9.96047   5
   2  -6  -9 133.357 8.08913  16
   2  -6  -9 136.347 9.62050  12
  -2   6   9 123.966 6.96927   2
   2   6  -9 140.342 8.76403   3
  -2   6   9 135.962 7.65347  10
  -2   6   9 122.567 7.01193   6
   0  -6   9 250.041 12.2159  14
   0  -6  -9 222.800 12.4553  12
   0  -6   9 240.956 12.1250   4
   0  -6  -9 243.764 13.1283   5
   0   6   9 223.023 9.98206   6
   0   6  -9 240.500 11.7235   3
   0   6   9 224.196 10.4004  10
  -2  -6  -9 69.2778 8.54843   5
   2  -6   9 61.3409 6.95753  14
   2  -6   9 68.2746 8.25153   4
  -2  -6  -9 75.5545 9.25251  12
   2   6   9 74.2502 7.21744   6
   2   6   9 67.3504 6.75131  10
  -2   6  -9 69.1105 7.70344   3
  -2   6  -9 74.9398 8.22265   8
   9  -7  -9 32.1304 6.04855   5
  -9  -7   9 29.8150 6.56259  15
  -9  -7   9 33.2441 5.80681   2
  -9   7   9 46.5494 6.67557  15
   9   7  -9 49.6874 7.24244   1
  -9   7   9 49.8762 6.03145   2
   7  -7  -9 253.270 12.6942   5
   7  -7  -9 236.230 11.3651  12
  -7  -7   9 229.018 12.4850   2
  -7  -7   9 230.186 11.9832  14
   7   7  -9 250.416 13.0236   1
  -7   7   9 229.889 10.7597   2
  -7   7   9 232.579 10.0797   6
   7   7  -9 236.119 10.0557   9
   5  -7  -9 86.1681 7.40134  12
   5  -7  -9 94.7126 8.84136   5
  -5  -7   9 96.9916 8.63513  14
  -5  -7   9 105.573 8.51342   2
  -5   7   9 98.0260 6.95779   2
   5   7  -9 99.6305 7.88800   1
   5   7  -9 96.1776 6.70858   9
  -5   7   9 80.9052 6.01351   6
  -3  -7   9 423.655 15.6073   2
   3  -7  -9 438.231 17.9053   5
  -3  -7   9 435.971 16.7945  14
  -3  -7   9 407.822 14.8152   4
   3  -7  -9 442.936 16.3029  12
   3  -7  -9 438.022 14.1711  11
  -3   7   9 398.558 13.6162   6
  -3   7   9 409.471 13.7601  10
   3   7  -9 420.345 15.3553   1
   3   7  -9 444.128 14.6447   9
  -3   7   9 416.473 13.6916   2
  -1  -7   9 3.66459 3.72439  14
   1  -7  -9 -0.1399 3.84830   5
  -1  -7   9 5.05818 3.55207   4
   1  -7  -9 0.67588 3.60816  12
  -1  -7   9 1.45343 2.77674   2
  -1   7   9 6.18800 2.76158   6
   1   7  -9 0.07863 2.31488   3
  -1   7   9 7.14423 2.80986  10
   1   7  -9 2.95911 2.51714   9
   1  -7   9 395.128 16.2259   4
  -1  -7  -9 428.754 17.7870  12
  -1  -7  -9 420.374 18.4405   5
   1  -7   9 397.656 15.7025  14
   1   7   9 393.677 14.3452   6
   1   7   9 391.792 14.1555  10
  -1   7  -9 422.247 16.0859   3
   8  -8  -9 51.9315 7.44730   5
  -8  -8   9 36.3113 6.69419   2
  -8   8   9 33.1287 4.71545   6
  -8   8   9 77.1367 11.9617  15
   8   8  -9 37.8252 6.24702   1
  -8   8   9 41.7548 5.53638   2
   6  -8  -9 107.353 9.56888   5
  -6  -8   9 96.3826 9.17968  14
   6  -8  -9 98.2208 7.64747  12
  -6  -8   9 102.574 9.67621   2
  -6   8   9 111.626 7.83000   2
  -6   8   9 88.1001 6.72351   6
   6   8  -9 100.817 7.20400   9
   6   8  -9 97.3616 8.41108   1
   4  -8  -9 295.810 15.0892   5
  -4  -8   9 291.897 13.7787  14
   4  -8  -9 288.459 12.8946  12
   4  -8  -9 286.987 11.5710  11
  -4  -8   9 296.592 13.7377   2
  -4   8   9 285.798 11.7484   6
   4   8  -9 286.090 12.0394   9
   4   8  -9 277.371 12.7729   1
  -4   8   9 305.668 12.0666   2
  -2  -8   9 61.0496 6.85040   2
   2  -8  -9 75.2202 8.71491   5
  -2  -8   9 69.0883 8.48201  14
  -2  -8   9 66.2540 7.34269   4
   2  -8  -9 72.2796 6.17380  11
   2  -8  -9 70.0966 8.15589  12
  -2   8   9 66.0652 5.85519  10
   2   8  -9 69.0140 5.88925   9
  -2   8   9 69.9365 5.68630   6
   0  -8   9 319.635 14.7656   4
   0  -8  -9 320.167 15.1866  12
   0  -8  -9 327.681 16.5035   5
   0  -8   9 302.938 14.2066  14
   0   8  -9 303.991 12.9869   9
   0   8   9 321.255 12.5842   6
   0   8  -9 336.770 14.5188   3
   0   8   9 282.322 11.8177  10
  -7  -9   9 37.0564 5.97097   2
   7  -9  -9 36.4892 7.11421   5
  -7  -9   9 36.7257 6.56478  14
  -7   9   9 31.1035 4.93055   6
   7   9  -9 29.4141 4.62409   9
   7   9  -9 33.3853 5.77008   1
  -7   9   9 50.7054 6.03080   2
   5  -9  -9 335.971 16.4113   5
  -5  -9   9 318.811 15.5002  14
  -5  -9   9 318.521 14.8919   2
   5   9  -9 302.215 13.5727   1
   5   9  -9 320.681 12.6548   9
  -5   9   9 311.393 12.7849   2
  -5   9   9 297.467 12.4551   6
   3  -9  -9 6.55976 4.77068   5
  -3  -9   9 5.47769 2.91455   4
   3  -9  -9 11.3179 3.43834  11
  -3  -9   9 9.78044 3.94411  14
   3  -9  -9 5.17973 3.42382  12
  -3  -9   9 8.87814 4.24001   2
   3   9  -9 7.46667 3.16516   9
  -3   9   9 5.63290 3.02713   6
  -3   9   9 5.24867 2.70809  10
  -1  -9   9 123.630 10.2759  14
   1  -9  -9 142.545 10.9251   5
   1  -9  -9 125.152 9.78200  12
  -1  -9   9 125.444 9.89943   4
   1   9  -9 130.081 8.92006   9
  -1   9   9 117.045 7.69740   6
  -1   9   9 124.882 7.82651  10
  -6 -10   9 0.35571 4.81176   2
  -6 -10   9 2.72055 4.73229  14
   6  10  -9 8.29966 3.61467   9
  -6  10   9 4.66217 2.53011   6
  -4 -10   9 30.2003 5.83548   2
   4 -10  -9 26.8517 4.81125  11
  -4 -10   9 31.3756 6.77547  14
   4 -10  -9 41.4775 7.90330   5
  -4  10   9 36.9266 5.56501   6
   4  10  -9 40.8269 5.63992   9
  -4  10   9 24.2227 4.13879  10
  -2 -10   9 13.6798 4.92247  14
   2 -10  -9 17.2805 4.25038  11
   2 -10  -9 16.6385 6.33548   5
  -2 -10   9 16.5646 5.06961   4
  -2 -10   9 18.8952 4.79606   2
   2  10  -9 19.9284 4.28496   9
  -2  10   9 13.4588 3.54274  10
  -2  10   9 16.6801 4.27895   6
 -10   0  10 1140.56 32.2446  15
 -10   0  10 1106.68 28.2749   2
  10   0 -10 1109.15 29.5242   1
  -8   0  10 2.22047 2.60535  15
   8   0 -10 1.58242 2.56005   1
  -8   0  10 4.07715 3.40620   2
   6   0 -10 1129.97 27.3214  12
  -6   0  10 1094.99 25.8191  14
  -6   0  10 1074.21 25.9560   2
  -6   0  10 1081.57 27.0210  15
  -4   0  10 23.0664 4.08855   2
  -4   0  10 27.3175 4.53845  14
  -4   0  10 30.3068 3.79300  10
   4   0 -10 29.5158 4.76534  12
   4   0 -10 31.2527 4.56234   3
  -2   0  10 346.953 11.5104   2
   2   0 -10 341.559 13.2926   3
  -2   0  10 328.258 12.1483   4
  -2   0  10 349.775 11.7460  10
   2   0 -10 324.424 12.2788  16
   2   0 -10 342.830 13.5681  12
  -2   0  10 341.467 13.0555  14
   0   0 -10 128.402 8.40600   3
   0   0  10 132.542 8.32511  14
   0   0  10 128.739 7.21435  10
   0   0 -10 130.518 8.81647  16
   0   0 -10 123.137 8.60348  12
   0   0  10 133.150 8.52984   4
  -2   0 -10 215.887 11.7644   3
   2   0  10 211.784 10.3143  10
  -2   0 -10 217.803 11.9301  12
   2   0  10 213.771 10.1345  14
 -11  -1  10 221.249 13.9533  15
 -11  -1  10 181.416 10.1120   2
 -11   1  10 187.674 10.3415   2
 -11   1  10 208.821 13.3741  15
  11   1 -10 213.395 11.8636   1
  -9  -1  10 95.7673 9.89390  15
  -9  -1  10 97.0330 8.16616   2
   9  -1 -10 100.960 7.59976   1
  -9   1  10 95.5743 7.73670   2
   9   1 -10 105.240 8.29387   1
  -9   1  10 88.6984 8.61381  15
  -7  -1  10 36.9769 4.76987  14
  -7  -1  10 43.6123 5.47371   2
   7  -1 -10 37.2208 5.37452  12
   7  -1 -10 36.3630 5.24472   1
  -7  -1  10 35.9913 5.61341  15
   7   1 -10 42.2256 5.30131  12
  -7   1  10 30.3520 4.11437  14
   7   1 -10 30.8048 4.80184   1
  -7   1  10 37.5338 5.45726   2
  -7   1  10 42.1381 5.84720  15
  -5  -1  10 384.839 13.8587  15
   5  -1 -10 342.651 13.4546  12
  -5  -1  10 347.757 12.7797  14
  -5  -1  10 346.171 10.8634  10
  -5  -1  10 345.176 13.0823   2
   5   1 -10 353.017 13.0881  12
  -5   1  10 366.248 11.6320  10
  -5   1  10 348.926 12.6746   2
  -5   1  10 348.388 12.5965  14
   3  -1 -10 2.86999 1.96270  16
  -3  -1  10 5.99836 2.11590  10
   3  -1 -10 7.01171 2.77176   3
   3  -1 -10 3.39252 2.95240  12
  -3  -1  10 7.82647 2.31221   4
  -3  -1  10 6.83237 2.72183   2
  -3  -1  10 7.63451 3.22491  14
  -3   1  10 5.23827 2.31049  14
   3   1 -10 8.41640 3.02915   3
  -3   1  10 3.27559 2.38016   2
   3   1 -10 3.18484 2.63428  12
  -3   1  10 2.44787 2.07334  10
   3   1 -10 4.90296 2.16759  16
  -1  -1  10 125.519 8.17358  14
   1  -1 -10 126.273 8.34129   3
  -1  -1  10 130.637 7.05536  10
   1  -1 -10 121.575 8.04063  16
   1  -1 -10 135.849 8.83566  12
  -1  -1  10 131.846 8.04172   4
   1   1 -10 112.054 7.78213  16
   1   1 -10 126.127 8.69725   3
  -1   1  10 126.370 8.09508  14
   1   1 -10 125.322 8.33251  12
  -1   1  10 132.049 7.38448  10
   1  -1  10 78.0874 7.24518   4
  -1  -1 -10 90.1847 9.15764  12
  -1  -1 -10 85.9668 8.03076   3
   1  -1  10 74.0553 6.60989  14
   1  -1  10 89.9702 6.69266  10
   1   1  10 91.5685 6.73977  14
  -1   1 -10 86.6981 8.11549   3
  -1   1 -10 91.9234 7.56734  12
   1   1  10 78.7919 6.07221  10
   3  -1  10 3.80311 2.92305  10
  -3  -1 -10 -1.0243 3.32057  12
  -3  -1 -10 5.45385 4.04009   3
   3   1  10 0.63002 2.55642  10
  -3   1 -10 3.26454 4.01050   3
 -10  -2  10 21.3201 6.14091  15
 -10  -2  10 22.5964 5.15048   2
 -10   2  10 21.0611 5.60768  15
  10   2 -10 22.0317 4.75744   1
 -10   2  10 24.7808 4.79545   2
   8  -2 -10 122.909 8.11475   1
   8  -2 -10 138.486 8.29265   5
  -8  -2  10 137.893 9.55703   2
   8  -2 -10 137.310 9.03330  12
  -8  -2  10 134.524 9.45536  15
   8   2 -10 142.506 9.64959   1
  -8   2  10 132.018 8.77119   2
  -8   2  10 134.039 9.40557  15
  -6  -2  10 54.6197 6.49867   2
   6  -2 -10 70.1572 6.71274  12
   6  -2 -10 63.9188 5.69065   5
  -6  -2  10 62.4597 6.41621  14
  -6  -2  10 52.8334 6.45742  15
  -6   2  10 57.5583 5.51755  14
  -6   2  10 65.8807 6.32664   2
   6   2 -10 63.8975 5.97513   1
  -6   2  10 56.9326 5.96094  15
   6   2 -10 56.9233 5.50293  12
   4  -2 -10 705.851 19.5978   5
   4  -2 -10 752.045 21.6341  12
  -4  -2  10 729.225 17.5365  10
  -4  -2  10 757.615 20.1569   2
  -4  -2  10 734.075 20.6998  14
   4  -2 -10 742.489 19.9375   3
   4   2 -10 746.678 20.1967  12
  -4   2  10 740.794 20.2782  14
  -4   2  10 745.728 18.7108  10
   4   2 -10 771.288 21.4202   3
  -4   2  10 721.774 19.0621   2
   2  -2 -10 5.82924 2.72001   3
  -2  -2  10 0.85638 2.52314   2
  -2  -2  10 2.12747 3.09603  14
  -2  -2  10 3.77596 2.34624   4
   2  -2 -10 -0.4356 2.30063   5
   2  -2 -10 3.09198 3.13931  12
  -2  -2  10 3.03460 1.79985  10
   2  -2 -10 1.51984 2.35033  16
  -2   2  10 3.13434 2.00010   2
  -2   2  10 -0.3248 1.78219  10
   2   2 -10 2.79802 2.25772  16
   2   2 -10 2.94046 2.43402  12
  -2   2  10 -0.0088 2.16155  14
   2   2 -10 1.27433 2.62255   3
   0  -2  10 743.946 21.2965  14
   0  -2  10 765.486 21.9241   4
   0  -2 -10 711.649 21.8594  16
   0  -2 -10 763.523 22.9683  12
   0  -2  10 739.487 19.3979  10
   0  -2 -10 773.649 22.0130   3
   0   2  10 767.368 20.4423  10
   0   2  10 734.465 21.3022  14
   0   2 -10 702.917 22.0391  16
   0   2 -10 764.735 23.0109   3
   0   2 -10 726.475 20.8239  12
   2  -2  10 4.50418 2.88188  10
  -2  -2 -10 6.19976 4.17847  12
  -2  -2 -10 9.00339 3.95077   3
   2  -2  10 10.2777 3.90431   4
   2  -2  10 12.2027 3.37571  14
  -2   2 -10 7.92934 4.15140   3
   2   2  10 7.45512 3.33517  10
   2   2  10 8.53376 2.82719  14
 -11  -3  10 0.65312 4.25397  15
 -11  -3  10 3.32252 3.72268   2
  11  -3 -10 2.94228 2.98173   5
 -11   3  10 5.09332 4.17186  15
 -11   3  10 6.97157 3.36194   2
  11   3 -10 6.21905 3.32210   1
   9  -3 -10 0.51921 2.41918   5
  -9  -3  10 6.50673 3.53228   2
  -9  -3  10 8.43503 4.10624  15
  -9   3  10 1.18522 2.87244   2
  -9   3  10 -0.5555 3.46744  15
   9   3 -10 -0.1172 2.00690   1
  -7  -3  10 4.67656 2.63138  15
  -7  -3  10 -3.3844 3.56790   2
   7  -3 -10 6.06925 2.52919   5
   7  -3 -10 2.72696 3.10311  12
  -7  -3  10 4.40313 3.30246  14
  -7   3  10 4.47212 2.86076  15
   7   3 -10 6.18308 3.19450   1
  -7   3  10 2.72288 2.13371  14
  -7   3  10 7.98363 2.87141   2
   5  -3 -10 140.724 9.28792  12
   5  -3 -10 141.217 8.50032   5
  -5  -3  10 133.812 8.16431  14
  -5  -3  10 146.378 9.33496   2
  -5   3  10 140.375 7.58596   2
   5   3 -10 136.122 6.54989   9
   5   3 -10 141.166 7.76950  12
  -5   3  10 137.713 8.05364  14
  -3  -3  10 -3.9792 2.80003  14
  -3  -3  10 2.95488 3.05735   2
  -3  -3  10 4.66685 2.18198   4
   3  -3 -10 4.44617 3.02855   5
   3  -3 -10 3.10179 2.17128   3
   3  -3 -10 5.94103 3.51192  12
  -3   3  10 4.94557 2.30102  14
   3   3 -10 4.05061 2.79357   3
  -3   3  10 5.87537 2.48891   2
  -3   3  10 1.43860 2.19022  10
   3   3 -10 0.70477 2.52187  12
   3   3 -10 3.56367 2.38715  16
   1  -3 -10 71.5145 6.94270   5
   1  -3 -10 59.0492 5.99577  16
   1  -3 -10 56.7433 5.99718   3
   1  -3 -10 81.7473 8.56653  12
  -1  -3  10 66.7298 5.15501  10
  -1  -3  10 59.4225 6.33462  14
  -1  -3  10 68.2008 6.34083   4
  -1   3  10 72.8966 6.49472  14
   1   3 -10 62.8497 7.21716   3
   1   3 -10 59.7312 5.98929  16
  -1   3  10 61.0173 5.80020   6
  -1   3  10 66.6206 5.81204  10
  -1  -3 -10 21.6507 4.51289   3
   1  -3  10 31.0019 5.95143   4
  -1  -3 -10 36.4810 5.94723  12
   1  -3  10 27.2743 4.71205  14
  -1  -3 -10 24.4403 5.28768   5
   1  -3  10 25.3549 4.08802  10
   1   3  10 32.3267 4.97215  14
   1   3  10 25.3437 4.07394  10
  -1   3 -10 38.5034 6.11342   3
   3  -3  10 5.68378 3.04815  10
  -3  -3 -10 4.35858 4.40333  12
  -3  -3 -10 4.48553 3.83015   3
   3  -3  10 8.30604 3.99752   4
  -3   3 -10 3.71381 3.79970   3
   3   3  10 1.10022 2.67840  10
  10  -4 -10 7.29004 3.29661   5
 -10  -4  10 2.95905 3.81053   2
 -10  -4  10 1.14685 3.94973  15
  10   4 -10 5.67635 3.46255   1
 -10   4  10 0.94863 2.41844   2
 -10   4  10 1.83469 3.90230  15
  -8  -4  10 1058.34 30.2605  15
  -8  -4  10 1064.63 28.3408   2
   8  -4 -10 1071.84 28.0006  12
   8  -4 -10 1086.60 27.9922   5
  -8  -4  10 985.201 25.5383  14
  -8   4  10 1065.69 26.6374   2
  -8   4  10 1041.72 27.6730  15
   8   4 -10 1062.54 29.6480   1
   6  -4 -10 44.6417 6.06739   5
   6  -4 -10 47.9870 6.35867  12
  -6  -4  10 51.0897 6.73986   2
  -6  -4  10 52.4673 6.56115  14
  -6   4  10 46.8803 5.56017  14
   6   4 -10 56.9379 6.99485   1
   6   4 -10 42.5617 4.19207   9
  -6   4  10 55.7568 6.01284   2
  -4  -4  10 955.314 24.5371   2
  -4  -4  10 933.757 25.1635  14
   4  -4 -10 969.832 26.1945  12
   4  -4 -10 970.413 25.9409   5
  -4   4  10 945.854 23.0735  10
  -4   4  10 940.874 22.9404   2
  -4   4  10 970.099 24.6937  14
   2  -4 -10 232.558 12.1250   5
   2  -4 -10 208.093 9.92618  16
   2  -4 -10 212.516 9.64749   3
  -2  -4  10 216.210 10.2906   4
  -2  -4  10 239.442 11.7972  14
  -2  -4  10 231.182 10.3041   2
   2  -4 -10 246.781 12.7362  12
  -2   4  10 249.085 11.4006  14
  -2   4  10 225.591 9.15525   2
  -2   4  10 224.180 8.79485   6
  -2   4  10 221.996 10.0680  10
   2   4 -10 237.915 10.9582  16
   2   4 -10 208.149 11.1901   3
   0  -4  10 398.417 15.3113   4
   0  -4 -10 336.938 14.9924   5
   0  -4 -10 353.295 15.7092  12
   0  -4 -10 363.182 14.0235   3
   0  -4  10 345.578 14.2007  14
   0   4 -10 388.464 15.6869   3
   0   4  10 329.957 11.8008   6
   0   4  10 353.763 14.2826  14
   0   4  10 359.704 13.4113  10
  -2  -4 -10 101.806 9.66073  12
  -2  -4 -10 119.643 9.67896   5
   2  -4  10 110.720 9.16592   4
   2  -4  10 105.661 6.80850  10
  -2   4 -10 124.967 9.83460   3
   2   4  10 105.342 7.53658  10
  -9  -5  10 173.953 11.5322   2
  -9  -5  10 179.724 12.2443  15
   9  -5 -10 155.427 9.84133   5
  -9   5  10 153.115 10.1671  15
  -9   5  10 168.298 9.51889   2
   9   5 -10 176.178 11.5089   1
  -7  -5  10 383.476 15.0360  14
   7  -5 -10 395.430 15.7608   5
  -7  -5  10 410.191 16.1591   2
   7  -5 -10 372.176 15.1092  12
  -7   5  10 393.784 14.3974   2
   7   5 -10 395.391 16.3179   1
  -5  -5  10 177.562 10.5743   2
   5  -5 -10 178.523 10.7262   5
  -5  -5  10 163.867 10.3973  14
   5  -5 -10 196.098 11.1258  12
   5   5 -10 197.385 11.2542   1
  -5   5  10 188.836 9.29526   2
   5   5 -10 194.929 8.75174   9
  -3  -5  10 668.834 18.9905   4
   3  -5 -10 698.666 22.0072   5
  -3  -5  10 644.551 20.5302  14
   3  -5 -10 643.519 21.1215  12
  -3  -5  10 668.306 19.5669   2
   3   5 -10 656.374 20.5261   3
  -3   5  10 671.661 20.0432  14
  -3   5  10 656.232 17.1833   6
  -3   5  10 657.009 18.5183  10
  -3   5  10 668.986 18.0528   2
   1  -5 -10 227.318 12.8253  12
   1  -5 -10 244.168 12.4193   5
  -1  -5  10 264.022 12.8038  14
  -1  -5  10 239.878 11.8655   4
   1   5 -10 238.412 12.2409   3
  -1   5  10 226.907 9.68534   6
  -1   5  10 233.999 10.6641  10
   1  -5  10 164.556 10.6110   4
  -1  -5 -10 157.095 11.4393  12
  -1  -5 -10 169.368 11.1302   5
   1  -5  10 152.069 9.53592  14
   1   5  10 181.291 9.68669  10
   1   5  10 164.107 8.85027   6
  -1   5 -10 184.377 11.2310   3
  10  -6 -10 186.583 11.6747   5
 -10  -6  10 143.996 13.9206   2
  10   6 -10 176.909 11.6290   1
 -10   6  10 167.456 11.4803   2
 -10   6  10 155.042 10.9772  15
   8  -6 -10 125.947 9.62632   5
  -8  -6  10 131.333 10.3384   2
  -8  -6  10 132.554 9.23640  14
   8  -6 -10 130.575 8.97234  12
   8   6 -10 134.606 10.2536   1
  -8   6  10 126.354 8.44417   2
  -6  -6  10 364.005 15.3395  14
   6  -6 -10 377.680 15.2257  12
   6  -6 -10 406.412 16.7125   5
  -6  -6  10 416.936 16.3668   2
  -6   6  10 400.552 14.3037   2
   6   6 -10 361.489 12.7211   9
   6   6 -10 400.123 16.6430   1
   4  -6 -10 52.1029 7.36675   5
   4  -6 -10 58.3536 7.31948  12
  -4  -6  10 61.6572 7.07210   2
  -4  -6  10 57.1644 6.91526  14
   4   6 -10 58.9254 5.83688   9
  -4   6  10 62.3919 5.33933  10
   4   6 -10 56.0065 6.74960   1
  -4   6  10 53.7585 5.31780   6
  -4   6  10 60.7460 6.10706   2
  -2  -6  10 762.887 23.1774  14
  -2  -6  10 721.586 21.5023   4
   2  -6 -10 764.738 23.6224  12
   2  -6 -10 765.183 24.4534   5
   2   6 -10 745.794 22.4607   3
  -2   6  10 681.357 19.1262   6
  -2   6  10 756.946 20.8428  10
   0  -6  10 9.77564 4.22094  14
   0  -6 -10 10.5251 5.04310  12
   0  -6  10 13.4606 4.60881   4
   0  -6 -10 9.43919 4.61266   5
   0   6 -10 8.07511 3.86527   3
   0   6  10 6.33251 2.51606  10
   0   6  10 8.89342 3.06957   6
  -9  -7  10 52.4238 8.62612  15
  -9  -7  10 37.8544 7.00097   2
   9  -7 -10 48.1190 7.16797   5
   9   7 -10 42.1173 6.40540   1
  -9   7  10 44.4541 6.17087   2
  -7  -7  10 48.4402 6.98509  14
   7  -7 -10 43.2344 6.84242   5
   7  -7 -10 35.0840 5.54823  12
  -7  -7  10 35.8773 6.66498   2
  -7   7  10 49.8585 6.21172   2
   7   7 -10 39.7586 4.96125   9
   7   7 -10 40.2263 5.98583   1
  -5  -7  10 6.95036 4.13640   2
   5  -7 -10 1.20768 3.90876   5
  -5  -7  10 7.31363 4.52901  14
   5  -7 -10 3.35658 3.39869  12
  -5   7  10 2.22973 2.27013   6
  -5   7  10 3.20248 1.97665   2
   5   7 -10 1.83623 2.87458   1
   5   7 -10 -0.4147 2.21677   9
   3  -7 -10 53.0927 7.20658  12
   3  -7 -10 62.5896 8.70713   5
  -3  -7  10 48.1442 6.28358   4
  -3  -7  10 37.7714 5.89103   2
  -3  -7  10 57.4718 7.72694  14
  -3   7  10 53.2838 6.05097  10
  -3   7  10 52.9114 5.54331   2
   3   7 -10 39.5597 6.04565   1
   3   7 -10 48.4921 5.70298   9
  -3   7  10 45.9499 5.00196   6
  -1  -7  10 -0.5735 2.04590   4
   1  -7 -10 1.05427 4.11440  12
   1  -7 -10 1.10573 3.77394   5
  -1  -7  10 -1.0905 3.44139  14
  -1   7  10 1.31066 2.56192   6
  -1   7  10 -1.2021 2.26668  10
   1   7 -10 -0.7093 1.69323   9
   1   7 -10 1.21779 3.06688   3
   1  -7  10 3.95144 3.75665   4
   1  -7  10 10.9115 4.10928  14
  -1  -7 -10 12.8607 5.37791   5
  -1  -7 -10 9.41100 6.06611  12
   1   7  10 11.3401 3.66789   6
   1   7  10 2.39771 2.78683  10
  -1   7 -10 12.6138 4.49294   3
  -8  -8  10 24.7879 8.19694  14
  -8  -8  10 29.6869 6.32758   2
   8  -8 -10 32.5626 6.56375   5
   8   8 -10 35.2987 6.59896   1
  -8   8  10 46.5285 7.19167   2
   6  -8 -10 230.827 13.5690   5
  -6  -8  10 218.043 12.7348  14
   6  -8 -10 230.734 11.8140  12
  -6  -8  10 213.374 12.6155   2
  -6   8  10 237.812 11.2457   2
   6   8 -10 236.145 12.9669   1
  -6   8  10 223.786 10.3789   6
   6   8 -10 215.901 10.4822   9
   4  -8 -10 1.78098 3.28178  12
   4  -8 -10 2.45417 3.24575   5
  -4  -8  10 -0.6250 2.88768  14
  -4  -8  10 -2.3126 3.46383   2
   4   8 -10 4.63615 2.72540   9
  -4   8  10 2.87084 2.47159   6
   4   8 -10 -2.2716 2.41127   1
  -4   8  10 0.33768 2.20757  10
  -4   8  10 5.16305 2.47839   2
   2  -8 -10 124.336 9.90011  11
  -2  -8  10 143.836 9.25211   4
   2  -8 -10 147.605 11.8821   5
  -2  -8  10 147.496 9.60072   2
   2  -8 -10 148.544 10.6622  12
  -2  -8  10 144.145 10.6416  14
   2   8 -10 136.601 8.84037   9
  -2   8  10 147.179 8.64298   6
  -2   8  10 144.495 8.65509  10
   0  -8 -10 23.0422 5.47960   5
   0  -8  10 22.6822 5.62513   4
   0  -8  10 14.9870 5.07586  14
   0   8  10 11.4274 3.52111  10
   0   8  10 20.2729 4.26627   6
   0   8 -10 21.6940 4.66202   9
   0   8 -10 21.8477 7.80150   3
  -5  -9  10 4.56473 4.90243  14
  -5  -9  10 8.72381 4.77536   2
   5  -9 -10 9.20242 4.99618   5
  -5   9  10 11.8130 3.37103   2
  -5   9  10 8.16539 3.29339   6
   5   9 -10 6.06800 3.20942   9
  -5   9  10 12.2337 3.49972  10
  -3  -9  10 2.59139 3.15248  14
   3  -9 -10 5.55433 3.86613  12
  -3  -9  10 8.17817 4.35132   2
   3  -9 -10 12.0342 5.42692   5
  -3   9  10 5.32450 2.33871  10
  -3   9  10 10.8112 3.70726   6
   3   9 -10 8.65244 3.53836   9
 -10   0  11 7.88607 4.04623   2
  10   0 -11 0.54999 2.87473   1
 -10   0  11 4.41922 4.32556  15
   8   0 -11 5.68262 3.02288  12
  -8   0  11 -1.1711 3.05888   2
  -8   0  11 -0.9515 3.00223  15
   8   0 -11 2.58639 2.94357   1
   6   0 -11 -0.2262 2.39007  12
  -6   0  11 5.26026 3.23444  14
  -6   0  11 1.02302 1.87342  10
  -6   0  11 -0.4446 3.16970   2
  -4   0  11 -4.4654 2.22462  14
  -4   0  11 1.22693 2.71770   2
  -4   0  11 0.02369 1.76016  10
   4   0 -11 6.60068 3.21833  12
   4   0 -11 -0.5932 2.37422   3
   2   0 -11 -1.4422 2.07468  16
  -2   0  11 -0.9506 2.68162  14
   2   0 -11 3.06461 3.15064  12
   2   0 -11 -2.3339 2.25265   3
  -2   0  11 -0.7556 1.88529  10
   0   0  11 3.30049 2.61625  14
   0   0  11 0.83513 2.46421  10
   0   0 -11 1.12240 3.18788   3
   0   0 -11 0.04786 3.22468  12
   2   0  11 -1.5794 1.70188  10
  -2   0 -11 -0.3205 3.31920   3
  -2   0 -11 1.38647 3.48148  12
 -11  -1  11 24.8038 5.21448   2
 -11  -1  11 15.2156 6.45927  15
  11   1 -11 20.3625 5.21204   1
 -11   1  11 18.4473 4.39635   2
 -11   1  11 13.1159 5.55141  15
  -9  -1  11 376.208 15.3507   2
  -9  -1  11 404.776 17.4952  15
   9  -1 -11 391.487 15.5326   1
  -9   1  11 364.195 16.3617  15
   9   1 -11 392.981 16.2466   1
  -9   1  11 405.184 15.4115   2
   7  -1 -11 0.38069 2.52471  12
  -7  -1  11 1.68618 2.34593  15
  -7  -1  11 2.17624 3.62953   2
  -7  -1  11 1.32445 2.08831  14
   7  -1 -11 2.53885 2.79748   1
  -7   1  11 -2.5756 3.17001  15
  -7   1  11 0.37346 3.29995   2
   7   1 -11 -0.1608 2.42623   1
   7   1 -11 2.05831 2.82415  12
  -7   1  11 6.47640 2.83736  14
  -5  -1  11 227.556 11.0530  14
   5  -1 -11 245.740 11.8765  12
  -5  -1  11 233.920 11.0451   2
  -5  -1  11 247.809 9.43879  10
  -5   1  11 225.304 10.8002  14
  -5   1  11 232.792 9.72903  10
  -5   1  11 233.934 10.7408   2
   5   1 -11 215.785 10.7532  12
   3  -1 -11 32.8159 5.46266  12
  -3  -1  11 24.3605 4.25725   2
  -3  -1  11 28.7428 5.26663  14
   3  -1 -11 30.6926 4.95312   3
  -3  -1  11 31.2555 4.49138   4
  -3  -1  11 28.2221 3.90053  10
   3   1 -11 34.7832 5.19272  12
  -3   1  11 27.6944 4.16380  10
  -3   1  11 27.0129 3.88112   2
  -3   1  11 36.1905 5.48687  14
   3   1 -11 32.2822 5.10676   3
  -1  -1  11 72.5563 6.70564   4
  -1  -1  11 75.4252 7.83866  14
  -1  -1  11 75.3781 6.05408  10
   1  -1 -11 69.1977 7.23106   3
   1  -1 -11 74.4262 8.14152  12
  -1   1  11 73.7202 6.25116  10
   1   1 -11 69.0823 7.26230  12
  -1   1  11 78.3856 7.05744  14
   1   1 -11 60.9062 7.15501   3
  -1  -1 -11 46.8422 6.73860   3
  -1  -1 -11 63.7269 7.67596  12
   1  -1  11 47.5707 5.83938  10
   1  -1  11 48.2375 6.17209  14
   1   1  11 54.2922 6.28107  14
  -1   1 -11 36.4126 5.78508  12
  -1   1 -11 49.1721 7.10026   3
   1   1  11 44.6755 5.51147  10
 -10  -2  11 371.222 15.4525   2
 -10  -2  11 363.674 17.5147  15
  10   2 -11 365.137 16.3803   1
 -10   2  11 346.698 16.4217  15
 -10   2  11 369.402 14.7689   2
  -8  -2  11 523.122 19.2908  15
   8  -2 -11 553.101 18.8548  12
  -8  -2  11 506.279 17.6667   2
   8  -2 -11 521.001 18.2028   1
  -8  -2  11 492.211 16.1590  14
   8   2 -11 549.936 19.9352   1
  -8   2  11 523.018 17.5316   2
  -8   2  11 484.165 17.6565  15
  -6  -2  11 391.098 14.7523  14
   6  -2 -11 402.067 15.5881  12
  -6  -2  11 386.312 15.1332   2
  -6  -2  11 381.598 15.3233  15
  -6   2  11 384.837 14.2673  14
   6   2 -11 417.994 16.4390   1
   6   2 -11 412.081 14.8848  12
  -6   2  11 397.396 13.2979  10
  -6   2  11 369.049 14.0127   2
   4  -2 -11 404.563 14.4611   3
   4  -2 -11 400.014 15.7260  12
  -4  -2  11 385.193 12.2210  10
  -4  -2  11 378.379 13.7651   2
  -4  -2  11 385.161 15.0690  14
  -4   2  11 390.285 13.1961  10
   4   2 -11 387.098 14.2554  12
  -4   2  11 391.218 14.8010  14
   4   2 -11 401.515 15.5427   3
  -4   2  11 401.712 13.5864   2
  -2  -2  11 290.599 10.8866  10
  -2  -2  11 300.454 12.4041   4
   2  -2 -11 311.858 14.3880  12
   2  -2 -11 301.935 12.9377   3
   2  -2 -11 285.292 12.3552  16
  -2  -2  11 305.397 13.0144  14
   2   2 -11 299.001 12.5319  12
  -2   2  11 292.722 12.9319  14
   2   2 -11 315.030 13.9324   3
  -2   2  11 304.467 12.0670  10
   2   2 -11 284.353 12.3380  16
   0  -2  11 149.930 9.40818  14
   0  -2  11 145.641 9.22817   4
   0  -2 -11 144.048 9.76371   3
   0  -2 -11 136.743 10.2371  12
   0  -2  11 149.211 8.31522  10
   0   2  11 134.392 8.48548  10
   0   2 -11 145.752 10.3014   3
   0   2  11 147.343 9.26706  14
  -2  -2 -11 90.5761 11.7562  12
   2  -2  11 137.603 10.0004   4
  -2  -2 -11 99.5018 8.98639   3
   2  -2  11 128.246 8.05759  10
   2   2  11 129.017 8.79730  10
   2   2  11 136.795 8.61300  14
  -2   2 -11 143.851 12.8572   3
  -9  -3  11 8.40996 4.74248   2
  -9  -3  11 7.65262 4.29473  15
  -9   3  11 2.02390 3.44226  15
   9   3 -11 4.35317 2.79359   1
  -9   3  11 8.56250 3.85208   2
   7  -3 -11 384.511 15.5867  12
   7  -3 -11 324.422 13.8764   5
  -7  -3  11 403.119 15.7174   2
  -7  -3  11 392.351 16.2702  15
  -7  -3  11 362.888 14.1422  14
  -7   3  11 393.858 14.5731   2
  -7   3  11 384.361 13.9744  14
   7   3 -11 372.664 15.9794   1
  -5  -3  11 14.0534 4.29645   2
   5  -3 -11 13.5406 6.35056   5
   5  -3 -11 15.2469 4.63520  12
  -5  -3  11 6.13367 4.02842  14
  -5   3  11 5.43659 2.96727   2
  -5   3  11 6.80350 2.80037  10
   5   3 -11 9.55884 2.43890   9
  -5   3  11 10.4383 3.37469  14
   5   3 -11 6.87497 2.68694  12
  -3  -3  11 611.110 18.0631   4
  -3  -3  11 636.610 19.8163  14
  -3  -3  11 623.658 18.3377   2
   3  -3 -11 637.447 18.9385   3
   3  -3 -11 676.749 21.6510  12
  -3   3  11 623.231 18.3313  10
  -3   3  11 609.941 17.2034   2
  -3   3  11 631.369 19.7902  14
   3   3 -11 618.582 20.2902   3
  -1  -3  11 24.7174 5.38596  14
   1  -3 -11 20.0872 4.17482   3
  -1  -3  11 26.3355 4.98017   4
  -1  -3  11 20.1789 3.27468  10
   1  -3 -11 19.1010 5.23967  12
  -1   3  11 39.7587 5.95334  14
   1   3 -11 19.4080 4.69646   3
  -1   3  11 16.3130 3.63306  10
   1  -3  11 303.756 12.3993  10
  -1  -3 -11 322.893 15.5686  12
  -1  -3 -11 319.196 14.4731   3
   1  -3  11 311.785 14.3090   4
  -1   3 -11 325.310 15.3536   3
   1   3  11 325.622 13.8440  14
   1   3  11 311.989 13.0163  10
 -10  -4  11 1.73133 4.42444  15
 -10  -4  11 0.26338 4.30385   2
  10  -4 -11 7.11640 3.32022   5
  10   4 -11 8.06372 4.20944   1
 -10   4  11 9.15195 3.65126   2
 -10   4  11 3.47514 3.91964  15
  -8  -4  11 92.9306 9.34646   2
  -8  -4  11 103.342 9.51928  15
  -8  -4  11 76.2806 7.17039  14
   8  -4 -11 91.6735 8.32523  12
  -8   4  11 97.3975 7.87247   2
   8   4 -11 83.2835 9.20067   1
   6  -4 -11 54.6872 7.50813  12
  -6  -4  11 54.4990 7.25448  14
   6  -4 -11 70.2000 6.91667   5
  -6  -4  11 50.4915 6.90797   2
  -6   4  11 57.1073 6.33049  14
   6   4 -11 62.4978 7.56869   1
  -6   4  11 55.4052 6.32777   2
  -4  -4  11 191.496 11.2452  14
   4  -4 -11 170.361 10.3626   5
   4  -4 -11 194.122 11.5820  12
  -4  -4  11 184.626 10.5251   2
  -4   4  11 176.227 8.97606  10
  -4   4  11 188.609 10.2360  14
  -4   4  11 181.499 9.00819   2
   2  -4 -11 222.717 12.0061   5
  -2  -4  11 229.566 11.0064   4
  -2  -4  11 213.230 11.7988  14
   2  -4 -11 215.379 12.7161  12
  -2   4  11 220.698 10.2075  10
   2   4 -11 234.713 12.3727   3
  -2   4  11 212.578 11.1787  14
   0  -4  11 127.738 9.05046  14
   0  -4 -11 107.509 9.91508  12
   0  -4  11 123.408 9.16746   4
   0   4  11 118.078 8.30562  10
   0   4 -11 124.999 9.63492   3
   0   4  11 142.717 9.16132  14
  -9  -5  11 145.417 11.1697   2
   9  -5 -11 144.499 10.1347   5
  -9  -5  11 159.251 12.2388  15
  -9   5  11 137.617 8.56454   2
   9   5 -11 146.942 11.3516   1
   7  -5 -11 17.9184 4.77661  12
  -7  -5  11 12.6742 5.15541   2
   7  -5 -11 9.43517 3.87347   5
  -7  -5  11 16.6922 4.79869  14
   7   5 -11 13.9458 4.52109   1
  -7   5  11 14.7163 3.87249   2
   5  -5 -11 64.1847 7.52630   5
  -5  -5  11 53.6165 7.19922  14
   5  -5 -11 58.5694 7.63275  12
  -5  -5  11 52.2253 6.70328   2
   5   5 -11 72.0831 8.37689   1
  -5   5  11 61.5100 5.99632  10
   5   5 -11 52.4630 5.56836   9
  -5   5  11 63.9227 6.16698   2
   3  -5 -11 3.73419 4.32311  12
   3  -5 -11 2.98725 3.99083   5
  -3  -5  11 7.26084 3.82249   2
  -3  -5  11 0.21563 3.67710  14
  -3  -5  11 3.27994 3.29716   4
  -3   5  11 6.14802 2.62012   2
   3   5 -11 5.34633 3.52399   3
  -3   5  11 2.56756 2.82631  14
  -3   5  11 3.01242 2.60077  10
   1  -5 -11 48.1534 7.05572   5
  -1  -5  11 47.4675 6.70848  14
   1  -5 -11 49.2241 7.55605  12
  -1  -5  11 54.3860 6.73443   4
  -1   5  11 46.0368 5.52457  10
   1   5 -11 55.8677 7.10496   3
  -8  -6  11 6.82606 3.92036  15
  -8  -6  11 2.36211 2.82435  14
   8  -6 -11 2.16191 3.33571  12
   8  -6 -11 4.32551 2.64705   5
  -8  -6  11 3.83768 4.73215   2
   8   6 -11 5.53358 3.65251   1
  -8   6  11 3.35443 2.40546   2
   6  -6 -11 118.448 9.33063  12
  -6  -6  11 129.140 10.2257  14
   6  -6 -11 124.789 9.99658   5
  -6  -6  11 161.027 10.8604   2
   6   6 -11 137.025 10.2814   1
  -6   6  11 139.454 8.60665   2
   6   6 -11 136.232 7.97727   9
  -4  -6  11 90.7780 8.83632   2
   4  -6 -11 93.7287 9.01492   5
   4  -6 -11 103.904 9.01461  12
  -4  -6  11 86.5888 9.15697  14
   4   6 -11 95.4559 8.56254   1
  -4   6  11 97.6752 7.49167  10
  -4   6  11 94.1860 6.97873   2
   4   6 -11 89.9559 6.98110   9
  -2  -6  11 107.834 9.40909  14
   2  -6 -11 123.490 10.2002   5
   2  -6 -11 116.980 10.0767  12
  -2  -6  11 113.876 8.56244   4
  -2   6  11 102.318 7.69009  10
   2   6 -11 116.368 9.14952   3
  -2   6  11 149.506 12.5553   6
   0  -6  11 228.805 12.4186   4
   0  -6 -11 243.988 14.0503   5
   0  -6  11 230.697 12.3015  14
   0  -6 -11 217.706 14.1652  12
   0   6 -11 207.921 12.2945   3
   0   6  11 211.769 10.5924  10
   0   6  11 206.768 10.1877   6
   7  -7 -11 4.18551 3.93291   5
  -7  -7  11 4.01028 4.35249  14
   7  -7 -11 1.99104 3.53144  12
  -7  -7  11 3.06174 4.73126   2
   7   7 -11 4.95850 3.53459   1
  -7   7  11 0.40020 2.54167   2
  -5  -7  11 254.124 13.9806  14
   5  -7 -11 261.831 14.3463   5
  -5  -7  11 264.947 13.6215   2
   5  -7 -11 259.658 13.3167  12
   5   7 -11 266.169 13.4643   1
  -5   7  11 279.066 11.9571   2
   5   7 -11 249.773 11.0748   9
  -5   7  11 248.579 11.4745  10
   3  -7 -11 16.0305 5.17860  12
  -3  -7  11 16.4330 5.39634  14
  -3  -7  11 9.85005 4.38320   2
   3  -7 -11 16.8899 5.59522   5
   3   7 -11 12.0410 4.28959   1
  -3   7  11 12.1762 3.21725  10
   3   7 -11 15.0700 3.76389   9
   1  -7 -11 214.175 14.0095   5
  -1  -7  11 255.102 13.4606  14
  -1  -7  11 236.971 13.0939   4
  -1   7  11 233.493 11.3342  10
   1   7 -11 224.918 12.4480   3
   1   7 -11 250.801 11.9358   9
   6  -8 -11 258.853 13.1300  12
  -6  -8  11 276.108 14.6566   2
   6  -8 -11 237.979 15.1445   5
  -6  -8  11 296.835 15.1219  14
   6   8 -11 264.498 11.7572   9
   6   8 -11 283.205 14.6245   1
  -6   8  11 300.236 13.0075   2
  -6   8  11 263.743 11.7407  10
   4  -8 -11 73.4052 8.37812  12
   4  -8 -11 86.7093 9.72510   5
  -4  -8  11 72.7372 9.01484  14
  -4  -8  11 69.9738 8.38695   2
   4   8 -11 84.7059 7.31412   9
  -4   8  11 85.8855 7.15585  10
  -4   8  11 89.0048 6.98501   2
  10   0 -12 253.443 13.4446   1
 -10   0  12 252.396 12.8301   2
   8   0 -12 906.601 27.1492   1
   8   0 -12 885.194 25.5525  12
  -8   0  12 862.662 25.0185   2
   6   0 -12 579.102 19.3756  12
  -6   0  12 574.455 18.5238   2
  -6   0  12 555.500 16.4735  10
  -6   0  12 576.725 18.8738  14
  -4   0  12 677.609 21.2576  14
  -4   0  12 643.430 18.4042  10
  -4   0  12 637.140 18.8088   2
   4   0 -12 689.824 21.8649  12
   4   0 -12 695.620 21.5330   3
  -2   0  12 202.782 11.1719  14
   2   0 -12 192.251 11.2429  12
  -2   0  12 191.113 9.63938  10
   2   0 -12 205.749 11.7206   3
   0   0 -12 475.805 18.2275  12
   0   0 -12 477.080 18.6413   3
   0   0  12 462.119 16.1479  10
   0   0  12 477.642 17.3780  14
  -9  -1  12 33.7447 5.99919   2
   9  -1 -12 27.1100 5.22288   1
  -9  -1  12 22.1716 5.52376  15
   9   1 -12 25.3167 5.55760   1
  -9   1  12 29.7292 5.96768  15
  -9   1  12 24.5275 5.36367   2
  -7  -1  12 246.229 11.8756   2
  -7  -1  12 222.916 11.2814  14
   7  -1 -12 253.843 12.7876  12
  -7   1  12 229.038 11.6244   2
  -7   1  12 246.563 10.4353  10
   7   1 -12 238.159 12.7563   1
   7   1 -12 239.959 12.1012  12
  -5  -1  12 135.643 9.27010  14
  -5  -1  12 126.063 8.95530   2
  -5  -1  12 137.783 7.45047  10
   5  -1 -12 146.504 9.74484  12
  -5   1  12 134.829 8.57782   2
   5   1 -12 147.403 9.29497  12
  -5   1  12 132.475 9.10295  14
  -5   1  12 135.801 7.86684  10
   3  -1 -12 34.3945 6.04264  12
  -3  -1  12 36.2552 6.13924  14
  -3  -1  12 37.7415 4.47778  10
   3  -1 -12 42.6378 5.97006   3
   3   1 -12 46.7816 6.52702   3
  -3   1  12 34.5716 4.76469  10
   3   1 -12 40.6160 5.94273  12
  -3   1  12 35.5635 5.37792  14
  -1  -1  12 180.420 10.5090  14
   1  -1 -12 192.599 11.7764  12
  -1  -1  12 153.156 8.94661  10
   1  -1 -12 192.324 11.2363   3
  -1   1  12 172.845 9.51153  10
   1   1 -12 179.657 11.2635   3
   1   1 -12 164.702 10.3350  12
  -1   1  12 172.192 10.0283  14
 -10  -2  12 27.3506 6.75235  15
 -10  -2  12 31.8286 6.70214   2
  10   2 -12 18.4484 5.20824   1
 -10   2  12 12.4649 5.20452  15
  -8  -2  12 115.347 8.27225  14
   8  -2 -12 136.235 9.69928   1
  -8  -2  12 117.112 10.0073   2
   8  -2 -12 135.196 9.68020  12
  -8  -2  12 112.400 9.57832  15
  -8   2  12 127.207 9.17524   2
   8   2 -12 136.177 10.4326   1
   6  -2 -12 195.262 11.3898  12
  -6  -2  12 186.849 10.9056   2
  -6  -2  12 186.982 10.8516  14
  -6   2  12 189.606 9.39398  10
  -6   2  12 196.355 10.4667   2
  -6   2  12 202.645 10.7016  14
   6   2 -12 182.165 11.5180   1
   6   2 -12 192.589 10.4090  12
  -4  -2  12 121.201 8.52109   2
  -4  -2  12 119.538 9.11450  14
   4  -2 -12 122.754 9.54849  12
   4  -2 -12 123.678 8.44761   3
  -4   2  12 123.242 7.74192   2
   4   2 -12 111.482 8.40757  12
   4   2 -12 132.280 9.45155   3
  -4   2  12 114.498 7.22213  10
  -4   2  12 118.397 8.23177  14
  -2  -2  12 184.389 10.0146   4
   2  -2 -12 164.553 10.4627  12
  -2  -2  12 151.380 8.32204  10
  -2  -2  12 185.922 10.8158  14
   2  -2 -12 181.285 10.7018   3
   2   2 -12 186.452 11.4702   3
  -2   2  12 187.221 10.5817  14
  -2   2  12 166.635 9.34876  10
   0  -2  12 4.16718 2.89214   4
   0  -2 -12 2.05770 3.39296   3
   0  -2 -12 -0.3497 3.83842  12
   0  -2  12 -1.4534 2.14351  10
   0  -2  12 -1.2562 2.05375  14
   0   2  12 -3.1059 2.40756  10
   0   2 -12 3.88832 3.80382   3
   0   2  12 2.76018 2.01775  14
  -9  -3  12 140.130 11.1342  15
  -9  -3  12 135.350 10.4663   2
  -9   3  12 133.672 9.44926   2
   9   3 -12 152.612 11.2500   1
   7  -3 -12 7.79962 3.83838  12
  -7  -3  12 10.3262 4.06367   2
  -7  -3  12 13.6899 4.46429  14
  -7  -3  12 19.4058 4.79865  15
  -7   3  12 6.26711 2.97727  10
  -7   3  12 5.61548 3.02792  14
  -7   3  12 10.7575 3.93440   2
   7   3 -12 7.21164 3.87678   1
  -5  -3  12 40.5593 6.55368  14
  -5  -3  12 34.2756 5.65886   2
   5  -3 -12 31.6897 6.13559  12
  -5   3  12 38.4969 5.74616  14
  -5   3  12 28.6087 4.66755  10
  -5   3  12 38.7404 5.31165   2
   3  -3 -12 58.9471 6.53785   3
   3  -3 -12 58.2998 7.78228  12
  -3  -3  12 68.3798 8.08600  14
  -3   3  12 53.5845 5.76992  10
   3   3 -12 63.7123 7.40318   3
  -3   3  12 63.9587 7.13259  14
   1  -3 -12 2.75751 2.65512   3
   1  -3 -12 11.5819 5.00768  12
  -1  -3  12 11.8965 3.81001   4
  -1  -3  12 4.32322 2.64800  14
  -1   3  12 6.99171 3.29632  14
  -1   3  12 5.22761 2.64732  10
   1   3 -12 6.65919 3.26252   3
  -8  -4  12 26.6751 5.62062  14
  -8  -4  12 32.4972 5.96743   2
   8  -4 -12 27.3995 5.59763  12
  -8  -4  12 24.2559 6.07741  15
   8   4 -12 28.0587 5.89323   1
  -8   4  12 28.6347 5.17812   2
   6  -4 -12 191.045 11.6875  12
  -6  -4  12 169.878 10.7917  14
  -6  -4  12 192.468 11.4412   2
  -6   4  12 166.219 9.27524  10
  -6   4  12 176.337 9.76402  14
   6   4 -12 205.280 12.5882   1
  -6   4  12 179.413 9.71824   2
   4  -4 -12 93.1485 9.05249  12
  -4  -4  12 94.3705 8.25227   2
  -4  -4  12 110.823 8.48412  14
  -4   4  12 96.2129 7.48680  10
   4   4 -12 95.6134 6.96179   9
  -4   4  12 105.837 8.22055  14
  -4   4  12 96.5455 6.83891   2
   2  -4 -12 288.155 14.8611  12
  -2  -4  12 267.596 12.9515  14
  -2  -4  12 264.675 12.3277   4
  -2   4  12 272.214 13.0920  14
  -2   4  12 275.794 12.3524  10
   2   4 -12 251.124 13.5646   3
  -7  -5  12 -3.9319 3.27618  14
  -7  -5  12 1.57276 3.28323  15
  -7  -5  12 -3.6103 3.91112   2
   7  -5 -12 -0.2367 3.00902   5
   7  -5 -12 1.35557 3.70135  12
  -7   5  12 2.10442 2.34981   2
   7   5 -12 -1.9830 3.19825   1
  -5  -5  12 19.6141 5.82112  14
   5  -5 -12 14.2919 4.56870   5
   5  -5 -12 25.8946 5.98512  12
  -5  -5  12 13.0179 5.07472   2
   5   5 -12 14.7904 3.57212   9
  -5   5  12 18.0831 3.90892   2
   5   5 -12 15.2026 5.09897   1
  -5   5  12 23.1013 4.18892  10
   3  -5 -12 88.7248 9.24498  12
  -3  -5  12 66.8692 8.41919  14
  -3   5  12 70.0222 7.28931  10
   3   5 -12 76.4505 6.72418   9
   3   5 -12 72.1486 8.09260   3
  -6  -6  12 2.98513 3.13693  14
   6  -6 -12 3.37149 3.64731   5
   6  -6 -12 4.88531 4.21696  12
  -6  -6  12 -2.6016 4.25952   2
  -6   6  12 3.92098 2.90744   2
   6   6 -12 3.70025 3.66076   1
  -6   6  12 8.91797 3.45901  10
  -4  -6  12 403.722 17.3367  14
   4  -6 -12 401.555 17.4448  12
   4  -6 -12 396.835 17.3065   5
  -4  -6  12 374.444 15.9104   2
   4   6 -12 395.793 14.6180   9
  -4   6  12 403.615 15.2953  10
   4   6 -12 420.646 17.7433   1
   8   0 -13 2.59743 2.85905  12
  -8   0  13 2.15314 3.00061  14
   8   0 -13 -1.8274 3.08722   1
  -8   0  13 3.21153 3.76131   2
  -6   0  13 -0.8732 3.07444  14
   6   0 -13 5.06208 3.31087  12
  -6   0  13 -0.4254 3.24433   2
  -6   0  13 1.82807 2.44665  10
  -4   0  13 6.77311 2.98103  10
  -4   0  13 4.54249 2.72525  14
   4   0 -13 0.18479 3.06117  12
   4   0 -13 0.67587 3.08221   3
   2   0 -13 -2.7844 3.21718  12
  -2   0  13 -0.4238 2.65275  10
  -2   0  13 3.80967 2.80246  14
   2   0 -13 -1.0026 3.35287   3
  -7  -1  13 270.244 13.2538   2
  -7  -1  13 261.609 12.7999  14
   7  -1 -13 300.424 14.2180  12
  -7   1  13 283.391 13.0566   2
  -7   1  13 260.768 11.4361  10
   7   1 -13 291.610 13.4281  12
   7   1 -13 259.590 14.3997   1
  -7   1  13 268.918 12.6994  14
  -5  -1  13 19.1876 4.97543  14
  -5  -1  13 21.3349 4.88286   2
   5  -1 -13 12.6853 4.44495  12
  -5   1  13 26.3913 4.48534  10
  -5   1  13 24.0674 4.66084  14
   5   1 -13 19.4793 4.50024  12
  -5   1  13 21.6058 4.51064   2
   3  -1 -13 283.831 14.1542  12
  -3  -1  13 258.417 13.2639  14
  -3  -1  13 251.487 11.1028  10
   3  -1 -13 254.022 13.0677   3
   3   1 -13 275.146 13.9029   3
  -3   1  13 268.739 11.8651  10
  -3   1  13 261.412 13.2239  14
   8  -2 -13 275.363 14.1762   1
   8  -2 -13 250.747 13.6582  12
  -8  -2  13 262.097 12.1280  14
  -8  -2  13 243.940 13.4166   2
   8   2 -13 287.905 14.9299   1
  -8   2  13 291.482 13.2599   2
  -8   2  13 283.096 11.8958  10
  -6  -2  13 291.319 13.7881  14
   6  -2 -13 307.045 14.6922  12
  -6  -2  13 296.823 13.6914   2
   6   2 -13 292.166 13.2590  12
  -6   2  13 285.169 13.3411  14
  -6   2  13 304.778 12.6873   2
  -6   2  13 290.831 12.1989  10
   6   2 -13 289.331 15.0930   1
  -4  -2  13 355.191 15.1170  14
   4  -2 -13 400.002 17.0560  12
  -4   2  13 341.809 13.7240  10
  -4   2  13 357.315 15.4965  14
   2  -2 -13 223.062 12.5579   3
  -7  -3  13 3.63181 3.37342   2
   7  -3 -13 10.9295 4.50969  12
  -7  -3  13 12.0417 4.43102  14
   7   3 -13 8.76470 4.45150   1
  -7   3  13 8.02192 2.99433   2
  -7   3  13 7.67146 2.72224  14
  -7   3  13 9.33193 2.84261  10
  -5  -3  13 135.714 9.73001   2
   5  -3 -13 147.982 10.6452  12
  -5  -3  13 144.904 10.3642  14
  -5   3  13 157.536 8.92693   2
  -5   3  13 140.899 8.96326  10
  -5   3  13 154.538 10.2097  14
  -3  -3  13 4.50371 2.96193  14
   3  -3 -13 2.35858 4.45504  12
  -3   3  13 5.34931 3.95987  14
   3   3 -13 -0.2926 3.85279   3
  -3   3  13 1.77494 2.73846  10
  -6  -4  13 8.04876 4.39762  14
  -6  -4  13 3.29648 4.41577   2
  -6   4  13 11.4101 3.52350   2
  -6   4  13 2.33513 3.15450  10
  -6   4  13 6.06711 3.32722  14
   6   4 -13 7.20153 4.32066   1
  -4  -4  13 24.6930 6.52341  14
  -4   4  13 20.7660 4.61643  10
   0   0   0    0.00    0.00   0

 _exptl_absorpt_process_details
)
 SADABS 2016/2: Krause, L., Herbst-Irmer, R., Sheldrick G.M. & Stalke D.,
 J. Appl. Cryst. 48 (2015) 3-10
)
 _exptl_absorpt_correction_type   multi-scan
 _exptl_absorpt_correction_T_max  0.7479
 _exptl_absorpt_correction_T_min  0.6905
 _exptl_special_details
)
 The following wavelength and cell were deduced by SADABS from the
 direction cosines etc. They are given here for emergency use only:
 CELL 0.71077    6.917    7.656    7.541   90.063  116.229   89.962
)

;
_shelx_hkl_checksum              4629
loop_
_space_group_symop_operation_xyz
'x, y, z'
'-x, y, -z+1/2'
'x+1/2, y+1/2, z'
'-x+1/2, y+1/2, -z+1/2'
'-x, -y, -z'
'x, -y, z-1/2'
'-x+1/2, -y+1/2, -z'
'x+1/2, -y+1/2, z-1/2'
loop_
_atom_site_label
_atom_site_type_symbol
_atom_site_fract_x
_atom_site_fract_y
_atom_site_fract_z
_atom_site_U_iso_or_equiv
_atom_site_adp_type
_atom_site_occupancy
_atom_site_site_symmetry_order
_atom_site_calc_flag
_atom_site_refinement_flags_posn
_atom_site_refinement_flags_adp
_atom_site_refinement_flags_occupancy
_atom_site_disorder_assembly
_atom_site_disorder_group
Mg Mg 0.000000 0.500000 0.000000 0.00746(6) Uani 1 2 d S . P . .
S S 0.000000 0.15529(2) 0.250000 0.00604(5) Uani 1 2 d S T P . .
O1 O 0.17569(7) 0.04536(7) 0.39486(7) 0.01209(8) Uani 1 1 d . . . . .
O2 O 0.09235(8) 0.26806(6) 0.14957(7) 0.01101(8) Uani 1 1 d . . . . .
O3 O 0.000000 0.63497(9) 0.250000 0.00991(10) Uani 1 2 d S T P . .
H H 0.104(2) 0.7024(18) 0.293(2) 0.025(3) Uiso 1 1 d . . . . .
loop_
_atom_site_aniso_label
_atom_site_aniso_U_11
_atom_site_aniso_U_22
_atom_site_aniso_U_33
_atom_site_aniso_U_23
_atom_site_aniso_U_13
_atom_site_aniso_U_12
Mg 0.00655(12) 0.00777(12) 0.00747(11) 0.00049(8) 0.00280(9) -0.00039(8)
S 0.00453(7) 0.00592(7) 0.00710(7) 0.000 0.00226(5) 0.000
O1 0.00720(16) 0.01384(18) 0.01366(17) 0.00604(14) 0.00358(13) 0.00361(13)
O2 0.01084(17) 0.01001(16) 0.01447(17) 0.00436(13) 0.00785(14) 0.00112(12)
O3 0.0095(2) 0.0108(2) 0.0096(2) 0.000 0.00462(18) 0.000
loop_
_atom_type_symbol
_atom_type_description
_atom_type_scat_dispersion_real
_atom_type_scat_dispersion_imag
_atom_type_scat_source
O O 0.0106 0.0060 'International Tables Vol C Tables 4.2.6.8 and 6.1.1.4'
H H 0.0000 0.0000 'International Tables Vol C Tables 4.2.6.8 and 6.1.1.4'
S S 0.1246 0.1234 'International Tables Vol C Tables 4.2.6.8 and 6.1.1.4'
Mg Mg 0.0486 0.0363 'International Tables Vol C Tables 4.2.6.8 and 6.1.1.4'
Fe Fe 0.3463 0.8444 'International Tables Vol C Tables 4.2.6.8 and 6.1.1.4'
loop_
_geom_angle_atom_site_label_1
_geom_angle_atom_site_label_2
_geom_angle_atom_site_label_3
_geom_angle
_geom_angle_site_symmetry_1
_geom_angle_site_symmetry_3
_geom_angle_publ_flag
O1 Mg O1 180.0 8_455 4 ?
O1 Mg O2 85.97(2) 8_455 5_565 ?
O1 Mg O2 94.03(2) 4 5_565 ?
O1 Mg O2 94.03(2) 8_455 . ?
O1 Mg O2 85.97(2) 4 . ?
O2 Mg O2 179.999(12) 5_565 . ?
O1 Mg O3 91.556(17) 8_455 5_565 ?
O1 Mg O3 88.444(18) 4 5_565 ?
O2 Mg O3 92.80(2) 5_565 5_565 ?
O2 Mg O3 87.20(2) . 5_565 ?
O1 Mg O3 88.444(17) 8_455 . ?
O1 Mg O3 91.556(17) 4 . ?
O2 Mg O3 87.20(2) 5_565 . ?
O2 Mg O3 92.80(2) . . ?
O3 Mg O3 180.0 5_565 . ?
O1 Mg O2 41.568(16) 8_455 8_455 ?
O1 Mg O2 138.432(17) 4 8_455 ?
O2 Mg O2 98.754(13) 5_565 8_455 ?
O2 Mg O2 81.246(13) . 8_455 ?
O3 Mg O2 51.730(13) 5_565 8_455 ?
O3 Mg O2 128.270(13) . 8_455 ?
O1 Mg O2 138.432(16) 8_455 4 ?
O1 Mg O2 41.568(16) 4 4 ?
O2 Mg O2 81.246(13) 5_565 4 ?
O2 Mg O2 98.754(13) . 4 ?
O3 Mg O2 128.269(13) 5_565 4 ?
O3 Mg O2 51.731(13) . 4 ?
O2 Mg O2 180.0 8_455 4 ?
O1 Mg O2 110.36(2) 8_455 6_565 ?
O1 Mg O2 69.64(2) 4 6_565 ?
O2 Mg O2 41.919(18) 5_565 6_565 ?
O2 Mg O2 138.082(18) . 6_565 ?
O3 Mg O2 59.558(19) 5_565 6_565 ?
O3 Mg O2 120.442(19) . 6_565 ?
O2 Mg O2 94.664(16) 8_455 6_565 ?
O2 Mg O2 85.336(15) 4 6_565 ?
O1 Mg O2 69.64(2) 8_455 2 ?
O1 Mg O2 110.36(2) 4 2 ?
O2 Mg O2 138.081(18) 5_565 2 ?
O2 Mg O2 41.918(18) . 2 ?
O3 Mg O2 120.442(19) 5_565 2 ?
O3 Mg O2 59.558(19) . 2 ?
O2 Mg O2 85.336(16) 8_455 2 ?
O2 Mg O2 94.664(15) 4 2 ?
O2 Mg O2 180.0 6_565 2 ?
O1 Mg O1 117.79(2) 8_455 6_565 ?
O1 Mg O1 62.21(2) 4 6_565 ?
O2 Mg O1 32.257(16) 5_565 6_565 ?
O2 Mg O1 147.744(16) . 6_565 ?
O3 Mg O1 96.513(18) 5_565 6_565 ?
O3 Mg O1 83.487(18) . 6_565 ?
O2 Mg O1 125.667(13) 8_455 6_565 ?
O2 Mg O1 54.333(13) 4 6_565 ?
O2 Mg O1 37.315(10) 6_565 6_565 ?
O2 Mg O1 142.685(10) 2 6_565 ?
O1 Mg O1 62.21(2) 8_455 2 ?
O1 Mg O1 117.79(2) 4 2 ?
O2 Mg O1 147.743(16) 5_565 2 ?
O2 Mg O1 32.256(16) . 2 ?
O3 Mg O1 83.487(18) 5_565 2 ?
O3 Mg O1 96.513(18) . 2 ?
O2 Mg O1 54.333(13) 8_455 2 ?
O2 Mg O1 125.667(13) 4 2 ?
O2 Mg O1 142.685(10) 6_565 2 ?
O2 Mg O1 37.315(10) 2 2 ?
O1 Mg O1 180.0 6_565 2 ?
O1 S O1 109.96(4) . 2 ?
O1 S O2 108.60(3) . . ?
O1 S O2 110.35(3) 2 . ?
O1 S O2 110.35(3) . 2 ?
O1 S O2 108.60(3) 2 2 ?
O2 S O2 108.95(4) . 2 ?
S O1 Mg 140.26(3) . 4_545 ?
S O1 O2 35.968(17) . . ?
Mg O1 O2 104.29(2) 4_545 . ?
S O1 O1 35.02(2) . 2 ?
Mg O1 O1 144.98(4) 4_545 2 ?
O2 O1 O1 60.66(2) . 2 ?
S O1 O2 35.083(17) . 2 ?
Mg O1 O2 143.93(3) 4_545 2 ?
O2 O1 O2 60.21(3) . 2 ?
O1 O1 O2 59.58(2) 2 2 ?
S O1 O2 131.90(3) . 4_545 ?
Mg O1 O2 47.280(15) 4_545 4_545 ?
O2 O1 O2 112.81(2) . 4_545 ?
O1 O1 O2 106.26(2) 2 4_545 ?
O2 O1 O2 165.74(3) 2 4_545 ?
S O1 O3 166.64(3) . 7_556 ?
Mg O1 O3 47.837(12) 4_545 7_556 ?
O2 O1 O3 149.14(2) . 7_556 ?
O1 O1 O3 149.12(2) 2 7_556 ?
O2 O1 O3 131.56(3) 2 7_556 ?
O2 O1 O3 61.249(17) 4_545 7_556 ?
S O1 O2 115.09(3) . 8_556 ?
Mg O1 O2 43.216(15) 4_545 8_556 ?
O2 O1 O2 88.54(2) . 8_556 ?
O1 O1 O2 148.607(18) 2 8_556 ?
O2 O1 O2 101.36(2) 2 8_556 ?
O2 O1 O2 90.50(2) 4_545 8_556 ?
O3 O1 O2 62.27(2) 7_556 8_556 ?
S O1 O3 95.04(3) . 3_545 ?
Mg O1 O3 46.173(14) 4_545 3_545 ?
O2 O1 O3 59.780(19) . 3_545 ?
O1 O1 O3 105.47(3) 2 3_545 ?
O2 O1 O3 116.24(2) 2 3_545 ?
O2 O1 O3 63.59(2) 4_545 3_545 ?
O3 O1 O3 94.010(19) 7_556 3_545 ?
O2 O1 O3 58.136(17) 8_556 3_545 ?
S O1 O2 123.32(3) . 6_556 ?
Mg O1 O2 96.263(19) 4_545 6_556 ?
O2 O1 O2 158.87(3) . 6_556 ?
O1 O1 O2 99.37(2) 2 6_556 ?
O2 O1 O2 104.99(2) 2 6_556 ?
O2 O1 O2 77.82(2) 4_545 6_556 ?
O3 O1 O2 51.832(15) 7_556 6_556 ?
O2 O1 O2 110.19(2) 8_556 6_556 ?
O3 O1 O2 138.44(2) 3_545 6_556 ?
S O1 O3 104.10(3) . 1_545 ?
Mg O1 O3 97.615(19) 4_545 1_545 ?
O2 O1 O3 119.29(2) . 1_545 ?
O1 O1 O3 69.078(10) 2 1_545 ?
O2 O1 O3 118.44(2) 2 1_545 ?
O2 O1 O3 52.132(16) 4_545 1_545 ?
O3 O1 O3 82.353(17) 7_556 1_545 ?
O2 O1 O3 138.807(18) 8_556 1_545 ?
O3 O1 O3 107.93(2) 3_545 1_545 ?
O2 O1 O3 51.750(13) 6_556 1_545 ?
S O1 O2 111.08(3) . 7_556 ?
Mg O1 O2 76.290(19) 4_545 7_556 ?
O2 O1 O2 109.23(2) . 7_556 ?
O1 O1 O2 137.22(3) 2 7_556 ?
O2 O1 O2 79.032(19) 2 7_556 ?
O2 O1 O2 115.20(2) 4_545 7_556 ?
O3 O1 O2 57.239(18) 7_556 7_556 ?
O2 O1 O2 43.996(18) 8_556 7_556 ?
O3 O1 O2 101.989(19) 3_545 7_556 ?
O2 O1 O2 80.142(15) 6_556 7_556 ?
O3 O1 O2 130.929(17) 1_545 7_556 ?
S O2 Mg 134.16(3) . . ?
S O2 O1 35.430(17) . . ?
Mg O2 O1 162.29(3) . . ?
S O2 O2 35.52(2) . 2 ?
Mg O2 O2 103.673(18) . 2 ?
O1 O2 O2 60.43(2) . 2 ?
S O2 O1 34.563(17) . 2 ?
Mg O2 O1 120.97(3) . 2 ?
O1 O2 O1 59.76(3) . 2 ?
O2 O2 O1 59.359(19) 2 2 ?
S O2 O3 105.96(3) . 3_545 ?
Mg O2 O3 119.21(2) . 3_545 ?
O1 O2 O3 71.32(2) . 3_545 ?
O2 O2 O3 127.04(3) 2 3_545 ?
O1 O2 O3 113.36(3) 2 3_545 ?
S O2 O1 157.18(3) . 4 ?
Mg O2 O1 46.749(16) . 4 ?
O1 O2 O1 134.36(2) . 4 ?
O2 O2 O1 125.936(18) 2 4 ?
O1 O2 O1 165.74(3) 2 4 ?
O3 O2 O1 74.97(2) 3_545 4 ?
S O2 O3 139.14(3) . 5_565 ?
Mg O2 O3 48.244(16) . 5_565 ?
O1 O2 O3 149.03(3) . 5_565 ?
O2 O2 O3 138.35(3) 2 5_565 ?
O1 O2 O3 104.84(2) 2 5_565 ?
O3 O2 O3 94.482(19) 3_545 5_565 ?
O1 O2 O3 62.014(18) 4 5_565 ?
S O2 O1 95.59(3) . 8_455 ?
Mg O2 O1 42.755(13) . 8_455 ?
O1 O2 O1 131.01(3) . 8_455 ?
O2 O2 O1 77.14(2) 2 8_455 ?
O1 O2 O1 78.65(2) 2 8_455 ?
O3 O2 O1 155.76(2) 3_545 8_455 ?
O1 O2 O1 89.50(2) 4 8_455 ?
O3 O2 O1 61.515(17) 5_565 8_455 ?
S O2 O3 102.23(2) . . ?
Mg O2 O3 45.274(13) . . ?
O1 O2 O3 117.25(2) . . ?
O2 O2 O3 66.707(10) 2 . ?
O1 O2 O3 116.39(2) 2 . ?
O3 O2 O3 125.35(2) 3_545 . ?
O1 O2 O3 61.975(17) 4 . ?
O3 O2 O3 93.519(16) 5_565 . ?
O1 O2 O3 58.116(14) 8_455 . ?
S O2 O1 96.92(3) . 6 ?
Mg O2 O1 113.24(2) . 6 ?
O1 O2 O1 84.359(17) . 6 ?
O2 O2 O1 131.723(15) 2 6 ?
O1 O2 O1 75.01(2) 2 6 ?
O3 O2 O1 57.024(17) 3_545 6 ?
O1 O2 O1 102.18(2) 4 6 ?
O3 O2 O1 65.08(2) 5_565 6 ?
O1 O2 O1 110.19(2) 8_455 6 ?
O3 O2 O1 158.295(19) . 6 ?
S O2 O1 79.84(2) . 7_556 ?
Mg O2 O1 94.74(2) . 7_556 ?
O1 O2 O1 70.77(2) . 7_556 ?
O2 O2 O1 58.86(2) 2 7_556 ?
O1 O2 O1 113.68(2) 2 7_556 ?
O3 O2 O1 86.591(19) 3_545 7_556 ?
O1 O2 O1 77.444(16) 4 7_556 ?
O3 O2 O1 137.44(2) 5_565 7_556 ?
O1 O2 O1 108.43(2) 8_455 7_556 ?
O3 O2 O1 53.774(12) . 7_556 ?
O1 O2 O1 141.384(18) 6 7_556 ?
Mg O3 Mg 123.28(3) . 2 ?
Mg O3 O2 110.755(15) . 3_455 ?
Mg O3 O2 89.866(13) 2 3_455 ?
Mg O3 O2 89.866(13) . 4 ?
Mg O3 O2 110.755(15) 2 4 ?
O2 O3 O2 136.50(3) 3_455 4 ?
Mg O3 O2 162.69(2) . 6_566 ?
Mg O3 O2 44.554(12) 2 6_566 ?
O2 O3 O2 83.641(17) 3_455 6_566 ?
O2 O3 O2 85.517(19) 4 6_566 ?
Mg O3 O2 44.554(12) . 5_565 ?
Mg O3 O2 162.69(2) 2 5_565 ?
O2 O3 O2 85.517(19) 3_455 5_565 ?
O2 O3 O2 83.641(17) 4 5_565 ?
O2 O3 O2 150.47(3) 6_566 5_565 ?
Mg O3 O1 43.718(13) . 8_455 ?
Mg O3 O1 106.01(2) 2 8_455 ?
O2 O3 O1 71.144(18) 3_455 8_455 ?
O2 O3 O1 132.219(16) 4 8_455 ?
O2 O3 O1 142.035(17) 6_566 8_455 ?
O2 O3 O1 56.736(16) 5_565 8_455 ?
Mg O3 O1 106.01(2) . 7_556 ?
Mg O3 O1 43.718(13) 2 7_556 ?
O2 O3 O1 132.219(16) 3_455 7_556 ?
O2 O3 O1 71.144(18) 4 7_556 ?
O2 O3 O1 56.736(16) 6_566 7_556 ?
O2 O3 O1 142.035(17) 5_565 7_556 ?
O1 O3 O1 123.86(3) 8_455 7_556 ?
Mg O3 O1 121.59(2) . 3_455 ?
Mg O3 O1 42.271(11) 2 3_455 ?
O2 O3 O1 48.900(14) 3_455 3_455 ?
O2 O3 O1 145.696(16) 4 3_455 ?
O2 O3 O1 60.349(16) 6_566 3_455 ?
O2 O3 O1 127.643(15) 5_565 3_455 ?
O1 O3 O1 81.706(17) 8_455 3_455 ?
O1 O3 O1 85.990(19) 7_556 3_455 ?
Mg O3 O1 42.271(11) . 4 ?
Mg O3 O1 121.59(2) 2 4 ?
O2 O3 O1 145.696(16) 3_455 4 ?
O2 O3 O1 48.900(14) 4 4 ?
O2 O3 O1 127.643(15) 6_566 4 ?
O2 O3 O1 60.349(16) 5_565 4 ?
O1 O3 O1 85.990(19) 8_455 4 ?
O1 O3 O1 81.706(17) 7_556 4 ?
O1 O3 O1 153.69(3) 3_455 4 ?
Mg O3 O2 41.927(14) . . ?
Mg O3 O2 82.62(2) 2 . ?
O2 O3 O2 125.35(2) 3_455 . ?
O2 O3 O2 95.864(14) 4 . ?
O2 O3 O2 121.98(2) 6_566 . ?
O2 O3 O2 86.481(16) 5_565 . ?
O1 O3 O2 59.613(18) 8_455 . ?
O1 O3 O2 68.99(2) 7_556 . ?
O1 O3 O2 99.41(2) 3_455 . ?
O1 O3 O2 54.439(15) 4 . ?
Mg O3 O2 82.62(2) . 2 ?
Mg O3 O2 41.927(14) 2 2 ?
O2 O3 O2 95.864(14) 3_455 2 ?
O2 O3 O2 125.35(2) 4 2 ?
O2 O3 O2 86.481(16) 6_566 2 ?
O2 O3 O2 121.98(2) 5_565 2 ?
O1 O3 O2 68.99(2) 8_455 2 ?
O1 O3 O2 59.613(18) 7_556 2 ?
O1 O3 O2 54.439(15) 3_455 2 ?
O1 O3 O2 99.41(2) 4 2 ?
O2 O3 O2 46.59(2) . 2 ?
Mg O3 H 107.0(10) . . ?
Mg O3 H 107.9(10) 2 . ?
O2 O3 H 118.1(10) 3_455 . ?
O2 O3 H 20.2(10) 4 . ?
O2 O3 H 72.3(10) 6_566 . ?
O2 O3 H 88.9(10) 5_565 . ?
O1 O3 H 144.7(10) 8_455 . ?
O1 O3 H 77.2(10) 7_556 . ?
O1 O3 H 131.3(10) 3_455 . ?
O1 O3 H 68.1(10) 4 . ?
O2 O3 H 115.7(10) . . ?
O2 O3 H 136.5(10) 2 . ?
Mg O3 H 107.9(10) . 2 ?
Mg O3 H 107.0(10) 2 2 ?
O2 O3 H 20.2(10) 3_455 2 ?
O2 O3 H 118.1(10) 4 2 ?
O2 O3 H 88.9(10) 6_566 2 ?
O2 O3 H 72.3(10) 5_565 2 ?
O1 O3 H 77.2(10) 8_455 2 ?
O1 O3 H 144.7(10) 7_556 2 ?
O1 O3 H 68.1(10) 3_455 2 ?
O1 O3 H 131.3(10) 4 2 ?
O2 O3 H 136.5(10) . 2 ?
O2 O3 H 115.7(10) 2 2 ?
H O3 H 102(2) . 2 ?
loop_
_geom_bond_atom_site_label_1
_geom_bond_atom_site_label_2
_geom_bond_distance
_geom_bond_site_symmetry_2
_geom_bond_publ_flag
Mg O1 2.0230(6) 8_455 ?
Mg O1 2.0230(6) 4 ?
Mg O2 2.0405(5) 5_565 ?
Mg O2 2.0405(5) . ?
Mg O3 2.1697(4) 5_565 ?
Mg O3 2.1697(4) . ?
Mg O2 3.4928(6) 8_455 ?
Mg O2 3.4928(6) 4 ?
Mg O2 3.5086(6) 6_565 ?
Mg O2 3.5086(6) 2 ?
Mg O1 3.8838(7) 6_565 ?
Mg O1 3.8838(7) 2 ?
S O1 1.4628(5) . ?
S O1 1.4628(5) 2 ?
S O2 1.4820(5) . ?
S O2 1.4820(5) 2 ?
O1 O2 2.3914(7) . ?
O1 O1 2.3959(10) 2 ?
O1 O2 2.4174(7) 2 ?
O1 O2 2.7706(7) 4_545 ?
O1 O3 2.9260(7) 7_556 ?
O1 O2 2.9725(8) 8_556 ?
O1 O3 3.0063(6) 3_545 ?
O1 O2 3.3007(7) 6_556 ?
O1 O3 3.3548(9) 1_545 ?
O1 O2 3.3859(8) 7_556 ?
O2 O2 2.4123(10) 2 ?
O2 O3 2.7422(6) 3_545 ?
O2 O3 2.9050(6) 5_565 ?
O2 O3 3.0502(8) . ?
O3 H 0.816(14) . ?
O3 H 0.816(14) 2 ?
loop_
_geom_hbond_atom_site_label_D
_geom_hbond_atom_site_label_H
_geom_hbond_atom_site_label_A
_geom_hbond_distance_DH
_geom_hbond_distance_HA
_geom_hbond_distance_DA
_geom_hbond_angle_DHA
_geom_hbond_site_symmetry_A
_geom_hbond_publ_flag
O3 H O2 0.816(14) 1.996(14) 2.7422(6) 151.7(14) 4 yes
