#------------------------------------------------------------------------------
#$Date: 2022-02-04 21:07:58 +0200 (Fri, 04 Feb 2022) $
#$Revision: 272564 $
#$URL: file:///home/coder/svn-repositories/cod/cif/1/56/53/1565368.cif $
#------------------------------------------------------------------------------
#
# This file is available in the Crystallography Open Database (COD),
# http://www.crystallography.net/
#
# All data on this site have been placed in the public domain by the
# contributors.
#
data_1565368
loop_
_publ_author_name
'Borys, Andryj M.'
'Clark, Ewan R.'
'Saines, Paul J.'
'Alberola, Antonio'
'Rawson, Jeremy M.'
_publ_section_title
;
 A short, versatile route towards benzothiadiazinyl radicals.
;
_journal_issue                   1
_journal_name_full               'Chemical science'
_journal_page_first              149
_journal_page_last               158
_journal_paper_doi               10.1039/d1sc04248c
_journal_volume                  13
_journal_year                    2021
_chemical_formula_moiety         'C15 H9.96 Cl4.04 N2 S'
_chemical_formula_sum            'C15 H9.97 Cl4.03 N2 S'
_chemical_formula_weight         393.31
_chemical_properties_physical    Moisture-sensitive
_space_group_crystal_system      triclinic
_space_group_IT_number           2
_space_group_name_Hall           '-P 1'
_space_group_name_H-M_alt        'P -1'
_atom_sites_solution_hydrogens   mixed
_atom_sites_solution_primary     dual
_audit_creation_date             2018-06-12
_audit_creation_method
;
Olex2 1.2
(compiled 2018.05.18 svn.r3508 for OlexSys, GUI svn.r5497)
;
_audit_update_record
;
2021-08-03 deposited with the CCDC.	2021-11-23 downloaded from the CCDC.
;
_cell_angle_alpha                80.349(3)
_cell_angle_beta                 86.679(3)
_cell_angle_gamma                72.338(3)
_cell_formula_units_Z            2
_cell_length_a                   7.3043(3)
_cell_length_b                   9.0923(3)
_cell_length_c                   12.6109(5)
_cell_measurement_reflns_used    10009
_cell_measurement_temperature    100.0(5)
_cell_measurement_theta_max      75.6800
_cell_measurement_theta_min      5.1490
_cell_volume                     786.73(5)
_computing_cell_refinement       'CrysAlisPro 1.171.38.41 (Rigaku OD, 2015)'
_computing_data_collection       'CrysAlisPro 1.171.38.41 (Rigaku OD, 2015)'
_computing_data_reduction        'CrysAlisPro 1.171.38.41 (Rigaku OD, 2015)'
_computing_molecular_graphics    'Olex2 (Dolomanov et al., 2009)'
_computing_publication_material  'Olex2 (Dolomanov et al., 2009)'
_computing_structure_refinement  'ShelXL (Sheldrick, 2015)'
_computing_structure_solution    'ShelXT (Sheldrick, 2015)'
_diffrn_ambient_environment      N~2~
_diffrn_ambient_temperature      100.0(5)
_diffrn_detector                 'CCD plate'
_diffrn_detector_area_resol_mean 5.2887
_diffrn_detector_type            AtlasS2
_diffrn_measured_fraction_theta_full 1.000
_diffrn_measured_fraction_theta_max 1.000
_diffrn_measurement_details
;
List of Runs (angles in degrees, time in seconds):

  # Type    Start    End  Width  t~exp~   \w     \q     \k     \f   Frames
#--------------------------------------------------------------------------
  1  \w   -115.00 -20.00   1.00    1.00    --  -42.45 -38.00  60.00   95
  2  \w    -79.00  36.00   1.00    1.00    --  -42.45  19.00-120.00  115
  3  \w      1.00  82.00   1.00    1.00    --   42.45 -99.00 -60.00   81
  4  \w     23.00  97.00   1.00    1.00    --   42.45-125.00  30.00   74
  5  \w     23.00  97.00   1.00    1.00    --   42.45-125.00 -90.00   74
  6  \w     30.00 109.00   1.00    2.50    --  111.00 -94.00-150.00   79
  7  \w    100.00 178.00   1.00    2.50    --  111.00 111.00-150.00   78
  8  \w    100.00 178.00   1.00    2.50    --  111.00 111.00 -60.00   78
  9  \w     36.00 116.00   1.00    2.50    --  111.00-111.00 -30.00   80
 10  \w     36.00 116.00   1.00    2.50    --  111.00-111.00-180.00   80
 11  \w     37.00 142.00   1.00    2.50    --  111.00 -77.00   0.00  105
 12  \w     30.00 109.00   1.00    2.50    --  111.00 -94.00  60.00   79
 13  \w     40.00 135.00   1.00    2.50    --  111.00 -45.00  30.00   95
 14  \w     41.00 139.00   1.00    2.50    --  111.00 -61.00 -60.00   98
 15  \w     36.00 135.00   1.00    2.50    --  111.00 -30.00-180.00   99
 16  \w     83.00 178.00   1.00    2.50    --  111.00  61.00   0.00   95
 17  \w     37.00 142.00   1.00    2.50    --  111.00 -77.00-120.00  105
 18  \w     36.00 116.00   1.00    2.50    --  111.00-111.00   0.00   80
 19  \w     66.00 178.00   1.00    2.50    --  111.00  15.00  90.00  112
 20  \w     66.00 178.00   1.00    2.50    --  111.00  15.00-180.00  112
 21  \w     36.00 116.00   1.00    2.50    --  111.00-111.00  90.00   80
 22  \w     37.00 142.00   1.00    2.50    --  111.00 -77.00 120.00  105
 23  \w   -116.00 -11.00   1.00    1.00    --  -42.45 -77.00  90.00  105
 24  \w    -65.00  30.00   1.00    1.00    --  -42.45  38.00 120.00   95
 25  \w   -113.00 -16.00   1.00    1.00    --  -42.45 -57.00-120.00   97
 26  \w   -116.00 -11.00   1.00    1.00    --  -42.45 -77.00   0.00  105
 27  \w   -113.00 -16.00   1.00    1.00    --  -42.45 -57.00 150.00   97
 28  \w     87.00 178.00   1.00    2.50    --  111.00  45.00-150.00   91
 29  \w     83.00 178.00   1.00    2.50    --  111.00  61.00 120.00   95
 30  \w     66.00 178.00   1.00    2.50    --  111.00  15.00 -60.00  112
 31  \w     80.00 178.00   1.00    2.50    --  111.00  77.00 -90.00   98
 32  \w     80.00 178.00   1.00    2.50    --  111.00  77.00  60.00   98
 33  \w     80.00 178.00   1.00    2.50    --  111.00  77.00 150.00   98
 34  \w     83.00 178.00   1.00    2.50    --  111.00  61.00-120.00   95
 35  \w     80.00 178.00   1.00    2.50    --  111.00  77.00 -60.00   98
;
_diffrn_measurement_device       'four-circle diffractometer'
_diffrn_measurement_device_type  'SuperNova, Dual, Cu at zero, AtlasS2'
_diffrn_measurement_method       '\w scans'
_diffrn_orient_matrix_type
'CrysAlisPro convention (1999,Acta A55,543-557)'
_diffrn_orient_matrix_UB_11      0.0564637000
_diffrn_orient_matrix_UB_12      -0.0381698000
_diffrn_orient_matrix_UB_13      0.1195522000
_diffrn_orient_matrix_UB_21      0.0522881000
_diffrn_orient_matrix_UB_22      -0.1759623000
_diffrn_orient_matrix_UB_23      -0.0054536000
_diffrn_orient_matrix_UB_31      0.2075418000
_diffrn_orient_matrix_UB_32      -0.0025932000
_diffrn_orient_matrix_UB_33      -0.0321446000
_diffrn_radiation_monochromator  mirror
_diffrn_radiation_probe          x-ray
_diffrn_radiation_type           CuK\a
_diffrn_radiation_wavelength     1.54184
_diffrn_reflns_av_R_equivalents  0.0370
_diffrn_reflns_av_unetI/netI     0.0213
_diffrn_reflns_Laue_measured_fraction_full 1.000
_diffrn_reflns_Laue_measured_fraction_max 1.000
_diffrn_reflns_limit_h_max       8
_diffrn_reflns_limit_h_min       -8
_diffrn_reflns_limit_k_max       10
_diffrn_reflns_limit_k_min       -10
_diffrn_reflns_limit_l_max       15
_diffrn_reflns_limit_l_min       -15
_diffrn_reflns_number            15042
_diffrn_reflns_point_group_measured_fraction_full 1.000
_diffrn_reflns_point_group_measured_fraction_max 1.000
_diffrn_reflns_theta_full        67.684
_diffrn_reflns_theta_max         68.583
_diffrn_reflns_theta_min         3.555
_diffrn_source                   'micro-focus sealed X-ray tube'
_diffrn_source_type              'SuperNova (Cu) X-ray Source'
_exptl_absorpt_coefficient_mu    8.097
_exptl_absorpt_correction_T_max  0.689
_exptl_absorpt_correction_T_min  0.272
_exptl_absorpt_correction_type   gaussian
_exptl_absorpt_process_details
;
CrysAlisPro 1.171.38.41 (Rigaku Oxford Diffraction, 2015)
Numerical absorption correction based on gaussian integration over
			a multifaceted crystal model
Empirical absorption correction using spherical harmonics,
 implemented in SCALE3 ABSPACK scaling algorithm.
;
_exptl_crystal_colour            'light orange'
_exptl_crystal_colour_modifier   light
_exptl_crystal_colour_primary    orange
_exptl_crystal_density_diffrn    1.660
_exptl_crystal_description       block
_exptl_crystal_F_000             397
_exptl_crystal_size_max          0.267
_exptl_crystal_size_mid          0.168
_exptl_crystal_size_min          0.053
_refine_diff_density_max         1.290
_refine_diff_density_min         -0.491
_refine_diff_density_rms         0.073
_refine_ls_extinction_method     none
_refine_ls_goodness_of_fit_ref   1.028
_refine_ls_hydrogen_treatment    mixed
_refine_ls_matrix_type           full
_refine_ls_number_parameters     212
_refine_ls_number_reflns         2891
_refine_ls_number_restraints     0
_refine_ls_restrained_S_all      1.028
_refine_ls_R_factor_all          0.0368
_refine_ls_R_factor_gt           0.0360
_refine_ls_shift/su_max          0.001
_refine_ls_shift/su_mean         0.000
_refine_ls_structure_factor_coef Fsqd
_refine_ls_weighting_details
'w=1/[\s^2^(Fo^2^)+(0.0510P)^2^+0.9320P] where P=(Fo^2^+2Fc^2^)/3'
_refine_ls_weighting_scheme      calc
_refine_ls_wR_factor_gt          0.0943
_refine_ls_wR_factor_ref         0.0950
_reflns_Friedel_coverage         0.000
_reflns_number_gt                2792
_reflns_number_total             2891
_reflns_threshold_expression     'I > 2\s(I)'
_iucr_refine_instructions_details
;
TITL serc233-r1-rf_a.res in P-1
    serc233-r1-rf.res
    created by SHELXL-2016/6 at 19:29:21 on 12-Jun-2018
REM Old TITL sERC233-R1-rf in P-1
REM SHELXT solution in P-1
REM R1 0.122, Rweak 0.006, Alpha 0.027, Orientation as input
REM Formula found by SHELXT: C15 N2 S Cl4
CELL 1.54184 7.3043 9.0923 12.6109 80.349 86.679 72.338
ZERR 2 0.0003 0.0003 0.0005 0.003 0.003 0.003
LATT 1
SFAC C H Cl N S
UNIT 30 19.93 8.07 4 2

L.S. 24
PLAN  20
BOND $H
list 4
fmap 2
acta
SHEL 1000 0.828
REM <olex2.extras>
REM <HklSrc "%.\\sERC233-R1-rf.hkl">
REM </olex2.extras>

WGHT    0.051000    0.932000
FVAR       0.50540   0.03537
CL1   3    0.576927    0.170267    0.303954    11.00000    0.02619    0.01571 =
         0.04101   -0.00746   -0.00246   -0.00417
S1    5    0.258797    0.323021    0.323681    11.00000    0.02256    0.01456 =
         0.03006   -0.00583   -0.00278   -0.00731
CL4   3    0.359325    0.737012   -0.013058    11.00000    0.04428    0.02786 =
         0.02232   -0.00511   -0.00088   -0.01036
CL3   3    0.143401    1.080705    0.085519    11.00000    0.05226    0.02291 =
         0.03185    0.00436   -0.00689   -0.00177
CL2   3    0.076795    1.017804    0.367099    11.00000    0.04107    0.02131 =
         0.03847   -0.01163    0.00796   -0.01264
N2    4    0.274937    0.565941    0.456456    11.00000    0.02051    0.01482 =
         0.02639   -0.00174   -0.00508   -0.00593
N1    4    0.214921    0.322406    0.446334    11.00000    0.02352    0.01602 =
         0.03301   -0.00337   -0.00303   -0.00817
C2    1    0.290542    0.603663    0.347129    11.00000    0.01779    0.01610 =
         0.02512   -0.00312   -0.00477   -0.00388
C1    1    0.240677    0.435218    0.499647    11.00000    0.01534    0.01515 =
         0.02955   -0.00297   -0.00480   -0.00325
C6    1    0.308137    0.544018    0.163246    11.00000    0.02270    0.01921 =
         0.02782   -0.00863   -0.00374   -0.00497
PART 1
H6    2    0.306709    0.471163    0.117533   -21.00000   -1.20000
PART 0
C3    1    0.311044    0.753743    0.304302    11.00000    0.02476    0.01554 =
         0.02507   -0.00169   -0.00624   -0.00623
C4    1    0.332916    0.794831    0.194364    11.00000    0.02464    0.01733 =
         0.02553   -0.00192   -0.00510   -0.00589
C10   1    0.217175    0.404490    0.617765    11.00000    0.01667    0.01808 =
         0.02973   -0.00053   -0.00460   -0.00457
C7    1    0.288752    0.503449    0.273800    11.00000    0.01852    0.01408 =
         0.03024   -0.00321   -0.00385   -0.00408
C11   1    0.219188    0.518828    0.679508    11.00000    0.02101    0.01897 =
         0.02880    0.00085   -0.00479   -0.00807
AFIX  43
H11   2    0.234835    0.613438    0.645839    11.00000   -1.20000
AFIX   0
C15   1    0.191995    0.263171    0.669614    11.00000    0.01912    0.01800 =
         0.03412    0.00019   -0.00384   -0.00661
AFIX  43
H15   2    0.189221    0.186841    0.629533    11.00000   -1.20000
AFIX   0
C14   1    0.171157    0.236635    0.780661    11.00000    0.02409    0.02150 =
         0.03618    0.00476   -0.00383   -0.00824
AFIX  43
H14   2    0.155013    0.142374    0.814712    11.00000   -1.20000
AFIX   0
C12   1    0.198101    0.491785    0.789864    11.00000    0.02301    0.02801 =
         0.02953   -0.00390   -0.00487   -0.00921
AFIX  43
H12   2    0.199750    0.568148    0.830183    11.00000   -1.20000
AFIX   0
C5    1    0.331555    0.687172    0.124902    11.00000    0.02520    0.02299 =
         0.02277   -0.00397   -0.00309   -0.00513
C8    1    0.303495    0.865226    0.381732    11.00000    0.03766    0.01875 =
         0.02529   -0.00187   -0.00636   -0.01242
AFIX  23
H8A   2    0.408468    0.910423    0.366728    11.00000   -1.20000
H8B   2    0.316580    0.809603    0.454908    11.00000   -1.20000
AFIX   0
C13   1    0.174306    0.350275    0.841213    11.00000    0.02386    0.03142 =
         0.02614    0.00463   -0.00414   -0.00850
AFIX  43
H13   2    0.160617    0.332098    0.915617    11.00000   -1.20000
AFIX   0
C9    1    0.362398    0.949816    0.146366    11.00000    0.04138    0.02275 =
         0.02558    0.00116   -0.00480   -0.01388
AFIX  23
H9A   2    0.463918    0.933773    0.092556    11.00000   -1.20000
H9B   2    0.401059    0.995610    0.202166    11.00000   -1.20000
AFIX   0
PART -1
CL5   3    0.249784    0.432040    0.083580    21.00000    0.01980    0.03731 =
         0.02920   -0.02327    0.00608   -0.00776
HKLF 4




REM  serc233-r1-rf_a.res in P-1
REM R1 =  0.0360 for    2792 Fo > 4sig(Fo)  and  0.0368 for all    2891 data
REM    212 parameters refined using      0 restraints

END  
     
WGHT      0.0515      0.9333 

REM Highest difference peak  1.290,  deepest hole -0.491,  1-sigma level  0.073
Q1    1   0.4733  0.9998  0.0835  11.00000  0.05    1.29
Q2    1   0.0187  1.0732  0.1014  11.00000  0.05    0.90
Q3    1   0.1586  0.9637  0.4131  11.00000  0.05    0.45
Q4    1   0.2462  0.7364  0.0105  11.00000  0.05    0.43
Q5    1   0.2469  0.3114  0.3923  11.00000  0.05    0.34
Q6    1   0.3902  0.9210  0.4366  11.00000  0.05    0.32
Q7    1   0.3357  0.7147  0.0618  11.00000  0.05    0.28
Q8    1   0.2093  0.3429  0.6405  11.00000  0.05    0.28
Q9    1   0.2738  0.4235  0.3012  11.00000  0.05    0.27
Q10   1   0.2292  0.4223  0.5653  11.00000  0.05    0.25
Q11   1   0.0642  1.0196  0.2852  11.00000  0.05    0.25
Q12   1   0.5757  0.1681  0.3765  11.00000  0.05    0.25
Q13   1   0.3198  0.8069  0.3381  11.00000  0.05    0.24
Q14   1   0.2766  0.6315  0.1403  11.00000  0.05    0.24
Q15   1   0.2967  0.7834  0.2502  11.00000  0.05    0.24
Q16   1   0.3364  0.6872  0.3242  11.00000  0.05    0.23
Q17   1   0.3434  0.8661  0.1779  11.00000  0.05    0.23
Q18   1   0.2459  0.3174  0.2400  11.00000  0.05    0.22
Q19   1   0.3277  0.7433  0.1645  11.00000  0.05    0.21
Q20   1   0.4078  1.0356  0.1702  11.00000  0.05    0.20

  REM The information below was added by Olex2.
  REM
  REM R1 = 0.0360 for 2792 Fo > 4sig(Fo) and 0.0368 for all 16001 data
  REM n/a parameters refined using n/a restraints
  REM Highest difference peak 1.29, deepest hole -0.49
  REM Mean Shift 0, Max Shift 0.001.

  REM +++ Tabular Listing of Refinement Information +++
  REM R1_all = 0.0368
  REM R1_gt = 0.0360
  REM wR_ref = 0.0950
  REM GOOF = 1.028
  REM Shift_max = 0.001
  REM Shift_mean = 0
  REM Reflections_all = 16001
  REM Reflections_gt = 2792
  REM Parameters = n/a
  REM Hole = -0.49
  REM Peak = 1.29
  REM Flack = n/a

  
;
_cod_data_source_file            d1sc04248c2.cif
_cod_data_source_block           serc233-r1-rf
_cod_depositor_comments
'Adding full bibliography for 1565368--1565385.cif.'
_cod_database_code               1565368
_shelx_shelxl_version_number     2016/6
_chemical_oxdiff_formula         'S1 N2 Cl4 C15 H20'
_chemical_oxdiff_usercomment     ABS-416
_shelx_space_group_comment
;
The symmetry employed for this shelxl refinement is uniquely defined
by the following loop, which should always be used as a source of
symmetry information in preference to the above space-group names.
They are only intended as comments.
;
_reflns_odcompleteness_completeness 100.00
_reflns_odcompleteness_iscentric 1
_reflns_odcompleteness_theta     66.97
_olex2_refinement_description
;
1. Fixed Uiso
 At 1.2 times of:
  All C(H) groups, All C(H,H) groups
2. Others
 Sof(H6)=1-FVAR(1)
 Sof(Cl5)=FVAR(1)
3.a Secondary CH2 refined with riding coordinates:
 C8(H8A,H8B), C9(H9A,H9B)
3.b Aromatic/amide H refined with riding coordinates:
 C11(H11), C15(H15), C14(H14), C12(H12), C13(H13)
;
_olex2_submission_special_instructions 'No special instructions were received'
_oxdiff_exptl_absorpt_empirical_details
;
Empirical correction (ABSPACK) includes:
- Absorption correction using spherical harmonics
- Frame scaling
;
_oxdiff_exptl_absorpt_empirical_full_max 1.482
_oxdiff_exptl_absorpt_empirical_full_min 0.714
loop_
_space_group_symop_operation_xyz
'x, y, z'
'-x, -y, -z'
loop_
_atom_site_label
_atom_site_type_symbol
_atom_site_fract_x
_atom_site_fract_y
_atom_site_fract_z
_atom_site_U_iso_or_equiv
_atom_site_adp_type
_atom_site_occupancy
_atom_site_site_symmetry_order
_atom_site_calc_flag
_atom_site_refinement_flags_posn
_atom_site_refinement_flags_adp
_atom_site_refinement_flags_occupancy
_atom_site_disorder_assembly
_atom_site_disorder_group
Cl1 Cl 0.57693(8) 0.17027(6) 0.30395(5) 0.02765(15) Uani 1 1 d . . . . .
S1 S 0.25880(7) 0.32302(6) 0.32368(4) 0.02161(15) Uani 1 1 d . . . . .
Cl4 Cl 0.35933(9) 0.73701(7) -0.01306(4) 0.03141(16) Uani 1 1 d . . . . .
Cl3 Cl 0.14340(10) 1.08070(7) 0.08552(5) 0.03858(18) Uani 1 1 d . . . . .
Cl2 Cl 0.07679(9) 1.01780(6) 0.36710(5) 0.03238(16) Uani 1 1 d . . . . .
N2 N 0.2749(2) 0.5659(2) 0.45646(15) 0.0204(4) Uani 1 1 d . . . . .
N1 N 0.2149(3) 0.3224(2) 0.44633(16) 0.0236(4) Uani 1 1 d . . . . .
C2 C 0.2905(3) 0.6037(2) 0.34713(18) 0.0198(4) Uani 1 1 d . . . . .
C1 C 0.2407(3) 0.4352(2) 0.49965(18) 0.0202(4) Uani 1 1 d . . . . .
C6 C 0.3081(3) 0.5440(3) 0.16325(19) 0.0228(5) Uani 1 1 d . . . . .
H6 H 0.307(4) 0.471(4) 0.118(3) 0.027 Uiso 0.965(4) 1 d R . P A 1
C3 C 0.3110(3) 0.7537(2) 0.30430(18) 0.0217(4) Uani 1 1 d . . . . .
C4 C 0.3329(3) 0.7948(2) 0.19436(18) 0.0226(4) Uani 1 1 d . . . . .
C10 C 0.2172(3) 0.4045(2) 0.61776(18) 0.0218(4) Uani 1 1 d . . . . .
C7 C 0.2888(3) 0.5034(2) 0.27380(18) 0.0210(4) Uani 1 1 d . . . . .
C11 C 0.2192(3) 0.5188(3) 0.67951(18) 0.0228(5) Uani 1 1 d . . . . .
H11 H 0.234835 0.613438 0.645839 0.027 Uiso 1 1 calc R . . . .
C15 C 0.1920(3) 0.2632(3) 0.66961(19) 0.0239(5) Uani 1 1 d . . . . .
H15 H 0.189221 0.186841 0.629533 0.029 Uiso 1 1 calc R . . . .
C14 C 0.1712(3) 0.2366(3) 0.7807(2) 0.0279(5) Uani 1 1 d . . . . .
H14 H 0.155013 0.142374 0.814712 0.033 Uiso 1 1 calc R . . . .
C12 C 0.1981(3) 0.4918(3) 0.78986(19) 0.0264(5) Uani 1 1 d . . . . .
H12 H 0.199750 0.568148 0.830183 0.032 Uiso 1 1 calc R . . . .
C5 C 0.3316(3) 0.6872(3) 0.12490(18) 0.0240(5) Uani 1 1 d . . . . .
C8 C 0.3035(4) 0.8652(3) 0.38173(18) 0.0263(5) Uani 1 1 d . . . . .
H8A H 0.408468 0.910423 0.366728 0.032 Uiso 1 1 calc R . . . .
H8B H 0.316580 0.809603 0.454908 0.032 Uiso 1 1 calc R . . . .
C13 C 0.1743(3) 0.3503(3) 0.84121(19) 0.0280(5) Uani 1 1 d . . . . .
H13 H 0.160617 0.332098 0.915617 0.034 Uiso 1 1 calc R . . . .
C9 C 0.3624(4) 0.9498(3) 0.14637(19) 0.0293(5) Uani 1 1 d . . . . .
H9A H 0.463918 0.933773 0.092556 0.035 Uiso 1 1 calc R . . . .
H9B H 0.401059 0.995610 0.202166 0.035 Uiso 1 1 calc R . . . .
Cl5 Cl 0.250(2) 0.4320(19) 0.0836(13) 0.027(7) Uani 0.035(4) 1 d . . P A -1
loop_
_atom_site_aniso_label
_atom_site_aniso_U_11
_atom_site_aniso_U_22
_atom_site_aniso_U_33
_atom_site_aniso_U_23
_atom_site_aniso_U_13
_atom_site_aniso_U_12
Cl1 0.0262(3) 0.0157(3) 0.0410(3) -0.0075(2) -0.0025(2) -0.0042(2)
S1 0.0226(3) 0.0146(3) 0.0301(3) -0.0058(2) -0.0028(2) -0.0073(2)
Cl4 0.0443(3) 0.0279(3) 0.0223(3) -0.0051(2) -0.0009(2) -0.0104(2)
Cl3 0.0523(4) 0.0229(3) 0.0319(3) 0.0044(2) -0.0069(3) -0.0018(3)
Cl2 0.0411(3) 0.0213(3) 0.0385(3) -0.0116(2) 0.0080(2) -0.0126(2)
N2 0.0205(9) 0.0148(8) 0.0264(9) -0.0017(7) -0.0051(7) -0.0059(7)
N1 0.0235(9) 0.0160(9) 0.0330(11) -0.0034(7) -0.0030(8) -0.0082(7)
C2 0.0178(10) 0.0161(10) 0.0251(11) -0.0031(8) -0.0048(8) -0.0039(8)
C1 0.0153(10) 0.0151(10) 0.0296(11) -0.0030(8) -0.0048(8) -0.0033(8)
C6 0.0227(11) 0.0192(10) 0.0278(11) -0.0086(9) -0.0037(9) -0.0050(8)
C3 0.0248(11) 0.0155(10) 0.0251(11) -0.0017(8) -0.0062(8) -0.0062(8)
C4 0.0246(11) 0.0173(10) 0.0255(11) -0.0019(8) -0.0051(8) -0.0059(8)
C10 0.0167(10) 0.0181(10) 0.0297(12) -0.0005(9) -0.0046(8) -0.0046(8)
C7 0.0185(10) 0.0141(10) 0.0302(12) -0.0032(8) -0.0039(8) -0.0041(8)
C11 0.0210(10) 0.0190(10) 0.0288(11) 0.0008(9) -0.0048(9) -0.0081(8)
C15 0.0191(10) 0.0180(10) 0.0341(12) 0.0002(9) -0.0038(9) -0.0066(8)
C14 0.0241(11) 0.0215(11) 0.0362(13) 0.0048(9) -0.0038(9) -0.0082(9)
C12 0.0230(11) 0.0280(12) 0.0295(12) -0.0039(9) -0.0049(9) -0.0092(9)
C5 0.0252(11) 0.0230(11) 0.0228(11) -0.0040(9) -0.0031(8) -0.0051(9)
C8 0.0377(13) 0.0187(11) 0.0253(11) -0.0019(9) -0.0064(9) -0.0124(9)
C13 0.0239(11) 0.0314(12) 0.0261(11) 0.0046(9) -0.0041(9) -0.0085(9)
C9 0.0414(14) 0.0228(12) 0.0256(11) 0.0012(9) -0.0048(10) -0.0139(10)
Cl5 0.020(9) 0.037(10) 0.029(9) -0.023(7) 0.006(6) -0.008(6)
loop_
_atom_type_symbol
_atom_type_description
_atom_type_scat_dispersion_real
_atom_type_scat_dispersion_imag
_atom_type_scat_source
C C 0.0181 0.0091 'International Tables Vol C Tables 4.2.6.8 and 6.1.1.4'
H H 0.0000 0.0000 'International Tables Vol C Tables 4.2.6.8 and 6.1.1.4'
Cl Cl 0.3639 0.7018 'International Tables Vol C Tables 4.2.6.8 and 6.1.1.4'
N N 0.0311 0.0180 'International Tables Vol C Tables 4.2.6.8 and 6.1.1.4'
S S 0.3331 0.5567 'International Tables Vol C Tables 4.2.6.8 and 6.1.1.4'
loop_
_exptl_crystal_face_index_h
_exptl_crystal_face_index_k
_exptl_crystal_face_index_l
_exptl_crystal_face_perp_dist
4 0 -1 0.1074
0 -5 1 0.0704
-4 0 1 0.1173
0 5 -1 0.0614
0 -1 8 0.0074
-5 -1 -1 0.1248
0 1 -8 0.0435
loop_
_geom_angle_atom_site_label_1
_geom_angle_atom_site_label_2
_geom_angle_atom_site_label_3
_geom_angle
_geom_angle_site_symmetry_1
_geom_angle_site_symmetry_3
_geom_angle_publ_flag
N1 S1 Cl1 108.14(7) . . ?
N1 S1 C7 106.24(10) . . ?
C7 S1 Cl1 97.94(7) . . ?
C1 N2 C2 120.96(18) . . ?
C1 N1 S1 122.09(16) . . ?
N2 C2 C3 118.35(18) . . ?
N2 C2 C7 124.10(19) . . ?
C7 C2 C3 117.5(2) . . ?
N2 C1 N1 127.1(2) . . ?
N2 C1 C10 118.33(19) . . ?
N1 C1 C10 114.55(19) . . ?
C7 C6 H6 119.1(18) . . ?
C7 C6 Cl5 117.1(6) . . ?
C5 C6 H6 122.6(18) . . ?
C5 C6 C7 118.3(2) . . ?
C5 C6 Cl5 123.1(6) . . ?
Cl5 C6 H6 13.2(19) . . ?
C2 C3 C8 118.00(19) . . ?
C4 C3 C2 120.20(19) . . ?
C4 C3 C8 121.78(19) . . ?
C3 C4 C5 119.3(2) . . ?
C3 C4 C9 121.8(2) . . ?
C5 C4 C9 118.9(2) . . ?
C11 C10 C1 119.70(19) . . ?
C15 C10 C1 121.2(2) . . ?
C15 C10 C11 119.1(2) . . ?
C2 C7 S1 118.29(17) . . ?
C6 C7 S1 118.90(17) . . ?
C6 C7 C2 122.8(2) . . ?
C10 C11 H11 119.8 . . ?
C12 C11 C10 120.4(2) . . ?
C12 C11 H11 119.8 . . ?
C10 C15 H15 119.9 . . ?
C14 C15 C10 120.2(2) . . ?
C14 C15 H15 119.9 . . ?
C15 C14 H14 119.8 . . ?
C15 C14 C13 120.3(2) . . ?
C13 C14 H14 119.8 . . ?
C11 C12 H12 119.9 . . ?
C11 C12 C13 120.3(2) . . ?
C13 C12 H12 119.9 . . ?
C6 C5 Cl4 118.36(17) . . ?
C6 C5 C4 121.9(2) . . ?
C4 C5 Cl4 119.75(17) . . ?
Cl2 C8 H8A 109.9 . . ?
Cl2 C8 H8B 109.9 . . ?
C3 C8 Cl2 109.03(15) . . ?
C3 C8 H8A 109.9 . . ?
C3 C8 H8B 109.9 . . ?
H8A C8 H8B 108.3 . . ?
C14 C13 C12 119.7(2) . . ?
C14 C13 H13 120.1 . . ?
C12 C13 H13 120.1 . . ?
Cl3 C9 H9A 109.6 . . ?
Cl3 C9 H9B 109.6 . . ?
C4 C9 Cl3 110.11(17) . . ?
C4 C9 H9A 109.6 . . ?
C4 C9 H9B 109.6 . . ?
H9A C9 H9B 108.2 . . ?
loop_
_geom_bond_atom_site_label_1
_geom_bond_atom_site_label_2
_geom_bond_distance
_geom_bond_site_symmetry_2
_geom_bond_publ_flag
Cl1 S1 2.3412(7) . ?
S1 N1 1.561(2) . ?
S1 C7 1.729(2) . ?
Cl4 C5 1.739(2) . ?
Cl3 C9 1.801(3) . ?
Cl2 C8 1.804(2) . ?
N2 C2 1.371(3) . ?
N2 C1 1.311(3) . ?
N1 C1 1.379(3) . ?
C2 C3 1.430(3) . ?
C2 C7 1.406(3) . ?
C1 C10 1.479(3) . ?
C6 H6 0.95(4) . ?
C6 C7 1.391(3) . ?
C6 C5 1.368(3) . ?
C6 Cl5 1.698(16) . ?
C3 C4 1.387(3) . ?
C3 C8 1.509(3) . ?
C4 C5 1.421(3) . ?
C4 C9 1.510(3) . ?
C10 C11 1.403(3) . ?
C10 C15 1.400(3) . ?
C11 H11 0.9300 . ?
C11 C12 1.380(3) . ?
C15 H15 0.9300 . ?
C15 C14 1.388(3) . ?
C14 H14 0.9300 . ?
C14 C13 1.390(4) . ?
C12 H12 0.9300 . ?
C12 C13 1.396(3) . ?
C8 H8A 0.9700 . ?
C8 H8B 0.9700 . ?
C13 H13 0.9300 . ?
C9 H9A 0.9700 . ?
C9 H9B 0.9700 . ?
loop_
_refln_index_h
_refln_index_k
_refln_index_l
_refln_F_squared_meas
_refln_F_squared_sigma
0 0 -1 131.01 3.27
0 0 1 124.01 3.15
0 0 -2 381.58 8.52
0 0 2 389.9 8.55
0 0 2 395.55 8.47
0 0 -2 389.32 8.88
0 0 3 1315.05 26.16
0 0 -3 1394.12 26.43
0 0 -3 1349.16 27.04
0 0 3 1404.68 26.5
0 0 -4 415.09 10.07
0 0 4 420.81 10.3
0 0 -4 412.53 10.91
0 0 -5 162.79 6.34
0 0 5 160.73 5.72
0 0 -5 156.04 5.46
0 0 -6 932.87 20.32
0 0 6 889.67 20.62
0 0 -6 967.23 22.14
0 0 -7 5.36 1.02
0 0 7 6.26 1.21
0 0 -7 6.8 1.43
0 0 8 28.54 2.67
0 0 -8 29.82 3.11
0 0 -8 29.97 2.62
0 0 -9 114.9 5.65
0 0 9 104.6 5.7
0 0 -9 115.58 6.72
0 0 10 97.28 3.84
0 0 -10 91.17 5.31
0 0 -10 99.08 3.88
0 0 10 94.03 3.77
0 0 -10 97.82 3.66
0 0 10 93.82 5.6
0 0 -10 93.69 3.7
0 0 -10 101.54 6.6
0 0 -10 100.46 4.26
0 0 -11 36.7 2.21
0 0 -11 38.81 2.12
0 0 -11 38.17 2.27
0 0 11 38.82 2.31
0 0 11 38.43 2.3
0 0 -11 39.04 2.56
0 0 -12 5.67 0.89
0 0 12 6.41 0.89
0 0 -12 6.11 1
0 0 -12 6.14 0.87
0 0 12 4.85 0.81
0 0 13 160.74 4.99
0 0 -13 160.11 4.92
0 0 13 163.77 5.04
0 0 -13 167.87 5.05
0 0 14 4.44 0.66
0 0 14 4.47 0.62
0 0 -14 4.29 0.61
0 0 -14 3.89 0.6
0 0 14 4.13 0.66
0 0 15 2.31 0.39
0 0 15 1.81 0.32
0 0 -15 2.02 0.37
0 0 15 2.11 0.37
0 0 -15 1.73 0.31
0 -1 15 5.13 0.53
0 1 -15 4.76 0.52
0 -1 14 131.6 3.78
0 1 -14 125.3 3.53
0 -1 14 121.15 3.9
0 -1 14 125.07 3.67
0 1 -14 115.83 3.37
0 1 -13 133.45 4.21
0 1 -13 142.2 4.14
0 1 -13 142.58 4.34
0 -1 13 148.92 4.54
0 -1 13 144.7 4.74
0 -1 13 144.59 4.54
0 -1 12 0.39 0.32
0 -1 12 -0.53 0.38
0 1 -12 0.07 0.22
0 1 -12 0.45 0.42
0 1 -12 0.52 0.36
0 1 -11 109.63 4.56
0 -1 11 115.71 4.25
0 1 -11 112.05 4.02
0 1 -11 105.87 3.99
0 -1 11 112.24 4.23
0 1 -11 111.73 4.1
0 -1 10 124.07 4.45
0 -1 10 129.81 4.59
0 1 -10 121.9 4.38
0 1 -10 113.77 4.22
0 1 -10 134.77 7.68
0 1 -10 125.8 4.39
0 1 -10 130.62 4.99
0 -1 10 117.56 6.31
0 1 -9 138.27 7.45
0 -1 9 131.84 4.55
0 -1 9 127.53 6.28
0 1 -9 133.24 5
0 1 -9 123.91 4.32
0 1 -9 131.14 4.45
0 -1 9 134.73 4.56
0 1 -9 136.04 4.52
0 1 -8 38.48 2.87
0 1 -8 36.87 3.5
0 -1 8 33.38 2.88
0 1 -7 1.63 0.61
0 1 -7 2.97 0.97
0 -1 7 2.21 0.72
0 -1 6 565.56 14.57
0 -1 6 556.88 14.31
0 1 -6 581 15.53
0 -1 5 152.21 5.78
0 1 -5 154.6 6.13
0 -1 5 155.59 5.53
0 1 -5 157.75 5.22
0 1 -4 84.55 3.99
0 -1 4 84 3.88
0 1 -4 94.8 3.51
0 -1 4 85.3 3.62
0 1 -3 221.11 5.88
0 -1 3 241.58 6.97
0 -1 3 239.9 6.38
0 1 -3 244.3 6.57
0 1 -2 71.77 2.12
0 -1 2 63.62 2.3
0 1 -2 68.7 2.54
0 -1 2 70.82 2.77
0 1 -2 68.63 2.49
0 1 -1 114.95 3.02
0 -1 1 116.59 2.92
0 1 -1 108.17 2.45
0 1 -1 116.34 3.02
0 -1 0 82.96 2.21
0 1 0 79.93 2.19
0 -1 0 84.24 2.17
0 1 1 472.78 9.87
0 -1 -1 507.98 10.07
0 1 1 497.84 9.82
0 -1 -2 325.27 7.17
0 -1 -2 311.61 7.3
0 1 2 331.66 7.11
0 -1 -3 124.23 4.07
0 1 3 124.53 3.96
0 -1 -3 117.6 4.17
0 1 4 2619.42 42.59
0 -1 -4 2690.59 43.05
0 -1 -5 133.66 5.77
0 1 5 148.42 5.76
0 -1 -6 30.42 2.5
0 -1 -6 31.1 2.9
0 1 6 30.68 2.61
0 1 7 556.43 15.05
0 -1 -7 581.75 14.93
0 -1 -7 546.1 15.97
0 1 8 14.56 2.03
0 -1 -8 16.92 2.39
0 -1 -8 13.67 1.87
0 -1 -9 -0.22 0.4
0 -1 -9 0.3 0.36
0 -1 -10 14.61 2.15
0 -1 -10 19.15 1.76
0 -1 -10 14.51 1.63
0 1 10 15.74 1.42
0 -1 -10 18.16 1.49
0 1 10 14.32 2.15
0 -1 -10 21.12 2.99
0 1 10 17.53 1.51
0 -1 -11 24.88 1.86
0 -1 -11 25.28 2.05
0 -1 -11 23.65 3.22
0 1 11 23.38 1.77
0 -1 -11 24.21 1.78
0 -1 -11 21.96 1.92
0 1 11 20.67 2.73
0 -1 -11 18.59 2.44
0 1 11 23.01 1.75
0 1 12 23.85 1.76
0 -1 -12 22.78 1.72
0 -1 -12 25.14 1.86
0 -1 -12 26.81 2.06
0 1 12 24.09 1.83
0 1 13 13.31 1.26
0 -1 -13 13.79 1.28
0 -1 -13 11.57 1.16
0 -1 -13 13.36 1.4
0 1 13 13.53 1.25
0 -1 -14 11.94 1.06
0 1 14 13.21 1.13
0 -1 -14 11.86 1.06
0 1 14 11.02 1.02
0 -1 -15 56.67 2.07
0 -1 -15 63.66 2.21
0 1 15 59.29 2.15
0 1 15 53.04 2.09
0 1 15 63.44 2.27
0 2 -14 60.47 1.91
0 -2 14 60.15 2.14
0 -2 14 56.6 1.95
0 -2 14 61.95 2.36
0 -2 13 12.45 1.18
0 2 -13 10.94 0.93
0 -2 13 11.88 1.07
0 -2 13 11.85 1
0 2 -13 11.81 0.9
0 -2 12 1.85 0.51
0 -2 12 2.2 0.61
0 2 -12 1.27 0.34
0 -2 12 2.1 0.51
0 2 -12 2.37 0.55
0 -2 11 72.01 3.18
0 2 -11 70.57 2.96
0 2 -11 72.7 3.06
0 2 -11 73.57 3.17
0 -2 11 71.49 3.29
0 -2 10 292.79 8
0 2 -10 304.89 12.37
0 2 -10 274.18 7.48
0 2 -10 276.56 7.42
0 -2 10 282.84 10.44
0 -2 10 286.09 7.77
0 2 -10 297.49 7.81
0 2 -9 308.6 8.07
0 -2 9 305.26 8.23
0 -2 9 284.47 10.32
0 2 -9 295.49 7.7
0 -2 9 292.43 7.95
0 2 -8 32.57 3.48
0 -2 8 31.66 2.85
0 -2 7 564.37 15.5
0 -2 7 553.17 14.58
0 2 -7 545.59 16.18
0 -2 6 421.42 11.88
0 -2 6 442.44 12.91
0 2 -6 436.75 13.28
0 -2 5 6.69 1.11
0 2 -5 7.86 1.01
0 -2 5 5.94 1.28
0 -2 5 7.12 1.19
0 2 -5 8.1 1.38
0 -2 4 114.23 4.62
0 2 -4 123.64 4.98
0 2 -4 108.04 3.84
0 -2 4 115.53 5.21
0 -2 3 119.12 4.78
0 2 -3 115.07 3.44
0 2 -3 107 4.18
0 2 -3 115.55 4.37
0 -2 3 112.22 4.06
0 2 -2 156.81 4.67
0 -2 2 173.59 5.25
0 -2 2 156.62 4.5
0 2 -2 138.42 3.51
0 2 -2 154.36 4.66
0 2 -1 3.37 0.53
0 -2 1 2.78 0.51
0 -2 1 3.19 0.5
0 2 -1 2.89 0.48
0 -2 0 2.13 0.38
0 2 0 1.88 0.35
0 2 0 1.99 0.4
0 -2 0 2.21 0.38
0 2 1 772.31 15.2
0 -2 -1 740.93 14.6
0 2 1 758.11 14.91
0 -2 -2 90.34 3.13
0 2 2 88.5 2.92
0 2 2 86.92 3.09
0 -2 -2 90.15 2.66
0 -2 -2 96.67 3.35
0 2 2 86.54 2.99
0 2 3 1035.63 20.44
0 -2 -3 1082.99 21.58
0 2 3 1050.25 20.96
0 -2 -3 1049.66 21.17
0 2 4 1159.56 23.89
0 -2 -4 1175.21 25.26
0 2 4 1305.58 25.1
0 -2 -4 1298.42 25.28
0 -2 -5 1.31 0.44
0 -2 -5 1.7 0.7
0 2 5 1.96 0.7
0 2 6 97.53 4.97
0 -2 -6 94.56 5.02
0 -2 -6 94.61 5.09
0 2 7 231.82 8.94
0 -2 -7 238.15 8.71
0 -2 -8 116.55 6.95
0 2 8 122.34 6.46
0 -2 -9 153.48 8.38
0 -2 -9 155.39 7.37
0 2 9 148.68 7.68
0 -2 -10 0.74 0.42
0 2 10 0.88 0.43
0 -2 -10 0.85 0.4
0 -2 -10 0.47 0.54
0 -2 -10 0.7 0.69
0 -2 -10 1.1 0.45
0 2 10 0.68 0.26
0 2 10 0.31 0.45
0 -2 -11 68.57 3.15
0 -2 -11 59.73 5.43
0 -2 -11 66.48 3.47
0 2 11 58.48 4.82
0 2 11 58.36 2.69
0 -2 -11 67.49 3.13
0 -2 -11 63.53 2.95
0 2 11 66.1 3.13
0 2 11 64.61 3.1
0 -2 -11 60.94 3.38
0 -2 -12 9.67 1.24
0 2 12 9.73 1.14
0 -2 -12 8.28 0.96
0 -2 -12 9.54 1.14
0 2 12 9.53 1.13
0 -2 -12 9.74 1.25
0 -2 -12 11.03 1.23
0 -2 -13 0.11 0.29
0 -2 -13 0.36 0.36
0 2 13 0.46 0.37
0 2 13 0.58 0.35
0 -2 -13 0.23 0.33
0 -2 -14 0.35 0.31
0 -2 -14 0.6 0.31
0 2 14 0.59 0.29
0 -2 -14 1.01 0.38
0 2 14 0.91 0.35
0 2 15 63.05 2.32
0 2 15 60.72 2.23
0 -2 -15 58.55 2.22
0 -3 14 4.26 0.48
0 3 -14 3.65 0.4
0 -3 13 1.29 0.35
0 -3 13 1.72 0.37
0 3 -13 1.64 0.36
0 3 -12 4.04 0.64
0 -3 12 4.05 0.66
0 -3 12 4.24 0.73
0 -3 11 1.76 0.52
0 3 -11 1.57 0.46
0 -3 11 0.99 0.47
0 -3 11 1.25 0.37
0 3 -11 1.5 0.45
0 3 -10 225.97 6.6
0 -3 10 216.38 6.39
0 -3 10 233.53 7.29
0 -3 10 211.44 6.67
0 3 -9 57.56 2.95
0 -3 9 53.49 2.97
0 3 -9 54.48 4.95
0 -3 9 55.26 3.21
0 -3 8 32.09 2.93
0 3 -8 29.22 2.06
0 -3 8 32.25 2.49
0 -3 8 31.7 2.2
0 3 -8 30.45 3.52
0 -3 7 171.04 7.12
0 3 -7 185.37 8.74
0 -3 7 178.7 8.2
0 -3 6 24.74 2.79
0 3 -6 27.06 2.99
0 -3 6 25.12 2.4
0 3 -5 38.21 3.21
0 -3 5 35.88 3.33
0 3 -5 37.61 3.23
0 -3 5 40.75 3.19
0 -3 5 39.07 2.92
0 -3 4 57.55 3.45
0 3 -4 58.27 3.64
0 3 -4 63.5 3.76
0 -3 4 53.36 3.86
0 3 -4 52.18 3.45
0 3 -3 30.07 1.48
0 -3 3 25.96 2.07
0 -3 3 27.33 2.47
0 3 -3 26.01 2.17
0 3 -3 26.03 2.15
0 -3 2 691.86 14.97
0 3 -2 680.28 15.11
0 -3 2 766.4 16.28
0 3 -2 717.58 15.29
0 3 -2 634.73 12.93
0 3 -1 27.8 1.86
0 3 -1 28.58 1.91
0 -3 1 29.57 2
0 -3 1 28.94 1.86
0 -3 0 56 2.61
0 3 0 57.47 2.72
0 3 0 52.43 2.54
0 -3 0 59.16 2.68
0 -3 -1 54.51 2.62
0 -3 -1 55.65 2.45
0 3 1 56.99 2.73
0 3 1 54.1 2.55
0 3 2 28.23 1.8
0 -3 -2 29.78 1.69
0 -3 -2 29.24 2.05
0 3 2 29.73 1.85
0 3 2 34.81 2.13
0 -3 -3 156.29 5.46
0 3 3 147.48 5.01
0 -3 -3 147.12 5
0 -3 -3 146.78 4.38
0 3 3 150.05 4.87
0 3 3 148.45 5.2
0 3 4 1369.78 27.35
0 -3 -4 1305.41 26.26
0 3 4 1362.93 28.12
0 -3 -4 1417.98 28.41
0 3 4 1375.62 27.94
0 -3 -4 1480.07 28.66
0 -3 -5 25.75 2.34
0 -3 -5 20.53 1.47
0 3 5 21.34 1.84
0 -3 -5 22.74 2.28
0 3 5 23.06 2.14
0 3 6 70.96 3.82
0 -3 -6 81.47 4.95
0 3 6 80.62 4.6
0 -3 -6 82.34 4.8
0 3 7 19.02 2.08
0 3 7 20.1 2.55
0 -3 -7 19.53 2.58
0 3 8 599.28 18.1
0 -3 -8 596.49 17.29
0 3 9 514.87 12.19
0 -3 -9 562.1 13.12
0 -3 -9 546.48 16.42
0 -3 -9 513.57 13.05
0 -3 -9 474.33 11.97
0 -3 -9 539.15 18.41
0 3 9 513.14 12.29
0 3 9 467.71 12.49
0 3 9 560.66 17.43
0 -3 -9 559.1 12.2
0 -3 -9 488.33 12.21
0 3 9 501.55 11.68
0 -3 -10 40.29 2.37
0 -3 -10 36.7 2.75
0 3 10 43.48 4.34
0 3 10 37.17 2.2
0 3 10 41.71 2.51
0 3 10 39.4 2.62
0 -3 -10 40.94 2.76
0 -3 -10 38.74 4.48
0 -3 -10 36.28 2.37
0 -3 -11 30.03 2.31
0 3 11 29.65 1.9
0 -3 -11 32.35 2.09
0 3 11 31.51 2.09
0 3 11 29.53 2.12
0 -3 -11 31.44 2.1
0 -3 -11 29.56 2.33
0 -3 -11 29.31 2
0 -3 -12 46.75 2.51
0 -3 -12 42.05 2.71
0 3 12 45.74 2.55
0 3 12 43.3 2.24
0 -3 -12 42.86 2.44
0 3 12 42.33 2.4
0 -3 -12 42.48 2.74
0 -3 -12 41.87 2.39
0 -3 -13 5.94 0.92
0 -3 -13 5.5 0.81
0 3 13 5.19 0.81
0 3 13 5.47 0.71
0 -3 -13 5.48 0.8
0 3 13 5.75 0.84
0 -3 -13 4.46 0.72
0 -3 -13 5.16 0.85
0 3 14 4.95 0.7
0 -3 -14 6 0.74
0 -3 -14 4.38 0.64
0 -3 -14 4.77 0.71
0 3 14 4.31 0.65
0 -3 -14 5.28 0.67
0 3 15 2.86 0.45
0 -3 -15 2.84 0.44
0 -3 -15 2.52 0.43
0 3 15 2.05 0.39
0 4 -13 9.06 0.7
0 -4 13 9.53 0.79
0 -4 13 8.22 0.63
0 4 -12 10.84 0.93
0 -4 12 10.48 1.06
0 4 -12 8.91 0.82
0 -4 12 9.37 0.89
0 -4 11 -0.03 0.22
0 4 -11 0.26 0.16
0 4 -11 0.56 0.3
0 -4 11 0.48 0.22
0 4 -10 3.91 0.73
0 4 -10 3.58 0.68
0 -4 10 4.04 0.79
0 -4 10 3.85 0.83
0 4 -9 11.85 1.32
0 4 -9 13.69 1.37
0 -4 9 11.75 1.35
0 -4 9 15.21 1.7
0 -4 8 39.77 2.6
0 4 -8 36.23 4.14
0 4 -8 33.83 2.35
0 -4 8 42.33 2.9
0 4 -8 40.71 2.48
0 -4 7 18.92 1.81
0 -4 7 19.01 2.77
0 4 -7 20.71 1.74
0 4 -7 18.5 2.84
0 -4 7 16.42 1.79
0 -4 6 334.98 12.44
0 -4 6 298.79 10.33
0 4 -5 325.42 11.53
0 -4 5 278.59 11.2
0 4 -5 280.61 10.84
0 -4 5 336.39 11.24
0 -4 5 303.49 9.98
0 4 -4 104.49 5.57
0 -4 4 116.95 5.67
0 -4 4 102.52 6.07
0 4 -4 113.58 5.75
0 4 -3 624.46 16.05
0 -4 3 649.52 17.3
0 -4 3 638.97 15.84
0 4 -3 629.85 16.13
0 4 -2 125.82 5.27
0 4 -2 125.63 5.24
0 -4 2 114.56 4.96
0 -4 1 337.74 9.44
0 4 -1 348.63 9.71
0 4 -1 337.48 9.58
0 4 0 294.18 8.5
0 -4 0 312.17 8.74
0 4 0 289.4 8.32
0 -4 0 284 8.27
0 4 1 22.59 1.86
0 -4 -1 21.53 1.85
0 4 1 21.23 1.87
0 -4 -1 21.59 1.81
0 4 2 25.36 2.1
0 4 2 23.38 1.92
0 -4 -2 25.96 1.91
0 -4 -2 24.61 2.09
0 -4 -3 48.47 3.14
0 4 3 44.13 2.77
0 4 3 42.27 2.73
0 -4 -3 43.09 2.46
0 -4 -3 46.44 3.11
0 4 3 47.28 3.05
0 -4 -4 273.63 7.57
0 4 4 262.61 8.52
0 4 4 269.92 8.38
0 4 4 277.47 9.03
0 -4 -4 299.19 9.25
0 4 5 108.65 5.27
0 -4 -5 113.9 5.67
0 4 5 99.78 5.32
0 4 5 101.41 4.8
0 4 6 1.49 0.83
0 -4 -6 2.29 0.89
0 4 6 1.87 0.88
0 4 6 0.77 0.47
0 -4 -7 2.7 1.04
0 4 7 3.52 1.16
0 4 7 1.9 0.86
0 4 8 553.7 17.52
0 4 8 480.04 16.97
0 -4 -8 524.2 13.12
0 4 8 559.09 12.54
0 -4 -8 547.93 13.02
0 -4 -8 512.37 12.52
0 4 8 539.98 12.5
0 -4 -8 584.78 18.81
0 4 9 17.3 1.67
0 -4 -9 18.17 1.85
0 -4 -9 15.78 1.85
0 4 9 20.6 1.95
0 -4 -9 19.26 1.64
0 4 9 19.48 3.14
0 4 9 18.43 2.98
0 -4 -9 16.19 1.66
0 -4 -9 19.67 1.78
0 4 9 18.13 1.68
0 -4 -9 17.56 1.73
0 4 9 19.41 1.61
0 -4 -9 14.95 2.84
0 -4 -10 36.59 2.39
0 -4 -10 34.61 2.7
0 4 10 29.52 3.97
0 4 10 34.62 4.12
0 -4 -10 36.79 2.3
0 -4 -10 37.33 2.65
0 4 10 33.7 2.46
0 -4 -10 32.31 2.08
0 -4 -10 38.75 4.89
0 4 10 35.12 2.43
0 4 10 32.01 2.13
0 4 11 69.08 3.11
0 4 11 73.91 3.55
0 -4 -11 63.87 3
0 4 11 69.45 3.15
0 -4 -11 68.19 3.75
0 -4 -11 68.98 3.33
0 -4 -11 67.26 3.6
0 -4 -11 67.42 3.19
0 -4 -12 64.63 3.37
0 4 12 70.19 3.23
0 4 12 59.4 2.75
0 4 12 60.91 2.83
0 -4 -12 60.77 2.89
0 -4 -12 62.99 3.25
0 -4 -12 59.41 2.79
0 -4 -12 62.26 2.98
0 4 13 32.83 1.87
0 -4 -13 32.71 2.1
0 -4 -13 32.41 1.83
0 4 13 36.04 2.1
0 -4 -13 34.33 1.98
0 -4 -13 30.29 1.86
0 4 13 32.63 1.78
0 -4 -13 33 2.11
0 4 14 1.53 0.37
0 -4 -14 1.57 0.38
0 -4 -14 1.54 0.43
0 -4 -14 1.98 0.41
0 -4 -14 1.67 0.38
0 4 14 1.52 0.34
0 4 14 2.33 0.49
0 4 15 1.56 0.31
0 -4 -15 0.97 0.23
0 -4 -15 0.92 0.24
0 -4 -15 0.6 0.19
0 4 15 1.24 0.3
0 -5 12 0.29 0.18
0 5 -12 -0.05 0.16
0 -5 11 6.89 0.84
0 -5 11 7.46 0.79
0 5 -11 7.41 0.81
0 -5 10 70.55 3.35
0 5 -10 64.22 2.71
0 -5 10 68.08 3.01
0 5 -10 71.68 3.03
0 5 -9 0.79 0.34
0 -5 9 0.74 0.39
0 5 -9 0.42 0.34
0 -5 9 0.57 0.48
0 -5 8 36.6 2.75
0 -5 8 37.48 2.54
0 5 -8 39.53 2.46
0 5 -8 33.92 2.35
0 -5 7 230.39 7.68
0 -5 7 277.34 11.73
0 -5 7 268.71 8.5
0 5 -7 259.97 11.9
0 5 -7 258.99 7.56
0 5 -7 240 7.52
0 -5 6 330.93 12.94
0 5 -6 352.87 13.78
0 -5 6 298.09 9.1
0 -5 6 333.89 9.82
0 5 -6 290.22 8.76
0 5 -6 300.45 8.56
0 5 -5 133.78 7.52
0 5 -5 130.21 5.05
0 -5 5 121.17 7.39
0 5 -5 116.81 4.66
0 -5 5 129.44 5.34
0 5 -5 121.07 7.16
0 -5 5 119.72 4.94
0 5 -4 11.71 1.97
0 -5 4 10.61 1.86
0 5 -4 12.26 2.04
0 -5 4 11.18 2.12
0 -5 3 222.55 9.79
0 5 -3 219.71 8.69
0 -5 3 223.3 8.53
0 5 -3 211.06 8.64
0 -5 2 42.14 3.21
0 -5 2 51.99 4.15
0 5 -2 47.48 3.53
0 5 -2 44.43 3.35
0 5 -1 790.25 19.14
0 -5 1 772.85 18.88
0 5 -1 786.17 19.19
0 -5 0 37.14 3.04
0 -5 0 29.97 2.53
0 5 0 36.25 2.8
0 5 0 32.8 2.66
0 5 1 13.2 1.66
0 -5 -1 14.47 1.81
0 5 1 12.33 1.57
0 -5 -1 11.18 1.52
0 5 2 261.14 8.83
0 -5 -2 258.57 8.83
0 5 2 267.84 8.64
0 -5 -2 282.07 8.85
0 -5 -3 224.78 8.46
0 5 3 221.62 7.82
0 5 3 230.17 8.34
0 -5 -3 231.01 7.67
0 5 4 12.81 1.73
0 5 4 11.98 1.82
0 -5 -4 12.58 1.94
0 -5 -5 73.96 5.01
0 5 5 74.29 4.52
0 5 5 72.57 4.6
0 5 5 77.41 5.03
0 -5 -5 76.01 5.2
0 5 6 202.75 8.69
0 -5 -6 198.61 9.29
0 5 6 190.81 8.79
0 -5 -6 204.58 9.15
0 5 6 176.31 7.68
0 5 7 62.75 3.08
0 -5 -7 66.1 3.31
0 -5 -7 68.55 3.22
0 -5 -7 62.19 3.34
0 -5 -7 65.23 3.17
0 -5 -7 78.68 5.83
0 -5 -7 71.26 3.47
0 5 7 73.49 5.39
0 5 7 73.61 3.34
0 5 7 68.66 5.41
0 -5 -8 18.53 1.88
0 5 8 20.19 1.83
0 -5 -8 19.51 1.84
0 5 8 21.96 3.19
0 5 8 19.62 3.09
0 5 8 21.07 1.75
0 5 8 19.82 1.82
0 -5 -8 22.03 1.91
0 -5 -8 21.58 3.33
0 -5 -8 19.85 1.74
0 -5 -8 19.06 1.63
0 5 8 23.36 1.88
0 -5 -8 19.19 1.75
0 -5 -9 410.72 10.81
0 5 9 423.43 10.87
0 -5 -9 427.02 17
0 -5 -9 380.69 11.29
0 5 9 409.81 11.31
0 5 9 436.63 16.5
0 5 9 389.98 10.86
0 -5 -9 432.95 11.1
0 -5 -9 428.84 10.32
0 5 9 435.46 10.65
0 5 9 369.72 15.52
0 -5 -9 434.21 11.48
0 -5 -9 383.43 10.66
0 -5 -10 17.64 1.93
0 -5 -10 17.87 1.83
0 5 10 18.52 1.8
0 -5 -10 15.95 1.46
0 -5 -10 17.47 1.71
0 5 10 15.68 1.73
0 5 10 15.16 1.58
0 5 10 14.58 1.47
0 -5 -10 13.61 1.59
0 5 11 -0.07 0.2
0 -5 -11 0.6 0.41
0 5 11 0.59 0.34
0 -5 -11 -0.05 0.33
0 5 11 0.07 0.34
0 -5 -11 0.38 0.42
0 -5 -11 0.44 0.24
0 5 11 -0.38 0.37
0 -5 -11 -0.05 0.28
0 5 12 359.27 9.02
0 5 12 429.55 9.62
0 -5 -12 378.55 9.03
0 5 12 442.1 10.24
0 -5 -12 424.37 9.96
0 -5 -12 402.94 10.36
0 -5 -12 379.47 9.31
0 -5 -12 382.94 10.02
0 -5 -13 10.35 0.99
0 5 13 12.96 1.18
0 -5 -13 10.16 1.14
0 -5 -13 11.74 1.13
0 -5 -13 12.02 1.1
0 -5 -13 11.3 0.93
0 5 13 9.45 0.89
0 5 13 11.44 1.01
0 -5 -14 0.38 0.18
0 -5 -14 0.48 0.2
0 -5 -14 0.51 0.21
0 5 14 1.15 0.35
0 5 14 0.85 0.26
0 5 14 0.6 0.18
0 -5 -14 0.63 0.28
0 6 -11 32.11 1.43
0 -6 11 30.76 1.47
0 6 -10 78.04 2.78
0 -6 10 81.14 3.03
0 6 -9 -0.05 0.19
0 -6 9 0.25 0.24
0 -6 9 0 0.16
0 -6 9 0.1 0.24
0 6 -9 -0.18 0.21
0 -6 8 54.44 2.76
0 -6 8 57.6 3.25
0 6 -8 58.3 2.89
0 -6 8 56.05 2.91
0 6 -8 54.84 2.76
0 6 -7 2.49 0.63
0 6 -7 2.17 0.57
0 -6 7 1.63 0.64
0 -6 7 1.5 0.59
0 -6 7 2.76 0.74
0 -6 6 52.15 3.18
0 -6 6 57.05 3.57
0 6 -6 53.33 3.1
0 -6 6 55.42 3.25
0 6 -6 55.93 3.08
0 6 -5 34.64 2.44
0 -6 5 41.48 2.91
0 6 -5 39.43 4.27
0 -6 5 37.54 4.17
0 -6 5 34.9 2.57
0 -6 5 36.84 2.69
0 6 -5 39.85 2.71
0 6 -4 41.44 2.49
0 6 -4 52.71 4.72
0 6 -4 48.65 2.93
0 -6 4 52.16 3.16
0 -6 4 48.75 2.97
0 6 -4 57 4.83
0 6 -4 46.81 2.76
0 -6 4 46.54 4.7
0 6 -4 55.74 4.74
0 -6 4 53.19 3.18
0 -6 3 141.89 7.16
0 6 -3 131.06 4.74
0 -6 3 123.44 7.93
0 -6 3 142.34 5.36
0 6 -3 131.27 4.91
0 6 -3 142.67 7.6
0 6 -3 144.92 5.16
0 -6 3 150.97 5.41
0 6 -3 144.43 5.22
0 6 -3 141.73 7.38
0 -6 2 629.97 19.28
0 -6 2 595.2 13.58
0 6 -2 602.72 16.89
0 6 -2 549.57 13.73
0 6 -2 599.58 17.26
0 -6 2 573.38 16.37
0 6 -2 601.12 13.5
0 6 -2 550.6 13.22
0 -6 2 615.25 13.78
0 6 -1 321.24 10.95
0 -6 1 300.62 10.53
0 -6 1 341.69 12.74
0 6 -1 315.66 11.11
0 -6 0 38.92 3.74
0 6 0 29.3 2.84
0 6 0 34.15 3.13
0 -6 0 29.6 2.8
0 -6 -1 323.36 11.39
0 6 1 291.83 10.2
0 -6 -1 284.98 10.02
0 6 1 293.28 10.15
0 6 2 369.39 11.79
0 6 2 360.97 11.8
0 -6 -2 364.32 11.91
0 6 3 25.37 2.65
0 -6 -3 29.48 3.04
0 6 3 23.89 2.67
0 6 4 44.55 3.61
0 -6 -4 46.74 4.04
0 6 4 46.86 3.92
0 -6 -5 27.84 2.01
0 -6 -5 23.71 1.77
0 6 5 28.33 1.97
0 -6 -5 25.84 1.85
0 -6 -5 24.98 1.87
0 6 5 25.98 2.85
0 -6 -5 27.8 3.39
0 -6 -5 26.55 1.84
0 6 5 24.34 2.95
0 6 5 28.04 1.91
0 -6 -6 32.45 3.9
0 -6 -6 31.39 2.11
0 6 6 33.51 2.21
0 -6 -6 33.23 2.15
0 -6 -6 33.45 2.23
0 -6 -6 34.42 2.38
0 -6 -6 31.46 2.34
0 6 6 31.42 3.64
0 -6 -7 94.88 7.16
0 -6 -7 88.28 4.18
0 6 7 102.92 4.24
0 -6 -7 90.5 4.09
0 6 7 92.15 4.02
0 6 7 98.44 7
0 -6 -7 94.06 4.1
0 -6 -7 101.47 4.5
0 -6 -7 99.23 4.12
0 -6 -8 52.1 3.15
0 6 8 59.7 3.14
0 -6 -8 57.29 3.18
0 -6 -8 56.83 2.84
0 -6 -8 50.49 5.41
0 6 8 55.1 5.08
0 -6 -8 56.77 3.37
0 6 8 50.01 5.14
0 -6 -8 53.08 3.07
0 -6 -8 56.36 3.16
0 6 8 61.15 3.25
0 -6 -9 20.03 1.96
0 6 9 21.09 1.89
0 -6 -9 21.01 1.65
0 -6 -9 18.71 1.82
0 -6 -9 22.29 1.96
0 6 9 18.19 1.88
0 -6 -9 18.71 1.96
0 6 9 21.77 1.79
0 -6 -9 19.57 1.79
0 -6 -10 24.31 1.98
0 6 10 22.41 2.08
0 6 10 25.08 1.86
0 -6 -10 21.62 2.11
0 -6 -10 24.11 1.69
0 -6 -10 18.87 1.82
0 -6 -10 23.49 2.02
0 6 10 24.14 2.03
0 -6 -11 65.54 2.87
0 -6 -11 70.26 3.62
0 6 11 79.3 3.59
0 -6 -11 63.79 3.24
0 6 11 74.68 3.16
0 -6 -11 68.4 3.32
0 6 12 81.6 3.08
0 -6 -12 71.27 3.1
0 -6 -12 75.8 3.43
0 6 12 86.87 3.44
0 -6 -12 81.54 3.28
0 -6 -12 68.79 2.75
0 -6 -13 13.64 1.19
0 -6 -13 13.37 1
0 -6 -13 13.62 1.07
0 -6 -13 14.79 1.14
0 6 13 15.41 1.08
0 6 13 17.58 1.25
0 -6 -14 19.74 1.1
0 6 14 23.54 1.07
0 -6 -14 22.19 1.05
0 -6 -14 20.42 0.97
0 7 -10 1.33 0.28
0 7 -10 2.58 0.36
0 -7 10 2.45 0.39
0 -7 10 2.23 0.34
0 -7 9 29.27 1.61
0 7 -9 30.68 1.54
0 -7 9 30.82 1.74
0 7 -9 24.25 1.45
0 7 -9 25.72 1.26
0 -7 8 2.93 0.53
0 7 -8 4.7 0.69
0 7 -8 3.9 0.58
0 -7 8 3.61 0.63
0 7 -7 77.71 3.32
0 -7 7 80.36 3.71
0 -7 7 82.89 3.4
0 7 -7 84.32 3.4
0 -7 6 28.99 2.14
0 7 -6 28.8 2.02
0 -7 6 28.12 2.25
0 7 -6 29.53 2.1
0 7 -5 9.89 1.22
0 -7 5 11.23 1.41
0 -7 5 11.39 1.48
0 7 -5 9.8 1.31
0 7 -4 176.9 5.66
0 -7 4 176.31 6.41
0 7 -4 159.25 5.64
0 -7 4 168.39 6.27
0 7 -4 179.73 6.3
0 -7 3 12.64 1.48
0 -7 3 11.83 1.44
0 7 -3 11.06 1.27
0 7 -3 11.44 1.37
0 -7 3 12.36 1.52
0 7 -3 12.57 1.29
0 7 -3 11.74 1.32
0 -7 2 427.59 10.77
0 7 -2 418.17 14.56
0 7 -2 371.35 9.77
0 -7 2 413.4 10.75
0 -7 2 403.35 10.36
0 7 -2 382.37 10.49
0 7 -2 403.88 13.91
0 7 -2 418.75 10.5
0 -7 2 369.3 15.18
0 -7 2 324.66 10.2
0 -7 1 26.72 1.98
0 7 -1 27.17 1.88
0 -7 1 23.58 2.8
0 -7 1 27.99 3.81
0 -7 1 30.02 2.19
0 7 -1 25.94 2.21
0 7 -1 23.32 2.84
0 7 -1 28.15 2.07
0 7 -1 27.99 3.26
0 -7 1 30.54 2.24
0 -7 1 20.57 2.09
0 -7 0 12.52 2.02
0 -7 0 13.07 1.33
0 7 0 13.22 1.36
0 -7 0 11.46 1.57
0 7 0 11.69 1.94
0 -7 0 14.64 2.69
0 7 0 12.66 1.22
0 -7 0 13.57 1.4
0 -7 0 11.59 1.32
0 7 0 16.17 1.82
0 7 0 14.93 2.32
0 7 1 770.09 21.28
0 -7 -1 729.45 20.47
0 -7 -1 838.87 23.8
0 -7 -1 768.91 16.83
0 7 1 812.25 17.02
0 -7 -1 749.34 18.34
0 7 1 791.11 20.99
0 -7 -1 770.45 17.19
0 7 1 748.74 16.42
0 7 1 856.05 18.79
0 -7 -1 826.8 17.22
0 -7 -2 1256.7 25.13
0 -7 -2 1217.65 25.28
0 -7 -2 1192.51 29.37
0 7 2 1234.14 29.64
0 -7 -2 1290.61 25.08
0 7 2 1236.85 29.82
0 -7 -2 1190.26 24.84
0 7 2 1207.77 24.53
0 7 2 1253.34 25.02
0 7 3 217.88 9.44
0 7 3 218.78 6.24
0 -7 -3 222.93 6.6
0 -7 -3 219.14 6.56
0 -7 -3 209.48 6.7
0 -7 -3 209.57 6.41
0 7 3 221.74 9.46
0 7 3 238.51 7.4
0 -7 -3 215.55 9.57
0 7 3 226.87 6.62
0 -7 -4 227.92 6.87
0 7 4 233.74 9.82
0 -7 -4 225.3 6.65
0 7 4 237.56 7.32
0 -7 -4 230.42 7.1
0 7 4 241.5 6.97
0 -7 -4 229.5 10.34
0 7 4 229.62 10
0 -7 -4 245.13 6.94
0 -7 -4 222.46 6.77
0 -7 -4 238.74 6.89
0 -7 -5 268.64 7.96
0 -7 -5 280.43 7.69
0 7 5 255.34 11.13
0 -7 -5 277.29 11.91
0 7 5 266.52 7.89
0 -7 -5 254.82 7.59
0 -7 -5 260.5 7.49
0 7 5 276.27 7.75
0 -7 -6 160.38 5.69
0 -7 -6 164.29 5.68
0 7 6 164.06 5.64
0 7 6 154.23 5.56
0 7 6 178.13 5.88
0 7 6 164.33 8.84
0 -7 -6 168.92 5.98
0 -7 -6 174.52 5.75
0 -7 -7 41.14 2.67
0 7 7 42.78 2.62
0 -7 -7 42.71 2.65
0 -7 -7 41.57 2.66
0 -7 -7 46.13 2.89
0 7 7 42.86 2.72
0 -7 -7 41.42 2.65
0 7 8 259.85 7.76
0 -7 -8 257.38 8.07
0 -7 -8 242.81 7.59
0 -7 -8 260.65 7.64
0 7 8 257.2 7.41
0 -7 -8 226.23 7.42
0 -7 -8 239.24 7.35
0 7 9 29.4 2.04
0 -7 -9 32.41 2.44
0 7 9 30.64 2.31
0 -7 -9 29.01 2.23
0 -7 -9 33.32 2.35
0 7 9 31.88 2.27
0 -7 -9 28.52 2.14
0 -7 -10 11.03 1.33
0 -7 -10 11.86 1.44
0 7 10 13.89 1.3
0 -7 -10 13.35 1.41
0 7 10 9.83 1.26
0 -7 -10 11.61 1.27
0 7 10 13.47 1.44
0 -7 -11 1.3 0.47
0 7 11 2.35 0.51
0 -7 -11 2.27 0.43
0 -7 -11 2.23 0.53
0 -7 -11 1.53 0.4
0 7 11 2.28 0.61
0 7 12 7.54 0.83
0 -7 -12 6.38 0.7
0 -7 -12 6.79 0.84
0 -7 -12 6.83 0.86
0 7 12 7.76 0.77
0 -7 -12 5.83 0.58
0 -7 -13 25.16 1.24
0 7 13 26.01 1.28
0 7 13 25.67 1.2
0 -8 8 204.7 4.77
0 8 -8 193.24 4.43
0 -8 8 211.17 4.98
0 8 -8 182.64 4.19
0 8 -8 170.65 4.44
0 -8 7 4.47 0.64
0 -8 7 3.78 0.62
0 8 -7 4.09 0.54
0 -8 7 3.31 0.48
0 8 -7 3.37 0.53
0 8 -7 4.35 0.57
0 8 -6 11.66 1.03
0 -8 6 13.2 1.15
0 8 -6 11.64 1.09
0 -8 6 12.16 1.21
0 8 -6 12.73 1.17
0 -8 6 13.31 1.12
0 -8 6 12.41 1.28
0 8 -5 152.44 5.06
0 8 -5 148.63 4.72
0 -8 5 145.29 5.22
0 -8 5 154.93 5.14
0 -8 5 151.13 5.52
0 8 -5 161.9 5.16
0 -8 4 1.28 0.51
0 8 -4 1.07 0.43
0 8 -4 1.33 0.46
0 -8 4 0.64 0.25
0 8 -4 1.67 0.55
0 8 -4 1.09 0.37
0 -8 4 1.46 0.53
0 8 -3 0.58 0.29
0 -8 3 0.34 0.35
0 -8 3 0.29 0.25
0 8 -3 0.72 0.36
0 8 -3 0.49 0.37
0 -8 3 0.63 0.34
0 8 -2 1.64 0.6
0 -8 2 2.34 0.68
0 -8 2 2.07 0.67
0 8 -2 2 0.55
0 -8 2 1.57 0.52
0 8 -2 1.32 0.42
0 8 -1 21.54 2
0 8 -1 20.45 1.6
0 -8 1 21.9 1.82
0 -8 1 22.7 1.94
0 8 -1 22.95 1.89
0 -8 1 23.24 1.94
0 -8 0 25.12 1.97
0 -8 0 23.3 1.93
0 8 0 24.39 1.9
0 -8 0 23.2 1.83
0 8 0 22.7 1.66
0 8 0 25.8 2.29
0 -8 -1 -0.09 0.42
0 -8 -1 -0.12 0.2
0 8 1 0.28 0.49
0 -8 -1 0.44 0.32
0 8 1 0.14 0.3
0 8 1 0.98 0.39
0 -8 -2 4.42 0.77
0 8 2 3.58 0.92
0 -8 -2 4.48 0.76
0 8 2 4.08 0.8
0 -8 -2 3.8 0.74
0 -8 -2 4.25 0.77
0 8 2 3.42 0.63
0 8 3 225.8 6.79
0 -8 -3 224.57 6.82
0 -8 -3 232.15 7.03
0 8 3 230.35 7.67
0 -8 -3 213.25 6.59
0 -8 -3 238.41 7.09
0 -8 -3 220.45 6.91
0 -8 -4 34.13 2.21
0 -8 -4 35.85 2.38
0 8 4 36.29 2.29
0 -8 -4 37.99 2.35
0 -8 -4 34.06 2.24
0 -8 -4 32.32 2.24
0 8 4 32.46 2.25
0 8 4 35.7 2.55
0 -8 -5 315.35 8.13
0 -8 -5 291.27 8.45
0 8 5 324.43 8.54
0 -8 -5 310.16 8.44
0 -8 -5 311.2 8.69
0 8 5 295.35 8.41
0 8 5 298.53 8.64
0 8 6 14.07 1.43
0 -8 -6 12.98 1.4
0 -8 -6 13.15 1.43
0 -8 -6 13.7 1.49
0 8 6 13.87 1.42
0 8 6 13.62 1.44
0 8 7 20.65 1.68
0 -8 -7 22.4 1.86
0 -8 -7 18.61 1.73
0 -8 -7 19.54 1.68
0 8 7 24.74 1.91
0 -8 -7 24.19 1.98
0 8 7 24.94 1.87
0 -8 -8 26.65 1.91
0 8 8 29.4 2.06
0 -8 -8 27.46 2.07
0 -8 -8 27.11 2.09
0 8 8 28.02 1.85
0 8 8 26.36 2.02
0 -8 -8 24.47 1.89
0 -8 -9 33.52 2.15
0 -8 -9 37.39 2.28
0 8 9 33.76 2.19
0 8 9 39.84 2.31
0 8 9 38.29 2.08
0 -8 -9 36.04 2.36
0 -8 -9 36.39 2.11
0 -8 -10 1.05 0.39
0 8 10 2.17 0.55
0 8 10 1.78 0.44
0 -8 -10 1.96 0.51
0 -8 -10 1.08 0.37
0 -8 -10 1.68 0.43
0 8 10 1.99 0.5
0 8 11 0.29 0.24
0 -8 -11 0.29 0.25
0 -8 -11 0.74 0.33
0 8 11 0.33 0.21
0 -8 -11 -0.13 0.16
0 8 12 29.75 1.27
0 -8 -12 33.11 1.42
0 8 12 31.17 1.37
0 -9 6 32.71 1.52
0 9 -6 31.41 1.28
0 -9 6 30.46 1.37
0 -9 6 28.25 1.19
0 9 -5 0.33 0.17
0 -9 5 0.6 0.28
0 -9 5 0.57 0.23
0 -9 5 0.46 0.21
0 -9 5 0.61 0.25
0 9 -5 0.5 0.19
0 9 -4 63.92 2.53
0 -9 4 60.78 2.72
0 9 -4 72.25 2.85
0 -9 4 71.1 2.83
0 -9 4 78.68 3.02
0 -9 4 65.94 2.98
0 9 -3 36.05 1.93
0 -9 3 35.62 2.13
0 -9 3 45.45 2.47
0 -9 3 39.14 2.36
0 -9 3 36.84 2.17
0 9 -3 40.19 2.07
0 9 -3 38.39 2.21
0 -9 2 7.69 0.98
0 -9 2 6.72 0.97
0 -9 2 5.71 0.94
0 9 -2 7.51 0.94
0 9 -2 7.84 0.87
0 9 -2 7.73 1.04
0 -9 2 7.05 0.99
0 -9 1 116.9 4.49
0 9 -1 113.42 4.52
0 -9 1 111.64 4.23
0 -9 1 114.28 4.48
0 -9 1 123.2 4.97
0 9 -1 112.99 3.85
0 9 -1 124.56 4.53
0 9 0 0.85 0.26
0 9 0 1.11 0.42
0 9 0 0.96 0.57
0 -9 0 0.44 0.28
0 -9 0 1.43 0.5
0 -9 0 1.31 0.51
0 -9 0 0.76 0.33
0 9 1 2.39 0.57
0 9 1 2.55 0.67
0 -9 -1 1.46 0.42
0 -9 -1 2.85 0.68
0 -9 -1 2.54 0.64
0 -9 -1 2.85 0.64
0 9 2 50.4 2.66
0 -9 -2 47.12 2.51
0 -9 -2 51.02 2.84
0 9 2 46.95 3.07
0 -9 -2 48.17 2.66
0 -9 -2 47.73 2.67
0 9 3 79.31 3.93
0 -9 -3 75.44 3.41
0 -9 -3 74.03 3.24
0 -9 -3 77.24 3.46
0 9 3 77.64 3.37
0 -9 -3 74.16 3.37
0 -9 -4 0.43 0.38
0 -9 -4 0.47 0.36
0 -9 -4 -0.16 0.23
0 9 4 0.38 0.38
0 -9 -4 0.29 0.23
0 9 4 0.08 0.22
0 9 5 14.6 1.29
0 9 5 13.74 1.37
0 9 5 15.49 1.4
0 -9 -5 14.98 1.37
0 -9 -5 10.21 1.23
0 -9 -5 15.06 1.41
0 -9 -5 14.18 1.22
0 9 6 48.3 2.53
0 -9 -6 50.65 2.69
0 9 6 47.97 2.39
0 -9 -6 51.45 2.62
0 9 6 54.05 2.63
0 -9 -6 50.72 2.69
0 9 7 25.47 1.58
0 -9 -7 27.25 1.86
0 9 7 24.78 1.59
0 -9 -7 21.58 1.7
0 -9 -7 25.56 1.73
0 9 7 23.84 1.68
0 9 8 5.73 0.78
0 -9 -8 4.42 0.74
0 9 8 4.78 0.72
0 -9 -8 5.09 0.74
0 -9 -8 4.54 0.71
0 9 8 5.48 0.7
0 -9 -9 88.09 3.34
0 9 9 104.91 3.38
0 9 9 90.84 2.92
0 9 9 81.05 3.02
0 -9 -9 98.36 3.23
0 -9 -9 88.67 3.11
0 9 10 21.38 1.1
0 -9 -10 19.99 1.2
0 -9 -10 22.36 1.25
0 -10 3 0.68 0.24
0 -10 3 0.59 0.21
0 10 -3 0.89 0.26
0 -10 3 0.34 0.15
0 10 -2 89.26 2.79
0 -10 2 75.39 2.64
0 -10 2 83.94 3.01
0 10 -2 91.17 2.96
0 -10 2 95.09 3.13
0 -10 2 83.3 2.88
0 -10 1 9.23 0.92
0 -10 1 9.86 1
0 10 -1 9.19 0.92
0 -10 1 9.69 0.97
0 -10 1 8.58 0.83
0 10 -1 9.92 0.95
0 10 0 -0.07 0.22
0 -10 0 0.65 0.31
0 -10 0 -0.06 0.23
0 -10 0 0.29 0.26
0 10 0 0.39 0.24
0 -10 0 0.58 0.25
0 -10 -1 2.73 0.54
0 -10 -1 1.88 0.45
0 -10 -1 2.91 0.54
0 10 1 2.99 0.56
0 10 1 2.31 0.56
0 10 2 31.8 2.11
0 10 2 35.21 1.92
0 -10 -2 29.73 1.83
0 -10 -2 32.03 1.88
0 -10 -2 30.61 1.84
0 10 3 2.3 0.49
0 -10 -3 2.03 0.48
0 -10 -3 2.42 0.5
0 -10 -3 2.2 0.47
0 10 3 2.12 0.56
0 -10 -4 5.65 0.76
0 -10 -4 6.66 0.73
0 10 4 5.95 0.76
0 -10 -4 6.6 0.8
0 10 4 5.81 0.84
0 10 5 68.35 2.64
0 -10 -5 66.8 2.66
0 -10 -5 62.27 2.67
0 10 5 61.5 2.64
0 -10 -6 99.5 3.27
0 10 6 97.22 3.15
0 10 6 101.75 3.24
0 10 6 99.32 3.25
0 -10 -6 93.83 3.31
0 -10 -6 97.22 3.03
0 10 7 61.97 2.28
0 -10 -7 58.68 2.35
0 -10 -7 65.28 2.39
0 10 7 68.08 2.39
0 -10 -7 66.53 2.21
0 10 8 26.35 1.28
1 -10 -6 120.99 3.47
-1 10 6 119.69 3.27
1 -10 -5 6.37 0.7
-1 10 5 5.62 0.55
-1 10 5 5.55 0.56
-1 10 4 4.25 0.53
1 -10 -4 4.42 0.54
-1 10 4 5.25 0.64
1 -10 -3 187.69 4.99
-1 10 3 183.68 5.06
1 -10 -3 181.44 4.82
-1 10 3 181.01 4.65
1 -10 -2 24.68 1.53
-1 10 2 27.53 1.68
1 -10 -2 26.43 1.38
1 -10 -2 27.2 1.57
-1 10 2 27.62 1.47
1 -10 -1 45.87 2.08
-1 10 1 42.71 2.1
-1 10 1 48.29 2
1 -10 -1 45.78 2.17
1 -10 -1 42.78 1.8
1 -10 0 132.02 3.89
1 -10 0 131.62 4.08
-1 10 0 137.95 4.03
1 -10 1 6.94 0.64
-1 10 -1 6.64 0.64
-1 10 -1 7.25 0.67
1 -10 1 7.89 0.75
1 -10 2 83.45 2.5
-1 10 -2 83.8 2.47
1 -9 -9 29.71 1.33
1 -9 -9 32.7 1.59
-1 9 9 37.27 1.6
-1 9 9 34.34 1.41
-1 9 8 0.04 0.18
1 -9 -8 0.12 0.17
-1 9 8 0.13 0.22
-1 9 8 0.2 0.2
1 -9 -8 0.18 0.23
-1 9 7 96.14 3.16
1 -9 -7 98.25 3.2
1 -9 -7 85.54 3.18
-1 9 7 103.52 3.42
-1 9 7 88.28 3.06
1 -9 -7 89.53 3.21
1 -9 -7 96.09 3.51
1 -9 -6 -0.3 0.32
1 -9 -6 0.04 0.21
-1 9 6 0.55 0.27
1 -9 -6 -0.13 0.22
-1 9 6 0.57 0.34
-1 9 6 0.35 0.19
1 -9 -5 25.32 1.75
-1 9 5 24.5 1.59
1 -9 -5 21.11 1.53
1 -9 -5 21.57 1.49
-1 9 5 23.68 1.65
-1 9 5 22.89 1.54
1 -9 -5 21.58 1.56
1 -9 -4 14.82 1.35
-1 9 4 12.73 1.14
1 -9 -4 12.65 1.19
1 -9 -4 12.45 1.19
-1 9 4 14.38 1.37
1 -9 -4 12.58 1.2
-1 9 4 13.67 1.19
1 -9 -3 13.79 1.26
1 -9 -3 15.06 1.3
-1 9 3 14.38 1.26
1 -9 -3 15.23 1.41
1 -9 -3 16.96 1.48
-1 9 3 15 1.51
1 -9 -2 25.37 1.72
1 -9 -2 24.57 1.74
1 -9 -2 29.31 2.05
1 -9 -2 25.88 1.76
1 -9 -2 26.6 1.87
-1 9 2 24.88 1.68
-1 9 2 29.86 2.22
1 -9 -1 9.29 1.05
1 -9 -1 8.79 1.13
1 -9 -1 9.3 0.99
1 -9 -1 7.91 0.97
1 -9 -1 8.01 1.01
-1 9 1 9.86 1.3
-1 9 1 9.58 1.05
-1 9 0 0.27 0.27
1 -9 0 0.34 0.19
-1 9 0 -0.14 0.27
1 -9 0 0.04 0.16
1 -9 0 -0.07 0.21
1 -9 0 -0.02 0.22
1 -9 0 0.16 0.3
1 -9 1 96.96 3.72
1 -9 1 101.66 3.83
1 -9 1 100.73 4.1
-1 9 -1 101.96 3.92
1 -9 1 93.84 3.42
-1 9 -1 102.55 3.82
1 -9 1 98.96 3.84
1 -9 2 35.26 2.05
1 -9 2 37.7 2.13
1 -9 2 35.22 2.14
1 -9 2 32.06 1.91
-1 9 -2 36.47 2.04
-1 9 -2 41.38 2.2
-1 9 -3 6.69 0.73
1 -9 3 6.11 0.79
1 -9 3 8.33 0.91
1 -9 3 7.04 0.82
-1 9 -3 7.21 0.83
1 -9 3 6.85 0.76
1 -9 4 6.37 0.69
1 -9 4 5.41 0.67
1 -9 4 6.12 0.68
1 -9 4 6.82 0.63
-1 9 -4 7.37 0.75
-1 9 -5 0.95 0.26
1 -9 5 0.56 0.22
1 -9 5 1.28 0.27
1 -8 -11 7.85 0.73
1 -8 -11 9.52 0.72
-1 8 11 9.81 0.73
-1 8 11 9.41 0.74
-1 8 10 68.41 2.45
-1 8 10 69.47 2.66
1 -8 -10 61.24 2.44
1 -8 -10 69.33 2.56
-1 8 9 167.55 4.96
1 -8 -9 145.34 4.91
-1 8 9 143.59 4.4
1 -8 -9 164.71 4.81
-1 8 9 174.14 4.75
1 -8 -9 144.73 4.75
1 -8 -9 151.87 4.85
-1 8 8 92.66 3.61
1 -8 -8 79.5 3.58
-1 8 8 93.02 3.49
-1 8 8 81.94 3.31
1 -8 -8 89.32 3.51
1 -8 -8 78.39 3.42
1 -8 -8 75.88 3.42
1 -8 -7 50.27 2.69
1 -8 -7 47.49 2.63
-1 8 7 50.01 2.59
1 -8 -7 44.76 2.59
1 -8 -7 48.6 2.75
-1 8 7 45.69 2.5
1 -8 -6 3.76 0.73
-1 8 6 3.35 0.76
1 -8 -6 3.68 0.74
-1 8 6 3.81 0.71
1 -8 -6 3.53 0.76
1 -8 -6 2.09 0.64
-1 8 6 3.56 0.73
1 -8 -5 45.93 2.64
-1 8 5 50.21 2.66
1 -8 -5 47.12 2.65
1 -8 -5 49.25 2.78
1 -8 -5 45.81 2.79
1 -8 -5 43.91 2.49
-1 8 5 45.17 2.61
1 -8 -4 0.74 0.35
1 -8 -4 0.49 0.24
-1 8 4 0.41 0.39
1 -8 -4 0.56 0.25
1 -8 -4 0.71 0.4
1 -8 -4 0.8 0.38
-1 8 4 0.6 0.33
1 -8 -3 69.05 3.3
-1 8 3 73.13 3.28
1 -8 -3 74.9 3.47
-1 8 3 73.42 3.79
1 -8 -3 69.25 3.34
1 -8 -3 71.28 3.29
1 -8 -3 76.92 3.59
-1 8 2 118.24 5.08
-1 8 2 108.63 4.2
1 -8 -2 109.12 4.2
1 -8 -2 125.94 4.95
1 -8 -2 111.26 4.35
1 -8 -2 117.78 4.53
1 -8 -2 105.74 4.28
-1 8 1 199.78 7.1
1 -8 -1 201.31 6.87
1 -8 -1 190.21 6.14
1 -8 -1 195.95 6.31
-1 8 1 195.8 6.08
1 -8 -1 192.1 6.14
1 -8 -1 185.72 5.89
1 -8 0 21.21 1.81
1 -8 0 21.02 2.04
-1 8 0 18.88 1.9
1 -8 0 19.41 1.67
1 -8 0 18.99 1.67
-1 8 0 19.74 1.66
-1 8 -1 38.3 2.62
1 -8 1 38.32 2.45
1 -8 1 36.91 2.4
1 -8 1 36.93 2.44
-1 8 -1 40.06 2.45
1 -8 1 38.28 2.82
1 -8 2 49.78 2.88
1 -8 2 50.28 2.87
1 -8 2 51.26 2.89
-1 8 -2 48.65 2.81
1 -8 2 46.9 3
-1 8 -2 54.26 2.93
1 -8 3 8.23 1.1
1 -8 3 8.44 1.16
1 -8 3 8.25 1.13
1 -8 3 8.17 1.08
-1 8 -3 9.51 1.2
-1 8 -3 6.69 0.92
1 -8 4 103.57 3.92
1 -8 4 87.84 3.93
-1 8 -4 93.34 3.46
1 -8 4 92.18 3.94
-1 8 -4 99.75 3.95
1 -8 4 85.34 3.5
-1 8 -5 0.45 0.3
1 -8 5 0 0.29
1 -8 5 0.3 0.26
1 -8 5 0.22 0.31
1 -8 5 0.13 0.25
1 -8 6 30.44 1.75
1 -8 6 27.55 1.7
-1 8 -6 31.74 1.73
1 -8 7 6.88 0.69
1 -8 7 8.09 0.76
-1 8 -7 8.12 0.72
1 -8 8 18.76 0.92
-1 7 12 52.9 1.95
-1 7 12 54.06 2.04
1 -7 -12 47.82 1.97
1 -7 -12 54.37 2.12
1 -7 -12 45.61 1.88
1 -7 -12 47.8 1.77
-1 7 11 3.61 0.57
1 -7 -11 3.43 0.6
1 -7 -11 3.67 0.64
1 -7 -11 3.09 0.57
1 -7 -11 3.42 0.57
-1 7 11 4.08 0.66
1 -7 -10 26.47 1.92
-1 7 10 29.02 1.99
1 -7 -10 27.14 1.81
1 -7 -10 25.19 1.92
-1 7 10 26.24 1.75
1 -7 -10 24.09 1.8
-1 7 9 3.19 0.65
1 -7 -9 2.53 0.64
1 -7 -9 2.1 0.57
-1 7 9 2.91 0.72
1 -7 -9 1.59 0.59
1 -7 -9 3.01 0.7
1 -7 -9 2.39 0.55
-1 7 9 2.07 0.51
1 -7 -8 10.05 1.3
1 -7 -8 9.88 1.27
-1 7 8 11.91 1.3
1 -7 -8 10.5 1.37
-1 7 8 11.57 1.33
1 -7 -8 9.57 1.23
1 -7 -8 10.35 1.29
1 -7 -7 2.26 0.63
1 -7 -7 2.63 0.71
-1 7 7 2.63 0.65
-1 7 7 2.23 0.65
1 -7 -7 2.43 0.74
1 -7 -7 2.03 0.59
1 -7 -7 2.46 0.67
1 -7 -6 12.35 1.42
1 -7 -6 11.91 1.36
1 -7 -6 12.43 1.41
-1 7 6 10.72 1.22
-1 7 6 11.24 1.32
1 -7 -6 11.29 1.39
1 -7 -6 10.99 1.38
1 -7 -5 27.15 2.17
1 -7 -5 31.82 2.2
1 -7 -5 30.73 2.18
-1 7 5 29.25 2.14
1 -7 -5 31.57 2.24
1 -7 -5 30.01 2.07
-1 7 5 33.27 2.23
1 -7 -4 6.8 1.01
-1 7 4 6.77 0.97
1 -7 -4 6.21 0.96
-1 7 4 6.32 1.06
1 -7 -4 6.38 0.97
1 -7 -4 5.26 0.94
1 -7 -4 6.55 1.01
1 -7 -4 6.38 0.96
1 -7 -3 34.77 2.29
1 -7 -3 38.43 4
1 -7 -3 35.97 2.29
-1 7 3 35.37 3.71
-1 7 3 37.73 3.9
1 -7 -3 35.71 2.33
1 -7 -3 36.23 2.62
1 -7 -3 39.43 2.51
1 -7 -3 36.04 2.25
-1 7 3 38.08 2.61
-1 7 3 37.16 2.28
-1 7 2 18.9 1.6
-1 7 2 20.56 2.77
1 -7 -2 21.14 1.77
1 -7 -2 24.88 2.03
1 -7 -2 19.54 1.65
1 -7 -2 20.83 2.02
-1 7 2 20.56 2.73
1 -7 -2 17.45 1.58
1 -7 -2 21.97 2.95
-1 7 2 22.36 2.06
-1 7 1 115.29 4.38
-1 7 1 117.75 5.24
1 -7 -1 117.45 4.54
1 -7 -1 125.89 5.14
-1 7 1 114.06 6.74
1 -7 -1 117.6 5.27
-1 7 1 122.09 6.92
1 -7 -1 112.51 4.41
1 -7 -1 108.07 6.65
1 -7 -1 116.29 4.48
1 -7 0 0.03 0.39
1 -7 0 0.31 0.28
1 -7 0 0.77 0.41
-1 7 0 1.16 0.54
1 -7 0 0.25 0.31
-1 7 0 0.8 0.48
-1 7 0 1.3 0.71
-1 7 0 0.08 0.2
1 -7 0 0.6 0.37
-1 7 -1 124.69 5.28
1 -7 1 127.53 4.87
1 -7 1 129.07 4.95
1 -7 1 128 4.89
-1 7 -1 133.61 4.89
1 -7 2 37.85 2.56
1 -7 2 41.31 2.66
-1 7 -2 44.14 2.81
1 -7 2 37.43 2.53
1 -7 2 35.95 2.67
-1 7 -2 43.3 2.68
1 -7 3 205.08 6.89
1 -7 3 212.84 7.06
-1 7 -3 210.17 6.79
-1 7 -3 230.4 7.18
1 -7 3 221.02 7.19
1 -7 3 224.97 7.24
-1 7 -4 3.12 0.73
1 -7 4 2.86 0.75
1 -7 4 2.82 0.77
1 -7 4 2.23 0.53
-1 7 -4 3.27 0.68
1 -7 4 2.94 0.73
-1 7 -4 3.81 0.7
1 -7 5 58.82 3.37
-1 7 -5 53.82 2.7
1 -7 5 65.73 3.17
1 -7 5 52.18 2.85
-1 7 -5 54.22 3.09
-1 7 -5 57.93 2.93
1 -7 5 59.53 3.42
1 -7 6 167.86 5.92
1 -7 6 169.22 5.89
-1 7 -6 179.52 5.75
1 -7 6 180.98 5.34
-1 7 -6 152.65 5.21
1 -7 6 198.12 5.41
-1 7 -6 161.3 5.11
-1 7 -7 10.77 1.1
1 -7 7 12.25 1.26
1 -7 7 10.83 1.2
-1 7 -7 10.38 0.99
-1 7 -7 9.5 0.99
1 -7 8 13.42 1.15
-1 7 -8 9.69 0.88
-1 7 -8 13.16 1.06
1 -7 8 12.2 1.11
-1 7 -8 12.14 0.95
1 -7 9 23.24 1.25
1 -7 9 25.52 1.32
-1 7 -9 22.22 1.09
-1 7 -9 21.52 1.1
1 -6 -13 29.93 1.53
-1 6 13 30.04 1.45
1 -6 -13 27.8 1.5
-1 6 13 29.81 1.38
1 -6 -13 29.19 1.49
1 -6 -12 6.42 0.78
1 -6 -12 7.17 0.88
-1 6 12 8.31 0.85
-1 6 12 6.25 0.64
1 -6 -12 7.42 0.92
1 -6 -12 6.31 0.73
-1 6 12 6.68 0.8
1 -6 -11 99.09 3.85
1 -6 -11 96.11 4.02
-1 6 11 107.35 4.06
1 -6 -11 87.59 3.73
-1 6 11 83.49 3.05
-1 6 11 98.87 3.67
-1 6 10 1.16 0.54
1 -6 -10 0.83 0.48
1 -6 -10 1.31 0.51
-1 6 10 1.65 0.53
1 -6 -10 0.55 0.42
1 -6 -10 1.1 0.45
1 -6 -10 1.18 0.44
1 -6 -9 10.5 1.45
1 -6 -9 11.97 1.4
-1 6 9 12.16 1.41
1 -6 -9 10.85 1.41
-1 6 9 9.79 1.28
-1 6 9 12.01 1.39
1 -6 -9 11.87 1.4
1 -6 -9 11.04 1.46
1 -6 -8 381.49 10.71
-1 6 8 371.56 10.07
1 -6 -8 378.98 10.44
-1 6 8 403.75 10.43
1 -6 -8 410.09 10.73
1 -6 -8 383.25 10.44
1 -6 -8 383.02 10.51
1 -6 -7 14.38 1.64
-1 6 7 14.99 1.54
1 -6 -7 13.07 1.44
1 -6 -7 13.48 1.48
1 -6 -7 11.34 1.44
1 -6 -7 14.28 1.56
-1 6 7 15.34 2.86
1 -6 -7 15.39 2.89
1 -6 -6 19.52 1.77
-1 6 6 18.81 2.69
1 -6 -6 18.45 1.71
-1 6 6 20.85 3.14
1 -6 -6 18.48 1.86
1 -6 -6 18.28 2.95
1 -6 -6 19.72 1.74
1 -6 -6 17.34 1.74
-1 6 6 22.26 1.81
-1 6 5 385.58 14.09
-1 6 5 358.87 13.09
1 -6 -5 380.1 9.63
1 -6 -5 362.11 9.29
1 -6 -5 322.33 9.69
1 -6 -5 422.06 14.8
1 -6 -5 374.16 9.52
1 -6 -5 395.77 9.83
-1 6 5 337.53 9.19
1 -6 -5 372.64 9.53
1 -6 -5 314.75 9.33
-1 6 5 408.82 9.65
1 -6 -4 21.32 1.72
1 -6 -4 19.49 1.72
-1 6 4 21.62 1.75
1 -6 -4 21.67 1.69
-1 6 4 21.1 2.73
1 -6 -4 21.31 1.68
1 -6 -4 22.46 2.96
-1 6 4 25.09 3.08
-1 6 4 21.16 1.67
1 -6 -4 20.22 1.66
1 -6 -4 21.69 1.85
1 -6 -4 21.58 1.73
1 -6 -3 0.73 0.38
1 -6 -3 0.82 0.35
-1 6 3 0.91 0.34
1 -6 -3 0.68 0.33
-1 6 3 0.86 0.48
1 -6 -3 0.86 0.33
1 -6 -3 0.49 0.28
1 -6 -3 0.63 0.79
-1 6 3 1.44 0.77
-1 6 3 0.23 0.4
1 -6 -3 1.11 0.42
-1 6 2 3.62 1.03
1 -6 -2 5.75 0.96
1 -6 -2 4.14 0.7
1 -6 -2 3.9 0.7
1 -6 -2 3.98 0.71
1 -6 -2 3.02 1.05
-1 6 2 4.01 1.14
-1 6 2 3.95 0.7
-1 6 2 5.32 0.89
-1 6 1 3.23 0.98
1 -6 -1 3.71 0.66
1 -6 -1 3.48 0.63
-1 6 1 2.37 0.82
1 -6 -1 3.34 1.02
1 -6 -1 3.94 0.67
-1 6 1 2.73 0.54
-1 6 1 4.96 0.95
1 -6 -1 3.58 0.7
-1 6 0 0.49 0.62
-1 6 0 0.32 0.3
-1 6 0 0.21 0.3
1 -6 0 -0.01 0.37
1 -6 0 0.21 0.28
1 -6 0 0.05 0.2
-1 6 0 0.28 0.37
1 -6 0 0.03 0.21
1 -6 0 1 1.02
1 -6 0 0.46 0.32
1 -6 1 4.35 0.76
-1 6 -1 3.91 1.07
1 -6 1 3.71 1.19
1 -6 1 3.05 1.36
-1 6 -1 3.88 1.16
1 -6 1 2.98 0.65
-1 6 -1 3.23 0.65
1 -6 1 2.92 0.64
-1 6 -1 3.92 0.84
1 -6 1 3.69 0.68
-1 6 -2 375.74 12.73
1 -6 2 363.9 9.49
-1 6 -2 367.56 12.59
-1 6 -2 350.61 9.76
1 -6 2 376.25 9.57
1 -6 2 343.66 13.85
-1 6 -2 362.55 9.42
1 -6 2 335.27 12.37
1 -6 3 34.58 2.45
1 -6 3 32.35 2.33
1 -6 3 29.67 3.38
1 -6 3 31.12 3.76
1 -6 3 29.03 2.23
-1 6 -3 35.15 3.65
-1 6 -3 32.96 2.36
-1 6 -3 32.2 3.46
-1 6 -3 30.28 2.23
1 -6 4 2.82 0.72
1 -6 4 1.01 0.51
-1 6 -4 0.89 0.5
-1 6 -4 3.1 1.31
1 -6 4 1.42 0.93
-1 6 -4 0.82 0.49
1 -6 4 0.72 0.54
-1 6 -4 1.45 0.52
1 -6 4 1.54 0.49
-1 6 -4 1.41 0.57
-1 6 -4 0.54 0.7
1 -6 5 330.94 9.64
1 -6 5 359.27 10.23
-1 6 -5 380.77 10.35
1 -6 5 403.07 10.88
-1 6 -5 341.46 9.41
1 -6 6 6.38 1.09
-1 6 -6 6.66 1.08
-1 6 -6 6.89 1.03
1 -6 6 5.46 0.92
1 -6 6 7 1.22
1 -6 7 1.99 0.63
-1 6 -7 2.11 0.61
-1 6 -7 1.65 0.51
1 -6 7 2.16 0.68
1 -6 8 76.17 3.56
1 -6 8 66.08 3.16
-1 6 -8 70.78 3.2
-1 6 -8 68.42 3.02
-1 6 -9 37.21 2.01
1 -6 9 40.84 2.27
-1 6 -9 42.36 2.06
1 -6 10 127.56 3.74
-1 6 -10 118.96 3.44
1 -6 11 9.59 0.67
1 -6 11 10.27 0.69
-1 6 -11 10.55 0.67
-1 5 14 -0.14 0.15
-1 5 14 0.26 0.15
1 -5 -14 -0.12 0.17
1 -5 -14 0.25 0.19
1 -5 -14 -0.53 0.21
1 -5 -14 -0.05 0.13
1 -5 -13 11.15 1.01
-1 5 13 11.7 0.94
1 -5 -13 15.01 1.26
1 -5 -13 13.32 1.01
1 -5 -13 16.04 1.25
1 -5 -13 12.08 1.11
-1 5 13 15.14 1.06
-1 5 13 15.22 1.16
1 -5 -12 3.1 0.69
1 -5 -12 2.71 0.51
-1 5 12 2.81 0.55
1 -5 -12 2.06 0.51
-1 5 12 3.59 0.65
-1 5 12 3.77 0.71
1 -5 -12 2.08 0.47
1 -5 -12 3.09 0.66
1 -5 -11 30.6 2.11
-1 5 11 32.43 2.22
1 -5 -11 28.39 2.26
-1 5 11 29.16 1.94
1 -5 -11 24.11 1.69
1 -5 -11 24.39 2.05
1 -5 -11 28.58 2.02
-1 5 10 15.78 1.52
1 -5 -10 16.31 1.64
-1 5 10 19.56 1.85
1 -5 -10 14.06 1.31
1 -5 -10 16.6 1.86
1 -5 -10 16.77 1.63
1 -5 -10 13.88 1.69
1 -5 -10 15.42 1.7
1 -5 -9 12.88 1.61
-1 5 9 13.59 1.54
1 -5 -9 13.09 1.59
1 -5 -9 14.53 1.62
-1 5 9 14.04 1.5
1 -5 -9 12.89 1.24
1 -5 -9 14.79 1.58
1 -5 -9 10.98 1.41
1 -5 -8 269.84 12.53
-1 5 8 252.65 7.51
1 -5 -8 235.51 11.97
-1 5 8 242.67 11.19
1 -5 -8 261.39 8.17
-1 5 8 248.78 12.23
1 -5 -8 273.71 8.15
1 -5 -8 256.82 7.88
1 -5 -8 255.3 7.98
-1 5 8 268.8 7.79
1 -5 -8 272.16 8.27
-1 5 7 171.17 8.55
1 -5 -7 193.3 6.23
-1 5 7 182.81 9.81
1 -5 -7 182.92 6.15
-1 5 7 183.92 8.94
1 -5 -7 173.78 9.69
1 -5 -7 204.14 10.07
1 -5 -7 194.36 6.41
1 -5 -7 174.4 6.39
1 -5 -7 173.2 6.19
-1 5 7 212.15 6.27
-1 5 6 57.62 5.04
1 -5 -6 53.24 2.82
1 -5 -6 53.06 4.8
-1 5 6 50.56 4.12
-1 5 6 51.83 4.22
1 -5 -6 55.21 2.88
1 -5 -6 43.54 2.67
1 -5 -6 47.61 2.85
1 -5 -5 124.63 7.04
-1 5 5 125.4 7.06
-1 5 5 111.21 6.19
-1 5 5 115.1 5.92
-1 5 4 661.55 18.67
-1 5 4 652.39 17.74
1 -5 -4 683.59 18.7
-1 5 3 11.94 1.76
-1 5 3 10.58 1.75
1 -5 -3 11.62 1.82
-1 5 2 12.59 1.81
1 -5 -2 13.91 1.95
-1 5 2 13.52 1.83
1 -5 -1 676.19 17.69
-1 5 1 686.35 17.42
-1 5 1 702.73 17.83
1 -5 -1 677.56 19.31
1 -5 0 60.95 4.85
1 -5 0 57.87 3.96
-1 5 0 62.09 4.05
-1 5 0 61.28 3.93
1 -5 1 104 6.48
-1 5 -1 114.82 5.6
-1 5 -1 116.32 5.77
1 -5 1 106.41 5.61
1 -5 2 1.44 0.63
-1 5 -2 0.98 0.51
-1 5 -2 0.46 0.44
1 -5 2 1.08 0.82
-1 5 -3 48.9 3.94
1 -5 3 45.78 3.91
-1 5 -3 48.22 3.81
1 -5 3 43.61 4.2
-1 5 -4 52.61 4.43
1 -5 4 54.27 3.15
1 -5 4 52.42 2.95
1 -5 4 53.18 3
-1 5 -4 46.68 2.65
-1 5 -4 51.98 4.24
1 -5 4 50.28 4.64
-1 5 -4 53.17 3.06
-1 5 -4 51.96 4.44
1 -5 4 52.01 4.49
1 -5 5 2.79 0.78
1 -5 5 3.57 0.8
-1 5 -5 1.96 0.59
1 -5 5 2.25 0.94
-1 5 -5 2 0.93
1 -5 5 2.95 1.15
-1 5 -5 2.6 0.77
1 -5 5 2.56 0.7
-1 5 -5 2.02 1.14
1 -5 6 472.39 12.36
-1 5 -6 424.22 11.34
1 -5 6 466.44 15.97
-1 5 -6 477.51 16.78
1 -5 6 419.15 11.55
1 -5 6 406.14 10.93
-1 5 -6 403.71 10.68
1 -5 7 241.26 8.03
-1 5 -7 233.4 7.09
1 -5 7 227.71 7.56
-1 5 -7 237.38 7.49
1 -5 8 141.42 5.39
-1 5 -8 144.76 5.06
-1 5 -8 135.98 5.22
1 -5 8 150.49 5.84
1 -5 9 247.55 7.56
-1 5 -9 224.47 6.77
-1 5 -9 247.95 6.83
1 -5 9 236.82 7.06
1 -5 10 36.24 2.06
-1 5 -10 37.28 2
1 -5 10 38.38 2.24
-1 5 -10 31.22 1.86
1 -5 11 2.05 0.43
-1 5 -11 1.8 0.38
-1 5 -11 1.62 0.34
1 -5 11 2.02 0.41
1 -5 12 103.9 2.93
-1 5 -12 117.22 2.98
-1 4 15 31.11 1.21
1 -4 -15 33.44 1.35
1 -4 -14 77.13 2.65
1 -4 -14 84.34 2.84
1 -4 -14 76.81 2.66
-1 4 14 80.26 2.68
1 -4 -14 76.54 2.49
-1 4 14 80.92 2.71
-1 4 13 4 0.66
-1 4 13 3.23 0.51
1 -4 -13 2.72 0.58
1 -4 -13 2.7 0.54
-1 4 13 2.8 0.55
1 -4 -13 2.89 0.49
1 -4 -13 2.87 0.59
1 -4 -13 3.67 0.73
-1 4 12 6.51 0.88
1 -4 -12 6.23 0.82
-1 4 12 6.02 0.79
1 -4 -12 5.05 0.79
1 -4 -12 5.35 0.91
1 -4 -12 5.09 0.75
1 -4 -12 4.72 0.86
-1 4 12 6.1 0.9
1 -4 -12 5.33 0.86
1 -4 -11 2.27 0.49
-1 4 11 2.17 0.63
1 -4 -11 2.63 0.78
1 -4 -11 2.07 0.61
1 -4 -11 2.43 0.58
1 -4 -11 2.39 0.59
-1 4 11 2.27 0.57
1 -4 -11 3.2 0.71
1 -4 -10 133.66 5.66
1 -4 -10 164.67 5.61
1 -4 -10 142.65 5.61
-1 4 10 147.42 5.13
-1 4 10 157.02 5.64
1 -4 -10 151.69 5.65
1 -4 -10 155.93 5.15
1 -4 -10 140.89 4.92
1 -4 -10 150.81 5.99
1 -4 -9 90.56 4.22
1 -4 -9 92.44 4.41
-1 4 9 85.21 6.49
1 -4 -9 95.01 4.1
-1 4 9 85.94 3.81
1 -4 -9 80.76 6.88
1 -4 -9 79.9 4.02
1 -4 -9 77.4 6.28
-1 4 9 74.55 6.37
1 -4 -9 86.53 4.23
1 -4 -9 82.12 3.5
-1 4 9 85.18 3.91
1 -4 -8 53.05 3
1 -4 -8 57.59 5.33
1 -4 -8 45.57 4.75
1 -4 -8 48.66 2.88
-1 4 8 47.11 4.45
-1 4 8 47.67 4.25
-1 4 8 49.89 4.93
-1 4 8 54.11 2.88
1 -4 -8 48.97 2.93
1 -4 -8 58.56 3.3
-1 4 8 49.25 2.68
1 -4 -8 54.83 2.68
1 -4 -8 50.36 3.05
-1 4 7 152.36 7.61
1 -4 -7 134.83 8.05
1 -4 -7 161.25 8.43
-1 4 7 139.43 7.19
-1 4 7 147.67 8.18
-1 4 6 25.79 2.77
-1 4 6 25.53 3.07
-1 4 6 24.27 2.75
1 -4 -6 25.04 3.06
1 -4 -6 31.97 3.32
-1 4 5 249.62 9.63
1 -4 -5 242.52 9.53
-1 4 5 240.86 8.81
-1 4 5 234.86 8.51
1 -4 -5 250.15 9.33
1 -4 -4 1114.5 25.39
-1 4 4 1058.49 25.15
-1 4 4 1087.37 24.37
1 -4 -4 1123.74 24.83
1 -4 -3 83.18 4.53
-1 4 3 81.57 4.56
-1 4 3 79.76 4.23
-1 4 3 71.38 3.64
1 -4 -2 295.8 9.23
-1 4 2 292.85 8.99
1 -4 -2 276.27 9.38
-1 4 2 292.62 9.29
-1 4 1 1517.68 31.01
1 -4 -1 1457.68 30.74
-1 4 1 1534.95 30.65
-1 4 0 844.77 19.08
1 -4 0 824.21 20.59
1 -4 0 789.22 18.79
-1 4 0 804.55 18.56
-1 4 -1 123.18 5.36
1 -4 1 115.17 5.25
-1 4 -1 122.89 5.18
1 -4 1 121.55 6.36
1 -4 2 384.67 11.42
-1 4 -2 386.53 9.3
-1 4 -2 400.93 11.41
-1 4 -2 394.31 11.06
-1 4 -3 551.84 14.78
1 -4 3 526.82 16.45
1 -4 3 565.93 15.55
1 -4 4 -0.04 0.31
-1 4 -4 0.99 0.55
1 -4 4 -0.04 0.66
-1 4 -4 0.21 0.3
1 -4 5 79.93 5.65
1 -4 5 86.75 5.84
-1 4 -5 82.53 5.35
-1 4 -5 90.77 5.81
-1 4 -5 86.79 5.69
1 -4 6 14.86 1.63
-1 4 -6 15.29 2.53
-1 4 -6 12.93 2.18
1 -4 6 14.72 2.57
-1 4 -6 12.57 1.3
1 -4 6 14.27 2.44
1 -4 6 16.19 1.85
-1 4 -7 66.72 3.23
1 -4 7 62.44 3.74
-1 4 -7 64.53 5.44
1 -4 7 59.97 3.4
-1 4 -8 707.65 15.67
1 -4 8 693.32 16.25
1 -4 8 723.84 16.95
-1 4 -8 666.18 15.92
-1 4 -9 0.97 0.48
-1 4 -9 0.09 0.27
1 -4 9 0.73 0.52
-1 4 -10 5.78 0.91
1 -4 10 6.82 1.01
-1 4 -10 7.85 0.97
1 -4 10 5.82 1.01
1 -4 11 9.58 1.03
-1 4 -11 8.32 0.92
-1 4 -11 8.17 0.9
1 -4 11 9.74 1.1
-1 4 -12 2.4 0.42
-1 4 -12 1.68 0.34
1 -4 12 3.35 0.51
1 -4 12 3.04 0.54
1 -4 13 29.47 1.26
1 -4 13 30.34 1.24
-1 3 15 242.39 5.4
1 -3 -15 226.99 5.32
1 -3 -15 221.27 5.14
1 -3 -15 242.26 5.57
1 -3 -14 0.41 0.28
1 -3 -14 0.38 0.33
1 -3 -14 0.55 0.24
1 -3 -14 0.74 0.3
1 -3 -14 0.23 0.19
-1 3 14 0.22 0.18
-1 3 14 -0.03 0.22
-1 3 13 3.45 0.62
1 -3 -13 2.36 0.54
1 -3 -13 3.06 0.61
1 -3 -13 2.17 0.57
-1 3 13 2.68 0.53
1 -3 -13 3.4 0.65
1 -3 -12 97.29 3.79
-1 3 12 99.07 3.9
1 -3 -12 96.11 3.83
-1 3 12 98.69 3.49
-1 3 12 106.96 3.97
1 -3 -12 101.57 4.35
1 -3 -12 97.78 3.77
-1 3 11 72.93 3.1
1 -3 -11 65.7 3.45
1 -3 -11 67.32 3.33
1 -3 -11 76.04 3.33
1 -3 -11 76.49 3.83
-1 3 11 73.11 3.41
1 -3 -11 71.85 3.28
1 -3 -11 70.9 3.24
1 -3 -10 596.35 13.9
1 -3 -10 602.22 20.92
1 -3 -10 593.45 13.55
1 -3 -10 577.43 13.86
1 -3 -10 608.86 13.76
1 -3 -10 656.86 15.15
1 -3 -10 589.04 14.38
-1 3 10 598.1 19.05
1 -3 -10 612.64 14.3
-1 3 10 604.86 14.01
-1 3 10 595.6 13.42
1 -3 -9 212.83 6.9
-1 3 9 198.79 6.18
-1 3 9 235.7 10.51
1 -3 -9 215.33 6.67
1 -3 -9 218.95 6.44
1 -3 -9 230.19 7.48
-1 3 9 213.63 6.64
1 -3 -9 201.95 6.87
1 -3 -9 212.82 6.97
1 -3 -9 205.54 6.19
1 -3 -9 206.53 10.85
1 -3 -8 6.01 1.63
-1 3 8 4.99 1.34
-1 3 8 9.56 1.98
-1 3 7 41.68 3.55
1 -3 -7 50.5 4.27
-1 3 7 47.85 3.93
-1 3 6 86.17 4.8
-1 3 6 86.2 4.92
1 -3 -6 93.76 5.47
-1 3 5 182.49 6.91
1 -3 -5 198.7 7.65
-1 3 5 179.8 7.41
-1 3 5 185.42 7
1 -3 -4 28.35 2.47
-1 3 4 29.37 2.55
-1 3 4 25.91 2.09
-1 3 4 24.83 2.22
1 -3 -4 27.5 2.35
-1 3 3 60.73 2.98
1 -3 -3 65.6 3.57
-1 3 3 65.04 3.43
1 -3 -3 65.33 2.82
-1 3 3 64.4 3.59
1 -3 -3 67.96 3.49
-1 3 2 207.05 6.34
1 -3 -2 178.62 6.24
-1 3 2 179.77 5.45
1 -3 -2 202.29 6.53
-1 3 2 199.74 6.57
1 -3 -1 152.47 5.33
-1 3 1 153.04 5.23
-1 3 1 152.83 5.47
1 -3 -1 143.43 5.62
1 -3 0 830.3 19.42
-1 3 0 840.21 17.93
-1 3 0 846.23 18.22
1 -3 0 816.9 18.05
-1 3 -1 3.14 0.7
1 -3 1 3.06 1.11
1 -3 1 3.51 0.76
-1 3 -1 2.63 0.67
-1 3 -2 628.64 14.58
1 -3 2 603.1 16.16
-1 3 -2 580.93 12.85
1 -3 2 618.82 14.73
-1 3 -2 611.75 14.13
-1 3 -3 664.21 14.55
1 -3 3 633.87 17.78
-1 3 -3 719.4 16.27
-1 3 -3 722.8 16.72
1 -3 3 723.49 17.06
-1 3 -4 41.04 2.95
1 -3 4 39.46 3.41
-1 3 -4 44.08 3.27
1 -3 4 42.91 3.36
-1 3 -4 43.66 2.44
1 -3 4 37.75 2.4
-1 3 -4 45.51 3.33
1 -3 5 18.6 2.45
-1 3 -5 17.23 2.1
1 -3 5 19.31 2.45
-1 3 -5 18.69 2.34
1 -3 6 61.9 4.65
-1 3 -6 60.57 4.67
1 -3 6 57.85 4.73
-1 3 -7 94.78 6.27
-1 3 -7 103.26 3.98
1 -3 7 93.83 4.14
1 -3 7 93.25 4.43
1 -3 8 92.46 4.51
1 -3 8 91.66 4.12
-1 3 -8 99.22 6.68
-1 3 -8 97.54 3.95
1 -3 8 86.83 3.91
1 -3 9 1.58 0.52
-1 3 -9 1.79 0.53
1 -3 9 1.23 0.46
1 -3 10 8.37 1.14
-1 3 -10 8.03 1.04
1 -3 10 8.71 1.11
1 -3 10 8.42 1.23
1 -3 11 80.42 3.68
1 -3 11 81.6 3.5
1 -3 11 75.71 3.23
-1 3 -11 80.74 3.33
-1 3 -12 32.55 1.83
1 -3 12 35.59 1.83
-1 3 -12 39.88 1.99
1 -3 12 39.26 2.08
1 -3 12 37.47 2.14
-1 3 -13 65.95 2.28
1 -3 13 66.18 2.37
1 -3 13 64.72 2.39
1 -2 -15 17.66 1.06
-1 2 15 20.34 1.15
1 -2 -15 16.84 1.05
1 -2 -14 134.99 4.31
1 -2 -14 116.03 3.67
-1 2 14 142.56 4.15
1 -2 -14 138.47 4.1
-1 2 14 125.35 3.84
1 -2 -14 131.19 4.07
1 -2 -13 0.26 0.25
-1 2 13 0.59 0.29
1 -2 -13 0.63 0.37
1 -2 -13 0.08 0.2
-1 2 13 0.31 0.32
1 -2 -13 0.97 0.43
1 -2 -13 0.55 0.32
1 -2 -12 5.52 0.95
1 -2 -12 3.98 0.74
-1 2 12 5.41 0.85
1 -2 -12 5.33 0.87
1 -2 -12 4.44 0.87
1 -2 -12 4.4 0.81
-1 2 12 5.18 0.83
1 -2 -11 300.7 8.12
1 -2 -11 298.74 8.15
-1 2 11 303.79 8.12
1 -2 -11 289.06 8.05
1 -2 -11 286.28 8.39
1 -2 -10 2.48 0.67
1 -2 -10 3.68 0.77
1 -2 -10 4.52 0.9
1 -2 -10 3.83 0.78
1 -2 -10 3.65 0.77
1 -2 -10 4.52 0.81
1 -2 -10 3.63 1.31
1 -2 -10 3.22 0.65
-1 2 10 3.3 1.26
-1 2 10 4.23 0.78
-1 2 9 120.67 6.39
1 -2 -9 135.24 4.62
1 -2 -9 132.2 5.02
1 -2 -9 143.39 5.36
-1 2 9 134.82 7.3
1 -2 -9 128.44 7.92
1 -2 -9 121.64 4.59
1 -2 -9 128.47 4.87
1 -2 -9 127.63 4.69
1 -2 -9 133.67 4.67
-1 2 9 126.26 4.55
-1 2 8 372.29 12.67
1 -2 -8 345.37 13.24
1 -2 -7 6.87 1.55
-1 2 7 16.7 2.21
1 -2 -6 64.1 4.19
-1 2 6 67.61 4.19
-1 2 5 53.92 3.33
1 -2 -5 57.48 3.49
-1 2 4 7.65 1.06
-1 2 4 7.02 1.05
1 -2 -4 7.54 1.15
-1 2 3 149.89 5.04
1 -2 -3 156.94 5.19
-1 2 3 149.44 4.77
1 -2 -2 142.37 4.51
-1 2 2 138.59 4.46
1 -2 -2 145.25 4.62
-1 2 2 141.27 4.66
1 -2 -2 115.57 3.76
-1 2 2 124.08 3.87
1 -2 -1 714.91 16.45
-1 2 1 850.31 16.63
1 -2 -1 824.09 16.37
-1 2 1 823.17 16.25
-1 2 1 742.92 15.15
1 -2 0 206.44 4.75
-1 2 0 215.56 5.75
-1 2 0 213.58 5.9
1 -2 0 205.31 5.8
1 -2 0 192.95 6.48
-1 2 -1 182.29 5.17
1 -2 1 175.69 5.32
1 -2 1 165.69 4.01
1 -2 1 165.45 6.23
-1 2 -1 185.39 5.34
1 -2 2 268.2 7.34
1 -2 2 247.52 5.76
-1 2 -2 274.2 7.17
1 -2 2 250.21 8.32
-1 2 -2 257.94 6.83
-1 2 -2 247.7 6.24
-1 2 -3 350.59 9.15
1 -2 3 319.58 10.1
1 -2 3 331.22 9.31
-1 2 -3 350.31 8.13
-1 2 -3 331.86 8.62
1 -2 3 331.74 8.09
-1 2 -4 66.59 3.71
-1 2 -4 60.02 3.18
1 -2 4 54.62 2.72
-1 2 -4 65.04 3.58
1 -2 4 64.88 4.05
1 -2 4 59.5 3.61
-1 2 -4 63.1 2.87
-1 2 -5 11.63 1.71
1 -2 5 11.8 1.78
1 -2 5 12.75 1.33
1 -2 5 9.94 1.67
-1 2 -5 10.42 1.3
-1 2 -5 9.47 1.37
-1 2 -6 0.93 0.44
1 -2 6 1.04 0.44
-1 2 -6 1.08 0.47
-1 2 -7 72.08 5.01
1 -2 7 73.12 3.92
-1 2 -7 68.22 3.98
1 -2 8 -0.17 0.36
1 -2 8 -0.06 0.27
1 -2 8 -0.13 0.34
-1 2 -8 0.04 0.21
-1 2 -9 2.4 1.19
1 -2 9 2.94 0.69
1 -2 9 3.31 0.73
-1 2 -9 3.13 0.71
1 -2 9 3.04 0.77
1 -2 10 34.71 2.32
1 -2 10 34.51 2.29
-1 2 -10 32.47 2.15
1 -2 10 33.89 2.45
-1 2 -11 112.77 4.16
1 -2 11 116.47 4.4
1 -2 11 111.83 4.58
1 -2 11 109.48 4.26
1 -2 12 8.46 1.05
1 -2 12 8.04 0.96
-1 2 -12 9.43 1.02
1 -2 12 9.55 1.13
1 -2 13 3.77 0.59
-1 2 -13 3.23 0.54
1 -2 13 3.89 0.6
-1 2 -13 2.36 0.46
1 -2 13 2.87 0.55
-1 2 -14 0.33 0.14
1 -2 14 0.46 0.2
1 -2 14 0.15 0.15
1 -2 14 0.34 0.18
1 -1 -15 5.52 0.54
1 -1 -15 7.17 0.66
1 -1 -15 5.81 0.6
-1 1 15 5.62 0.6
-1 1 14 44.2 2.07
1 -1 -14 42.44 2.19
1 -1 -14 41.78 2.05
1 -1 -14 41.85 2.04
-1 1 14 40.32 1.92
-1 1 13 0.36 0.22
1 -1 -13 0.78 0.33
1 -1 -13 0.77 0.42
-1 1 13 1.18 0.42
1 -1 -13 1.12 0.42
1 -1 -13 1.27 0.48
1 -1 -13 1.18 0.37
-1 1 12 24.74 1.81
-1 1 12 22.18 1.66
1 -1 -12 24.88 1.76
1 -1 -12 23.06 1.74
1 -1 -12 19.29 1.59
1 -1 -12 24.7 1.95
1 -1 -12 24.57 1.8
1 -1 -11 105.11 4.1
1 -1 -11 106.03 4.4
1 -1 -11 124.26 4.46
1 -1 -11 112.94 4.33
-1 1 11 117.26 4.39
-1 1 11 113.01 4.19
1 -1 -11 118.7 4.77
1 -1 -10 55.42 2.84
1 -1 -10 55.55 3.01
1 -1 -10 62.35 3.01
1 -1 -10 60.4 5.17
-1 1 10 62.83 4.75
1 -1 -10 56.15 2.93
1 -1 -10 68.54 3.44
-1 1 10 58.1 2.82
1 -1 -9 0.34 0.22
1 -1 -9 0.3 0.53
1 -1 -9 0.03 0.28
1 -1 -9 0.33 0.3
-1 1 9 -0.17 0.3
1 -1 -8 4.99 1.35
-1 1 8 5.18 1.3
1 -1 -7 782.36 19.62
-1 1 7 789.26 19.5
1 -1 -7 735.29 20.32
1 -1 -6 26.21 2.66
-1 1 6 35.28 2.85
1 -1 -6 31.81 2.87
1 -1 -6 26.6 1.99
1 -1 -5 190.81 6.95
1 -1 -5 186.31 5.62
1 -1 -5 190.59 6.87
-1 1 4 129.21 4.97
1 -1 -4 131.11 4.9
1 -1 -4 135.29 4.93
1 -1 -4 124.71 3.91
1 -1 -3 6.72 0.67
1 -1 -3 4.8 0.74
-1 1 3 5.91 0.82
1 -1 -2 5.94 0.56
-1 1 2 6.77 0.7
1 -1 -2 6.54 0.69
-1 1 1 2.62 0.44
1 -1 -1 2.75 0.41
1 -1 -1 2.26 0.3
-1 1 1 2.51 0.32
1 -1 -1 2.03 0.35
1 -1 -1 2.94 0.44
1 -1 -1 2.63 0.39
-1 1 0 71.51 1.78
1 -1 0 64.2 2.63
-1 1 0 82.94 2.65
1 -1 0 75.14 2.54
-1 1 0 79.42 2.5
1 -1 0 73.5 2.18
1 -1 1 788.72 15.13
1 -1 1 813.29 15.98
-1 1 -1 805.35 15.69
-1 1 -1 827.53 15.6
-1 1 -2 1.9 0.36
-1 1 -2 3.22 0.46
1 -1 2 1.65 0.57
1 -1 2 1.68 0.45
-1 1 -2 1.78 0.42
1 -1 2 1.64 0.31
1 -1 3 3.06 0.52
-1 1 -3 4.33 0.72
-1 1 -3 3.79 0.57
1 -1 3 3.32 0.84
-1 1 -3 3.24 0.53
1 -1 3 2.66 0.6
-1 1 -3 4.19 0.71
1 -1 4 988.44 19.4
-1 1 -4 943.08 20.76
-1 1 -4 950.37 19.32
-1 1 -4 885.13 19.25
1 -1 4 900.35 20.66
1 -1 4 991.89 21.37
-1 1 -5 15.17 1.57
-1 1 -5 13.25 1.69
1 -1 5 14.97 1.45
1 -1 5 12.7 1.66
1 -1 6 750.57 16.4
-1 1 -6 737.87 18.12
-1 1 -7 412.67 11.91
-1 1 -7 441.76 13.5
1 -1 7 444.37 11.92
1 -1 8 24.89 2.4
-1 1 -8 21.12 2.28
-1 1 -8 25.66 2.97
-1 1 -9 19.82 2.22
1 -1 9 18.6 2.16
-1 1 -9 17.65 1.53
-1 1 -9 21.17 2.88
-1 1 -9 19.38 1.77
1 -1 9 23.74 1.82
1 -1 9 22.2 1.73
1 -1 10 56.37 2.93
-1 1 -10 56.32 2.86
-1 1 -10 55.19 4.87
-1 1 -10 58.28 2.76
1 -1 10 62.85 3.13
1 -1 11 11.43 1.28
-1 1 -11 11.61 1.21
1 -1 11 12.05 1.32
-1 1 -11 10.31 1.11
-1 1 -12 59.62 2.65
1 -1 12 68.52 3.11
-1 1 -12 65.23 2.86
1 -1 12 62.09 3.15
1 -1 12 66.91 3.08
-1 1 -13 3.93 0.57
-1 1 -13 4.45 0.65
1 -1 13 4.29 0.67
1 -1 13 4.06 0.67
1 -1 13 3.07 0.63
-1 1 -14 69.22 2.15
-1 1 -14 67.29 2.24
1 -1 14 67.36 2.44
1 -1 14 63.01 2.4
1 -1 15 27.68 1.18
-1 0 15 34.62 1.6
1 0 -15 35.59 1.47
-1 0 15 35.5 1.47
1 0 -15 35.34 1.48
1 0 -15 32.51 1.45
1 0 -14 -0.03 0.19
-1 0 14 -0.36 0.29
-1 0 14 0.14 0.16
-1 0 13 8.4 0.93
-1 0 13 9.21 0.99
1 0 -13 8.73 1.07
1 0 -13 9.19 1.03
1 0 -13 8.18 0.97
1 0 -12 0.86 0.41
-1 0 12 0.33 0.21
-1 0 12 0.61 0.36
1 0 -12 0.83 0.41
1 0 -12 0.92 0.37
1 0 -11 1.42 0.44
-1 0 11 2.54 0.61
1 0 -11 1.85 0.56
1 0 -11 2.74 0.65
1 0 -11 2.27 0.59
-1 0 11 1.91 0.5
1 0 -10 234.31 6.66
-1 0 10 208.07 6.25
-1 0 10 212.85 9.21
-1 0 10 230.92 6.53
1 0 -10 228.56 10.26
1 0 -10 214.37 6.34
1 0 -10 233.97 6.73
1 0 -10 222.7 6.96
1 0 -9 25.96 1.8
1 0 -9 25.69 1.92
-1 0 9 24.33 2.75
1 0 -9 27.57 1.9
1 0 -9 24.97 3.06
1 0 -9 25.76 1.96
1 0 -8 54.74 4.32
-1 0 8 57 3.95
1 0 -8 48.83 3.63
1 0 -7 568.96 15.3
1 0 -7 587.73 16.65
-1 0 7 624.41 15.76
1 0 -7 608.15 15.71
1 0 -6 880.55 20.92
1 0 -6 907.95 21.25
1 0 -6 927.41 22.05
-1 0 5 0.56 0.34
1 0 -5 0.06 0.43
1 0 -5 0.23 0.41
-1 0 4 256.11 7.5
-1 0 4 252.59 6.1
1 0 -4 236.52 7.02
1 0 -4 237.26 7.53
1 0 -4 247.17 7.14
1 0 -3 325.51 7.56
1 0 -3 307.96 7.96
1 0 -3 308.36 7.74
-1 0 3 294.11 6.69
1 0 -3 303.55 7
-1 0 2 0.51 0.12
-1 0 2 0.74 0.32
1 0 -2 0.38 0.3
1 0 -2 1.1 0.29
1 0 -2 0.6 0.28
1 0 -1 300.62 6.41
1 0 -1 300.81 5.97
1 0 -1 298.86 5.96
1 0 -1 282.72 7.15
1 0 0 75.52 2.12
-1 0 0 74.96 1.92
1 0 0 75.4 2.2
-1 0 -1 1315.89 22.28
1 0 1 1306.81 22.91
1 0 1 1228.88 23.23
-1 0 -1 1245.98 21.85
-1 0 -1 1213.22 22.26
-1 0 -1 1244.28 21.92
-1 0 -2 116.79 3.36
-1 0 -2 120.02 3.76
1 0 2 116.07 3.88
1 0 2 114.39 2.89
-1 0 -2 114.17 3.22
1 0 2 118.12 3.63
-1 0 -3 1188.9 24.13
1 0 3 1178.94 22.86
1 0 3 1180.86 24.36
1 0 3 1279.03 23.21
-1 0 -3 1139.17 22.43
-1 0 -3 1236.77 23.2
1 0 4 489.59 11.75
-1 0 -4 500.39 11.76
1 0 5 94.26 4.12
-1 0 -5 90.88 4.51
-1 0 -6 2.17 0.7
-1 0 -6 3.36 0.94
1 0 6 3.25 0.83
-1 0 -7 516.15 14.57
1 0 7 497.18 13.11
1 0 8 265.62 9.12
-1 0 -8 278.12 10.44
-1 0 -8 251.18 8.88
-1 0 -9 -0.2 0.53
-1 0 -9 0.31 0.37
-1 0 -9 0.02 0.29
1 0 9 -0.05 0.35
1 0 9 0.4 0.34
1 0 10 3.5 0.74
-1 0 -10 3.08 0.75
-1 0 -10 2.82 0.62
1 0 10 4.21 0.79
1 0 10 2.95 0.98
-1 0 -10 2.65 0.62
-1 0 -10 2.34 0.88
-1 0 -10 2.73 1.26
-1 0 -11 179.64 5.6
-1 0 -11 199.99 5.9
-1 0 -11 171.73 5.37
1 0 11 185.69 5.88
-1 0 -11 184.63 6.37
1 0 11 197.11 6.12
-1 0 -12 0.68 0.3
-1 0 -12 1.45 0.51
-1 0 -12 0.68 0.29
1 0 12 1.07 0.44
1 0 12 0.61 0.33
-1 0 -13 0.35 0.36
1 0 13 0.27 0.25
-1 0 -13 0.22 0.25
1 0 13 0.35 0.3
-1 0 -13 0.77 0.33
1 0 13 0.46 0.33
1 0 14 5.06 0.68
1 0 14 3.88 0.6
-1 0 -14 3.97 0.5
1 0 14 4.48 0.65
-1 0 -14 4.28 0.58
1 0 15 2.79 0.35
1 0 15 3.43 0.46
-1 0 -15 3.06 0.38
1 0 15 3.66 0.48
1 1 -15 0.44 0.19
-1 -1 15 1.13 0.29
1 1 -14 22.91 1.32
-1 -1 14 23.82 1.56
1 1 -14 23.87 1.33
-1 -1 14 22.24 1.27
-1 -1 13 12.17 1.09
-1 -1 13 11.21 1.03
1 1 -13 11.56 1.08
1 1 -13 10.33 1.02
-1 -1 12 15.22 1.33
1 1 -12 14.83 1.35
-1 -1 12 16.2 1.36
1 1 -12 15.54 1.52
1 1 -12 16.37 1.41
-1 -1 11 95.85 3.67
1 1 -11 93.19 4.01
1 1 -11 93.66 3.79
1 1 -11 92.49 3.78
-1 -1 11 86.07 3.61
1 1 -10 83.52 3.52
1 1 -10 76.49 5.64
-1 -1 10 75.95 3.22
-1 -1 10 71.19 5.06
1 1 -10 81.17 3.49
1 1 -10 76.38 3.62
-1 -1 10 72.22 3.25
-1 -1 9 11.96 1.9
1 1 -9 14.25 1.43
1 1 -9 14.26 1.34
1 1 -9 13.31 1.3
1 1 -9 13.12 2.25
-1 -1 9 13.46 1.27
-1 -1 9 14.71 1.3
1 1 -8 37.46 3.54
1 1 -8 43 3.57
-1 -1 8 39.13 3.28
1 1 -7 282.48 8.86
-1 -1 7 279.69 9.33
1 1 -7 286.36 10.23
-1 -1 6 441.08 11.94
1 1 -6 446.32 12.73
1 1 -6 437.03 11.57
-1 -1 6 414.79 11.07
1 1 -5 13.6 1.7
1 1 -5 14.43 1.55
-1 -1 5 13.35 1.45
-1 -1 5 14.7 1.64
-1 -1 4 87.63 3.62
1 1 -4 90.65 4.17
1 1 -4 87.47 3.59
-1 -1 4 84.98 3.92
1 1 -4 87.28 2.73
-1 -1 3 1468.61 27.92
1 1 -3 1439.02 27.71
1 1 -3 1448.99 29.1
1 1 -2 1172.31 23.1
1 1 -2 1247.49 23.37
-1 -1 2 1186.02 22.27
1 1 -1 271.31 5.9
-1 -1 1 278.95 5.85
1 1 -1 261.54 6.8
1 1 0 102.69 2.74
1 1 0 102.33 2.87
1 1 1 200.98 4.5
1 1 1 203.91 5.39
1 1 1 200.52 4.64
-1 -1 -1 211.45 4.37
-1 -1 -1 211.25 4.75
1 1 2 7.4 0.75
-1 -1 -2 6.36 0.63
1 1 2 6.12 0.61
-1 -1 -2 7.15 0.8
1 1 3 144.57 4.03
-1 -1 -3 143.63 4.78
1 1 3 149.01 4.22
-1 -1 -3 133.27 4.44
-1 -1 -4 59.98 3.12
-1 -1 -4 64.93 3.3
1 1 4 66.13 2.97
1 1 4 64.2 2.35
1 1 5 466.49 9.85
-1 -1 -5 485.23 12.33
-1 -1 -5 501.9 13.18
1 1 5 489.25 12.13
1 1 6 336.51 10.18
-1 -1 -6 323.29 9.54
1 1 7 652.39 16.59
-1 -1 -7 677.2 17.76
1 1 8 708.52 18.72
-1 -1 -8 757.17 20.29
-1 -1 -8 706.07 18.23
-1 -1 -9 0.75 0.52
-1 -1 -9 1.41 0.8
1 1 9 2.21 0.94
1 1 10 213.55 9.15
-1 -1 -10 204.15 6.2
-1 -1 -10 226.32 10.33
-1 -1 -10 223.18 7.05
1 1 10 205.93 6.01
1 1 10 222.93 6.51
1 1 10 253.18 6.93
-1 -1 -10 253.9 9.64
-1 -1 -10 237.39 7.18
-1 -1 -10 215.43 6.26
-1 -1 -11 247.03 7.52
-1 -1 -11 238 9.7
-1 -1 -11 231.39 6.6
-1 -1 -11 256.76 7.61
1 1 11 209.81 6.17
-1 -1 -11 256.99 11.27
1 1 11 238.08 9.86
-1 -1 -11 220.5 6.53
1 1 11 243.3 6.96
1 1 11 260.49 7.24
-1 -1 -12 27.06 1.77
-1 -1 -12 27.88 1.84
-1 -1 -12 32.06 2.08
-1 -1 -12 31.16 2.25
1 1 12 30.45 2.02
1 1 12 30.92 2.08
1 1 13 10.48 1.15
-1 -1 -13 10.78 1.09
1 1 13 9.43 1.08
-1 -1 -13 8.25 0.93
1 1 14 18.56 1.32
-1 -1 -14 18.79 1.27
-1 -1 -14 21.91 1.44
1 1 14 22.72 1.5
1 1 14 21.64 1.45
1 1 15 5.48 0.62
-1 -1 -15 4.4 0.47
-1 -1 -15 5.33 0.58
1 1 15 6.07 0.64
1 1 15 4.45 0.48
1 2 -14 35.54 1.66
1 2 -14 30.85 1.31
-1 -2 14 35.47 1.75
-1 -2 13 62.5 2.4
-1 -2 13 63.21 2.49
1 2 -13 61.56 2.42
-1 -2 13 64.78 2.83
1 2 -13 58.28 2.4
1 2 -12 17.74 1.4
1 2 -12 18.3 1.4
1 2 -12 17.91 1.32
-1 -2 12 16.72 1.3
-1 -2 12 17.48 1.4
1 2 -11 18.95 1.54
-1 -2 11 21.79 1.66
1 2 -11 21.42 1.66
-1 -2 11 19.67 1.51
1 2 -11 20.86 1.56
-1 -2 10 3.59 0.67
1 2 -10 3.69 0.75
1 2 -10 3.2 1.16
-1 -2 10 3.2 1.03
-1 -2 10 2.56 0.55
1 2 -10 4.49 0.75
1 2 -10 3.17 0.72
1 2 -10 3.14 0.64
-1 -2 9 89.47 3.47
1 2 -9 85.46 3.64
1 2 -9 84.49 3.86
1 2 -9 87.79 5.75
1 2 -9 91.03 3.65
-1 -2 9 89.79 3.69
1 2 -9 97.08 6.21
1 2 -9 93.93 3.69
-1 -2 9 92.9 5.62
-1 -2 8 -0.14 0.36
1 2 -8 -0.22 0.62
-1 -2 7 59.87 4.02
1 2 -7 60.88 4.37
-1 -2 7 60.01 3.94
1 2 -6 873.98 20.77
-1 -2 6 840.86 19.97
-1 -2 6 800.59 19.74
1 2 -5 38.8 2.96
-1 -2 5 38.87 2.95
-1 -2 5 45.3 3.19
1 2 -5 41.07 2.33
1 2 -4 2.05 0.7
1 2 -4 2.06 0.43
1 2 -4 2.91 0.61
-1 -2 4 2.69 0.71
-1 -2 3 3023.09 51.05
1 2 -3 2798.12 51.41
-1 -2 2 162.19 3.99
-1 -2 2 169.91 4.76
1 2 -2 169.18 5.02
1 2 -2 170.89 5.62
1 2 -1 204.07 5.22
1 2 -1 225.91 6.03
1 2 -1 216.4 4.72
-1 -2 1 215.15 5.39
-1 -2 1 216.53 4.76
1 2 0 1981.61 36.19
-1 -2 0 1938.64 36.03
-1 -2 0 2008.52 34.89
1 2 0 1903.59 35.57
1 2 0 1943.93 35.3
1 2 1 722.79 14.2
1 2 1 748.09 14.23
-1 -2 -1 827.87 15.01
1 2 1 755.69 14.26
-1 -2 -1 666.19 14.44
1 2 2 795.3 15.81
1 2 2 778.84 14.48
-1 -2 -2 830.25 15.7
1 2 2 770.45 14.66
1 2 2 781.09 15.11
-1 -2 -3 48.56 2.32
1 2 3 44.09 1.55
1 2 3 46.49 2.43
1 2 3 45.69 2.29
1 2 4 3.75 0.75
1 2 4 4.42 0.74
-1 -2 -4 4.18 0.79
1 2 4 3.26 0.41
-1 -2 -4 4.84 0.95
1 2 5 1.42 0.35
-1 -2 -5 2.53 0.92
1 2 5 1.95 0.6
1 2 5 1.6 0.37
-1 -2 -5 2.71 0.75
1 2 6 9.48 1.48
-1 -2 -6 7.37 1.36
-1 -2 -6 9.21 1.43
1 2 7 213.73 8.64
-1 -2 -7 219.56 9.14
-1 -2 -7 237.99 8.45
-1 -2 -8 1.26 0.68
1 2 8 2.25 0.96
-1 -2 -8 0.65 0.38
-1 -2 -9 167.45 8.86
-1 -2 -9 183.03 7.9
1 2 9 176.43 8.37
-1 -2 -10 514.4 11.71
-1 -2 -10 505.6 17.28
1 2 10 489.47 11.82
-1 -2 -10 484.79 12.25
-1 -2 -10 530.48 12.76
1 2 10 473 11.26
1 2 10 479.44 15.85
1 2 10 495.43 11.7
-1 -2 -11 0.37 0.39
1 2 11 -0.14 0.44
-1 -2 -11 0.4 0.54
-1 -2 -11 0.41 0.41
1 2 11 0.44 0.35
-1 -2 -11 0.59 0.57
1 2 11 0.89 0.38
1 2 11 0.57 0.35
-1 -2 -11 1.23 0.54
1 2 12 169.55 5.39
-1 -2 -12 158.34 5.69
1 2 12 147.89 4.77
-1 -2 -12 155.08 5.07
-1 -2 -12 159.71 5.72
1 2 12 155.78 5.23
1 2 13 3.63 0.55
1 2 13 4.43 0.76
-1 -2 -13 4.19 0.77
-1 -2 -13 4.98 0.79
1 2 13 4.12 0.71
-1 -2 -13 3.61 0.65
1 2 14 85.29 3.19
-1 -2 -14 92.11 3.23
1 2 14 84.46 3.15
-1 -2 -14 79.06 2.97
-1 -2 -15 225.1 5.18
1 2 15 210.1 5.18
1 2 15 212.99 5.21
1 3 -14 4.51 0.48
-1 -3 14 4.33 0.51
1 3 -13 4.5 0.52
1 3 -13 5.4 0.69
-1 -3 13 5.9 0.77
1 3 -12 75.4 2.88
-1 -3 12 75.17 3.36
1 3 -12 75.91 2.83
-1 -3 12 79.4 3.01
1 3 -11 8.17 0.97
-1 -3 11 8.03 1
-1 -3 11 6.43 1.07
1 3 -11 6.94 0.88
1 3 -10 3.2 0.7
1 3 -10 3.9 0.7
-1 -3 10 4.52 0.79
-1 -3 9 28.35 3.1
1 3 -9 28.1 1.97
1 3 -9 31.41 3.55
1 3 -9 26.28 1.91
1 3 -9 26.49 3.32
-1 -3 9 27.59 2.01
-1 -3 8 383.7 12.65
1 3 -8 349.42 9.29
1 3 -8 386.95 9.62
1 3 -8 377.78 13.56
-1 -3 8 408.72 13.24
-1 -3 8 371.73 9.58
1 3 -7 50.87 4.22
-1 -3 7 50.64 4.05
-1 -3 7 50.96 3.93
1 3 -6 26.4 2.83
-1 -3 6 21.87 2.58
-1 -3 6 23.89 2.57
1 3 -5 101.04 5.39
-1 -3 5 102.45 5.44
-1 -3 4 82.99 4.44
1 3 -4 88.05 4.45
-1 -3 4 82.64 3.59
-1 -3 3 349.98 9.41
1 3 -3 336.21 10.07
-1 -3 3 341.09 8.37
1 3 -3 340.98 9.55
1 3 -2 1575.38 31.77
-1 -3 2 1614.63 30.86
-1 -3 2 1658.45 31.88
-1 -3 1 33.07 1.96
-1 -3 1 31.22 1.66
1 3 -1 29.41 1.99
1 3 -1 29.22 1.78
1 3 0 132.41 4.33
1 3 0 131.28 4.07
-1 -3 0 135.87 4.29
-1 -3 0 131.93 3.97
1 3 0 130.08 3.06
1 3 1 4755.68 82.81
-1 -3 -1 4525.49 81.92
1 3 1 4622.51 82.77
-1 -3 -1 4594.31 82.99
1 3 2 144.83 4.29
1 3 2 141.83 3.67
1 3 2 159.89 4.67
-1 -3 -2 146.94 4.65
-1 -3 -2 167.04 5.15
1 3 2 156.99 4.97
-1 -3 -2 153.25 4.56
-1 -3 -3 6.62 0.96
1 3 3 6.37 0.86
1 3 3 6.68 0.95
-1 -3 -3 8.23 1.08
1 3 3 6.55 0.73
-1 -3 -4 1536.76 30.15
1 3 4 1522.84 30.1
-1 -3 -4 1431.15 30.38
1 3 4 1464.18 28.08
1 3 5 31.27 2.2
1 3 5 31.31 1.8
1 3 5 36.42 2.69
-1 -3 -5 36.07 2.73
-1 -3 -5 39.06 3.03
-1 -3 -6 98.88 5.2
1 3 6 85.55 4.78
-1 -3 -6 84.06 4.8
1 3 7 97.1 5.66
-1 -3 -7 90.75 5.63
-1 -3 -8 18.19 2.37
1 3 8 16.47 2.55
-1 -3 -8 14.05 2.45
1 3 9 0.45 0.26
-1 -3 -9 0.87 0.71
-1 -3 -9 -0.17 0.41
-1 -3 -9 0.77 0.42
-1 -3 -9 0.56 0.42
1 3 9 0.19 0.29
-1 -3 -9 -0.07 0.25
1 3 9 -0.1 0.22
1 3 9 0.46 0.43
1 3 9 0.23 0.3
1 3 10 536.9 12.51
1 3 10 554.45 17.88
1 3 10 523.21 12.27
1 3 10 542.85 13.43
-1 -3 -10 524.19 13.13
-1 -3 -10 569.1 17.09
-1 -3 -10 531.62 12.4
-1 -3 -10 568.2 13.84
-1 -3 -10 578.02 12.86
1 3 10 549.59 12.76
-1 -3 -10 547.2 18.84
1 3 11 8.11 1.05
1 3 11 7.67 0.98
-1 -3 -11 8.3 1.1
-1 -3 -11 8.26 1.29
-1 -3 -11 8.53 1.18
1 3 11 8.56 1.12
1 3 12 39.18 2.28
-1 -3 -12 38.56 2.5
1 3 12 35.72 2.08
1 3 12 43.4 2.46
-1 -3 -12 43.3 2.44
-1 -3 -12 40.1 2.68
-1 -3 -12 35.96 2.24
-1 -3 -13 1.13 0.45
1 3 13 1.64 0.43
-1 -3 -13 1.71 0.5
1 3 13 1.68 0.47
-1 -3 -13 1.9 0.6
1 3 13 1.98 0.49
-1 -3 -13 0.81 0.43
1 3 14 71.27 2.82
-1 -3 -14 77.73 2.88
-1 -3 -14 71.59 2.96
-1 -3 -14 76.59 2.87
1 3 14 77.19 2.94
1 3 15 15.46 1.03
-1 -3 -15 16.72 1.05
-1 -3 -15 18.57 1.11
1 3 15 16.9 1.08
1 4 -13 156.83 3.77
1 4 -13 148.63 3.82
1 4 -12 157 4.53
-1 -4 12 164.23 4.89
1 4 -12 154.83 4.39
-1 -4 11 15.85 1.51
1 4 -11 16.25 1.4
-1 -4 11 15.42 1.28
1 4 -11 16.97 1.36
-1 -4 10 162.6 5.94
1 4 -10 171.55 5.45
-1 -4 10 170.25 5.45
1 4 -9 134.84 4.83
-1 -4 9 123.77 4.74
-1 -4 9 126.34 5.26
-1 -4 8 534.78 16.9
-1 -4 8 515.54 12.97
-1 -4 8 508.76 15.62
1 4 -8 504.79 12.24
1 4 -8 525.55 17.29
-1 -4 8 480.84 12.18
-1 -4 7 154.5 5.73
-1 -4 7 138.22 5.2
1 4 -7 148.62 8.04
-1 -4 7 149.9 7.96
1 4 -7 150.56 5.3
-1 -4 7 143.7 7.28
-1 -4 6 155.89 7.48
1 4 -6 154.9 7.9
-1 -4 6 149.03 7.85
-1 -4 5 24.08 2.91
1 4 -5 25.84 2.85
1 4 -4 13.81 1.88
-1 -4 4 14.82 2.05
1 4 -3 5.72 1.1
-1 -4 3 6.98 1.31
-1 -4 3 6.52 1.04
1 4 -3 6.56 1.26
-1 -4 2 14.06 1.38
-1 -4 2 15.43 1.68
1 4 -2 15.49 1.77
1 4 -2 14.42 1.56
-1 -4 1 16.56 1.44
1 4 -1 16.05 1.67
-1 -4 1 16.25 1.59
1 4 -1 14.98 1.45
1 4 0 715.41 16.14
1 4 0 721.02 15.79
-1 -4 0 705.37 15.54
-1 -4 0 744.39 16.11
-1 -4 -1 473.46 11.26
1 4 1 487.65 11.3
-1 -4 -1 480.01 11.48
1 4 1 454.82 9.19
1 4 1 474.05 11.27
1 4 2 1.51 0.34
1 4 2 1.14 0.4
1 4 2 0.9 0.34
-1 -4 -3 31.12 2.12
-1 -4 -3 27.8 2.08
-1 -4 -3 30.44 2.44
1 4 3 28.44 2.21
1 4 3 30.55 1.98
1 4 3 27.88 2.14
-1 -4 -4 91.29 4.08
1 4 4 88.7 3.7
-1 -4 -4 102.22 4.75
1 4 4 92.28 4.31
-1 -4 -4 88.99 4.3
1 4 4 98.04 4.63
1 4 5 378.25 11.02
-1 -4 -5 352.78 10.18
-1 -4 -5 379.56 11.45
1 4 5 372.39 9.76
-1 -4 -6 56.2 4.13
-1 -4 -6 63.61 4.46
1 4 6 56.53 3.82
1 4 6 53.98 3.39
-1 -4 -6 52.9 3.27
1 4 6 62.47 4.25
-1 -4 -7 1.96 0.91
-1 -4 -7 1.22 0.8
1 4 7 3.34 1.04
1 4 7 2.02 0.78
-1 -4 -8 203.41 10.08
1 4 8 216.04 9.99
1 4 8 183.01 8.87
1 4 9 31.29 2.06
1 4 9 32.86 2.43
-1 -4 -9 31.4 2.47
-1 -4 -9 31.71 2.27
-1 -4 -9 28.34 2.07
-1 -4 -9 32.25 3.53
-1 -4 -9 33.45 2.38
1 4 9 30.64 2.19
1 4 9 29.61 1.96
1 4 9 36.05 4.18
1 4 9 24.83 3.27
-1 -4 -9 29.42 3.97
1 4 9 29.13 2.21
-1 -4 -10 131.27 4.88
1 4 10 123.2 4.53
1 4 10 147.51 5.64
-1 -4 -10 142.98 5.79
1 4 10 139.34 8.48
-1 -4 -10 136.11 7.6
-1 -4 -10 130.63 5.17
1 4 10 121.51 7.84
-1 -4 -10 131.58 8.97
-1 -4 -10 135.03 4.96
1 4 10 137.72 4.75
1 4 10 134.43 5.04
1 4 11 33.43 2.16
-1 -4 -11 40.42 2.43
-1 -4 -11 36.12 2.44
1 4 11 39.51 2.45
1 4 11 36.23 2.19
1 4 11 36.83 2.64
-1 -4 -11 36.18 2.27
-1 -4 -11 37.51 2.81
1 4 12 38.55 2.34
-1 -4 -12 34.72 2.32
1 4 12 34.97 2.08
-1 -4 -12 38.22 2.17
1 4 12 35.89 2.1
-1 -4 -12 37.49 2.26
-1 -4 -12 38.17 2.21
-1 -4 -12 39.46 2.7
1 4 13 9.92 1.03
-1 -4 -13 11.61 1.16
-1 -4 -13 11.15 1.08
-1 -4 -13 11.29 1.19
-1 -4 -13 11.62 1.34
1 4 13 11.21 1.05
1 4 13 11.36 1.16
-1 -4 -14 5.82 0.72
1 4 14 5.75 0.75
-1 -4 -14 6.28 0.71
1 4 14 5.52 0.64
-1 -4 -14 4.71 0.67
1 4 14 5.6 0.68
-1 -4 -15 0.1 0.21
1 4 15 0.39 0.22
1 4 15 0.26 0.18
-1 -4 -15 0.32 0.22
-1 -5 12 0.06 0.14
1 5 -12 0.38 0.2
-1 -5 11 0.59 0.31
1 5 -11 0.43 0.3
1 5 -11 0.16 0.17
-1 -5 10 130.34 4.82
-1 -5 10 131.73 4.33
1 5 -10 125.18 4.24
1 5 -10 140.19 4.55
1 5 -9 17.26 1.48
1 5 -9 18.05 1.58
-1 -5 9 15.59 1.52
-1 -5 9 18.42 1.82
1 5 -8 33.11 2.25
1 5 -8 31 2.1
-1 -5 8 31.59 2.45
-1 -5 8 25.61 2.05
-1 -5 7 287.65 11.01
1 5 -7 293.59 12.4
-1 -5 7 306.21 12.47
1 5 -7 298.66 8.38
-1 -5 7 292.12 8.9
1 5 -6 345.82 13.26
1 5 -6 337.16 9.18
-1 -5 6 336.65 12.15
-1 -5 6 330.97 13.09
1 5 -6 320.35 8.61
-1 -5 6 299.06 9.05
-1 -5 6 342.62 9.9
1 5 -6 316.73 8.89
-1 -5 5 57.64 3.32
-1 -5 5 50.07 4.65
1 5 -5 54.28 4.61
1 5 -5 53.89 3.04
-1 -5 4 1.15 0.85
1 5 -4 1.33 0.8
1 5 -4 0.43 0.49
-1 -5 3 7.73 1.54
1 5 -3 5.44 1.21
1 5 -3 5.15 1.24
1 5 -2 9.75 1.62
-1 -5 2 8.84 1.5
-1 -5 2 10.28 1.4
1 5 -2 9.29 1.43
1 5 -1 28.14 2.55
-1 -5 1 28.01 2.46
-1 -5 1 23.76 2.05
1 5 -1 28.55 2.38
-1 -5 0 44.61 2.82
-1 -5 0 47.42 3.11
1 5 0 45.81 3.13
1 5 0 45.81 2.95
1 5 1 26.76 2.19
-1 -5 -1 28.59 2.35
-1 -5 -1 25.8 2.17
1 5 1 26.53 2.26
1 5 2 109.94 4.8
-1 -5 -2 113.58 5.01
1 5 2 113.05 4.86
-1 -5 -2 106.91 4.91
-1 -5 -3 100.48 5.02
-1 -5 -3 112.33 4.87
1 5 3 101.61 4.73
1 5 3 107.49 4.67
-1 -5 -4 11.13 1.49
1 5 4 11.37 1.42
1 5 4 11.47 1.62
1 5 5 670.57 17.54
-1 -5 -5 611.67 15.93
-1 -5 -5 698.07 18
1 5 5 638.8 17
1 5 6 163.26 7.63
-1 -5 -6 137.97 6.88
-1 -5 -6 160.83 7.72
1 5 6 145.91 7.12
1 5 6 136.27 6.71
-1 -5 -7 89.24 5.89
1 5 7 84.99 5.65
1 5 7 97.71 6.25
-1 -5 -7 99.42 6.51
-1 -5 -8 87.43 6.13
1 5 8 79.77 3.56
-1 -5 -8 81.18 6.45
1 5 8 76.79 5.72
-1 -5 -8 81.34 3.8
-1 -5 -8 90.24 4.15
-1 -5 -8 83.44 3.94
1 5 8 78.45 6.08
-1 -5 -8 79.29 3.6
1 5 8 91.64 4.04
1 5 8 80.96 3.66
1 5 8 87.39 3.83
1 5 9 12.86 1.52
1 5 9 10.04 2.22
-1 -5 -9 11.19 1.34
1 5 9 11.39 1.29
-1 -5 -9 13.05 1.45
1 5 9 13.19 2.62
-1 -5 -9 10.6 2.53
1 5 9 12.58 1.44
-1 -5 -9 13.58 1.5
1 5 9 12.32 1.51
-1 -5 -9 12.25 1.54
-1 -5 -10 9.72 1.26
-1 -5 -10 11.1 1.57
1 5 10 9.29 1.34
1 5 10 9.16 1.06
1 5 10 9.21 1.42
-1 -5 -10 11.04 1.31
-1 -5 -10 10.78 1.35
1 5 10 9.77 1.14
1 5 10 10.4 1.34
1 5 11 5.84 0.9
-1 -5 -11 5.47 0.89
1 5 11 5.22 1
1 5 11 4.76 0.83
-1 -5 -11 5.5 0.88
-1 -5 -11 4.17 0.93
-1 -5 -11 4.51 0.78
1 5 11 3.96 0.69
-1 -5 -11 4.3 0.83
1 5 12 0.38 0.23
-1 -5 -12 1.37 0.49
-1 -5 -12 0.88 0.4
1 5 12 0.64 0.35
-1 -5 -12 0.21 0.18
-1 -5 -12 0.37 0.32
-1 -5 -12 0.45 0.45
1 5 12 1.47 0.62
-1 -5 -13 71.36 2.83
-1 -5 -13 60.54 2.5
-1 -5 -13 61.69 2.72
-1 -5 -13 64.71 2.65
1 5 13 65.78 2.69
-1 -5 -13 70.51 3.23
1 5 13 71.8 2.97
1 5 13 59.97 2.46
-1 -5 -14 9.77 0.99
1 5 14 10.23 0.84
-1 -5 -14 10.86 0.81
-1 -5 -14 9.59 0.85
-1 -5 -14 11.58 0.94
1 5 14 11.98 1
1 5 14 8.91 0.73
-1 -5 -15 0.5 0.22
1 5 15 1.26 0.28
-1 -6 11 2.59 0.42
-1 -6 11 1.6 0.27
1 6 -11 2.05 0.37
1 6 -10 1.34 0.35
-1 -6 10 1.15 0.34
-1 -6 10 0.88 0.38
1 6 -9 153.68 4.93
-1 -6 9 149.41 5.17
-1 -6 9 144.6 4.82
-1 -6 8 16.37 1.47
-1 -6 8 17.57 1.79
1 6 -8 18.34 1.61
1 6 -7 0.64 0.35
1 6 -7 0.82 0.43
-1 -6 7 1.09 0.52
-1 -6 7 0.02 0.32
1 6 -6 301.14 8.58
1 6 -6 299.46 8.34
1 6 -6 298.08 8.02
-1 -6 6 298.6 9.13
1 6 -5 4.36 0.88
-1 -6 5 4.73 1.01
1 6 -5 3.66 0.72
-1 -6 5 5.84 1.69
1 6 -5 4.8 0.94
1 6 -5 4.71 1.44
-1 -6 5 4.09 0.82
-1 -6 4 6.6 1.12
-1 -6 4 5.19 1.58
1 6 -4 7.11 1.65
1 6 -4 6.58 1.01
1 6 -4 6.16 0.99
1 6 -4 5.44 0.91
-1 -6 4 6.11 1.02
1 6 -3 2.76 0.63
1 6 -3 3.71 0.71
1 6 -3 3.22 1.22
-1 -6 3 4.05 1.26
1 6 -3 2.68 0.95
1 6 -3 3.72 0.71
-1 -6 3 2.39 0.61
1 6 -2 127.12 6.37
1 6 -2 126.1 6.84
-1 -6 2 130.58 7.01
1 6 -1 0.03 0.29
-1 -6 1 0.09 0.24
1 6 -1 0.74 0.42
-1 -6 1 0.28 0.43
-1 -6 0 29.26 2.87
1 6 0 26.95 2.73
-1 -6 0 26.57 2.45
1 6 0 27.47 2.54
1 6 1 129.29 6.11
1 6 1 117.72 5.56
-1 -6 -1 135.86 6.25
-1 -6 -1 113.95 5.47
1 6 2 313.68 10.09
1 6 2 319.64 10.4
-1 -6 -2 338.19 10.64
-1 -6 -2 298.41 10.1
-1 -6 -3 6.12 1.27
1 6 3 5.71 1.18
1 6 3 6.29 1.26
-1 -6 -3 4.99 1.2
1 6 4 1.32 0.61
-1 -6 -4 0.24 0.32
-1 -6 -4 0.93 0.57
1 6 4 1.4 0.66
-1 -6 -5 255.46 10.72
1 6 5 270.77 10.15
-1 -6 -6 12.27 1.35
-1 -6 -6 14.75 1.36
1 6 6 15.8 1.47
-1 -6 -6 11.22 1.2
1 6 6 12.53 2.25
-1 -6 -6 9.55 1.97
-1 -6 -6 11.74 1.21
1 6 6 14.45 2.23
1 6 6 13.58 1.38
1 6 6 12.26 1.37
1 6 6 11.09 1.29
1 6 7 46.06 2.7
1 6 7 37.77 3.9
-1 -6 -7 41.29 2.48
1 6 7 41.97 2.54
-1 -6 -7 46.41 2.84
-1 -6 -7 34.25 2.4
1 6 7 40.11 2.56
-1 -6 -7 35.37 2.35
-1 -6 -7 40.94 2.36
-1 -6 -8 10.77 1.34
-1 -6 -8 12.94 1.55
1 6 8 9.52 1.28
-1 -6 -8 11.38 2.52
1 6 8 11.72 2.35
1 6 8 10.94 1.29
-1 -6 -8 9.82 1.22
1 6 8 11.69 1.33
1 6 8 11.37 1.42
1 6 9 85.52 4.16
1 6 9 88.29 3.74
-1 -6 -9 77.06 3.78
-1 -6 -9 79.41 3.69
-1 -6 -9 82.8 4.34
1 6 9 77.98 3.78
-1 -6 -9 81.55 3.82
1 6 9 81.57 4.01
-1 -6 -10 126.12 5.05
-1 -6 -10 122.05 4.79
1 6 10 138.48 4.79
1 6 10 140.05 5.61
-1 -6 -10 133.01 4.78
-1 -6 -10 129.41 5.63
1 6 10 139.56 5.27
1 6 10 134.5 5.32
-1 -6 -11 3.94 0.99
1 6 11 3.97 0.71
1 6 11 5.36 0.9
1 6 11 5.52 0.97
-1 -6 -11 4.94 0.83
-1 -6 -11 5.38 0.84
-1 -6 -11 4.28 0.82
-1 -6 -12 29.73 1.88
1 6 12 27.68 1.75
-1 -6 -12 26.11 1.67
1 6 12 29.13 1.91
-1 -6 -12 23.71 1.61
-1 -6 -12 28.08 2.18
-1 -6 -13 64.22 2.52
-1 -6 -13 68.94 2.56
1 6 13 71.19 2.62
-1 -6 -13 69.05 3.02
1 6 13 72.83 2.8
1 6 14 8.64 0.7
-1 -6 -14 9.5 0.73
1 6 14 9.23 0.76
-1 -6 -14 9.66 0.87
1 7 -10 3.04 0.43
-1 -7 10 2.15 0.41
1 7 -10 2.16 0.39
-1 -7 10 2.99 0.43
-1 -7 10 1.77 0.28
1 7 -9 28.27 1.57
-1 -7 9 23.5 1.39
-1 -7 9 26.42 1.59
-1 -7 8 2.91 0.61
-1 -7 8 2.4 0.56
1 7 -8 3.72 0.66
-1 -7 7 7.58 1.06
1 7 -7 7.2 0.97
-1 -7 7 5.86 0.97
1 7 -7 7.27 0.87
1 7 -6 13.29 1.26
1 7 -6 13.43 1.41
-1 -7 6 10.98 1.45
-1 -7 6 12.6 1.5
1 7 -6 13.93 1.36
-1 -7 5 17.08 1.82
1 7 -5 16.51 1.67
1 7 -5 17.49 1.57
-1 -7 5 17.72 1.82
1 7 -5 17.48 1.66
1 7 -4 377 10.1
-1 -7 4 400.91 11
-1 -7 4 385.63 10.44
1 7 -4 392.17 10.31
-1 -7 3 53.75 3.21
-1 -7 3 43.81 2.81
1 7 -3 48.44 2.78
1 7 -3 45.7 4.25
-1 -7 3 48.81 4.96
1 7 -3 44.3 4.54
1 7 -3 47.15 2.85
1 7 -3 46.06 2.79
1 7 -3 43.48 2.61
-1 -7 2 135 5.26
1 7 -2 133.94 4.87
1 7 -2 124.47 7.63
-1 -7 2 134.09 5.25
1 7 -2 126.81 4.81
1 7 -2 122.78 6.89
-1 -7 2 136.68 8.21
1 7 -2 131.69 5.13
1 7 -2 128.54 4.91
-1 -7 2 125.27 4.78
1 7 -2 115.67 4.4
1 7 -1 21.05 2.62
-1 -7 1 23.55 1.94
-1 -7 1 24.22 1.98
1 7 -1 23.71 2.15
1 7 -1 22.31 1.74
1 7 -1 23.85 1.86
-1 -7 1 25.6 3.32
1 7 -1 23.35 3.11
1 7 -1 20.91 1.56
-1 -7 1 22.16 1.71
1 7 -1 22.23 1.76
1 7 0 101.18 4.95
-1 -7 0 93.31 3.76
-1 -7 0 118.57 7.02
1 7 0 98.73 3.88
1 7 0 103.96 4.12
-1 -7 0 107.58 4.21
1 7 0 104 6.35
-1 -7 0 105.54 4.26
1 7 0 102.47 5.74
1 7 0 97.39 3.92
-1 -7 -1 0.8 0.29
1 7 1 0.61 0.4
-1 -7 -1 0.01 0.56
1 7 1 0.15 0.37
1 7 1 0.61 0.38
1 7 1 0.29 0.39
1 7 1 0.44 0.33
-1 -7 -1 0.8 0.62
-1 -7 -2 6.91 0.96
1 7 2 6.69 0.9
-1 -7 -2 7.46 0.95
-1 -7 -2 6.03 1.38
-1 -7 -2 8.87 1.77
1 7 2 8.59 1.36
1 7 2 6.81 1.5
-1 -7 -2 6.89 0.92
1 7 2 7.13 1.47
1 7 2 6.89 0.92
-1 -7 -3 337.17 8.74
1 7 3 335.37 8.71
-1 -7 -3 372.23 12.72
-1 -7 -3 348.98 9.16
1 7 3 347.91 11.76
-1 -7 -3 325.86 11.85
1 7 3 359.14 12.26
-1 -7 -3 343.7 8.72
1 7 3 370.37 10.07
1 7 3 334.59 8.89
-1 -7 -4 76.52 3.32
-1 -7 -4 73.74 3.25
-1 -7 -4 71.35 5.25
-1 -7 -4 77.76 3.58
1 7 4 76.86 3.33
1 7 4 75.22 3.75
1 7 4 68.97 4.81
1 7 4 74 3.37
1 7 5 67.3 3.22
-1 -7 -5 72.73 3.52
-1 -7 -5 69.74 3.2
1 7 5 65.86 3.44
1 7 5 65.59 3.34
1 7 5 62.93 4.75
-1 -7 -5 64.9 5.3
-1 -7 -5 63.78 3.04
1 7 5 69.76 3.34
-1 -7 -6 351.87 14.28
-1 -7 -6 396.09 10.21
1 7 6 373.69 9.69
1 7 6 335.44 9.63
1 7 6 359.02 9.71
-1 -7 -6 370.13 9.42
1 7 6 368.29 9.92
-1 -7 -6 379.01 9.59
1 7 6 352.18 13.13
-1 -7 -7 1.36 0.47
-1 -7 -7 -0.08 0.28
1 7 7 0.14 0.29
1 7 7 0.6 0.36
-1 -7 -7 0.29 0.28
1 7 7 -0.19 0.37
1 7 7 0.4 0.29
-1 -7 -7 0.84 0.39
-1 -7 -8 25.75 1.98
1 7 8 26.81 2.12
-1 -7 -8 26.09 2.08
1 7 8 30.45 2.28
1 7 8 28.39 2.02
-1 -7 -8 29.03 2.37
-1 -7 -8 28.55 2.07
1 7 8 27.7 2.1
1 7 9 670.6 15.14
-1 -7 -9 648.02 15.55
-1 -7 -9 718.72 15.17
1 7 9 711.61 16.09
1 7 9 692.3 15.66
1 7 9 647.8 15.71
-1 -7 -9 699.58 16.65
1 7 10 9.04 1.08
-1 -7 -10 6.34 1.24
-1 -7 -10 8.92 1.22
1 7 10 6.74 1.1
1 7 10 8.72 1.18
1 7 10 6.87 1.15
-1 -7 -10 8.23 1
-1 -7 -11 0.78 0.44
-1 -7 -11 0.8 0.47
-1 -7 -11 1.11 0.35
1 7 11 0.51 0.37
1 7 11 0.51 0.38
1 7 11 0.21 0.31
1 7 12 91.64 3.12
-1 -7 -12 90.56 3.68
-1 -7 -12 90.51 3.3
1 7 12 94.81 3.36
-1 -7 -13 1.87 0.45
-1 -7 -13 1.76 0.34
-1 -7 -13 2.15 0.39
1 7 13 1.59 0.34
1 7 13 2.02 0.41
1 8 -9 106.56 2.66
-1 -8 9 104.31 2.82
-1 -8 8 1.89 0.47
-1 -8 8 1.98 0.39
1 8 -8 2.08 0.37
1 8 -8 1.71 0.39
-1 -8 8 1.66 0.35
-1 -8 7 73.57 3.16
1 8 -7 72.45 2.8
-1 -8 7 62.87 2.71
1 8 -7 69.31 2.91
-1 -8 7 74.69 2.86
-1 -8 6 87.56 3.6
-1 -8 6 84.86 3.84
1 8 -6 84.19 3.56
1 8 -6 89.95 3.21
1 8 -6 82.29 3.34
-1 -8 6 80.54 3.46
-1 -8 5 95.65 4.46
-1 -8 5 87.22 3.95
-1 -8 5 97.82 4.15
1 8 -5 106.86 4.32
1 8 -5 92.48 3.83
1 8 -5 101.34 3.83
-1 -8 4 62.57 3.59
1 8 -4 61.81 3.3
1 8 -4 57.98 3.01
-1 -8 4 59.39 3.31
-1 -8 4 53.21 3.05
1 8 -4 59.3 3.08
-1 -8 3 1.23 0.55
1 8 -3 0.9 0.38
1 8 -3 0.2 0.28
1 8 -3 0.7 0.43
-1 -8 3 0.72 0.41
1 8 -3 0.45 0.37
-1 -8 3 0.93 0.46
-1 -8 2 198.61 6.59
1 8 -2 178.64 6
-1 -8 2 177.5 5.97
-1 -8 2 192.73 6.63
1 8 -2 176.59 6.21
1 8 -2 170.91 5.54
1 8 -2 184.69 6.2
-1 -8 1 111.49 4.35
-1 -8 1 124.92 4.91
1 8 -1 110.53 4.93
1 8 -1 110.98 4.4
-1 -8 1 117.9 4.87
1 8 -1 117.43 4.64
1 8 0 170.48 6.69
-1 -8 0 177.48 6.12
1 8 0 173.48 5.66
-1 -8 0 179.23 5.75
-1 -8 0 168.9 5.55
-1 -8 0 189.91 6.16
1 8 0 179.02 5.91
-1 -8 -1 62.6 3.16
1 8 1 62.85 3.14
1 8 1 66.14 4.01
-1 -8 -1 63.93 3.33
1 8 1 60.06 2.96
-1 -8 -1 66.15 3.16
-1 -8 -1 61.87 2.93
1 8 2 6.44 1.25
1 8 2 5.59 0.83
-1 -8 -2 7.16 0.99
-1 -8 -2 6.73 0.94
-1 -8 -2 6.65 1
1 8 2 6.9 1
-1 -8 -3 63.38 3.09
1 8 3 66.42 3.77
-1 -8 -3 57.47 3.11
1 8 3 54.8 2.81
-1 -8 -3 57.5 2.93
1 8 3 57.74 3.01
1 8 4 7.86 1.02
-1 -8 -4 7.98 1.11
1 8 4 9.8 1.39
-1 -8 -4 7.58 1.01
-1 -8 -4 7.41 1
-1 -8 -4 8.4 1.06
1 8 4 9.03 1.16
-1 -8 -5 2.65 0.66
-1 -8 -5 1.1 0.52
1 8 5 1.02 0.35
1 8 5 2.17 0.53
1 8 5 1.47 0.51
-1 -8 -5 1.11 0.4
1 8 5 0.9 0.39
1 8 6 16.34 1.65
-1 -8 -6 21.41 1.89
1 8 6 20.88 1.75
1 8 6 19.59 1.64
-1 -8 -6 19.74 1.71
-1 -8 -6 19.64 1.64
1 8 6 19.92 1.76
1 8 7 228.06 6.86
-1 -8 -7 237.18 6.89
-1 -8 -7 237.76 7.53
-1 -8 -7 221.73 6.96
1 8 7 230.43 6.83
1 8 7 223.41 6.95
1 8 8 82.92 3.65
1 8 8 78.61 3.56
-1 -8 -8 86 4.11
1 8 8 86.76 3.85
-1 -8 -8 84.39 3.57
-1 -8 -8 79.29 3.7
1 8 8 82.47 3.45
-1 -8 -9 23.03 1.86
1 8 9 20.17 1.68
-1 -8 -9 20.28 1.93
1 8 9 23.12 1.62
1 8 9 22.84 1.78
1 8 9 19.82 1.75
1 8 10 154.04 5.27
-1 -8 -10 152.16 4.32
-1 -8 -10 174.76 5.32
1 8 10 142.27 4.76
-1 -8 -10 163.08 5.74
1 8 10 160.87 4.7
1 8 10 174.14 5.29
-1 -8 -11 11.6 1.23
1 8 11 10.76 0.95
-1 -8 -11 10.58 1.07
1 8 11 12.27 1.09
-1 -8 -11 10.01 0.77
-1 -8 -12 9.13 0.9
1 8 12 9.59 0.8
1 8 12 9.27 0.74
-1 -8 -12 9.58 0.81
-1 -9 7 114.82 3.07
1 9 -7 96.89 2.73
-1 -9 6 8.57 0.87
1 9 -6 7.32 0.76
-1 -9 6 7.04 0.66
-1 -9 6 8.71 0.74
-1 -9 6 7.58 0.76
-1 -9 5 115.7 3.76
-1 -9 5 128.02 4.37
1 9 -5 126.21 4.04
1 9 -5 120.13 3.67
-1 -9 5 135.16 4.14
1 9 -5 137.39 3.79
-1 -9 4 19.26 1.67
-1 -9 4 21.45 1.61
1 9 -4 22.18 1.62
-1 -9 4 18.69 1.43
1 9 -4 20.16 1.38
1 9 -4 21.79 1.47
-1 -9 3 129.61 4.82
-1 -9 3 119.01 4.38
-1 -9 3 129.55 5.02
1 9 -3 131.67 4.62
1 9 -3 130.29 4.54
1 9 -3 140.33 4.44
1 9 -2 204.46 6.16
-1 -9 2 195.28 6.02
-1 -9 2 211.25 6.78
1 9 -2 198.72 6.21
1 9 -2 207.61 6.4
-1 -9 2 205.95 6.54
1 9 -1 122.78 4.45
-1 -9 1 133.78 4.95
-1 -9 1 129.89 5.09
1 9 -1 119.3 4.84
-1 -9 1 121.62 4.4
1 9 -1 132.52 4.85
1 9 0 270.55 8.51
1 9 0 271.83 7.52
-1 -9 0 285.41 8.28
-1 -9 0 278.41 7.49
-1 -9 0 289.56 8.1
1 9 0 294.22 8.07
-1 -9 -1 100.42 3.95
-1 -9 -1 97.87 4.2
1 9 1 96.7 4.76
-1 -9 -1 98.42 4.04
1 9 1 91.24 3.65
1 9 1 97.31 4.01
1 9 2 354.7 9.13
-1 -9 -2 377.09 9.67
-1 -9 -2 387.57 10.07
1 9 2 394.1 11.15
-1 -9 -2 395.6 9.78
1 9 2 386.07 9.78
-1 -9 -3 202.03 6.21
1 9 3 225.14 7.48
1 9 3 189.77 5.83
-1 -9 -3 206.58 6.4
-1 -9 -3 214.34 6.42
-1 -9 -3 212.3 6.65
1 9 3 209.59 6.36
-1 -9 -4 11.72 1.16
-1 -9 -4 10.52 1.25
1 9 4 12.24 1.49
1 9 4 9.93 1.06
-1 -9 -4 11.55 1.28
-1 -9 -4 10.63 1.16
1 9 4 12.37 1.29
-1 -9 -5 8.56 1.11
1 9 5 9.63 1.25
-1 -9 -5 8.25 1.15
1 9 5 7.85 0.95
-1 -9 -5 8.01 1.01
1 9 5 8.94 1.13
1 9 6 24.73 1.91
-1 -9 -6 26.47 1.8
1 9 6 21.12 1.6
-1 -9 -6 25.37 1.91
-1 -9 -6 26.28 2.07
1 9 6 28.69 1.98
1 9 7 8.15 1.04
1 9 7 8.44 1
-1 -9 -7 8.07 1.13
1 9 7 8.07 0.91
-1 -9 -7 6.61 0.88
1 9 7 9.68 1.22
-1 -9 -7 6.5 0.94
1 9 7 8.26 1.06
-1 -9 -8 -0.39 0.31
1 9 8 0.02 0.23
1 9 8 0.04 0.22
1 9 8 -0.21 0.23
1 9 8 0.03 0.25
-1 -9 -8 0.14 0.25
-1 -9 -8 0.3 0.25
1 9 9 1.2 0.35
1 9 9 0.71 0.31
-1 -9 -9 0.68 0.41
-1 -9 -9 0.57 0.28
1 9 9 0.37 0.23
1 9 10 24.38 1.29
-1 -9 -10 25.96 1.7
1 9 10 27.64 1.51
-1 -9 -11 15.99 0.96
-1 -9 -11 14.58 1
1 9 11 13.58 0.86
1 9 11 13.67 0.79
-1 -10 4 4.43 0.55
1 10 -4 3.96 0.43
-1 -10 4 4.51 0.52
-1 -10 4 4.69 0.53
-1 -10 3 38.84 1.86
1 10 -3 35.43 1.62
-1 -10 3 38.19 1.97
1 10 -3 38.79 1.67
-1 -10 2 4.78 0.69
1 10 -2 5.26 0.65
-1 -10 2 4.35 0.68
1 10 -2 4.03 0.56
-1 -10 2 4.64 0.72
1 10 -2 4.44 0.64
-1 -10 1 203.07 5.83
-1 -10 1 207.93 6.07
1 10 -1 195.33 5.33
1 10 -1 192.45 5.64
-1 -10 1 202.13 5.97
1 10 -1 211.9 5.81
-1 -10 0 14.95 1.3
-1 -10 0 15.83 1.43
-1 -10 0 15.71 1.41
1 10 0 13.98 1.34
1 10 0 14.03 1.12
1 10 0 15.54 1.31
-1 -10 -1 8.75 0.99
1 10 1 9.02 0.9
-1 -10 -1 8.33 1.02
1 10 1 8.36 1.1
-1 -10 -1 10.13 1.13
1 10 1 11.11 1.13
-1 -10 -2 185.69 5.66
1 10 2 180.18 5.43
1 10 2 162.76 4.8
-1 -10 -2 177.77 5.33
-1 -10 -2 180.91 5.42
1 10 2 181.29 6.15
-1 -10 -3 23.88 1.57
1 10 3 23.19 1.92
-1 -10 -3 26.27 1.81
1 10 3 21.4 1.38
-1 -10 -3 22.43 1.58
1 10 3 24.43 1.68
-1 -10 -3 23.33 1.59
-1 -10 -4 116.16 3.89
-1 -10 -4 118.84 4.23
-1 -10 -4 104.82 3.85
1 10 4 105.35 3.47
1 10 4 115.88 4.42
1 10 4 125.89 4.13
-1 -10 -5 32.22 1.91
1 10 5 36.13 2.15
1 10 5 34.45 1.96
-1 -10 -5 35.73 2.1
1 10 5 29.31 1.57
-1 -10 -5 34.56 1.86
1 10 6 96.66 3.53
-1 -10 -6 97.63 3.55
1 10 6 98.79 3.39
1 10 6 103.4 3.58
-1 -10 -6 104.05 3.81
-1 -10 -6 100.23 3.38
-1 -10 -7 28.05 1.48
-1 -10 -7 28.92 1.67
1 10 7 29.26 1.67
1 10 7 26.58 1.49
-1 -10 -7 26.57 1.7
1 10 7 24.9 1.47
-1 -10 -8 7.73 0.79
-1 -10 -8 6.89 0.82
1 10 8 6.38 0.66
1 10 8 6.04 0.72
-1 -10 -9 52.41 1.91
-1 -10 -9 52.93 2.07
1 10 9 47.84 1.73
-1 -11 0 2.35 0.37
-1 -11 0 2.57 0.4
1 11 1 1.14 0.29
1 11 1 1.84 0.37
-1 -11 -1 1.45 0.32
1 11 2 3.69 0.59
-1 -11 -2 5 0.62
1 11 2 3.15 0.46
-1 -11 -2 4.17 0.53
-1 -11 -3 45.98 1.99
1 11 3 44.63 1.88
1 11 3 44.52 2.05
-1 -11 -3 43.48 1.8
-1 -11 -4 12.43 0.96
-1 -11 -4 11.46 0.83
1 11 4 11.77 0.96
1 11 4 13.37 0.95
-1 -11 -5 10.15 0.83
1 11 5 10.26 0.81
2 -9 -7 44.85 1.97
2 -9 -7 38.63 1.7
-2 9 7 42.64 1.62
-2 9 7 38.7 1.61
2 -9 -6 21.4 1.43
-2 9 6 21.15 1.2
2 -9 -6 17.55 1.21
-2 9 6 21.25 1.24
2 -9 -5 192.75 5.3
-2 9 5 186.53 4.77
-2 9 5 190.23 4.82
2 -9 -5 178.47 4.89
2 -9 -5 174.82 4.96
-2 9 5 167.1 4.34
2 -9 -4 41.26 2.12
-2 9 4 40.81 2
2 -9 -4 33.54 1.85
2 -9 -4 38.3 2.02
-2 9 4 34.7 1.73
-2 9 4 34.1 1.63
2 -9 -3 50.42 2.43
-2 9 3 49.86 2.44
2 -9 -3 49.77 2.45
2 -9 -3 47.91 2.26
-2 9 3 45.15 2
-2 9 2 2.44 0.57
2 -9 -2 1.87 0.52
2 -9 -2 4.01 0.62
2 -9 -2 3.76 0.66
-2 9 2 1.96 0.42
2 -9 -1 39.67 2.01
2 -9 -1 40.88 2.35
-2 9 1 43.82 2.38
2 -9 -1 45.41 2.25
2 -9 -1 42.13 2.19
-2 9 1 40.54 1.94
-2 9 0 15.05 1.28
2 -9 0 13.98 1.11
2 -9 0 14.25 1.19
2 -9 0 17.55 1.47
2 -9 0 16.18 1.28
-2 9 0 15.61 1.15
-2 9 -1 55.1 2.42
-2 9 -1 57.08 2.33
2 -9 1 48 2.13
2 -9 1 51.42 2.15
2 -9 1 56.16 2.47
2 -9 1 50.88 2.46
-2 9 -2 1.07 0.3
2 -9 2 0.84 0.26
2 -9 2 0.44 0.19
2 -9 2 0.95 0.35
-2 9 -2 1.01 0.28
2 -9 2 0.83 0.35
-2 9 -3 13.13 0.84
2 -9 3 12.64 0.95
-2 9 -3 13.05 0.92
2 -9 3 13.41 0.9
2 -9 4 26.56 1.21
-2 9 -4 26.69 1.18
-2 8 10 4.07 0.45
2 -8 -10 3.53 0.44
2 -8 -10 4.17 0.5
2 -8 -9 128.13 3.69
2 -8 -9 133.81 4.15
-2 8 9 161.95 4.08
2 -8 -9 156.46 4.47
-2 8 9 143.5 3.96
2 -8 -8 66.34 2.53
2 -8 -8 72.35 3.06
2 -8 -8 67.36 2.95
-2 8 8 72.16 2.76
2 -8 -7 5.94 0.87
-2 8 7 5.88 0.8
2 -8 -7 4.46 0.76
2 -8 -7 4.4 0.67
-2 8 7 5.58 0.76
-2 8 6 227.31 6.45
2 -8 -6 243.56 6.96
2 -8 -6 230.78 6.72
2 -8 -6 239.88 6.47
-2 8 5 1.05 0.39
2 -8 -5 1.55 0.5
2 -8 -5 1.48 0.42
2 -8 -5 1.67 0.5
-2 8 5 0.89 0.32
2 -8 -4 252.14 7.14
-2 8 4 249.85 7.08
2 -8 -4 235.23 6.99
-2 8 4 231.5 6.38
2 -8 -4 232.03 6.8
2 -8 -3 82.28 3.63
-2 8 3 82.71 3.74
2 -8 -3 81.94 3.57
2 -8 -3 77.96 3.41
2 -8 -3 81.97 3.74
-2 8 3 74.35 3.12
2 -8 -2 222.5 6.71
-2 8 2 221.13 7.09
2 -8 -2 221.05 6.61
2 -8 -2 217.19 6.43
2 -8 -2 225.09 7.09
-2 8 2 208.81 6.1
2 -8 -1 401.91 10.02
-2 8 1 412.98 10.86
2 -8 -1 378.92 9.68
2 -8 -1 404.72 10.77
2 -8 -1 397.04 10.06
-2 8 1 378.1 9.48
2 -8 0 63.61 3.14
2 -8 0 59.59 3.49
2 -8 0 69.04 3.67
-2 8 0 65.28 3.42
2 -8 0 64.56 3.01
2 -8 0 66.64 3.19
2 -8 0 59.9 2.75
-2 8 0 61.96 2.91
2 -8 1 4.33 0.67
2 -8 1 3.33 0.67
2 -8 1 3.69 0.76
2 -8 1 3.15 0.66
-2 8 -1 4.13 0.72
-2 8 -1 3.47 0.68
2 -8 1 3.54 0.85
-2 8 -2 49.86 2.66
-2 8 -2 53.84 2.68
2 -8 2 55.32 2.59
2 -8 2 54.9 2.85
2 -8 2 47.47 2.67
2 -8 2 47.77 2.5
2 -8 2 45.93 2.72
2 -8 3 58.02 2.64
-2 8 -3 61.2 2.72
2 -8 3 58.18 2.92
2 -8 3 57.31 2.5
2 -8 3 58.87 2.82
-2 8 -3 63.66 2.92
2 -8 4 83.6 3.1
2 -8 4 88.99 3.55
-2 8 -4 98.8 3.26
2 -8 4 103.93 3.45
-2 8 -4 96.01 3.51
-2 8 -5 2.71 0.49
2 -8 5 2.47 0.5
2 -8 5 2.39 0.38
-2 8 -6 22.31 1.23
2 -8 6 21.25 1.22
-2 7 11 0.05 0.15
2 -7 -11 -0.06 0.17
2 -7 -11 0.09 0.15
-2 7 11 0.29 0.15
2 -7 -11 0.21 0.19
2 -7 -11 0.54 0.24
2 -7 -10 30.09 1.66
-2 7 10 33.09 1.74
2 -7 -10 27.91 1.53
2 -7 -10 30.47 1.91
-2 7 10 31.75 1.73
2 -7 -9 8.87 1.14
-2 7 9 9.75 1.05
2 -7 -9 8.82 1.14
2 -7 -9 10.03 1.05
2 -7 -9 9.82 1.03
-2 7 9 9.08 1.02
2 -7 -8 25.76 2.04
2 -7 -8 24.86 1.77
-2 7 8 26.01 1.86
2 -7 -8 23.92 1.92
2 -7 -8 23.95 1.81
-2 7 8 25.71 1.84
2 -7 -7 81.62 3.83
2 -7 -7 77.19 3.57
2 -7 -7 81.45 3.76
2 -7 -7 81.68 3.77
2 -7 -6 4.97 0.89
2 -7 -6 4.2 0.8
2 -7 -6 5.34 0.95
2 -7 -6 4.25 0.83
-2 7 6 4.62 0.8
2 -7 -6 4.01 0.84
2 -7 -5 105.97 4.36
-2 7 5 98.8 4
2 -7 -5 91 4.28
2 -7 -5 95.19 4.11
2 -7 -5 94.51 4.11
-2 7 5 101.5 3.89
2 -7 -4 21.93 1.8
-2 7 4 21.88 1.85
2 -7 -4 21.04 1.81
2 -7 -4 21.54 1.84
2 -7 -4 19.16 1.76
-2 7 4 22.27 1.69
2 -7 -3 38.63 2.46
2 -7 -3 37.53 2.65
2 -7 -3 37.82 2.44
2 -7 -3 37.41 2.36
-2 7 3 35.34 2.19
2 -7 -3 39.44 2.6
-2 7 3 37.81 2.59
2 -7 -2 707.55 15.98
2 -7 -2 703.05 15.97
2 -7 -2 748.42 17.13
-2 7 2 751.04 17.02
2 -7 -2 739.49 16.72
2 -7 -2 686.42 15.67
-2 7 2 678.16 15.36
2 -7 -1 14.54 1.47
2 -7 -1 13.81 1.65
-2 7 1 15.2 1.75
2 -7 -1 17.06 1.79
2 -7 -1 12.88 1.38
-2 7 1 12.64 1.29
-2 7 0 21 2.09
2 -7 0 19.11 1.73
2 -7 0 21.93 1.83
2 -7 0 20.76 1.64
2 -7 0 17.66 1.95
2 -7 0 18.89 1.95
-2 7 0 19.82 1.63
-2 7 -1 113.56 4.96
2 -7 1 115.81 4.65
2 -7 1 117.03 4.39
2 -7 1 105.96 5.04
2 -7 1 118.52 4.7
2 -7 1 121.77 5.43
-2 7 -1 116.45 4.45
-2 7 -2 0.86 0.44
2 -7 2 1.51 0.57
2 -7 2 1.01 0.53
2 -7 2 1.26 0.42
2 -7 2 1.28 0.57
-2 7 -2 1.04 0.4
2 -7 2 1.36 0.49
-2 7 -3 30.27 2.16
2 -7 3 32.4 2.21
2 -7 3 34.71 2.43
2 -7 3 31.15 2.28
2 -7 3 29.71 2.13
2 -7 3 32.8 2.38
-2 7 -3 32.84 2.28
2 -7 4 37.88 2.33
2 -7 4 36.93 2.38
-2 7 -4 40.1 2.34
2 -7 4 42.54 2.74
2 -7 4 42.86 2.52
-2 7 -4 43.68 2.64
2 -7 5 3.28 0.59
-2 7 -5 2.73 0.53
2 -7 5 3.09 0.6
2 -7 5 2.95 0.7
2 -7 5 2.24 0.52
-2 7 -5 3.28 0.67
2 -7 6 2.98 0.58
2 -7 6 3.77 0.67
-2 7 -6 3.59 0.67
2 -7 7 46.44 2.21
-2 7 -7 44.54 2.1
2 -7 8 21.39 1.21
2 -7 8 17.66 0.97
-2 7 -8 21.02 1.18
2 -6 -13 20.42 1.05
2 -6 -13 22.96 1.1
2 -6 -12 84.86 2.84
2 -6 -12 90.65 3.1
2 -6 -12 84.78 2.77
2 -6 -12 84.74 2.77
-2 6 12 80.9 2.52
-2 6 12 90.5 2.72
2 -6 -11 29.31 1.75
-2 6 11 33.38 1.81
-2 6 11 31.57 1.74
2 -6 -11 31.99 2.06
2 -6 -11 29.36 1.78
2 -6 -11 28.34 1.81
2 -6 -10 4.25 0.72
2 -6 -10 4.49 0.91
-2 6 10 5.38 0.79
2 -6 -10 4.17 0.86
-2 6 10 6.07 0.9
2 -6 -10 4.02 0.74
2 -6 -10 4.88 0.8
-2 6 9 35.83 2.28
2 -6 -9 39.11 2.37
2 -6 -9 30.19 2.39
2 -6 -9 34.85 2.37
2 -6 -9 30.97 2.42
-2 6 9 34.52 2.28
-2 6 8 41.3 2.56
2 -6 -8 36.99 2.43
2 -6 -8 35.58 2.57
2 -6 -8 34.2 2.55
2 -6 -8 37.15 2.63
2 -6 -7 53 3.14
2 -6 -7 55.1 3.09
2 -6 -7 58.53 3.27
2 -6 -7 49.54 3.15
2 -6 -6 22.32 1.97
2 -6 -6 19.59 1.85
2 -6 -6 22.25 1.94
2 -6 -6 21.61 1.8
2 -6 -6 18.41 1.85
-2 6 5 12.45 1.31
2 -6 -5 13.13 1.5
2 -6 -5 14.54 2.65
2 -6 -5 13.17 1.54
-2 6 5 12.53 2.31
2 -6 -5 13.9 1.47
2 -6 -5 13.4 1.44
-2 6 5 15.16 2.66
2 -6 -5 12.9 1.53
-2 6 5 14.47 1.39
2 -6 -4 101.75 4.24
2 -6 -4 102.45 6.91
2 -6 -4 107.14 4.22
-2 6 4 102.68 6.75
-2 6 4 98.23 4.13
2 -6 -4 92.55 4.18
2 -6 -4 103.6 4.27
-2 6 4 94.31 6.43
2 -6 -4 100.91 4.24
2 -6 -4 88.06 4.17
-2 6 4 103.98 4
2 -6 -3 11.34 1.26
2 -6 -3 13.57 1.41
2 -6 -3 11.43 2.27
-2 6 3 13.41 1.51
-2 6 3 13.1 2.26
2 -6 -3 14.44 1.55
2 -6 -3 14.33 1.5
2 -6 -3 12.96 1.37
-2 6 3 14.32 2.37
2 -6 -3 15.17 1.57
-2 6 3 13.57 1.3
-2 6 2 164.36 5.97
-2 6 2 160.88 8.01
-2 6 2 158.41 8.07
2 -6 -2 157.66 5.81
2 -6 -2 160.44 8.36
2 -6 -2 147.38 5.23
2 -6 -2 160.31 5.74
2 -6 -2 152.04 5.29
-2 6 2 150.06 5.02
2 -6 -1 25.22 1.89
-2 6 1 24.35 2.17
2 -6 -1 22.89 2.96
2 -6 -1 24.42 1.88
-2 6 1 27.4 3.12
-2 6 1 22.79 2.83
2 -6 -1 27.4 2.26
2 -6 -1 25.02 2.13
-2 6 1 22.5 1.7
2 -6 0 51.06 2.8
-2 6 0 48.53 2.61
2 -6 0 51.47 3.24
2 -6 0 46.82 2.68
2 -6 0 49.21 4.39
-2 6 0 47.41 4.06
-2 6 0 52.28 4.36
2 -6 0 52.54 3.28
2 -6 1 13.88 1.43
2 -6 1 14.74 1.4
2 -6 1 15.72 1.52
2 -6 1 12.98 2.27
-2 6 -1 15.39 2.27
2 -6 1 14.82 1.77
2 -6 1 15.94 1.83
-2 6 -1 15.98 2.4
-2 6 -1 15.24 1.44
-2 6 -2 93.61 6.1
2 -6 2 84.82 3.88
2 -6 2 92.55 3.88
2 -6 2 95.76 4.14
-2 6 -2 88.57 3.89
2 -6 2 78.57 5.85
-2 6 -2 87.57 5.77
2 -6 2 74.94 4.04
2 -6 2 89.4 4.57
2 -6 3 57.92 3.34
-2 6 -3 65.22 3.4
2 -6 3 66.31 3.51
2 -6 3 67.22 3.36
2 -6 3 57.18 3.45
2 -6 3 61.89 3.29
2 -6 4 0.65 0.33
2 -6 4 0.62 0.33
2 -6 4 0.18 0.33
-2 6 -4 0.26 0.55
2 -6 4 0.48 0.34
-2 6 -4 0.53 0.35
-2 6 -5 3.87 0.82
2 -6 5 3.93 0.68
2 -6 5 4.27 0.78
2 -6 5 3.65 0.87
-2 6 -5 3.82 0.72
-2 6 -6 9.85 1.26
2 -6 6 9.04 1.28
-2 6 -6 8.39 0.99
-2 6 -7 60.18 3
2 -6 7 60.91 3.13
-2 6 -7 56.64 2.58
2 -6 8 1.72 0.48
-2 6 -8 1 0.39
-2 6 -8 1.52 0.36
-2 6 -9 36.88 1.78
2 -6 9 34.49 1.7
2 -6 9 36.15 1.82
-2 6 -9 33.25 1.56
2 -6 10 2.83 0.37
-2 6 -10 2.44 0.36
2 -5 -13 0.92 0.27
-2 5 13 0.68 0.24
2 -5 -13 0.73 0.21
2 -5 -13 0.38 0.18
2 -5 -13 0.78 0.24
-2 5 12 2.32 0.44
2 -5 -12 2.46 0.53
2 -5 -12 2.23 0.5
2 -5 -12 2.49 0.52
2 -5 -12 2.12 0.56
-2 5 12 2.9 0.52
2 -5 -11 95.23 3.72
2 -5 -11 90.92 4.03
-2 5 11 95.1 3.57
2 -5 -11 85.41 3.65
2 -5 -11 88.27 3.72
-2 5 11 94.03 3.65
2 -5 -10 -0.05 0.28
2 -5 -10 0.06 0.28
-2 5 10 -0.27 0.36
2 -5 -10 0.25 0.42
2 -5 -10 0.26 0.41
-2 5 10 0.61 0.37
2 -5 -9 96.16 4.14
2 -5 -9 85.21 4.28
-2 5 9 99.36 4.12
2 -5 -9 93.03 4.35
2 -5 -9 89.54 4.41
-2 5 9 91.01 4.11
2 -5 -8 89.17 4.34
2 -5 -8 96.86 4.29
2 -5 -8 99.86 4.57
-2 5 8 100.36 4.28
2 -5 -8 92.54 4.48
2 -5 -7 35.51 2.5
2 -5 -7 33.51 4.09
2 -5 -7 33.6 2.52
2 -5 -7 39.9 2.65
2 -5 -7 33.9 2.53
-2 5 7 28.14 3.62
-2 5 7 37.23 4.4
2 -5 -6 27.59 2.18
2 -5 -6 25.04 3.39
2 -5 -6 30.86 2.24
2 -5 -6 29.39 2.32
-2 5 6 26.59 3.42
2 -5 -6 28.24 2.07
-2 5 6 29.35 3.78
2 -5 -6 26.15 2.12
-2 5 5 38.03 3.87
2 -5 -5 37 2.45
2 -5 -5 39.09 2.7
2 -5 -5 40.27 2.44
2 -5 -5 39.11 4.06
2 -5 -5 37.05 2.37
2 -5 -5 43.12 2.54
-2 5 5 39.21 4.13
2 -5 -5 34.19 2.37
2 -5 -4 10.15 1.17
2 -5 -4 11.11 1.23
2 -5 -4 12.62 1.32
2 -5 -4 13.81 1.35
-2 5 4 10.36 1.19
2 -5 -4 12.19 2.14
-2 5 4 11.84 2.11
2 -5 -4 11.73 1.23
2 -5 -4 10.98 1.22
-2 5 4 13.25 2.26
2 -5 -3 65.28 3.04
2 -5 -3 64.59 3.08
2 -5 -3 70.7 5.06
-2 5 3 69.66 4.95
-2 5 3 67.07 4.91
2 -5 -3 67.28 3.2
-2 5 2 22.8 2.69
-2 5 2 24.11 2.81
2 -5 -2 23.6 2.83
-2 5 1 49.86 3.95
2 -5 -1 48.52 3.99
-2 5 1 49.59 3.88
-2 5 0 677.67 18.08
-2 5 0 703.15 18.59
2 -5 0 658.74 18.68
-2 5 -1 63.96 2.93
-2 5 -1 62.04 4.28
2 -5 1 63.37 3.02
-2 5 -1 64.16 4.52
2 -5 1 60.83 5.15
2 -5 1 55.54 4.39
2 -5 1 62.09 3.39
2 -5 1 67.14 3.62
2 -5 2 27.45 1.91
-2 5 -2 26.92 1.93
2 -5 2 27.21 1.98
2 -5 2 24.49 2.16
2 -5 2 25.27 3
-2 5 -2 29.5 2.96
2 -5 2 23.62 3.24
-2 5 -2 26.05 2.91
-2 5 -3 369.68 12.82
2 -5 3 305.88 9.33
2 -5 3 370.31 9.67
2 -5 3 320.85 12.69
-2 5 -3 369.88 9.52
2 -5 3 340.66 13.69
-2 5 -3 364.95 12.28
2 -5 3 357.22 9.5
-2 5 -4 21.5 1.92
2 -5 4 20.73 1.87
2 -5 4 20.4 1.88
2 -5 4 16.29 2.7
-2 5 -4 19.85 2.81
2 -5 4 21.24 1.97
2 -5 4 20.57 1.82
-2 5 -4 21.69 2.91
-2 5 -4 19.93 2.59
-2 5 -5 18.33 2.73
-2 5 -5 17.55 1.59
2 -5 5 20.03 1.98
2 -5 5 19.65 1.71
2 -5 5 19.05 3.06
-2 5 -5 21.08 3.07
2 -5 5 18.6 1.87
-2 5 -5 19.07 1.92
-2 5 -6 38.11 2.37
2 -5 6 43.13 3.03
-2 5 -6 41.46 2.79
2 -5 6 41.26 2.87
-2 5 -7 6.04 1.04
-2 5 -7 5.27 0.85
2 -5 7 5.27 1
2 -5 7 6.01 1.03
-2 5 -8 68.31 3.06
2 -5 8 70.22 3.57
-2 5 -8 69.4 3.38
2 -5 8 71.41 3.51
-2 5 -9 25.75 1.67
2 -5 9 28 1.96
-2 5 -9 24.3 1.76
2 -5 9 28.75 1.92
-2 5 -10 6.35 0.78
2 -5 10 7.27 0.82
2 -5 10 7.29 0.84
-2 5 -10 7.67 0.79
2 -5 11 2.02 0.33
-2 5 -11 1.37 0.27
-2 5 -11 1.21 0.3
-2 4 14 75.72 2.33
2 -4 -14 81.55 2.58
2 -4 -14 79.55 2.42
2 -4 -13 15.78 1.29
2 -4 -13 14.68 1.07
-2 4 13 19.99 1.3
2 -4 -13 17.15 1.12
2 -4 -13 20.02 1.37
2 -4 -13 21.24 1.49
2 -4 -12 32.33 1.82
2 -4 -12 38.68 2.22
2 -4 -12 33.65 1.79
2 -4 -12 34.91 2.1
-2 4 12 35.4 1.84
2 -4 -12 40.7 2.47
2 -4 -12 34.96 2.03
-2 4 12 38.31 2.02
-2 4 11 151.79 4.77
2 -4 -11 144.55 5.47
2 -4 -11 139.83 5.01
2 -4 -11 141.67 4.99
2 -4 -11 142 5.11
-2 4 11 144.89 4.9
2 -4 -10 30.78 2.02
2 -4 -10 35.14 2.34
-2 4 10 33.86 2.24
-2 4 10 34.84 2.35
2 -4 -10 34.05 2.63
2 -4 -10 30.19 2.37
2 -4 -9 51.05 2.66
2 -4 -9 53.21 3.04
2 -4 -9 48.87 3.18
-2 4 9 56.81 3.13
-2 4 9 53.35 2.93
2 -4 -9 51.69 3.28
2 -4 -9 57.09 3.41
2 -4 -8 171.92 6.53
2 -4 -8 180.7 10
2 -4 -8 190.78 6.41
-2 4 8 182.39 9.17
-2 4 8 194.47 10.47
2 -4 -8 183.54 10.16
-2 4 8 172.45 9.42
2 -4 -8 197.57 6.71
-2 4 8 201.09 6.35
2 -4 -8 182.18 6.65
2 -4 -7 0.75 0.32
2 -4 -7 0.66 0.41
-2 4 7 1.8 1.09
2 -4 -7 0.47 0.36
2 -4 -7 1.55 0.86
2 -4 -7 0.89 0.71
-2 4 7 -0.04 0.45
2 -4 -7 1.53 0.56
-2 4 7 1.67 0.92
-2 4 6 2.94 0.87
2 -4 -6 2.21 0.55
-2 4 6 2.57 1.2
2 -4 -6 3.23 0.68
2 -4 -6 2.52 1.13
2 -4 -6 2.03 0.6
2 -4 -6 4.09 1.28
-2 4 6 3.56 1.19
2 -4 -6 2.05 0.6
2 -4 -5 0.15 0.5
-2 4 5 -0.43 0.49
-2 4 5 0.33 0.44
-2 4 5 0.21 0.29
2 -4 -4 374.09 12.45
-2 4 4 360.19 12.27
-2 4 4 383.5 13
-2 4 3 77.9 4.76
2 -4 -3 77.4 4.78
-2 4 3 78.97 4.96
2 -4 -2 0.34 0.27
-2 4 2 1.18 0.58
-2 4 2 1.49 0.68
-2 4 1 225.19 8.35
-2 4 1 226.02 8.19
2 -4 -1 216.73 8.29
-2 4 0 24.88 2.44
2 -4 0 23.57 2.87
2 -4 0 23.09 2.43
-2 4 0 25.95 2.45
2 -4 1 8.58 1.83
-2 4 -1 10.21 1.56
2 -4 1 10.36 1.72
-2 4 -1 10.67 1.58
2 -4 2 1272.97 31.81
-2 4 -2 1313.32 28.6
2 -4 2 1287.43 29.84
-2 4 -2 1289.85 27.08
-2 4 -2 1384.76 29.43
2 -4 3 107.1 6.21
-2 4 -3 110.5 5.87
2 -4 3 105.99 6.66
-2 4 -3 95.7 5.22
-2 4 -3 109.12 4.7
-2 4 -4 480.15 14.9
2 -4 4 447.66 15.31
-2 4 -4 480.86 11.65
-2 4 -4 448.35 13.82
-2 4 -4 450.06 14.64
2 -4 4 475.22 11.67
-2 4 -5 36.52 2.59
2 -4 5 34.1 2.29
-2 4 -5 30.89 2.12
-2 4 -5 35.67 3.78
2 -4 5 40.72 2.74
2 -4 5 33.84 2.25
2 -4 5 32.25 3.76
-2 4 -5 30.82 3.22
2 -4 5 35.94 2.55
-2 4 -5 36.14 3.77
-2 4 -6 121.96 4.6
-2 4 -6 117.47 7.41
2 -4 6 125.93 4.99
-2 4 -6 119.89 5.07
2 -4 6 133.81 5.66
2 -4 6 126.96 8.29
-2 4 -6 124.79 7.11
2 -4 6 128.63 5.37
-2 4 -7 306.11 8.75
2 -4 7 266.26 8.15
2 -4 7 285.06 8.77
-2 4 -7 291.67 8.07
-2 4 -7 298.68 12.53
2 -4 7 283.37 9.02
-2 4 -8 87.6 4.07
-2 4 -8 85.46 3.72
2 -4 8 84.35 4.28
2 -4 8 86.74 3.86
2 -4 8 91.15 4.22
-2 4 -9 44.79 2.72
-2 4 -9 44.23 2.46
2 -4 9 47.66 2.89
2 -4 9 44.33 2.47
2 -4 9 48.59 2.85
-2 4 -10 61.42 2.92
-2 4 -10 60.76 2.73
2 -4 10 58.64 2.95
2 -4 10 57.08 2.54
2 -4 10 65.45 3.05
2 -4 11 31.64 1.79
-2 4 -11 32.09 1.71
2 -4 11 35.72 1.91
-2 4 -11 29.21 1.76
-2 4 -12 2.55 0.4
2 -4 12 2.91 0.4
-2 4 -12 2.74 0.4
2 -4 12 3.39 0.47
2 -3 -14 10.74 0.88
2 -3 -14 12.54 0.94
2 -3 -14 11.92 0.85
-2 3 14 14.59 1.02
2 -3 -14 14.44 1.07
2 -3 -14 10.85 0.86
2 -3 -13 5.27 0.77
-2 3 13 4.77 0.7
2 -3 -13 5.56 0.71
2 -3 -13 5.21 0.7
2 -3 -13 5 0.74
2 -3 -13 4.71 0.7
2 -3 -13 4.59 0.61
2 -3 -12 5.12 0.76
2 -3 -12 4.54 0.8
2 -3 -12 4.12 0.71
2 -3 -12 5.19 0.87
2 -3 -12 3.68 0.75
-2 3 12 4.42 0.7
2 -3 -12 4.87 0.76
2 -3 -11 140.31 5.12
2 -3 -11 127.25 4.66
2 -3 -11 148.66 4.99
2 -3 -11 149.71 5.62
2 -3 -11 142.22 5.06
2 -3 -11 139.07 4.98
-2 3 11 142.19 4.56
-2 3 11 145.63 4.89
2 -3 -10 89.1 3.74
-2 3 10 95.6 3.79
2 -3 -10 99.3 4.63
2 -3 -10 91.56 4.02
2 -3 -10 82.71 3.76
2 -3 -10 94.72 4.14
-2 3 10 94.23 3.96
2 -3 -10 95.97 4.31
2 -3 -9 209.98 6.6
2 -3 -9 232.82 7.66
-2 3 9 236.37 10.72
2 -3 -9 251.66 7.36
-2 3 9 217.34 11.33
-2 3 9 227.93 6.83
-2 3 9 205.27 10.04
2 -3 -9 244.98 12.28
2 -3 -9 227.87 7.04
2 -3 -9 240.64 7.84
-2 3 9 245.38 7.23
2 -3 -9 252.91 7.8
-2 3 8 4.88 1.75
2 -3 -8 7.52 0.98
2 -3 -8 8.17 1.16
2 -3 -8 8.22 2.05
2 -3 -8 6.62 1.04
2 -3 -8 6.64 1.14
-2 3 8 7.92 1.92
-2 3 8 7.64 1.81
2 -3 -8 6.27 1.05
-2 3 8 5.96 0.9
-2 3 7 550.45 17.96
2 -3 -7 538.75 17.29
-2 3 7 567.75 17.2
-2 3 7 560.05 16.69
2 -3 -7 582.05 17.97
-2 3 6 32.95 3.05
2 -3 -6 31.15 3.27
-2 3 6 33.99 3.32
-2 3 6 33.57 3.54
2 -3 -6 33.69 3.37
-2 3 5 41.1 3.09
2 -3 -5 47.92 3.64
-2 3 5 43.35 3.73
2 -3 -5 41.79 3.49
-2 3 5 43.38 3.57
2 -3 -4 455.98 12.63
2 -3 -4 432.89 12.99
-2 3 4 449.84 13.12
-2 3 4 457.44 13.42
-2 3 4 428.51 11.51
-2 3 3 380.49 11.31
2 -3 -3 378.68 10.95
-2 3 3 361.21 10.84
-2 3 3 347.63 9.27
2 -3 -2 25.86 2.29
-2 3 2 25.64 2.28
-2 3 2 27.6 2.44
-2 3 2 25.22 1.66
2 -3 -1 6.13 0.97
-2 3 1 4.78 0.95
2 -3 -1 6.09 1.07
-2 3 1 7.91 1.26
2 -3 0 1.48 0.37
2 -3 0 0.68 0.43
-2 3 0 1.63 0.55
-2 3 0 1.36 0.5
-2 3 -1 0.65 0.45
2 -3 1 0.49 0.45
2 -3 1 0.17 0.25
-2 3 -1 0.77 0.45
2 -3 2 0.41 0.3
-2 3 -2 0.26 0.22
2 -3 2 0.37 0.42
-2 3 -2 0.47 0.39
-2 3 -2 0.55 0.42
-2 3 -3 271.63 8.85
2 -3 3 261.01 10.32
-2 3 -3 258.71 7.72
2 -3 3 249.12 9.39
-2 3 -3 252.84 8.23
-2 3 -4 212.14 8.32
-2 3 -4 206.32 6.99
2 -3 4 200.28 8.77
-2 3 -4 212.6 7.66
-2 3 -4 212.32 8.26
-2 3 -5 15.59 1.82
-2 3 -5 15.72 2.3
2 -3 5 17.58 2.6
-2 3 -5 15.39 2.02
-2 3 -5 14.18 2.12
2 -3 6 798.4 23.57
2 -3 6 883.92 19.01
-2 3 -6 835.08 21.3
-2 3 -6 803.97 17.46
-2 3 -6 743.65 21.82
2 -3 6 822.18 18.54
-2 3 -7 152.35 5.14
2 -3 7 134.6 5.37
2 -3 7 131.33 5.69
-2 3 -7 138.63 7.82
2 -3 7 146.49 5.61
2 -3 8 144.96 5.82
-2 3 -8 149.47 5.14
-2 3 -8 141.43 8.18
2 -3 8 145.95 5.61
2 -3 8 137.1 5.38
-2 3 -9 132.1 4.8
2 -3 9 134.19 5.43
2 -3 9 129.45 5.07
2 -3 9 143.43 5.35
-2 3 -10 5.31 0.82
2 -3 10 4.47 0.9
2 -3 10 4.46 0.78
2 -3 10 5.07 0.9
2 -3 11 75.46 3.18
-2 3 -11 88.75 3.34
2 -3 11 84.24 3.52
2 -3 11 89.16 3.58
-2 3 -11 82.1 3.42
-2 3 -12 20.16 1.36
2 -3 12 18.87 1.23
-2 3 -12 23.83 1.43
2 -3 12 19.93 1.34
2 -3 12 24.78 1.53
-2 3 -13 0.08 0.12
-2 3 -13 0.15 0.19
2 -3 13 0.25 0.15
2 -3 13 0.21 0.14
2 -2 -15 2.72 0.35
-2 2 15 2.88 0.38
2 -2 -15 3.18 0.38
2 -2 -14 14.55 1.15
2 -2 -14 14.61 1.02
2 -2 -14 15.08 1.1
-2 2 14 16.57 1.15
2 -2 -14 14.9 1.07
2 -2 -13 2.41 0.52
2 -2 -13 2.8 0.57
2 -2 -13 1.77 0.48
2 -2 -13 2.22 0.5
-2 2 13 2.27 0.47
2 -2 -13 1.93 0.42
2 -2 -12 4.13 0.75
2 -2 -12 4.58 0.77
2 -2 -12 4.78 0.8
2 -2 -12 4.64 0.81
2 -2 -12 4.2 0.81
2 -2 -12 4.25 0.7
2 -2 -11 15.45 1.5
2 -2 -11 16.77 1.51
2 -2 -11 12.79 1.37
2 -2 -11 16.05 1.53
2 -2 -11 15.63 1.5
2 -2 -11 18.5 1.76
-2 2 11 16.7 1.43
2 -2 -10 62.98 3.07
2 -2 -10 63.21 3.19
2 -2 -10 57.62 3.03
-2 2 10 48.95 4.41
-2 2 10 58.7 4.89
2 -2 -10 61.92 3.15
2 -2 -10 63.22 3.47
2 -2 -10 60.1 3.14
2 -2 -10 62.55 5.73
-2 2 10 64.23 3.02
2 -2 -10 59.71 3.18
2 -2 -9 76.29 3.48
-2 2 9 57.87 4.8
-2 2 9 75.16 5.44
2 -2 -9 71.08 3.46
2 -2 -9 76.75 3.9
2 -2 -9 71.03 3.46
2 -2 -9 64.67 3.13
2 -2 -9 74.78 6.19
2 -2 -9 69.5 3.57
-2 2 8 255.94 10.49
-2 2 8 281.54 10.87
2 -2 -8 284.99 7.71
2 -2 -8 255.06 7.83
2 -2 -8 232.02 10.91
2 -2 -8 263.99 7.88
2 -2 -8 267.42 8.08
-2 2 7 602.83 17.44
2 -2 -7 596.73 17.56
2 -2 -7 612.41 18.11
-2 2 6 109.56 5.63
2 -2 -6 108.64 5.71
-2 2 6 102.39 5.57
2 -2 -6 116.58 6
-2 2 5 116.76 5.3
2 -2 -5 112.66 5.47
-2 2 5 111.5 5.58
2 -2 -5 126.64 5.74
-2 2 4 391.81 10.79
2 -2 -4 419.29 11.58
-2 2 4 428.84 11.88
-2 2 4 429.52 11.99
-2 2 3 1176.28 24.37
-2 2 3 1254.53 26.23
2 -2 -3 1258.37 25.7
-2 2 3 1221.25 26.04
2 -2 -3 1269.12 25.42
-2 2 2 10.92 0.98
2 -2 -2 10.56 1.29
-2 2 2 12.14 1.42
-2 2 2 11.76 1.42
-2 2 1 8.68 0.71
2 -2 -1 7.76 0.93
2 -2 -1 7.48 1.07
-2 2 1 7.25 1.01
-2 2 1 9.04 1.18
-2 2 0 367.09 9.39
2 -2 0 347.16 8.47
2 -2 0 365.59 9.71
-2 2 0 379.95 9.55
-2 2 -1 26.69 1.97
2 -2 1 24.61 2.32
2 -2 1 25.68 1.61
2 -2 1 24.7 2.04
-2 2 -1 25.6 1.88
2 -2 2 258.86 9.64
2 -2 2 269.96 8.5
2 -2 2 260.94 6.95
-2 2 -2 271.61 7.82
-2 2 -3 32.92 2.39
-2 2 -3 30.04 2.13
2 -2 3 30.16 2.62
2 -2 3 31.51 1.98
-2 2 -3 31.18 2.1
-2 2 -4 16.99 1.94
2 -2 4 15.86 2.08
-2 2 -4 18.2 1.95
-2 2 -4 18.3 1.76
2 -2 4 16.69 1.61
-2 2 -4 18.05 1.69
2 -2 5 2.47 0.92
-2 2 -5 2.93 0.77
-2 2 -5 1.35 0.6
2 -2 5 1.8 0.59
-2 2 -5 1.55 0.56
-2 2 -6 97.75 5.73
2 -2 6 97.24 6.25
-2 2 -6 108.41 5.43
-2 2 -6 101.95 5.25
2 -2 7 78.3 3.32
-2 2 -7 82.09 3.47
-2 2 -7 76.41 5.29
2 -2 7 73.39 3.56
2 -2 8 33.98 2.44
-2 2 -8 33.05 2.18
2 -2 8 30.76 2.43
-2 2 -8 31.84 3.52
2 -2 8 34.33 2.43
-2 2 -9 8.89 1.15
2 -2 9 8.71 1.24
-2 2 -9 11.77 2.29
2 -2 9 10.19 1.36
2 -2 9 9.76 1.29
-2 2 -10 315.57 8.46
2 -2 10 330.06 9.08
2 -2 10 328.33 8.95
2 -2 10 305.09 9.05
-2 2 -11 38 2.2
2 -2 11 37.17 2.41
2 -2 11 40.22 2.47
2 -2 11 42.55 2.49
2 -2 12 1.22 0.38
-2 2 -12 0.84 0.33
2 -2 12 0.71 0.31
2 -2 12 0.66 0.28
-2 2 -13 64.16 2.51
2 -2 13 68.16 2.5
-2 2 -13 74.14 2.57
2 -2 13 64.98 2.4
2 -2 13 77.42 2.76
-2 2 -14 4.86 0.46
2 -2 14 5.15 0.51
2 -1 -15 0.6 0.22
2 -1 -15 0.55 0.2
-2 1 15 0.87 0.21
2 -1 -14 39.65 1.87
2 -1 -14 32.91 1.56
2 -1 -14 33.68 1.51
-2 1 14 42.29 1.88
2 -1 -14 38.18 1.83
2 -1 -14 35.74 1.84
2 -1 -13 117.8 3.88
-2 1 13 123.89 4.02
2 -1 -13 108.49 3.77
2 -1 -13 117.71 4.13
2 -1 -13 114.12 4.01
2 -1 -13 120.44 4.07
2 -1 -12 3.14 0.67
-2 1 12 2.48 0.57
2 -1 -12 2.38 0.57
2 -1 -12 1.85 0.53
2 -1 -12 2.62 0.63
2 -1 -12 2.14 0.5
2 -1 -12 2.08 0.54
2 -1 -11 0.51 0.36
2 -1 -11 0.38 0.34
2 -1 -11 0.21 0.21
2 -1 -11 0.08 0.22
2 -1 -11 0.19 0.26
2 -1 -11 1.09 0.4
2 -1 -10 22.85 1.8
2 -1 -10 22.38 1.78
2 -1 -10 22.65 1.95
2 -1 -10 23.19 1.84
2 -1 -10 23.15 1.83
-2 1 10 22.71 2.85
2 -1 -10 22.47 1.84
2 -1 -10 22.79 1.81
2 -1 -10 21.61 3.17
2 -1 -9 15.29 1.48
2 -1 -9 13.44 1.39
2 -1 -9 11.63 2.24
-2 1 9 13.42 2.17
2 -1 -9 13.11 1.39
2 -1 -9 15.72 1.54
2 -1 -9 12.78 1.46
2 -1 -9 13.53 1.44
-2 1 8 132.78 6.78
2 -1 -8 126.45 7.42
-2 1 7 25.05 2.67
2 -1 -7 20.74 2.66
2 -1 -6 422.89 11.65
2 -1 -6 429.86 12.25
2 -1 -6 431.62 13.06
2 -1 -5 27.29 2.13
-2 1 5 33.6 2.77
2 -1 -5 30.36 2.5
2 -1 -5 30.87 2.35
2 -1 -4 251.72 7.47
2 -1 -4 234.98 7
2 -1 -4 255.91 7.3
-2 1 4 242.65 7.64
2 -1 -3 1110.28 22.36
2 -1 -3 1124.83 22.56
2 -1 -3 1155.32 22.41
2 -1 -2 181.47 5.02
-2 1 2 162.7 5.4
2 -1 -2 179.72 5.28
-2 1 2 166.78 5.42
2 -1 -2 177.22 5.38
2 -1 -2 174.86 5.26
-2 1 2 170.93 4.79
2 -1 -1 21.45 1.55
-2 1 1 18.5 0.97
2 -1 -1 20.28 1.42
2 -1 -1 18.87 1.42
-2 1 1 19.36 1.48
-2 1 1 18.88 1.44
-2 1 0 9935.29 165.85
2 -1 0 8697.84 165.4
2 -1 0 8889.16 165.94
-2 1 0 9999 165.79
-2 1 -1 340.27 8.06
2 -1 1 327.04 7.96
-2 1 -1 341.89 8.11
2 -1 1 335.31 8.71
-2 1 -2 20.75 1.51
-2 1 -2 19.01 1.41
2 -1 2 19.81 1.79
2 -1 2 17.7 1.38
-2 1 -2 19.91 1.45
2 -1 3 43.09 2.91
-2 1 -3 45.04 2.64
-2 1 -3 46 2.54
-2 1 -3 41.8 2.15
2 -1 3 44.85 2.45
-2 1 -3 46.32 2.45
-2 1 -4 338.92 8.94
2 -1 4 320.73 10.27
-2 1 -4 318.67 9.65
-2 1 -4 325.71 8.38
-2 1 -4 325.28 9.3
2 -1 5 30.3 3
-2 1 -5 31.29 2.72
-2 1 -5 32.16 2.26
-2 1 -5 34.83 2.54
-2 1 -6 465.96 13.92
-2 1 -6 498.27 13.54
-2 1 -7 9.22 1.65
-2 1 -7 11.96 1.9
-2 1 -8 62.95 4.49
-2 1 -8 61.82 4.75
-2 1 -8 68.12 3.18
2 -1 8 63.55 2.95
2 -1 8 61.99 3.3
2 -1 8 65.56 3.21
2 -1 9 142.05 5.35
-2 1 -9 133.37 7.54
2 -1 9 129.14 5.24
-2 1 -9 146.35 5.02
2 -1 9 146.44 4.84
2 -1 9 140.54 5.12
-2 1 -10 74.63 3.41
2 -1 10 76.85 3.74
2 -1 10 79.15 3.63
2 -1 10 81.13 3.83
-2 1 -11 62.45 2.99
2 -1 11 61.3 3.2
-2 1 -11 60.24 2.66
2 -1 11 68.94 3.43
2 -1 11 65.46 3.19
2 -1 12 6.39 0.92
2 -1 12 5.42 0.82
-2 1 -12 6.75 0.75
2 -1 12 6.27 0.9
-2 1 -12 5.97 0.82
2 -1 13 6.54 0.83
-2 1 -13 4.95 0.67
2 -1 13 4.85 0.65
2 -1 13 4.92 0.7
-2 1 -14 1.19 0.29
-2 1 -14 1.63 0.32
2 -1 14 1.64 0.33
2 -1 14 1.35 0.34
2 0 -15 0.32 0.16
-2 0 15 0.19 0.19
2 0 -15 -0.09 0.13
2 0 -14 197.24 5.12
2 0 -14 201.79 5.13
-2 0 14 198.31 4.94
-2 0 13 1.81 0.46
2 0 -13 2.3 0.58
2 0 -13 1.96 0.5
2 0 -13 1.41 0.44
2 0 -13 2.7 0.57
-2 0 12 0.79 0.35
2 0 -12 0.98 0.45
2 0 -12 1.43 0.41
2 0 -12 0.68 0.31
2 0 -12 0.83 0.35
2 0 -12 0.71 0.39
2 0 -11 75.61 3.38
2 0 -11 82.42 3.6
2 0 -11 83.95 3.66
2 0 -11 71.55 3.21
2 0 -11 81.79 3.48
2 0 -11 78.68 3.61
2 0 -10 8.4 1.1
2 0 -10 8.01 1.08
2 0 -10 8.15 1.07
2 0 -10 7.45 1.08
2 0 -10 8.65 1.9
-2 0 10 8.18 1.7
2 0 -10 7.55 1.08
2 0 -10 7.42 0.98
2 0 -9 93.29 3.86
2 0 -9 93.05 6.28
2 0 -9 91.09 3.86
2 0 -9 95.65 3.95
2 0 -9 90.48 3.83
-2 0 9 89.85 5.61
2 0 -9 96.13 3.99
2 0 -9 97.12 4.1
-2 0 8 35.78 3.28
2 0 -8 37.16 3.68
2 0 -7 5.52 1.36
2 0 -7 5.36 1.31
-2 0 7 6.41 1.32
2 0 -6 91.1 4.93
2 0 -6 100.19 5.48
2 0 -5 268.7 8.85
2 0 -5 273.12 8.9
-2 0 4 690.24 15.65
2 0 -4 641.81 15.26
2 0 -4 674.17 13.81
2 0 -4 615.37 14.84
2 0 -3 298.06 6.91
2 0 -3 300.72 7.58
-2 0 3 309.02 7.86
2 0 -3 289.38 6.19
2 0 -3 312.77 8.13
2 0 -2 37.48 2.12
-2 0 2 37.61 1.3
-2 0 2 36.5 2.18
2 0 -2 39.12 1.67
2 0 -2 40.78 2.19
2 0 -2 39.69 1.68
2 0 -2 40.75 2.78
2 0 -1 0.66 0.41
2 0 -1 1.04 0.32
-2 0 1 0.59 0.2
-2 0 1 0.87 0.27
2 0 0 3720.8 67.04
-2 0 0 3832.08 66.62
-2 0 0 3622.09 66.24
2 0 1 663.05 14.09
-2 0 -1 631.32 12.59
-2 0 -1 656.83 12.89
2 0 1 632.62 13.55
-2 0 -1 661.24 12.75
-2 0 -2 205.67 5.21
-2 0 -2 210.06 5.8
2 0 2 215.64 6.61
-2 0 -2 194.26 4.91
-2 0 -2 212.34 5.66
2 0 2 224.98 6.94
2 0 2 214.55 5.92
2 0 3 169.81 4.16
-2 0 -3 180.85 5.33
-2 0 -3 171.33 5.7
2 0 3 183.85 6.51
-2 0 -3 167.26 4.28
2 0 3 191.34 6.25
-2 0 -4 627.76 15.19
2 0 4 628.49 13.21
-2 0 -4 638.88 12.99
-2 0 -4 662.93 14.51
-2 0 -5 70.45 4.09
2 0 5 67.8 3.24
-2 0 -5 76.35 3.84
-2 0 -6 261.04 9.13
-2 0 -6 249.33 8.68
2 0 6 236.04 8.06
-2 0 -7 19.64 2.42
-2 0 -7 15.94 2.08
2 0 7 21.86 2.22
-2 0 -8 67.15 4.5
-2 0 -8 64.34 4.72
-2 0 -9 38.67 3.48
2 0 9 41.28 2.65
2 0 9 39.83 2.32
-2 0 -9 38.29 2.39
2 0 9 36.54 2.13
-2 0 -9 39.5 3.87
2 0 9 40.94 2.45
2 0 10 10.48 1.12
-2 0 -10 10.24 1.24
-2 0 -10 10 1.77
2 0 10 12.8 1.44
2 0 10 12.13 1.33
-2 0 -10 10.81 2.14
2 0 11 3.4 0.78
2 0 11 3.44 0.62
2 0 11 4.95 0.83
-2 0 -11 3.74 0.71
2 0 11 5.11 0.91
-2 0 -12 139.87 4.67
2 0 12 130.1 4.7
-2 0 -12 142.1 4.56
2 0 12 157.51 5.26
2 0 12 147 4.91
-2 0 -13 29.55 1.72
2 0 13 26.98 1.66
-2 0 -13 33.59 1.75
2 0 13 31.75 1.97
2 0 13 32.65 1.92
-2 0 -14 35.78 1.62
-2 0 -14 37.8 1.6
2 0 14 39.53 1.9
2 0 14 40.6 1.9
2 0 15 82.85 2.47
2 0 15 92.64 2.59
-2 -1 15 3.58 0.42
-2 -1 14 6.08 0.58
2 1 -14 5.26 0.61
2 1 -14 4.86 0.62
2 1 -14 6.24 0.66
-2 -1 14 5.66 0.7
2 1 -13 107.08 3.69
-2 -1 13 97.29 3.29
2 1 -13 106.14 3.75
2 1 -13 104.49 3.62
-2 -1 12 2.67 0.56
2 1 -12 2.41 0.59
2 1 -12 2.88 0.66
2 1 -12 1.97 0.55
2 1 -11 0.64 0.37
-2 -1 11 0.59 0.32
2 1 -11 0.6 0.34
2 1 -11 0.67 0.29
2 1 -11 0.23 0.3
2 1 -10 411.34 10.17
2 1 -10 450.66 10.76
-2 -1 10 461.93 14.66
-2 -1 10 422.65 10.01
2 1 -10 411.98 10.48
2 1 -10 427.98 14.82
2 1 -10 394 10.07
2 1 -10 399.7 10.2
2 1 -10 433 10.61
2 1 -9 39.51 2.41
2 1 -9 37.33 2.28
2 1 -9 39.45 2.42
2 1 -9 36.07 2.33
2 1 -9 35.75 3.67
2 1 -9 36.29 2.25
2 1 -9 33.53 2.24
-2 -1 9 41.83 3.72
2 1 -8 25.48 2.84
-2 -1 8 23.3 2.65
2 1 -8 22.83 2.8
2 1 -7 227.58 9.26
-2 -1 7 237.1 8.73
2 1 -7 226.83 9.11
2 1 -6 23.71 2.73
-2 -1 6 23.14 2.33
2 1 -6 23.77 2.53
2 1 -5 287.87 10.01
-2 -1 5 297.47 9.46
-2 -1 5 292.93 8.02
-2 -1 4 19.19 1.37
2 1 -4 18.04 2.01
-2 -1 4 18.13 1.89
2 1 -4 16.88 1.78
2 1 -4 16.84 1.51
2 1 -3 7.81 1.19
2 1 -3 7.82 1.02
-2 -1 3 7.4 0.71
2 1 -3 7.37 1.07
-2 -1 2 192.84 4.85
2 1 -2 210.59 6.22
2 1 -2 191.42 5.14
2 1 -2 196.16 5.51
2 1 -2 204.03 6.61
2 1 -1 44.98 2.11
2 1 -1 44.13 1.36
2 1 -1 44.05 2.78
2 1 0 117.29 3.34
-2 -1 0 61.73 1.55
2 1 1 5286.89 89.41
-2 -1 -1 5221.59 89.05
-2 -1 -2 9.07 0.74
2 1 2 10.88 1.01
-2 -1 -2 9.38 0.93
2 1 2 9.78 1.21
2 1 3 135.92 4.01
-2 -1 -3 132.88 4.4
-2 -1 -3 143.23 4.65
2 1 3 140.4 5
2 1 4 294.34 8.08
2 1 4 300.1 7.55
2 1 5 6.27 0.95
-2 -1 -5 6.71 1.24
-2 -1 -5 6.82 1.22
2 1 5 6.2 0.99
-2 -1 -6 0.93 0.61
2 1 6 1.1 0.51
-2 -1 -6 0.63 0.45
-2 -1 -7 12.71 1.98
-2 -1 -7 10.84 1.68
2 1 7 12.36 1.84
-2 -1 -8 3.86 1.06
2 1 8 4.04 1.08
-2 -1 -8 3.95 1.2
-2 -1 -9 0.84 0.36
-2 -1 -9 1.09 0.68
-2 -1 -9 1.06 0.39
-2 -1 -9 0.98 0.42
2 1 9 0.81 0.22
2 1 9 0.47 0.26
-2 -1 -9 0.33 0.51
2 1 9 1.96 0.59
2 1 9 1.2 0.43
-2 -1 -10 2.2 0.65
-2 -1 -10 2.88 0.73
2 1 10 2.25 0.67
-2 -1 -10 2.13 0.5
2 1 10 2.01 0.54
-2 -1 -10 5.22 1.35
-2 -1 -10 2.17 0.65
-2 -1 -10 2.35 0.99
2 1 10 2.13 0.58
2 1 11 65.78 2.99
2 1 11 79.98 3.68
-2 -1 -11 68.49 3.18
-2 -1 -11 71.23 3
2 1 11 76.73 3.4
-2 -1 -12 2.61 0.58
2 1 12 2.58 0.68
2 1 12 3.1 0.58
-2 -1 -12 2.2 0.54
2 1 12 3.42 0.67
-2 -1 -13 0.31 0.2
2 1 13 0.35 0.25
-2 -1 -13 0.62 0.33
-2 -1 -13 0.93 0.43
2 1 13 0.69 0.37
-2 -1 -14 70.96 2.59
2 1 14 77.26 2.9
2 1 14 75.64 2.79
-2 -1 -15 4.23 0.45
2 1 15 5.33 0.58
2 1 15 5.17 0.55
2 2 -14 8.51 0.66
2 2 -14 9.35 0.77
-2 -2 14 8.59 0.81
2 2 -13 40.8 2.07
-2 -2 13 36.14 2
2 2 -13 34.08 1.77
2 2 -13 35.27 1.84
2 2 -12 18.88 1.49
2 2 -12 16.63 1.38
-2 -2 12 16.82 1.22
-2 -2 11 6.84 0.84
2 2 -11 8.16 1.08
2 2 -11 7.54 1.03
2 2 -10 107.48 4.27
-2 -2 10 98.53 3.62
2 2 -10 99.18 4.06
2 2 -10 102.05 4.12
2 2 -10 99.36 3.87
2 2 -9 1.36 0.47
-2 -2 9 2.57 1.02
2 2 -9 1.73 0.85
2 2 -9 3.43 1.16
2 2 -9 1.45 0.57
2 2 -9 2.22 0.57
2 2 -9 1.09 0.45
2 2 -8 31.66 2.13
2 2 -8 31.13 3.36
-2 -2 8 38.38 3.53
2 2 -8 29.68 2.08
2 2 -8 33.61 3.42
2 2 -8 32.85 2.13
2 2 -7 0.1 0.38
2 2 -7 0.31 0.53
-2 -2 7 -0.26 0.48
-2 -2 6 175.29 7.34
-2 -2 6 158.61 6.45
2 2 -6 176.69 7.34
2 2 -5 29.62 3.17
-2 -2 5 32.34 2.81
-2 -2 5 30.93 2.42
2 2 -5 29.62 2.59
2 2 -4 66.22 4.36
2 2 -4 60.74 3.48
-2 -2 4 57.11 2.96
2 2 -4 68.03 3.3
2 2 -3 20.41 1.76
-2 -2 3 21.57 1.52
2 2 -3 23.27 2.27
2 2 -3 22.12 1.91
2 2 -2 145.92 4.7
2 2 -2 159.33 5.87
-2 -2 2 143.88 4.44
2 2 -2 147.88 5.7
2 2 -2 147.89 4.48
2 2 -1 185.59 5.66
2 2 -1 173.99 6.42
-2 -2 1 170.18 4.72
2 2 -1 169.69 4.68
2 2 0 96.39 3.3
-2 -2 0 90.36 2.88
-2 -2 -1 437.56 9.53
2 2 1 456.82 9.86
2 2 2 827.72 16.33
2 2 2 774.52 13.98
-2 -2 -2 813.43 14.94
-2 -2 -2 865.72 13.91
2 2 3 20.21 1.53
-2 -2 -3 19.73 1.73
-2 -2 -3 17.46 1.32
2 2 3 18.01 1.68
2 2 4 313.21 8.31
-2 -2 -4 306.16 8.31
-2 -2 -4 318.49 9.27
2 2 4 302.85 8.5
-2 -2 -5 771.5 18.05
2 2 5 803.45 17.15
2 2 6 65.78 3.88
-2 -2 -6 63.27 3.98
-2 -2 -6 54.21 3.77
-2 -2 -7 28.23 3.1
2 2 7 28.73 2.91
-2 -2 -7 34.37 3.03
-2 -2 -8 438.45 14.89
-2 -2 -8 419.24 13.24
2 2 8 462.42 14.77
2 2 9 351.33 9.08
2 2 9 338.14 9.16
2 2 9 357.03 8.82
2 2 9 352.07 12.73
-2 -2 -9 348.52 11.96
-2 -2 -9 372.68 9.74
-2 -2 -9 333.23 13.15
-2 -2 -9 345.63 8.79
2 2 9 351.99 8.9
-2 -2 -10 62.92 4.73
2 2 10 64.63 3.24
-2 -2 -10 64.24 3.46
-2 -2 -10 61.88 3.15
-2 -2 -10 57.82 3.14
-2 -2 -10 64.29 5.42
2 2 10 65.99 5.07
2 2 10 61.8 2.95
2 2 10 63.17 3.07
-2 -2 -10 64.57 2.99
-2 -2 -11 -0.06 0.34
2 2 11 0.17 0.28
2 2 11 -0.11 0.33
-2 -2 -11 0.79 0.45
-2 -2 -11 0.32 0.31
-2 -2 -11 0.4 0.31
2 2 11 0.94 0.43
-2 -2 -12 23.84 1.66
-2 -2 -12 21.39 1.58
-2 -2 -12 19.73 1.76
2 2 12 21.75 1.59
2 2 12 23.51 1.84
2 2 12 23.49 1.75
2 2 13 0.99 0.41
-2 -2 -13 1.53 0.39
-2 -2 -13 1.46 0.37
2 2 13 1.56 0.44
-2 -2 -13 1.75 0.53
2 2 13 1.26 0.4
-2 -2 -14 0.11 0.2
2 2 14 0.45 0.29
2 2 14 0.26 0.16
-2 -2 -14 0.34 0.27
2 2 14 0.27 0.2
2 2 15 81.41 2.66
2 2 15 87.54 2.74
-2 -2 -15 88.53 2.63
2 3 -14 28.13 1.2
-2 -3 14 27.49 1.26
2 3 -13 37.2 1.52
-2 -3 13 35.24 1.83
2 3 -13 39.94 1.87
-2 -3 12 4.41 0.74
2 3 -12 5.82 0.82
2 3 -12 5.51 0.69
2 3 -12 4.97 0.69
2 3 -11 19.45 1.4
-2 -3 11 18.34 1.64
2 3 -11 16.8 1.41
2 3 -11 18.61 1.52
2 3 -10 8.45 1.08
2 3 -10 7.84 0.99
2 3 -10 7.39 0.99
2 3 -10 7.93 0.98
2 3 -9 155.33 5.17
-2 -3 9 172.58 8.44
2 3 -9 143.67 5.13
2 3 -9 155.17 8.38
2 3 -9 151.97 8.02
2 3 -9 147.06 5.06
2 3 -9 154.64 5.41
2 3 -8 85.52 3.76
-2 -3 8 81.68 5.59
2 3 -8 77.61 3.49
2 3 -8 89.22 6.17
2 3 -8 78.35 5.44
2 3 -8 75.54 3.48
2 3 -8 76.86 3.46
2 3 -7 0.78 0.55
-2 -3 7 1.45 0.61
-2 -3 7 0.36 0.59
2 3 -7 0.81 0.8
2 3 -6 473.02 14.3
-2 -3 6 500.11 14.72
-2 -3 6 484.41 15.01
2 3 -6 511.2 16.29
2 3 -5 647.35 18.27
-2 -3 5 584.39 15.06
2 3 -4 36.74 2.67
2 3 -4 34.18 2.73
2 3 -4 39.37 3.89
-2 -3 4 31.84 2.43
2 3 -3 232.02 7.45
2 3 -3 240.99 9.36
-2 -3 3 255.84 7.32
2 3 -3 246.88 8.21
2 3 -2 292.77 7.06
2 3 -2 284.58 9.32
-2 -3 2 265.62 7.53
2 3 -2 285.42 9.31
-2 -3 1 84.07 3.45
2 3 -1 95.65 4.29
2 3 -1 85.49 3.01
-2 -3 1 88.49 2.53
2 3 -1 92.51 4.98
2 3 -1 89.39 3.37
2 3 0 30.74 2.8
2 3 0 34.56 2.2
-2 -3 0 32.71 2
2 3 0 29.02 1.63
2 3 0 33.92 1.62
-2 -3 0 33.5 1.4
2 3 1 11.97 1.66
2 3 1 11.79 0.82
2 3 1 13.43 1.1
-2 -3 -1 10.25 1.02
2 3 1 11.48 1.11
2 3 2 358.51 8.42
-2 -3 -2 407.99 9.35
2 3 2 380.06 7.96
2 3 2 386.01 11.12
2 3 3 205.78 7.28
2 3 3 204.52 5.29
-2 -3 -3 196.85 6.83
2 3 3 185.95 5.13
-2 -3 -4 2007.98 39.21
2 3 4 1901.37 38.53
2 3 4 2036.28 38.22
-2 -3 -4 1997.1 37.85
-2 -3 -5 694.62 17.1
2 3 5 703.56 16.49
-2 -3 -5 665.04 16.17
2 3 6 270.36 9.29
-2 -3 -6 244.42 8.94
2 3 6 253.04 7.78
-2 -3 -7 42.25 3.48
2 3 7 43.28 3.71
-2 -3 -7 31.74 3.21
2 3 8 281.72 11.39
-2 -3 -8 303.1 10.6
2 3 9 226.87 6.78
-2 -3 -9 250.59 7.76
-2 -3 -9 239.31 9.75
2 3 9 240.01 10.9
2 3 9 248.91 7.44
-2 -3 -9 220.59 6.82
-2 -3 -9 226.44 10.95
-2 -3 -9 224.75 6.97
2 3 9 233.54 6.81
2 3 9 242.11 6.79
2 3 10 195.51 6.08
-2 -3 -10 209.21 9.18
-2 -3 -10 189.44 10.12
-2 -3 -10 201 6.89
2 3 10 193.24 5.94
2 3 10 201.66 6.59
2 3 10 181.2 9.45
2 3 10 188.79 6.05
-2 -3 -10 173.12 6.03
-2 -3 -10 199.49 6.25
-2 -3 -11 12.69 1.31
2 3 11 13.14 1.46
2 3 11 10.9 1.23
-2 -3 -11 10.99 1.19
-2 -3 -11 12.7 1.53
2 3 11 10.97 1.21
-2 -3 -11 11.1 1.3
2 3 11 11.44 1.27
2 3 12 201.35 5.93
2 3 12 207.18 6.22
-2 -3 -12 212.28 6.76
2 3 12 212.12 6.21
-2 -3 -12 213.5 6.15
-2 -3 -13 6.13 0.82
2 3 13 5.78 0.83
-2 -3 -13 7.69 1
2 3 13 6.33 0.85
-2 -3 -14 0.89 0.28
2 3 14 1.6 0.44
-2 -3 -14 1.37 0.4
2 3 14 1.38 0.32
2 3 14 1.53 0.4
-2 -3 -15 2.21 0.34
-2 -3 -15 2.8 0.42
2 3 15 2.75 0.41
2 3 15 2.73 0.42
-2 -4 13 3.31 0.47
2 4 -13 2.58 0.39
2 4 -12 8.26 0.85
2 4 -12 7.54 0.71
-2 -4 12 9 0.97
2 4 -11 0.66 0.27
-2 -4 11 0.75 0.32
2 4 -11 0.66 0.36
2 4 -10 27.96 1.9
2 4 -10 29.12 2.12
-2 -4 10 27.68 2.14
2 4 -9 172.68 5.78
-2 -4 9 182.78 6.23
2 4 -9 182.44 5.84
2 4 -9 175.82 5.61
2 4 -8 56.22 3.03
-2 -4 8 54.71 3.31
-2 -4 8 61.25 4.99
2 4 -8 59.11 3.01
2 4 -8 57.92 4.87
2 4 -8 62.88 3.17
2 4 -7 227.33 7.08
-2 -4 7 242.73 10.39
2 4 -7 231.51 9.94
-2 -4 7 248.38 10.42
-2 -4 7 213.81 7.22
2 4 -7 228.29 6.88
2 4 -7 274.75 11.76
2 4 -7 206.2 6.74
2 4 -6 433.41 14.47
-2 -4 6 463.8 15.5
-2 -4 6 535.96 16.38
2 4 -6 499.12 16.73
2 4 -5 4.14 1.16
-2 -4 5 4.5 1.24
2 4 -5 2.93 1.1
2 4 -4 144.46 6.42
2 4 -4 142.75 6.49
-2 -4 4 159.57 6.65
2 4 -3 232.69 8.76
2 4 -3 225.78 10.3
-2 -4 3 253.8 7.99
2 4 -3 224.94 7.83
2 4 -2 1.69 0.69
2 4 -2 2.23 0.65
2 4 -2 1.66 0.99
-2 -4 2 2.42 0.7
2 4 -1 2351.67 42.68
2 4 -1 2244.99 44.22
2 4 -1 2392.57 46.83
2 4 -1 2238.05 46.55
2 4 -1 2312.68 48.91
-2 -4 1 2411.5 43.27
-2 -4 1 2354.45 44.81
2 4 0 61.95 3.37
-2 -4 0 59.37 3.11
2 4 0 61.19 2.34
-2 -4 0 61.41 2.68
2 4 0 60.67 3.6
2 4 0 60.05 4.73
2 4 0 57.38 2.67
2 4 1 4.23 0.62
-2 -4 -1 3.07 0.7
2 4 1 3.72 0.73
2 4 1 2.99 1.14
-2 -4 -1 3.16 0.45
2 4 1 4.6 0.69
2 4 1 4.42 0.85
2 4 2 100.54 5.62
2 4 2 97.23 3.51
-2 -4 -2 91.5 4.15
-2 -4 -2 103.6 3.78
2 4 2 104.32 4.35
2 4 2 99.54 3.71
2 4 2 100.2 3.55
2 4 3 46.86 3.6
-2 -4 -3 41.05 2.74
-2 -4 -3 43.6 2.69
2 4 3 44.29 2.56
-2 -4 -3 49.45 3.01
2 4 3 43.47 2.31
-2 -4 -4 3.59 0.9
2 4 4 2.97 0.65
-2 -4 -4 2.53 0.72
2 4 4 3.22 0.92
2 4 5 219.42 8.11
2 4 5 237.31 8.44
-2 -4 -5 245.77 8.84
2 4 5 212.94 7.2
-2 -4 -5 252.76 8.61
-2 -4 -6 288.72 10.1
2 4 6 247.32 8.48
2 4 6 268.67 9.84
2 4 6 239.95 8.34
-2 -4 -6 279.83 10.04
-2 -4 -7 117.75 6.33
2 4 7 109.23 6.35
2 4 7 93 5.2
-2 -4 -7 107.26 6.33
-2 -4 -8 144.43 5.52
-2 -4 -8 144.22 5.11
2 4 8 150.63 4.97
2 4 8 153.63 5.32
2 4 8 142.84 5.16
2 4 8 159.46 8.48
-2 -4 -8 144.23 7.38
-2 -4 -8 142.98 8.13
-2 -4 -9 804.08 17.92
2 4 9 804.96 17.23
-2 -4 -9 835.32 18.87
2 4 9 817.23 17.25
2 4 9 825.88 24.57
-2 -4 -9 823.48 22.05
2 4 9 798.61 18.1
2 4 9 783.03 17.37
2 4 9 780.43 18.09
-2 -4 -10 7.82 1.22
-2 -4 -10 8.04 1.31
2 4 10 9.11 1.11
2 4 10 7.62 1.22
-2 -4 -10 9.47 1.9
-2 -4 -10 8.04 2.15
2 4 10 5.94 1.75
-2 -4 -10 7 0.97
2 4 10 7.7 1.01
2 4 10 8.65 1.14
2 4 11 24.12 1.77
2 4 11 24.57 2.1
-2 -4 -11 23.81 1.88
-2 -4 -11 18.45 1.65
-2 -4 -11 23.94 2.18
2 4 11 23.53 1.81
2 4 11 21.85 1.72
-2 -4 -12 230.11 7.1
2 4 12 210.84 6.2
-2 -4 -12 197.92 6.22
-2 -4 -12 232.32 6.52
2 4 12 206.62 6.15
2 4 12 231.05 6.51
-2 -4 -13 1.29 0.4
2 4 13 1.48 0.41
2 4 13 1.28 0.39
-2 -4 -13 1.38 0.45
-2 -4 -13 1.9 0.48
-2 -4 -13 1.47 0.44
2 4 13 1.87 0.5
-2 -4 -14 18.68 1.24
2 4 14 19.14 1.29
2 4 14 16.25 1.11
2 4 14 16.97 1.17
-2 -4 -14 20.67 1.29
-2 -4 -15 61.66 1.96
2 4 15 60.25 2.02
2 5 -12 32.25 1.38
2 5 -12 35.32 1.41
-2 -5 12 33.94 1.58
2 5 -11 40.22 1.93
2 5 -11 40.83 1.92
-2 -5 11 39.73 2.12
2 5 -10 9.2 1.04
2 5 -10 9.67 1.02
-2 -5 10 9.15 1.14
2 5 -9 14.72 1.47
-2 -5 9 12.91 1.51
2 5 -9 13.33 1.25
2 5 -9 14.92 1.45
2 5 -8 119.91 4.5
-2 -5 8 123.6 5.08
2 5 -8 121.76 4.78
2 5 -8 130.68 4.87
2 5 -7 84.1 4
2 5 -7 91.53 4.13
-2 -5 7 88.11 4.42
2 5 -7 103.12 7.19
-2 -5 7 97.2 6.52
2 5 -7 98.91 6.49
-2 -5 7 96.12 6.7
2 5 -7 92.58 3.94
2 5 -6 4.45 1.29
2 5 -6 3.59 0.74
-2 -5 6 3.56 1.33
2 5 -6 3.15 1.35
2 5 -6 3.51 0.75
-2 -5 6 3.07 1.45
-2 -5 6 3.76 0.91
2 5 -6 3.13 0.7
2 5 -5 579.47 17.51
2 5 -5 655.02 20.06
-2 -5 5 650.3 18.62
2 5 -5 532.63 13.34
2 5 -5 589.78 14.06
2 5 -4 23.92 2.77
2 5 -4 24.44 2.77
-2 -5 4 26.98 2.9
2 5 -4 28.02 3.7
-2 -5 3 2.33 0.8
2 5 -3 4.25 1.44
2 5 -3 2.99 1.09
2 5 -2 1426.81 34.56
-2 -5 2 1531.76 31.43
2 5 -2 1456.63 31.11
2 5 -2 1465.73 34.39
2 5 -1 0.66 0.67
2 5 -1 0.47 0.23
-2 -5 1 1.03 0.53
2 5 -1 -0.06 0.36
2 5 0 5.02 0.89
2 5 0 7.14 1.29
-2 -5 0 6.4 1.13
-2 -5 0 5.28 0.84
2 5 0 5.44 1.21
-2 -5 -1 761.83 17.54
2 5 1 747.37 16.86
-2 -5 -1 701.62 16.53
2 5 1 735.33 16.4
2 5 1 768.94 18.41
2 5 2 10.89 1.26
-2 -5 -2 11.82 1.54
2 5 2 13.24 1.68
2 5 3 207.7 6.77
2 5 3 222.54 9.67
-2 -5 -3 220.49 7.68
-2 -5 -3 215.95 6.63
2 5 3 223.68 6.6
-2 -5 -4 36.11 2.9
-2 -5 -4 37.39 2.74
2 5 4 35.89 3.45
2 5 4 32.4 2.42
-2 -5 -5 22.94 2.66
-2 -5 -5 21.47 2.33
-2 -5 -5 20.57 2.27
2 5 5 21.1 2.13
2 5 5 21.88 2.59
-2 -5 -6 14.52 2.15
2 5 6 12.64 1.91
2 5 6 12.44 2.05
-2 -5 -6 11.36 1.89
-2 -5 -6 10.89 1.76
2 5 7 0.55 0.22
-2 -5 -7 0.71 0.4
-2 -5 -7 1.9 0.51
-2 -5 -7 0.72 0.55
-2 -5 -7 0.52 0.45
2 5 7 1.28 0.49
-2 -5 -7 0.98 0.7
2 5 7 0.73 0.52
-2 -5 -8 99.01 4.25
2 5 8 108.99 4.45
2 5 8 108.13 7.19
-2 -5 -8 95.02 6.34
2 5 8 111.42 4.21
2 5 8 96.94 4.06
-2 -5 -8 105.27 4.63
2 5 8 96.63 4.23
-2 -5 -8 101.83 4.01
-2 -5 -8 93.1 6.86
-2 -5 -9 25.78 1.97
-2 -5 -9 27.92 2.4
2 5 9 30.44 2.37
2 5 9 29.91 2.08
2 5 9 30.79 4.03
-2 -5 -9 31.12 3.63
-2 -5 -9 32.39 2.42
2 5 9 30.05 2.2
2 5 9 27.54 2.28
-2 -5 -9 25.73 3.75
-2 -5 -10 4.08 0.81
2 5 10 3.86 0.74
2 5 10 3.3 0.88
-2 -5 -10 3.29 0.78
-2 -5 -10 2.59 0.82
2 5 10 3.3 0.73
-2 -5 -11 66.95 3.27
-2 -5 -11 62.36 3
-2 -5 -11 63.43 3.61
2 5 11 63.21 3.57
2 5 11 59.29 2.91
2 5 11 59.84 3.04
2 5 12 0.71 0.31
-2 -5 -12 1.26 0.47
2 5 12 0.72 0.4
2 5 12 0.87 0.42
-2 -5 -12 0.56 0.35
-2 -5 -12 0.58 0.32
2 5 12 0.95 0.44
-2 -5 -13 36.55 1.97
2 5 13 36.32 1.89
-2 -5 -13 34.02 2.18
-2 -5 -13 38.73 1.96
2 5 13 29.29 1.61
2 5 13 35.44 1.94
-2 -5 -14 13.12 0.99
2 5 14 12.17 0.91
-2 -5 -14 11.12 0.87
2 5 14 12.17 0.96
-2 -5 -15 24.4 1.11
2 5 15 28.58 1.2
-2 -6 11 12.84 0.89
-2 -6 11 14.03 0.95
-2 -6 10 26.71 1.66
2 6 -10 32.54 1.73
2 6 -9 1.79 0.47
-2 -6 9 1.53 0.48
2 6 -9 1.29 0.36
2 6 -8 21.19 1.74
-2 -6 8 21.29 1.88
2 6 -8 19.96 1.53
2 6 -7 50.84 2.74
2 6 -7 48.66 2.86
-2 -6 7 46.63 3
-2 -6 6 2.17 0.67
2 6 -6 2.44 0.71
2 6 -6 1.46 0.49
2 6 -5 79.37 4
-2 -6 5 73.23 3.94
2 6 -5 86.04 6.71
-2 -6 5 85.54 6.38
2 6 -5 80.97 5.93
2 6 -5 73.69 3.59
2 6 -4 86.93 5.82
2 6 -4 82.47 3.89
-2 -6 4 84.49 3.99
2 6 -4 74.69 6.36
-2 -6 4 96.38 6.3
2 6 -4 82.29 3.85
2 6 -3 28.9 2.05
2 6 -3 28.84 3.39
-2 -6 3 32.29 3.34
2 6 -3 30.78 2.18
2 6 -3 24.89 3.74
2 6 -3 27.18 2.93
2 6 -2 189.52 9.65
-2 -6 2 202.25 8.35
2 6 -2 189 7.89
2 6 -2 185.47 9.49
2 6 -1 211.58 7.88
-2 -6 1 212.46 8.24
2 6 -1 197.1 8.91
2 6 -1 192.35 8.78
2 6 0 1.59 0.57
2 6 0 3.43 0.92
-2 -6 0 2.78 0.85
2 6 0 2.22 0.84
-2 -6 -1 114.74 5.65
-2 -6 -1 109.16 4.99
2 6 1 123.08 6.29
2 6 1 117.3 5.14
2 6 2 1580.83 32.67
2 6 2 1665.39 34.91
-2 -6 -2 1618.84 34.11
2 6 3 115.62 5.15
-2 -6 -3 114.72 5.69
-2 -6 -3 105.77 5.46
2 6 3 125.67 7.92
-2 -6 -4 2.19 0.94
2 6 4 0.15 0.5
2 6 5 239.05 10.35
-2 -6 -5 218.24 8.84
-2 -6 -6 0.7 0.24
2 6 6 0.71 0.33
2 6 6 0.84 0.82
2 6 6 0.27 0.34
2 6 6 0.99 0.44
-2 -6 -6 0.27 0.33
2 6 6 1.68 0.59
-2 -6 -6 0.63 0.3
-2 -6 -7 17.42 1.6
-2 -6 -7 19.32 1.81
-2 -6 -7 14.88 2.36
2 6 7 16.95 1.59
2 6 7 20.21 1.79
2 6 7 16.05 1.6
-2 -6 -7 20.52 1.65
2 6 7 14.84 1.42
2 6 7 16.95 1.71
-2 -6 -8 83.36 3.92
-2 -6 -8 96.67 3.95
2 6 8 94.84 3.94
2 6 8 94.14 4.24
-2 -6 -8 87.29 6.71
-2 -6 -8 91.22 4.4
2 6 8 79.47 3.7
2 6 8 85.47 4.15
2 6 9 3.68 0.87
-2 -6 -9 5.53 1.15
2 6 9 5.83 0.96
2 6 9 4.75 1
-2 -6 -9 5.73 1.07
-2 -6 -9 4.79 0.85
2 6 9 4.33 0.82
-2 -6 -10 23.33 1.95
-2 -6 -10 19.73 1.78
-2 -6 -10 22.54 2.21
2 6 10 20.91 1.71
2 6 10 23.09 2.17
2 6 10 22.51 1.84
2 6 10 25.66 2.22
-2 -6 -11 17.21 1.57
-2 -6 -11 20.05 1.97
2 6 11 19.47 1.55
2 6 11 18.22 1.84
-2 -6 -11 19.84 1.67
2 6 11 20.84 1.67
-2 -6 -12 13.13 1.23
-2 -6 -12 12.88 1.19
2 6 12 11.91 1.32
2 6 12 13.68 1.25
-2 -6 -12 13.6 1.08
-2 -6 -12 13.24 1.48
2 6 12 14.16 1.26
-2 -6 -13 132.29 3.94
-2 -6 -13 129.33 4.36
-2 -6 -13 124.21 3.52
2 6 13 128.76 3.86
2 6 13 123.94 3.88
-2 -6 -14 4.09 0.5
-2 -6 -14 3.24 0.53
2 6 14 3.63 0.48
2 6 14 4.11 0.51
2 7 -10 2.71 0.41
-2 -7 10 2.81 0.46
-2 -7 10 2.28 0.37
-2 -7 10 2.03 0.31
2 7 -10 2.14 0.37
-2 -7 9 133.31 4.1
-2 -7 9 124.67 3.93
2 7 -9 140.47 4.27
2 7 -9 148.8 4.21
2 7 -8 65.35 2.59
-2 -7 8 72.24 3.15
2 7 -8 74.69 3.1
-2 -7 8 63 2.93
-2 -7 7 3.92 0.79
2 7 -7 5.16 0.86
2 7 -7 4.97 0.74
2 7 -6 7.95 1.17
-2 -7 6 6.07 1.07
2 7 -6 7.58 1
2 7 -5 2.94 0.73
-2 -7 5 2.14 0.71
2 7 -5 2.51 0.65
2 7 -4 6.32 1.05
-2 -7 4 6.54 1.12
2 7 -4 5.36 0.95
2 7 -3 5.6 1.47
2 7 -3 4.26 0.72
2 7 -3 4.17 0.83
2 7 -3 4.27 0.85
2 7 -3 3.75 1.53
-2 -7 3 3.18 1.22
-2 -7 3 4.06 0.91
2 7 -3 4.14 0.84
2 7 -3 7.5 1.73
2 7 -2 4.97 1.64
2 7 -2 5.9 1.01
-2 -7 2 6.28 1.04
2 7 -2 5.88 0.93
-2 -7 2 6.44 1.08
2 7 -2 5.92 0.97
2 7 -2 4.75 0.8
-2 -7 2 4.37 1.31
2 7 -2 5.67 1.72
2 7 -2 5.96 0.98
2 7 -1 144.98 5.05
2 7 -1 130.39 5.57
2 7 -1 129.58 4.66
-2 -7 1 145.19 5.26
-2 -7 1 152.61 7.77
2 7 -1 144.72 8.19
2 7 -1 153.33 5.29
-2 -7 1 151.8 5.31
2 7 -1 141.93 9.1
2 7 -1 145.01 4.97
2 7 0 3.36 0.61
-2 -7 0 4.69 0.8
2 7 0 4.59 0.75
2 7 0 4.53 1.02
2 7 0 4.25 0.73
2 7 0 5.72 1.75
-2 -7 0 3.75 0.72
-2 -7 0 5.25 1.44
2 7 0 5.47 1.48
2 7 0 4.53 0.76
-2 -7 -1 81.14 3.57
2 7 1 85.11 4.56
2 7 1 69.51 3.03
2 7 1 87.67 3.59
2 7 1 77.32 3.35
-2 -7 -1 84.13 5.38
2 7 1 88.27 5.9
-2 -7 -1 79.64 3.39
2 7 1 94.3 8.25
2 7 1 75.25 3.28
2 7 2 26.23 2.41
-2 -7 -2 22.2 1.64
-2 -7 -2 25.03 1.86
-2 -7 -2 21.34 2.62
2 7 2 24.81 1.79
2 7 2 26.28 4.11
2 7 2 23.92 1.74
2 7 2 23.15 1.69
2 7 3 260.24 8.31
-2 -7 -3 247.43 6.82
-2 -7 -3 255.56 7.35
2 7 3 260.28 7.11
-2 -7 -3 247.55 9.81
-2 -7 -3 228.21 9.25
2 7 3 266.29 13.16
2 7 3 244.96 7
2 7 4 179.11 10.12
-2 -7 -4 180.86 5.89
2 7 4 180.14 5.64
-2 -7 -4 162.67 7.92
2 7 4 169.85 6.3
-2 -7 -4 175.93 5.32
-2 -7 -4 151.58 7.71
-2 -7 -4 169.75 5.38
2 7 4 175.48 5.62
-2 -7 -5 29.98 1.98
2 7 5 30.29 2.34
-2 -7 -5 29.41 2.17
2 7 5 30.57 2.1
-2 -7 -5 24.25 3.1
2 7 5 25.93 3.61
2 7 5 25.07 1.97
2 7 6 47.72 2.98
-2 -7 -6 55.01 2.83
-2 -7 -6 51.01 3.01
2 7 6 53.25 2.92
2 7 6 54.02 2.94
-2 -7 -6 45.64 4.61
2 7 6 48.7 2.9
2 7 7 1.29 0.47
-2 -7 -7 1.57 0.51
-2 -7 -7 2.7 0.66
2 7 7 1.67 0.66
-2 -7 -7 1.2 0.51
2 7 7 1.25 0.47
2 7 7 1.33 0.48
2 7 7 1.53 0.52
2 7 8 135.68 5.3
-2 -7 -8 136.66 5.02
-2 -7 -8 134.76 5.52
2 7 8 139.96 4.9
-2 -7 -8 117.72 4.82
2 7 8 123.66 4.79
2 7 8 140.92 5.33
-2 -7 -9 3.92 0.84
-2 -7 -9 3.43 0.78
-2 -7 -9 4.56 0.99
2 7 9 3.46 0.72
2 7 9 4.77 0.95
2 7 9 3.45 0.83
2 7 9 3.91 0.79
-2 -7 -10 77.18 3.43
-2 -7 -10 76.17 4.04
2 7 10 77.72 3.29
2 7 10 80.94 3.98
-2 -7 -10 76.77 3.58
2 7 10 74.27 3.43
2 7 10 78.88 3.84
-2 -7 -11 42.54 2.26
-2 -7 -11 41.99 2.36
2 7 11 40.72 2.55
2 7 11 42.1 2.2
2 7 11 44.74 2.36
-2 -7 -11 43.6 2.82
-2 -7 -12 1.3 0.38
-2 -7 -12 0.41 0.27
2 7 12 0.55 0.33
2 7 12 0.55 0.28
-2 -7 -12 0.41 0.41
2 7 12 0.65 0.31
-2 -7 -13 46.57 1.67
-2 -7 -13 48.54 1.89
-2 -7 -13 49.81 2.27
2 7 13 53.74 2
2 7 13 47.99 1.92
-2 -8 9 61.55 1.99
2 8 -9 60.85 2.02
-2 -8 9 57.31 1.87
-2 -8 8 24.68 1.49
-2 -8 8 24.14 1.38
2 8 -8 27.11 1.49
2 8 -8 26.18 1.41
-2 -8 8 21.76 1.16
-2 -8 7 10.69 0.97
-2 -8 7 13.28 1.19
2 8 -7 11.6 1.12
2 8 -7 12.89 1.13
-2 -8 7 10.91 1.15
-2 -8 6 5.97 0.96
-2 -8 6 6.74 1
2 8 -6 6.01 0.92
2 8 -6 6.91 0.92
-2 -8 6 5.68 0.82
2 8 -6 6.15 0.79
2 8 -5 144.06 5.15
-2 -8 5 147.58 5.48
-2 -8 5 137.01 5.52
-2 -8 5 130.96 4.91
2 8 -5 158.94 5.63
2 8 -5 151.1 5
-2 -8 4 0.6 0.43
2 8 -4 0.39 0.44
2 8 -4 0.54 0.38
2 8 -4 0.84 0.44
-2 -8 4 1.26 0.56
-2 -8 3 82.04 4.11
2 8 -3 87.27 4.01
-2 -8 3 82.11 4.12
2 8 -3 76.41 3.63
2 8 -3 76.08 3.74
2 8 -3 81.22 3.75
-2 -8 2 25.13 2.12
2 8 -2 20.92 1.75
-2 -8 2 22.35 2.02
2 8 -2 21.84 1.91
2 8 -2 21.61 1.92
2 8 -2 24.79 2
2 8 -2 22.59 1.88
-2 -8 1 43.19 2.7
2 8 -1 41.57 2.89
-2 -8 1 42.94 2.78
2 8 -1 35.38 2.23
2 8 -1 44.1 2.63
2 8 -1 45.78 2.76
2 8 -1 40.74 2.54
-2 -8 0 2.79 0.68
2 8 0 2.1 0.57
2 8 0 2.83 0.66
2 8 0 2.72 0.62
-2 -8 0 2.77 0.62
2 8 0 3.99 1.05
-2 -8 -1 12.61 1.31
2 8 1 13.24 1.87
-2 -8 -1 10.98 1.3
2 8 1 12.21 1.31
2 8 1 12.61 1.34
-2 -8 -2 349.63 13.27
-2 -8 -2 327.44 9.12
2 8 2 326.79 8.72
-2 -8 -2 327.6 8.68
2 8 2 327.21 8.83
-2 -8 -3 716.29 15.33
-2 -8 -3 663.95 14.95
-2 -8 -3 672.63 15.61
2 8 3 678.22 15.16
2 8 3 677.65 15.35
2 8 3 708.33 17.1
-2 -8 -4 56.13 2.87
-2 -8 -4 56.85 3.14
2 8 4 57.5 3.52
2 8 4 54.7 2.88
-2 -8 -4 56 2.76
2 8 4 56.8 2.97
-2 -8 -5 27.87 1.86
2 8 5 27.89 2.05
-2 -8 -5 32.12 2.12
-2 -8 -5 28.89 2.23
2 8 5 27.04 2.31
2 8 5 28.34 2.07
-2 -8 -5 33.75 2.13
-2 -8 -6 99.57 4.12
2 8 6 108.91 4.7
-2 -8 -6 110.77 4.68
2 8 6 104.13 4.24
2 8 6 109.33 4.39
-2 -8 -6 118.96 4.42
2 8 6 117.2 4.56
2 8 7 102.29 4.37
2 8 7 99.59 4
2 8 7 107.82 4.39
-2 -8 -7 110.33 4.68
-2 -8 -7 110.46 4.3
2 8 7 99.2 4.06
2 8 7 109.19 4.44
-2 -8 -8 28.94 2.08
-2 -8 -8 30.88 2.12
-2 -8 -8 29.35 2.34
2 8 8 25.39 1.84
2 8 8 29.51 2.16
2 8 8 27.83 2.06
2 8 8 26.09 1.93
2 8 8 31.41 2.25
-2 -8 -9 47.24 2.76
-2 -8 -9 50.57 3.11
2 8 9 49.25 2.46
2 8 9 48.99 2.85
-2 -8 -9 52.92 2.62
2 8 9 50.6 2.66
2 8 9 54.08 2.99
-2 -8 -10 56.07 2.5
-2 -8 -10 60.38 2.93
-2 -8 -10 61.18 3.31
2 8 10 58.19 2.54
2 8 10 58.55 3
2 8 10 58.29 2.71
2 8 10 59.81 3.06
2 8 11 2.58 0.49
-2 -8 -11 2.32 0.56
2 8 11 2.03 0.52
-2 -8 -11 3.03 0.57
2 8 11 1.94 0.43
-2 -8 -11 2.44 0.46
-2 -8 -12 10.95 0.79
-2 -8 -12 11.39 0.87
-2 -8 -12 13 1.1
2 8 12 11.66 0.85
2 8 12 11.15 0.84
-2 -8 -13 8.08 0.65
-2 -9 7 60.7 2.13
2 9 -7 61.96 2.15
-2 -9 7 61.62 2.08
-2 -9 6 57.38 2.34
2 9 -6 53.49 2.16
-2 -9 6 54.77 2.39
2 9 -6 59.9 2.39
2 9 -5 51.09 2.33
-2 -9 5 48.61 2.54
2 9 -5 56.89 2.59
-2 -9 5 57.31 2.61
-2 -9 4 18.82 1.59
-2 -9 4 18 1.67
2 9 -4 21.4 1.7
2 9 -4 17.1 1.42
2 9 -3 3.7 0.65
-2 -9 3 3.17 0.71
-2 -9 3 2.62 0.71
2 9 -3 3.05 0.62
2 9 -3 3.4 0.71
2 9 -2 9.97 1.17
-2 -9 2 10.62 1.32
2 9 -2 8.96 1.13
-2 -9 2 10.57 1.27
-2 -9 2 9.63 0.99
2 9 -2 9.66 1.14
2 9 -1 84.11 3.94
-2 -9 1 84.77 3.95
2 9 -1 82.94 3.66
-2 -9 1 76.32 3.35
-2 -9 1 86.29 3.86
2 9 -1 85.39 3.73
-2 -9 0 92.24 3.93
2 9 0 86.45 4.32
-2 -9 0 90.52 3.79
-2 -9 0 90.72 4.09
2 9 0 91.29 3.82
2 9 0 98.74 4.04
-2 -9 -1 10.78 1.19
2 9 1 9.73 1.5
-2 -9 -1 9.27 1.18
2 9 1 9.45 1.1
-2 -9 -1 8.92 1.11
2 9 1 9.33 1.14
-2 -9 -2 69.75 3.24
-2 -9 -2 77.79 3.63
2 9 2 75.12 4.3
2 9 2 72.46 3.26
-2 -9 -2 76.77 3.42
2 9 2 70.22 3.36
-2 -9 -3 113.21 4.3
-2 -9 -3 104.79 4.03
2 9 3 115.64 5.27
-2 -9 -3 111.1 4.49
2 9 3 108.83 4.13
2 9 3 108.88 4.34
2 9 4 4.98 0.85
-2 -9 -4 5.45 0.92
-2 -9 -4 6.08 0.9
2 9 4 5.27 0.81
-2 -9 -4 6.31 0.84
2 9 4 6.26 1.16
-2 -9 -5 33.38 2
2 9 5 36.48 2.61
-2 -9 -5 36.58 2.41
-2 -9 -5 34.46 2.2
2 9 5 32.89 2.12
2 9 5 34.04 2.25
2 9 6 379.09 10.01
-2 -9 -6 380.52 9.52
-2 -9 -6 375.77 9.93
-2 -9 -6 369.33 8.93
2 9 6 358.7 9.31
2 9 6 370.32 9.66
2 9 7 0.67 0.3
2 9 7 0.56 0.38
2 9 7 0.56 0.23
-2 -9 -7 0.38 0.27
-2 -9 -7 0.38 0.37
2 9 7 0.23 0.23
2 9 8 52.4 2.55
-2 -9 -8 53.48 2.93
2 9 8 45.14 2.18
2 9 8 46.13 2.48
-2 -9 -8 48.46 2.55
2 9 8 49 2.43
2 9 8 54.75 2.78
-2 -9 -9 48.59 2.47
-2 -9 -9 46.6 2.62
2 9 9 44.05 2.01
2 9 9 45.01 2.31
2 9 9 48.23 2.25
2 9 9 48.82 2.49
-2 -9 -10 15.24 1.22
-2 -9 -10 14.45 1.3
2 9 10 14.44 1
2 9 10 14.25 1.09
2 9 10 14.84 1.05
-2 -9 -11 113.49 3.49
2 9 11 91.91 2.7
-2 -9 -11 120.02 3.17
2 9 11 97.85 2.79
-2 -10 5 37.89 1.45
-2 -10 5 34.36 1.44
2 10 -5 35.13 1.38
-2 -10 4 2.87 0.49
2 10 -4 2.02 0.38
-2 -10 4 3.4 0.51
-2 -10 3 72.92 2.99
2 10 -3 80.46 2.92
-2 -10 3 78.04 2.94
-2 -10 2 52.71 2.56
2 10 -2 55.84 2.31
-2 -10 2 53.1 2.68
2 10 -2 57.98 2.55
2 10 -2 53.73 2.21
-2 -10 1 22.45 1.63
2 10 -1 21.5 1.58
-2 -10 1 21.89 1.7
2 10 -1 23.38 1.58
2 10 -1 22.43 1.53
-2 -10 0 21.68 1.6
2 10 0 20.77 1.51
-2 -10 0 22.73 1.74
2 10 0 19.47 1.65
2 10 0 22.08 1.59
-2 -10 0 19.18 1.33
-2 -10 -1 103 3.77
-2 -10 -1 98.15 3.61
-2 -10 -1 104.18 4.07
2 10 1 100.37 3.65
2 10 1 93.1 4.18
2 10 1 106.04 3.91
2 10 2 0.06 0.45
2 10 2 -0.13 0.31
-2 -10 -2 0.04 0.21
-2 -10 -2 0.25 0.27
2 10 2 0.07 0.21
-2 -10 -2 0.6 0.31
-2 -10 -2 0.57 0.3
-2 -10 -3 30.67 1.82
-2 -10 -3 31.21 2.06
2 10 3 29.53 1.8
-2 -10 -3 31.47 1.94
2 10 3 33.9 2.46
-2 -10 -3 32.22 1.85
2 10 3 32.69 2.02
-2 -10 -4 155.05 5
-2 -10 -4 157.08 4.69
-2 -10 -4 164.35 5.31
2 10 4 167.11 5.75
2 10 4 152.23 4.72
2 10 4 164.88 5.13
2 10 5 13.16 1.37
-2 -10 -5 13.78 1.09
-2 -10 -5 14.16 1.27
-2 -10 -5 14.77 1.36
2 10 5 13.06 1.13
2 10 5 12.6 1.1
2 10 5 12.64 1.21
2 10 6 9.54 1.06
-2 -10 -6 7.62 0.93
-2 -10 -6 8.41 1.03
2 10 6 7.5 0.84
2 10 6 7.35 0.82
2 10 6 7.94 0.93
2 10 7 230.2 6.08
-2 -10 -7 238.07 6.19
-2 -10 -7 241.08 6.49
2 10 7 245.88 6.24
-2 -10 -8 11.31 1.01
-2 -10 -8 10 1.03
2 10 8 9.31 0.81
2 10 8 9.42 0.8
2 10 8 11.17 0.99
-2 -10 -9 38.68 1.69
-2 -10 -9 38.44 1.89
-2 -11 1 33.5 1.45
-2 -11 1 33.63 1.48
-2 -11 1 36.51 1.61
2 11 0 185.07 4.72
-2 -11 0 196.37 4.86
-2 -11 0 202.11 5.19
2 11 0 196.35 4.66
-2 -11 0 192.63 4.87
2 11 1 99.74 3.35
-2 -11 -1 111.5 3.25
-2 -11 -1 111.21 3.55
2 11 1 104.86 3.06
-2 -11 -1 109.47 3.21
2 11 1 100.3 3.08
2 11 2 9.81 0.98
2 11 2 10.51 0.8
-2 -11 -2 10.76 0.97
-2 -11 -2 10.25 0.82
2 11 2 11.35 0.92
2 11 3 24.17 1.62
-2 -11 -3 24.66 1.26
-2 -11 -3 21.33 1.15
-2 -11 -3 25.79 1.56
2 11 3 21.76 1.19
2 11 3 23.26 1.37
2 11 4 9.45 0.97
-2 -11 -4 7.95 0.72
-2 -11 -4 8.97 0.89
2 11 4 7.96 0.68
2 11 4 8.86 0.83
-2 -11 -5 32.43 1.53
2 11 5 35.84 1.79
-2 -11 -5 32.26 1.71
2 11 5 33.61 1.62
-2 -11 -6 10.86 0.9
2 11 6 9.46 0.79
3 -9 -3 2.73 0.41
3 -9 -3 2.78 0.48
-3 9 2 145.39 3.97
3 -9 -2 146.04 3.92
3 -9 -2 155.99 4.36
-3 9 1 89.98 2.85
3 -9 -1 81.27 2.93
-3 9 0 26.19 1.31
3 -9 0 23.2 1.3
-3 8 8 1.4 0.3
3 -8 -8 1.24 0.34
3 -8 -8 1.42 0.34
-3 8 7 2.98 0.49
3 -8 -7 2.17 0.44
3 -8 -7 2.35 0.51
-3 8 7 1.76 0.33
3 -8 -6 17.37 1.34
-3 8 6 20.54 1.31
3 -8 -6 16.71 1.32
3 -8 -6 17.05 1.22
-3 8 6 17.15 1.09
3 -8 -5 7.34 0.9
3 -8 -5 7.57 0.89
3 -8 -5 8.34 0.96
-3 8 5 8.62 0.78
-3 8 4 0.38 0.29
3 -8 -4 0.21 0.27
3 -8 -4 0.16 0.18
3 -8 -4 0.46 0.29
-3 8 3 4.3 0.69
3 -8 -3 3.7 0.69
3 -8 -3 3.69 0.63
3 -8 -3 3.7 0.73
3 -8 -2 27.88 1.86
-3 8 2 33.88 2.08
3 -8 -2 31.06 1.89
-3 8 2 29.89 1.54
3 -8 -1 9.07 1.01
3 -8 -1 11.03 1.13
3 -8 -1 10.38 1.08
3 -8 -1 12.6 1.4
-3 8 1 11.24 1.2
-3 8 1 9.27 0.85
3 -8 0 0.22 0.21
3 -8 0 0.11 0.26
-3 8 0 0.04 0.17
-3 8 0 0.28 0.36
3 -8 0 0.22 0.19
3 -8 0 0.13 0.2
3 -8 0 0.07 0.26
3 -8 1 67.59 2.9
-3 8 -1 63.52 2.85
3 -8 1 63.09 2.73
3 -8 1 56.32 2.85
3 -8 1 62.14 2.6
-3 8 -1 63.09 2.51
3 -8 2 217.68 5.96
-3 8 -2 219.21 5.8
3 -8 2 206.04 5.71
3 -8 2 218.13 5.91
-3 8 -2 210.09 5.5
-3 8 -3 95.13 3.06
3 -8 3 87.12 3.14
3 -8 3 84.9 3.01
3 -8 3 93.27 3.02
3 -8 3 80.96 3.01
-3 8 -3 93.28 3.01
-3 8 -4 1.19 0.26
-3 8 -4 1.04 0.27
3 -8 4 0.75 0.27
3 -8 4 0.9 0.27
3 -8 4 1.3 0.34
-3 7 10 3.2 0.41
3 -7 -10 3.21 0.48
3 -7 -10 3.47 0.47
3 -7 -9 24.75 1.28
-3 7 9 32.46 1.61
3 -7 -9 31.69 1.84
3 -7 -9 35.39 1.81
3 -7 -9 26.8 1.51
-3 7 8 234.36 6.04
3 -7 -8 233.38 6.46
3 -7 -8 218.73 6.34
3 -7 -8 213.36 5.95
-3 7 8 211.68 5.52
3 -7 -7 33.84 2.14
3 -7 -7 30.44 1.89
3 -7 -7 32.12 2.02
-3 7 7 30.81 1.76
3 -7 -7 31.36 2.09
3 -7 -6 0.43 0.4
3 -7 -6 -0.01 0.35
3 -7 -6 0.22 0.25
3 -7 -6 0 0.22
3 -7 -5 90.67 3.93
-3 7 5 87.97 3.41
3 -7 -5 89.48 3.84
3 -7 -5 80.61 3.76
-3 7 4 50.02 2.61
3 -7 -4 48.54 2.8
3 -7 -4 55.59 2.83
3 -7 -4 49.14 2.85
3 -7 -4 43.94 2.69
-3 7 3 18.14 1.65
3 -7 -3 17.64 1.59
3 -7 -3 19.18 1.73
3 -7 -3 18.39 1.6
3 -7 -3 19.32 1.72
3 -7 -3 18.04 1.76
3 -7 -2 81.04 3.68
-3 7 2 87.34 4
3 -7 -2 80.89 3.62
3 -7 -2 87.99 4.08
3 -7 -2 80.22 3.52
3 -7 -2 85.47 4.11
3 -7 -2 74.41 3.13
-3 7 2 76.87 3.08
3 -7 -1 83.46 3.6
3 -7 -1 83.48 3.74
3 -7 -1 84.35 3.68
-3 7 1 88.5 4.18
3 -7 -1 86.53 4.18
3 -7 -1 92.57 4.41
3 -7 -1 73.41 3.24
-3 7 1 76.4 3.15
3 -7 0 0.21 0.24
-3 7 0 0.18 0.45
3 -7 0 -0.1 0.23
3 -7 0 -0.01 0.35
3 -7 0 0.67 0.31
3 -7 0 0.56 0.46
-3 7 0 -0.08 0.24
3 -7 1 60.21 3.04
-3 7 -1 65.42 3.42
3 -7 1 59.08 3.41
3 -7 1 56.21 3.41
-3 7 -1 59.8 2.81
-3 7 -2 161.29 5.51
3 -7 2 174.82 5.63
3 -7 2 140.64 5.38
3 -7 2 151.71 5.57
-3 7 -2 156.43 5.07
-3 7 -3 4.79 0.82
3 -7 3 4.12 0.73
3 -7 3 4.14 0.72
3 -7 3 4.74 0.7
3 -7 3 5.88 0.9
-3 7 -3 3.75 0.67
-3 7 -4 3.85 0.64
3 -7 4 3.74 0.69
3 -7 4 3.29 0.64
-3 7 -4 2.81 0.61
3 -7 4 2.49 0.5
3 -7 4 3.49 0.6
-3 7 -5 144.64 4
3 -7 5 131.08 4.35
3 -7 5 138 4
-3 7 -5 145.02 4.38
3 -7 6 54.13 2.2
-3 7 -6 54.79 2.22
3 -7 7 13.84 0.85
3 -7 7 15.22 0.96
-3 7 -7 14.05 0.92
3 -6 -11 5.88 0.65
3 -6 -11 6.13 0.59
-3 6 11 7.9 0.67
3 -6 -11 7.27 0.77
3 -6 -11 7.49 0.73
3 -6 -10 3.13 0.51
3 -6 -10 3.91 0.72
3 -6 -10 3.04 0.52
-3 6 10 4.2 0.59
3 -6 -10 3.69 0.61
3 -6 -10 3.54 0.62
3 -6 -9 78.64 3.13
-3 6 9 86.25 3.34
3 -6 -9 82.12 3.68
3 -6 -9 85.1 3.69
3 -6 -9 79.07 3.41
3 -6 -8 0.82 0.37
3 -6 -8 0.73 0.31
3 -6 -8 1.19 0.55
-3 6 8 1.89 0.51
3 -6 -8 0.94 0.42
-3 6 8 1.58 0.47
3 -6 -7 197.56 6.64
3 -6 -7 213.97 6.75
3 -6 -7 206.16 6.41
3 -6 -7 193.76 6.13
-3 6 7 205.88 6.12
3 -6 -7 193.27 6.61
3 -6 -6 68.79 3.44
3 -6 -6 63.01 3.28
3 -6 -6 54.97 3.22
3 -6 -6 61.56 3.33
3 -6 -5 24.71 2.05
3 -6 -5 23.8 1.91
3 -6 -5 20.28 1.91
3 -6 -5 19 1.86
-3 6 4 221.94 6.79
3 -6 -4 234.62 7.26
3 -6 -4 217.76 7
3 -6 -4 232.24 7
3 -6 -4 239.12 7.44
3 -6 -4 221.2 7.17
3 -6 -3 30.83 2.17
3 -6 -3 28.84 2.08
3 -6 -3 29.67 2.18
-3 6 3 28.68 2.2
3 -6 -3 30.23 2.36
3 -6 -3 29.47 2.22
3 -6 -3 28.46 2.21
3 -6 -2 6.88 1
3 -6 -2 7.23 1.07
3 -6 -2 7.2 1.15
3 -6 -2 7.52 1.02
-3 6 2 8.51 1.26
3 -6 -2 9.15 1.3
3 -6 -2 8.07 1
3 -6 -2 8.48 1.16
-3 6 2 8.24 0.96
3 -6 -1 119.68 4.6
3 -6 -1 121.81 4.75
3 -6 -1 126.72 5.26
3 -6 -1 125.71 5.35
3 -6 -1 110.14 4.34
-3 6 1 112.4 4.13
3 -6 0 28.49 2.13
3 -6 0 26.25 2.01
3 -6 0 29.55 2.44
3 -6 0 25.78 2.34
3 -6 0 26.84 1.79
-3 6 0 24.82 1.78
3 -6 1 61.01 3.17
3 -6 1 58.2 3.1
3 -6 1 58.86 3.57
3 -6 1 58.3 3.69
3 -6 1 55.35 2.76
-3 6 -1 53.16 2.76
3 -6 2 23.06 1.93
3 -6 2 20.35 1.99
3 -6 2 20.18 2.01
3 -6 2 22.52 1.73
-3 6 -2 21.41 1.76
3 -6 3 2.84 0.67
-3 6 -3 2.15 0.53
3 -6 3 2.03 0.62
3 -6 3 1.27 0.44
3 -6 3 0.91 0.4
3 -6 4 -0.24 0.36
3 -6 4 0.83 0.48
-3 6 -4 0.91 0.43
3 -6 4 0.2 0.27
3 -6 5 49.46 2.9
-3 6 -5 54.28 2.68
3 -6 5 49.47 2.61
-3 6 -5 51.85 2.85
-3 6 -6 207.79 5.47
-3 6 -6 197.41 6.05
3 -6 6 186.13 5.98
3 -6 6 202.45 5.52
-3 6 -7 105.91 3.73
3 -6 7 99.96 3.61
3 -6 8 4.6 0.57
-3 6 -8 4.54 0.6
3 -6 9 31.17 1.24
3 -6 9 29.97 1.28
-3 6 -9 33.74 1.43
-3 5 12 5.5 0.58
3 -5 -12 5.86 0.63
3 -5 -12 7.13 0.77
3 -5 -12 4.36 0.57
3 -5 -12 6.01 0.65
3 -5 -11 8.73 0.94
-3 5 11 10.25 0.9
3 -5 -11 9.94 1.1
3 -5 -11 9.86 1.01
3 -5 -11 8.04 0.9
3 -5 -11 9.22 0.99
3 -5 -10 52.25 2.65
-3 5 10 55.06 2.61
3 -5 -10 54.19 3.04
3 -5 -10 48.55 2.65
3 -5 -10 48.96 2.52
3 -5 -10 51.28 2.75
3 -5 -9 38.96 2.48
-3 5 9 41.84 2.46
3 -5 -9 38.35 2.36
3 -5 -9 41.13 2.74
3 -5 -9 41.71 2.68
3 -5 -9 42.46 2.84
3 -5 -8 222.7 7.46
3 -5 -8 230 6.95
3 -5 -8 238.77 7.53
3 -5 -8 225.52 7.31
-3 5 8 232.14 6.83
3 -5 -8 226.2 7.51
3 -5 -7 53.4 3
3 -5 -7 46.98 2.95
3 -5 -7 55.62 3.18
3 -5 -7 51.93 2.97
3 -5 -7 46.27 2.97
3 -5 -7 49.73 3.1
3 -5 -6 0.66 0.5
3 -5 -6 1.57 0.54
3 -5 -6 1.14 0.49
3 -5 -6 0.56 0.34
3 -5 -6 0.55 0.41
3 -5 -5 351.71 10
-3 5 5 372.4 14.58
3 -5 -5 362.72 14.48
-3 5 5 367.08 14.38
3 -5 -5 403.87 10.12
3 -5 -5 375.61 9.61
3 -5 -5 355.68 9.93
3 -5 -5 376.13 10.04
3 -5 -4 79.84 3.74
-3 5 4 83.58 6.14
3 -5 -4 85.66 3.83
3 -5 -4 79.76 6.1
-3 5 4 79.18 5.92
3 -5 -4 84.41 3.72
-3 5 4 72.38 3.49
3 -5 -4 77.89 3.79
3 -5 -4 80.28 3.64
3 -5 -4 82.91 3.79
-3 5 3 103.74 6.61
3 -5 -3 99.55 4.21
3 -5 -3 100.1 4.18
3 -5 -3 101.63 4.33
3 -5 -3 106.57 6.88
-3 5 3 109.52 6.73
3 -5 -3 108.07 4.2
3 -5 -3 103.97 4.51
3 -5 -3 98.11 3.86
3 -5 -3 96.45 4.09
3 -5 -2 135.71 5.07
3 -5 -2 127.52 4.8
-3 5 2 129.92 7.24
3 -5 -2 133.75 4.82
3 -5 -2 125.69 7.5
-3 5 2 132.47 7.34
3 -5 -2 140.57 5.4
3 -5 -2 118.63 4.45
3 -5 -2 123.12 4.29
3 -5 -2 134.29 4.83
3 -5 -1 5.47 0.86
3 -5 -1 5.29 0.87
-3 5 1 5.22 1.43
3 -5 -1 4.79 0.77
3 -5 -1 5.36 1.45
3 -5 -1 6.25 1.04
-3 5 1 6.54 1.58
3 -5 -1 3.98 0.67
3 -5 -1 5.36 0.98
3 -5 0 253.58 7.7
3 -5 0 239.76 6.89
3 -5 0 218.32 6.62
3 -5 0 216.33 10.09
-3 5 0 227.28 9.42
-3 5 0 226.03 9.55
3 -5 0 239.86 7.88
3 -5 0 198.98 6.15
3 -5 0 222.36 6.67
-3 5 0 213.05 6.25
-3 5 -1 121.7 4.44
3 -5 1 126.84 4.75
3 -5 1 141.37 5.58
3 -5 1 133.39 7.72
-3 5 -1 127.25 6.75
3 -5 1 130.63 5.7
3 -5 1 121.39 4.44
-3 5 -1 130.19 6.99
3 -5 2 39.24 2.35
-3 5 -2 45.61 4.05
-3 5 -2 41 2.45
3 -5 2 44.02 2.63
3 -5 2 39.62 2.92
3 -5 2 40.92 4.25
-3 5 -2 40.94 3.72
3 -5 2 36.94 2.92
3 -5 3 1.82 0.56
3 -5 3 1.9 0.53
3 -5 3 1.32 0.57
-3 5 -3 1.91 0.83
-3 5 -3 1.64 0.48
-3 5 -3 2.87 1.1
3 -5 4 35.63 2.32
3 -5 4 37.28 2.61
-3 5 -4 36.78 2.52
3 -5 4 36.56 2.5
3 -5 4 36.86 2.48
-3 5 -5 20.65 1.91
3 -5 5 18.62 1.64
3 -5 5 21.76 2.01
3 -5 5 20.66 1.77
-3 5 -6 0.54 0.46
3 -5 6 0.23 0.21
3 -5 6 0.19 0.27
3 -5 6 0.69 0.37
3 -5 6 0.56 0.39
-3 5 -7 26.05 1.99
-3 5 -7 23.15 1.57
3 -5 7 21.65 1.85
3 -5 7 26.66 2.04
-3 5 -8 232.82 6.15
3 -5 8 230.68 6.63
3 -5 9 9.56 0.9
-3 5 -9 9.55 0.97
-3 5 -9 8.85 0.8
3 -5 10 22.82 1.09
-3 5 -10 24.92 1.13
3 -4 -13 6.76 0.65
3 -4 -13 5.84 0.62
3 -4 -13 6.09 0.65
3 -4 -13 5.43 0.54
-3 4 13 5.76 0.6
3 -4 -12 13.97 1.18
3 -4 -12 14.43 1.18
3 -4 -12 15.14 1.18
3 -4 -12 16.33 1.34
3 -4 -11 47.29 2.49
3 -4 -11 44.84 2.41
-3 4 11 48.5 2.21
3 -4 -11 46.16 2.66
3 -4 -11 44.62 2.43
3 -4 -11 44.67 2.45
3 -4 -10 61.32 3.13
-3 4 10 73.77 3.2
3 -4 -10 72.89 3.75
3 -4 -10 64.17 3.28
3 -4 -10 66.17 3.33
3 -4 -10 72.45 3.55
-3 4 9 127.01 4.76
3 -4 -9 133.71 5.18
3 -4 -9 118.06 5.19
3 -4 -9 126.05 4.8
3 -4 -9 136.31 5.47
3 -4 -9 120.87 5.24
3 -4 -8 2.88 0.78
3 -4 -8 4.01 0.84
3 -4 -8 5.21 1.07
3 -4 -8 5.17 1.07
3 -4 -8 5.13 1
3 -4 -7 2.72 0.79
3 -4 -7 3.22 0.79
-3 4 7 2.19 1.15
3 -4 -7 2.76 0.81
-3 4 7 2.01 0.83
3 -4 -7 2.85 0.69
3 -4 -7 3.64 0.78
3 -4 -7 2.98 0.74
3 -4 -6 4.37 0.89
3 -4 -6 5.91 1.03
3 -4 -6 4.29 0.94
3 -4 -6 4.88 0.98
-3 4 6 4.2 1.55
3 -4 -6 7.07 1.88
-3 4 6 5.56 1.63
3 -4 -6 5.92 0.98
3 -4 -6 4.41 0.88
3 -4 -5 58.62 3.22
3 -4 -5 64.57 3.46
3 -4 -5 60.33 5.18
-3 4 5 63.15 5.24
3 -4 -5 65.69 3.22
3 -4 -5 62.2 3.23
3 -4 -5 61.35 2.93
-3 4 5 59.17 5.23
3 -4 -5 64.09 3.23
3 -4 -4 70.54 3.41
3 -4 -4 76.8 3.47
3 -4 -4 73.22 5.36
-3 4 4 69.03 5.3
3 -4 -4 74.15 3.32
3 -4 -4 75.26 3.55
3 -4 -4 74.88 3.17
-3 4 4 74.41 5.48
3 -4 -4 74.76 3.38
-3 4 3 115.74 6.63
3 -4 -3 120.02 6.76
-3 4 3 127.12 6.93
3 -4 -3 117.14 4.36
3 -4 -3 124.56 4.73
3 -4 -3 120.38 4.34
3 -4 -2 0.02 0.43
-3 4 2 1.46 0.8
-3 4 2 0.85 0.5
-3 4 1 375.23 12.27
3 -4 -1 363.8 12.66
-3 4 1 358.28 11.97
-3 4 0 71.09 4.61
3 -4 0 70.78 5.02
-3 4 0 67.38 4.45
3 -4 1 9.57 1.26
-3 4 -1 8.9 1.58
3 -4 1 11.12 2
-3 4 -1 8.89 1.58
3 -4 1 9.32 1.34
-3 4 -2 109.57 4.08
3 -4 2 105.46 4.02
3 -4 2 114.14 4.23
-3 4 -2 108.76 5.32
3 -4 2 115.84 4.85
3 -4 2 109.87 6.66
-3 4 -2 106.18 5.68
3 -4 2 97.06 4.9
-3 4 -2 108.81 5.94
-3 4 -3 21.78 1.78
3 -4 3 22.44 1.74
-3 4 -3 21.19 2.62
-3 4 -3 21.24 2.66
3 -4 3 22.43 1.79
-3 4 -3 19.98 2.21
3 -4 3 19.38 1.88
3 -4 3 20.64 2.96
-3 4 -3 21.25 2.49
3 -4 3 21.92 2.07
3 -4 3 22.09 1.78
-3 4 -4 8.95 1.2
-3 4 -4 7.99 1.75
3 -4 4 9.02 1.18
3 -4 4 7.71 1.17
3 -4 4 9.98 2.08
-3 4 -4 8.93 1.67
3 -4 4 9.19 1.17
3 -4 4 9.96 1.27
-3 4 -4 8.52 1.73
-3 4 -5 1.19 0.44
3 -4 5 1.65 0.72
3 -4 5 2.16 0.72
3 -4 5 0.88 0.33
3 -4 5 0.88 0.43
3 -4 5 0.43 0.42
-3 4 -6 7.72 1.16
3 -4 6 10.56 1.48
3 -4 6 8.96 1.22
3 -4 6 10.88 1.24
-3 4 -6 8.42 1.04
3 -4 6 8.68 1.34
-3 4 -7 71.89 3.67
-3 4 -7 72.95 3.24
3 -4 7 64.6 3.58
3 -4 7 73.17 3.15
3 -4 7 67.21 3.62
3 -4 7 61.67 3.31
-3 4 -8 219.92 6.83
-3 4 -8 206.51 6.08
3 -4 8 197.92 6.26
3 -4 8 203.88 6.66
3 -4 8 207.54 6.77
-3 4 -9 58.8 2.9
-3 4 -9 51.21 2.49
3 -4 9 53.24 2.7
3 -4 9 62.25 3.01
3 -4 9 57.22 2.65
-3 4 -10 102.88 3.6
3 -4 10 89.79 3.05
-3 4 -10 93.29 3.18
3 -4 10 92.94 3.23
3 -4 10 105.1 3.62
-3 4 -11 65.63 2.35
-3 4 -11 61.43 2.16
3 -4 11 55.17 1.89
3 -4 11 71.5 2.43
3 -3 -14 80.77 2.37
3 -3 -14 79.28 2.35
3 -3 -13 0.04 0.17
3 -3 -13 0.06 0.2
-3 3 13 0.02 0.21
3 -3 -13 -0.06 0.21
3 -3 -13 0.22 0.16
3 -3 -13 0.54 0.24
3 -3 -13 0.12 0.17
3 -3 -12 16.78 1.24
3 -3 -12 18.67 1.44
3 -3 -12 20.05 1.51
3 -3 -12 17.74 1.29
3 -3 -12 20.38 1.55
3 -3 -12 19.5 1.43
3 -3 -11 23.62 1.65
3 -3 -11 28.26 2
3 -3 -11 25.52 1.89
3 -3 -11 25.65 1.76
3 -3 -11 26.96 2.04
3 -3 -11 26.39 1.9
3 -3 -11 28.44 1.97
3 -3 -10 74 3.52
3 -3 -10 72.45 3.26
3 -3 -10 81.3 3.78
3 -3 -10 68.42 3.34
3 -3 -10 79.08 3.95
3 -3 -10 78.35 3.7
3 -3 -10 78.43 3.77
3 -3 -9 251.11 7.74
3 -3 -9 268.53 8.22
-3 3 9 260.95 7.49
3 -3 -9 253.52 8.26
3 -3 -9 266.67 8.08
3 -3 -9 275.7 8.13
3 -3 -9 273.43 8.46
3 -3 -8 11.71 1.43
-3 3 8 9.11 2.31
3 -3 -8 12.17 1.59
3 -3 -8 12.36 1.53
-3 3 8 13.37 2.56
3 -3 -8 12.71 1.45
3 -3 -8 11.8 1.47
3 -3 -7 33.36 2.54
3 -3 -7 34.62 2.43
-3 3 7 31.4 3.96
-3 3 7 30.54 3.83
3 -3 -7 34.98 2.44
3 -3 -7 32.35 2.39
3 -3 -7 33.47 2.29
3 -3 -7 35.3 2.45
3 -3 -6 96.63 4.24
-3 3 6 97.26 6.7
-3 3 6 90.8 6.36
3 -3 -6 105.13 4.2
3 -3 -6 100.55 4.22
3 -3 -6 101.24 4.02
3 -3 -6 112.92 4.37
3 -3 -6 96.79 4.28
-3 3 5 1.77 0.93
3 -3 -5 0.16 0.58
-3 3 5 0.88 0.7
3 -3 -4 36.56 3.5
-3 3 4 38.71 3.67
-3 3 4 39.58 3.72
3 -3 -3 500.87 14.77
-3 3 3 506.06 14.92
-3 3 3 515.01 15.08
3 -3 -2 3.95 1.04
-3 3 2 2.24 0.78
-3 3 2 3.68 1.04
-3 3 1 313.94 10.18
3 -3 -1 328.45 10.86
-3 3 1 322.47 10.47
-3 3 0 152.18 6.41
3 -3 0 150.32 6.87
-3 3 0 154.03 6.47
3 -3 1 70.15 4.66
-3 3 -1 81.37 4.44
-3 3 -1 75.78 4.28
-3 3 -2 0.93 0.57
3 -3 2 1.69 0.74
-3 3 -2 1.67 0.59
-3 3 -2 0.6 0.3
-3 3 -3 21.1 2.35
-3 3 -3 19.84 2.29
-3 3 -3 18.09 2.02
3 -3 3 20.51 2.73
-3 3 -3 19.86 2.16
-3 3 -4 80.37 5.23
3 -3 4 76.7 5.77
-3 3 -4 83.9 5.18
-3 3 -4 88.21 4.8
-3 3 -4 76.25 4.45
-3 3 -5 7.76 1.56
3 -3 5 9.71 1.25
3 -3 5 8.5 1.04
-3 3 -5 9.16 1.11
3 -3 5 10.28 1.29
-3 3 -5 12.25 1.82
3 -3 5 9.99 1.24
3 -3 5 9.78 2.11
3 -3 5 10.74 1.33
-3 3 -6 3.17 1.17
3 -3 6 2.12 0.53
-3 3 -6 2.43 0.6
3 -3 6 2.46 0.75
3 -3 6 2.3 1.19
3 -3 6 1.9 0.55
3 -3 6 3 0.72
3 -3 6 2.4 0.74
-3 3 -7 9.6 1.16
3 -3 7 8.48 1.3
3 -3 7 8.07 1.03
3 -3 7 7.45 1.2
3 -3 7 9.08 1.36
-3 3 -8 3.6 0.74
3 -3 8 2.95 0.74
3 -3 8 3.48 0.89
3 -3 8 3.83 0.86
-3 3 -9 66.84 3.07
3 -3 9 65.07 3.32
3 -3 9 66.04 3.34
3 -3 9 70.23 3.5
-3 3 -10 76.53 3.45
-3 3 -10 77.48 3.14
3 -3 10 70.08 3.11
3 -3 10 76.2 3.31
-3 3 -11 1.95 0.52
-3 3 -11 2.42 0.51
3 -3 11 1.62 0.36
3 -3 11 2.17 0.45
3 -3 11 2.49 0.5
-3 3 -12 2.71 0.45
-3 3 -12 3.16 0.44
3 -3 12 3.04 0.41
3 -3 12 3.39 0.49
3 -2 -14 49.8 1.8
-3 2 14 61.9 2.07
3 -2 -14 55.99 1.9
3 -2 -14 57.46 1.88
3 -2 -14 50.73 1.85
-3 2 13 0.22 0.23
3 -2 -13 0.54 0.25
3 -2 -13 -0.09 0.18
3 -2 -13 0.3 0.23
3 -2 -13 0.25 0.16
3 -2 -13 0.32 0.22
3 -2 -13 0.39 0.28
3 -2 -12 0.35 0.3
3 -2 -12 0.42 0.36
3 -2 -12 0.29 0.32
3 -2 -12 0.1 0.2
3 -2 -12 0.23 0.28
3 -2 -12 0.12 0.2
3 -2 -11 11.38 1.23
3 -2 -11 13.31 1.4
3 -2 -11 11.94 1.36
3 -2 -11 11.54 1.28
3 -2 -11 14.07 1.45
3 -2 -11 12.09 1.31
3 -2 -11 12.13 1.27
3 -2 -10 104.93 4.19
3 -2 -10 102.54 4.35
3 -2 -10 104.06 4.29
3 -2 -10 108.95 4.62
3 -2 -10 109.29 4.43
3 -2 -10 107.54 4.52
3 -2 -10 100.78 4.36
3 -2 -9 70.9 3.44
3 -2 -9 74.77 3.58
3 -2 -9 77.36 3.8
-3 2 9 56.42 5.7
-3 2 9 73.72 5.51
-3 2 9 59.67 5.23
3 -2 -9 70.67 3.77
3 -2 -9 66.86 3.59
3 -2 -9 78.37 3.73
3 -2 -9 74.45 3.85
3 -2 -9 75.34 3.86
3 -2 -8 1.55 0.49
3 -2 -8 0.39 0.35
3 -2 -8 0.98 0.32
-3 2 8 1.69 0.91
-3 2 8 0.53 0.75
3 -2 -8 0.53 0.44
3 -2 -8 1.1 0.42
3 -2 -8 1.16 0.59
3 -2 -8 1.45 0.54
-3 2 8 0.95 0.67
3 -2 -7 29.35 2.19
3 -2 -7 28.68 2.37
-3 2 7 34.4 3.44
-3 2 7 24.35 3.34
3 -2 -7 25.61 2
-3 2 7 26 3.4
3 -2 -7 30.75 2.19
3 -2 -7 33.18 2.23
3 -2 -7 30.78 2.22
3 -2 -6 19.69 2.5
-3 2 6 19.11 2.32
-3 2 6 18.95 2.63
-3 2 6 17.29 2.55
3 -2 -5 94.41 5.07
-3 2 5 82.33 5.43
-3 2 5 82.91 4.49
-3 2 5 83.62 5.32
3 -2 -5 89.62 5.22
-3 2 4 54.73 4.08
3 -2 -4 64.56 4.08
-3 2 4 62.33 4.33
-3 2 3 4.88 1.14
3 -2 -3 4.85 1.03
-3 2 3 4.69 1.14
3 -2 -2 119.81 5.19
3 -2 -2 118.59 5.37
-3 2 2 116.95 5.52
-3 2 2 120 5.43
3 -2 -1 124.86 4.97
3 -2 -1 121.94 5.47
-3 2 1 117.57 5.26
-3 2 1 122.61 5.23
-3 2 0 3.35 0.8
3 -2 0 3.22 0.95
-3 2 0 3.37 0.82
3 -2 0 1.97 0.58
3 -2 1 1422.66 30.75
3 -2 1 1409.57 28.83
-3 2 -1 1402.18 29.36
-3 2 -1 1496.4 29.6
-3 2 -2 28.27 2.33
3 -2 2 28.22 2.15
3 -2 2 29.81 2.81
-3 2 -2 27.94 2.23
-3 2 -2 28.69 2.29
-3 2 -3 272.6 8.68
-3 2 -3 256.49 8.59
-3 2 -3 259.89 8.37
3 -2 3 257.73 8.09
3 -2 3 249.76 9.64
-3 2 -3 264.33 8.07
-3 2 -4 719.48 17.62
-3 2 -4 757.59 17.38
-3 2 -4 727.83 18.16
3 -2 4 693.09 19.83
-3 2 -4 690.47 18.34
-3 2 -5 66.39 4.57
-3 2 -5 84.24 4.71
3 -2 5 73.27 5.6
3 -2 6 61.69 3.18
3 -2 6 77.63 3.33
-3 2 -6 72.11 3.27
-3 2 -6 68.99 4.86
-3 2 -6 79.01 4.94
3 -2 6 74.24 3.3
3 -2 6 58.13 5.23
3 -2 6 73.35 3.78
3 -2 6 73.16 3.68
3 -2 7 108.16 4.01
-3 2 -7 103.18 4.11
3 -2 7 96.16 4.54
-3 2 -7 104.51 6.3
-3 2 -7 92.93 5.87
3 -2 7 100 3.87
3 -2 7 89.01 3.91
3 -2 7 89.98 4.32
3 -2 7 99.89 4.71
3 -2 8 19.33 1.96
3 -2 8 19.03 1.58
-3 2 -8 18.3 1.63
3 -2 8 16.6 1.5
3 -2 8 14.79 1.64
3 -2 8 19.24 1.84
3 -2 9 17.12 1.79
-3 2 -9 16.87 1.55
3 -2 9 14.74 1.55
3 -2 9 18.8 1.79
-3 2 -10 64.67 3.02
3 -2 10 61.87 3.08
3 -2 10 66.87 3.33
3 -2 10 66.83 3.39
-3 2 -11 35.71 2.02
3 -2 11 37.16 2.23
3 -2 11 35.69 2.19
3 -2 12 30.18 1.7
-3 2 -12 28.31 1.59
-3 2 -12 26.9 1.66
3 -2 12 28.35 1.69
-3 2 -13 22.69 1.17
3 -2 13 22.15 1.2
3 -2 13 20.54 1.1
-3 2 -13 19.24 1.14
-3 1 14 2.4 0.38
3 -1 -14 1.99 0.32
3 -1 -14 2.07 0.38
3 -1 -14 2.09 0.36
-3 1 13 91.57 3.15
3 -1 -13 93.87 3.13
3 -1 -13 88.99 3.17
3 -1 -13 92 3.21
3 -1 -13 84.15 3.04
3 -1 -12 7.17 0.93
3 -1 -12 8.69 0.93
3 -1 -12 7.56 0.98
3 -1 -12 8.45 1
3 -1 -12 7.55 0.98
3 -1 -12 7.42 0.94
3 -1 -12 6.87 0.88
3 -1 -11 10.12 1.2
3 -1 -11 11.32 1.21
3 -1 -11 12.67 1.35
3 -1 -11 11.13 1.27
3 -1 -11 11.12 1.31
3 -1 -11 10.89 1.25
3 -1 -11 10.28 1.16
3 -1 -10 313.17 8.85
3 -1 -10 312.03 8.64
3 -1 -10 299.31 8.43
3 -1 -10 307.92 8.54
3 -1 -10 334.64 8.92
3 -1 -10 297.08 8.61
3 -1 -10 308.13 8.51
3 -1 -10 305.98 8.35
3 -1 -9 30.95 2.25
3 -1 -9 32.7 2.3
-3 1 9 27.02 3.14
3 -1 -9 31.15 2.4
-3 1 9 25.2 3.4
3 -1 -9 33.21 2.37
3 -1 -9 36.44 2.5
3 -1 -9 33.73 2.34
3 -1 -9 35.53 2.56
3 -1 -9 34.29 2.37
3 -1 -8 1.93 0.61
3 -1 -8 1.37 0.48
3 -1 -8 1.85 0.63
-3 1 8 1.73 0.84
3 -1 -8 2.05 0.65
3 -1 -8 2.26 0.62
3 -1 -8 2 0.61
3 -1 -8 1.64 0.59
3 -1 -8 1.84 0.6
3 -1 -7 123.82 5.23
-3 1 7 133.1 6.77
3 -1 -7 129.17 7.02
-3 1 6 129.99 6.39
3 -1 -6 133.21 6.46
3 -1 -5 142.45 6.25
-3 1 5 153.28 6.61
3 -1 -4 27.27 2.43
-3 1 4 30.73 2.73
-3 1 4 32.94 2.51
3 -1 -4 36.58 2.6
3 -1 -4 36.76 2.54
-3 1 3 0.55 0.41
3 -1 -3 0.58 0.28
3 -1 -3 0.43 0.33
-3 1 3 0.94 0.37
3 -1 -3 0.74 0.38
-3 1 3 0.52 0.47
-3 1 2 2.23 0.65
3 -1 -2 3.03 0.76
-3 1 2 3.34 0.56
3 -1 -2 2.56 0.65
-3 1 2 3.35 0.82
3 -1 -2 1.98 0.61
3 -1 -1 118.05 4.65
3 -1 -1 115.68 4.74
-3 1 1 116.09 4.76
-3 1 1 115.6 4.54
-3 1 0 592.19 13.21
3 -1 0 571.79 13.6
3 -1 0 582.77 14.25
-3 1 0 592.15 13.73
3 -1 1 259.19 7.74
3 -1 1 271.86 8.66
-3 1 -1 268.68 7.63
-3 1 -1 288.2 7.49
-3 1 -2 10.57 1.2
-3 1 -2 11.15 1.35
3 -1 2 8.78 1.43
3 -1 2 9.03 1.21
-3 1 -2 9.57 1.14
-3 1 -2 9.51 1.1
-3 1 -3 1228.84 24.61
-3 1 -3 1219.32 25.06
3 -1 3 1142.52 26.72
3 -1 3 1119.28 24.87
-3 1 -3 1191.39 23.92
-3 1 -3 1154.23 25.15
-3 1 -4 29.35 2.51
-3 1 -4 28.93 2.43
3 -1 4 26.46 2.91
-3 1 -4 30.57 2.07
3 -1 4 26.51 2.4
-3 1 -5 401.2 12.35
-3 1 -5 437.29 12.37
3 -1 5 412.99 14.14
3 -1 5 441.22 12.91
-3 1 -6 2.45 0.76
-3 1 -6 2.44 0.9
3 -1 6 0.19 0.71
3 -1 7 3.72 0.8
-3 1 -7 3.34 1.06
3 -1 7 2.55 0.63
-3 1 -7 2.97 0.71
3 -1 7 2.78 0.66
-3 1 -7 3.17 1.1
3 -1 7 4.11 0.78
3 -1 7 2.78 1.07
3 -1 7 3.24 0.74
3 -1 8 360.87 9.02
-3 1 -8 368.22 9.29
3 -1 8 319.61 8.88
-3 1 -8 292.52 11.77
-3 1 -8 328.5 12.21
3 -1 8 346.16 9.97
3 -1 8 334.71 9.39
3 -1 9 46.35 3.03
3 -1 9 49.68 2.63
-3 1 -9 45.01 2.65
3 -1 9 44.44 2.54
-3 1 -9 43.59 4.02
3 -1 9 47.56 2.85
3 -1 10 16.91 1.44
3 -1 10 20.88 1.96
-3 1 -10 18.6 1.6
3 -1 10 19.71 1.75
3 -1 11 43 2.61
-3 1 -11 44.21 2.37
3 -1 11 35.74 1.94
3 -1 11 44.09 2.52
3 -1 12 97.69 3.75
-3 1 -12 96.57 3.47
3 -1 12 96.11 3.63
3 -1 13 0.82 0.31
-3 1 -13 0.92 0.29
3 -1 13 0.97 0.27
-3 1 -14 2.66 0.37
-3 1 -14 3.9 0.42
3 -1 14 3.93 0.42
3 -1 14 3.79 0.43
-3 0 14 1.19 0.25
3 0 -14 0.72 0.21
3 0 -14 1.04 0.28
3 0 -14 1.21 0.32
3 0 -13 49.45 2.26
-3 0 13 48.63 2.06
3 0 -13 44.57 1.94
3 0 -13 51.69 2.3
3 0 -13 42.85 1.98
3 0 -13 41.36 1.86
3 0 -13 46.48 2.04
-3 0 12 0.14 0.21
3 0 -12 0 0.27
3 0 -12 0.32 0.3
3 0 -12 0.3 0.21
3 0 -12 1.12 0.43
3 0 -12 0.71 0.32
3 0 -12 0.82 0.37
3 0 -11 0.78 0.36
3 0 -11 0.63 0.4
3 0 -11 1.42 0.46
3 0 -11 1.01 0.44
3 0 -11 0.18 0.27
3 0 -11 0.69 0.45
3 0 -11 0.36 0.23
3 0 -10 115.59 4.6
3 0 -10 114.56 4.54
3 0 -10 118 4.87
3 0 -10 114.89 4.47
3 0 -10 118.64 4.74
3 0 -10 116.11 4.45
3 0 -10 111.23 4.4
3 0 -9 55.49 2.99
3 0 -9 57.39 3.15
3 0 -9 55.44 3.05
-3 0 9 52.89 4.32
3 0 -9 55.48 3.2
3 0 -9 54.1 2.94
3 0 -9 57.05 3.03
3 0 -9 55.39 2.94
3 0 -8 16.39 1.57
3 0 -8 15.61 1.6
-3 0 8 17.78 2.44
3 0 -8 15.4 1.56
3 0 -8 14.56 1.68
3 0 -8 16.49 1.57
3 0 -8 16.92 1.62
3 0 -8 17.8 1.79
3 0 -8 16.57 1.6
3 0 -7 26.58 2.99
-3 0 7 25.43 2.74
3 0 -7 22.65 2.79
3 0 -6 1046.76 26.11
3 0 -6 1117.33 25.89
3 0 -5 1.49 0.55
3 0 -5 2.21 0.86
-3 0 5 1.89 0.73
3 0 -4 23.37 2.31
-3 0 4 27.62 2.38
3 0 -4 26.44 1.96
3 0 -3 377.33 10.97
-3 0 3 406.02 10.93
3 0 -3 434.87 11.32
3 0 -3 406.12 9.73
3 0 -3 427.75 12.43
3 0 -3 407.96 9.53
3 0 -2 191.48 6.54
3 0 -2 200.69 6.55
-3 0 2 182.64 5.96
-3 0 2 201.29 4.86
3 0 -2 209.05 5.97
3 0 -2 203.24 8.2
-3 0 2 188.46 5.85
-3 0 1 40.04 2.41
3 0 -1 43.43 2.67
3 0 -1 44.95 2.64
3 0 -1 43.91 2.49
-3 0 1 44.92 2.21
3 0 -1 49.36 3.93
-3 0 1 39.83 2.02
3 0 0 26.48 2.04
3 0 0 27.38 2.02
3 0 0 27.56 2.06
-3 0 0 24.3 1.71
3 0 0 25.5 2.71
-3 0 0 27.42 1.51
3 0 1 172.91 6.16
3 0 1 160.73 5.46
-3 0 -1 163.33 4.87
-3 0 -1 153.07 4.25
3 0 1 162.57 7.11
-3 0 -2 68.05 2.64
-3 0 -2 58.16 2.85
3 0 2 64.64 3.86
-3 0 -2 66.61 3.21
-3 0 -2 67.84 2.72
3 0 2 66.5 3.35
3 0 2 68.8 4.37
-3 0 -3 11.34 1.34
-3 0 -3 12.93 1.47
3 0 3 11.84 1.79
-3 0 -3 12.24 1.02
3 0 3 12.95 1.51
-3 0 -4 246.17 8.08
3 0 4 229.01 9.09
3 0 4 245.51 8.29
-3 0 -4 247.22 7.86
-3 0 -5 281.62 9.11
-3 0 -5 268.29 9.2
3 0 5 281.22 9.8
-3 0 -6 26.84 2.72
-3 0 -6 28.83 2.84
3 0 6 26.34 3
-3 0 -7 1162.08 27.84
-3 0 -7 1132.58 27.28
-3 0 -8 196.7 9.04
3 0 8 202.36 6.32
-3 0 -8 194.39 8.83
3 0 8 193.69 6.86
3 0 8 199.69 6.44
3 0 9 33.12 2.58
-3 0 -9 31.48 2.22
3 0 9 28.29 2.1
-3 0 -9 31.37 3.42
3 0 9 31.6 2.13
3 0 9 27.36 3.38
3 0 9 33.66 2.29
3 0 10 91.54 4.26
3 0 10 93.47 3.72
3 0 10 78.28 3.51
-3 0 -10 89.16 3.85
3 0 10 91.91 3.96
-3 0 -11 12.24 1.27
3 0 11 12.88 1.22
3 0 11 16.45 1.67
3 0 11 14.97 1.46
3 0 12 38.09 2.36
-3 0 -12 34.02 1.99
-3 0 -12 36.17 1.85
3 0 12 37.45 2.17
3 0 13 5.38 0.76
-3 0 -13 4.49 0.64
-3 0 -13 4.94 0.56
3 0 13 5.41 0.71
-3 0 -14 1.16 0.28
3 0 14 1.45 0.33
3 0 14 1.23 0.29
-3 -1 14 2.07 0.38
3 1 -14 2.79 0.41
3 1 -14 2.01 0.33
3 1 -13 37.19 1.9
3 1 -13 33.76 1.76
-3 -1 13 33.43 1.55
3 1 -13 35.49 1.83
3 1 -13 31.15 1.47
3 1 -12 13.24 1.27
3 1 -12 11.07 0.99
-3 -1 12 12.97 1.07
3 1 -12 13.83 1.31
3 1 -12 11.09 1.08
3 1 -12 11.35 1.04
3 1 -12 12.54 1.23
3 1 -11 138.06 4.66
3 1 -11 145.81 5.13
-3 -1 11 136.38 4.45
3 1 -11 147.97 5.1
3 1 -11 141.37 5.03
3 1 -11 136.28 4.61
3 1 -11 130.78 4.58
3 1 -10 20.28 1.81
3 1 -10 20.51 1.7
3 1 -10 21.04 1.88
3 1 -10 18.4 1.57
3 1 -10 20.62 1.84
3 1 -10 19.9 1.67
3 1 -9 285.49 8.11
3 1 -9 259.9 7.68
-3 -1 9 261.89 10.59
3 1 -9 269.76 7.79
3 1 -9 266.24 8.05
3 1 -9 269.13 7.51
3 1 -9 268.32 7.7
3 1 -8 46.64 2.8
3 1 -8 42.08 2.6
3 1 -8 45.67 2.71
-3 -1 8 44.72 3.82
3 1 -8 43.7 2.82
3 1 -8 49.17 4.27
3 1 -8 45.53 2.67
3 1 -8 48.47 2.78
3 1 -7 103.08 6.41
-3 -1 7 105.51 5.83
3 1 -6 763.91 21.36
-3 -1 6 791.39 19.91
3 1 -6 834.02 20.51
-3 -1 5 2.31 0.79
3 1 -5 2.38 0.73
3 1 -5 1.62 0.74
3 1 -4 55.05 3.85
-3 -1 4 56.02 3.54
3 1 -4 60.05 3.09
3 1 -4 61.45 3.68
3 1 -3 485.7 12.24
-3 -1 3 488.39 10.14
3 1 -3 486.22 13.22
3 1 -2 281.22 8.73
-3 -1 2 294.74 7.15
3 1 -2 303.66 8.44
3 1 -2 302.79 10.05
3 1 -1 76.12 3.61
-3 -1 1 67.35 2.32
3 1 -1 74.11 3.41
3 1 -1 79.51 4.81
3 1 0 314.46 8.74
3 1 0 322.69 9.24
3 1 0 324 10.78
-3 -1 -1 402.2 9.66
3 1 1 408.95 11.35
-3 -1 -1 372.49 8.79
3 1 1 400.2 10.21
3 1 1 417.49 12.25
-3 -1 -2 28.82 1.98
-3 -1 -2 29.23 1.38
3 1 2 30.96 2.21
3 1 2 31.39 2.76
-3 -1 -3 42.49 2.6
-3 -1 -3 43.52 2.09
3 1 3 38.19 2.69
3 1 3 43.68 3.22
-3 -1 -4 13.64 1.58
-3 -1 -4 11.95 1.36
3 1 4 14.57 1.75
3 1 4 11.08 1.55
-3 -1 -5 24.58 2.34
3 1 5 28.25 2.61
-3 -1 -6 102.76 5.51
-3 -1 -6 82 4.96
-3 -1 -7 24.86 2.85
-3 -1 -7 28.98 3.03
3 1 8 4.42 0.87
-3 -1 -8 4.78 1.36
3 1 8 5.27 0.89
3 1 8 5.14 0.87
-3 -1 -8 4.37 1.28
3 1 8 5.17 0.89
3 1 9 72.75 3.75
-3 -1 -9 72.25 5.22
3 1 9 75.1 3.41
3 1 9 71.58 3.5
-3 -1 -9 70.41 5.31
3 1 9 70.5 3.35
3 1 10 9.92 1.35
-3 -1 -10 9.26 1.23
3 1 10 9.52 1.14
3 1 10 11.06 1.22
3 1 10 11.18 1.27
3 1 11 62.23 3.26
3 1 11 56.8 2.69
3 1 11 55.42 2.74
-3 -1 -11 53.95 2.85
3 1 11 54.55 2.87
-3 -1 -12 73.2 3.13
3 1 12 78.31 3.51
3 1 12 74.53 3.21
3 1 13 1.49 0.45
-3 -1 -13 1.33 0.36
3 1 13 1.47 0.37
-3 -1 -13 1.48 0.4
3 1 13 1.46 0.41
3 1 14 33.14 1.68
-3 -1 -14 28 1.39
-3 -1 -14 30.12 1.39
3 1 14 30.88 1.55
3 1 15 24.33 1.07
3 2 -14 10.6 0.7
-3 -2 14 9.52 0.71
3 2 -13 20.56 1.32
-3 -2 13 18.77 1.31
3 2 -13 20.62 1.27
3 2 -12 26.36 1.73
3 2 -12 25.28 1.74
3 2 -12 24.89 1.64
3 2 -12 21.3 1.38
3 2 -11 0.5 0.47
3 2 -11 0.64 0.39
3 2 -11 0.37 0.32
3 2 -11 0.9 0.47
3 2 -10 15.92 1.58
3 2 -10 14.39 1.33
3 2 -10 14.25 1.47
3 2 -10 14.59 1.4
3 2 -10 14.52 1.6
3 2 -9 4.46 0.84
-3 -2 9 3.98 1.22
3 2 -9 5.63 0.96
3 2 -9 5.41 0.87
3 2 -9 5.33 0.86
3 2 -8 50.39 2.97
3 2 -8 49.6 2.75
3 2 -8 52.96 4.73
-3 -2 8 48.74 4.18
3 2 -8 46.81 2.88
3 2 -8 51.67 2.82
3 2 -7 173.98 6.13
3 2 -7 187.55 9.35
-3 -2 7 194.26 8.45
3 2 -7 168.53 6.23
3 2 -7 192.09 6.04
3 2 -7 202.75 6.28
3 2 -6 0.9 0.63
-3 -2 6 0.07 0.37
3 2 -6 0.24 0.52
3 2 -5 141.84 7.69
-3 -2 5 157.26 7.11
-3 -2 4 56.88 2.88
3 2 -4 56.31 3.42
3 2 -4 45.79 3.86
3 2 -4 50.52 3.41
3 2 -3 120.02 4.79
3 2 -3 112.58 5.62
-3 -2 3 115.25 4.12
3 2 -3 101.09 4.09
3 2 -3 112.59 5.47
3 2 -2 1645.65 33.84
-3 -2 2 1585.02 31.37
3 2 -2 1704.42 32.37
3 2 -2 1598.55 34.91
3 2 -1 5.53 1.52
3 2 -1 3.79 0.89
-3 -2 1 4.19 0.72
3 2 -1 4.8 0.81
3 2 0 269.58 7.75
-3 -2 0 253.09 6.72
3 2 0 279.37 7.53
3 2 0 243.47 9.24
-3 -2 -1 720.01 15.4
3 2 1 769.23 16.19
3 2 1 734.37 18.5
-3 -2 -2 12.07 1.28
3 2 2 11.76 1.26
3 2 2 13.23 1.47
3 2 2 14.06 1.91
3 2 3 137.98 5.36
-3 -2 -3 122.79 4.94
-3 -2 -3 129.76 3.97
3 2 3 133.37 5.96
-3 -2 -4 74.46 4
-3 -2 -4 73.91 3.29
3 2 4 72.2 4.17
3 2 5 16.25 1.67
-3 -2 -5 13.19 1.59
3 2 5 14.07 1.73
-3 -2 -5 15.74 2.02
3 2 6 3.5 0.91
-3 -2 -6 1.81 0.75
3 2 6 3.78 0.95
-3 -2 -6 2.7 1
-3 -2 -7 0.9 0.71
3 2 7 -0.33 0.53
-3 -2 -7 -0.12 0.39
-3 -2 -8 3.72 1.16
-3 -2 -8 5.44 1.5
3 2 8 4.02 0.8
3 2 8 3.58 0.69
-3 -2 -9 112.58 4.17
3 2 9 117.81 4.79
-3 -2 -9 114.25 4.73
3 2 9 122.68 4.51
3 2 9 111.74 4.47
3 2 9 118.25 4.67
-3 -2 -9 118.57 6.75
3 2 9 106.91 4.07
-3 -2 -9 110.14 6.96
3 2 9 112.58 4.3
-3 -2 -10 416.82 9.92
3 2 10 418.17 10.93
3 2 10 408.6 10.21
-3 -2 -10 403.67 10.65
3 2 10 405.26 10.27
-3 -2 -10 414.35 14.17
3 2 10 416.94 10.32
-3 -2 -11 42.45 2.21
-3 -2 -11 37.9 2.41
3 2 11 38.3 2.31
3 2 11 40.35 2.6
3 2 11 42.47 2.43
-3 -2 -12 49.73 2.27
3 2 12 52.84 2.8
-3 -2 -12 46.67 2.48
3 2 12 50.29 2.49
3 2 12 50.78 2.58
3 2 13 0.91 0.36
-3 -2 -13 1.41 0.41
3 2 13 0.92 0.34
3 2 13 0.72 0.28
-3 -2 -14 0.8 0.26
3 2 14 0.68 0.22
3 2 14 0.39 0.21
-3 -2 -14 0.77 0.3
3 2 14 0.58 0.23
-3 -2 -15 0.26 0.12
3 2 15 0.12 0.12
-3 -3 13 176.03 4.69
3 3 -13 179.58 4.34
-3 -3 12 12.1 1.14
3 3 -12 12.77 1.04
3 3 -12 10.47 0.85
3 3 -12 12.77 1.15
3 3 -11 9.18 1.08
3 3 -11 8.34 1.11
-3 -3 11 7.68 1.02
3 3 -11 7.57 0.94
3 3 -11 6.27 0.79
3 3 -10 82.85 3.82
3 3 -10 75.79 3.54
3 3 -10 74.26 3.42
3 3 -10 71.92 3.21
3 3 -9 1.5 0.56
3 3 -9 1.2 0.6
3 3 -9 1.2 0.42
3 3 -9 0.8 0.43
3 3 -8 160.12 5.89
3 3 -8 166.27 6.26
3 3 -8 168.96 9
-3 -3 8 175.38 8.7
3 3 -8 155.43 5.67
3 3 -8 171.33 5.69
3 3 -7 88.32 4.08
3 3 -7 84.17 4.32
3 3 -7 101.79 6.9
-3 -3 7 98.15 6.2
3 3 -7 74.82 3.82
3 3 -7 91.12 3.92
-3 -3 6 -0.16 0.69
3 3 -6 -0.63 0.61
3 3 -5 84.2 6.43
3 3 -5 87.31 4.81
-3 -3 5 92.66 4.85
3 3 -4 4.93 1.1
3 3 -4 4.45 0.97
3 3 -4 4.62 1.41
-3 -3 4 4.4 0.92
3 3 -3 110.36 6.08
3 3 -3 116.32 4.85
-3 -3 3 117.35 4.73
3 3 -3 115.07 5.78
3 3 -2 244.71 8.68
3 3 -2 241.85 7.09
-3 -3 2 231.83 7.06
3 3 -2 229.72 6.86
3 3 -2 242.28 9.18
3 3 -1 2.86 1.1
3 3 -1 4.64 1.04
-3 -3 1 2.44 0.61
3 3 -1 3.62 0.71
3 3 0 251.17 7.82
-3 -3 0 265.38 6.9
-3 -3 0 246.24 7.33
3 3 0 262.35 7.29
3 3 1 2.41 0.94
3 3 1 2.71 0.59
-3 -3 -1 1.55 0.52
3 3 1 1.79 0.47
3 3 2 42.54 2.48
-3 -3 -2 49.56 3.01
3 3 2 46.45 2.77
3 3 2 47.76 3.7
-3 -3 -3 19.1 1.48
3 3 3 16.68 1.51
-3 -3 -3 17.1 1.95
3 3 3 15.76 1.69
3 3 3 16.35 2.1
-3 -3 -4 71.85 4.31
-3 -3 -4 79.74 3.72
3 3 4 72.3 4.43
-3 -3 -5 9.3 1.58
-3 -3 -5 8.83 1.36
3 3 5 9.71 1.54
3 3 6 5.98 1.25
3 3 6 6.87 1.3
-3 -3 -6 6.99 1.5
-3 -3 -6 7.07 1.38
3 3 7 88.65 5.46
-3 -3 -7 92.33 5.54
-3 -3 -7 78.54 5.14
3 3 8 38.06 2.31
3 3 8 36.87 3.86
-3 -3 -8 37.83 3.54
3 3 8 36.14 2.4
-3 -3 -8 27.72 3.35
-3 -3 -8 33.1 2.15
3 3 9 3.96 0.88
-3 -3 -9 2.39 0.68
-3 -3 -9 3.49 0.83
3 3 9 4.07 0.8
3 3 9 3 0.75
-3 -3 -9 4.72 1.37
3 3 9 3.29 0.72
-3 -3 -10 351.91 9.14
3 3 10 361.88 9.24
-3 -3 -10 362.1 9.78
3 3 10 329.59 9.37
-3 -3 -10 331.53 12.53
3 3 10 341.48 9.44
3 3 10 339.05 8.95
3 3 11 377.68 9.4
-3 -3 -11 352.01 9.4
-3 -3 -11 373.29 9.9
-3 -3 -11 376.7 9.3
3 3 11 356.19 9.57
3 3 11 353.43 9.23
-3 -3 -12 1.29 0.42
-3 -3 -12 0.58 0.23
3 3 12 1.24 0.48
3 3 12 1.31 0.42
-3 -3 -12 1.23 0.46
3 3 12 1.49 0.47
3 3 13 99.37 3.64
-3 -3 -13 96.3 3.31
3 3 13 103.29 3.5
3 3 13 103.26 3.59
-3 -3 -13 97.08 3.3
-3 -3 -14 4.6 0.53
3 3 14 4.3 0.58
3 3 14 4.08 0.51
-3 -3 -14 6.17 0.71
3 3 14 4.5 0.58
-3 -3 -15 23.48 1.06
3 3 15 19.31 0.98
3 4 -13 3.09 0.39
-3 -4 12 20.98 1.32
3 4 -12 22.78 1.38
3 4 -11 11.52 1.16
-3 -4 11 9.5 1.06
3 4 -11 10.51 0.94
3 4 -11 8.89 0.85
3 4 -10 5.23 0.76
-3 -4 10 3.91 0.77
3 4 -10 4.97 0.71
3 4 -10 5.36 0.77
3 4 -10 5.85 0.94
3 4 -9 63.85 3.03
-3 -4 9 60.33 3.28
3 4 -9 61.45 3
3 4 -9 65.33 3.51
3 4 -9 62.71 3.05
3 4 -8 20.01 1.92
3 4 -8 18.51 1.66
3 4 -8 17.95 1.71
-3 -4 8 16.74 1.71
3 4 -8 17.58 1.65
3 4 -8 19.63 1.7
3 4 -7 563.42 14.36
3 4 -7 551.26 13.61
3 4 -7 693.95 20.83
-3 -4 7 648.66 19.23
3 4 -7 516.72 13.26
3 4 -7 550.14 13.77
3 4 -7 611.5 13.69
3 4 -6 208.98 7.04
3 4 -6 192.73 6.43
3 4 -6 178.43 6.6
3 4 -6 228.83 11.24
-3 -4 6 227.37 10.38
3 4 -6 200.51 6.83
3 4 -6 204.61 6.49
3 4 -5 105.18 7.61
-3 -4 5 110.61 5.92
3 4 -4 35.91 3
3 4 -4 33.3 4.06
-3 -4 4 42.77 3.25
3 4 -4 38.98 3.32
3 4 -3 28.61 2.98
3 4 -3 29.6 2.51
3 4 -3 28.1 3.34
-3 -4 3 35 2.67
3 4 -2 182.42 8.48
3 4 -2 191.45 6.56
3 4 -2 195.96 8.38
3 4 -2 207.49 6.24
-3 -4 2 194.79 6.78
3 4 -1 612.61 16.23
-3 -4 1 629.48 14.96
3 4 -1 616.26 13.93
3 4 -1 649.13 18.86
3 4 0 154.22 6.11
3 4 0 160.01 8.41
-3 -4 0 159.41 5.86
3 4 0 160.76 5.28
3 4 1 23.12 1.99
3 4 1 21.84 2.86
-3 -4 -1 23.99 2.09
3 4 1 23.47 1.82
3 4 2 1224.55 28.27
3 4 2 1131.95 23.62
-3 -4 -2 1081.02 23.97
-3 -4 -2 1183.2 24.8
3 4 2 1172.5 24.01
3 4 3 89.31 5.4
3 4 3 86.44 3.62
-3 -4 -3 78.33 4.42
3 4 4 3.05 0.96
-3 -4 -4 2.85 0.71
-3 -4 -4 3.39 0.99
3 4 4 3.41 0.85
-3 -4 -5 483.05 13.29
-3 -4 -5 473.52 14.02
3 4 5 441.16 13.66
-3 -4 -6 22.44 2.65
3 4 6 17.76 2.2
-3 -4 -6 20.28 2.41
-3 -4 -7 2.76 0.93
3 4 7 4.62 1.32
-3 -4 -7 2.84 1.02
-3 -4 -8 0.55 0.33
-3 -4 -8 0.15 0.39
-3 -4 -8 0.32 0.49
3 4 8 0.27 0.27
3 4 8 0.32 0.24
3 4 8 -0.5 0.75
-3 -4 -8 1.41 0.83
3 4 8 0.01 0.22
-3 -4 -9 39.53 2.65
-3 -4 -9 53.25 3.21
3 4 9 46.93 2.7
3 4 9 43.89 2.86
3 4 9 46.53 4.92
-3 -4 -9 46.43 4.19
3 4 9 48.66 2.66
-3 -4 -10 51.39 2.94
3 4 10 43.08 2.68
-3 -4 -10 48.36 3.05
3 4 10 48.91 2.72
3 4 10 45.93 2.88
3 4 10 45.19 2.56
-3 -4 -11 16.86 1.56
-3 -4 -11 17.38 1.73
3 4 11 17.3 1.53
3 4 11 16.21 1.65
3 4 11 14.44 1.42
3 4 11 15.48 1.42
3 4 12 82.22 3.37
-3 -4 -12 91.79 3.51
-3 -4 -12 83.3 3.72
-3 -4 -12 73.36 3.08
3 4 12 86.66 3.42
3 4 12 80.36 3.31
3 4 13 15.57 1.22
-3 -4 -13 19.44 1.34
3 4 13 16.97 1.28
3 4 13 17.37 1.29
3 4 14 10.14 0.8
-3 -4 -14 10.69 0.83
3 4 14 10.49 0.86
3 4 14 10.58 0.88
-3 -4 -15 85.61 2.27
3 4 15 69.66 2.09
3 5 -12 82.45 2.41
3 5 -11 69.92 2.33
-3 -5 11 67.34 2.57
3 5 -11 62.49 2.17
3 5 -10 21.2 1.42
-3 -5 10 19.93 1.58
3 5 -10 18.99 1.35
3 5 -10 20.68 1.53
3 5 -9 108 4.31
3 5 -9 112.44 4.09
-3 -5 9 104.35 4.32
3 5 -9 111.13 4.04
3 5 -8 11.54 1.44
3 5 -8 11.67 1.36
-3 -5 8 10.56 1.39
3 5 -8 11.26 1.26
3 5 -7 95.25 4.42
3 5 -7 102.8 4.43
-3 -5 7 96.96 4.4
3 5 -7 102.75 4.27
3 5 -6 65.14 3.65
3 5 -6 71.12 6.23
-3 -5 6 77.1 6.12
-3 -5 6 71.82 5.74
3 5 -6 68.56 3.47
3 5 -6 65.14 3.62
3 5 -5 23.03 2.06
3 5 -5 24.72 3.75
-3 -5 5 28.8 3.34
3 5 -5 23.06 1.94
3 5 -5 23.05 2.01
3 5 -4 3.54 0.75
3 5 -4 3.81 1.16
3 5 -4 4.49 1.92
-3 -5 4 4.13 1.13
3 5 -4 3.71 0.81
3 5 -3 97.38 6.11
3 5 -3 90.79 6.85
-3 -5 3 103.14 5.35
3 5 -2 62.51 5.06
3 5 -2 66.71 3.97
3 5 -2 70.54 5.26
-3 -5 2 66.31 4.06
3 5 -1 130.42 7.92
3 5 -1 128.91 6.47
-3 -5 1 124.68 5.6
3 5 0 141.05 8.82
3 5 0 135.64 6.08
-3 -5 0 134.79 5.84
3 5 1 63.25 5.56
3 5 1 64.34 3.67
-3 -5 -1 65.53 3.85
3 5 2 907.01 25.33
3 5 2 893.04 19.97
-3 -5 -2 925.02 21.48
3 5 2 959.85 19.94
3 5 3 364.7 13.42
-3 -5 -3 364.26 11.13
3 5 3 354.19 10.03
3 5 4 20.48 2.76
-3 -5 -4 20.86 2.16
-3 -5 -4 20.77 2.36
3 5 4 22.32 2.21
-3 -5 -5 120.79 6.13
-3 -5 -5 110.53 5.99
3 5 5 126.03 6.07
3 5 5 124.87 6.84
-3 -5 -6 503.91 15.58
3 5 6 472.16 15.03
-3 -5 -7 49.53 2.48
-3 -5 -7 55.05 4.48
-3 -5 -7 47.42 2.88
3 5 7 50.09 2.77
3 5 7 50.23 2.74
3 5 7 45.41 2.73
3 5 7 43.98 2.72
-3 -5 -8 15.88 1.63
-3 -5 -8 11.91 1.53
3 5 8 12.88 1.41
3 5 8 12.21 1.43
-3 -5 -8 14.44 2.4
3 5 8 14.07 1.42
3 5 8 12.54 1.51
3 5 9 189.8 6.57
-3 -5 -9 201.92 7.13
3 5 9 180.66 6
-3 -5 -9 192.84 6.48
3 5 9 193.99 6.03
-3 -5 -10 30.4 2.33
-3 -5 -10 24.92 2.23
3 5 10 26.76 1.95
3 5 10 26.14 2.27
3 5 10 24.94 1.85
-3 -5 -11 5.94 0.91
3 5 11 4.28 0.76
-3 -5 -11 5.65 0.98
3 5 11 5.23 0.98
3 5 11 4.66 0.77
-3 -5 -12 5.83 0.86
-3 -5 -12 5.48 0.87
3 5 12 4.29 0.69
3 5 12 5.65 0.79
-3 -5 -13 34.39 1.81
-3 -5 -13 30.34 1.86
3 5 13 32.57 1.75
3 5 13 29.65 1.66
-3 -5 -14 18.81 1.09
3 5 14 17.96 1.08
-3 -5 -14 18.64 1.09
3 5 14 16.86 1.03
-3 -6 11 0.03 0.14
3 6 -11 -0.08 0.09
3 6 -10 15.78 1.07
3 6 -10 17.17 1.14
-3 -6 10 13.37 1.02
3 6 -10 13.91 1.09
3 6 -10 14.62 0.96
3 6 -9 42.11 2.17
-3 -6 9 39.04 2.13
3 6 -9 39.29 2.01
3 6 -9 39.63 2.09
3 6 -8 4.33 0.78
3 6 -8 4.3 0.77
-3 -6 8 3.04 0.66
3 6 -8 4.95 0.79
3 6 -7 114.58 4.61
3 6 -7 126.78 4.9
3 6 -7 130.2 4.78
3 6 -6 10.04 1.28
3 6 -6 10.24 1.36
3 6 -6 11.71 1.35
3 6 -5 64.2 3.35
3 6 -5 67.24 3.73
3 6 -5 59.9 5.95
-3 -6 5 75 5.93
3 6 -5 65.81 3.46
3 6 -4 378.94 9.99
3 6 -4 369.02 16.42
3 6 -4 405.32 10.8
3 6 -4 404.74 10.77
3 6 -3 7.97 1.87
3 6 -3 6.26 1
3 6 -3 7.13 2.1
-3 -6 3 7.8 1.54
3 6 -3 8.06 1.17
3 6 -2 10.58 2.23
3 6 -2 8.15 1.03
3 6 -2 8.85 1.07
3 6 -2 7.55 1.81
-3 -6 2 8.51 1.58
3 6 -2 9.25 1.16
3 6 -1 47.4 5.02
3 6 -1 41.04 3.79
-3 -6 1 44.03 3.49
3 6 0 45.62 5.33
3 6 0 43.96 3.57
-3 -6 0 48.67 3.6
3 6 1 139.53 9.86
-3 -6 -1 161.04 6.93
3 6 2 61.62 5.98
-3 -6 -2 59.21 4.09
3 6 3 343.33 14.13
-3 -6 -3 324.24 11.08
-3 -6 -3 305.14 10.11
3 6 4 73.79 5.84
-3 -6 -4 66.44 4.63
3 6 5 48.35 4.57
3 6 5 52.01 3.12
-3 -6 -5 54.02 2.85
-3 -6 -5 52.77 2.57
3 6 5 55.7 2.76
-3 -6 -5 43.77 3.92
-3 -6 -6 739.85 15.35
3 6 6 698.52 16.26
-3 -6 -6 713.41 16.07
3 6 6 691.2 16.05
3 6 6 745.94 15.78
3 6 6 681.91 15.82
3 6 6 702.73 20.39
-3 -6 -7 38.9 2.26
-3 -6 -7 36.16 2.55
3 6 7 35.31 2.47
3 6 7 35.89 2.42
3 6 7 41.16 2.56
-3 -6 -7 30.16 3.51
3 6 7 34.35 2.26
3 6 7 32.57 2.38
-3 -6 -8 11.38 1.24
-3 -6 -8 10.9 1.46
3 6 8 11.92 1.34
3 6 8 10.88 1.38
3 6 8 12.82 1.48
-3 -6 -8 10.93 2.18
-3 -6 -8 13.01 1.49
3 6 8 12.29 1.35
3 6 8 9.54 1.37
-3 -6 -9 425.98 11.15
-3 -6 -9 415.39 11.65
3 6 9 436.75 10.69
3 6 9 426.4 11.4
3 6 9 423.12 10.56
3 6 9 444.93 11.6
-3 -6 -9 409.35 10.49
-3 -6 -10 72.94 3.65
-3 -6 -10 69.31 3.21
-3 -6 -10 68.58 3.77
3 6 10 67.69 3.18
3 6 10 70.99 3.78
3 6 10 58.88 2.96
-3 -6 -11 3.8 0.82
-3 -6 -11 3.53 0.82
3 6 11 3.36 0.64
3 6 11 4.91 0.93
3 6 11 3.05 0.6
-3 -6 -12 31.76 1.9
-3 -6 -12 28.22 1.96
3 6 12 31.35 1.81
3 6 12 31.51 2.05
3 6 12 25.64 1.6
-3 -6 -13 33.15 1.67
-3 -6 -13 27.06 1.63
3 6 13 29.29 1.55
-3 -6 -13 32.01 1.5
3 6 13 27.51 1.46
-3 -6 -14 22.22 1.1
3 6 14 20.53 1.06
-3 -7 10 3.03 0.43
3 7 -10 3.94 0.42
3 7 -10 2.78 0.36
3 7 -10 4.46 0.47
-3 -7 9 31.23 1.69
3 7 -9 30.2 1.57
-3 -7 9 26.85 1.47
3 7 -9 26.28 1.48
3 7 -9 25.29 1.3
3 7 -8 141.96 4.45
-3 -7 8 126.12 4.34
3 7 -8 132.8 4.42
3 7 -8 129.21 4.07
3 7 -7 28.34 1.97
-3 -7 7 23.05 1.9
3 7 -7 25.52 1.92
3 7 -7 25.49 1.78
3 7 -6 29.39 2.2
3 7 -6 32.18 2.36
3 7 -6 31.55 2.16
3 7 -5 271.93 8.45
3 7 -5 292.18 8.64
3 7 -5 271.61 8.01
3 7 -4 10.54 1.36
-3 -7 4 8.34 1.27
3 7 -4 11.26 1.44
3 7 -4 9.55 1.28
3 7 -3 17.54 2.9
3 7 -3 20.01 1.82
-3 -7 3 19.79 1.85
3 7 -3 16.99 1.67
-3 -7 3 20.91 2.92
3 7 -3 19.12 1.85
3 7 -2 102.25 7.47
3 7 -2 115.68 4.81
3 7 -2 107.36 4.39
-3 -7 2 106.34 4.47
3 7 -2 114.18 7.58
3 7 -2 115.09 4.55
-3 -7 2 127.62 6.97
3 7 -2 122.39 4.84
-3 -7 2 118.7 4.87
-3 -7 1 4.34 0.83
3 7 -1 3.99 0.92
3 7 -1 3.52 1.07
-3 -7 1 4.6 0.79
3 7 -1 3.95 0.72
3 7 -1 5.03 0.83
-3 -7 1 6.08 1.43
3 7 -1 4.78 0.88
3 7 0 309.71 15.12
-3 -7 0 305.68 8.18
3 7 0 282.35 9.7
3 7 0 282.31 7.85
-3 -7 0 288.7 8.14
3 7 0 306.21 8.18
-3 -7 0 323.73 11.35
3 7 0 335.31 8.47
-3 -7 -1 26.75 1.81
3 7 1 24.01 2.53
3 7 1 22.87 1.67
3 7 1 26.96 4.55
-3 -7 -1 25.08 1.89
3 7 1 25.73 1.85
-3 -7 -1 28.44 3.07
3 7 1 27.09 1.9
3 7 1 28.81 1.95
3 7 2 25.17 1.71
3 7 2 30.69 4.68
3 7 2 27.05 2.58
-3 -7 -2 25.89 1.93
3 7 2 28.87 1.94
-3 -7 -2 30.57 3.18
3 7 2 28.7 1.93
3 7 2 28.24 1.96
3 7 3 57.44 6.05
3 7 3 56.15 3.64
-3 -7 -3 52.17 2.81
-3 -7 -3 55.4 4.53
3 7 3 54.75 2.77
3 7 3 52.93 2.81
3 7 4 19.92 3.39
3 7 4 14.27 1.8
-3 -7 -4 16.55 1.62
3 7 4 17.31 1.53
-3 -7 -4 11.99 2.11
3 7 4 16.29 1.51
3 7 5 64.58 5.78
3 7 5 73.93 3.99
-3 -7 -5 78.75 3.32
-3 -7 -5 73.01 3.51
3 7 5 75.16 3.43
-3 -7 -5 66.31 5.09
-3 -7 -5 56.17 4.69
3 7 5 65.86 3.36
-3 -7 -6 8.66 1.2
3 7 6 7.48 1.23
3 7 6 10.1 1.24
-3 -7 -6 7.83 1.04
-3 -7 -6 6.57 1.65
-3 -7 -6 5.85 1.72
3 7 6 7.46 1.12
3 7 7 103.31 4.65
-3 -7 -7 119.68 4.46
-3 -7 -7 120.94 4.95
3 7 7 103.61 4.38
3 7 7 123.93 4.81
-3 -7 -7 123.71 4.67
3 7 7 104.17 4.24
3 7 7 106.04 4.6
-3 -7 -8 69.3 3.51
3 7 8 65.4 3.45
-3 -7 -8 76.56 3.45
-3 -7 -8 73.41 3.86
3 7 8 73.53 3.43
3 7 8 77.16 3.75
3 7 8 70.33 3.38
3 7 8 66.26 3.53
-3 -7 -9 66.08 3.19
-3 -7 -9 63.9 3.6
3 7 9 63.62 3.07
3 7 9 66.7 3.51
-3 -7 -9 62 3.31
3 7 9 58.49 2.96
3 7 9 65.15 3.48
-3 -7 -10 190.34 6.01
-3 -7 -10 167.8 5.56
-3 -7 -10 178 6.37
3 7 10 170.27 5.41
3 7 10 185.42 6.38
3 7 10 169.58 5.32
-3 -7 -11 6.96 0.91
-3 -7 -11 6.42 0.83
-3 -7 -11 5.79 0.96
3 7 11 5.11 0.77
3 7 11 6.1 0.95
3 7 11 6.08 0.77
-3 -7 -12 14.21 1.1
-3 -7 -12 12.06 1.18
3 7 12 10.89 0.96
3 7 12 12.94 1.19
3 7 12 10.55 0.89
-3 -7 -13 108.13 3.32
3 7 13 110.58 3.11
-3 -8 9 45.19 1.59
3 8 -9 43.94 1.49
-3 -8 8 29.23 1.55
-3 -8 8 26.76 1.34
3 8 -8 27.61 1.46
3 8 -8 25.65 1.22
-3 -8 7 185.48 5.27
3 8 -7 177.81 5.04
-3 -8 7 160.83 4.86
3 8 -7 169.81 4.98
3 8 -7 165.93 4.68
3 8 -6 23.42 1.73
-3 -8 6 22.2 1.71
3 8 -6 25.57 1.82
3 8 -6 22.1 1.58
-3 -8 6 20.87 1.75
-3 -8 5 41.22 2.72
3 8 -5 44.47 2.65
3 8 -5 49.28 2.82
3 8 -5 44.86 2.51
3 8 -4 213.28 6.89
3 8 -4 226.49 7.11
3 8 -4 210.59 6.65
-3 -8 4 213.36 7.27
-3 -8 3 119.27 5.07
-3 -8 3 109.89 4.8
3 8 -3 120.48 4.88
3 8 -3 123.49 4.93
3 8 -3 116.72 4.73
3 8 -2 10.93 1.33
3 8 -2 10.71 1.25
-3 -8 2 12.57 1.44
3 8 -2 12.17 1.39
-3 -8 2 11.79 1.42
3 8 -2 11.5 1.4
-3 -8 1 413.85 10.65
3 8 -1 383.89 10.98
-3 -8 1 385.29 10.43
3 8 -1 414.74 10.43
3 8 -1 437.88 10.78
3 8 -1 376.29 10
-3 -8 0 12.95 1.38
3 8 0 12.29 1.72
-3 -8 0 14.45 1.48
3 8 0 13.34 1.38
3 8 0 15.5 1.53
-3 -8 -1 23.38 1.77
3 8 1 21.81 1.66
3 8 1 22.37 2.45
-3 -8 -1 21.65 1.82
3 8 1 21.63 1.74
3 8 1 24.75 1.89
3 8 1 22.5 1.82
-3 -8 -2 303.18 7.94
3 8 2 300.59 10.19
-3 -8 -2 294.05 8.4
3 8 2 314.81 8.33
3 8 2 307.8 8.42
3 8 3 17.25 2.05
-3 -8 -3 19.79 1.73
3 8 3 19.4 1.65
3 8 3 19.78 1.71
3 8 4 3 0.74
3 8 4 2.69 0.87
-3 -8 -4 2.83 0.61
-3 -8 -4 2.09 0.58
3 8 4 4.86 0.81
3 8 5 3.36 0.71
3 8 5 4.06 0.97
-3 -8 -5 4.19 0.76
-3 -8 -5 4.31 0.85
3 8 5 4.37 0.81
3 8 6 1.08 0.55
-3 -8 -6 1.86 0.55
-3 -8 -6 1.65 0.53
3 8 6 1.66 0.59
3 8 6 2.03 0.58
3 8 7 0.21 0.27
3 8 7 0.38 0.31
-3 -8 -7 0.25 0.26
-3 -8 -7 0.14 0.3
-3 -8 -7 0.64 0.58
3 8 7 1.35 0.48
3 8 7 0.63 0.39
3 8 7 0.13 0.21
3 8 8 26.79 2.13
-3 -8 -8 29.3 2.1
-3 -8 -8 28.73 2
-3 -8 -8 29.23 2.27
3 8 8 28.45 1.92
3 8 8 32.21 2.27
3 8 8 29.13 1.95
3 8 8 27.95 2.16
3 8 9 3.81 0.78
-3 -8 -9 5.33 0.85
-3 -8 -9 3.99 0.75
-3 -8 -9 4.19 0.87
3 8 9 3.09 0.59
3 8 9 3.7 0.8
3 8 9 3.8 0.64
-3 -8 -10 77.63 3.24
-3 -8 -10 82.26 3.7
3 8 10 70.34 2.85
3 8 10 80.57 3.58
-3 -8 -10 83.69 3.25
3 8 10 69.07 2.78
-3 -8 -11 5.91 0.69
-3 -8 -11 4.96 0.77
3 8 11 5.28 0.66
3 8 11 5.2 0.78
3 8 11 4.83 0.59
-3 -8 -11 5.18 0.65
-3 -8 -12 16.27 0.98
-3 -8 -12 15.4 1.1
3 8 12 13.63 0.89
3 8 12 12.17 0.76
3 9 -7 8.53 0.69
3 9 -7 8.18 0.66
-3 -9 7 9.67 0.72
3 9 -6 2.59 0.44
-3 -9 6 2.9 0.46
3 9 -6 3.03 0.52
-3 -9 6 2.66 0.49
-3 -9 5 3.83 0.67
3 9 -5 4.23 0.66
-3 -9 5 4 0.69
-3 -9 4 29.72 2.03
3 9 -4 34.58 2.15
3 9 -4 31.82 1.93
-3 -9 3 22.16 1.85
3 9 -3 27.12 2
3 9 -3 24.73 1.84
-3 -9 3 23.14 1.92
3 9 -2 34.17 2.19
-3 -9 2 36.62 2.4
3 9 -2 35.44 2.27
-3 -9 2 35.76 2.41
3 9 -2 42.58 2.52
3 9 -2 41.12 2.55
-3 -9 1 109.34 4.45
3 9 -1 114.91 4.68
3 9 -1 109.01 4.17
-3 -9 1 112.6 4.56
3 9 -1 121.77 4.54
3 9 0 61.94 3.59
-3 -9 0 71.25 3.28
-3 -9 0 65.84 3.33
3 9 0 73.18 3.35
3 9 0 65.45 2.96
3 9 0 70.39 3.3
-3 -9 -1 4.49 0.76
3 9 1 4 0.98
-3 -9 -1 3.9 0.74
3 9 1 4.04 0.73
3 9 1 4.89 0.82
-3 -9 -2 8.68 1
3 9 2 8.19 1.44
-3 -9 -2 10 1.17
-3 -9 -2 8.84 1.13
3 9 2 8.94 1.09
3 9 2 10.09 1.2
-3 -9 -3 99.31 3.65
3 9 3 97.51 5.01
-3 -9 -3 100.12 3.99
-3 -9 -3 96.98 4.11
3 9 3 96.73 3.9
3 9 3 100.86 4.1
3 9 4 6.02 1.23
-3 -9 -4 7.06 0.95
-3 -9 -4 5.91 0.94
3 9 4 7.46 1.02
3 9 4 6.48 1
-3 -9 -5 20.89 1.65
-3 -9 -5 20.88 1.79
3 9 5 21.84 1.72
3 9 5 23.52 2.15
-3 -9 -5 24.11 1.77
3 9 5 20.6 1.76
3 9 6 75.44 3.71
-3 -9 -6 78.36 3.33
-3 -9 -6 72.03 3.47
3 9 6 75.85 3.35
3 9 6 68.03 3.37
3 9 7 5.27 0.87
-3 -9 -7 6.03 0.86
-3 -9 -7 5.43 0.89
-3 -9 -7 4.58 0.76
3 9 7 4.88 0.82
3 9 7 5.42 0.94
3 9 8 28.24 1.91
-3 -9 -8 29.75 1.91
-3 -9 -8 30.66 2.12
3 9 8 30.52 1.99
-3 -9 -8 30.36 1.87
3 9 8 29.76 1.7
3 9 8 30.22 2.04
-3 -9 -9 0.49 0.26
-3 -9 -9 0.29 0.29
-3 -9 -9 -0.3 0.31
3 9 9 0.01 0.16
3 9 9 -0.04 0.22
3 9 9 -0.05 0.18
-3 -9 -10 17.04 1.09
-3 -9 -10 18.37 1.23
-3 -9 -10 17.9 1.37
3 9 10 16.83 1.29
3 9 10 14.83 0.92
-3 -9 -11 32.95 1.3
-3 -9 -11 34.89 1.64
3 9 11 32.22 1.48
-3 -9 -11 35.7 1.4
-3 -10 5 30.78 1.32
3 10 -5 33.98 1.35
-3 -10 4 11.7 0.92
3 10 -4 9.99 0.77
-3 -10 4 11.69 0.88
3 10 -4 13.45 0.96
-3 -10 3 6.32 0.74
3 10 -3 6.05 0.68
-3 -10 3 4.97 0.67
3 10 -3 7.64 0.82
3 10 -2 13.39 1.07
-3 -10 2 13.98 1.23
-3 -10 2 12.08 1.17
3 10 -2 14.02 1.23
-3 -10 2 13.48 0.96
-3 -10 1 9.93 1.04
3 10 -1 9.01 1
3 10 -1 9.9 0.91
-3 -10 1 10.13 1.11
3 10 -1 10.9 1.08
-3 -10 1 9.27 0.91
-3 -10 0 21.95 1.55
-3 -10 0 19.96 1.46
3 10 0 20.16 1.68
-3 -10 0 21.04 1.65
3 10 0 22.04 1.59
-3 -10 -1 37.95 2.04
3 10 1 34.77 2.46
-3 -10 -1 39.71 2.31
3 10 1 42.49 2.25
-3 -10 -1 38.01 2.13
3 10 1 38.15 2.17
3 10 2 5.77 0.83
-3 -10 -2 5.29 0.72
3 10 2 6.48 1.08
-3 -10 -2 5.81 0.83
-3 -10 -2 5.35 0.81
3 10 2 5.7 0.78
-3 -10 -3 72.99 2.77
3 10 3 78.4 3.96
-3 -10 -3 78.34 3.21
-3 -10 -3 73.73 3.27
3 10 3 74.64 3.09
3 10 3 71.63 3.15
-3 -10 -4 24.24 1.67
-3 -10 -4 23.54 1.74
3 10 4 24.67 1.66
3 10 4 23.43 2.03
3 10 4 23.25 1.67
3 10 5 28.16 2.11
-3 -10 -5 28.77 1.91
3 10 5 27.12 1.73
-3 -10 -5 27.57 1.77
3 10 5 26.75 1.79
-3 -10 -6 8.19 0.93
-3 -10 -6 8.18 1
3 10 6 7.29 1.02
3 10 6 6.98 0.86
3 10 6 6.71 0.89
3 10 7 8.22 0.93
-3 -10 -7 8.26 0.9
-3 -10 -7 7.87 0.94
3 10 7 8.01 0.89
3 10 7 7.72 0.93
-3 -10 -8 11.56 0.99
-3 -10 -8 11.98 1.1
3 10 8 10.62 0.97
3 10 8 10.99 0.93
3 10 8 11.51 1.02
-3 -10 -9 73.48 2.66
3 10 9 66.16 2.38
3 10 9 70.75 2.46
3 11 -1 44.7 1.72
-3 -11 1 41.02 1.67
-3 -11 0 139.08 4.03
-3 -11 0 135.08 3.84
3 11 1 9.23 0.89
-3 -11 -1 7.77 0.65
-3 -11 -1 8.37 0.82
3 11 1 10.61 0.86
3 11 2 117.17 3.96
-3 -11 -2 113.87 3.44
-3 -11 -2 126.57 3.88
3 11 3 202.26 5.72
-3 -11 -3 185.52 4.94
-3 -11 -3 203.62 5.3
3 11 3 181.81 4.68
3 11 3 210.64 5.05
3 11 3 178.32 4.76
3 11 4 17.24 1.34
-3 -11 -4 13.23 1.02
-3 -11 -4 14.91 1.14
3 11 4 14.99 1.08
3 11 4 14.87 1.03
3 11 4 12.14 0.93
3 11 5 104.2 3.5
-3 -11 -5 103.96 3.16
-3 -11 -5 101.83 3.28
3 11 5 100.72 3.03
3 11 5 94.99 3.19
3 11 5 92.13 2.97
-3 -11 -6 15.04 0.99
-3 -11 -6 13.95 1
3 11 6 14.23 1.03
3 11 6 13.06 0.88
3 11 6 15.86 1.13
4 -8 -5 32.22 1.49
-4 8 4 5.62 0.56
4 -8 -4 6.12 0.66
4 -8 -4 5.49 0.68
4 -8 -3 14.44 1.04
4 -8 -3 13.91 1.16
-4 8 2 219.19 5.47
4 -8 -2 224.28 6.1
-4 8 1 84.51 2.84
4 -8 -1 84.3 2.85
4 -8 -1 76.04 3.02
-4 8 0 5.37 0.62
4 -8 0 6.17 0.66
4 -8 0 4.74 0.64
-4 8 -1 2.37 0.39
4 -8 1 2.77 0.43
-4 7 8 8.58 0.65
4 -7 -8 8.71 0.79
4 -7 -8 8.3 0.68
4 -7 -8 6.39 0.57
-4 7 7 128.1 3.51
4 -7 -7 117.05 3.72
4 -7 -7 101.08 3.27
4 -7 -7 119.78 3.52
4 -7 -7 110.07 3.37
4 -7 -6 2.47 0.48
4 -7 -6 3.3 0.61
4 -7 -6 3.92 0.64
4 -7 -6 3.48 0.55
4 -7 -6 3.07 0.56
4 -7 -5 49.08 2.5
4 -7 -5 61.7 2.67
4 -7 -5 59.35 2.74
4 -7 -5 52.13 2.5
4 -7 -4 17.78 1.46
-4 7 4 18.73 1.26
4 -7 -4 20.07 1.66
4 -7 -4 16.15 1.35
-4 7 3 88.58 3.32
4 -7 -3 79.62 3.38
4 -7 -3 96.73 3.56
4 -7 -3 95.64 3.99
4 -7 -3 70.81 3.09
-4 7 2 32.14 2.01
4 -7 -2 33.41 2.11
4 -7 -2 34.81 2.01
4 -7 -2 32.68 2.34
4 -7 -2 30.02 1.69
-4 7 1 43.38 2.47
4 -7 -1 45.03 2.55
4 -7 -1 48.6 2.42
4 -7 -1 44.88 2.78
4 -7 -1 41.6 2.12
-4 7 0 145.21 5.03
4 -7 0 163.99 4.99
4 -7 0 145.24 5.12
4 -7 0 159.25 4.93
4 -7 0 135.99 5.3
4 -7 0 139.72 4.58
4 -7 1 0.44 0.22
4 -7 1 1.12 0.49
4 -7 1 0.24 0.28
-4 7 -1 1.05 0.46
4 -7 1 0.88 0.31
4 -7 1 0.73 0.39
-4 7 -2 2.13 0.39
-4 7 -2 1.56 0.42
4 -7 2 1.75 0.45
4 -7 2 2.03 0.57
4 -7 2 1.97 0.5
4 -7 2 2.06 0.49
4 -7 2 2.07 0.43
4 -7 2 1.08 0.34
-4 7 -3 19.16 1.33
4 -7 3 17.53 1.26
4 -7 3 18.33 1.31
4 -7 3 21.3 1.29
4 -7 3 18.35 1.38
4 -7 3 18.02 1.12
-4 7 -3 18.56 1.14
-4 7 -4 7.72 0.72
4 -7 4 7.26 0.69
4 -7 4 7.98 0.73
4 -7 4 7.89 0.81
4 -7 4 6.68 0.59
-4 7 -4 7.23 0.63
4 -7 5 52.32 1.96
4 -6 -10 0.52 0.23
4 -6 -10 0.17 0.17
4 -6 -9 3.98 0.57
-4 6 9 4.21 0.53
4 -6 -9 4.7 0.66
4 -6 -9 4.08 0.58
4 -6 -8 1.23 0.41
-4 6 8 1.09 0.37
4 -6 -8 1.53 0.46
4 -6 -8 0.9 0.34
4 -6 -7 3.1 0.65
4 -6 -7 2.96 0.66
4 -6 -7 3.14 0.65
4 -6 -7 3.59 0.7
4 -6 -7 2.45 0.57
4 -6 -6 0.64 0.35
4 -6 -6 0.04 0.23
4 -6 -6 0.11 0.29
4 -6 -6 0.16 0.34
4 -6 -5 34.77 2.35
4 -6 -5 40.87 2.42
4 -6 -5 37.54 2.47
4 -6 -5 37.85 2.4
-4 6 4 124.9 4.24
4 -6 -4 110.26 4.53
4 -6 -4 112.69 4.24
4 -6 -4 125.87 4.55
4 -6 -4 122.73 4.95
4 -6 -4 115.06 4.56
-4 6 3 52.67 2.8
4 -6 -3 53.47 2.88
4 -6 -3 54.22 2.82
4 -6 -3 58.85 3.34
4 -6 -3 51.28 2.56
4 -6 -3 52.76 2.9
4 -6 -3 53.86 2.98
4 -6 -2 5.12 0.85
4 -6 -2 4.59 0.84
-4 6 2 4.73 0.87
4 -6 -2 4.42 0.77
4 -6 -2 3.44 0.74
4 -6 -2 4.54 0.8
4 -6 -2 4.85 0.77
4 -6 -2 2.95 0.55
4 -6 -2 4.95 0.99
-4 6 1 246.18 7.71
4 -6 -1 246.95 7.11
4 -6 -1 256.25 7.7
4 -6 -1 250.04 7.1
4 -6 -1 252.26 8.29
4 -6 -1 237.19 6.93
4 -6 -1 235.38 6.56
4 -6 -1 236.54 7.1
4 -6 0 134.93 4.74
4 -6 0 126.04 5.15
4 -6 0 118.94 5.43
4 -6 0 121.3 4.58
4 -6 0 118.26 4.19
4 -6 0 119.37 4.46
4 -6 1 21.96 1.74
4 -6 1 21.33 1.96
4 -6 1 16.27 1.81
4 -6 1 20.37 1.75
4 -6 1 17.22 1.43
-4 6 -1 18.67 1.37
4 -6 2 62.38 3.05
4 -6 2 52.58 3.07
4 -6 2 50.03 3.03
4 -6 2 61.81 3.24
4 -6 2 56.23 2.76
-4 6 -2 57 2.6
-4 6 -3 42.45 2.5
4 -6 3 42.85 2.47
4 -6 3 44.45 2.57
4 -6 3 42.82 2.46
4 -6 3 42.25 2.68
4 -6 3 36.96 2.21
-4 6 -3 40.7 2.19
-4 6 -4 121.72 4.23
4 -6 4 114.29 4.2
4 -6 4 123.83 4.25
4 -6 4 101.61 4.29
4 -6 4 103.4 3.99
-4 6 -4 117.58 4
-4 6 -5 6.6 0.79
4 -6 5 6.34 0.78
4 -6 5 7.09 0.82
4 -6 5 6.93 0.92
4 -6 5 5.64 0.77
-4 6 -5 6.04 0.76
-4 6 -6 3.63 0.55
-4 6 -6 4.55 0.52
4 -6 6 3.96 0.52
4 -6 6 4.77 0.56
4 -6 6 5.57 0.73
4 -6 6 4.26 0.61
-4 6 -7 1.05 0.28
4 -6 7 1.71 0.35
4 -6 7 1.86 0.36
4 -5 -11 64.8 2.29
4 -5 -11 66.78 2.29
4 -5 -10 29.68 1.55
4 -5 -10 27.47 1.49
-4 5 10 35.31 1.58
4 -5 -10 35.89 1.94
4 -5 -10 37.52 1.88
4 -5 -10 35.25 1.86
4 -5 -9 1.49 0.43
4 -5 -9 0.98 0.33
-4 5 9 0.51 0.2
4 -5 -9 1.05 0.36
4 -5 -9 1.22 0.43
4 -5 -9 1.94 0.55
4 -5 -8 39.44 2.19
4 -5 -8 42.84 2.59
4 -5 -8 41.15 2.43
4 -5 -8 44.46 2.56
4 -5 -8 44.69 2.66
4 -5 -7 1.41 0.56
4 -5 -7 1.77 0.59
4 -5 -7 2.2 0.62
4 -5 -7 0.47 0.34
4 -5 -6 15.76 1.67
4 -5 -6 15.99 1.59
4 -5 -6 16.62 1.72
4 -5 -6 17.11 1.66
4 -5 -5 41.46 2.79
4 -5 -5 48.56 2.81
4 -5 -5 44.21 2.87
4 -5 -5 42.37 2.38
4 -5 -5 46.54 2.81
-4 5 4 0.56 0.24
4 -5 -4 1.39 0.61
4 -5 -4 0.37 0.34
4 -5 -4 1.16 0.49
4 -5 -4 0.83 0.37
4 -5 -4 0.74 0.24
4 -5 -4 1.04 0.4
4 -5 -4 0.73 0.46
4 -5 -3 2.24 0.63
4 -5 -3 1.22 0.39
4 -5 -3 1.99 0.6
4 -5 -3 1.13 0.36
4 -5 -3 1.45 0.47
4 -5 -3 1.29 0.34
4 -5 -3 1.7 0.65
4 -5 -2 40.35 2.71
4 -5 -2 42.13 2.56
4 -5 -2 46.53 2.78
4 -5 -2 42.45 2.53
4 -5 -2 48.97 3.2
4 -5 -2 40.71 2.45
4 -5 -2 39.86 2.32
4 -5 -2 42.35 2.61
4 -5 -1 178.38 5.83
4 -5 -1 197.55 6.49
4 -5 -1 190.66 7.06
4 -5 -1 161.7 5.67
4 -5 -1 167.87 5.47
4 -5 -1 174.52 5.89
4 -5 0 90.12 3.89
4 -5 0 91.34 4.39
4 -5 0 92.9 4.84
4 -5 0 87.03 3.94
4 -5 0 90.16 3.71
4 -5 0 92.63 3.98
4 -5 1 10.63 1.22
4 -5 1 12.14 1.57
4 -5 1 10.6 1.66
4 -5 1 11.32 1.37
4 -5 1 10.27 1.16
4 -5 1 11.89 1.32
4 -5 2 384.46 9.63
4 -5 2 365.6 10.31
4 -5 2 357.83 9.35
4 -5 2 344.1 9.22
-4 5 -2 351.65 8.87
-4 5 -3 267.87 7.7
4 -5 3 295.86 8.29
4 -5 3 280.53 8.46
4 -5 3 298.42 8.54
4 -5 3 279.36 8.09
-4 5 -4 127.7 4.71
4 -5 4 131.26 4.97
4 -5 4 130.12 4.93
4 -5 4 122.77 4.69
4 -5 4 129.33 4.99
-4 5 -5 26.08 1.96
4 -5 5 24.92 1.83
4 -5 5 25.53 1.97
4 -5 5 28.38 1.96
-4 5 -6 110.54 4.12
4 -5 6 110.91 4.05
4 -5 6 104.98 3.82
4 -5 7 62.98 2.52
-4 5 -7 62.18 2.69
4 -5 7 63.99 2.42
4 -5 7 59.65 2.39
4 -5 8 210.21 5.14
4 -5 8 197.79 5.32
4 -5 9 11.15 0.78
-4 5 -9 10.13 0.76
4 -4 -12 26.56 1.26
4 -4 -12 25.57 1.24
4 -4 -12 26.87 1.28
4 -4 -11 1.35 0.36
4 -4 -11 1.5 0.38
4 -4 -11 1.88 0.39
4 -4 -11 1.77 0.45
4 -4 -11 2.15 0.47
4 -4 -10 115.76 4.08
4 -4 -10 123.17 4.36
4 -4 -10 125.1 4.24
4 -4 -10 123.53 4.29
4 -4 -9 22.99 1.84
4 -4 -9 22.78 1.72
-4 4 9 25.72 1.75
4 -4 -9 23.7 1.98
4 -4 -9 24.69 1.91
4 -4 -9 23.5 1.69
4 -4 -9 25.88 2.07
4 -4 -8 39.47 2.67
4 -4 -8 38.76 2.46
4 -4 -8 38.94 2.59
4 -4 -8 37.72 2.55
4 -4 -8 42.57 2.66
4 -4 -8 37.81 2.35
4 -4 -8 40.87 2.69
4 -4 -7 254.62 7.76
4 -4 -7 266.74 8.36
4 -4 -7 243.56 7.82
4 -4 -7 273.76 8.04
4 -4 -7 255.25 8.03
4 -4 -7 258.61 7.54
4 -4 -7 276.81 8.14
4 -4 -6 25 2.2
4 -4 -6 28.68 2.19
4 -4 -6 25.83 2.28
4 -4 -6 28.82 2.07
4 -4 -6 27.88 2.19
4 -4 -5 17.98 1.83
4 -4 -5 21.77 1.84
4 -4 -5 21.2 1.96
4 -4 -5 19.95 1.69
4 -4 -5 21.08 1.73
4 -4 -5 24.76 1.97
4 -4 -4 17.7 1.78
-4 4 4 19.64 2.86
-4 4 4 17.91 2.86
4 -4 -4 18.8 1.66
4 -4 -4 18.76 1.87
4 -4 -4 16.91 1.55
4 -4 -4 19.03 1.66
4 -4 -4 18.26 1.69
4 -4 -3 40.82 2.7
-4 4 3 35.93 3.69
4 -4 -3 41.87 2.53
4 -4 -3 36.75 2.33
4 -4 -3 34.69 4.05
-4 4 3 46.64 4.42
4 -4 -3 40.05 2.44
4 -4 -3 42.87 2.89
4 -4 -3 40.4 2.43
4 -4 -3 41.37 2.41
4 -4 -3 40.71 2.49
-4 4 2 20.99 2.69
4 -4 -2 19.33 1.65
4 -4 -2 22.14 1.79
4 -4 -2 18.55 2.82
-4 4 2 22.21 3
4 -4 -2 23.69 2.15
4 -4 -2 20.65 1.71
4 -4 -2 18.46 1.54
4 -4 -2 22.64 1.79
4 -4 -1 19.49 1.63
4 -4 -1 19.69 1.82
-4 4 1 20.07 2.61
4 -4 -1 20.75 3.05
-4 4 1 19.82 2.64
4 -4 -1 20.83 2.11
4 -4 -1 18.71 1.67
4 -4 -1 20.25 1.61
4 -4 -1 20.5 1.71
4 -4 0 55.07 2.82
4 -4 0 64.65 3.41
4 -4 0 53.02 4.91
-4 4 0 54.52 4.46
-4 4 0 52.3 4.18
4 -4 0 63.74 3.82
4 -4 0 56.13 3.04
4 -4 0 49 2.67
4 -4 0 56.38 2.93
4 -4 1 14.77 1.42
-4 4 -1 13.19 1.97
4 -4 1 11.49 2.26
-4 4 -1 16.15 2.3
4 -4 1 12.47 1.74
4 -4 1 13.64 1.39
4 -4 1 13.27 1.35
4 -4 1 15.2 1.48
4 -4 2 166.62 5.59
4 -4 2 164.7 5.52
-4 4 -2 154.25 7.26
4 -4 2 179.59 6.45
4 -4 2 161.53 9.17
-4 4 -2 153.59 7.45
4 -4 2 137.54 6.27
4 -4 2 163.7 5.53
4 -4 2 158.51 5.51
-4 4 -3 83.46 3.6
4 -4 3 83.59 3.77
4 -4 3 83.56 3.73
4 -4 3 79.13 4.04
4 -4 3 81.91 4.15
4 -4 3 79.1 3.66
-4 4 -4 8.52 1.19
4 -4 4 9.5 1.22
4 -4 4 8.23 1.2
4 -4 4 9.11 1.2
4 -4 4 8.55 1.17
-4 4 -5 16.2 1.67
4 -4 5 18.07 1.75
4 -4 5 17.89 1.72
4 -4 5 17.7 1.65
-4 4 -6 130.29 5.06
4 -4 6 129.19 5.09
4 -4 6 136.48 5.11
-4 4 -7 0.02 0.31
4 -4 7 0.41 0.31
4 -4 7 0.42 0.24
4 -4 7 0.61 0.33
-4 4 -8 21.04 1.61
4 -4 8 18.74 1.44
-4 4 -8 18.43 1.26
4 -4 8 19.29 1.26
-4 4 -9 1.05 0.35
-4 4 -9 1.18 0.31
4 -4 9 0.55 0.21
4 -4 9 0.43 0.24
-4 4 -10 6.34 0.67
4 -4 10 5.7 0.49
-4 3 13 6.85 0.56
4 -3 -13 6.68 0.55
4 -3 -12 0.72 0.25
4 -3 -12 0.79 0.26
4 -3 -12 0.56 0.25
4 -3 -11 133.75 4.32
4 -3 -11 121.12 4.08
4 -3 -11 128.55 4.26
4 -3 -11 131.94 4.28
4 -3 -11 126.63 4.13
4 -3 -10 15.42 1.5
4 -3 -10 14.93 1.37
4 -3 -10 13.19 1.36
4 -3 -10 13.86 1.36
4 -3 -10 14.36 1.42
4 -3 -9 146.42 5.35
4 -3 -9 166.07 5.93
4 -3 -9 164.73 5.96
4 -3 -9 171.4 5.82
4 -3 -9 167.24 5.85
4 -3 -9 172.3 6.09
4 -3 -8 365.93 9.68
4 -3 -8 364 10.49
4 -3 -8 340.31 9.82
4 -3 -8 340.62 9.97
4 -3 -8 363.98 9.89
4 -3 -8 350.26 10.01
4 -3 -7 68.07 3.77
4 -3 -7 57.24 3.65
4 -3 -7 62.55 3.36
4 -3 -7 62.22 3.37
4 -3 -7 59.9 3.44
4 -3 -7 69.37 3.47
4 -3 -7 64.02 3.47
4 -3 -6 143.7 5.76
4 -3 -6 144.06 5.83
4 -3 -6 144.64 5.73
-4 3 6 148.93 8.82
4 -3 -6 159.21 5.58
4 -3 -6 151.39 5.86
4 -3 -6 168.92 5.69
4 -3 -6 146.35 5.23
-4 3 6 149.78 8.58
4 -3 -6 171.51 5.83
4 -3 -5 110.38 4.88
4 -3 -5 114.11 4.7
-4 3 5 126.12 7.81
4 -3 -5 121.65 4.66
4 -3 -5 124.61 5.14
4 -3 -5 131.55 4.75
4 -3 -5 116.91 4.53
-4 3 5 125.99 7.39
4 -3 -4 13.52 1.5
-4 3 4 16.81 2.68
4 -3 -4 16.66 1.51
4 -3 -4 17.49 1.77
4 -3 -4 16.41 1.52
4 -3 -4 18.55 1.62
4 -3 -4 22.58 1.78
-4 3 4 19.82 2.66
4 -3 -4 17.25 1.88
-4 3 3 564.36 16.69
4 -3 -3 595.64 14.33
4 -3 -3 544.34 13.46
4 -3 -3 582.5 18
-4 3 3 581.13 17.82
4 -3 -3 561.66 12.89
4 -3 -3 584.77 14.07
4 -3 -3 537.38 12.97
4 -3 -3 577.55 13.03
4 -3 -3 613.19 13.26
4 -3 -2 80.94 3.89
-4 3 2 73.47 4.84
4 -3 -2 73.92 3.22
4 -3 -2 86.23 3.47
4 -3 -2 74.69 5.43
-4 3 2 73.31 5.12
4 -3 -2 72.51 3.77
4 -3 -2 69.63 3.26
4 -3 -2 74.35 3.22
4 -3 -2 76.02 3.29
4 -3 -1 20.45 1.81
4 -3 -1 18.84 2.34
-4 3 1 17.3 2.21
4 -3 -1 18.59 1.48
4 -3 -1 22.91 1.76
4 -3 -1 19.6 2.7
-4 3 1 18.06 2.46
4 -3 -1 18.07 1.81
4 -3 -1 18.56 1.58
4 -3 -1 17.01 1.47
4 -3 -1 17.61 1.5
4 -3 0 11.42 1.23
4 -3 0 12.63 1.82
4 -3 0 16.04 1.52
-4 3 0 12.42 1.83
4 -3 0 10.3 2
-4 3 0 8.66 1.64
4 -3 0 11.39 1.49
4 -3 0 11.79 1.29
4 -3 0 12.18 1.24
4 -3 0 11.79 1.22
4 -3 1 11.62 1.72
4 -3 1 11.03 1.16
-4 3 -1 12.1 1.87
4 -3 1 11.4 1.39
4 -3 1 13.52 2.34
-4 3 -1 10.68 1.74
4 -3 1 9.84 1.43
4 -3 1 10.53 1.13
4 -3 1 10.71 1.19
4 -3 2 65.24 3.16
4 -3 2 66.96 3.15
-4 3 -2 62.71 4.3
4 -3 2 73.34 3.74
4 -3 2 63.25 5.29
-4 3 -2 65.57 4.27
4 -3 2 63.48 3.91
-4 3 -3 9.36 1.1
4 -3 3 5.45 0.92
-4 3 -3 6.74 1.42
4 -3 3 5.64 0.88
4 -3 3 5.79 1.01
4 -3 3 5.68 1.64
4 -3 4 10.79 1.3
-4 3 -4 9.87 1.23
4 -3 4 12.5 1.4
4 -3 4 10.79 1.19
-4 3 -4 13.34 1.97
4 -3 4 9.72 1.39
4 -3 4 11.18 2.42
4 -3 4 10.81 1.23
4 -3 5 16.13 1.61
-4 3 -5 16.66 1.68
4 -3 5 20.01 1.89
4 -3 5 15.88 1.44
-4 3 -5 18.14 2.47
4 -3 5 19.38 1.77
4 -3 5 16.99 1.67
4 -3 6 3.08 0.77
-4 3 -6 2.37 0.71
4 -3 6 2.31 0.65
4 -3 6 3.78 0.78
4 -3 6 3.1 0.77
4 -3 7 93.88 3.77
-4 3 -7 95.15 4.24
-4 3 -7 99.95 3.87
4 -3 7 101.51 3.92
4 -3 7 94.28 4.39
4 -3 7 95.48 4.37
-4 3 -8 8.53 1.18
4 -3 8 8.93 1.18
-4 3 -8 9.06 1.03
4 -3 8 8.82 0.96
4 -3 8 8.93 1.17
-4 3 -9 31.99 2.07
4 -3 9 34.64 2.14
-4 3 -9 31.17 1.8
4 -3 9 30.3 2.03
-4 3 -10 84.81 3.24
4 -3 10 85.41 3.12
-4 3 -10 83.25 2.91
4 -3 10 89.64 3.2
-4 3 -11 0.62 0.27
-4 3 -11 0.44 0.22
4 -3 11 0.96 0.27
4 -3 11 0.41 0.22
-4 2 13 1.96 0.35
4 -2 -13 1.74 0.29
4 -2 -12 -0.17 0.15
4 -2 -12 0.24 0.21
4 -2 -12 0.06 0.23
4 -2 -12 0.07 0.17
4 -2 -12 0.64 0.26
4 -2 -11 0.66 0.31
4 -2 -11 1.16 0.39
4 -2 -11 0.69 0.29
4 -2 -11 0.88 0.36
4 -2 -11 0.81 0.32
4 -2 -11 0.63 0.35
4 -2 -11 0.41 0.23
4 -2 -10 -0.15 0.24
4 -2 -10 0.18 0.32
4 -2 -10 -0.13 0.29
4 -2 -10 0.52 0.4
4 -2 -10 0.41 0.42
4 -2 -10 0.32 0.31
4 -2 -10 -0.07 0.3
4 -2 -9 16.47 1.71
4 -2 -9 14.63 1.49
4 -2 -9 13.59 1.53
4 -2 -9 14.41 1.56
4 -2 -9 14.69 1.56
4 -2 -9 14.44 1.67
4 -2 -9 13.97 1.58
4 -2 -8 0.43 0.36
4 -2 -8 0.15 0.27
4 -2 -8 0.08 0.35
4 -2 -8 0.86 0.41
4 -2 -8 0.23 0.3
4 -2 -8 0.21 0.33
4 -2 -8 0.57 0.43
4 -2 -8 0.09 0.35
4 -2 -7 114.24 5.43
4 -2 -7 99.45 4.49
-4 2 7 94.46 6.8
-4 2 7 103.05 7.27
4 -2 -7 106.77 4.52
4 -2 -7 104.07 4.77
4 -2 -7 119.5 4.95
4 -2 -7 120.51 4.82
4 -2 -7 121.16 4.64
4 -2 -7 110.78 4.66
4 -2 -6 139.94 5.71
4 -2 -6 138.77 5.97
4 -2 -6 129.43 5.39
-4 2 6 129.11 8.1
-4 2 6 130.1 7.62
4 -2 -6 139.66 5.11
4 -2 -6 154.32 5.77
4 -2 -6 151.16 5.37
4 -2 -6 155.03 5.32
4 -2 -6 157.57 5.38
4 -2 -5 0.25 0.36
4 -2 -5 -0.31 0.32
4 -2 -5 -0.17 0.47
4 -2 -5 0.85 0.56
4 -2 -5 0.74 0.47
-4 2 5 0.15 0.45
-4 2 5 0.39 0.39
4 -2 -5 -0.19 0.29
4 -2 -5 -0.1 0.24
4 -2 -5 0.51 0.28
4 -2 -5 0.35 0.32
4 -2 -4 304.88 8.29
4 -2 -4 303.81 9.37
-4 2 4 273.8 11.04
4 -2 -4 266.88 8.09
-4 2 4 268.3 10.36
4 -2 -4 257.48 7.43
4 -2 -4 261.69 7.41
4 -2 -4 267.72 7.52
4 -2 -3 124.21 6.63
-4 2 3 112.26 6.46
-4 2 3 114.39 5.94
-4 2 2 13.87 1.86
4 -2 -2 14.53 2.12
-4 2 2 14.06 2.09
-4 2 1 38.59 3
4 -2 -1 39.79 3.13
4 -2 -1 40.02 3.58
-4 2 1 39.06 3.29
-4 2 0 234.98 8.02
4 -2 0 229.77 8.2
4 -2 0 224.53 9.35
-4 2 0 229.65 8.44
4 -2 1 74.89 4.27
4 -2 1 67.78 4.93
-4 2 -1 68.29 4.14
-4 2 -2 40.81 3.25
4 -2 2 42.68 3.22
4 -2 2 35.51 3.67
-4 2 -2 40.34 3.11
4 -2 3 23.37 1.81
4 -2 3 25.17 1.84
-4 2 -3 25.13 2.64
4 -2 3 24.27 2
4 -2 3 22.77 3.12
4 -2 4 37.08 2.43
4 -2 4 35.91 2.29
-4 2 -4 37.6 3.33
4 -2 4 37.39 2.58
4 -2 4 31.96 3.82
4 -2 4 40.23 2.5
4 -2 5 23.34 2.01
4 -2 5 24.63 2.1
4 -2 5 24.45 1.85
-4 2 -5 25.82 2.89
4 -2 5 23.69 2
4 -2 5 20.65 3.21
4 -2 5 26.36 2.05
4 -2 6 65.01 3.57
4 -2 6 75.24 3.37
-4 2 -6 72.17 3.38
-4 2 -6 73.95 5.25
4 -2 6 72.55 3.54
4 -2 6 76.78 3.85
4 -2 6 80.45 4.11
4 -2 7 101.17 4.47
4 -2 7 128.22 4.45
-4 2 -7 120.64 4.52
4 -2 7 122.61 4.5
4 -2 7 114.45 5.2
4 -2 7 104.7 4.78
4 -2 8 42.17 2.61
4 -2 8 45.05 3.02
4 -2 8 52.36 2.61
-4 2 -8 50.46 2.71
4 -2 8 46.92 2.48
4 -2 8 46.75 2.92
4 -2 9 0.88 0.36
4 -2 9 1.9 0.57
-4 2 -9 1.38 0.47
4 -2 9 1.32 0.4
4 -2 9 1.32 0.53
4 -2 10 26.94 1.91
-4 2 -10 24.72 1.65
4 -2 10 26.04 1.81
-4 2 -11 11.65 1.13
-4 2 -11 12.13 0.99
4 -2 11 13.06 1.12
4 -2 11 11.2 1.03
-4 2 -12 34.21 1.65
4 -2 12 33.19 1.5
-4 2 -12 36.3 1.52
4 -2 12 34.07 1.5
4 -1 -13 25.45 1.29
4 -1 -13 24.44 1.28
4 -1 -13 22.39 1.19
4 -1 -12 6.03 0.75
4 -1 -12 6.52 0.81
4 -1 -12 7.81 0.86
4 -1 -12 7.31 0.75
4 -1 -12 8.22 0.86
4 -1 -11 13.09 1.24
4 -1 -11 13.8 1.33
4 -1 -11 14.94 1.41
4 -1 -11 13.88 1.22
4 -1 -11 15.06 1.34
4 -1 -11 13.51 1.32
4 -1 -10 12.56 1.37
4 -1 -10 12.92 1.42
4 -1 -10 12.63 1.39
4 -1 -10 11.63 1.37
4 -1 -10 14.84 1.4
4 -1 -10 12.64 1.36
4 -1 -10 13.77 1.31
4 -1 -9 7.02 1.03
4 -1 -9 6.26 1.01
4 -1 -9 6.49 1.04
4 -1 -9 6.34 1.11
4 -1 -9 6.27 1.13
4 -1 -9 6.02 0.94
4 -1 -9 6.93 1.08
4 -1 -9 6.57 0.99
4 -1 -9 6.09 1.16
4 -1 -8 14.04 1.62
4 -1 -8 16.3 1.67
4 -1 -8 14.96 1.74
4 -1 -8 12.66 1.62
4 -1 -8 16.99 1.69
4 -1 -8 14.77 1.75
4 -1 -8 16.2 1.68
4 -1 -8 16.35 1.74
4 -1 -8 16.38 1.65
4 -1 -8 15.68 1.57
-4 1 7 1.57 0.82
4 -1 -7 2.46 0.73
4 -1 -7 2.75 0.79
4 -1 -7 3.23 0.75
4 -1 -7 1.63 0.46
-4 1 7 2.42 1.24
4 -1 -7 3.65 0.77
4 -1 -7 2.68 0.72
4 -1 -7 3.16 0.72
4 -1 -7 2.52 0.7
4 -1 -7 2.54 0.73
4 -1 -6 19.99 2.15
4 -1 -6 21.07 1.96
4 -1 -6 24.42 2.12
4 -1 -6 24.24 2.25
4 -1 -6 23.7 1.86
-4 1 6 16.65 2.51
-4 1 6 22.99 3.18
4 -1 -6 26.33 1.94
4 -1 -6 26.04 2.16
4 -1 -6 23.6 2.02
4 -1 -6 25.68 2.01
4 -1 -6 23.95 1.92
4 -1 -6 22.09 1.74
4 -1 -5 9.13 1.2
-4 1 5 5.87 1.38
4 -1 -5 6.12 1.47
-4 1 5 6.09 1.52
4 -1 -5 6.4 0.93
4 -1 -4 121.97 6.37
-4 1 4 119.6 6.68
-4 1 4 117.95 5.98
-4 1 3 59.03 4.29
-4 1 3 61.41 3.95
4 -1 -2 156.57 6.56
4 -1 -2 156.34 6.81
-4 1 2 143.37 6.69
4 -1 -1 25.11 2.34
4 -1 -1 26.27 2.63
-4 1 1 22.05 2.26
4 -1 0 1434.17 30.7
4 -1 0 1497.61 32.53
-4 1 0 1472.26 30.73
4 -1 1 78.4 4.34
4 -1 1 83.33 5.15
-4 1 -1 88.14 4.24
-4 1 -2 15.04 1.84
4 -1 2 14.12 1.83
4 -1 2 13.51 2.13
-4 1 -2 13.97 1.61
-4 1 -3 6.38 1.27
4 -1 3 5.67 1.48
4 -1 3 5.38 1.17
-4 1 -4 3.71 0.98
4 -1 4 3.35 1.21
4 -1 4 3.76 1.01
4 -1 5 12.02 1.38
4 -1 5 12.48 1.37
4 -1 5 12.7 1.46
-4 1 -5 12.8 1.98
4 -1 5 13.45 1.46
4 -1 5 12.47 2.36
4 -1 5 10.39 1.88
4 -1 6 109.09 4.29
-4 1 -6 100.73 4.3
4 -1 6 99.97 4.45
-4 1 -6 107.13 6.34
4 -1 6 105.7 4.36
4 -1 6 114.76 4.95
4 -1 7 158.46 5.31
-4 1 -7 150.35 5.33
4 -1 7 140.05 5.4
-4 1 -7 160.14 8.43
4 -1 7 152.05 5.21
4 -1 7 156.8 6.26
4 -1 7 137.93 5.52
4 -1 8 35.62 2.24
4 -1 8 35.11 2.37
4 -1 8 34.8 2.69
-4 1 -8 32.9 2.3
4 -1 8 31.45 2.06
4 -1 8 30.46 2.37
4 -1 9 86.22 4.24
4 -1 9 83.95 3.46
-4 1 -9 83.1 3.62
4 -1 9 82.87 3.62
4 -1 9 74.21 3.17
4 -1 9 82.95 3.87
4 -1 10 20.91 1.84
-4 1 -10 18.75 1.52
4 -1 10 17.79 1.59
4 -1 11 170.09 5.37
-4 1 -11 155.65 4.78
4 -1 11 159.26 4.99
-4 1 -12 57.94 2.3
4 -1 12 63.62 2.57
4 -1 12 56.11 2.33
-4 1 -13 0.31 0.19
4 -1 13 0.25 0.16
4 -1 13 0.36 0.16
-4 0 13 59.72 2
4 0 -13 65.36 2.3
4 0 -13 60.77 2.06
4 0 -12 12.02 1.08
4 0 -12 11.56 0.94
-4 0 12 12.14 1.01
4 0 -12 14.19 1.14
4 0 -12 12.66 1.13
4 0 -12 12.5 1.07
4 0 -11 9.11 1.09
4 0 -11 10.26 1.14
4 0 -11 9.56 1.16
4 0 -11 8.22 0.99
4 0 -11 10.16 1.06
4 0 -10 39.8 2.52
4 0 -10 40.48 2.51
4 0 -10 39.8 2.64
4 0 -10 39.89 2.44
4 0 -10 41.44 2.49
4 0 -10 38.91 2.49
4 0 -9 2.82 0.71
4 0 -9 3.27 0.8
4 0 -9 1.92 0.58
4 0 -9 1.96 0.67
4 0 -9 3.36 0.92
4 0 -9 3.32 0.72
4 0 -9 3.09 0.76
4 0 -8 48.23 3.11
4 0 -8 50.26 3.1
4 0 -8 59.52 3.38
-4 0 8 51.98 4.29
4 0 -8 47.61 3.43
4 0 -8 52.28 3.07
4 0 -8 57.4 3.15
4 0 -8 58.73 3.43
4 0 -8 56.14 3.18
4 0 -7 8.1 1.22
4 0 -7 7 1.02
4 0 -7 7.61 1.28
-4 0 7 7.75 1.61
4 0 -7 6.73 1.18
4 0 -7 9.44 1.45
4 0 -7 8.38 1.17
4 0 -7 8.97 1.27
4 0 -7 6.46 1.07
4 0 -7 8.35 1.31
4 0 -6 19.36 1.8
4 0 -6 19.72 2.15
4 0 -6 18.52 1.86
4 0 -6 17.17 2.55
-4 0 6 19.68 2.43
4 0 -6 18.97 1.78
4 0 -6 20.94 1.98
4 0 -6 23.81 1.96
4 0 -6 23.49 1.88
4 0 -6 20.51 1.75
4 0 -5 606.08 18.11
-4 0 5 703.39 17.73
4 0 -4 24.4 2.73
4 0 -3 26.13 2.71
4 0 -3 25.67 2.58
-4 0 3 21.5 2.44
4 0 -2 559.86 15.06
4 0 -2 585.04 14.68
4 0 -2 568.73 17.91
4 0 -1 148.01 6.35
4 0 -1 137.42 5.86
4 0 -1 152.28 6.37
-4 0 1 137.78 5.7
4 0 -1 146.93 8.38
4 0 0 4.63 1.61
4 0 0 5.19 1.17
-4 0 0 4.6 0.88
4 0 0 3.02 0.8
-4 0 -1 3606.12 70.73
4 0 1 3713.87 71.15
4 0 1 3853.32 73.4
-4 0 -1 3872.59 69.82
4 0 1 3792.69 76.04
-4 0 -2 102.65 4.84
4 0 2 107.53 6.04
4 0 2 99.87 4.95
4 0 2 111.79 6.75
-4 0 -3 60.79 3.76
4 0 3 59.74 4.66
4 0 3 61.35 3.95
-4 0 -4 29.2 2.7
4 0 4 27.77 2.79
-4 0 -5 109.02 5.76
4 0 5 93.38 5.81
4 0 6 31.35 2.34
4 0 6 28.87 2.11
4 0 6 29.53 2.23
-4 0 -6 31.43 3.26
4 0 6 28.44 2.13
4 0 6 26.08 3.24
4 0 7 128.92 5.46
4 0 7 122.2 4.78
4 0 7 117.4 4.8
-4 0 -7 132.95 7.53
4 0 7 123.6 4.63
4 0 7 109.45 7.37
4 0 7 109.34 4.6
4 0 8 40.29 3.01
-4 0 -8 45.3 2.74
4 0 8 45.75 2.82
4 0 8 53.07 2.84
-4 0 -8 42.88 4.31
4 0 8 44.82 2.51
4 0 8 40.99 4.44
4 0 8 42.12 2.69
4 0 9 4.33 0.99
4 0 9 5.44 0.89
-4 0 -9 4.79 0.88
4 0 9 4.69 0.91
4 0 9 4.34 0.76
4 0 9 4.4 0.83
4 0 10 25.35 2.12
4 0 10 22.46 1.69
-4 0 -10 21.82 1.76
4 0 10 21.31 1.7
4 0 10 22.98 1.84
4 0 11 154.52 5.33
-4 0 -11 152.6 4.82
4 0 11 141.93 4.82
4 0 12 21.83 1.57
-4 0 -12 20.45 1.42
4 0 12 18.68 1.37
4 0 13 0.91 0.23
4 0 13 1.11 0.3
4 0 13 1.45 0.37
4 1 -13 51.34 1.82
-4 -1 13 52.3 2.02
4 1 -13 50.47 1.81
4 1 -12 18.3 1.36
-4 -1 12 15.78 1.03
4 1 -12 14.73 1.09
4 1 -12 17.13 1.32
4 1 -12 14.07 1.11
4 1 -12 15.35 1.16
-4 -1 11 0.63 0.25
4 1 -11 0.16 0.27
4 1 -11 0.59 0.33
4 1 -11 0.4 0.23
4 1 -11 0.39 0.38
4 1 -11 0.23 0.3
4 1 -10 2.08 0.61
4 1 -10 1.93 0.56
4 1 -10 2.2 0.64
4 1 -10 2.65 0.71
4 1 -10 2.7 0.61
4 1 -9 5.55 0.97
4 1 -9 4.51 0.91
4 1 -9 4.8 0.92
4 1 -9 5.43 1.07
4 1 -9 5.48 0.93
4 1 -8 8.4 1.26
4 1 -8 8.02 1.36
4 1 -8 9.34 1.27
4 1 -8 9.66 1.26
-4 -1 8 9.48 1.8
4 1 -8 9.43 1.45
4 1 -8 10.18 1.27
4 1 -8 10.29 1.41
4 1 -8 10.93 1.39
4 1 -7 16.81 1.85
4 1 -7 15.35 1.75
4 1 -7 16.52 1.76
4 1 -7 16.51 1.67
4 1 -7 18.57 2.85
-4 -1 7 17.15 2.35
4 1 -7 15.13 1.79
4 1 -7 17.69 1.68
4 1 -7 17.11 1.75
4 1 -7 17.8 1.78
4 1 -6 0.27 0.4
4 1 -6 0.75 0.48
4 1 -6 0.5 0.28
4 1 -6 0.45 0.41
4 1 -6 0.26 0.39
-4 -1 6 0.29 0.35
4 1 -6 0.06 0.29
4 1 -6 0.51 0.31
4 1 -6 0.33 0.32
4 1 -6 0.51 0.34
4 1 -5 36.33 3.75
-4 -1 5 46.49 3.58
4 1 -4 2.08 0.79
4 1 -4 2.09 0.85
-4 -1 4 1.75 0.73
4 1 -3 214.37 8.53
-4 -1 3 199.57 7.43
4 1 -3 221.82 8.13
4 1 -3 194.88 9.08
4 1 -2 78.7 4.54
-4 -1 2 76.45 4.01
4 1 -2 75.67 4.2
4 1 -2 78.67 5.58
4 1 -1 154.66 6.54
4 1 -1 173.14 6.48
4 1 -1 156.68 8.61
4 1 0 123.42 5.54
-4 -1 0 110.69 4.69
4 1 0 117.46 5.2
-4 -1 0 102.73 4.34
4 1 0 104.7 6.59
4 1 1 125.32 5.48
-4 -1 -1 116.36 4.92
4 1 1 123.65 5.34
-4 -1 -1 114.02 4.18
4 1 1 123.06 6.98
-4 -1 -2 441.25 11.84
4 1 2 450.17 12.41
4 1 2 459.44 14.85
-4 -1 -3 36.78 2.81
4 1 3 37.4 3.02
4 1 3 37.97 3.65
-4 -1 -4 14.81 1.9
4 1 4 16.27 2.13
4 1 4 18 2.47
-4 -1 -5 865.84 20.95
4 1 5 884.17 22.15
-4 -1 -6 1.01 0.74
4 1 6 0.73 0.63
4 1 7 4.31 1.02
4 1 7 2.68 0.69
4 1 7 2.08 0.63
-4 -1 -7 4.22 1.39
4 1 7 2.34 0.59
4 1 7 2.48 1.06
4 1 8 91.52 4.64
4 1 8 111.53 4.46
4 1 8 102.01 4.37
-4 -1 -8 91.57 6.29
4 1 8 95.27 3.96
4 1 8 97.4 4.12
4 1 9 4.31 0.91
4 1 9 4.22 0.85
4 1 9 4.68 1.05
4 1 9 3.46 0.67
4 1 9 4.84 0.84
4 1 10 33.4 2.46
4 1 10 27.49 2.02
-4 -1 -10 33.85 2.27
4 1 10 27.3 1.79
4 1 10 33.4 2.22
4 1 10 30.63 2.1
4 1 11 12.73 1.42
4 1 11 12.2 1.16
-4 -1 -11 11.57 1.23
4 1 11 11.02 1.17
4 1 11 12.23 1.25
4 1 12 5.95 0.89
-4 -1 -12 7.27 0.9
4 1 12 5.98 0.77
4 1 12 6.87 0.85
4 1 13 4.77 0.67
-4 -1 -13 4.87 0.63
4 1 13 3.47 0.47
-4 -1 -13 4.21 0.51
4 1 13 4.43 0.59
-4 -1 -14 12.42 0.76
4 1 14 13.3 0.84
4 2 -13 39.61 1.59
4 2 -13 44.35 1.7
4 2 -12 98.27 3.24
-4 -2 12 80.97 3
4 2 -12 99.59 3.29
4 2 -12 83.38 2.9
4 2 -11 10.15 1.14
4 2 -11 9.3 0.93
4 2 -11 9.82 1.11
4 2 -11 9.21 0.99
4 2 -11 9.91 1.1
4 2 -10 0.58 0.38
4 2 -10 -0.16 0.32
4 2 -10 0.44 0.33
4 2 -10 0.51 0.49
4 2 -10 0.48 0.29
4 2 -9 338.02 9.64
4 2 -9 347.24 9.92
4 2 -9 362.2 9.31
4 2 -9 346 9.71
4 2 -9 346.31 9.24
4 2 -8 115.87 5.35
4 2 -8 115.2 4.66
4 2 -8 116.38 7.41
-4 -2 8 111.12 6.61
4 2 -8 110.19 4.98
4 2 -8 123.32 5.14
4 2 -8 121.63 4.73
4 2 -8 132.78 5
4 2 -7 19.28 1.99
4 2 -7 17.08 1.95
4 2 -7 17.54 1.75
4 2 -7 20.64 3.14
-4 -2 7 18.13 2.54
4 2 -7 18.06 1.95
4 2 -7 19.55 1.77
4 2 -7 21.15 1.94
4 2 -7 23.47 2.01
4 2 -6 136.39 5.46
4 2 -6 122.28 5.16
4 2 -6 116.05 5.02
4 2 -6 122.78 7.98
-4 -2 6 116.53 6.39
4 2 -6 122.02 5.15
4 2 -6 132.05 4.97
4 2 -6 141.7 5.25
4 2 -6 141.61 5.29
4 2 -5 79.69 5.99
-4 -2 5 85.82 5.12
4 2 -4 15.23 2.37
-4 -2 4 14.32 2.04
4 2 -4 16.66 2.25
4 2 -3 2.68 1.12
4 2 -3 1.41 0.68
-4 -2 3 2.36 0.83
4 2 -3 2.59 0.83
4 2 -2 15.56 2.1
-4 -2 2 15.93 1.54
4 2 -2 14.76 1.77
4 2 -2 16.28 2.51
4 2 -1 3.4 1.18
4 2 -1 4.87 1.13
-4 -2 1 3.49 0.77
-4 -2 1 2.72 0.65
4 2 -1 2.95 0.81
4 2 0 51.76 3.38
-4 -2 0 50.08 2.89
4 2 0 54.05 3.3
4 2 0 44.02 4.33
4 2 1 530.22 13.56
-4 -2 -1 511.52 12.81
4 2 1 513.94 13.43
4 2 1 506.43 16.41
4 2 2 168.32 6.55
-4 -2 -2 179.13 6.43
4 2 2 184.03 6.92
4 2 2 184.94 8.66
-4 -2 -3 47.95 3.22
4 2 3 51.84 3.56
4 2 3 50.2 4.14
-4 -2 -4 1501.09 31.87
4 2 4 1491.31 32.66
4 2 4 1427.99 33.32
-4 -2 -5 96.38 5.5
4 2 5 101.54 5.94
4 2 5 84.88 5.31
-4 -2 -6 254.27 10.22
4 2 6 270.52 11.13
4 2 7 28.89 2
4 2 7 27.49 2.11
-4 -2 -7 29.02 3.3
4 2 7 34.92 4.21
4 2 7 31.78 2.39
4 2 8 0.24 0.43
4 2 8 0.75 0.58
4 2 8 0.1 0.32
4 2 8 0.07 0.29
-4 -2 -8 1.27 0.93
4 2 8 0.39 0.35
4 2 8 1.55 1.21
4 2 9 333.34 10.17
4 2 9 379.15 9.82
4 2 9 381.64 9.75
-4 -2 -9 356.15 13.38
4 2 9 333.35 9.07
4 2 9 345.81 9.21
4 2 10 191.13 6.62
4 2 10 192.1 6.19
4 2 10 181.08 5.58
4 2 10 188.74 5.98
4 2 10 187.56 6.08
4 2 11 1.66 0.59
4 2 11 1.53 0.44
-4 -2 -11 2.09 0.61
4 2 11 1.96 0.59
4 2 11 1.53 0.51
4 2 12 48.18 2.55
-4 -2 -12 47.31 2.41
4 2 12 51.73 2.44
4 2 12 47.35 2.33
4 2 13 10.04 0.97
-4 -2 -13 11.91 0.99
4 2 13 10.06 0.88
4 2 13 11.2 0.95
4 2 14 1.4 0.31
-4 -2 -14 1.44 0.27
4 2 14 1.17 0.23
-4 -2 -14 1.52 0.29
4 2 14 1.36 0.26
4 3 -13 13.42 0.78
4 3 -12 41.31 1.88
-4 -3 12 33.4 1.61
4 3 -12 41.21 1.78
4 3 -12 33.89 1.55
-4 -3 11 10.18 1.02
4 3 -11 12.55 1.15
4 3 -11 11.04 1.02
4 3 -11 13.07 1.21
4 3 -10 9.23 1.17
4 3 -10 11.12 1.25
4 3 -10 10.58 1.14
4 3 -9 224.8 7.02
4 3 -9 208.51 6.18
4 3 -9 224.82 7.2
4 3 -9 203.22 6.69
4 3 -9 206.1 6.46
4 3 -8 12.55 1.54
4 3 -8 10.95 1.25
4 3 -8 10.67 1.5
4 3 -8 13.04 1.5
4 3 -8 12.06 1.36
4 3 -7 12.5 1.55
4 3 -7 11.19 1.66
4 3 -7 11.21 1.33
-4 -3 7 12.72 2.27
4 3 -7 15.67 2.89
4 3 -7 11.33 1.51
4 3 -7 13.54 1.49
4 3 -6 53.18 3.32
4 3 -6 51.59 3.3
4 3 -6 43.63 2.81
4 3 -6 47.64 5.13
-4 -3 6 50.19 4.36
4 3 -6 49.45 3.12
4 3 -6 54.55 3.05
4 3 -6 58.22 3.23
4 3 -5 393.64 10.35
4 3 -5 375.43 10.16
4 3 -5 367.41 10.08
4 3 -5 355.79 14.78
-4 -3 5 350.39 12.8
4 3 -5 373.5 9.99
4 3 -5 382.73 10.1
4 3 -5 419.33 10.65
4 3 -4 39.19 4.12
4 3 -4 36.34 3.46
4 3 -3 15.87 2.4
4 3 -3 14.94 1.83
-4 -3 3 18.05 1.87
4 3 -3 14.33 2.28
4 3 -2 1.1 0.75
-4 -3 2 1.89 0.63
4 3 -2 0.78 0.42
4 3 -1 488.25 13.95
-4 -3 1 496.13 12.63
4 3 -1 469.21 12.78
4 3 -1 474.01 16.34
4 3 0 0.71 0.66
4 3 0 0.53 0.37
-4 -3 0 0.91 0.47
-4 -3 0 0.63 0.4
4 3 0 0.4 0.35
4 3 1 46.19 3.17
-4 -3 -1 54.94 3.28
4 3 1 50.2 3.21
4 3 1 52.48 4.71
4 3 2 20.67 2.04
-4 -3 -2 21.92 2.14
4 3 2 24.18 2.28
4 3 2 24 3.03
4 3 3 9.37 1.81
4 3 3 8.13 1.37
-4 -3 -3 10.72 1.61
4 3 3 7.86 1.38
-4 -3 -4 27.87 2.85
4 3 4 30.92 2.93
4 3 4 28.35 3.13
4 3 5 7.12 1.56
-4 -3 -5 11.21 1.95
4 3 5 7.41 1.59
-4 -3 -6 83.22 5.5
4 3 6 100.82 6.49
4 3 6 88.71 5.44
-4 -3 -7 1.22 0.44
4 3 7 0.45 0.27
4 3 7 0.74 0.32
4 3 7 0.64 0.4
4 3 7 0.39 0.29
-4 -3 -7 -0.34 0.55
4 3 7 0.53 0.8
4 3 8 339.03 10
-4 -3 -8 298.84 8.53
4 3 8 338.95 9.02
4 3 8 334.32 9.19
4 3 8 335.59 9.02
-4 -3 -8 324.98 12.51
-4 -3 -9 268.04 7.66
4 3 9 253.57 8.47
4 3 9 264.21 8.12
4 3 9 285.72 8.02
4 3 9 260.45 7.76
-4 -3 -9 267.59 11.14
4 3 9 266.25 7.41
-4 -3 -10 46.87 2.49
4 3 10 48.99 2.71
4 3 10 48.23 2.76
4 3 10 40.77 2.36
4 3 10 43.03 2.84
4 3 10 43.41 2.46
4 3 11 0.65 0.36
-4 -3 -11 1.63 0.46
4 3 11 1.52 0.52
4 3 11 0.53 0.26
4 3 11 1.42 0.42
4 3 12 0 0.19
-4 -3 -12 0.24 0.23
4 3 12 0.33 0.33
4 3 12 0.32 0.24
4 3 13 -0.14 0.26
-4 -3 -13 0.06 0.21
4 3 13 -0.21 0.27
4 3 13 0.26 0.18
4 3 14 7.89 0.63
-4 -3 -14 8.04 0.61
-4 -3 -14 10.43 0.78
4 3 14 8.35 0.64
4 3 14 8.21 0.65
4 4 -12 4.26 0.52
4 4 -12 3.1 0.35
4 4 -11 27.01 1.46
4 4 -11 24.51 1.42
4 4 -10 42.68 2.42
4 4 -10 41.11 2.19
4 4 -10 39.45 2.14
4 4 -9 0.78 0.38
4 4 -9 1.42 0.49
4 4 -9 1.14 0.49
4 4 -8 220.45 7.38
4 4 -8 210.13 6.82
4 4 -8 229.19 6.9
4 4 -7 150.42 6.2
4 4 -7 154.74 5.21
4 4 -7 156.83 5.64
4 4 -7 140.8 5.59
4 4 -6 163.77 5.72
4 4 -6 160.95 6.23
4 4 -6 201.69 11.14
-4 -4 6 176.2 9.22
4 4 -6 183.27 6.42
4 4 -6 186.16 6.28
4 4 -6 182.23 6.73
4 4 -5 705.02 16.07
4 4 -5 644.67 15.4
4 4 -5 633.35 15.5
4 4 -5 690.59 23.42
4 4 -5 694.38 15.75
4 4 -5 693.94 15.87
4 4 -4 -0.44 0.42
4 4 -4 0.39 0.31
4 4 -4 -0.03 0.87
-4 -4 4 -0.06 0.41
4 4 -4 0.12 0.36
4 4 -4 1.13 0.43
4 4 -3 102.47 6.76
-4 -4 3 114.99 5.42
4 4 -3 102.94 6.43
4 4 -2 403.16 13.91
4 4 -2 427.08 11.82
-4 -4 2 441.27 12.16
4 4 -2 425.32 15.06
4 4 -1 571.19 16.11
-4 -4 1 567.34 14.8
4 4 -1 566.32 14.3
4 4 -1 575.4 18.95
4 4 0 31.15 2.84
-4 -4 0 31.32 2.62
4 4 0 28.37 2.38
4 4 0 30.91 3.9
4 4 1 133.22 5.89
-4 -4 -1 148.4 6.19
4 4 1 144.94 5.81
4 4 1 142.22 8.35
4 4 2 59.87 3.6
4 4 2 60.82 3.76
4 4 2 66.49 5.38
4 4 3 0.34 0.61
4 4 3 0.42 0.41
-4 -4 -3 0.92 0.65
4 4 3 0.52 0.45
-4 -4 -4 0.58 0.47
4 4 4 0.28 0.3
-4 -4 -5 260.84 10.21
4 4 5 270.88 10.24
4 4 5 248.27 10.45
4 4 6 9.91 1.38
4 4 6 9.2 1.79
-4 -4 -6 11.24 2.02
4 4 6 10.17 1.99
4 4 7 0.42 0.28
4 4 7 0.57 0.38
4 4 7 0.13 0.31
4 4 7 0.54 0.4
-4 -4 -7 0.27 0.46
4 4 7 0.76 0.63
-4 -4 -8 37.21 2.4
4 4 8 38.17 2.64
4 4 8 41.45 2.48
4 4 8 37.44 2.51
4 4 8 38.61 2.55
-4 -4 -8 34.37 3.68
4 4 8 42.81 5.04
-4 -4 -9 3.28 0.78
4 4 9 4.14 0.9
4 4 9 4.12 0.88
4 4 9 4.76 0.87
-4 -4 -10 2.91 0.7
-4 -4 -10 2.65 0.61
4 4 10 5.06 0.88
4 4 10 2.77 0.67
4 4 10 3.69 0.7
-4 -4 -11 8.8 1.01
4 4 11 6.69 0.95
-4 -4 -11 5.77 0.89
4 4 11 7.32 1.04
4 4 11 8.06 0.94
4 4 11 7.95 0.96
4 4 12 20.59 1.5
-4 -4 -12 27.13 1.59
-4 -4 -12 21.57 1.57
4 4 12 25.08 1.66
4 4 12 20.85 1.42
-4 -4 -13 36.42 1.61
4 4 13 30.52 1.53
-4 -4 -13 32.02 1.59
4 4 13 36.11 1.79
4 4 13 35.34 1.53
4 4 13 31.27 1.57
4 4 14 4.74 0.51
-4 -4 -14 6.11 0.59
4 4 14 4.74 0.45
4 5 -11 3.95 0.53
4 5 -11 2.9 0.4
4 5 -10 0.34 0.27
4 5 -10 0.43 0.24
4 5 -9 2.39 0.62
4 5 -9 1.58 0.39
4 5 -9 2.06 0.5
4 5 -9 1.55 0.47
4 5 -8 0.7 0.36
4 5 -8 0.91 0.44
4 5 -8 0.87 0.39
4 5 -8 1.92 0.55
4 5 -7 1.47 0.58
4 5 -7 1.15 0.57
4 5 -7 1.59 0.54
4 5 -7 0.93 0.39
4 5 -6 1.26 0.53
4 5 -6 2.18 0.79
4 5 -6 1.36 0.52
4 5 -6 2.16 0.62
4 5 -5 80.16 3.98
4 5 -5 68.91 3.79
4 5 -5 78.62 7.42
4 5 -5 75.91 3.65
4 5 -5 79.27 3.9
4 5 -4 30.37 2.22
4 5 -4 33.28 2.24
4 5 -4 35.72 2.47
4 5 -4 31.66 4.43
4 5 -4 31.67 2.15
4 5 -4 34.32 2.52
4 5 -3 2.6 1.02
4 5 -3 2.48 0.55
4 5 -3 2.73 0.58
4 5 -3 3.75 0.75
4 5 -3 1.42 0.81
-4 -5 3 2.25 0.92
4 5 -3 2.42 0.61
4 5 -3 2.31 0.63
4 5 -2 0.98 0.71
4 5 -2 0.96 0.65
-4 -5 2 0.63 0.56
4 5 -1 198.19 8.86
-4 -5 1 227.18 8.28
4 5 -1 214.37 11.06
4 5 0 57.71 4.11
-4 -5 0 63.94 4.07
4 5 0 61.14 6.03
4 5 1 95.54 5.07
-4 -5 -1 107.47 5.53
4 5 1 110.56 4.84
4 5 1 93.11 7.31
4 5 2 193.19 7.19
-4 -5 -2 202.31 8.16
4 5 2 200.72 7.22
4 5 2 199.18 10.52
4 5 3 1 1
-4 -5 -3 0.79 0.64
4 5 3 1.27 0.57
-4 -5 -4 152.82 7.41
4 5 4 147.79 6.74
4 5 4 149.04 8.41
4 5 5 1.81 0.92
4 5 5 2.03 0.5
4 5 5 1.55 0.57
4 5 5 2.09 0.53
-4 -5 -5 2.7 1.05
4 5 5 2.9 0.98
4 5 6 15.99 1.39
4 5 6 14.36 2.42
4 5 6 14.54 1.59
4 5 6 18.69 1.86
4 5 6 15.68 1.44
-4 -5 -6 17.53 2.45
4 5 6 15.96 2.42
4 5 6 13.89 1.58
4 5 7 70.64 3.13
4 5 7 61.17 3.39
4 5 7 64.3 3.26
-4 -5 -7 70.5 5.23
4 5 7 63.55 3.59
4 5 7 61.97 5.36
4 5 7 73.77 3.69
-4 -5 -8 4.41 0.91
4 5 8 4.83 0.99
4 5 8 4.78 0.89
4 5 8 3.71 0.81
4 5 8 4.88 0.88
-4 -5 -8 4.22 1.33
4 5 8 6.18 2.04
-4 -5 -9 6.58 1.08
-4 -5 -9 7.22 1.13
4 5 9 5.81 0.93
4 5 9 6.26 1.04
-4 -5 -10 275.12 8.01
-4 -5 -10 266.14 7.81
4 5 10 274.48 7.64
4 5 10 261.81 7.91
4 5 10 254.67 7.01
-4 -5 -11 0.1 0.18
4 5 11 0.27 0.27
4 5 11 0.38 0.35
-4 -5 -11 0.01 0.29
4 5 11 0.2 0.27
-4 -5 -12 33.22 1.83
-4 -5 -12 28.67 1.73
-4 -5 -12 28.14 1.65
4 5 12 31.87 1.85
4 5 12 25.45 1.52
-4 -5 -13 161.73 4.15
4 5 13 161.67 4.14
4 5 13 163.78 4.36
4 5 14 0.76 0.21
-4 -5 -14 0.76 0.23
-4 -6 11 5.67 0.52
4 6 -10 2.3 0.39
4 6 -10 2.28 0.36
4 6 -9 71.65 2.64
4 6 -9 71.9 2.82
4 6 -9 67.14 2.57
4 6 -9 67.01 2.68
4 6 -8 4.84 0.81
4 6 -8 4.73 0.73
4 6 -8 3.79 0.71
4 6 -8 4.72 0.75
4 6 -7 2.65 0.71
4 6 -7 2.26 0.56
4 6 -7 2.8 0.69
4 6 -7 2.97 0.7
4 6 -6 2.15 0.71
4 6 -6 2.63 0.71
4 6 -6 1.32 0.51
4 6 -6 2.51 0.71
4 6 -5 16.21 1.69
4 6 -5 13.96 1.67
4 6 -5 15.68 1.73
4 6 -5 16.35 1.71
4 6 -4 70.66 3.54
4 6 -4 69.59 3.73
4 6 -4 76.97 3.67
-4 -6 4 81.33 5.69
4 6 -4 72.05 3.79
4 6 -3 19.57 1.71
4 6 -3 21.47 1.89
4 6 -3 21.68 3.51
4 6 -3 22.1 1.81
-4 -6 3 22.07 2.78
4 6 -3 24.23 2.1
4 6 -3 21.82 3.17
4 6 -2 8.39 1.06
4 6 -2 9.09 2.17
4 6 -2 7.03 1.01
4 6 -2 8.1 1.04
4 6 -2 3.35 1.29
-4 -6 2 7.83 1.6
4 6 -2 8.92 1.19
4 6 -1 389.58 9.84
4 6 -1 413.93 11.64
4 6 -1 417.35 10.35
4 6 -1 445.74 10.45
4 6 -1 398.14 14.13
4 6 -1 414.7 10.65
4 6 -1 402.43 10.15
-4 -6 1 440.57 13.44
4 6 -1 465.25 10.73
4 6 -1 430.06 17.21
4 6 0 15.93 1.34
4 6 0 19.06 1.59
4 6 0 16.43 2.11
4 6 0 18.62 1.58
4 6 0 22.27 3.81
4 6 0 17.61 2.39
4 6 0 15.91 1.37
-4 -6 0 19.98 2.41
4 6 0 19.07 1.53
4 6 1 10.96 1.71
4 6 1 13.96 1.31
4 6 1 11.93 2.84
4 6 1 12.87 1.21
-4 -6 -1 13.76 2.06
4 6 1 14.48 1.29
4 6 1 12.63 1.16
4 6 2 39.9 3.14
4 6 2 37.81 2.16
4 6 2 37.02 2.11
-4 -6 -2 39.64 3.52
4 6 2 37.15 2.06
4 6 2 42.49 5.15
4 6 3 44.01 3.27
4 6 3 44.56 2.36
4 6 3 42.16 2.3
-4 -6 -3 44.51 3.83
4 6 3 40.44 2.22
4 6 3 50.2 5.27
4 6 4 4.71 0.77
4 6 4 3.48 0.99
4 6 4 4.07 1.6
4 6 4 2.85 0.62
4 6 4 3.42 0.63
-4 -6 -4 2.31 0.9
4 6 5 8.3 0.98
4 6 5 8.41 1.39
4 6 5 6.65 1.78
4 6 5 7.6 1.03
-4 -6 -5 7.78 1.74
4 6 5 7.08 1.11
4 6 6 1.58 0.58
4 6 6 -0.36 0.67
-4 -6 -6 0.7 0.25
4 6 6 -0.01 0.56
4 6 6 1.19 0.48
-4 -6 -6 0.13 0.45
4 6 6 0.46 0.3
4 6 7 0.73 0.56
-4 -6 -7 1.62 0.43
-4 -6 -7 1.23 0.44
4 6 7 0.93 0.62
4 6 7 0.73 0.36
4 6 7 1.44 0.49
-4 -6 -7 1.15 0.94
-4 -6 -8 258.46 7.56
4 6 8 215.52 7.4
-4 -6 -8 243.84 7.79
4 6 8 229.39 7.3
4 6 8 238.79 7.35
-4 -6 -9 103.03 4.47
-4 -6 -9 107.52 4.64
4 6 9 103.39 4.28
4 6 9 103.51 4.49
4 6 9 109.87 4.27
-4 -6 -10 36.4 2.49
-4 -6 -10 34.02 2.34
4 6 10 32.74 2.14
4 6 10 37.52 2.51
-4 -6 -11 107.49 3.93
-4 -6 -11 89.95 3.6
4 6 11 84.67 3.44
4 6 11 100.3 3.95
4 6 11 84.84 3.08
-4 -6 -12 69.93 2.76
4 6 12 75.9 2.85
4 6 12 68.98 2.54
4 6 12 69.91 2.47
-4 -6 -13 2.62 0.41
4 6 13 3.03 0.43
4 6 13 2.28 0.38
-4 -6 -13 2.62 0.41
-4 -7 10 3.15 0.38
4 7 -9 3.38 0.39
-4 -7 9 3.83 0.54
4 7 -9 3.37 0.45
4 7 -9 2.89 0.42
4 7 -8 20.42 1.25
4 7 -8 20.25 1.37
4 7 -8 18.98 1.25
4 7 -8 20.56 1.35
4 7 -8 21.85 1.4
4 7 -7 0.67 0.25
4 7 -7 1.35 0.44
4 7 -7 0.92 0.42
4 7 -7 1.06 0.36
4 7 -6 80.19 3.71
4 7 -6 85.92 3.71
4 7 -6 88.62 3.72
4 7 -5 40.9 2.49
4 7 -5 41.04 2.82
4 7 -5 47.38 2.91
4 7 -5 40.33 2.59
4 7 -4 83.93 3.66
4 7 -4 79.49 4.01
4 7 -4 78.66 3.88
4 7 -4 78.33 3.88
4 7 -3 181.7 5.82
4 7 -3 183.95 6.41
4 7 -3 192.48 6.36
4 7 -3 195.23 6.65
4 7 -2 0.08 0.25
4 7 -2 0.19 0.27
4 7 -2 0.86 0.44
4 7 -1 221.72 6.97
4 7 -1 218.32 7.59
4 7 -1 213.3 6.78
4 7 -1 209.26 6.62
-4 -7 1 238.82 9.82
4 7 -1 238.75 7.1
-4 -7 1 230.62 6.83
4 7 -1 228.26 12.36
4 7 0 142.01 10.28
4 7 0 131.08 4.9
4 7 0 140.07 4.87
-4 -7 0 151.23 7.44
4 7 0 141.8 5.01
4 7 0 124.9 6.19
4 7 1 17.81 2.4
4 7 1 14.12 1.38
4 7 1 16.83 3.7
4 7 1 14.46 1.38
-4 -7 -1 16.6 2.38
4 7 1 18.63 1.53
4 7 2 408.49 18.9
4 7 2 369.76 12.35
4 7 2 407.13 10
4 7 2 390.05 9.86
-4 -7 -2 429.54 13.93
4 7 2 426.15 9.96
4 7 3 1769.11 36.67
4 7 3 1656.95 33.03
4 7 3 1745.56 33.43
-4 -7 -3 1755.5 38.92
4 7 3 1777.78 45.41
4 7 4 133.43 4.57
4 7 4 150.25 6.31
4 7 4 141.39 4.9
-4 -7 -4 130.72 7.36
4 7 4 136.22 5.12
4 7 4 132.74 9.14
4 7 5 70.18 4.01
-4 -7 -5 69.2 3.09
-4 -7 -5 63.6 3.27
4 7 5 68.49 3.25
-4 -7 -5 60.3 5.07
4 7 5 65.13 3.39
-4 -7 -6 109.48 4.57
4 7 6 116.44 4.47
-4 -7 -6 114.34 4.18
4 7 6 100.97 4.54
4 7 6 107.57 5.05
4 7 7 36.24 2.66
-4 -7 -7 43.33 2.4
-4 -7 -7 39.24 2.65
4 7 7 36.36 2.5
4 7 7 43.4 2.64
4 7 7 38.72 2.66
-4 -7 -8 12.94 1.41
4 7 8 10.74 1.4
-4 -7 -8 13.11 1.27
-4 -7 -8 10.95 1.37
4 7 8 11.13 1.33
4 7 8 11.54 1.36
4 7 8 10.3 1.37
-4 -7 -9 38.91 2.54
4 7 9 32.78 2.34
-4 -7 -9 37.46 2.15
-4 -7 -9 36.5 2.51
4 7 9 35.22 2.23
4 7 9 38.13 2.53
4 7 9 40.39 2.43
-4 -7 -10 97.46 4
-4 -7 -10 84.44 3.69
4 7 10 79.67 3.33
4 7 10 95.17 4.04
-4 -7 -11 8.51 0.93
4 7 11 6.84 0.8
4 7 11 8.4 1.03
-4 -7 -11 8.76 0.99
-4 -7 -12 13.81 0.99
4 7 12 15 1.04
4 7 12 11.5 0.84
4 7 13 66.93 2.12
4 7 13 65.36 2.06
-4 -8 8 7.11 0.68
4 8 -8 6.84 0.61
4 8 -8 5.3 0.47
4 8 -8 6.45 0.56
-4 -8 7 68.97 2.78
4 8 -7 76.69 2.77
4 8 -7 68.12 2.52
4 8 -7 71.04 2.59
-4 -8 6 6.15 0.92
4 8 -6 8.31 0.99
4 8 -6 8.92 0.95
4 8 -6 7.76 0.91
-4 -8 5 1.12 0.46
4 8 -5 1.71 0.55
4 8 -5 1.35 0.4
4 8 -5 1.08 0.35
-4 -8 4 25.3 2.2
4 8 -4 30.19 2.2
4 8 -4 28.49 2.08
-4 -8 3 0.01 0.29
4 8 -3 0.24 0.23
4 8 -3 0.37 0.36
-4 -8 2 20.27 1.82
4 8 -2 21.9 1.95
4 8 -2 22.52 1.87
4 8 -2 23.81 1.97
-4 -8 1 3.93 0.81
4 8 -1 4.18 0.91
4 8 -1 4 0.82
4 8 -1 4.99 0.86
4 8 -1 5.09 0.91
-4 -8 0 194.19 6.05
4 8 0 192.99 6.24
-4 -8 0 189.89 6.22
4 8 0 206.42 6.6
4 8 0 214.65 6.44
4 8 0 219.08 6.58
4 8 0 200.77 7.46
4 8 1 59.2 2.94
4 8 1 58.39 4.06
-4 -8 -1 61.86 3.07
4 8 1 63.42 3.08
4 8 1 65.57 3.12
4 8 2 15.73 2.14
4 8 2 16.48 1.43
-4 -8 -2 15.66 1.49
4 8 2 14.88 1.42
4 8 3 62.19 4.15
-4 -8 -3 58.49 3.01
4 8 3 62.21 3.03
4 8 3 55.92 2.73
4 8 4 1 0.45
4 8 4 0.44 0.52
-4 -8 -4 1.15 0.36
-4 -8 -4 1.34 0.43
4 8 4 0.7 0.4
4 8 5 15.48 1.93
-4 -8 -5 15.53 1.42
-4 -8 -5 16.26 1.58
4 8 5 16.57 1.55
4 8 5 16.23 1.62
4 8 6 180.73 6.92
-4 -8 -6 192.13 5.81
-4 -8 -6 189.79 6.29
4 8 6 191.86 6.12
4 8 6 180.69 6.2
-4 -8 -7 149.04 5.17
4 8 7 136.01 5.43
-4 -8 -7 134.9 5.18
4 8 7 144.56 5.17
-4 -8 -7 149.47 4.88
4 8 7 136.61 5.22
4 8 8 48.79 2.83
-4 -8 -8 48.2 2.47
-4 -8 -8 44.96 2.73
4 8 8 53.31 2.87
-4 -8 -8 49.81 2.74
4 8 8 44.48 2.77
4 8 9 8.96 1.1
-4 -8 -9 9.69 1.03
-4 -8 -9 11.59 1.25
-4 -8 -9 9.88 1.17
4 8 9 9.35 0.99
4 8 9 9.75 1.17
4 8 9 10.22 1.14
-4 -8 -10 64.6 2.74
-4 -8 -10 56.15 2.34
-4 -8 -10 52.32 2.52
4 8 10 45.26 2.12
4 8 10 60.09 2.83
4 8 10 52.43 2.33
-4 -8 -11 9.41 0.87
-4 -8 -11 7.64 0.77
4 8 11 8.2 0.86
-4 -8 -12 1.36 0.31
4 8 12 1.21 0.27
4 8 12 1.02 0.22
4 9 -6 110.26 3.23
4 9 -6 108.08 3.05
-4 -9 5 9.87 0.98
4 9 -5 10.53 1.02
4 9 -5 10.89 0.96
4 9 -5 13.46 1.07
-4 -9 4 6.07 0.86
4 9 -4 6.71 0.9
4 9 -4 6.88 0.87
4 9 -4 6.94 0.85
-4 -9 3 77.63 3.52
4 9 -3 84.75 3.69
4 9 -3 91.5 3.72
4 9 -3 89.63 3.64
-4 -9 2 49.97 2.67
4 9 -2 52.69 2.8
-4 -9 2 46.28 2.58
4 9 -2 53.51 2.78
4 9 -2 57.07 2.94
-4 -9 1 2.95 0.64
4 9 -1 3.6 0.81
4 9 -1 2.69 0.64
-4 -9 1 2.01 0.52
4 9 -1 3.11 0.63
4 9 -1 3.17 0.64
4 9 0 50 3.11
4 9 0 51.3 2.64
-4 -9 0 52.18 2.79
-4 -9 0 51.76 2.56
4 9 0 52.56 2.67
4 9 0 56.3 2.83
4 9 1 42.02 3.1
4 9 1 42.72 2.29
-4 -9 -1 44.56 2.53
4 9 1 50.08 2.78
4 9 1 49.24 2.62
4 9 2 80.45 3.18
4 9 2 85.96 4.8
-4 -9 -2 81.66 3.57
4 9 2 83.24 3.53
4 9 3 3.7 1.03
-4 -9 -3 4.92 0.79
-4 -9 -3 3.35 0.68
4 9 3 3.31 0.64
4 9 4 248.33 8.42
-4 -9 -4 247.58 6.84
-4 -9 -4 241.47 7.05
4 9 4 242.99 6.87
4 9 4 229.56 6.99
4 9 5 44.45 3.06
-4 -9 -5 47.9 2.46
-4 -9 -5 43.32 2.51
4 9 5 43.52 2.44
4 9 5 42.63 2.52
-4 -9 -6 41.25 2.3
4 9 6 40.48 2.75
-4 -9 -6 40.06 2.19
-4 -9 -6 35.44 2.26
4 9 6 41.68 2.35
4 9 6 35.3 2.25
-4 -9 -7 260.6 7.25
4 9 7 274.36 7.84
-4 -9 -7 289.18 7.23
-4 -9 -7 258.8 7.42
4 9 7 291.19 7.53
4 9 7 264.77 7.48
-4 -9 -8 20.23 1.53
4 9 8 17.07 1.44
-4 -9 -8 19.63 1.39
-4 -9 -8 19.21 1.54
4 9 8 20.3 1.55
-4 -9 -9 6.35 0.78
-4 -9 -9 5.35 0.68
-4 -9 -9 5.3 0.73
4 9 9 5.64 0.78
4 9 9 5.65 0.75
4 9 9 5.08 0.68
-4 -9 -10 140.19 3.68
4 9 10 120.16 3.59
-4 -9 -10 129.61 3.41
-4 -9 -10 123.28 3.6
4 9 10 138.06 4
4 9 10 122.6 3.46
-4 -9 -11 21.36 0.97
4 9 11 18.91 1.04
-4 -10 4 87.76 2.71
4 10 -4 96.33 2.8
-4 -10 3 4.54 0.57
4 10 -3 4.43 0.56
-4 -10 3 5.5 0.54
4 10 -3 5.54 0.65
-4 -10 2 15.13 1.16
4 10 -2 17.25 1.24
-4 -10 2 16.52 1.15
4 10 -2 19.77 1.39
-4 -10 1 29.75 1.64
4 10 -1 29.6 1.65
-4 -10 1 27.7 1.65
-4 -10 1 28.46 1.72
4 10 -1 28.1 1.64
-4 -10 0 16.18 1.17
4 10 0 14.57 1.36
-4 -10 0 16.21 1.32
-4 -10 0 15.62 1.28
4 10 0 15.99 1.16
4 10 0 18.57 1.42
4 10 1 42.58 2.68
-4 -10 -1 54.97 2.57
-4 -10 -1 51.08 2.49
4 10 1 46.32 2.23
4 10 1 57.89 2.59
4 10 2 4.93 0.98
-4 -10 -2 5.88 0.81
-4 -10 -2 5.08 0.75
4 10 2 3.87 0.69
4 10 2 4.47 0.69
4 10 3 1.97 0.76
-4 -10 -3 1.33 0.42
-4 -10 -3 1.01 0.34
4 10 3 1.65 0.55
4 10 3 2.74 0.57
-4 -10 -4 3.09 0.57
4 10 4 4.12 0.9
-4 -10 -4 4.51 0.68
-4 -10 -4 4.09 0.66
4 10 4 4.36 0.69
4 10 4 2.51 0.57
-4 -10 -5 6.31 0.78
4 10 5 6.46 1.04
-4 -10 -5 6.88 0.83
-4 -10 -5 6.15 0.81
4 10 5 6.51 0.82
4 10 5 5.75 0.79
4 10 6 -0.09 0.21
-4 -10 -6 0.35 0.3
4 10 6 0.42 0.37
-4 -10 -6 0.53 0.3
-4 -10 -6 0.03 0.21
4 10 6 0.17 0.18
-4 -10 -7 61.99 2.38
4 10 7 59.46 2.7
-4 -10 -7 60.52 2.43
-4 -10 -7 58.23 2.5
4 10 7 66.52 2.61
4 10 7 66.54 2.91
-4 -10 -8 0.6 0.24
4 10 8 0.57 0.28
-4 -10 -8 0.56 0.22
-4 -10 -8 0.84 0.27
4 10 8 0.87 0.32
4 10 8 0.72 0.24
4 10 9 10.26 0.81
4 11 0 203.92 4.98
-4 -11 -1 13.87 0.92
4 11 1 12.62 0.94
4 11 2 12.69 1.07
-4 -11 -2 13.24 0.96
4 11 2 15.13 1.04
-4 -11 -3 136.81 3.87
4 11 3 148.99 3.97
4 11 4 5.14 0.74
-4 -11 -4 5.08 0.58
4 11 4 4.28 0.56
4 11 4 3.93 0.54
4 11 5 8.12 0.86
-4 -11 -5 8.22 0.71
4 11 5 6.47 0.7
4 11 5 7.63 0.7
-4 -11 -6 1.58 0.31
4 11 6 1.65 0.35
4 11 6 1.08 0.25
5 -7 -4 0.41 0.18
5 -7 -4 0.14 0.19
5 -7 -3 31.89 1.55
5 -7 -3 29.78 1.73
5 -7 -2 3.04 0.48
5 -7 -2 2.91 0.6
-5 7 1 1.93 0.37
5 -7 -1 2.19 0.39
5 -7 -1 1.63 0.47
-5 7 0 6.63 0.67
5 -7 0 7.16 0.71
5 -7 0 5.28 0.64
-5 7 -1 -0.1 0.16
5 -7 1 -0.16 0.15
5 -6 -7 2.69 0.43
-5 6 7 2.97 0.41
5 -6 -7 2.38 0.43
5 -6 -7 2.59 0.47
5 -6 -6 0.4 0.22
5 -6 -6 0.09 0.22
5 -6 -5 48.92 2.25
5 -6 -5 41.88 2.35
5 -6 -5 41.7 2.15
5 -6 -4 0.06 0.22
5 -6 -4 -0.06 0.23
5 -6 -4 0.36 0.38
-5 6 3 16.73 1.21
5 -6 -3 19.46 1.42
5 -6 -3 19.09 1.73
5 -6 -3 18.04 1.21
5 -6 -3 19.54 1.33
5 -6 -3 16.93 1.38
-5 6 2 14.85 1.27
5 -6 -2 17.44 1.38
5 -6 -2 18.83 1.4
5 -6 -2 16.32 1.67
5 -6 -2 15.47 1.17
5 -6 -2 17.2 1.31
5 -6 -2 16.57 1.35
-5 6 1 7.75 0.98
5 -6 -1 6.93 0.93
5 -6 -1 7.81 0.91
5 -6 -1 7.87 0.84
5 -6 -1 7.6 0.91
5 -6 -1 7.02 1.15
5 -6 -1 5.91 0.82
5 -6 0 1.57 0.39
-5 6 0 1.89 0.55
5 -6 0 2.06 0.57
5 -6 0 1.77 0.45
5 -6 0 1.98 0.46
5 -6 0 2.45 0.51
5 -6 0 1.85 0.61
-5 6 -1 45.5 2.44
5 -6 1 50.22 2.62
5 -6 1 52.32 2.44
5 -6 1 45.54 2.54
5 -6 1 53.53 2.59
5 -6 1 48.82 2.24
-5 6 -2 8.44 0.96
5 -6 2 5.99 0.85
5 -6 2 7.76 0.91
5 -6 2 7.17 0.85
5 -6 2 7.79 0.94
5 -6 2 7.41 0.79
-5 6 -3 92.33 3.24
5 -6 3 90.55 3.25
5 -6 3 94.57 3.31
5 -6 3 84.01 3.3
5 -6 3 90.14 3.1
-5 6 -4 0.33 0.2
5 -6 4 1.74 0.38
5 -6 4 1.06 0.28
5 -6 4 1.27 0.34
5 -6 4 1.27 0.32
5 -6 5 1.58 0.3
5 -6 5 1.44 0.3
5 -5 -9 16.09 0.98
5 -5 -9 16.04 0.98
5 -5 -9 17.17 1.07
5 -5 -8 1.69 0.42
-5 5 8 1.17 0.27
5 -5 -8 1.72 0.41
5 -5 -8 1.62 0.36
5 -5 -8 0.75 0.28
5 -5 -7 0.63 0.33
5 -5 -7 0.56 0.32
5 -5 -7 0.91 0.36
5 -5 -7 0.23 0.26
5 -5 -6 38.27 2.16
5 -5 -6 34.92 2.35
5 -5 -6 34.76 2.07
5 -5 -6 35.09 1.89
5 -5 -6 33.47 2.11
5 -5 -5 2.9 0.66
5 -5 -5 4.39 0.76
5 -5 -5 3.87 0.72
5 -5 -5 3.07 0.55
5 -5 -5 2.14 0.46
5 -5 -5 2.49 0.69
5 -5 -4 25.41 1.82
5 -5 -4 26.1 2.22
5 -5 -4 23.63 1.64
5 -5 -4 24.4 1.71
5 -5 -4 26.69 1.91
-5 5 3 68.56 3.07
5 -5 -3 71.46 3.13
5 -5 -3 77.1 3.32
5 -5 -3 76.9 4.07
5 -5 -3 72.32 3.09
5 -5 -3 71.61 3.2
5 -5 -3 74.85 3.41
5 -5 -2 0.55 0.39
5 -5 -2 -0.49 0.32
5 -5 -2 -0.08 0.38
5 -5 -2 0.05 0.28
5 -5 -2 -0.11 0.29
5 -5 -2 0.17 0.43
5 -5 -1 20.04 1.72
5 -5 -1 19.79 1.58
5 -5 -1 18.56 2.05
5 -5 -1 18.13 1.59
5 -5 -1 17.94 1.49
5 -5 -1 20.03 1.71
5 -5 0 5.24 0.83
5 -5 0 5.72 1.03
5 -5 0 4.39 0.77
5 -5 0 4.37 0.85
5 -5 0 4.47 0.74
5 -5 0 3.32 0.98
5 -5 1 4.74 0.81
5 -5 1 4.77 0.79
5 -5 1 3.47 0.84
5 -5 1 4.63 0.88
5 -5 1 4.49 0.76
5 -5 1 3.59 0.84
5 -5 2 2.01 0.51
5 -5 2 1.86 0.47
5 -5 2 3.26 0.78
5 -5 2 2.99 0.75
5 -5 2 2.91 0.62
5 -5 2 2.7 0.69
5 -5 3 20.8 1.72
5 -5 3 23.14 1.66
5 -5 3 20.75 1.84
5 -5 3 20.19 1.61
5 -5 3 16.7 1.32
5 -5 4 8.36 1
5 -5 4 7.79 1
5 -5 4 6.96 0.99
5 -5 5 1 0.34
5 -5 5 0.54 0.33
5 -5 5 0.79 0.31
-5 5 -6 1.44 0.34
5 -5 6 0.52 0.23
5 -5 6 1.33 0.41
5 -5 6 0.77 0.28
5 -5 7 253.72 5.58
5 -5 7 253.24 5.8
5 -4 -10 6.18 0.56
5 -4 -10 7.31 0.63
5 -4 -10 6.93 0.68
5 -4 -10 7.83 0.72
5 -4 -9 125.96 3.93
5 -4 -9 128.7 3.98
-5 4 8 9.51 0.92
5 -4 -8 10.01 1.1
5 -4 -8 8.79 1.13
5 -4 -8 9.41 1.05
5 -4 -8 8.58 0.97
5 -4 -8 10.23 1.14
5 -4 -7 41.67 2.39
5 -4 -7 42 2.66
5 -4 -7 41.93 2.43
5 -4 -7 37.95 2.23
5 -4 -7 39.4 2.46
5 -4 -6 102.95 4.1
5 -4 -6 100.11 4.5
5 -4 -6 113.43 4.47
5 -4 -6 91.15 3.84
5 -4 -6 99.3 3.85
5 -4 -6 111.76 4.38
5 -4 -5 9.82 1.3
5 -4 -5 9.32 1.14
5 -4 -5 11.35 1.51
5 -4 -5 9.95 1.3
5 -4 -5 9.04 1.12
5 -4 -5 8.14 1.05
5 -4 -5 9.53 1.22
5 -4 -4 109.47 4.27
5 -4 -4 118.99 5.16
5 -4 -4 112.15 4.87
5 -4 -4 104.87 4.19
5 -4 -4 102.35 4.21
5 -4 -4 118.64 4.53
5 -4 -3 104.21 4.05
5 -4 -3 112.81 4.27
5 -4 -3 115.33 5.23
5 -4 -3 101.77 4.24
5 -4 -3 102.93 4.17
5 -4 -3 119.26 4.53
5 -4 -2 74.61 3.44
5 -4 -2 76.08 3.36
5 -4 -2 77.53 4.3
5 -4 -2 72.88 3.5
5 -4 -2 64.5 3.19
5 -4 -2 78.98 3.57
5 -4 -1 68.28 3.39
5 -4 -1 64.42 3.08
5 -4 -1 64.54 4.04
5 -4 -1 67.94 3.39
5 -4 -1 59.34 3.03
5 -4 -1 65.73 3.29
5 -4 0 34.76 2.2
5 -4 0 37.27 2.53
5 -4 0 30.66 2.86
5 -4 0 35.19 2.45
5 -4 0 30.1 2.09
5 -4 0 31.84 2.24
5 -4 1 201.86 6.97
5 -4 1 211.55 6.92
5 -4 1 196.95 6.24
5 -4 1 209.2 6.5
5 -4 2 0.22 0.33
5 -4 2 0.26 0.39
5 -4 2 0.53 0.45
5 -4 2 0.25 0.26
5 -4 2 0.48 0.49
5 -4 3 59.86 3.35
5 -4 3 66.5 3.69
5 -4 3 63.3 3.22
5 -4 3 57.07 3.03
5 -4 4 43.27 2.6
5 -4 4 45.1 2.69
5 -4 4 39.12 2.81
5 -4 4 45.15 2.71
5 -4 4 35.87 2.25
-5 4 -5 2.04 0.48
5 -4 5 2.87 0.54
5 -4 5 2.1 0.5
5 -4 5 3.14 0.66
5 -4 5 2.97 0.7
5 -4 5 3.47 0.78
-5 4 -6 46.6 2.29
5 -4 6 49.12 2.55
5 -4 6 59.95 2.65
5 -4 6 59.42 2.8
5 -4 6 51.32 2.77
5 -4 7 0.12 0.18
-5 4 -7 0.62 0.2
5 -4 7 0.38 0.22
5 -4 7 0.68 0.24
5 -4 7 0.56 0.28
-5 4 -8 3.18 0.46
5 -4 8 4.2 0.52
5 -4 8 3.78 0.43
5 -4 8 4.23 0.46
5 -4 9 126.41 3.23
5 -3 -11 3.82 0.47
5 -3 -11 4.85 0.55
5 -3 -10 18.56 1.31
5 -3 -10 17.98 1.18
5 -3 -10 19.02 1.33
5 -3 -10 19.71 1.31
5 -3 -9 106.15 4.02
5 -3 -9 107.16 3.83
5 -3 -9 115.51 4.04
5 -3 -9 110.99 4.05
5 -3 -9 113.26 4.11
5 -3 -8 16.62 1.6
5 -3 -8 12.86 1.36
5 -3 -8 16.99 1.53
5 -3 -8 15.01 1.67
5 -3 -8 18.02 1.59
5 -3 -8 16.6 1.55
5 -3 -8 17.8 1.61
5 -3 -7 39.55 2.63
5 -3 -7 45.52 2.68
5 -3 -7 50.61 3.17
5 -3 -7 54.77 2.98
5 -3 -7 50.25 2.86
5 -3 -7 43.77 2.51
5 -3 -7 51.06 2.88
5 -3 -6 8.78 1.15
5 -3 -6 9.41 1.19
5 -3 -6 10.79 1.51
5 -3 -6 10.01 1.33
5 -3 -6 11.63 1.37
5 -3 -6 9.96 1.2
5 -3 -6 11.56 1.33
5 -3 -5 0.37 0.26
5 -3 -5 0.41 0.26
5 -3 -5 0.64 0.37
5 -3 -5 0.44 0.29
5 -3 -5 0.29 0.23
5 -3 -5 -0.17 0.44
5 -3 -4 97.51 4.06
5 -3 -4 100.6 4.9
5 -3 -4 104.36 4.79
5 -3 -4 103.81 4.31
5 -3 -4 106.77 4.32
5 -3 -4 113.3 4.41
5 -3 -3 172.34 6.64
5 -3 -3 181.02 5.74
5 -3 -3 182.47 6.89
5 -3 -3 174.94 5.99
5 -3 -3 183.58 5.92
5 -3 -3 180.77 6
5 -3 -2 77.64 4.09
5 -3 -2 83.2 3.56
5 -3 -2 72.91 3.34
5 -3 -2 81.73 4.41
5 -3 -2 74.89 3.62
5 -3 -2 79.17 3.53
5 -3 -2 79.06 3.57
5 -3 -1 31.25 2.48
5 -3 -1 38.32 2.43
-5 3 1 35.96 3.69
5 -3 -1 37.17 2.98
5 -3 -1 34.22 2.37
5 -3 -1 34.59 2.26
5 -3 -1 35.89 2.32
5 -3 0 170.98 6.28
5 -3 0 156.4 6.88
5 -3 0 177.64 6.12
5 -3 0 165.05 5.68
5 -3 0 177.78 5.83
5 -3 1 248.42 9.36
5 -3 1 277.43 8.27
5 -3 1 254.26 7.59
5 -3 1 275.44 7.89
5 -3 2 71.13 3.47
5 -3 2 77 4.01
5 -3 2 66 4.02
5 -3 2 77.3 3.97
5 -3 2 74.97 3.54
5 -3 2 73.6 3.57
5 -3 3 163.04 6.32
5 -3 3 170.76 5.9
5 -3 3 173.34 6.59
5 -3 3 170.82 5.9
5 -3 3 170.63 5.9
5 -3 4 70.42 3.7
5 -3 4 79.66 3.8
5 -3 4 72.18 4.14
5 -3 4 74.08 3.73
5 -3 4 69.75 3.57
-5 3 -5 111.79 4.29
5 -3 5 118.27 4.87
5 -3 5 126.85 4.82
5 -3 5 103.7 4.94
5 -3 5 130.94 5.15
5 -3 5 101.41 4.33
-5 3 -6 4.07 0.8
5 -3 6 3.02 0.65
5 -3 6 5.23 0.95
5 -3 6 5.65 0.9
5 -3 6 4.15 0.81
5 -3 6 4.21 0.93
-5 3 -7 15.36 1.39
5 -3 7 16.58 1.52
5 -3 7 18.64 1.44
5 -3 7 20.92 1.61
5 -3 7 18.02 1.66
5 -3 7 17.08 1.34
-5 3 -8 9.99 1.02
5 -3 8 10.31 0.93
5 -3 8 13.15 1.04
5 -3 8 11.2 1.17
5 -3 8 12.13 1.16
5 -3 8 10.52 0.86
-5 3 -9 11.32 0.95
5 -3 9 13.66 1.05
5 -3 9 12.41 1.04
5 -3 10 52.87 1.77
5 -3 10 49.49 1.75
-5 2 12 4.37 0.45
5 -2 -12 5.39 0.53
5 -2 -12 4.18 0.46
5 -2 -11 19.79 1.29
5 -2 -11 19.12 1.24
5 -2 -10 84.39 3.37
5 -2 -10 80.71 3.18
5 -2 -10 78.65 2.97
5 -2 -9 9.22 1.2
5 -2 -9 9.31 1.02
5 -2 -9 7.95 1.03
5 -2 -9 9.51 1.21
5 -2 -9 8.17 1.03
5 -2 -8 4.18 0.82
5 -2 -8 4.36 0.94
5 -2 -8 3.3 0.77
5 -2 -8 4.09 0.74
5 -2 -8 4.73 0.86
5 -2 -8 4.48 0.8
5 -2 -8 4.42 0.89
5 -2 -8 3.75 0.81
5 -2 -7 21.17 2.13
5 -2 -7 22.94 2.06
5 -2 -7 22.66 1.87
5 -2 -7 24.38 2.28
5 -2 -7 25.05 2.1
5 -2 -7 23.29 2.04
5 -2 -7 20.99 1.83
5 -2 -7 24.23 1.98
5 -2 -6 5.29 0.92
5 -2 -6 3.53 0.86
5 -2 -6 4.56 0.83
5 -2 -6 5.08 0.96
5 -2 -6 4.36 0.86
5 -2 -6 4.38 0.86
5 -2 -6 2.7 0.81
5 -2 -5 74.41 4.08
5 -2 -5 71.23 3.63
5 -2 -5 76.12 3.49
5 -2 -5 77.03 4.22
5 -2 -5 77.83 3.99
5 -2 -5 80.66 3.77
5 -2 -5 77.71 3.72
5 -2 -5 85.67 3.75
5 -2 -4 39.5 2.82
5 -2 -4 39.94 2.42
5 -2 -4 42.16 3.45
-5 2 4 34.41 3.96
5 -2 -4 41.82 2.41
5 -2 -4 36.43 2.87
5 -2 -4 38.6 2.78
5 -2 -4 38.16 2.49
5 -2 -4 39.48 2.49
5 -2 -4 41.92 2.53
5 -2 -3 93.23 4.31
5 -2 -3 100.79 5.41
-5 2 3 79.18 5.93
5 -2 -3 85.88 3.55
5 -2 -3 93.46 4.63
5 -2 -3 88.05 3.96
5 -2 -3 94.3 3.94
5 -2 -3 93.99 3.85
5 -2 -2 1.02 0.47
5 -2 -2 1.2 0.51
5 -2 -2 0.8 0.48
-5 2 2 1.2 0.78
5 -2 -2 1.92 0.47
5 -2 -2 2.05 0.59
5 -2 -2 1.36 0.41
5 -2 -2 0.51 0.55
5 -2 -1 5.17 0.86
5 -2 -1 6.03 1.02
5 -2 -1 6.01 1.47
5 -2 -1 5.46 0.86
-5 2 1 4.11 1.2
5 -2 -1 5.03 0.88
5 -2 -1 5.27 0.84
5 -2 -1 4.08 0.99
5 -2 0 412.27 10.77
5 -2 0 393.08 12.41
-5 2 0 398.9 13.43
5 -2 0 406.16 15.48
-5 2 0 376.8 12.86
5 -2 0 377.06 11.64
5 -2 0 422.8 10.73
5 -2 0 406.6 10.17
5 -2 0 413.08 10.29
5 -2 1 36.56 2.48
5 -2 1 35.28 3.02
-5 2 -1 37.46 3.49
5 -2 1 35.08 2.32
5 -2 1 38.97 2.65
5 -2 1 37.6 4.3
5 -2 1 36.64 3.04
5 -2 1 36.54 2.49
5 -2 1 32.19 2.17
5 -2 1 36.38 2.3
5 -2 2 -0.26 0.35
5 -2 2 0.24 0.26
5 -2 2 -0.31 0.46
-5 2 -2 -0.09 0.42
5 -2 2 0.26 0.41
5 -2 2 0.7 0.65
5 -2 2 -0.04 0.32
5 -2 2 0.62 0.42
5 -2 2 0.68 0.5
5 -2 3 179.23 6.15
5 -2 3 179.24 5.87
-5 2 -3 192.92 8.62
5 -2 3 194.74 6.83
5 -2 3 197.81 6.26
5 -2 3 175.31 10.11
5 -2 3 183.88 6.59
5 -2 3 180.84 6.13
5 -2 4 77.76 3.82
5 -2 4 72.81 3.39
5 -2 4 78.43 4
5 -2 4 73.34 4.08
5 -2 4 84.69 3.92
5 -2 4 85.07 3.96
5 -2 5 72.67 3.73
5 -2 5 76.35 3.39
5 -2 5 80.75 3.88
5 -2 5 76.73 3.9
5 -2 5 69.17 4.12
-5 2 -6 0.42 0.32
5 -2 6 0.21 0.29
5 -2 6 0.08 0.2
5 -2 6 0.69 0.46
5 -2 6 0.1 0.36
5 -2 6 0.06 0.38
5 -2 7 16.01 1.55
-5 2 -7 17.87 1.64
5 -2 7 20.55 1.94
5 -2 7 20.21 1.54
-5 2 -7 21.21 1.53
5 -2 7 20.6 1.66
5 -2 7 21.95 1.75
5 -2 8 27.14 1.89
-5 2 -8 24.67 1.85
5 -2 8 26.27 2.04
-5 2 -8 25.34 1.66
5 -2 8 26.33 1.72
5 -2 9 36.47 1.83
-5 2 -9 37.03 2.1
5 -2 9 43.63 2.36
-5 2 -9 39.68 1.94
5 -2 9 37.04 1.82
-5 2 -10 4.85 0.67
-5 2 -10 3.25 0.58
5 -2 10 4.59 0.6
5 -2 10 5.19 0.68
-5 2 -11 0.62 0.21
5 -2 11 1.26 0.29
-5 1 12 21.3 1.07
5 -1 -12 19.09 0.99
5 -1 -12 22.34 1.19
5 -1 -12 20.34 1.12
5 -1 -11 22.48 1.47
5 -1 -11 21.95 1.38
5 -1 -11 22.65 1.43
5 -1 -10 1.37 0.45
5 -1 -10 1.53 0.49
5 -1 -10 1.74 0.5
5 -1 -9 156 5.56
5 -1 -9 142.05 5.36
5 -1 -9 159.79 5.36
5 -1 -9 163.53 5.82
5 -1 -9 164.61 5.36
5 -1 -9 155.59 5.1
5 -1 -8 4.45 0.86
5 -1 -8 5.77 0.97
5 -1 -8 4.12 0.96
5 -1 -8 3.04 0.83
5 -1 -8 4.78 0.87
5 -1 -8 3.7 0.87
5 -1 -8 4.59 0.97
5 -1 -7 9.67 1.59
5 -1 -7 8.98 1.25
5 -1 -7 8.34 1.21
5 -1 -7 8.3 1.41
5 -1 -7 9.36 1.29
5 -1 -7 9.99 1.34
5 -1 -7 8.71 1.24
5 -1 -7 10.98 1.29
5 -1 -6 487.35 12.42
5 -1 -6 464.49 12.78
5 -1 -6 378.57 11.72
5 -1 -6 425.96 11.24
5 -1 -6 460.73 12.64
5 -1 -6 485.83 12.12
5 -1 -6 518.09 12.17
5 -1 -6 450.06 11.71
5 -1 -6 500.22 11.61
5 -1 -5 74.68 3.75
5 -1 -5 62.6 3.61
5 -1 -5 70.97 4.12
5 -1 -5 66.78 3.18
5 -1 -5 63.3 3.8
5 -1 -5 66.37 3.61
5 -1 -5 69.09 3.43
5 -1 -5 69.44 3.49
5 -1 -5 66.89 3.19
5 -1 -4 1.96 0.56
5 -1 -4 1.79 0.67
5 -1 -4 1.69 0.57
5 -1 -4 1.23 0.68
-5 1 4 0.82 0.86
5 -1 -4 1.17 0.42
5 -1 -4 1.21 0.49
5 -1 -4 1.31 0.52
5 -1 -4 1.57 0.72
5 -1 -3 13.68 1.46
5 -1 -3 12.5 1.29
5 -1 -3 13.98 1.85
-5 1 3 10.6 2.09
5 -1 -3 12.47 1.64
5 -1 -3 12.32 1.38
5 -1 -3 12.15 1.3
5 -1 -3 12.39 1.24
5 -1 -2 0.4 0.3
5 -1 -2 0.07 0.29
5 -1 -2 0.45 0.7
-5 1 2 -0.05 0.45
5 -1 -2 0.9 0.75
5 -1 -2 0.4 0.21
5 -1 -2 0.1 0.19
5 -1 -2 1 0.54
5 -1 -1 29.11 2.05
5 -1 -1 29.11 2.79
5 -1 -1 26.24 2.88
-5 1 1 25.94 2.8
5 -1 -1 28.14 2.49
5 -1 -1 29.57 2.07
5 -1 -1 27.65 1.89
5 -1 -1 30.49 1.95
5 -1 0 18.29 1.51
5 -1 0 19.74 1.67
5 -1 0 21.33 2.37
-5 1 0 19.42 2.43
5 -1 0 22.08 1.72
5 -1 0 17.63 2.29
5 -1 0 17.25 1.98
5 -1 0 18.49 1.53
5 -1 0 18.07 1.63
5 -1 0 18.74 1.52
5 -1 1 155.84 5.07
5 -1 1 149.34 5.21
5 -1 1 141.85 4.9
5 -1 1 146.77 6.33
-5 1 -1 146.15 7.05
5 -1 1 157.92 5.59
5 -1 1 144.98 7.01
5 -1 1 148.46 8.51
5 -1 1 140.67 6.12
5 -1 1 155.93 5.38
5 -1 1 145.45 4.96
5 -1 2 12.77 1.3
5 -1 2 12.59 1.4
5 -1 2 13.97 1.34
5 -1 2 13.49 1.69
-5 1 -2 11.83 1.92
5 -1 2 14.59 1.67
5 -1 2 9.29 2.08
5 -1 2 11.04 1.85
5 -1 2 13.09 1.45
5 -1 2 14.88 1.39
5 -1 3 31.96 2.23
5 -1 3 33.19 2.27
5 -1 3 35.27 2.34
5 -1 3 34.72 2.44
5 -1 3 33.62 2.59
-5 1 -3 36.35 3.42
5 -1 3 38.5 2.71
5 -1 3 31.29 3.29
5 -1 3 33.71 4.1
5 -1 3 37.46 2.52
5 -1 3 31.66 2.15
5 -1 4 168.93 5.91
5 -1 4 169.1 5.81
5 -1 4 162.14 5.81
-5 1 -4 179.56 8.25
5 -1 4 171.28 6.21
5 -1 4 153.51 5.97
5 -1 5 24.02 2.09
5 -1 5 26.11 2.17
5 -1 5 26.46 2.05
-5 1 -5 24.35 3.08
5 -1 5 27.09 2.23
5 -1 5 22.63 2.12
5 -1 6 1.54 0.53
5 -1 6 0.75 0.37
5 -1 6 0.53 0.37
-5 1 -6 0.88 0.46
5 -1 6 1.7 0.61
-5 1 -7 310.52 8.48
5 -1 7 324.28 9.86
5 -1 7 324.3 8.71
5 -1 8 1.06 0.52
5 -1 8 0.72 0.35
5 -1 8 -0.04 0.41
-5 1 -8 0.59 0.23
5 -1 8 0.65 0.28
5 -1 9 3.22 0.68
5 -1 9 3.02 0.75
5 -1 9 2.89 0.56
-5 1 -9 3.91 0.67
5 -1 9 3.54 0.6
5 -1 10 0.36 0.18
5 -1 10 0.49 0.33
-5 1 -10 0.14 0.17
5 -1 10 0.14 0.13
-5 1 -11 0.37 0.21
5 -1 11 0 0.16
5 -1 11 -0.01 0.21
-5 1 -11 -0.02 0.16
5 -1 11 0.21 0.18
5 -1 12 6.16 0.55
-5 1 -12 5.31 0.49
5 0 -12 18.41 1.09
5 0 -12 18.68 1.11
5 0 -12 19.16 1.11
5 0 -11 35.03 1.88
5 0 -11 30.84 1.79
5 0 -11 33.84 1.81
5 0 -10 81.97 3.52
5 0 -10 90.37 3.72
5 0 -10 85.53 3.44
5 0 -9 136.88 5.16
5 0 -9 153.35 5.41
5 0 -9 146.66 5.6
5 0 -9 149.4 5.16
5 0 -9 147.72 5.2
5 0 -8 39.67 2.81
5 0 -8 42.05 2.86
5 0 -8 34.56 2.8
5 0 -8 44.33 2.71
5 0 -8 47.49 3.02
5 0 -8 44.32 2.84
5 0 -7 119.9 5.45
5 0 -7 111.63 5.07
5 0 -7 130.08 5.09
5 0 -7 139.65 5.38
5 0 -7 119.18 4.96
5 0 -6 71.47 3.78
5 0 -6 58.84 3.79
5 0 -6 64.86 3.7
5 0 -6 61.07 3.39
5 0 -6 68.87 3.98
5 0 -6 66.24 3.51
5 0 -6 67.63 3.54
5 0 -6 57.9 3.27
5 0 -6 67.1 3.15
5 0 -5 3.1 0.68
5 0 -5 2.43 0.83
5 0 -5 3.01 0.79
5 0 -5 0.49 0.97
5 0 -5 2.68 0.61
-5 0 5 2.31 1.22
5 0 -5 2.82 0.75
5 0 -5 6.08 0.98
5 0 -5 3.67 0.84
5 0 -5 3.18 0.71
5 0 -5 1.12 0.4
5 0 -4 53.9 2.94
5 0 -4 50.33 3
5 0 -4 45.23 4.48
5 0 -4 48.43 3.28
5 0 -4 54.58 2.8
-5 0 4 41.21 4.16
5 0 -4 51.38 3.4
5 0 -4 47.15 3
5 0 -4 51.15 2.89
5 0 -4 56.47 2.93
5 0 -4 51.71 2.59
5 0 -3 0.88 0.38
5 0 -3 1.84 0.6
5 0 -3 1.51 0.75
5 0 -3 1.15 0.23
-5 0 3 1.36 0.93
5 0 -3 1.06 0.43
5 0 -3 0.72 0.4
5 0 -3 0.71 0.53
5 0 -3 1.32 0.47
5 0 -2 158.51 5.16
5 0 -2 157.37 6.26
5 0 -2 146.71 7.23
5 0 -2 144.82 5.98
5 0 -2 159.67 5.36
5 0 -2 147.92 4.89
5 0 -1 10.14 1.77
-5 0 1 10.2 1.68
-5 0 0 -0.19 0.37
5 0 0 3.35 1.09
-5 0 -1 -0.08 0.41
5 0 1 0.7 0.73
5 0 1 0.23 0.4
5 0 2 104.08 3.95
-5 0 -2 108.11 5.75
5 0 2 102.56 5.83
5 0 2 97.31 6.68
5 0 3 -0.05 0.22
5 0 3 -0.01 0.25
5 0 3 -0.33 0.34
5 0 3 0.79 0.39
5 0 3 0.91 0.56
-5 0 -3 0.87 0.64
5 0 3 -0.05 0.42
5 0 3 -0.15 0.43
5 0 3 0.3 0.31
5 0 3 0 0.27
5 0 4 80.62 3.72
5 0 4 79.97 3.7
5 0 4 78.4 3.62
5 0 4 88.32 3.94
-5 0 -4 94.04 5.65
5 0 4 78.95 3.96
5 0 4 86.69 5.73
5 0 4 75.74 3.7
5 0 5 3.46 0.68
5 0 5 2.25 0.67
5 0 5 1.68 0.56
-5 0 -5 2.44 1
5 0 5 2.01 0.61
5 0 5 2.75 0.7
5 0 5 2.81 1.05
5 0 6 13.82 1.52
5 0 6 11.83 1.55
-5 0 -6 14.96 2.46
5 0 6 15.78 1.63
5 0 6 11.01 2.29
5 0 6 15.23 1.69
5 0 7 12.57 1.68
5 0 7 14.1 1.49
-5 0 -7 13.02 1.45
5 0 7 11.65 1.47
5 0 7 13.86 1.48
5 0 8 8 1.09
-5 0 -8 8.09 1.16
5 0 8 8.2 1.15
5 0 8 8.15 1.09
5 0 8 7.26 1.27
5 0 9 34.38 2.55
5 0 9 40.18 2.26
-5 0 -9 36.75 2.28
5 0 9 38.77 2.41
5 0 9 35.61 2.09
5 0 10 4.14 0.77
5 0 10 3.33 0.6
-5 0 -10 3.6 0.66
5 0 10 2.96 0.53
5 0 11 19.98 1.36
5 0 11 21.53 1.58
-5 0 -11 20.03 1.35
5 0 12 7.38 0.63
5 0 12 9.84 0.86
-5 0 -12 9.15 0.77
5 1 -12 7.04 0.62
5 1 -12 7.45 0.7
5 1 -12 6.92 0.65
5 1 -11 14.2 1.04
5 1 -11 16.17 1.21
5 1 -11 15.96 1.27
5 1 -11 14.46 1.15
5 1 -10 8.81 0.98
5 1 -10 10.22 1.14
5 1 -10 11.62 1.26
5 1 -10 10.46 1.13
5 1 -9 0.26 0.3
5 1 -9 -0.16 0.43
5 1 -9 0.29 0.35
5 1 -9 0.02 0.28
5 1 -8 11.54 1.51
5 1 -8 12.35 1.54
5 1 -8 11.85 1.52
5 1 -8 11.62 1.66
5 1 -8 13.45 1.44
5 1 -8 13.33 1.59
5 1 -8 12.53 1.49
5 1 -7 12.09 1.6
5 1 -7 10.9 1.37
5 1 -7 11.26 1.55
5 1 -7 10.82 1.62
5 1 -7 12.91 1.48
5 1 -7 12.6 1.55
5 1 -7 12.17 1.5
5 1 -6 35.4 2.47
5 1 -6 32.04 2.35
5 1 -6 32.18 2.75
5 1 -6 34.44 4.13
5 1 -6 34.25 2.62
5 1 -6 32.47 2.38
5 1 -6 30.53 2.33
5 1 -6 32.07 2.42
5 1 -5 192.95 6.13
5 1 -5 166.29 5.76
5 1 -5 199.06 7.05
5 1 -5 147.72 8.73
5 1 -5 188.57 6.58
5 1 -5 186.09 6.32
5 1 -5 208.38 7.45
5 1 -5 181.26 6.37
5 1 -5 177.95 6.08
5 1 -5 172.24 6.16
5 1 -4 0.83 0.41
5 1 -4 0.66 0.3
5 1 -4 0.45 0.42
5 1 -4 1.06 0.61
5 1 -4 0.29 0.4
5 1 -4 0.39 0.29
5 1 -4 0.49 0.43
5 1 -4 0.14 0.28
5 1 -4 0.4 0.57
5 1 -4 0.11 0.31
5 1 -3 98.17 3.75
5 1 -3 88.37 3.82
5 1 -3 88.85 5.98
5 1 -3 89.29 4.23
5 1 -3 76.55 3.45
5 1 -3 97.5 5.85
-5 -1 3 71.16 4.9
5 1 -3 88.29 4.57
5 1 -3 95.1 3.97
5 1 -3 86.86 3.57
5 1 -3 85.6 6.53
5 1 -2 263.34 10.5
5 1 -2 274.81 10.02
5 1 -2 258.68 12.28
5 1 -1 -0.24 0.7
5 1 -1 0.18 0.36
-5 -1 1 0.88 0.61
-5 -1 1 0.13 0.26
5 1 -1 0.08 0.54
5 1 0 119.78 6.45
-5 -1 0 103.9 5.37
5 1 0 123.54 6.06
5 1 0 110.01 8.11
5 1 1 6.84 1.97
-5 -1 -1 6.9 1.37
5 1 1 7.32 1.45
5 1 2 0.82 0.7
-5 -1 -2 0.36 0.37
5 1 2 0.1 0.53
-5 -1 -3 53.1 3.91
5 1 3 50.14 4.04
5 1 3 46.46 4.75
5 1 4 32.19 2.24
5 1 4 28.17 2.04
5 1 4 30.77 2.03
5 1 4 35.69 2.58
5 1 4 34.24 2.27
-5 -1 -4 35.39 3.31
5 1 4 32.44 2.42
5 1 4 33.98 3.46
5 1 5 115.53 4.81
5 1 5 121.08 4.73
5 1 5 115.03 4.46
5 1 5 126.63 5.02
-5 -1 -5 122.35 6.79
5 1 5 131.59 5.17
5 1 5 123.28 7.24
5 1 6 98.41 4.34
5 1 6 111.54 4.73
5 1 6 117.03 4.56
5 1 6 113.36 4.98
-5 -1 -6 117.53 7.07
5 1 6 113.6 4.75
5 1 6 114.26 7.5
5 1 7 26.96 2.01
5 1 7 30.33 2.54
5 1 7 32.19 2.34
5 1 7 26.63 2.25
-5 -1 -7 28.14 3.57
5 1 7 29.81 2.19
5 1 8 170.71 5.82
5 1 8 168.23 6.07
5 1 8 168.08 5.63
5 1 8 149.26 6.41
5 1 9 84.67 4.24
5 1 9 85.47 3.73
-5 -1 -9 93.48 4.01
5 1 9 98.68 4.14
5 1 9 80.58 3.5
5 1 10 8.85 1.2
5 1 10 10.18 1.1
-5 -1 -10 10.13 1.17
5 1 10 10 1.16
5 1 10 8.26 0.92
5 1 11 41.17 2.3
5 1 11 38.6 1.93
-5 -1 -11 43.07 2.18
5 1 11 43.43 2.17
5 1 12 11.72 0.99
-5 -1 -12 10.82 0.95
5 1 13 24.43 1.13
-5 -1 -13 26.75 1.18
5 2 -12 0.39 0.17
5 2 -12 0.48 0.24
5 2 -12 0.73 0.22
5 2 -11 11.7 0.98
5 2 -11 10.91 0.89
5 2 -11 11.27 1.02
5 2 -11 10.1 0.92
5 2 -10 5.09 0.81
5 2 -10 4.54 0.69
5 2 -10 5.03 0.8
5 2 -10 4.54 0.72
5 2 -9 0.47 0.49
5 2 -9 0.34 0.32
5 2 -9 0.38 0.46
5 2 -9 0.26 0.26
5 2 -8 15.25 1.64
5 2 -8 15.34 1.78
5 2 -8 15.1 1.74
5 2 -8 15.99 1.56
5 2 -8 15.47 1.6
5 2 -7 26.64 2.4
5 2 -7 28.23 2.36
5 2 -7 27.66 2.53
5 2 -7 32.2 2.32
5 2 -7 32.42 2.47
5 2 -7 33.49 2.49
5 2 -6 0.79 0.45
5 2 -6 1.28 0.54
5 2 -6 2.11 1.05
5 2 -6 2.23 0.86
5 2 -6 0.94 0.44
5 2 -6 0.76 0.48
5 2 -6 0.7 0.47
5 2 -5 261.85 7.29
5 2 -5 253.39 7.65
5 2 -5 253.55 8.31
5 2 -5 259.44 7.94
5 2 -5 249.84 7.78
5 2 -5 234.18 7.46
5 2 -5 252.42 7.87
5 2 -4 3.79 0.72
5 2 -4 2.56 1.24
5 2 -4 4.23 0.77
5 2 -4 4.99 1.02
5 2 -4 4.77 0.9
5 2 -4 4.56 1.48
5 2 -4 5.05 0.91
5 2 -4 4.46 0.92
5 2 -4 4.12 0.89
5 2 -4 4.37 0.79
5 2 -3 13.48 1.44
5 2 -3 12.01 1.23
5 2 -3 11.48 2.28
5 2 -3 11.88 2.2
5 2 -3 12.44 1.32
5 2 -3 13.23 2.07
5 2 -3 12.11 1.39
5 2 -2 103.96 6.33
5 2 -2 110.98 5.91
5 2 -2 116.4 7.74
5 2 -1 31.13 3.21
-5 -2 1 31.32 2.71
5 2 -1 36.66 3.17
5 2 -1 37.01 4.53
5 2 0 11.66 2.68
5 2 0 11.7 1.88
-5 -2 0 12.46 1.71
5 2 0 14.45 1.98
5 2 1 1.94 1.21
5 2 1 1.56 0.73
-5 -2 -1 1.17 0.56
5 2 1 0.43 0.45
-5 -2 -2 36.79 3.12
5 2 2 41.35 3.44
5 2 2 43.35 4.67
-5 -2 -3 106.7 5.71
5 2 3 103.95 5.88
5 2 3 100.53 7.08
5 2 4 0.39 0.33
5 2 4 -0.15 0.69
5 2 4 -0.08 0.26
-5 -2 -4 0.7 0.59
5 2 4 0.35 0.41
5 2 4 -0.03 0.5
5 2 5 59.1 3.3
5 2 5 60.08 2.97
5 2 5 60.99 3.03
5 2 5 58.08 3.27
5 2 5 64.47 3.45
-5 -2 -5 64.77 4.88
5 2 5 70.19 3.65
5 2 5 69.13 5.31
5 2 5 54.69 4.94
5 2 6 2.87 0.74
5 2 6 1.6 0.65
5 2 6 2.12 0.65
5 2 6 2.65 0.84
-5 -2 -6 3.68 1.42
5 2 6 2.64 0.63
5 2 6 4.71 1.63
5 2 7 2.45 0.68
5 2 7 4.23 0.96
5 2 7 2.64 0.59
5 2 7 1.66 0.63
-5 -2 -7 1.41 0.91
5 2 7 3.1 0.78
5 2 8 116.66 4.69
5 2 8 126.24 5.15
5 2 8 140.08 5.11
5 2 8 149.59 5.39
5 2 8 126.39 5.67
5 2 9 80.43 3.42
5 2 9 79.04 3.71
5 2 9 87.76 3.94
5 2 9 78.34 3.49
5 2 10 318.9 9.02
5 2 10 328.64 8.38
-5 -2 -10 328.97 8.73
5 2 10 327.65 8.68
5 2 10 299.04 7.97
5 2 11 240.98 6.76
5 2 11 233.66 6.13
-5 -2 -11 255.93 6.71
5 2 11 257.07 6.67
5 2 12 45.48 2.12
-5 -2 -12 48.43 2.17
5 2 12 44.1 2.04
5 2 13 53.87 1.91
-5 -2 -13 54.03 1.75
5 3 -12 11.99 0.73
5 3 -12 12.92 0.76
5 3 -11 19.95 1.28
5 3 -11 21.33 1.31
5 3 -11 19.37 1.22
5 3 -10 8.32 1
5 3 -10 9.32 0.89
5 3 -10 9.78 1.06
5 3 -10 9.23 0.97
5 3 -9 0.35 0.31
5 3 -9 0.15 0.21
5 3 -9 0.07 0.44
5 3 -9 0.34 0.24
5 3 -8 41.66 2.92
5 3 -8 41.03 2.5
5 3 -8 41.84 2.78
5 3 -8 43.12 2.57
5 3 -7 321.1 10.49
5 3 -7 345.01 9.74
5 3 -7 347.05 10.63
5 3 -6 20.23 2.12
5 3 -6 20.08 1.98
-5 -3 6 19.11 2.63
5 3 -6 23.33 2.18
5 3 -6 23.01 2
5 3 -6 28.23 2.28
5 3 -5 17.58 1.82
5 3 -5 16.43 1.82
-5 -3 5 15.88 2.37
5 3 -5 14.52 2.86
5 3 -5 16.72 1.74
5 3 -5 14.94 1.63
5 3 -5 18.97 1.83
5 3 -5 16.66 1.8
5 3 -4 200.71 6.52
5 3 -4 211.93 6.92
5 3 -4 204.69 10.59
-5 -3 4 166.36 8.18
5 3 -4 232.2 6.87
5 3 -4 185.24 6.59
5 3 -4 198.09 6.49
5 3 -4 206.11 6.88
5 3 -3 56.18 2.89
5 3 -3 57.53 3.15
5 3 -3 55.23 4.98
5 3 -3 56.32 3.09
-5 -3 3 54.02 4.25
5 3 -3 58.16 2.95
5 3 -3 63.74 4.5
5 3 -3 61.47 3.23
5 3 -3 63.81 3.36
5 3 -3 52.06 4.97
5 3 -2 0.93 0.61
5 3 -2 0.2 0.26
5 3 -2 0.65 0.37
5 3 -2 0.76 0.66
5 3 -2 0.59 0.26
5 3 -2 0.82 0.6
-5 -3 1 846.81 19.84
5 3 -1 824.52 20.41
5 3 -1 826.86 25.6
5 3 0 7.5 1.97
5 3 0 7.29 1.51
-5 -3 0 7.31 1.34
5 3 0 7.28 1.35
5 3 1 -0.32 1.08
5 3 1 0.97 0.5
-5 -3 -1 1.67 0.74
5 3 1 1.95 0.8
-5 -3 -2 896.61 21.73
5 3 2 904.35 21.91
5 3 2 897.45 26.24
5 3 3 3.34 1.3
-5 -3 -3 4.06 1.18
5 3 3 4.62 1.2
5 3 4 14.94 1.53
5 3 4 15.76 2.02
5 3 4 11.88 2.47
5 3 4 12.21 1.21
5 3 4 15.06 1.77
-5 -3 -4 14.66 2.3
5 3 4 15.1 2.29
5 3 4 13.34 1.29
5 3 5 205.91 6.86
5 3 5 207 6.11
5 3 5 193.66 6.52
5 3 5 206.63 7.06
-5 -3 -5 186.43 9.11
5 3 5 236.69 10.13
5 3 5 170.78 9.32
5 3 6 8.82 1.36
5 3 6 8.62 1.8
5 3 6 10.37 1.2
5 3 6 10.38 1.43
5 3 6 11.3 1.41
-5 -3 -6 6.45 1.72
5 3 6 11.33 2.34
5 3 7 26.02 2.26
5 3 7 27.13 2.29
5 3 7 32.9 2.22
-5 -3 -7 24.71 3.25
5 3 7 35.71 2.55
5 3 7 35.54 4.51
5 3 8 17.92 1.76
5 3 8 18.93 1.89
5 3 8 21.34 1.88
5 3 8 19.31 1.86
5 3 8 21.66 1.92
5 3 9 38.47 2.44
5 3 9 34.7 2.67
5 3 9 44.03 2.7
5 3 9 42.08 2.66
5 3 9 42.85 2.53
5 3 10 32.29 2.01
5 3 10 28.87 2.17
5 3 10 28.37 2.02
5 3 10 34.51 2.24
5 3 10 29.44 1.94
5 3 11 200.22 5.44
5 3 11 200.39 6
-5 -3 -11 226.03 6.31
5 3 11 224.12 6.21
5 3 11 204.39 5.63
5 3 11 193.96 5.5
-5 -3 -12 67.01 2.67
5 3 12 68.41 2.66
5 3 13 3.71 0.43
-5 -3 -13 4.97 0.54
5 3 13 3.65 0.48
5 4 -11 36.59 1.61
5 4 -11 32.77 1.42
5 4 -11 32.65 1.46
5 4 -10 7.75 0.89
5 4 -10 8.11 0.86
5 4 -10 7.18 0.8
5 4 -9 24.65 1.87
5 4 -9 22.94 1.42
5 4 -9 24.26 1.73
5 4 -9 23.86 1.69
5 4 -8 2.25 0.73
5 4 -8 1.73 0.48
5 4 -8 2.09 0.6
5 4 -8 2.9 0.69
5 4 -7 296.82 9.46
5 4 -7 306.57 8.39
5 4 -7 300.6 9.02
5 4 -7 324.51 8.79
5 4 -6 0.24 0.4
5 4 -6 0.45 0.26
5 4 -6 0.55 0.3
5 4 -5 178.24 6.44
5 4 -5 163.73 6.02
5 4 -5 158.09 6.08
-5 -4 5 146.68 8.22
5 4 -5 169.51 6.16
5 4 -5 156.22 5.89
5 4 -5 189.17 6.37
5 4 -4 3.09 0.76
5 4 -4 3.28 0.84
5 4 -4 2.62 0.71
5 4 -4 2.63 1.31
-5 -4 4 2.85 1.13
5 4 -4 2.77 0.64
5 4 -4 2.12 0.62
5 4 -4 3.24 0.82
5 4 -3 50.78 2.8
5 4 -3 48.75 2.9
5 4 -3 41.22 2.62
5 4 -3 49.36 4.86
5 4 -3 42.08 2.63
5 4 -3 46.3 2.65
5 4 -3 46.7 2.88
5 4 -3 51.84 3.17
5 4 -3 37.52 4.23
5 4 -2 132.77 4.77
5 4 -2 145.16 5.07
5 4 -2 134.84 4.95
5 4 -2 131.47 7.69
5 4 -2 141.32 5.27
5 4 -2 122.26 4.62
5 4 -2 143.37 6.58
-5 -4 2 148.85 6.58
5 4 -2 144.09 5.06
5 4 -2 148.08 5.61
5 4 -2 127.42 8.39
5 4 -1 11.73 1.21
5 4 -1 13.98 1.37
5 4 -1 13.25 2.77
5 4 -1 12.16 1.28
5 4 -1 12.95 1.49
5 4 -1 10.4 2.02
-5 -4 1 11.99 1.76
5 4 -1 13.19 1.87
5 4 0 186.66 5.61
5 4 0 195.79 5.82
5 4 0 189.96 5.83
-5 -4 0 193.34 7.83
5 4 0 203.4 7.9
5 4 0 184.44 11.28
5 4 1 358.67 8.71
5 4 1 299.83 10.97
-5 -4 -1 327.32 11.25
5 4 1 347.53 11.21
5 4 1 307.76 14.72
5 4 1 348.07 8.54
5 4 2 41.2 2.24
5 4 2 36.93 2.17
5 4 2 34.57 3.12
5 4 2 43.39 3.12
-5 -4 -2 36.04 3.31
5 4 2 34.28 3.14
5 4 2 37.6 4.66
5 4 2 40.33 2.18
5 4 3 393.98 9.98
5 4 3 410.04 12.03
5 4 3 387.72 9.66
5 4 3 419.16 12.08
5 4 3 373.43 12.56
5 4 3 394.37 15.94
5 4 3 413.24 9.74
5 4 4 39.97 2.55
5 4 4 43.17 3.32
5 4 4 40.04 2.27
5 4 4 37.17 2.9
-5 -4 -4 33.42 3.6
5 4 4 36.51 3.54
5 4 4 37.98 4.37
5 4 4 43.69 2.38
5 4 5 11.56 1.44
5 4 5 8.55 1.99
5 4 5 10.2 1.15
5 4 5 11.91 1.75
5 4 5 11.95 1.34
5 4 5 11 1.51
-5 -4 -5 10.05 2.02
5 4 5 11.85 2.14
5 4 6 378.35 10.99
5 4 6 342.95 8.93
5 4 6 343.98 9.89
5 4 6 345.67 9.91
-5 -4 -6 330.21 13.01
5 4 6 375.2 14.25
5 4 6 302.06 12.86
5 4 7 4.81 0.82
5 4 7 3.53 0.89
5 4 7 3.92 0.82
5 4 7 4.96 0.92
-5 -4 -7 3.91 1.38
-5 -4 -8 5.62 0.92
5 4 8 5.12 0.94
5 4 8 6.94 1.02
5 4 8 4.82 0.88
5 4 9 55.95 3.1
5 4 9 55.17 3.06
5 4 9 56.08 3.09
5 4 9 56.89 2.96
5 4 9 57.28 3.07
-5 -4 -9 59.66 3.03
-5 -4 -10 9.12 1.01
5 4 10 8.39 1.05
5 4 10 9.46 1.11
5 4 10 9.02 1.14
5 4 10 8.03 1.02
5 4 11 10.7 1.05
5 4 11 11.06 0.99
5 4 11 11.63 1.15
5 4 11 10.29 1
5 4 12 0.03 0.14
-5 -4 -12 0.46 0.28
5 4 12 0.1 0.2
5 4 12 -0.02 0.18
-5 -4 -13 5.62 0.56
5 4 13 6.48 0.66
5 5 -11 54.33 1.75
5 5 -10 9.39 0.85
5 5 -10 7.69 0.73
5 5 -9 11.41 1.12
5 5 -9 10.61 0.95
5 5 -9 11.47 1.06
5 5 -8 63.82 3.18
5 5 -8 64.33 2.88
5 5 -8 61.89 2.95
5 5 -7 22.79 2.09
5 5 -7 25.08 1.66
5 5 -7 26.34 1.87
5 5 -7 24.26 1.9
5 5 -7 27.37 2.02
5 5 -6 72.43 4.04
5 5 -6 72.91 3.3
5 5 -6 74.96 3.72
5 5 -6 69.89 3.63
5 5 -6 81.34 3.81
5 5 -5 79.94 4.1
5 5 -5 76.31 3.6
5 5 -5 75.27 4.16
5 5 -5 85.32 4.01
5 5 -5 81.51 3.97
5 5 -4 32.5 2.39
5 5 -4 31.67 2.36
5 5 -4 27.87 2.39
-5 -5 4 31.59 3.93
5 5 -4 32.94 2.33
5 5 -4 32.24 2.49
5 5 -3 15.64 1.56
5 5 -3 14.13 1.52
5 5 -3 15.36 2.77
5 5 -3 15.29 1.69
5 5 -3 13.5 2.67
5 5 -3 16.68 1.7
5 5 -2 37.94 2.36
5 5 -2 35.88 2.38
5 5 -2 32.94 2.38
5 5 -2 35.34 4.02
5 5 -2 32.79 2.35
-5 -5 2 38.28 3.41
5 5 -2 35.15 2.39
5 5 -2 34.59 4.34
5 5 -1 53.06 2.75
5 5 -1 57.86 2.98
5 5 -1 52.88 3.4
5 5 -1 58.73 3.04
5 5 -1 58.93 4.83
5 5 -1 53.33 3.14
-5 -5 1 58.17 4.22
5 5 -1 55.1 2.82
5 5 -1 60.35 6.08
5 5 0 41.97 2.34
5 5 0 39.27 3.24
5 5 0 46.25 2.58
5 5 0 45.53 2.61
5 5 0 41.63 3.76
5 5 0 48.49 3.04
-5 -5 0 44.05 3.68
5 5 0 48.56 3.5
5 5 0 45.27 5.73
5 5 1 38.16 2.15
5 5 1 39.36 2.35
5 5 1 39.52 3.47
5 5 1 43.47 2.41
5 5 1 40.86 2.9
-5 -5 -1 42.92 3.68
5 5 1 39.43 3.21
5 5 1 36.94 5.04
5 5 1 33.41 3.27
5 5 1 37.31 2.17
5 5 2 382 9.08
5 5 2 321.64 8.55
5 5 2 293.34 10.68
5 5 2 347.53 8.85
5 5 2 348.52 11.44
5 5 2 373.06 10.75
-5 -5 -2 349.28 12.2
5 5 2 334.3 11.15
5 5 2 314.28 15.11
5 5 2 339.63 8.6
5 5 3 85.47 3.66
5 5 3 77.97 4.7
5 5 3 81.45 3.48
5 5 3 89.55 4.88
-5 -5 -3 85.26 5.59
5 5 3 83.71 5.13
5 5 3 81.16 6.95
5 5 3 84.12 3.46
5 5 4 6.88 1
5 5 4 5.5 1.87
5 5 4 4.76 1.21
5 5 4 5.53 0.84
5 5 4 6.36 1.29
-5 -5 -4 5.51 1.51
5 5 4 6.39 1.5
5 5 4 6.85 0.95
5 5 5 202.86 7.79
5 5 5 199.24 6.05
5 5 5 198.01 7.39
5 5 5 195.62 6.07
5 5 5 203.53 9.24
5 5 5 181.58 10.07
5 5 6 128.25 5.72
5 5 6 115.7 4.42
5 5 6 119.56 5.01
5 5 6 122.96 5.3
5 5 6 123.45 4.6
5 5 6 116.75 7.28
5 5 7 21.5 2.17
5 5 7 19.76 1.65
5 5 7 18.26 1.88
5 5 7 20.72 1.95
5 5 7 17.4 1.65
-5 -5 -8 39.15 2.45
5 5 8 34.09 2.52
5 5 8 45.29 2.68
5 5 8 38.46 2.37
5 5 8 39.27 2.56
-5 -5 -9 9.95 1.23
5 5 9 9.55 1.19
5 5 9 10.22 1.25
5 5 9 9.5 1.18
-5 -5 -10 43.64 2.41
5 5 10 36.89 2.27
5 5 10 37.38 2.2
5 5 10 37.31 2.27
-5 -5 -11 0.56 0.23
5 5 11 0.04 0.25
5 5 11 0.48 0.36
5 5 11 0.42 0.25
-5 -5 -12 0.36 0.14
5 5 12 0.65 0.24
-5 -5 -12 0.3 0.2
5 5 12 0.26 0.2
5 5 12 0.64 0.2
-5 -5 -13 0.04 0.11
5 5 13 0.35 0.17
5 6 -10 0.67 0.19
5 6 -10 0.81 0.19
5 6 -9 7.28 0.75
5 6 -9 5.91 0.66
5 6 -8 204.27 5.8
5 6 -8 201.38 5.28
5 6 -8 216.43 5.8
5 6 -7 22.43 1.79
5 6 -7 21.64 1.59
5 6 -7 24.07 1.78
5 6 -6 2.29 0.71
5 6 -6 3.58 0.73
5 6 -6 3.77 0.77
5 6 -5 120.56 5.01
5 6 -5 117.66 5.13
5 6 -5 116.67 4.77
5 6 -4 169.51 6.02
5 6 -4 161.36 5.47
5 6 -4 161.91 6.48
5 6 -4 179.77 6.32
5 6 -3 0.29 0.34
5 6 -3 0.1 0.26
5 6 -3 -0.25 0.36
5 6 -3 -0.07 0.3
5 6 -2 1.13 0.48
5 6 -2 1.35 0.52
5 6 -2 1.97 0.62
5 6 -2 1.98 0.61
-5 -6 2 1.69 0.78
5 6 -2 1.04 0.39
5 6 -1 16.16 1.46
5 6 -1 20.82 1.76
5 6 -1 17.26 1.93
5 6 -1 17.13 3.32
5 6 -1 18.73 1.75
5 6 -1 14.54 1.58
5 6 -1 13.69 2.46
-5 -6 1 14.92 2.29
5 6 -1 16.6 1.56
5 6 0 9.88 1.16
5 6 0 11.34 1.29
5 6 0 8.75 1.51
5 6 0 10.21 2.73
5 6 0 11.51 1.34
5 6 0 10.36 1.38
5 6 0 11.22 2.09
-5 -6 0 9.71 1.84
5 6 0 12.19 1.24
5 6 1 1.16 0.4
5 6 1 1.04 0.84
5 6 1 1.28 1.28
5 6 1 0.99 0.46
5 6 1 1.87 0.71
-5 -6 -1 1.26 0.77
5 6 2 1.4 0.48
5 6 2 1.37 0.46
5 6 2 0.58 0.48
5 6 2 -0.16 1.58
5 6 2 1.33 0.46
5 6 2 1.72 0.73
5 6 2 1.39 0.44
-5 -6 -2 0.83 0.72
5 6 3 1.96 0.58
5 6 3 1.9 0.53
5 6 3 -0.69 1
5 6 3 1.6 0.78
5 6 3 1.96 0.52
5 6 3 2.44 0.83
5 6 3 2.29 0.58
-5 -6 -3 1.78 0.98
5 6 4 0.73 0.28
5 6 4 1.94 0.52
5 6 4 1.13 0.95
5 6 4 2.07 0.89
5 6 4 1.22 0.39
5 6 4 -0.36 0.43
5 6 4 1.14 0.42
-5 -6 -4 1.08 0.7
5 6 5 31.19 2.78
5 6 5 28.29 1.98
5 6 5 25.71 2.54
5 6 5 29.49 2.03
5 6 6 7.67 1.02
5 6 6 8.32 1.44
5 6 6 8.61 1.11
5 6 6 8.1 1.34
5 6 7 59.92 3.65
5 6 7 60.03 2.9
5 6 7 55.63 3.01
5 6 7 57.83 3.41
-5 -6 -8 2.76 0.69
5 6 8 2.44 0.75
5 6 8 1.97 0.59
5 6 8 2.61 0.81
5 6 8 2.75 0.7
5 6 8 2.72 0.66
-5 -6 -9 155.34 5.41
5 6 9 147.91 5.26
5 6 9 160.44 5.48
-5 -6 -10 35.66 2.22
5 6 10 34.34 2.08
5 6 10 34.53 2.09
-5 -6 -11 9.46 0.95
5 6 11 8.99 0.97
5 6 11 8.5 0.93
5 6 11 8.55 0.9
-5 -6 -12 15.86 0.97
5 6 12 14.73 1.01
-5 -6 -12 12.7 0.86
5 6 12 14.03 0.99
5 6 12 11.71 0.82
5 6 13 2.7 0.35
-5 -7 9 24.43 1.17
5 7 -9 28.46 1.14
5 7 -8 5.93 0.6
-5 -7 8 5.51 0.68
5 7 -8 4.84 0.55
5 7 -8 6.94 0.7
5 7 -7 115.95 3.74
5 7 -7 116.31 3.78
5 7 -7 124.27 3.96
5 7 -6 10.98 1.12
5 7 -6 11.38 1.18
5 7 -6 12.47 1.23
5 7 -5 10.55 1.26
5 7 -5 8.39 1.22
5 7 -5 10.65 1.23
5 7 -4 181.5 5.97
5 7 -4 181.91 6.78
5 7 -4 189.63 6.12
5 7 -4 179.75 6.2
5 7 -3 70.48 3.38
5 7 -3 73.98 3.94
5 7 -3 75.98 3.51
5 7 -3 73.56 3.75
5 7 -2 38.46 2.35
5 7 -2 44.71 2.91
5 7 -2 44.82 2.56
5 7 -2 44.1 2.75
5 7 -1 126.14 5.45
5 7 -1 139.46 5.31
5 7 -1 128.29 5.03
5 7 -1 142.07 4.88
5 7 -1 143 5.09
5 7 -1 132.44 4.65
5 7 0 66.26 4.15
5 7 0 72.22 3.51
5 7 0 75.93 3.82
5 7 0 73.31 3.28
5 7 0 71.2 3.26
5 7 0 69.98 3.14
5 7 1 5.64 0.9
5 7 1 5.01 1.2
5 7 1 6.33 0.91
5 7 1 6.64 1.16
5 7 1 6.5 0.86
5 7 1 5.76 0.84
5 7 2 0.48 0.26
5 7 2 1.27 0.69
5 7 2 0.43 0.34
5 7 2 0.04 0.47
5 7 2 1.5 0.43
5 7 3 0.92 0.37
5 7 3 0.56 0.74
5 7 3 0.29 0.26
5 7 3 0.53 0.55
5 7 3 0.4 0.18
5 7 4 215.53 6.47
5 7 4 221.56 8.42
5 7 4 206.14 6.27
5 7 4 228.23 9.08
5 7 4 215.23 6.45
5 7 5 34.24 2.31
5 7 5 37.13 3.17
5 7 5 36.81 2.19
-5 -7 -5 36.17 2.13
5 7 5 33.44 3.03
5 7 5 37.31 2.3
5 7 6 2.71 0.87
5 7 6 2.86 0.57
-5 -7 -6 3.7 0.65
5 7 6 3.08 0.91
5 7 6 3.24 0.67
5 7 7 93.87 4.48
5 7 7 80.9 3.67
5 7 7 86.79 4.29
-5 -7 -8 2.26 0.62
5 7 8 1.85 0.63
5 7 8 1.68 0.52
5 7 8 2.06 0.56
5 7 8 1.4 0.48
-5 -7 -9 0.68 0.5
5 7 9 0.1 0.23
5 7 9 0.51 0.29
-5 -7 -10 120.71 4.13
5 7 10 113.78 4.08
5 7 10 115.53 3.96
-5 -7 -11 0.98 0.31
5 7 11 1.66 0.4
5 7 11 0.72 0.25
5 7 11 1.15 0.31
5 7 11 1.06 0.3
-5 -7 -12 0.31 0.16
5 7 12 0.33 0.18
5 7 12 -0.17 0.18
-5 -8 7 0.32 0.2
5 8 -7 0.47 0.19
5 8 -7 0.51 0.19
5 8 -6 22.31 1.43
5 8 -6 24.53 1.47
-5 -8 5 0.54 0.33
5 8 -5 0.67 0.26
5 8 -5 0.6 0.37
5 8 -5 0.59 0.25
5 8 -5 1.23 0.45
5 8 -4 39.22 2.49
5 8 -4 39.49 2.25
5 8 -4 40.58 2.36
5 8 -4 38.27 2.01
5 8 -3 18.84 1.79
5 8 -3 17.3 1.55
5 8 -3 18.56 1.68
5 8 -3 19.89 1.45
5 8 -2 10.06 1.32
5 8 -2 8.52 1.1
5 8 -2 9.4 1.19
5 8 -1 8.52 1.21
5 8 -1 10.43 1.28
5 8 -1 10.4 1.16
5 8 -1 12.07 1.31
5 8 0 28.46 2.47
5 8 0 33.54 2.25
5 8 0 31.31 2.23
5 8 0 36.06 2.2
5 8 0 33.71 2.14
5 8 1 7.4 1.36
5 8 1 9.05 1.15
5 8 1 11.06 1.45
5 8 1 9.86 1.12
5 8 1 10.16 1.11
5 8 2 168.79 7.77
5 8 2 181.34 5.7
5 8 2 188.99 6.81
5 8 2 186.74 5.78
5 8 3 10.19 1.13
5 8 3 10.77 1.82
5 8 3 12.4 1.67
5 8 3 11.64 1.23
5 8 4 0.73 0.44
5 8 4 0.61 0.4
-5 -8 -4 1.1 0.42
5 8 4 1.3 0.72
5 8 4 0.49 0.29
5 8 5 34.23 2.09
5 8 5 39.42 3.11
5 8 5 38.33 2.06
-5 -8 -5 37.37 2.11
5 8 5 33.06 2.91
5 8 5 38.1 2.3
5 8 6 16.34 1.5
5 8 6 17.12 1.89
-5 -8 -6 18.86 1.4
5 8 6 16.89 1.92
5 8 6 17.51 1.53
-5 -8 -7 12.97 1.27
5 8 7 9.34 1.14
5 8 7 10.99 1.38
-5 -8 -7 11.37 1.06
5 8 7 10.89 1.19
5 8 7 12.95 1.5
-5 -8 -8 219.49 6.29
5 8 8 210.01 6.57
5 8 8 203.96 6.12
5 8 8 221.16 6.52
-5 -8 -9 61.24 2.79
5 8 9 53.47 2.7
5 8 9 58.13 2.59
5 8 9 59.8 2.76
-5 -8 -10 0.51 0.29
5 8 10 0.37 0.25
5 8 10 0.67 0.3
-5 -8 -11 183.47 4.19
5 8 11 168.64 4.17
5 9 -6 30.58 1.24
5 9 -5 11.29 0.9
5 9 -5 11.44 0.88
5 9 -4 77.48 2.93
5 9 -4 75.24 2.54
5 9 -4 76.58 2.81
5 9 -3 73.22 3.16
5 9 -3 74.88 2.91
5 9 -3 73.36 2.98
5 9 -2 62.44 3
5 9 -2 62.28 2.84
5 9 -2 61.54 2.9
5 9 -1 17.67 1.52
5 9 -1 18.91 1.49
5 9 -1 17.45 1.46
5 9 0 104.81 4.48
5 9 0 115.77 4.2
5 9 0 107.73 3.97
5 9 1 93.74 3.55
5 9 1 86.04 3.73
5 9 1 96.33 3.65
5 9 2 16.88 2.01
5 9 2 17.25 1.36
5 9 2 18.74 1.74
5 9 2 20.75 1.56
5 9 3 63.43 4.1
5 9 3 68.85 2.83
-5 -9 -3 74.29 3.17
5 9 3 76.47 3.8
5 9 3 80.88 3.26
5 9 4 25.9 2.42
5 9 4 26.51 1.54
-5 -9 -4 27.75 1.76
5 9 4 26.31 2.34
5 9 4 29.44 1.88
5 9 5 5.76 1.12
-5 -9 -5 6.03 0.78
5 9 5 6.93 0.9
5 9 5 6.62 1.2
-5 -9 -6 10.63 1.09
5 9 6 8.73 1.26
-5 -9 -6 9.61 0.94
5 9 6 8.84 1.27
5 9 6 9.27 1.02
-5 -9 -7 24.47 1.7
5 9 7 24.03 1.48
5 9 7 26.56 1.99
-5 -9 -7 27.8 1.56
5 9 7 26.97 1.71
5 9 7 29.54 2.02
-5 -9 -8 3.27 0.6
5 9 8 1.92 0.43
5 9 8 2.16 0.53
-5 -9 -8 2.68 0.44
5 9 8 3.05 0.59
5 9 8 2.36 0.49
-5 -9 -9 57.1 2.22
5 9 9 49.88 2.04
5 9 9 54.5 2.24
-5 -9 -10 38.74 1.48
5 9 10 32.88 1.45
5 10 -3 43.73 1.68
-5 -10 3 39.45 1.51
5 10 -2 43.83 1.9
-5 -10 2 40.51 1.78
5 10 -2 44.6 1.82
5 10 -1 0.08 0.21
5 10 -1 -0.16 0.27
5 10 0 221.85 5.63
-5 -10 0 231.81 6
5 10 0 240.95 6
5 10 1 78.51 3.4
5 10 1 85.68 2.89
-5 -10 -1 101.28 3.42
5 10 1 83.39 2.93
5 10 1 98.02 3.33
5 10 2 35.05 2.36
5 10 2 38.78 1.69
-5 -10 -2 43.5 2.11
5 10 2 34.88 1.95
5 10 2 43.67 2.1
5 10 3 115.11 4.86
5 10 3 118.81 4.24
5 10 3 127.9 4.03
-5 -10 -4 143.69 4.38
5 10 4 150.39 5.44
-5 -10 -4 159.63 4.47
5 10 4 136.59 4.82
5 10 4 156.53 4.53
-5 -10 -5 89.27 3.22
5 10 5 113.06 4.27
-5 -10 -5 107.42 3.35
5 10 5 94.49 3.9
5 10 5 108.15 3.49
-5 -10 -6 7.82 0.79
5 10 6 9.12 1.04
-5 -10 -6 8.52 0.77
5 10 6 9.07 1.03
5 10 6 7.17 0.76
-5 -10 -7 53.94 2.1
5 10 7 50.79 2.32
-5 -10 -7 50.68 1.91
5 10 7 58.86 2.43
5 10 7 51.69 2.12
5 10 8 21.33 1.16
5 10 8 19.32 1.12
-5 -11 -2 58.5 2.01
-5 -11 -3 31.48 1.39
6 -5 -6 30.26 1.65
6 -5 -6 34.73 1.62
6 -5 -5 2.19 0.45
6 -5 -5 1.76 0.32
6 -5 -5 1.42 0.43
6 -5 -4 0.68 0.27
6 -5 -4 0.75 0.27
6 -5 -4 0.86 0.28
6 -5 -4 0.68 0.24
6 -5 -4 0.24 0.37
6 -5 -3 18.08 1.23
6 -5 -3 21.64 1.8
6 -5 -3 17.19 1.23
6 -5 -3 19.45 1.32
6 -5 -3 18.24 1.34
6 -5 -2 5.75 0.76
-6 5 2 4.76 0.62
6 -5 -2 5.65 0.67
6 -5 -2 6.57 0.74
6 -5 -2 5.83 0.71
6 -5 -2 5.93 0.79
6 -5 -2 5.37 0.95
-6 5 1 13.94 1.16
6 -5 -1 15.96 1.2
6 -5 -1 16.12 1.18
6 -5 -1 13.47 1.48
6 -5 -1 15.98 1.21
6 -5 -1 16.5 1.3
6 -5 -1 14.67 1.21
-6 5 0 39.42 2.13
6 -5 0 41.78 2.12
6 -5 0 43.86 2.01
6 -5 0 45.31 2.26
6 -5 0 43.16 2.06
6 -5 0 39.52 2.02
-6 5 -1 19.25 1.43
6 -5 1 20.14 1.46
6 -5 1 21.67 1.34
6 -5 1 17.9 1.38
6 -5 1 22.65 1.6
6 -5 1 22.91 1.45
6 -5 1 18.44 1.26
-6 5 -2 62.78 2.6
6 -5 2 61.9 2.64
6 -5 2 65.89 2.47
6 -5 2 73.31 2.97
6 -5 2 69.71 2.66
6 -5 2 58.97 2.17
-6 5 -3 0.2 0.21
6 -5 3 1.07 0.33
6 -5 3 0.36 0.15
6 -5 3 1.35 0.38
6 -5 3 0.75 0.29
-6 5 -4 4.12 0.51
6 -5 4 3.85 0.49
6 -5 4 3.81 0.5
6 -5 4 3.89 0.5
6 -4 -8 60.75 2.12
6 -4 -7 0.77 0.34
6 -4 -7 0 0.17
6 -4 -7 0.39 0.28
6 -4 -6 10.74 0.92
6 -4 -6 11.35 1.22
6 -4 -6 10.08 0.96
6 -4 -6 9.23 0.84
6 -4 -6 9.07 0.98
6 -4 -5 37.28 1.94
6 -4 -5 41.15 2.65
6 -4 -5 38.97 2.05
6 -4 -5 37.86 2.01
6 -4 -5 42.75 2.23
6 -4 -4 14.4 1.2
6 -4 -4 14.91 1.67
6 -4 -4 13.79 1.23
6 -4 -4 14.47 1.27
6 -4 -4 15.84 1.39
6 -4 -3 42.54 2.18
6 -4 -3 39.73 2.87
6 -4 -3 42.57 2.29
6 -4 -3 38.69 2.27
6 -4 -3 45.37 2.41
6 -4 -2 47.86 2.28
6 -4 -2 51.03 2.45
6 -4 -2 48.18 3.28
6 -4 -2 47.2 2.58
6 -4 -2 51.39 2.54
6 -4 -2 53.52 2.67
6 -4 -1 4.79 0.77
6 -4 -1 4.08 0.69
6 -4 -1 3.41 0.59
6 -4 -1 4.3 0.78
6 -4 -1 4.11 0.67
6 -4 -1 4.42 1.12
6 -4 0 20.7 1.65
6 -4 0 20.03 1.46
6 -4 0 15.98 1.9
6 -4 0 21.43 1.79
6 -4 0 19.15 1.54
6 -4 0 19.61 1.59
6 -4 1 2.25 0.57
6 -4 1 2.2 0.6
6 -4 1 2.16 0.49
6 -4 1 2.48 0.61
6 -4 1 2.98 0.63
6 -4 1 1.63 0.63
6 -4 2 4.42 0.72
6 -4 2 4.52 0.79
6 -4 2 4.43 0.67
6 -4 2 3.97 0.78
6 -4 2 3.21 0.67
6 -4 2 4.79 0.76
6 -4 3 30.31 1.99
6 -4 3 33.19 1.88
6 -4 3 33.15 2.28
6 -4 3 36.03 2.12
6 -4 3 29.17 1.79
6 -4 4 76.73 3.04
6 -4 4 66.71 3.01
6 -4 4 77.61 3.18
6 -4 4 64.86 2.56
6 -4 5 73.98 2.71
6 -4 5 71.79 2.68
6 -4 5 61.96 2.63
6 -4 5 60.51 2.12
-6 4 -6 0.1 0.17
6 -4 6 0.14 0.16
6 -4 6 0.11 0.14
6 -4 6 0.05 0.17
6 -3 -9 12.6 0.84
6 -3 -9 14.27 0.87
6 -3 -8 38.44 1.81
6 -3 -8 41 2.01
6 -3 -8 40.99 1.99
6 -3 -7 51.48 2.76
6 -3 -7 47.18 2.24
6 -3 -7 47.57 2.38
6 -3 -7 41.75 2.09
6 -3 -7 47.73 2.37
6 -3 -6 20.55 1.87
6 -3 -6 21.84 1.6
6 -3 -6 20.53 1.62
6 -3 -6 19.53 1.52
6 -3 -6 23.03 1.67
6 -3 -5 0.1 0.27
6 -3 -5 0.53 0.38
6 -3 -5 0.86 0.39
6 -3 -5 0.35 0.39
6 -3 -4 1.79 0.57
6 -3 -4 2.05 0.56
6 -3 -4 1.58 0.45
6 -3 -4 1.57 0.62
6 -3 -3 0.71 0.43
6 -3 -3 0.51 0.36
6 -3 -3 0.27 0.3
6 -3 -3 0.97 0.69
6 -3 -2 13.39 1.26
6 -3 -2 14.1 1.93
6 -3 -2 15.21 1.54
6 -3 -2 14.18 1.4
6 -3 -2 12.89 1.35
6 -3 -1 0.56 0.35
6 -3 -1 0.57 0.38
6 -3 -1 -0.09 0.22
6 -3 -1 0.49 0.22
6 -3 -1 0.19 0.37
6 -3 -1 0.11 0.29
6 -3 -1 -0.03 0.39
6 -3 0 0.45 0.39
6 -3 0 0.9 0.47
6 -3 0 0.82 0.39
6 -3 0 0.94 0.38
6 -3 0 1.08 0.54
6 -3 0 0.74 0.41
6 -3 0 0.25 0.58
6 -3 1 15.99 1.62
6 -3 1 15.35 1.33
6 -3 1 12.77 1.71
6 -3 1 16.55 1.73
6 -3 1 15.19 1.46
6 -3 1 14.51 1.47
6 -3 2 21.44 1.89
6 -3 2 17.39 1.79
6 -3 2 20.03 1.94
6 -3 2 23.12 1.84
6 -3 2 21.07 1.77
6 -3 3 0.54 0.29
6 -3 3 0.07 0.3
6 -3 3 0.16 0.37
6 -3 3 0.06 0.25
6 -3 4 142.87 5.03
6 -3 4 128.4 5.22
6 -3 4 132.42 4.75
6 -3 5 2.58 0.58
6 -3 5 2.5 0.59
6 -3 5 2.95 0.62
6 -3 5 2.7 0.63
6 -3 6 1.2 0.35
6 -3 6 1.24 0.43
6 -3 6 1.43 0.42
6 -3 6 1.41 0.4
6 -3 6 1.26 0.41
6 -3 7 77.62 2.61
6 -3 7 78.35 2.81
6 -3 8 0.26 0.19
6 -2 -10 19.12 1.03
6 -2 -10 19.26 1.04
6 -2 -9 13.62 1.08
6 -2 -9 13.49 1.04
6 -2 -9 14.84 0.98
6 -2 -8 6.54 0.86
6 -2 -8 6.73 0.83
6 -2 -8 8.28 1.04
6 -2 -8 7.11 0.86
6 -2 -8 7.31 0.86
6 -2 -7 30.95 2.1
6 -2 -7 41.96 2.74
6 -2 -7 37.93 2.19
6 -2 -7 38.91 2.36
6 -2 -7 36.06 2.18
6 -2 -7 34.97 2.13
6 -2 -6 12.08 1.28
6 -2 -6 12.71 1.6
6 -2 -6 13.57 1.37
6 -2 -6 14.73 1.47
6 -2 -6 12.53 1.34
6 -2 -6 14.49 1.38
6 -2 -5 56.06 2.78
6 -2 -5 56.78 3.63
6 -2 -5 58.53 3.13
6 -2 -5 62.47 3.17
6 -2 -5 59.31 3.12
6 -2 -5 59.86 3.01
6 -2 -4 13.15 1.6
6 -2 -4 12.5 1.71
6 -2 -4 13.08 1.41
6 -2 -4 12.04 1.38
6 -2 -4 13.73 1.37
6 -2 -3 2.96 0.64
6 -2 -3 2.19 0.58
6 -2 -3 1.84 0.48
6 -2 -3 1.5 0.65
6 -2 -2 154.33 5.97
6 -2 -2 142.66 6.43
6 -2 -2 160.02 5.74
6 -2 -2 154.24 5.41
6 -2 -2 157.77 5.34
6 -2 -1 1.39 0.48
6 -2 -1 1.12 0.45
6 -2 -1 3.02 1.22
6 -2 -1 1.82 0.55
6 -2 -1 3.19 0.75
6 -2 -1 1.54 0.47
6 -2 -1 2.2 0.82
6 -2 0 71.7 3.74
6 -2 0 71.41 4.64
6 -2 0 75.14 3.5
6 -2 0 60.96 4.32
6 -2 0 76.94 3.88
6 -2 0 75.72 3.49
6 -2 0 76.7 3.52
6 -2 1 8.93 1.28
6 -2 1 7.53 1.4
6 -2 1 7.26 1.12
6 -2 1 8.28 1.24
6 -2 1 8.98 1.14
6 -2 1 7.33 1.34
6 -2 1 7.08 1.09
6 -2 2 0.01 0.29
6 -2 2 0.6 0.35
6 -2 2 0.98 0.48
6 -2 2 0.92 0.4
6 -2 3 76.6 3.66
6 -2 3 74.82 3.9
6 -2 3 76.73 4.13
6 -2 3 77.13 3.69
6 -2 3 71.13 3.56
6 -2 4 2.03 0.6
6 -2 4 1.87 0.64
6 -2 4 1.08 0.35
6 -2 4 0.72 0.5
6 -2 4 1.69 0.7
6 -2 4 1.92 0.68
6 -2 5 27.18 2.15
6 -2 5 23.71 1.58
6 -2 5 30.36 2.14
6 -2 5 26.08 2.09
6 -2 5 27.66 2.15
6 -2 5 27.86 2.08
6 -2 6 7.38 1.11
6 -2 6 7.43 1
6 -2 6 8.71 1.04
6 -2 6 5.43 0.96
6 -2 6 8.31 1.02
6 -2 7 4.94 0.71
6 -2 7 5.59 0.83
6 -2 7 6.24 0.79
6 -2 7 5.97 0.84
6 -2 8 131.17 4.11
6 -2 8 125.78 3.69
6 -2 8 131.74 3.92
6 -2 8 119.26 3.6
6 -2 9 12.51 0.92
6 -2 9 9.71 0.68
6 -2 9 11.45 0.77
6 -1 -11 3.08 0.37
6 -1 -11 2.63 0.34
6 -1 -10 12.61 0.97
6 -1 -10 11.13 0.88
6 -1 -9 3.73 0.66
6 -1 -9 4.72 0.66
6 -1 -9 4.73 0.66
6 -1 -8 27.23 2.04
6 -1 -8 27.45 1.81
6 -1 -8 33.92 2.27
6 -1 -8 29.73 1.98
6 -1 -8 31.45 1.82
6 -1 -7 58.35 3.38
6 -1 -7 53.41 2.77
6 -1 -7 55.83 3.07
6 -1 -7 52.06 2.86
6 -1 -7 50 2.61
6 -1 -6 67.3 3.66
6 -1 -6 81.48 4.36
6 -1 -6 74.58 3.55
6 -1 -6 75.83 3.66
6 -1 -6 75.89 3.65
6 -1 -6 76.02 3.4
6 -1 -5 295.55 9.02
6 -1 -5 279.44 8.48
6 -1 -5 302.09 9.7
6 -1 -5 291.87 8.61
6 -1 -5 316.5 8.74
6 -1 -5 294.54 8.65
6 -1 -5 322.68 8.31
6 -1 -4 23.25 2.1
6 -1 -4 23.33 1.86
6 -1 -4 27.42 2.64
6 -1 -4 26.48 2.54
6 -1 -4 24.47 1.98
6 -1 -4 24.43 2.03
6 -1 -4 25.54 1.89
6 -1 -3 184.11 6.49
6 -1 -3 197.93 7.86
6 -1 -3 180.03 7.29
6 -1 -3 192.64 6.51
6 -1 -3 182.67 6.19
6 -1 -3 192.71 5.96
6 -1 -2 115.94 4.94
6 -1 -2 112.24 5.64
6 -1 -2 111.62 4.73
6 -1 -2 118.94 4.59
6 -1 -2 125.29 4.51
6 -1 -1 207.18 6.81
6 -1 -1 212.73 8.52
6 -1 -1 183.8 7.74
6 -1 -1 204.01 6.76
6 -1 -1 190.8 6.22
6 -1 -1 203.27 6.2
6 -1 0 3.32 0.63
6 -1 0 3.37 0.75
6 -1 0 5.37 1.36
6 -1 0 3.45 0.79
6 -1 0 3.32 0.81
6 -1 0 3.16 1.15
6 -1 0 1.97 0.5
6 -1 1 883.82 19.43
6 -1 1 818 21.05
6 -1 1 910.91 19.33
6 -1 1 792.89 20.94
6 -1 1 877.91 19.62
6 -1 1 898.14 18.93
6 -1 1 905.18 18.87
6 -1 2 138.29 4.99
6 -1 2 131.38 5.13
6 -1 2 127.42 4.9
6 -1 2 119.95 5.73
6 -1 2 129.92 5.33
6 -1 2 126.52 5.27
6 -1 2 129.2 4.84
6 -1 3 22.58 1.92
6 -1 3 18.39 1.7
6 -1 3 18.1 1.69
6 -1 3 16.41 1.55
6 -1 3 19.65 2.05
6 -1 3 21.15 2.05
6 -1 3 18.35 1.88
6 -1 3 19.19 1.72
6 -1 4 26.52 2.17
6 -1 4 29.74 2.07
6 -1 4 24.67 2.24
6 -1 4 25.21 2.28
6 -1 4 27.77 2.18
6 -1 4 28.19 2.18
6 -1 5 32.24 2.42
6 -1 5 32.99 2.41
6 -1 5 32.26 2.39
6 -1 5 32.47 2.45
6 -1 5 31.97 2.41
6 -1 5 31.3 2.08
6 -1 6 9.17 1.25
6 -1 6 8.28 1
6 -1 6 8.08 1.25
6 -1 6 9.15 1.2
6 -1 6 6.39 1.13
6 -1 7 197.78 6.26
6 -1 7 195.91 6.61
6 -1 7 218.94 5.82
6 -1 7 221.75 6.27
6 -1 7 186.91 6.31
6 -1 8 21.43 1.55
6 -1 8 21.7 1.73
6 -1 8 22.94 1.42
6 -1 8 22.81 1.53
6 -1 8 18.83 1.48
6 -1 9 4.36 0.61
6 -1 9 4.44 0.7
-6 1 -9 4.02 0.5
6 -1 9 4.15 0.55
6 -1 9 4.21 0.54
6 -1 10 38.71 1.66
6 -1 10 30.4 1.29
6 0 -11 0.32 0.15
6 0 -11 0.3 0.14
6 0 -10 0.94 0.31
6 0 -10 0.86 0.27
6 0 -10 0.57 0.23
6 0 -9 0.75 0.37
6 0 -9 1.39 0.43
6 0 -9 0.95 0.37
6 0 -8 16.39 1.61
6 0 -8 13.87 1.45
6 0 -8 13.86 1.32
6 0 -8 17.27 1.67
6 0 -8 15.42 1.5
6 0 -7 0.45 0.32
6 0 -7 0.32 0.41
6 0 -7 0.18 0.35
6 0 -7 0.37 0.29
6 0 -7 0.5 0.3
6 0 -6 63.78 3.57
6 0 -6 63.42 3.77
6 0 -6 64.48 3.33
6 0 -6 63.78 3.33
6 0 -6 69.54 3.54
6 0 -6 68.19 3.53
6 0 -5 90.22 4.16
6 0 -5 87.41 4.31
6 0 -5 88.8 4.57
6 0 -5 74.33 3.59
6 0 -5 95.68 4.97
6 0 -5 82.73 3.98
6 0 -5 82.97 3.94
6 0 -5 88.7 4.13
6 0 -5 90.31 3.63
6 0 -4 19.05 1.86
6 0 -4 17.17 1.73
6 0 -4 16.75 1.97
6 0 -4 17.31 2.08
6 0 -4 17.24 1.67
6 0 -4 17.1 1.76
6 0 -4 19.08 1.55
6 0 -3 265.21 7.66
6 0 -3 231.96 7.13
6 0 -3 265.45 8.9
6 0 -3 247.78 8.83
6 0 -3 240.42 7.65
6 0 -3 225.94 7.17
6 0 -3 248.43 6.95
6 0 -2 39.42 2.56
6 0 -2 38.99 2.31
6 0 -2 47.71 3.57
6 0 -2 38.75 3.22
6 0 -2 42.16 2.74
6 0 -2 38.84 2.47
6 0 -2 40.12 2.34
6 0 -1 50.97 2.9
6 0 -1 55.59 3.93
-6 0 1 45.3 4.02
6 0 -1 42.52 4.13
6 0 -1 44.21 3.5
6 0 -1 49.21 2.95
6 0 -1 47.69 2.7
6 0 -1 48.85 2.58
6 0 0 31.62 2.26
6 0 0 36.18 3.22
-6 0 0 25 2.98
6 0 0 27 3.18
6 0 0 31.87 2.09
6 0 0 24.93 2.66
6 0 0 31.98 2.35
6 0 0 27.87 2.01
6 0 0 30.85 2.04
6 0 1 803.61 17.43
6 0 1 855.63 18.17
6 0 1 801.02 20.27
-6 0 -1 812.08 21.82
6 0 1 811.44 18.05
6 0 1 818.36 22.07
6 0 1 739.84 19.78
6 0 1 815.69 18.27
6 0 1 818.17 17.56
6 0 2 11.79 1.35
6 0 2 12.39 1.45
6 0 2 11.37 1.31
6 0 2 10.66 1.31
6 0 2 12.3 1.83
-6 0 -2 12.34 2.07
6 0 2 12.42 1.49
6 0 2 10.93 1.4
6 0 2 11.8 1.28
6 0 3 115.62 4.64
6 0 3 121.29 4.89
6 0 3 121.51 4.6
6 0 3 111.76 4.76
6 0 3 119.96 5.43
6 0 3 123.39 5.28
6 0 3 120.49 5.04
6 0 3 117.33 4.52
6 0 4 68.85 3.53
6 0 4 59.03 3.28
6 0 4 69.14 3.45
6 0 4 67.87 3.57
6 0 4 69.3 3.78
6 0 4 62 3.62
6 0 4 66.31 3.66
6 0 4 61.56 3.23
6 0 5 73.08 3.78
6 0 5 61.71 3.15
6 0 5 75.66 3.68
6 0 5 73.33 3.59
6 0 5 66.63 3.71
6 0 5 62.12 3.36
6 0 6 9.49 1.4
6 0 6 13.29 1.54
6 0 6 12.73 1.37
-6 0 -6 14.77 1.4
6 0 6 13.56 1.53
6 0 6 10.83 1.37
6 0 7 12.63 1.52
6 0 7 16.46 1.73
6 0 7 17.51 1.51
-6 0 -7 14.14 1.38
6 0 7 19.2 1.7
6 0 7 15.07 1.57
6 0 8 1.73 0.56
6 0 8 1.86 0.49
-6 0 -8 1.99 0.5
6 0 8 1.73 0.5
6 0 8 1.7 0.48
6 0 9 1.99 0.51
6 0 9 1.5 0.45
6 0 9 1.97 0.43
-6 0 -9 1.2 0.34
6 0 9 1.78 0.43
-6 0 -10 0.21 0.14
6 0 10 0.28 0.16
6 0 10 0.33 0.24
-6 0 -10 0.23 0.15
6 0 10 0.2 0.19
6 0 11 20.48 1.01
6 0 11 24.47 1.19
-6 0 -11 22.52 1.04
6 1 -11 3.07 0.39
6 1 -11 2.94 0.39
6 1 -10 2.66 0.5
6 1 -10 2.05 0.46
6 1 -10 2.63 0.49
6 1 -9 156.42 4.88
6 1 -9 157.06 5.09
6 1 -9 143.61 4.62
6 1 -8 2.6 0.63
6 1 -8 2.62 0.67
6 1 -8 1.9 0.46
6 1 -8 2.56 0.65
6 1 -7 6 1.1
6 1 -7 4.32 0.93
6 1 -7 5.85 0.97
6 1 -7 6.46 1.06
6 1 -7 6.08 1.07
6 1 -6 15.56 1.75
6 1 -6 15.97 1.91
6 1 -6 19.5 1.87
6 1 -6 17.34 1.84
6 1 -6 15.42 1.59
6 1 -6 14.89 1.69
6 1 -6 17.97 1.77
6 1 -5 0.09 0.32
6 1 -5 0.66 0.42
6 1 -5 0.03 0.33
6 1 -5 0.12 0.29
6 1 -5 0.42 0.25
6 1 -5 0.51 0.39
6 1 -5 -0.16 0.28
6 1 -4 1.21 0.49
6 1 -4 1.6 0.58
6 1 -4 0.7 0.55
6 1 -4 1.74 0.55
6 1 -4 1.4 0.57
6 1 -4 1.58 0.51
6 1 -4 2.45 0.77
6 1 -4 1.05 0.46
6 1 -3 1.96 0.62
6 1 -3 2.01 0.64
6 1 -3 2.83 0.84
6 1 -3 2.18 0.68
6 1 -3 2.74 0.91
6 1 -3 1.43 0.5
6 1 -2 111.29 4.34
6 1 -2 94.28 4.05
6 1 -2 114.99 5.35
6 1 -2 112.1 6.76
6 1 -2 104.32 5.58
6 1 -2 107.77 4.67
6 1 -2 99.73 4.13
6 1 -2 103.64 3.81
6 1 -1 9.11 1.16
6 1 -1 6.69 0.91
6 1 -1 11.18 1.7
-6 -1 1 6.19 1.52
6 1 -1 8.27 1.79
6 1 -1 9.79 1.31
6 1 -1 8.39 1.08
6 1 -1 5.77 1.35
6 1 -1 8.07 0.97
6 1 0 5.29 0.78
6 1 0 5.55 0.91
6 1 0 5.07 0.79
6 1 0 8.25 1.49
-6 -1 0 6.26 1.48
6 1 0 5.74 1.37
6 1 0 4.96 0.92
6 1 0 5.37 1.26
6 1 0 4.01 0.74
6 1 1 280.97 7.69
6 1 1 301.11 8.29
6 1 1 282.56 8.06
6 1 1 311.74 10.41
-6 -1 -1 278.82 10.8
6 1 1 312.23 8.43
6 1 1 285.72 11.2
6 1 1 303.67 10.07
6 1 1 281.85 8.44
6 1 1 294.3 7.9
6 1 1 280.82 7.37
6 1 2 54.34 2.8
6 1 2 61.23 3.2
6 1 2 54.51 2.79
6 1 2 56.15 3
6 1 2 54.96 3.76
-6 -1 -2 53.28 4.42
6 1 2 60.32 3.32
6 1 2 58.43 4.66
6 1 2 58.29 3.26
6 1 2 52.95 2.78
6 1 3 10.26 1.24
6 1 3 8.01 1.21
6 1 3 8.72 1.09
6 1 3 8.9 1.21
6 1 3 8.55 1.42
-6 -1 -3 7.47 1.7
6 1 3 9.8 1.46
6 1 3 9.96 2.02
6 1 3 9.31 1.08
6 1 4 190.39 6.33
6 1 4 197.32 6.61
6 1 4 184.02 6
6 1 4 181.26 6.21
6 1 4 171.23 6.64
6 1 4 194.18 6.87
6 1 4 198.85 6.02
6 1 5 42.13 2.76
6 1 5 33.68 2.43
6 1 5 38.68 2.52
6 1 5 38.66 2.57
6 1 5 36.69 2.71
6 1 6 47.47 3.07
6 1 6 36.25 2.41
6 1 6 44.67 2.85
6 1 6 44.89 2.81
6 1 6 44.1 2.81
6 1 7 5.03 0.79
6 1 7 3.77 0.91
6 1 7 4.76 0.9
6 1 7 4.99 0.93
6 1 8 10.41 1.4
6 1 8 12.51 1.29
-6 -1 -8 11.73 1.25
6 1 8 12.41 1.28
6 1 9 23.71 1.8
6 1 9 19.15 1.67
6 1 9 23.6 1.61
-6 -1 -9 23.84 1.69
6 1 9 23.29 1.62
6 1 10 55.66 2.51
6 1 10 52.19 2.45
6 1 10 55.71 2.25
-6 -1 -10 57.16 2.4
6 1 10 51.42 2.17
-6 -1 -11 0.29 0.2
6 1 11 0.17 0.18
6 1 11 0.07 0.17
-6 -1 -11 0.44 0.22
6 1 11 0.22 0.17
6 2 -11 13.32 0.82
6 2 -10 15.84 1
6 2 -10 16.73 1.13
6 2 -10 20.03 1.32
6 2 -10 18.12 1.21
6 2 -9 6.88 0.81
6 2 -9 8.28 0.95
6 2 -9 8.86 1.05
6 2 -9 7.45 0.87
6 2 -8 75.21 3.46
6 2 -8 79.32 3.48
6 2 -8 73.82 3.7
6 2 -8 74.15 3.27
6 2 -7 15.46 1.65
6 2 -7 19.37 1.88
6 2 -7 17.64 1.94
6 2 -7 17.39 1.6
6 2 -7 20.3 1.79
6 2 -7 19.74 1.82
6 2 -6 6.09 1.03
6 2 -6 5.8 1.01
6 2 -6 7.84 1.33
6 2 -6 7.36 1.25
6 2 -6 6.86 1.05
6 2 -6 6.98 1.18
6 2 -6 8.42 1.26
6 2 -5 174.16 6.02
6 2 -5 197.55 6.21
6 2 -5 194.19 7.01
6 2 -5 170.29 6.31
6 2 -5 187.71 6.69
6 2 -5 166.12 6.12
6 2 -5 173.79 6.22
6 2 -5 184.9 6.53
6 2 -4 7.18 1.12
6 2 -4 6.04 0.94
6 2 -4 6.52 1.13
6 2 -4 5.41 1.08
6 2 -4 8.03 1.18
6 2 -4 7.19 1.14
6 2 -4 6.84 1.14
6 2 -4 6.4 1.03
6 2 -3 2.38 0.65
6 2 -3 2.23 0.59
6 2 -3 3.19 0.8
6 2 -3 2.61 0.74
6 2 -3 3.36 1.34
6 2 -3 3.52 0.73
6 2 -3 2.48 0.66
6 2 -3 2.46 0.64
6 2 -2 8.32 1.02
6 2 -2 7.75 1.09
6 2 -2 11.07 2.7
6 2 -2 8.3 1.11
6 2 -2 10.24 1.51
6 2 -2 12.12 2.5
6 2 -2 9.55 1.98
6 2 -2 9.88 1.18
6 2 -2 10.29 1.35
6 2 -1 1.01 0.37
6 2 -1 1.17 1.39
6 2 -1 0.55 0.27
6 2 -1 0.86 0.38
6 2 -1 0.8 0.61
6 2 -1 1.14 0.81
6 2 -1 1.64 0.85
6 2 -1 0.59 0.35
6 2 -1 0.76 0.38
6 2 0 2.25 0.58
6 2 0 2.45 1.63
6 2 0 1.53 0.43
6 2 0 1.36 0.48
6 2 0 1.7 0.54
6 2 0 2.25 1.11
6 2 0 1.96 0.65
6 2 1 8.34 1
6 2 1 8.7 1.17
6 2 1 8.82 1.06
6 2 1 11.55 3.07
6 2 1 8.38 1.13
6 2 1 10.03 1.71
-6 -2 -1 7.17 1.57
6 2 1 9.88 1.25
6 2 1 9.21 1.82
6 2 1 8.98 1.22
6 2 1 10.09 1.07
6 2 2 14.84 1.39
6 2 2 16.23 1.56
6 2 2 16.63 1.4
6 2 2 15.39 3.33
6 2 2 15.42 1.5
6 2 2 16.19 2.09
-6 -2 -2 21.55 2.71
6 2 2 17.34 1.72
6 2 2 14.5 2.34
6 2 2 15.08 1.34
6 2 3 78.88 3.48
6 2 3 87.53 3.96
6 2 3 80.74 3.64
6 2 3 82.03 4.53
-6 -2 -3 80.29 5.52
6 2 3 78.47 4.22
6 2 3 87.12 5.91
6 2 3 81.16 7.17
6 2 4 73.09 3.47
6 2 4 73 3.73
6 2 4 69.11 3.4
6 2 4 72.54 4.07
6 2 4 72.16 3.47
-6 -2 -4 70.64 5.36
6 2 4 71.4 3.91
6 2 5 6.84 0.99
6 2 5 6.53 1.17
6 2 5 7.8 1.09
6 2 5 7.18 1.18
6 2 5 6.39 1.1
6 2 5 8.05 1.3
6 2 6 41.67 2.78
6 2 6 46.2 2.77
6 2 6 44.47 2.72
6 2 6 44.72 2.97
6 2 6 47.69 3.05
6 2 7 1.07 0.44
6 2 7 1.6 0.5
6 2 7 1.03 0.5
6 2 7 0.98 0.39
6 2 7 1.01 0.41
6 2 8 49.36 2.62
6 2 8 53.76 3.24
6 2 8 57.44 3.05
6 2 8 54.74 3.11
6 2 9 12.27 1.07
6 2 9 9.48 1.22
6 2 9 11.54 1.2
-6 -2 -9 12.33 1.31
6 2 9 12.06 1.28
6 2 9 13.77 1.27
6 2 10 92.75 3.24
-6 -2 -10 94.99 3.46
6 2 10 98.83 3.57
6 2 10 86.79 3.16
6 2 11 13.92 1.07
6 2 11 10.54 0.87
6 2 11 11.85 0.88
-6 -2 -11 13.53 1.04
6 2 11 10.44 0.82
6 2 12 15.13 0.9
-6 -2 -12 16.1 0.92
6 3 -11 18.78 0.9
6 3 -10 1.51 0.32
6 3 -10 1.17 0.27
6 3 -10 1.18 0.31
6 3 -10 0.73 0.25
6 3 -9 33.48 1.88
6 3 -9 30.08 1.69
6 3 -9 34.08 1.99
6 3 -9 31.87 1.81
6 3 -8 119.45 4.6
6 3 -8 118.38 4.25
6 3 -8 123.28 4.69
6 3 -8 123.26 4.32
6 3 -7 27.22 2.37
6 3 -7 31.09 2.18
6 3 -7 30.94 2.43
6 3 -7 31.13 2.14
6 3 -6 76.48 4.03
6 3 -6 77.41 3.95
6 3 -6 79.73 4.23
6 3 -6 82.39 3.83
6 3 -5 96.77 4.45
6 3 -5 99.42 4.77
6 3 -5 109.4 4.84
6 3 -5 91.53 4.26
6 3 -5 103.93 4.49
6 3 -5 111.52 4.87
6 3 -4 0.7 0.31
6 3 -4 0.23 0.32
6 3 -4 0.93 0.52
6 3 -4 0.39 0.45
6 3 -4 1.38 0.69
6 3 -4 0.29 0.34
6 3 -4 0.34 0.45
6 3 -4 0.93 0.47
6 3 -3 45.73 2.68
6 3 -3 45.29 2.54
6 3 -3 49.73 2.99
6 3 -3 45.85 2.97
6 3 -3 45.85 2.79
6 3 -3 42.28 2.65
6 3 -3 42.28 2.88
6 3 -2 8.51 1.1
6 3 -2 8.75 1.11
6 3 -2 9.58 1.24
6 3 -2 8.28 2.37
6 3 -2 7.61 1.02
6 3 -2 8.2 1.27
6 3 -2 7.14 1.86
6 3 -2 7.97 1.74
6 3 -2 8.2 1.27
6 3 -1 188.96 5.97
6 3 -1 196.01 6.02
6 3 -1 200.79 6.26
6 3 -1 186.54 6.17
6 3 -1 197.75 9.77
6 3 -1 204.09 7.26
6 3 -1 212.04 9.04
6 3 -1 190.55 6.73
6 3 -1 197.61 12.14
6 3 0 44.76 2.54
6 3 0 48.25 2.63
6 3 0 44.51 2.61
6 3 0 51.01 4.61
6 3 0 53.16 3.49
6 3 0 47.05 4.06
6 3 0 41.89 2.77
6 3 0 47.59 6.04
6 3 0 50.05 2.59
6 3 1 0.05 0.31
6 3 1 0.13 0.87
6 3 1 0.42 0.33
6 3 1 0.75 0.23
6 3 1 0.26 0.37
6 3 1 0.13 0.43
6 3 1 0.15 0.36
6 3 2 10.8 1.29
6 3 2 12.14 1.26
6 3 2 10.03 2.59
6 3 2 11.15 1.29
6 3 2 12.4 1.87
6 3 2 10.75 1.41
6 3 2 10.63 1.98
6 3 2 10.12 1.13
6 3 3 49.68 2.6
6 3 3 56.05 3.12
6 3 3 54.5 2.89
6 3 3 52.8 3.69
-6 -3 -3 56.42 4.73
6 3 3 59.91 3.58
6 3 3 56.42 4.71
6 3 3 60.25 6.21
6 3 3 56.6 2.8
6 3 4 43.23 2.79
6 3 4 40.46 2.47
6 3 4 39.4 2.42
6 3 4 38.45 2.97
-6 -3 -4 39.42 4.13
6 3 4 37.85 2.86
6 3 4 42.3 4.22
6 3 4 35.3 4.53
6 3 5 426.94 11.45
6 3 5 426.48 10.58
6 3 5 397.38 10.73
6 3 5 407.5 11.51
6 3 5 431.47 11.65
6 3 6 21.46 2.16
6 3 6 21.45 1.81
6 3 6 22.06 1.98
6 3 6 21.03 2.03
6 3 6 22.44 2.13
6 3 7 71.88 3.76
6 3 7 81.15 3.69
6 3 7 74.32 3.97
6 3 7 86.62 4
6 3 8 1.82 0.55
6 3 8 1.01 0.47
6 3 8 0.98 0.56
6 3 8 1.55 0.57
6 3 9 0.94 0.3
6 3 9 1.56 0.48
6 3 9 0.94 0.4
6 3 9 1.33 0.43
6 3 10 34.71 1.78
6 3 10 34.07 1.92
-6 -3 -10 38.91 2.18
6 3 10 36.57 2.12
6 3 10 35.22 1.91
6 3 11 21.13 1.22
-6 -3 -11 23.41 1.46
6 3 11 23.15 1.44
6 3 11 20.65 1.21
6 3 12 0.4 0.21
-6 -3 -12 0.6 0.21
6 4 -10 1.09 0.29
6 4 -10 1.2 0.28
6 4 -9 0.09 0.17
6 4 -9 0.22 0.18
6 4 -9 0.25 0.21
6 4 -8 22.02 1.68
6 4 -8 19.32 1.38
6 4 -8 19.45 1.55
6 4 -8 21.08 1.54
6 4 -7 3.1 0.74
6 4 -7 3.24 0.66
6 4 -7 3.09 0.71
6 4 -7 3.39 0.7
6 4 -6 47.32 3.16
6 4 -6 48.75 2.84
6 4 -6 54.15 3.33
6 4 -6 53.28 2.94
6 4 -5 3.17 0.88
6 4 -5 2.67 0.72
6 4 -5 3.57 0.85
6 4 -5 3.05 0.73
6 4 -5 3.48 0.81
6 4 -4 34.31 2.52
6 4 -4 36.96 2.66
6 4 -4 29 2.28
6 4 -4 35.48 2.57
6 4 -4 40.04 2.73
6 4 -3 23.97 1.98
6 4 -3 29.67 2.34
6 4 -3 24.96 2.1
6 4 -3 27.93 2.24
6 4 -3 27.91 2.14
6 4 -3 32.62 2.55
6 4 -2 2.9 0.62
6 4 -2 3 0.67
6 4 -2 3.09 0.76
6 4 -2 1.87 0.6
6 4 -2 1.64 0.57
6 4 -2 4.73 1.43
6 4 -2 3.28 0.83
6 4 -1 1.28 0.4
6 4 -1 2.11 1.34
6 4 -1 1.49 0.49
6 4 -1 1.23 0.47
6 4 -1 0.8 0.47
6 4 -1 1.28 0.59
6 4 -1 1.37 1.02
6 4 -1 2.64 1.02
6 4 -1 0.9 0.46
6 4 0 189.65 5.87
6 4 0 197.74 6.13
6 4 0 189.82 6.19
6 4 0 178.81 9.02
6 4 0 201.72 7.3
6 4 0 192.35 8.54
6 4 0 195.04 12.78
6 4 0 182.63 5.86
6 4 1 56.66 2.93
6 4 1 52.32 2.78
6 4 1 55.63 2.98
6 4 1 53.89 4.65
6 4 1 71.46 4.14
-6 -4 -1 56.03 4.5
6 4 1 55.82 4.39
6 4 1 53.58 6.33
6 4 1 55.41 2.8
6 4 2 44.43 2.58
6 4 2 43.66 2.46
6 4 2 40.8 2.48
6 4 2 47.1 3.57
-6 -4 -2 37.46 3.77
6 4 2 48.39 2.98
6 4 2 37.93 3.68
6 4 2 41.01 5.33
6 4 2 41.37 2.38
6 4 3 6.58 1.03
6 4 3 6.55 2.04
6 4 3 5.91 0.91
6 4 3 6.35 0.96
6 4 3 4.95 1.16
-6 -4 -3 5.24 1.6
6 4 3 4.9 1.04
6 4 3 6.37 1.62
6 4 4 57.73 3.35
6 4 4 61.08 3.06
6 4 4 55.39 3.74
6 4 4 54.95 3.58
6 4 5 33.88 2.58
6 4 5 31.66 2.16
6 4 5 33.3 2.29
6 4 5 34.08 2.74
6 4 5 31.6 2.59
6 4 6 10.54 1.51
6 4 6 9.36 1.16
6 4 6 9.31 1.34
6 4 6 8.51 1.23
6 4 6 7.41 1.33
6 4 7 107.59 4.93
6 4 7 113.33 4.4
6 4 7 102.63 4.84
6 4 7 114.33 4.6
6 4 8 23.53 1.99
6 4 8 25.2 1.92
6 4 8 20.58 1.88
6 4 8 27.68 2.08
6 4 9 87.52 3.64
6 4 9 89.98 3.77
6 4 9 83.65 3.69
6 4 9 91.05 3.71
6 4 10 250.31 6.38
6 4 10 232.84 6.26
6 4 10 246.34 6.63
6 4 10 237.14 6.37
6 4 11 22.6 1.21
6 4 11 18.13 1.08
-6 -4 -11 21.08 1.39
6 4 11 20.76 1.37
6 4 11 17.71 1.16
-6 -4 -12 9.79 0.75
6 4 12 8.34 0.71
6 5 -9 2.7 0.47
6 5 -9 2.41 0.41
6 5 -8 2.23 0.53
6 5 -8 1.74 0.33
6 5 -8 2.08 0.44
6 5 -7 100.25 4.01
6 5 -7 91.47 3.26
6 5 -7 94.46 3.67
6 5 -6 19.83 1.9
6 5 -6 20.55 1.58
6 5 -6 18.17 1.45
6 5 -6 18.25 1.6
6 5 -5 12.37 1.57
6 5 -5 13.13 1.4
6 5 -5 13.5 1.43
6 5 -5 12.9 1.45
6 5 -4 281.74 8.2
6 5 -4 269.99 8.1
6 5 -4 236.62 7.96
6 5 -4 245.31 7.87
6 5 -3 2.12 0.59
6 5 -3 2.02 0.67
6 5 -3 1.98 0.57
6 5 -3 1.14 0.38
6 5 -3 2.3 0.61
6 5 -2 1.63 0.53
6 5 -2 2.88 0.73
6 5 -2 2.82 0.67
6 5 -2 3.5 0.71
6 5 -1 206.09 6.59
6 5 -1 241.82 7.1
6 5 -1 212.75 7.01
6 5 -1 230.25 7.51
6 5 0 18.52 1.51
6 5 0 20.81 1.76
6 5 0 21.73 2.39
6 5 0 20.23 1.79
6 5 0 21.83 2.16
6 5 0 20.04 1.68
6 5 1 14.59 1.37
6 5 1 15.77 1.51
6 5 1 14.96 2.24
6 5 1 16.31 1.59
6 5 1 17.6 2.04
-6 -5 -1 14.08 2.25
6 5 1 15.04 1.43
6 5 2 1.18 0.44
6 5 2 1.94 0.53
6 5 2 1.44 0.8
6 5 2 1.39 0.77
-6 -5 -2 0.51 0.61
6 5 3 6.86 1.02
6 5 3 7.03 1.01
6 5 3 7.71 1.59
6 5 3 7.26 1.42
6 5 3 8 1.03
6 5 4 79.2 3.8
6 5 4 89.29 5.23
6 5 4 77.78 3.52
6 5 4 75.41 4.6
6 5 5 7.94 1.21
6 5 5 7.61 1.03
6 5 5 7.99 1.54
6 5 5 8.7 1.43
6 5 6 70.67 3.97
6 5 6 70.21 3.29
6 5 6 67.69 3.79
-6 -5 -7 7.95 0.98
6 5 7 8.47 1.4
6 5 7 6.3 0.97
6 5 7 8.09 1.18
6 5 7 7.03 1.11
-6 -5 -8 21.42 1.65
6 5 8 21.1 1.96
6 5 8 22.06 1.74
6 5 8 18.16 1.73
-6 -5 -9 133.62 4.28
6 5 9 128.81 4.69
6 5 9 125.77 4.44
6 5 9 133.07 4.59
6 5 10 15.3 1.26
6 5 10 14.6 1.13
6 5 10 14.24 1.24
6 5 10 15.8 1.26
6 5 11 25 1.36
-6 -5 -11 26.59 1.52
6 5 11 23.73 1.4
6 5 11 21.13 1.25
-6 -5 -12 33.25 1.35
6 5 12 31.47 1.33
6 6 -9 41.38 1.43
6 6 -9 36.02 1.37
6 6 -8 4.47 0.56
6 6 -8 4.88 0.6
6 6 -7 7.36 0.87
6 6 -7 7.15 0.82
6 6 -6 83.23 3.59
6 6 -6 80.72 2.89
6 6 -6 83.14 3.19
6 6 -6 83.03 3.38
6 6 -5 35.02 2.46
6 6 -5 36.74 2.05
6 6 -5 36.98 2.4
6 6 -5 36.78 2.31
6 6 -4 31.51 2.27
6 6 -4 26.28 1.91
6 6 -4 26.71 2.33
6 6 -4 29.51 2.18
6 6 -3 256.98 7.6
6 6 -3 259.8 7.63
6 6 -3 242.83 7.45
6 6 -2 29.75 2.16
6 6 -2 32.87 2.33
6 6 -2 29.05 2.37
6 6 -2 29.18 2.18
6 6 -2 29.25 2.09
6 6 -1 4.36 0.79
6 6 -1 4.79 0.91
6 6 -1 5.16 0.98
6 6 -1 4.58 0.94
6 6 -1 5.39 0.82
6 6 0 284.83 9.73
6 6 0 297.46 8.57
6 6 0 297.22 9.19
6 6 0 290.3 8.04
6 6 1 1.75 0.47
6 6 1 1.12 0.41
6 6 1 0.97 0.62
6 6 1 1.11 0.43
6 6 1 1.47 0.67
6 6 2 89.99 3.7
6 6 2 85.3 5.72
6 6 2 98.52 4.1
6 6 2 103.85 5.26
6 6 2 98.29 3.86
6 6 3 1009.93 21.17
6 6 3 1021.68 21.38
6 6 3 1059.55 24.49
6 6 3 1046 21.19
6 6 4 14.15 1.49
6 6 4 17.75 2.28
6 6 4 15.89 1.47
6 6 4 12.87 2
6 6 5 25.22 2.07
6 6 5 27.1 2.7
6 6 5 23.71 1.81
6 6 5 21.18 2.25
6 6 6 34.34 2.56
6 6 6 41.41 3.23
6 6 6 36.7 2.22
6 6 6 38.72 2.84
-6 -6 -7 4.22 0.73
6 6 7 2.99 0.81
6 6 7 3.05 0.64
6 6 7 3.58 0.8
-6 -6 -8 61.15 2.94
6 6 8 59.89 3.39
6 6 8 61.63 2.81
6 6 8 52.17 2.85
6 6 8 61.03 2.96
6 6 8 60.66 2.75
-6 -6 -9 53.45 2.54
6 6 9 52.44 2.79
6 6 9 46.93 2.29
6 6 9 44.21 2.37
6 6 9 49.79 2.23
6 6 9 57.62 2.71
-6 -6 -10 69.33 2.48
6 6 10 69.65 2.78
6 6 10 64.29 2.62
6 6 11 5.43 0.61
-6 -6 -11 5.58 0.61
6 6 11 5.31 0.58
6 6 11 5.28 0.58
6 7 -8 5.99 0.49
6 7 -7 14.97 0.84
6 7 -7 17.05 1.07
6 7 -7 17.5 1.04
6 7 -6 7.22 0.82
6 7 -6 6.67 0.72
6 7 -6 7.71 0.84
6 7 -5 17.53 1.44
6 7 -5 19.15 1.5
6 7 -5 19.58 1.48
6 7 -4 51.34 2.72
6 7 -4 46.53 2.82
6 7 -4 49.29 2.64
6 7 -3 -0.09 0.28
6 7 -3 0.61 0.39
6 7 -3 0.52 0.37
6 7 -2 13.36 1.59
6 7 -2 13.04 1.33
6 7 -2 12.34 1.3
6 7 -1 138.11 5.24
6 7 -1 120.27 4.79
6 7 -1 126.36 4.48
6 7 -1 135.11 4.68
6 7 0 99.84 4.95
6 7 0 108.27 4.45
6 7 0 99.28 4.47
6 7 0 98.11 3.87
6 7 1 71.49 4.54
6 7 1 75.3 3.52
6 7 1 70.22 3.93
6 7 1 70.25 3.13
6 7 2 176.83 8.24
6 7 2 182.18 5.93
6 7 2 183.81 7.11
6 7 2 189.6 5.69
6 7 3 119.17 4.19
6 7 3 109.77 6.07
6 7 3 121.15 4.51
6 7 3 124.82 6.11
6 7 3 133.91 4.47
6 7 4 5.12 0.81
6 7 4 7.04 0.98
6 7 4 6.58 1.53
-6 -7 -4 7.27 0.84
6 7 4 7.1 1.43
6 7 5 117.47 4.44
6 7 5 116.98 4.23
6 7 5 111.48 5.48
6 7 5 116.82 4.25
6 7 6 0.15 0.25
6 7 6 0.34 0.37
6 7 6 -0.05 0.19
6 7 6 0.47 0.43
6 7 6 0.62 0.35
-6 -7 -7 104.47 3.92
6 7 7 92.04 4.11
6 7 7 111.85 4.78
6 7 7 87.4 3.37
6 7 7 105.74 4.35
6 7 7 89.02 3.63
-6 -7 -8 2.12 0.52
6 7 8 2.42 0.61
6 7 8 2.69 0.48
6 7 8 2.18 0.56
6 7 8 2.59 0.54
-6 -7 -9 23.48 1.6
6 7 9 24.65 1.7
6 7 9 23.59 1.42
6 7 9 22.25 1.38
6 7 9 25.9 1.66
-6 -7 -10 5.09 0.61
6 7 10 4.29 0.59
6 7 10 4.02 0.56
6 7 11 16.91 0.96
6 7 11 14.04 0.82
6 8 -6 28.77 1.24
6 8 -6 29.84 1.35
6 8 -5 0.03 0.19
6 8 -5 -0.04 0.17
6 8 -4 31.95 1.91
6 8 -4 28.93 1.7
6 8 -4 28.37 1.55
6 8 -3 0.16 0.28
6 8 -3 -0.04 0.21
6 8 -2 24.62 1.98
6 8 -2 24.74 1.72
6 8 -2 27.3 1.72
6 8 -1 21.34 1.79
6 8 -1 17.5 1.43
6 8 -1 20.55 1.52
6 8 -1 20.23 1.49
6 8 0 10.15 1.37
6 8 0 12.33 1.35
6 8 0 10.44 1.22
6 8 0 12.66 1.12
6 8 0 14.55 1.23
6 8 1 30.69 2.62
6 8 1 32.53 2.12
6 8 1 31.98 2.37
6 8 1 35.97 1.98
6 8 2 28.85 2.86
6 8 2 34.8 2.12
6 8 2 35.29 2.61
6 8 2 37.83 2.12
6 8 3 1.51 0.83
6 8 3 1.81 0.5
6 8 3 3.2 0.82
6 8 3 2.5 0.51
6 8 4 325.59 8.09
-6 -8 -4 321.83 7.79
6 8 4 327.81 10.24
6 8 4 316.94 8.19
6 8 5 2.34 0.52
6 8 5 2.65 0.89
6 8 5 2.01 0.49
-6 -8 -5 2.84 0.48
6 8 5 2.26 0.76
6 8 5 2.56 0.56
6 8 6 48.47 2.43
6 8 6 58.21 3.43
6 8 6 50.27 2.24
6 8 6 54.05 3.17
6 8 6 49.32 2.47
-6 -8 -7 30.19 1.91
6 8 7 25.83 1.77
6 8 7 37.14 2.41
6 8 7 35.37 2.25
6 8 7 30.43 1.83
-6 -8 -8 4.12 0.69
6 8 8 3 0.61
6 8 8 4.49 0.63
6 8 8 4.55 0.7
-6 -8 -9 26.93 1.51
6 8 9 25.44 1.5
6 8 9 27.37 1.36
6 8 9 24.65 1.3
6 8 9 27 1.51
-6 -8 -10 3.3 0.41
6 8 10 2.68 0.41
6 8 10 2.76 0.39
6 9 -4 32.31 1.49
6 9 -3 25.17 1.5
6 9 -2 1.5 0.43
6 9 -1 0.14 0.33
6 9 0 13.61 1.25
6 9 0 14.33 1.27
6 9 0 13.73 1.11
6 9 1 12.05 1.39
6 9 1 14.7 1.25
6 9 1 13.08 1.25
6 9 1 14.4 1.17
6 9 2 0.17 0.29
6 9 2 -0.05 0.21
-6 -9 -2 -0.19 0.27
6 9 2 0.12 0.22
6 9 2 0.43 0.26
6 9 3 0.2 0.44
6 9 3 -0.06 0.14
-6 -9 -3 0.28 0.23
6 9 3 -0.28 0.34
6 9 3 0.31 0.27
6 9 4 11.88 1.59
6 9 4 10.78 0.91
-6 -9 -4 10.05 0.9
6 9 4 9.65 1.28
6 9 4 10.81 1.02
6 9 5 4.33 0.55
6 9 5 4.59 0.89
-6 -9 -5 4.48 0.58
6 9 5 3.72 0.79
6 9 5 3.79 0.62
-6 -9 -6 2.7 0.56
6 9 6 1.83 0.64
-6 -9 -6 2.21 0.36
6 9 6 2.13 0.64
6 9 6 2.5 0.47
-6 -9 -7 25.74 1.53
6 9 7 29.01 1.74
6 9 7 26.77 1.47
-6 -9 -8 2.67 0.48
6 9 8 2.08 0.4
6 9 8 2.2 0.36
6 9 8 1.91 0.37
6 10 -1 28.37 1.32
-6 -10 1 25.54 1.27
6 10 0 45.86 1.8
-6 -10 0 43 1.85
6 10 1 33.94 1.51
-6 -10 -1 37.31 1.7
6 10 2 44.38 2.2
6 10 2 46.68 1.72
6 10 2 43.42 1.87
6 10 2 44.17 1.81
6 10 3 0.7 0.43
-6 -10 -3 0.13 0.15
6 10 3 0.47 0.27
6 10 3 0.13 0.13
-6 -10 -4 20.11 1.22
6 10 4 25.24 1.76
-6 -10 -4 22.88 1.18
6 10 4 21.13 1.43
6 10 4 21.19 1.18
-6 -10 -5 82.09 2.78
6 10 5 88.95 3.27
-6 -10 -6 16.97 1.04
6 10 6 23.46 1.34
7 -4 -4 8.8 0.72
7 -4 -3 167.67 4.79
7 -4 -3 144.99 3.96
7 -4 -3 143.34 3.95
7 -4 -3 159.03 4.16
7 -4 -2 1.81 0.4
7 -4 -2 1.79 0.39
7 -4 -2 2 0.5
7 -4 -2 1.03 0.26
7 -4 -1 1.31 0.32
7 -4 -1 1.76 0.4
7 -4 -1 2.1 0.49
7 -4 -1 1.6 0.38
7 -4 0 96.64 3.2
7 -4 0 90.52 2.94
7 -4 1 0.2 0.18
-7 4 -1 0.18 0.2
7 -4 1 0.81 0.34
7 -4 1 0.59 0.28
7 -4 2 23.25 1.31
7 -4 2 26.11 1.36
7 -3 -6 1.04 0.3
7 -3 -6 1.12 0.33
7 -3 -5 0.69 0.3
7 -3 -5 0.04 0.19
7 -3 -5 0.19 0.24
7 -3 -4 22.46 1.86
7 -3 -4 19.88 1.36
7 -3 -4 20.82 1.4
7 -3 -4 21.46 1.39
7 -3 -3 22.97 2.03
7 -3 -3 22.97 1.53
7 -3 -3 22.41 1.56
7 -3 -3 24.61 1.54
7 -3 -2 0.58 0.38
7 -3 -2 0.61 0.36
7 -3 -2 0.63 0.25
7 -3 -2 0.28 0.34
7 -3 -1 3.18 0.61
7 -3 -1 3.82 0.71
7 -3 -1 3.2 0.59
7 -3 -1 2.88 0.78
7 -3 0 66.94 3.05
7 -3 0 67.33 2.83
7 -3 0 67.89 2.8
7 -3 1 61.96 2.67
7 -3 1 70.48 3.22
7 -3 1 72.64 2.96
7 -3 1 69.51 2.89
7 -3 2 0.33 0.27
7 -3 2 -0.29 0.26
7 -3 2 0.23 0.25
7 -3 2 0.36 0.24
7 -3 3 2.22 0.45
7 -3 3 2.58 0.5
7 -3 3 2.13 0.49
7 -3 3 2.54 0.51
7 -3 4 22.12 1.34
7 -3 4 21.8 1.29
7 -3 4 19.99 1.33
7 -3 4 20.95 1.23
7 -3 5 0.8 0.25
7 -3 5 0.74 0.25
7 -2 -7 3.62 0.49
7 -2 -7 3.82 0.59
7 -2 -6 18.21 1.36
7 -2 -6 16.3 1.24
7 -2 -6 18.22 1.22
7 -2 -5 38.92 2.14
7 -2 -5 40.05 2.13
7 -2 -5 35.28 1.9
7 -2 -4 14.45 1.64
7 -2 -4 14.23 1.32
7 -2 -4 15.4 1.36
7 -2 -4 14.11 1.23
7 -2 -3 1.75 0.47
7 -2 -3 2.53 0.62
7 -2 -3 1.5 0.71
7 -2 -3 1.93 0.55
7 -2 -2 4.81 0.77
7 -2 -2 4.42 0.81
7 -2 -2 4.06 1.05
7 -2 -2 4.08 0.76
7 -2 -1 5.62 0.81
7 -2 -1 4.81 0.92
7 -2 -1 5.33 0.9
7 -2 -1 5.26 0.84
7 -2 -1 4.41 1.04
7 -2 0 7.42 1.09
7 -2 0 7.2 0.87
7 -2 0 9.1 1.24
7 -2 0 9.71 1.1
7 -2 0 6.12 1.13
7 -2 0 8.79 1.04
7 -2 1 44.97 2.52
7 -2 1 49.92 2.57
7 -2 1 51.81 3
7 -2 1 58.22 3.15
7 -2 1 62.79 2.92
7 -2 1 60.58 2.83
7 -2 2 66.81 3.11
7 -2 2 72.72 3.63
7 -2 2 71.23 3.21
7 -2 2 74.6 3.22
7 -2 3 3.66 0.69
7 -2 3 2.66 0.66
7 -2 3 3.46 0.75
7 -2 3 3.7 0.69
7 -2 4 20.02 1.56
7 -2 4 21.75 1.6
7 -2 4 22.27 1.67
7 -2 4 23.53 1.65
7 -2 5 3.15 0.56
7 -2 5 3.12 0.58
7 -2 5 4.11 0.58
7 -2 5 3 0.59
7 -2 6 20.66 1.25
7 -2 6 19.86 1.19
7 -2 6 17.49 1.13
7 -2 7 17.74 0.97
7 -1 -8 5.98 0.59
7 -1 -7 7.81 0.82
7 -1 -7 9.55 1.01
7 -1 -7 7.43 0.86
7 -1 -6 4.25 0.59
7 -1 -6 3.36 0.58
7 -1 -6 5.11 0.77
7 -1 -6 4.37 0.76
7 -1 -5 11.18 1.04
7 -1 -5 13.08 1.31
7 -1 -5 13.81 1.34
7 -1 -5 11.87 1.11
7 -1 -4 0.93 0.35
7 -1 -4 1.03 0.47
7 -1 -4 0.78 0.49
7 -1 -4 0.63 0.39
7 -1 -3 0.27 0.22
7 -1 -3 0.44 0.31
7 -1 -3 0.61 0.4
7 -1 -3 1.29 0.59
7 -1 -3 0.57 0.37
7 -1 -2 6.99 1.1
7 -1 -2 8.04 1.6
7 -1 -2 7.39 1.06
7 -1 -2 7 1.07
7 -1 -2 6.88 1.42
7 -1 -2 7.42 0.94
7 -1 -1 4.78 0.82
7 -1 -1 4.54 0.9
7 -1 -1 6.35 1.47
7 -1 -1 4.56 0.87
7 -1 -1 3.53 1.08
7 -1 -1 5.14 0.91
7 -1 0 6.63 1.09
7 -1 0 6.56 1.4
7 -1 0 4.98 0.77
7 -1 0 6.22 1.08
7 -1 0 5.86 1.21
7 -1 0 6.11 0.91
7 -1 0 6.78 0.94
7 -1 1 56.35 3.15
7 -1 1 59.37 3.8
7 -1 1 59.01 2.91
7 -1 1 53.7 3.42
7 -1 1 60.8 3.36
7 -1 1 66.64 3.14
7 -1 1 64.54 3.03
7 -1 2 8.35 1.11
7 -1 2 9.12 1.41
7 -1 2 9.23 1.19
7 -1 2 9.34 1.14
7 -1 2 8.67 1.24
7 -1 2 8.79 1.08
7 -1 3 13.65 1.28
7 -1 3 13.96 1.51
7 -1 3 17.03 1.75
7 -1 3 17.7 1.6
7 -1 3 18.14 1.57
7 -1 4 57.32 2.97
7 -1 4 61.9 3.13
7 -1 4 67.19 3.23
7 -1 4 66.06 3.16
7 -1 5 13.99 1.06
7 -1 5 15.16 1.41
7 -1 5 15.1 1.49
7 -1 5 15.38 1.43
7 -1 6 71.94 2.9
7 -1 6 67.82 2.89
7 -1 7 5.62 0.67
7 -1 7 7.41 0.69
7 -1 7 6.14 0.71
7 -1 8 0.59 0.22
7 -1 8 1.01 0.24
7 0 -9 2.92 0.39
7 0 -8 17.86 1.22
7 0 -8 15.4 0.99
7 0 -7 1.27 0.46
7 0 -7 1.1 0.3
7 0 -7 1.57 0.45
7 0 -7 1.67 0.5
7 0 -6 17.32 1.57
7 0 -6 20.07 1.63
7 0 -6 21.22 1.68
7 0 -5 85.48 3.68
7 0 -5 93.62 3.89
7 0 -5 95.31 4.02
7 0 -4 0.22 0.23
7 0 -4 0.23 0.38
7 0 -4 0.09 0.25
7 0 -4 1.15 0.66
7 0 -4 0.47 0.34
7 0 -4 0.66 0.37
7 0 -3 1.91 0.47
7 0 -3 2.29 0.63
7 0 -3 1.69 0.49
7 0 -3 2.12 0.92
7 0 -3 2.31 0.67
7 0 -3 2.1 0.58
7 0 -2 8.58 1.26
7 0 -2 9.73 1.61
7 0 -2 8.92 1.15
7 0 -2 8.57 1.22
7 0 -2 8.8 1.54
7 0 -2 9.24 1.04
7 0 -1 11.65 1.45
7 0 -1 15.03 2.08
7 0 -1 13.17 1.97
7 0 -1 11.53 1.45
7 0 -1 12.57 1.36
7 0 -1 12.4 1.25
7 0 0 1.05 0.4
7 0 0 0.98 0.48
7 0 0 0.93 0.76
7 0 0 0.71 0.46
7 0 0 1.21 0.66
7 0 0 0.9 0.4
7 0 1 4.35 0.78
7 0 1 5.88 0.99
7 0 1 5.1 1.21
7 0 1 4.61 0.8
7 0 1 5.36 1.02
7 0 1 5.34 0.92
7 0 2 114.83 4.69
7 0 2 106.19 5.23
7 0 2 109.21 4.44
7 0 2 113.44 4.92
7 0 2 114.9 4.41
7 0 2 114.25 4.39
7 0 3 -0.03 0.31
7 0 3 0.58 0.41
7 0 3 0.25 0.28
7 0 3 -0.44 0.62
7 0 3 0.33 0.37
7 0 3 -0.26 0.3
7 0 3 -0.11 0.38
7 0 4 1.87 0.62
7 0 4 1.76 0.54
7 0 4 1.52 0.48
7 0 4 1.61 0.49
7 0 4 1.17 0.61
7 0 4 1.89 0.64
7 0 4 1.81 0.52
7 0 5 200.39 6.33
7 0 5 191.02 5.54
7 0 5 206.91 6.31
7 0 5 190.86 5.65
7 0 5 190.77 6.2
7 0 5 195.33 6.12
7 0 6 8.85 1.1
7 0 6 8.43 1.1
7 0 6 8.49 0.91
7 0 6 10.41 1.14
7 0 6 9.15 1.02
7 0 7 17.2 1.4
7 0 7 15.77 1.39
7 0 7 19.41 1.25
7 0 7 20.35 1.45
7 0 8 161.15 4.4
7 0 8 156.54 4.27
7 0 9 1.64 0.31
7 0 9 1.56 0.28
7 1 -9 37.81 1.56
7 1 -9 31.83 1.34
7 1 -8 58.54 2.41
7 1 -8 51.4 2.1
7 1 -7 3 0.64
7 1 -7 3.05 0.54
7 1 -7 3.39 0.62
7 1 -6 29.35 2.22
7 1 -6 24.67 1.71
7 1 -6 29.46 2.06
7 1 -6 29.87 2.09
7 1 -5 75.11 3.49
7 1 -5 67.66 3.53
7 1 -5 74.11 3.76
7 1 -5 67.42 3.33
7 1 -5 75.11 3.61
7 1 -4 59.29 3.08
7 1 -4 51.17 2.93
7 1 -4 56.24 3.38
7 1 -4 51.28 2.87
7 1 -4 52.98 3.07
7 1 -3 2.34 0.65
7 1 -3 2.37 0.6
7 1 -3 2.41 0.84
7 1 -3 1.96 0.66
7 1 -3 2.31 0.62
7 1 -2 4.85 0.71
7 1 -2 4.58 0.89
7 1 -2 5.14 0.82
7 1 -2 5.06 1.28
7 1 -2 4.48 0.91
7 1 -2 4.76 0.84
7 1 -1 61.72 3.19
7 1 -1 53.56 2.64
7 1 -1 64.26 4.17
7 1 -1 55.62 3.28
7 1 -1 60.5 3.06
7 1 -1 56.12 2.67
7 1 0 16.51 1.68
7 1 0 17.47 2.23
7 1 0 18.36 1.83
7 1 0 18.24 1.61
7 1 0 16.4 1.41
7 1 1 38.46 2.55
7 1 1 39.22 3.36
7 1 1 36.15 2.26
7 1 1 36.58 2.62
7 1 1 40.14 2.39
7 1 1 38.06 2.25
7 1 2 3.73 0.73
7 1 2 3.84 0.84
7 1 2 3.55 0.8
7 1 2 4.21 1.1
7 1 2 3.52 0.8
7 1 2 4.89 1.01
7 1 2 4.41 0.78
7 1 3 37.16 2.34
7 1 3 35.64 2.52
7 1 3 34.75 2.41
7 1 3 36.15 2.84
7 1 3 36.78 2.6
7 1 3 38.02 2.31
7 1 4 67.78 3.29
7 1 4 64.52 3.37
7 1 4 62.47 3.05
7 1 4 58.31 3.23
7 1 4 58.89 3.41
7 1 4 56.65 3.34
7 1 5 13.63 1.47
7 1 5 12.31 1.32
7 1 5 13.49 1.37
7 1 5 13.48 1.41
7 1 5 13.24 1.47
7 1 6 23.54 1.97
7 1 6 20.1 1.53
7 1 6 22.92 1.84
7 1 6 21.74 1.65
7 1 6 21.63 1.78
7 1 7 12.21 1.31
7 1 7 12.06 1.3
7 1 7 14.05 1.2
7 1 7 15.44 1.36
7 1 8 3 0.62
7 1 8 2.89 0.57
7 1 8 3.26 0.53
-7 -1 -8 2.69 0.47
7 1 8 3.63 0.61
7 1 9 119.12 3.47
7 1 9 103.5 3.17
7 1 9 116.21 3.17
-7 -1 -9 98.11 2.85
7 1 9 118.08 3.32
7 1 10 52.14 1.77
7 2 -9 10.96 0.78
7 2 -9 9.8 0.71
7 2 -8 0.18 0.2
7 2 -8 0.3 0.2
7 2 -7 108.4 4.02
7 2 -7 99.37 3.59
7 2 -6 98.16 4.25
7 2 -6 97.9 3.78
7 2 -6 90.63 3.59
7 2 -5 78.84 3.43
7 2 -5 67.88 3.58
7 2 -5 70.09 3.48
7 2 -5 65.2 3.19
7 2 -5 74.06 3.44
7 2 -5 77.59 3.74
7 2 -5 63.13 2.96
7 2 -4 130.59 4.76
7 2 -4 133.21 5.16
7 2 -4 131.77 5.31
7 2 -4 117.28 4.7
7 2 -4 127.88 5.13
7 2 -4 126.56 4.45
7 2 -3 53.01 2.87
7 2 -3 52.39 2.95
7 2 -3 56.92 3.45
7 2 -3 50.19 2.84
7 2 -3 46.73 2.99
7 2 -3 50.58 2.58
7 2 -2 127.37 4.67
7 2 -2 112.58 4.43
7 2 -2 126.57 5.59
7 2 -2 110.53 4.43
7 2 -2 114.03 4.94
7 2 -2 113.43 4.15
7 2 -1 264.01 7.32
7 2 -1 222.45 6.69
7 2 -1 258.38 8.76
7 2 -1 242.56 7.06
7 2 -1 207 7.27
7 2 -1 231.71 6.58
7 2 0 45.48 2.68
7 2 0 44.25 2.39
7 2 0 37.54 2.45
7 2 0 49.36 3.64
7 2 0 44 2.53
7 2 0 40.49 2.81
7 2 0 45.86 2.42
7 2 0 38.44 2.1
7 2 1 13.16 1.43
7 2 1 11.98 1.18
7 2 1 10.33 1.3
7 2 1 11.29 1.94
7 2 1 12.34 1.5
7 2 1 12.92 1.24
7 2 1 11.3 1.13
7 2 2 92.99 4.1
7 2 2 87.71 5.03
7 2 2 94.12 4.09
7 2 2 96.8 3.77
7 2 3 48.55 2.63
7 2 3 54.18 3.12
7 2 3 47.78 2.81
7 2 3 47.56 3.4
7 2 3 50.67 3.09
7 2 4 0.23 0.34
7 2 4 0.42 0.45
7 2 4 0.68 0.46
7 2 4 -0.31 0.51
7 2 4 0.16 0.43
7 2 5 54.69 2.99
7 2 5 58.1 3.23
7 2 5 60.02 3.15
7 2 5 55.19 3.15
7 2 5 55.93 3.23
7 2 6 -0.38 0.41
7 2 6 -0.02 0.32
7 2 6 -0.56 0.32
7 2 6 0.29 0.31
7 2 6 0.65 0.45
7 2 7 2.77 0.7
7 2 7 2.97 0.54
7 2 7 2.67 0.6
7 2 7 3 0.65
-7 -2 -7 2.07 0.59
7 2 7 3.07 0.67
7 2 8 28.64 1.95
7 2 8 35.71 1.73
7 2 8 28.9 1.8
7 2 8 36.67 1.96
-7 -2 -8 33.42 1.84
7 2 8 37.19 2.03
7 2 9 8.56 0.9
7 2 9 10.79 0.9
-7 -2 -9 9 0.82
7 2 9 10.51 0.92
7 2 10 11.52 0.86
7 2 10 11.99 0.77
-7 -2 -10 10.53 0.73
7 2 10 12.08 0.79
7 3 -9 4.85 0.46
7 3 -9 5.14 0.5
7 3 -8 2.62 0.44
7 3 -8 2.48 0.43
7 3 -7 152.93 4.62
7 3 -7 150.41 4.66
7 3 -6 9.79 1.15
7 3 -6 11.03 1.26
7 3 -6 10.22 1.09
7 3 -6 13.02 1.3
7 3 -5 129.35 4.74
7 3 -5 127.58 4.43
7 3 -5 134.11 5.32
7 3 -5 119 4.61
7 3 -5 123.5 4.62
7 3 -4 0.5 0.33
7 3 -4 0.25 0.27
7 3 -4 0.24 0.48
7 3 -4 0.18 0.33
7 3 -4 0.72 0.39
7 3 -4 -0.06 0.37
7 3 -3 1.32 0.47
7 3 -3 0.32 0.31
7 3 -3 0.38 0.36
7 3 -3 0.66 0.54
7 3 -3 1.53 0.63
7 3 -2 167.6 5.51
7 3 -2 185.32 5.98
7 3 -2 174.83 6.55
7 3 -2 151.82 5.96
7 3 -2 166.53 5.46
7 3 -1 29.99 2.05
7 3 -1 27.08 1.99
7 3 -1 25.55 2
7 3 -1 27.54 2.55
7 3 -1 24.75 2.15
7 3 -1 28.65 1.97
7 3 0 76.73 3.5
7 3 0 65.92 3.15
7 3 0 65.91 3.36
7 3 0 84.38 4.64
7 3 0 65.25 3.62
7 3 0 76.03 3.28
7 3 1 130.54 4.84
7 3 1 124.88 4.48
7 3 1 119.45 4.79
7 3 1 128.69 6.17
7 3 1 136.42 4.67
7 3 2 121.92 4.67
7 3 2 101.3 4.35
7 3 2 110.79 5.78
7 3 2 107.07 4.39
7 3 2 117.7 4.24
7 3 3 70.12 3.08
7 3 3 79.89 3.79
7 3 3 78.29 3.64
7 3 3 67.93 4.2
7 3 3 77.85 3.91
7 3 4 24.56 1.79
7 3 4 26.49 2.14
7 3 4 22.05 1.85
7 3 4 23.05 2.23
7 3 4 20.45 2.11
7 3 5 57.23 3.01
7 3 5 64.64 3.52
7 3 5 62.69 3.19
7 3 5 64.54 3.54
7 3 5 60.57 3.43
7 3 6 2.38 0.63
7 3 6 3.58 0.82
7 3 6 3.97 0.81
7 3 6 3.6 0.72
7 3 6 3.77 0.8
7 3 7 2.33 0.62
7 3 7 1.41 0.47
7 3 7 1.81 0.62
7 3 7 2.14 0.58
7 3 8 1.12 0.45
7 3 8 1.3 0.36
7 3 8 1.34 0.41
7 3 8 1.71 0.53
7 3 9 0.58 0.31
7 3 9 0.53 0.24
7 3 9 0.93 0.29
-7 -3 -9 1.21 0.4
7 3 9 0.77 0.33
7 3 10 0.16 0.16
7 3 10 0.62 0.22
-7 -3 -10 0.67 0.23
7 3 10 0.31 0.16
7 4 -8 18.76 1.05
7 4 -8 18.7 1.1
7 4 -8 19.1 1.12
7 4 -7 26.32 1.65
7 4 -7 26.81 1.53
7 4 -7 25.93 1.53
7 4 -6 86.27 3.83
7 4 -6 84.88 3.34
7 4 -5 32.53 2.3
7 4 -5 38.29 2.43
7 4 -5 32.45 2.11
7 4 -4 7.23 1.08
7 4 -4 5.98 1.05
7 4 -4 5.45 0.9
7 4 -4 6.29 0.92
7 4 -4 7.34 1.05
7 4 -3 0.82 0.35
7 4 -3 0.87 0.45
7 4 -3 0.34 0.37
7 4 -3 0.5 0.28
7 4 -3 0.58 0.38
7 4 -3 0.76 0.35
7 4 -2 8.57 1.04
7 4 -2 9.66 1.25
7 4 -2 8.18 1.14
7 4 -2 7.89 1.25
7 4 -2 8.93 1.28
7 4 -2 8.97 1.1
7 4 -1 20.05 1.68
7 4 -1 24 1.91
7 4 -1 17.65 1.69
7 4 -1 22.56 2.15
7 4 -1 22.91 2.08
7 4 -1 21.58 1.77
7 4 0 75.59 3.41
7 4 0 81.63 3.6
7 4 0 71.41 3.57
7 4 0 87.93 4.56
7 4 0 82.74 3.58
7 4 1 7.44 1.01
7 4 1 6.3 0.93
7 4 1 6.61 0.93
7 4 1 6.25 1
7 4 1 8.46 1.52
7 4 2 144.28 5.23
7 4 2 145.88 5.34
7 4 2 157.66 7.01
7 4 2 146.88 5.23
7 4 2 163.88 5.25
7 4 3 22.36 1.87
7 4 3 21.73 1.81
7 4 3 19.73 2.27
7 4 3 21.44 1.93
7 4 4 0.38 0.32
7 4 4 0.82 0.42
7 4 4 0.8 0.63
7 4 4 0.2 0.37
7 4 5 17.8 1.45
7 4 5 18.95 1.88
7 4 5 20.68 1.73
7 4 5 19.91 1.96
7 4 5 18.95 1.86
7 4 6 0.29 0.21
7 4 6 0.14 0.33
7 4 6 0.56 0.4
7 4 6 0.49 0.27
7 4 6 0.14 0.31
7 4 7 0.33 0.23
7 4 7 1.41 0.54
7 4 7 1.98 0.57
7 4 7 2.03 0.62
7 4 8 6.89 0.99
7 4 8 7.47 0.93
7 4 8 7.66 0.99
7 4 9 6.07 0.69
7 4 9 4.46 0.69
7 4 9 5.65 0.71
7 4 9 5.88 0.73
7 4 10 4.14 0.54
7 4 10 3.98 0.43
7 4 10 3.87 0.46
-7 -4 -10 5 0.6
7 4 10 4.54 0.54
7 5 -8 24.11 1.11
7 5 -8 31.6 1.29
7 5 -7 36.25 1.54
7 5 -7 39.4 1.85
7 5 -6 10.61 0.96
7 5 -6 10.73 0.99
7 5 -5 3.84 0.8
7 5 -5 3.87 0.69
7 5 -5 3.32 0.61
7 5 -4 17.31 1.58
7 5 -4 17.37 1.45
7 5 -4 16.04 1.45
7 5 -4 20.15 1.75
7 5 -3 22.75 1.93
7 5 -3 21.44 1.84
7 5 -3 22.1 1.81
7 5 -3 22.17 1.83
7 5 -2 15.84 1.6
7 5 -2 12.4 1.41
7 5 -2 14.09 1.55
7 5 -2 14.76 1.49
7 5 -1 0.07 0.21
7 5 -1 0.23 0.34
7 5 -1 0.51 0.28
7 5 -1 0.49 0.35
7 5 -1 0.32 0.37
7 5 0 8.13 1.01
7 5 0 10.32 1.24
7 5 0 8.83 1.17
7 5 0 8.15 1.39
7 5 0 11.17 1.24
7 5 1 10.46 1.12
7 5 1 10.93 1.31
7 5 1 12.71 1.73
7 5 1 9.67 1.16
7 5 2 2.84 0.65
7 5 2 2.6 0.67
7 5 2 1.88 0.49
7 5 2 4.08 1.16
7 5 3 28.31 2.02
7 5 3 27.62 2.02
7 5 3 28.03 2.82
7 5 3 26.72 2.11
7 5 4 93.37 4.06
7 5 4 84.9 3.7
7 5 4 86.98 4.66
7 5 4 88.31 4.34
7 5 5 -0.13 0.45
7 5 5 0.64 0.42
7 5 5 0.27 0.39
7 5 5 0.36 0.35
7 5 6 7.71 1.17
7 5 6 7.21 0.99
7 5 6 7.28 1.09
7 5 6 7.36 1.08
7 5 7 69.68 3.51
7 5 7 79.48 3.31
7 5 7 76.71 3.3
7 5 7 80.07 3.48
7 5 8 1.97 0.5
7 5 8 2.12 0.55
7 5 8 1.75 0.51
7 5 8 2.34 0.57
7 5 9 13.54 1.06
7 5 9 10.6 0.93
7 5 9 13.32 1.09
7 5 10 1.91 0.31
7 5 10 2.23 0.36
7 5 10 1.96 0.29
-7 -5 -10 2.66 0.46
7 5 10 2.66 0.41
7 6 -7 24.56 1.14
7 6 -7 30.37 1.33
7 6 -6 1.99 0.41
7 6 -6 1.92 0.39
7 6 -5 37.24 1.81
7 6 -5 34.67 1.65
7 6 -5 32.09 1.76
7 6 -5 37.37 2.15
7 6 -4 5.09 0.84
7 6 -4 4.2 0.68
7 6 -4 4.83 0.74
7 6 -4 4.04 0.66
7 6 -3 63.28 3.03
7 6 -3 62.3 3.26
7 6 -3 57.66 2.65
7 6 -3 68.14 3.18
7 6 -2 11.66 1.29
7 6 -2 9 1.22
7 6 -2 8.15 1.08
7 6 -2 11.04 1.24
7 6 -1 1.96 0.6
7 6 -1 2.49 0.64
7 6 -1 2.1 0.67
7 6 0 2.1 0.56
7 6 0 2.6 0.66
7 6 0 1.93 0.65
7 6 1 17.66 1.35
7 6 1 20.45 1.76
7 6 1 18.93 2.05
7 6 1 18.7 1.55
7 6 2 66.47 2.93
7 6 2 69.53 3.3
7 6 2 69.34 4.21
7 6 2 73.4 3.2
7 6 3 50.21 2.57
7 6 3 48.53 2.69
7 6 3 52.48 3.8
7 6 3 50.66 2.85
7 6 4 181.99 5.75
7 6 4 189.75 5.75
7 6 4 171.79 6.97
7 6 4 176.53 6.35
7 6 5 39.68 2.44
7 6 5 42.5 2.32
7 6 5 39.16 2.79
7 6 5 38.12 2.61
-7 -6 -6 49.86 2.33
7 6 6 55.7 2.98
7 6 6 49.41 2.48
7 6 6 49.39 2.87
7 6 6 53.79 2.9
-7 -6 -7 79.61 2.97
7 6 7 84.26 3.86
7 6 7 84.58 3.22
7 6 7 84.93 3.44
7 6 7 88.17 3.54
7 6 8 22.41 1.63
7 6 8 21.3 1.43
7 6 8 22.92 1.38
7 6 8 25.74 1.63
7 6 9 3.16 0.52
7 6 9 2.47 0.41
7 6 9 3.05 0.5
7 6 10 60.19 1.95
-7 -6 -10 54.57 1.95
7 6 10 54.12 1.89
7 7 -6 3.91 0.43
7 7 -5 3.93 0.45
7 7 -5 4 0.5
7 7 -5 4.26 0.57
7 7 -4 12.62 1.04
7 7 -4 10.73 0.92
7 7 -4 12.76 1.13
7 7 -3 47.78 2.5
7 7 -3 43.62 2.07
7 7 -3 50.6 2.46
7 7 -2 5.56 0.81
7 7 -2 5.63 0.9
7 7 -1 0.36 0.3
7 7 -1 0.38 0.26
7 7 0 4.85 0.74
7 7 0 5.92 0.93
7 7 0 6.4 0.98
7 7 1 58.66 2.96
7 7 1 54.7 3.16
7 7 1 58.78 2.69
7 7 2 57.8 2.84
7 7 2 56.5 3.46
7 7 3 15.66 1.23
7 7 3 19.43 1.54
7 7 3 18.09 2.04
7 7 4 32.82 1.9
7 7 4 36.02 2.1
7 7 4 36.06 2.91
7 7 4 37.3 2.37
7 7 5 0.57 0.33
7 7 5 -0.02 0.24
7 7 5 0.61 0.43
7 7 5 0.16 0.29
-7 -7 -6 79.61 3.03
7 7 6 74.55 3.19
7 7 6 78.97 2.98
7 7 6 84.85 3.67
7 7 6 76.71 3.4
-7 -7 -7 14.84 1.15
7 7 7 15.97 1.38
7 7 7 18.68 1.26
7 7 7 18.56 1.42
7 7 7 19.05 1.44
-7 -7 -8 110.13 3.21
7 7 8 104.22 3.56
7 7 8 111.55 3.29
7 7 8 116.67 3.57
7 7 9 52.75 2.01
7 7 9 53.56 1.98
7 8 -4 7.35 0.61
7 8 -3 149.91 4.25
7 8 -3 150.09 4.02
7 8 -2 13.35 1.23
7 8 -2 16.3 1.16
7 8 -1 0.97 0.34
7 8 -1 1.21 0.45
7 8 0 83.53 3.34
7 8 0 88.68 3.08
7 8 1 3.27 0.59
7 8 1 2.17 0.57
7 8 2 60.1 2.6
7 8 2 52.95 2.85
7 8 3 39.5 2.05
7 8 3 44.91 2.74
7 8 4 23.7 1.47
7 8 4 23.19 2.05
7 8 5 12.95 0.96
7 8 5 14.01 1.06
7 8 5 14.25 1.48
7 8 5 12.82 1.19
-7 -8 -6 2.51 0.48
7 8 6 1.97 0.42
7 8 6 2.07 0.39
7 8 6 2.64 0.62
7 8 6 2.67 0.53
-7 -8 -7 29.38 1.52
7 8 7 27.59 1.47
7 8 7 27.53 1.25
7 8 8 6.6 0.6
7 8 8 7.71 0.66
7 9 -2 91.1 2.68
7 9 -1 37.23 1.77
7 9 0 23.07 1.37
-7 -9 0 18.74 1.11
-7 -9 -1 133.86 3.78
7 9 1 143.56 4.03
7 9 2 3.29 0.51
-7 -9 -2 2.28 0.35
7 9 2 2.69 0.5
7 9 3 -0.01 0.17
7 9 3 0.05 0.23
7 9 4 89.68 2.68
7 9 4 85.08 3.37
-7 -9 -5 1.27 0.32
7 9 5 2.02 0.47
-7 -9 -6 0.22 0.16
7 9 6 -0.12 0.21
8 -2 -3 77.77 2.53
8 -2 -2 1.09 0.29
8 -2 -2 1.12 0.34
8 -2 -2 0.9 0.31
8 -2 -1 52.24 2.09
8 -2 -1 49.23 2.15
8 -2 -1 51.09 1.96
8 -2 0 0.46 0.23
8 -2 0 0.67 0.29
8 -2 0 0.18 0.17
8 -2 1 81.85 2.73
8 -2 1 77.9 2.77
8 -2 1 85.53 2.71
8 -2 2 18.7 1.1
8 -1 -5 52.66 1.99
8 -1 -5 57.37 2.06
8 -1 -4 8.37 0.82
8 -1 -4 8.43 0.82
8 -1 -3 23.29 1.43
8 -1 -3 24.69 1.55
8 -1 -3 21.96 1.21
8 -1 -2 42.74 2.09
8 -1 -2 46.41 2.28
8 -1 -2 42.23 1.84
8 -1 -1 0.79 0.29
8 -1 -1 1.17 0.43
8 -1 -1 1.13 0.34
8 -1 0 1.59 0.44
8 -1 0 1.25 0.43
8 -1 0 1.69 0.4
8 -1 1 418.08 9.57
8 -1 1 428.47 9.3
8 -1 2 33.41 1.87
8 -1 2 35.58 1.88
8 -1 2 37.76 1.85
8 -1 3 44.45 1.99
8 -1 3 47.28 2.06
8 -1 4 9.77 0.79
8 -1 4 11.79 0.92
8 0 -6 1.26 0.27
8 0 -5 0.08 0.19
8 0 -5 0 0.19
8 0 -4 40.42 2.01
8 0 -4 44.06 2.16
8 0 -3 3.24 0.62
8 0 -3 2.94 0.55
8 0 -2 35.88 2.18
8 0 -2 32.55 1.89
8 0 -2 34.66 2.09
8 0 -2 34.22 1.68
8 0 -1 9.82 1.11
8 0 -1 10.73 1.07
8 0 -1 8.48 1.08
8 0 -1 8.78 0.85
8 0 0 9.62 1.12
8 0 0 12 1.52
8 0 0 9.6 1.03
8 0 0 9.25 1.13
8 0 0 10.47 0.95
8 0 1 4.93 0.68
8 0 1 3.83 0.71
8 0 1 4.67 0.79
8 0 1 4.66 0.72
8 0 2 62.73 2.85
8 0 2 65.06 2.6
8 0 2 72.92 3.16
8 0 2 74.69 3.02
8 0 2 79.61 2.95
8 0 3 4.5 0.68
8 0 3 3.53 0.58
8 0 3 3.85 0.62
8 0 3 4.72 0.69
8 0 4 0.08 0.19
8 0 4 0.79 0.35
8 0 5 6.93 0.72
8 0 5 7.29 0.79
8 0 6 1.37 0.32
8 0 6 1.08 0.26
8 1 -6 5.33 0.57
8 1 -6 6.39 0.66
8 1 -5 0.43 0.28
8 1 -5 0.16 0.24
8 1 -5 -0.05 0.24
8 1 -4 0.11 0.15
8 1 -4 -0.27 0.32
8 1 -4 0.15 0.21
8 1 -3 3.13 0.63
8 1 -3 2.94 0.49
8 1 -3 3.66 0.82
8 1 -3 3.18 0.64
8 1 -3 1.91 0.52
8 1 -2 31.87 2.02
8 1 -2 29.55 2.35
8 1 -2 27.31 1.78
8 1 -2 28.04 1.96
8 1 -1 3.9 0.56
8 1 -1 3.67 0.75
8 1 -1 4.07 1
8 1 -1 3.67 0.75
8 1 -1 3.32 0.63
8 1 0 15.11 1.46
8 1 0 16.44 1.91
8 1 0 13.69 1.24
8 1 0 11.4 1.31
8 1 0 13.11 1.06
8 1 1 0.08 0.18
8 1 1 0.54 0.36
8 1 1 -0.65 0.51
8 1 1 -0.26 0.39
8 1 1 0.44 0.29
8 1 2 43.03 2.5
8 1 2 48.56 2.98
8 1 2 44.59 2.14
8 1 2 47.02 2.55
8 1 2 51.48 2.32
8 1 3 53.12 2.67
8 1 3 50.18 2.8
8 1 3 51.91 2.46
8 1 3 55.96 2.5
8 1 4 3.97 0.64
8 1 4 3.67 0.59
8 1 4 2.69 0.46
8 1 4 3.03 0.59
8 1 4 3.94 0.69
8 1 5 0.28 0.23
8 1 5 0.19 0.21
8 1 5 0.07 0.14
8 1 5 0.25 0.24
8 1 6 23.69 1.2
8 1 6 27.28 1.48
8 1 6 24.7 1.45
8 1 7 2.3 0.4
8 1 7 2.62 0.41
8 2 -6 0.43 0.24
8 2 -5 0.3 0.25
8 2 -5 0.21 0.19
8 2 -4 19.37 1.43
8 2 -4 19.51 1.49
8 2 -4 20.97 1.63
8 2 -4 19.84 1.36
8 2 -4 22.47 1.63
8 2 -3 0.33 0.25
8 2 -3 -0.36 0.21
8 2 -3 0.26 0.39
8 2 -3 -0.07 0.27
8 2 -3 0.35 0.24
8 2 -2 0.21 0.26
8 2 -2 0.47 0.33
8 2 -2 -0.56 0.52
8 2 -2 0.13 0.25
8 2 -2 -0.61 0.37
8 2 -1 8.74 1.07
8 2 -1 8.9 0.9
8 2 -1 9.72 1.39
8 2 -1 7.52 1.04
8 2 0 2.67 0.63
8 2 0 4.1 1.09
8 2 0 2 0.59
8 2 1 3.1 0.53
8 2 1 3.29 0.74
8 2 1 3.43 0.92
8 2 1 3.68 0.78
8 2 2 88.98 3.7
8 2 2 97.3 4.64
8 2 2 96.84 3.34
8 2 3 1.05 0.38
8 2 3 0.5 0.35
8 2 3 0.46 0.22
8 2 3 0.49 0.35
8 2 3 0.66 0.31
8 2 4 49.29 2.58
8 2 4 45.52 2.33
8 2 4 47.08 2.62
8 2 4 45.03 2.43
8 2 4 49.32 2.32
8 2 5 200.83 5.61
8 2 5 207.49 5.53
8 2 5 213.83 5.76
8 2 6 2.5 0.55
8 2 6 1.98 0.39
8 2 6 2.12 0.43
8 2 6 2.03 0.44
8 2 7 74.53 2.36
8 2 7 74.19 2.54
8 2 8 1.12 0.22
8 2 8 1.37 0.29
8 3 -6 20.01 1.19
8 3 -5 1.56 0.41
8 3 -4 30.6 1.72
8 3 -4 31.03 1.97
8 3 -4 35.14 2.04
8 3 -4 38.26 2.05
8 3 -4 35.81 1.79
8 3 -3 11.53 1.12
8 3 -3 13.3 1.28
8 3 -3 11.96 1.29
8 3 -3 13.89 1.31
8 3 -3 12.16 1.06
8 3 -2 7.57 0.94
8 3 -2 7.6 0.95
8 3 -2 8.03 1.16
8 3 -2 7.05 0.98
8 3 -2 7.9 0.87
8 3 -1 26.14 1.78
8 3 -1 27.04 1.75
8 3 -1 23.99 2.15
8 3 -1 23.37 1.86
8 3 -1 26.3 1.66
8 3 0 126.28 4.43
8 3 0 115.09 4.5
8 3 1 0.24 0.32
8 3 1 0.05 0.25
8 3 1 1.01 0.72
8 3 2 34.08 2.13
8 3 2 31.9 2.65
8 3 3 70.88 3.18
8 3 3 64.02 3.6
8 3 3 64.58 2.87
8 3 4 0.78 0.31
8 3 4 0.96 0.43
8 3 4 0.76 0.35
8 3 4 0.37 0.33
8 3 4 0.72 0.27
8 3 5 3.16 0.57
8 3 5 2.4 0.56
8 3 5 2.91 0.63
8 3 5 3.55 0.66
8 3 5 1.71 0.42
8 3 6 48.79 2.22
8 3 6 44.86 2.2
8 3 6 43.81 2.13
8 3 7 3.3 0.53
8 3 7 4.14 0.51
8 3 7 4.81 0.6
8 3 7 2.9 0.5
8 3 8 5.8 0.54
8 3 8 5.87 0.59
8 4 -6 76.39 2.41
8 4 -5 69.77 2.64
8 4 -5 68.05 2.54
8 4 -4 105 3.5
8 4 -4 99.84 3.6
8 4 -3 40.9 1.97
8 4 -3 45.99 2.42
8 4 -3 42.2 2.2
8 4 -2 7.48 0.88
8 4 -2 10.55 1.14
8 4 -2 9.25 1.2
8 4 -2 10.33 1.06
8 4 -1 30.45 1.84
8 4 -1 37.08 2.14
8 4 -1 33.29 2.01
8 4 -1 31.36 2.33
8 4 -1 36.35 2.01
8 4 0 108.99 3.91
8 4 0 117.88 5.05
8 4 0 121.96 4.02
8 4 1 3.05 0.63
8 4 1 2.06 0.56
8 4 1 3.35 0.95
8 4 2 41.95 2.38
8 4 2 35.43 2.19
8 4 2 39.17 3.03
8 4 3 3.92 0.75
8 4 3 4.15 0.75
8 4 3 4.08 0.91
8 4 4 36.49 2.26
8 4 4 35.45 2.11
8 4 4 35.64 2.43
8 4 4 34.81 2.1
8 4 5 31.07 2.07
8 4 5 29.92 1.85
8 4 5 25.16 1.82
8 4 5 23.32 1.69
8 4 6 52.56 2.49
8 4 6 53.55 2.33
8 4 6 52.46 2.42
8 4 7 24.41 1.41
-8 -4 -7 20.78 1.19
8 4 7 23.25 1.39
8 4 8 0.18 0.14
8 4 8 -0.03 0.13
8 4 8 -0.06 0.22
8 5 -5 29.28 1.45
8 5 -4 9.76 0.99
8 5 -3 71.11 2.82
8 5 -3 79.33 3.12
8 5 -2 17.28 1.27
8 5 -2 17.5 1.45
8 5 -2 19.79 1.48
8 5 -1 38.8 1.91
8 5 -1 38.76 2.2
8 5 -1 44.8 2.59
8 5 0 62.7 2.61
8 5 0 60.99 2.92
8 5 1 7.75 0.89
8 5 1 7.93 0.97
8 5 1 9.49 1.33
8 5 2 0.89 0.33
8 5 2 0.25 0.24
8 5 2 0.54 0.45
8 5 3 109.96 4.01
8 5 3 106.13 4.89
8 5 4 9.67 1.12
8 5 4 10.73 1.11
8 5 4 10.21 1.25
8 5 4 9.7 1.01
8 5 5 3.93 0.72
8 5 5 6.27 0.81
8 5 5 5.72 0.87
8 5 5 4.21 0.69
8 5 6 1.72 0.47
8 5 6 1.24 0.42
8 5 6 1.39 0.4
8 5 6 1.5 0.43
8 5 7 1.31 0.37
8 5 7 0.87 0.33
8 5 7 0.94 0.28
8 5 8 2.68 0.38
8 5 8 2.29 0.36
8 5 8 2.44 0.38
8 6 -4 33.43 1.61
8 6 -3 0.26 0.21
8 6 -2 -0.13 0.33
8 6 -2 0.29 0.28
8 6 -2 0.15 0.24
8 6 -1 75.23 3.2
8 6 -1 77.28 3.24
8 6 0 9.71 1.09
8 6 0 12.26 1.28
8 6 0 13.4 1.15
8 6 1 14.05 1.05
8 6 1 14.91 1.33
8 6 1 16.4 1.61
8 6 2 56.06 2.34
8 6 2 58.42 2.68
8 6 2 57.7 3.3
8 6 3 263.39 6.67
8 6 3 254.21 8.21
8 6 4 0.83 0.33
8 6 4 0.13 0.23
8 6 4 0.32 0.33
8 6 5 33.34 1.91
8 6 5 38.41 1.93
8 6 5 38.06 2.18
8 6 5 35.06 1.91
8 6 6 10.79 1.04
8 6 6 12.22 1.03
8 6 6 10.38 0.95
8 6 6 10.36 0.94
8 6 7 0.09 0.19
8 6 7 0.46 0.24
8 6 7 0.08 0.15
8 7 -3 17.5 1.04
8 7 -2 38.39 1.66
8 7 -2 47.07 1.99
8 7 -1 2.26 0.46
8 7 -1 2.18 0.42
8 7 0 1.47 0.39
8 7 0 0.61 0.26
8 7 1 37.41 2
8 7 1 33.98 2.04
8 7 2 0.26 0.26
8 7 2 -0.18 0.33
8 7 3 11.77 0.85
8 7 3 15.32 1.17
8 7 3 14.62 1.45
8 7 4 234.06 5.52
8 7 4 305.96 6.3
8 7 4 266.88 7.08
8 7 5 12.47 0.92
8 7 5 14.79 1.05
8 7 5 13.67 1.21
8 7 6 1.98 0.37
8 7 6 2.04 0.38
8 7 6 1.58 0.35
8 8 0 0.98 0.28
8 8 1 38.21 1.74
8 8 2 5.51 0.64
8 8 2 4.68 0.64
8 8 3 6.32 0.65
8 8 3 6.56 0.77
8 8 4 0.54 0.21
8 8 4 0.67 0.37
9 2 -1 17.59 1.15
9 2 0 3.89 0.57
9 2 1 2.41 0.43
9 2 2 28.46 1.51
9 3 -1 6.19 0.66
9 3 -1 7.41 0.86
9 3 0 44.81 1.97
9 3 0 48.76 2.39
9 3 1 3.55 0.58
9 3 1 3.4 0.68
9 3 2 2.54 0.49
9 3 2 2.79 0.57
9 3 3 13.2 1.02
9 4 -1 30.88 1.65
9 4 0 4.8 0.54
9 4 0 7.11 0.86
9 4 1 28.38 1.49
9 4 1 33.28 1.97
9 4 2 11.13 0.93
9 4 2 11.19 1.09
9 4 3 0.32 0.19
9 4 3 -0.15 0.23
9 4 4 61.5 2.26
9 5 0 43.13 1.98
9 5 1 3.41 0.63
9 5 2 30.28 1.81
loop_
_exptl_oxdiff_crystal_face_indexfrac_h
_exptl_oxdiff_crystal_face_indexfrac_k
_exptl_oxdiff_crystal_face_indexfrac_l
_exptl_oxdiff_crystal_face_x
_exptl_oxdiff_crystal_face_y
_exptl_oxdiff_crystal_face_z
4.4266 -0.0859 -1.3739 0.0890 0.2541 0.9631
-0.1838 -5.4382 1.1326 0.3326 0.9411 -0.0604
-4.4747 -0.1708 1.4397 -0.0740 -0.2118 -0.9745
0.1511 5.4303 -1.1208 -0.3327 -0.9415 0.0533
-0.0046 -0.6786 7.8555 0.9648 0.0763 -0.2517
-4.7190 -1.2522 -0.5368 -0.2828 -0.0235 -0.9589
-0.0666 0.6593 -7.8588 -0.9685 -0.0766 0.2371
