#------------------------------------------------------------------------------
#$Date: 2021-11-24 12:20:24 +0200 (Wed, 24 Nov 2021) $
#$Revision: 270857 $
#$URL: file:///home/coder/svn-repositories/cod/cif/1/56/53/1565398.cif $
#------------------------------------------------------------------------------
#
# This file is available in the Crystallography Open Database (COD),
# http://www.crystallography.net/
#
# All data on this site have been placed in the public domain by the
# contributors.
#
data_1565398
loop_
_publ_author_name
'Adonin, Sergey A.'
'Novikov, Alexander S.'
'Chernova, Katerina V.'
'Vinnik, Denis A.'
'Taskaev, Sergey V.'
'Korolkov, Ilya V.'
'Ilyina, Ekaterina V.'
'Pavlov, Alexander A.'
'Novikov, Valentin V.'
'Sokolov, Maxim N.'
'Fedin, Vladimir P.'
_publ_section_title
;
 Heteroleptic copper(II) complexes with 2-bromo-5-methylpyridine:
 Structures, features of non-covalent interactions and magnetic behavior
;
_journal_name_full               'Inorganica Chimica Acta'
_journal_page_first              119333
_journal_paper_doi               10.1016/j.ica.2019.119333
_journal_volume                  502
_journal_year                    2020
_chemical_formula_sum            'C12 H12 Br4 Cu N2'
_chemical_formula_weight         567.42
_space_group_crystal_system      monoclinic
_space_group_IT_number           14
_space_group_name_Hall           '-P 2ybc'
_space_group_name_H-M_alt        'P 1 21/c 1'
_atom_sites_solution_hydrogens   geom
_audit_creation_method           SHELXL-2014/7
_cell_angle_alpha                90
_cell_angle_beta                 106.482(8)
_cell_angle_gamma                90
_cell_formula_units_Z            2
_cell_length_a                   6.1145(4)
_cell_length_b                   12.9037(7)
_cell_length_c                   10.6274(8)
_cell_measurement_reflns_used    1800
_cell_measurement_temperature    130(2)
_cell_measurement_theta_max      28.4040
_cell_measurement_theta_min      3.9660
_cell_volume                     804.04(10)
_computing_cell_refinement       'CrysAlisPro 1.171.38.46 (Rigaku OD, 2015)'
_computing_data_collection       'CrysAlisPro 1.171.38.46 (Rigaku OD, 2015)'
_computing_data_reduction        'CrysAlisPro 1.171.38.46 (Rigaku OD, 2015)'
_computing_structure_refinement  'SHELXL-2014/7 (Sheldrick, 2014)'
_diffrn_ambient_temperature      130(2)
_diffrn_detector_area_resol_mean 10.6168
_diffrn_measured_fraction_theta_full 0.960
_diffrn_measured_fraction_theta_max 0.818
_diffrn_measurement_device_type  'New Xcalibur, AtlasS2'
_diffrn_measurement_method       '\w scans'
_diffrn_radiation_type           MoK\a
_diffrn_radiation_wavelength     0.71073
_diffrn_reflns_av_R_equivalents  0.0170
_diffrn_reflns_av_unetI/netI     0.0256
_diffrn_reflns_Laue_measured_fraction_full 0.960
_diffrn_reflns_Laue_measured_fraction_max 0.818
_diffrn_reflns_limit_h_max       7
_diffrn_reflns_limit_h_min       -6
_diffrn_reflns_limit_k_max       12
_diffrn_reflns_limit_k_min       -16
_diffrn_reflns_limit_l_max       14
_diffrn_reflns_limit_l_min       -13
_diffrn_reflns_number            3702
_diffrn_reflns_point_group_measured_fraction_full 0.960
_diffrn_reflns_point_group_measured_fraction_max 0.818
_diffrn_reflns_theta_full        25.500
_diffrn_reflns_theta_max         28.864
_diffrn_reflns_theta_min         2.547
_diffrn_source                   'fine-focus sealed X-ray tube'
_exptl_absorpt_coefficient_mu    11.284
_exptl_absorpt_correction_T_max  1.00000
_exptl_absorpt_correction_T_min  0.57151
_exptl_absorpt_correction_type   multi-scan
_exptl_absorpt_process_details
;
CrysAlisPro 1.171.39.46 (Rigaku Oxford Diffraction, 2018)
Empirical absorption correction using spherical harmonics,
 implemented in SCALE3 ABSPACK scaling algorithm.
;
_exptl_crystal_colour            brown
_exptl_crystal_density_diffrn    2.344
_exptl_crystal_description       block
_exptl_crystal_F_000             534
_exptl_crystal_size_max          0.290
_exptl_crystal_size_mid          0.140
_exptl_crystal_size_min          0.100
_refine_diff_density_max         0.361
_refine_diff_density_min         -0.522
_refine_diff_density_rms         0.092
_refine_ls_extinction_coef       .
_refine_ls_extinction_method     none
_refine_ls_goodness_of_fit_ref   1.064
_refine_ls_hydrogen_treatment    constr
_refine_ls_matrix_type           full
_refine_ls_number_parameters     89
_refine_ls_number_reflns         1734
_refine_ls_number_restraints     0
_refine_ls_restrained_S_all      1.064
_refine_ls_R_factor_all          0.0244
_refine_ls_R_factor_gt           0.0201
_refine_ls_shift/su_max          0.001
_refine_ls_shift/su_mean         0.000
_refine_ls_structure_factor_coef Fsqd
_refine_ls_weighting_details
'w=1/[\s^2^(Fo^2^)+(0.0218P)^2^+0.2566P] where P=(Fo^2^+2Fc^2^)/3'
_refine_ls_weighting_scheme      calc
_refine_ls_wR_factor_gt          0.0468
_refine_ls_wR_factor_ref         0.0488
_reflns_Friedel_coverage         0.000
_reflns_Friedel_fraction_full    .
_reflns_Friedel_fraction_max     .
_reflns_number_gt                1569
_reflns_number_total             1734
_reflns_threshold_expression     'I > 2\s(I)'
_cod_data_source_file            ICA-2020-502-119333.cif
_cod_data_source_block           SA2280_a
_cod_original_sg_symbol_H-M      'P 21/c'
_cod_database_code               1565398
_shelx_shelxl_version_number     2014/7
_shelx_space_group_comment
;
The symmetry employed for this shelxl refinement is uniquely defined
by the following loop, which should always be used as a source of
symmetry information in preference to the above space-group names.
They are only intended as comments.
;
_shelx_estimated_absorpt_t_min   0.138
_shelx_estimated_absorpt_t_max   0.398
_shelx_res_file
;

    SA2280_a.res created by SHELXL-2014/7


TITL SA2280_a.res in P2(1)/c
REM Old TITL SA2280 in P2(1)/c

REM SHELXT solution in P2(1)/c
REM R1 0.062,  Rweak 0.023,  Alpha 0.019,  Orientation as input
REM Formula found by SHELXT:  C12 N2 Cu Br4

CELL  0.71073   6.1145  12.9037  10.6274   90.000  106.482   90.000
ZERR   2.000   0.0004   0.0007   0.0008    0.000    0.008    0.000
LATT  1
SYMM -X, 1/2+Y, 1/2-Z
SFAC C H N CU BR
UNIT 24 24 4 2 8
SIZE 0.10 0.14 0.29
TEMP -143
L.S. 10
BOND $H
LIST 6
FMAP 2
PLAN 10
ACTA 51
WGHT    0.021800    0.256600
FVAR       0.47155
C1    1    0.500921    0.299414    0.380242    11.00000    0.01377    0.02256 =
         0.01445   -0.00111    0.00140   -0.00042
C2    1    0.460033    0.194827    0.357081    11.00000    0.02451    0.02261 =
         0.02077   -0.00535    0.00196    0.00580
AFIX  43
H2    2    0.531100    0.157114    0.302677    11.00000   -1.20000
AFIX   0
C3    1    0.312489    0.147181    0.415716    11.00000    0.02340    0.01499 =
         0.02460   -0.00080   -0.00173    0.00079
AFIX  43
H3    2    0.281740    0.075230    0.402271    11.00000   -1.20000
AFIX   0
C4    1    0.208004    0.203458    0.494491    11.00000    0.01776    0.01810 =
         0.01960    0.00392    0.00008    0.00002
C5    1    0.044550    0.154512    0.558714    11.00000    0.02816    0.02324 =
         0.03045    0.00556    0.00649   -0.00528
AFIX 137
H5A   2    0.129287    0.111678    0.632655    11.00000   -1.50000
H5B   2   -0.064052    0.111081    0.494805    11.00000   -1.50000
H5C   2   -0.038357    0.208802    0.590634    11.00000   -1.50000
AFIX   0
C6    1    0.261009    0.307571    0.511827    11.00000    0.01439    0.01821 =
         0.01549    0.00060    0.00252    0.00081
AFIX  43
H6    2    0.190896    0.347473    0.564781    11.00000   -1.20000
AFIX   0
N1    3    0.407912    0.355088    0.456895    11.00000    0.01419    0.01538 =
         0.01590    0.00098    0.00439   -0.00048
CU1   4    0.500000    0.500000    0.500000    10.50000    0.01521    0.01393 =
         0.01485    0.00020    0.00491   -0.00114
BR1   5    0.175107    0.559342    0.327216    11.00000    0.01821    0.01922 =
         0.01820    0.00161    0.00275   -0.00011
BR2   5    0.703038    0.372139    0.306338    11.00000    0.02341    0.03560 =
         0.02370    0.00203    0.01339    0.00107
HKLF 4

REM  SA2280_a.res in P2(1)/c
REM R1 =  0.0201 for    1569 Fo > 4sig(Fo)  and  0.0244 for all    1734 data
REM     89 parameters refined using      0 restraints

END

WGHT      0.0218      0.2474

REM Highest difference peak  0.361,  deepest hole -0.522,  1-sigma level  0.092
Q1    1   0.1772  0.4910  0.3325  11.00000  0.05    0.36
Q2    1   0.2476  0.5591  0.4183  11.00000  0.05    0.36
Q3    1   0.3387  0.3249  0.4828  11.00000  0.05    0.35
Q4    1   0.6024  0.3298  0.3763  11.00000  0.05    0.35
Q5    1   0.3714  0.5087  0.5458  11.00000  0.05    0.34
Q6    1   0.4825  0.1702  0.1536  11.00000  0.05    0.34
Q7    1   0.4055  0.5629  0.3786  11.00000  0.05    0.34
Q8    1   0.2033  0.2509  0.4841  11.00000  0.05    0.34
Q9    1   0.2615  0.1791  0.4604  11.00000  0.05    0.34
Q10   1   0.4016  0.4703  0.5547  11.00000  0.05    0.32
;
_shelx_res_checksum              22719
_shelx_hkl_file
;
   0   0  -1    8.23    0.88
   0   0   2  177.91    5.50
   0   0  -2  186.25    5.64
   0   0  -3    4.61    1.96
   0   0   3    5.24    1.66
   0   0  -4  145.76    6.79
   0   0  -5   -3.56    2.48
   0   0  -6 6215.20  108.63
   0   0  -7    1.71    2.58
   0   0  -8 1166.51   31.28
   0   0  -9   -1.54    3.60
   0   0 -10  749.23   26.40
   0   0 -11   -3.36    4.52
   0   0 -12  285.68   17.36
   0   1   1 3977.44   64.59
   0  -1  -2  955.03   18.68
   0   1   2  935.45   18.68
   0   1   3 3067.15   53.50
   0   1  -3 3077.20   53.36
   0  -1  -3 3017.16   53.54
   0   1  -4  289.06    9.71
   0  -1  -4  296.33   10.08
   0   1   4  287.84    9.82
   0  -1  -5 6153.76  106.31
   0   1   5 6274.36  106.24
   0   1  -5 6132.27  105.96
   0   1  -6  213.07    9.82
   0  -1  -6  207.11    9.97
   0   1   6  204.63    9.76
   0   1  -7  109.89    7.94
   0  -1  -7  118.60    8.08
   0   1  -8  194.15   11.12
   0  -1  -8  195.90   11.32
   0   1  -9  200.33   12.10
   0  -1  -9  187.58   11.90
   0   1 -10   27.39    5.78
   0  -1 -10   38.79    6.57
   0   1 -11 1099.08   34.97
   0  -1 -11 1104.38   35.27
   0   1 -12   53.38    8.38
   0  -1 -12   53.58    8.28
   0  -2   0  769.43   14.10
   0   2   0  751.37   14.11
   0  -2   1  340.08    7.89
   0   2  -1  331.94    7.89
   0   2   1  343.51    7.82
   0  -2   2  267.87    7.69
   0   2   2  278.21    8.17
   0  -2  -3  264.24    9.00
   0   2   3  267.30    8.87
   0  -2  -4   46.17    4.24
   0   2   4   46.55    4.00
   0   2   5  445.79   14.17
   0  -2  -5  425.54   14.03
   0   2  -5  435.78   13.76
   0   2  -6 1445.05   32.89
   0  -2  -6 1429.20   33.44
   0   2   6 1538.72   33.97
   0   2   7   53.60    5.61
   0   2  -7   41.23    5.13
   0  -2  -7   39.93    5.04
   0  -2  -8   80.74    7.63
   0   2  -8   88.87    7.68
   0  -2  -9  288.89   14.73
   0   2  -9  284.35   14.42
   0  -2 -10   35.15    6.30
   0   2 -10   27.91    5.86
   0   2 -11  519.28   22.66
   0  -2 -11  541.13   23.82
   0  -2 -12  399.26   21.31
   0   2 -12  393.42   20.47
   0  -3   0    1.35    1.11
   0   3   0    2.46    1.11
   0  -3   1  727.75   15.09
   0  -3  -1  752.91   15.11
   0   3   1  738.27   14.93
   0   3  -1  706.87   14.99
   0   3   2  472.91   11.48
   0  -3   2  470.08   11.77
   0  -3   3  666.00   16.18
   0   3   3  665.97   16.71
   0   3   4  202.51    8.74
   0   3   5    7.81    2.35
   0  -3  -5    1.58    2.58
   0  -3  -6  342.89   13.68
   0   3  -6  345.87   13.22
   0   3   6  350.48   13.55
   0   3  -7  914.29   25.18
   0  -3  -7  930.28   26.40
   0   3  -8  551.03   19.84
   0  -3  -8  609.57   21.35
   0   3  -9   -4.82    3.62
   0  -3  -9    1.03    3.62
   0   3 -10  199.04   12.80
   0  -3 -10  180.16   12.86
   0   3 -11   78.74    9.00
   0  -3 -11   81.91    9.35
   0   3 -12    8.75    5.03
   0  -4   0 1793.04   32.28
   0   4   0 1756.82   32.23
   0  -4   1 2450.09   43.08
   0  -4  -1 2477.86   43.19
   0   4  -1 2417.81   43.05
   0   4   1 2420.09   42.91
   0   4   2 2009.20   37.59
   0   4  -2 2023.46   37.78
   0  -4   2 2103.84   37.84
   0   4   3   12.98    2.53
   0  -4   3   10.15    2.15
   0  -4   4  115.42    6.40
   0   4   4  127.09    7.00
   0   4   5  747.91   20.71
   0  -4   5  681.47   19.37
   0   4   6   59.09    5.59
   0   4  -7  952.70   26.29
   0   4  -8 1738.63   41.19
   0   4  -9  169.30   11.30
   0   4 -10   42.84    6.54
   0   4 -11   97.66    9.88
   0   4 -12  259.75   16.72
   0  -5   0   -0.29    1.48
   0   5   0    3.86    1.61
   0  -5   1   15.82    2.33
   0   5  -1   17.52    2.25
   0   5   1   15.97    2.11
   0  -5  -1   20.39    2.51
   0   5  -2 3934.15   70.46
   0   5   2 4079.08   70.19
   0  -5   2 4150.44   70.46
   0  -5   3 3023.35   54.74
   0   5   3 2924.58   54.29
   0   5   4 4014.97   72.52
   0  -5   4 3940.70   72.89
   0   5   5  251.26   11.26
   0  -5   5  225.57   10.11
   0  -5   6  911.83   24.69
   0   5   6  951.19   26.26
   0  -5   7  439.51   16.34
   0  -5   8  134.12    9.40
   0   5  -8  131.89    9.49
   0   5  -9  462.11   18.97
   0  -5   9  456.39   18.92
   0  -5  10  644.30   24.31
   0   5 -10  641.58   24.30
   0   5 -11    5.42    4.32
   0  -5  11    3.15    4.03
   0   5 -12  295.98   17.78
   0  -6   0  384.24   11.37
   0   6   0  365.68   11.30
   0   6  -1 4829.49   84.41
   0   6  -1 4921.94   78.28
   0  -6   1 4918.85   84.11
   0  -6  -1 5029.78   84.33
   0   6   1 4934.73   84.18
   0   6  -2 1791.93   36.58
   0   6   2 1850.18   36.24
   0  -6  -2 1839.69   36.17
   0  -6   2 1841.33   36.19
   0   6   3  459.00   13.78
   0   6  -3  448.72   14.18
   0  -6   3  442.85   13.81
   0  -6   4  751.96   13.48
   0   6   4  789.62   20.61
   0  -6   4  762.96   20.48
   0  -6   5  574.90   17.78
   0  -6   5  555.15   12.91
   0   6   5  614.63   19.21
   0   6   5  595.56   17.70
   0  -6   6   39.17    4.88
   0  -6   7 2624.75   55.41
   0  -6   8  383.06   16.42
   0   6  -9  479.58   19.61
   0  -6   9  474.53   19.39
   0  -6  10  128.71   10.60
   0   6 -10  140.08   10.96
   0  -6  11    7.61    3.93
   0   6 -11    6.92    4.84
   0  -7   0   -0.73    1.89
   0   7   0    1.92    1.78
   0  -7   1  134.78    6.79
   0  -7  -1  141.46    7.00
   0   7   1  137.16    6.74
   0   7  -1  138.25    6.93
   0   7  -1  144.89    3.79
   0   7  -2  688.03   18.53
   0   7   2  683.01   18.14
   0  -7   2  682.53   18.11
   0  -7  -2  684.35   18.13
   0  -7   3  834.22   21.38
   0   7  -3  843.97   21.88
   0   7   3  826.29   21.28
   0  -7   4 1153.16   28.02
   0   7   4 1205.96   28.12
   0  -7   5  607.13   11.19
   0  -7   5  630.77   19.37
   0   7   5  680.53   19.55
   0  -7   6  497.60   17.78
   0  -7   6  520.89   11.90
   0  -7   7   12.05    4.03
   0  -7   7    5.98    2.05
   0  -7   8   15.59    4.04
   0  -7   8   29.16    3.63
   0   7  -9  635.22   23.65
   0  -7   9  680.88   24.43
   0   7 -10  260.96   15.21
   0  -7  10  257.08   14.92
   0   7 -11    5.78    4.38
   0  -7  11    6.18    4.24
   0   8   0   15.56    2.86
   0  -8   0   14.22    2.98
   0  -8   1    3.99    2.27
   0   8  -1    4.44    0.90
   0  -8  -1    3.80    2.38
   0   8   1    6.85    2.00
   0   8  -1    3.78    2.10
   0   8  -2   96.94    6.53
   0  -8   2  102.95    6.55
   0  -8  -2   91.67    6.22
   0   8   2  101.33    6.26
   0  -8   3    2.73    2.46
   0   8   3    1.41    1.81
   0   8  -3    0.36    2.06
   0  -8   4 1005.75   25.81
   0   8   4  983.10   25.50
   0  -8   5   68.54    6.13
   0  -8   6   83.60    7.40
   0  -8   7   20.86    1.82
   0  -8   7   19.08    4.27
   0  -8   8   -1.02    3.60
   0  -8   9    9.27    4.17
   0   8 -10  454.12   20.76
   0  -8  10  510.27   21.86
   0   8 -11   -5.25    4.66
   0   9   0   -1.15    1.57
   0  -9   0    0.68    2.01
   0   9   0   -0.01    1.46
   0   9   1   51.52    4.82
   0  -9   1   32.47    3.94
   0  -9  -1   36.77    4.36
   0   9  -1   38.85    4.27
   0   9  -1   39.78    2.00
   0   9   2  362.94   13.25
   0  -9   2  341.61   12.87
   0  -9  -2  343.22   13.07
   0  -9   3  787.79   22.32
   0  -9   4  474.11   16.75
   0  -9   5    9.56    3.29
   0  -9   6  497.42   18.75
   0  -9   7   24.31    4.66
   0  -9   8    3.49    3.47
   0  -9   9  590.88   23.41
   0  -9  10   87.65    9.36
   0   9 -10   94.89    9.96
   0  10   0  251.67    8.38
   0 -10   0  253.93   11.23
   0 -10   1 1519.11   36.07
   0  10  -1 1626.72   27.57
   0 -10  -1 1615.44   36.44
   0 -10   2  871.26   24.04
   0 -10  -2  903.86   24.45
   0 -10   3  162.23    9.35
   0 -10   4  348.09   14.78
   0 -10   5  261.94   13.12
   0 -10   6   11.22    4.24
   0 -10   7  695.60   24.78
   0 -10   8 1119.60   33.86
   0 -10   9  213.52   13.93
   0  11   0    1.58    1.61
   0 -11   0    1.64    2.70
   0  11   1    3.24    2.49
   0 -11  -1    3.66    2.67
   0 -11   1    4.40    3.13
   0  11  -1    1.51    0.84
   0 -11  -2  900.52   25.48
   0 -11   2  855.84   24.91
   0 -11   3 1864.45   42.94
   0 -11   4  965.56   28.26
   0 -11   5  202.12   11.96
   0 -11   6   77.16    7.76
   0 -11   7  191.49   12.54
   0 -11   8   92.26    9.48
   0 -12   0  315.72   14.45
   0  12   0  340.69    9.88
   0  12   1  327.50   11.72
   0 -12   1  293.39   13.90
   0 -12  -1  292.39   13.90
   0 -12  -2  728.88   23.22
   0 -12   2  684.62   22.70
   0  12   2  681.61   20.90
   0 -12   3    4.00    2.98
   0 -12   4   70.13    7.21
   0 -12   5  336.92   16.40
   0 -12   6   51.92    7.07
   0 -12   7   96.39    9.43
   0 -12   8  337.28   17.91
   0 -13   0    1.00    3.26
   0 -13  -1   38.68    5.84
   0 -13   1   42.20    5.91
   0 -13   2   44.69    6.25
   0 -13  -2   41.03    6.00
   0 -13   3  158.68   10.91
   0 -13   4   81.07    8.03
   0 -13   5   24.39    5.14
   0 -13   6   35.35    6.30
   0 -13   7  201.69   13.96
   0 -14   0  791.32   26.42
   0 -14   1   15.93    4.70
   0 -14  -1   11.11    4.05
   0 -14  -2   15.72    4.39
   0 -14   2   23.32    5.05
   0 -14   3   22.54    5.11
   0 -14   4   34.54    6.01
   0 -14   5   53.76    7.70
   0 -15   0    0.27    3.98
   0 -15   1  347.54   17.43
   0 -15  -1  374.88   17.82
   0 -15   2   50.91    7.00
   0 -15   3  201.00   13.29
   0 -15   4   13.02    4.75
   0 -16   0 1065.68   34.22
   0 -16  -1   55.47    7.64
   1   0 -12  208.80   14.62
   1   0 -11    2.74    4.11
   1   0 -10    5.97    4.13
   1   0  -9    1.86    3.10
   1   0  -8 2227.50   48.75
   1   0  -7   -2.40    2.91
   1   0  -6  292.50   11.52
   1   0  -5    0.68    1.81
   1   0  -4 1074.51   22.63
  -1   0   4  975.48   23.36
   1   0  -3    1.13    1.75
  -1   0   3    2.00    1.55
  -1   0   2 1619.80   29.48
   1   0  -2 1686.48   29.60
   1   0  -1    4.88    1.04
  -1   0   1    1.49    0.84
   1   0   1    9.69    1.29
   1   0   2   59.21    3.28
  -1   0  -2   57.59    3.42
  -1   0  -3   -0.33    1.70
   1   0   3    1.21    1.45
  -1   0  -4  127.07    6.58
   1   0   4  127.99    6.23
  -1   0  -5    0.39    2.22
   1   0   5   -0.28    1.66
  -1   0  -6  679.46   20.21
  -1   0  -7    1.55    2.96
  -1   0  -8   26.80    4.73
  -1   0  -9    1.08    3.60
  -1   0 -10  872.85   29.73
  -1   0 -11  -16.77    5.35
  -1   0 -12   -6.73    5.08
   1   1 -12    3.39    4.37
   1  -1 -12  -10.47    5.66
   1  -1 -11  343.98   17.87
   1   1 -11  334.13   17.64
   1   1 -10   57.33    7.14
   1  -1 -10   66.41    7.72
   1  -1  -9 1177.33   32.36
   1   1  -9 1115.34   31.44
   1   1  -8  723.77   22.79
   1  -1  -8  763.59   23.36
   1  -1  -7  358.21   14.11
   1   1  -7  351.74   13.94
   1  -1  -6  946.33   24.01
   1   1  -6  934.24   23.89
   1  -1  -5   23.83    3.23
   1   1  -5   33.56    3.71
  -1   1   4  334.15   10.41
   1  -1  -4  326.25   10.16
  -1  -1   4  304.81   10.10
  -1   1   3 2687.13   47.85
  -1   1   3 2749.15   49.46
  -1  -1   3 2737.81   47.40
   1  -1  -3 2752.58   47.73
  -1  -1   2  455.65    9.38
  -1   1   2  419.50    9.73
   1   1  -2  456.51    9.84
  -1  -1   2  426.40    9.65
  -1   1   2  421.55   10.53
   1  -1  -2  456.74   10.94
   1  -1  -2  435.40    9.69
  -1   1   1 1120.97   19.29
  -1   1   1 1167.02   20.78
   1  -1  -1 1133.31   19.28
   1   1  -1 1158.03   20.31
   1  -1  -1 1148.11   20.84
   1   1  -1 1138.00   19.55
  -1  -1   1 1152.70   19.59
   1   1   0  649.32   12.30
  -1   1  -1  503.93    9.96
   1   1   2 9999.00  160.89
  -1   1  -2 9977.22  159.75
  -1   1  -3 1041.22   22.02
   1   1   3 1092.45   22.94
  -1  -1  -3 1038.67   23.00
  -1  -1  -4    3.35    2.19
  -1   1  -4    3.30    1.85
   1   1   4    3.76    1.96
  -1  -1  -5 1179.77   28.12
  -1   1  -5 1190.08   27.64
   1   1   5 1214.71   27.87
  -1   1  -6  196.17    9.97
  -1  -1  -6  199.51   10.22
   1   1   6  206.15    9.85
  -1   1  -7   49.57    5.71
  -1  -1  -7   49.52    5.86
  -1  -1  -8  921.61   27.84
  -1   1  -8  956.30   28.01
  -1   1  -9  121.69    9.87
  -1  -1  -9  130.83   10.43
  -1  -1 -10  149.12   11.97
  -1   1 -10  153.58   11.89
  -1   1 -11  395.92   19.92
  -1  -1 -11  384.33   20.32
  -1   1 -12    6.29    4.61
  -1  -1 -12    5.09    4.42
   1  -2 -12  127.66   11.53
   1   2 -12  134.85   11.91
   1   2 -11  904.76   30.48
   1  -2 -11  902.19   30.81
   1  -2 -10    9.17    3.81
   1   2 -10   12.91    4.72
   1  -2  -9  639.96   22.36
   1   2  -9  610.90   21.68
   1  -2  -8  995.39   27.88
   1   2  -8  973.09   27.38
  -1   2   7    8.91    2.60
   1  -2  -7    6.38    2.87
   1   2  -7    7.04    2.89
  -1  -2   6  114.51    7.47
   1  -2  -6  136.56    7.85
  -1   2   6  133.23    7.66
  -1   2   5 1689.69   34.17
   1  -2  -5 1668.33   34.03
   1  -2  -4   26.87    3.20
  -1  -2   4   26.29    2.83
  -1   2   4   32.66    3.18
  -1  -2   3 8413.42  132.43
  -1   2   3 8196.43  135.17
   1  -2  -3 7875.63  132.84
  -1   2   3 7918.84  132.91
  -1  -2   3 8356.47  131.43
   1   2  -2 4487.63   72.37
  -1   2   2 4415.44   73.46
  -1   2   2 4481.08   72.06
  -1  -2   2 4466.14   72.23
  -1  -2   2 4525.31   73.11
   1  -2  -2 4365.93   73.40
  -1   2   2 4385.21   74.73
   1   2  -2 4477.76   73.08
   1  -2  -1 4210.52   67.11
  -1   2   1 4204.54   68.78
  -1   2   1 4060.58   67.72
   1  -2  -1 4224.08   69.04
  -1  -2   1 4246.57   68.31
   1   2  -1 4229.31   68.30
  -1   2   1 4196.69   67.13
   1  -2   0   65.02    2.54
  -1  -2   0   64.94    2.98
   1  -2   0   60.21    2.67
   1   2   0   63.23    2.93
  -1   2   0   64.58    2.59
   1   2   3 4129.18   71.94
  -1   2  -3 4105.17   70.25
  -1   2  -4 3652.96   65.38
   1   2   4 3724.33   67.00
   1   2   5 3034.71   57.94
  -1   2  -5 3013.63   56.89
  -1  -2  -6   25.02    4.34
  -1   2  -6   20.67    3.61
   1   2   6   28.89    3.92
  -1   2  -7  941.21   26.41
  -1  -2  -7  957.66   27.43
  -1   2  -8   13.20    3.98
  -1  -2  -8   15.46    4.50
  -1   2  -9   70.25    7.87
  -1  -2  -9   62.35    7.58
  -1   2 -10  642.61   24.91
  -1   2 -11  378.96   19.75
  -1   2 -12    4.36    4.14
   1   3 -12  267.89   16.51
   1  -3 -12  286.77   17.75
   1  -3 -11  142.36   11.78
   1   3 -11  147.07   11.65
   1  -3 -10   -0.68    3.70
   1   3 -10   -4.78    4.09
   1   3  -9   26.42    4.86
  -1  -3   9   27.08    5.35
   1  -3  -9   27.50    5.24
   1  -3  -8  604.46   20.78
  -1  -3   8  595.23   20.38
   1   3  -8  624.29   20.69
  -1  -3   7 2388.99   50.65
   1  -3  -7 2488.81   51.81
  -1   3   6 4278.71   78.19
   1  -3  -6 4279.07   77.80
  -1  -3   6 4159.67   75.96
  -1  -3   5  205.50    8.42
  -1  -3   5  178.12    7.44
   1  -3  -5  189.30    8.80
  -1   3   5  200.26    8.92
   1  -3  -4  575.27   15.35
  -1   3   4  548.82   15.11
  -1  -3   4  528.72   12.66
  -1  -3   4  549.13   14.35
   1   3  -3  193.68    5.92
  -1   3   3  206.90    7.51
  -1  -3   3  194.39    5.57
  -1  -3   3  203.93    7.02
  -1   3   3  187.37    8.45
  -1   3   2  634.43   14.00
  -1   3   2  608.03   12.77
   1   3  -2  631.04   12.04
   1   3  -2  609.95   13.69
  -1  -3   2  613.10   13.74
  -1   3   2  620.26   14.72
  -1   3   1 3312.37   54.91
  -1   3   1 3310.10   55.74
   1   3  -1 3283.66   56.04
   1  -3  -1 3349.54   56.34
  -1  -3   1 3395.58   56.05
   1  -3  -1 3341.63   54.92
  -1  -3   0 6341.43  103.25
   1   3   0 6278.31  103.12
  -1   3   0 6309.73  101.59
  -1   3   0 6338.52  102.22
   1  -3   0 6335.33  101.99
   1  -3   0 6395.43  101.71
   1  -3   1 3331.51   55.92
   1   3   1 3255.05   56.44
   1   3   3 1862.57   37.68
  -1   3  -4  309.29   10.61
   1   3   4  315.48   11.72
  -1   3  -5  425.25   13.89
   1   3   5  446.08   15.25
  -1   3  -6  936.27   24.79
   1   3   6  987.05   26.32
  -1   3  -7   60.69    6.00
  -1   3  -8 1209.90   32.71
  -1   3  -9 1242.83   35.12
  -1   3 -10  482.67   21.22
  -1   3 -11    3.03    4.46
  -1   3 -12   15.79    5.86
   1   4 -12  607.89   25.34
  -1  -4  12  555.01   23.77
   1  -4 -11    7.15    4.55
   1   4 -11   12.86    4.61
  -1  -4  11   12.71    4.50
   1   4 -10   27.35    5.47
   1  -4 -10   29.49    5.45
  -1  -4  10   26.79    4.66
   1   4  -9  705.98   23.89
  -1  -4   9  698.03   23.20
  -1  -4   9  732.27   23.36
   1  -4  -9  761.14   25.26
  -1  -4   8  276.30   12.68
   1  -4  -8  271.57   13.57
  -1  -4   8  291.69   12.68
  -1  -4   7  609.13   18.05
   1  -4  -7  642.86   20.47
  -1   4   7  632.32   20.48
  -1  -4   7  642.20   19.40
  -1  -4   6 1446.27   31.87
   1  -4  -6 1365.46   32.39
  -1  -4   6 1351.91   29.09
  -1   4   6 1414.22   32.92
  -1  -4   5   70.37    5.09
  -1  -4   5   65.55    3.94
  -1   4   5   72.22    5.54
  -1   4   4 1241.05   27.06
  -1  -4   4 1154.96   22.24
  -1  -4   4 1220.26   25.95
  -1   4   3 1436.98   29.52
  -1  -4   3 1441.46   28.87
  -1   4   3 1442.00   27.84
   1   4  -3 1415.53   28.81
  -1  -4   3 1455.88   25.20
  -1   4   3 1427.15   31.19
   1   4  -3 1463.78   25.79
   1  -4  -2 3564.57   60.62
  -1   4   2 3543.27   60.50
   1   4  -2 3627.37   58.22
  -1   4   2 3550.65   62.60
  -1  -4   2 3697.86   61.81
   1   4  -2 3511.89   61.63
   1  -4  -1 1881.91   32.62
  -1   4   1 1803.51   32.49
   1   4  -1 1818.08   33.60
  -1   4   1 1795.88   32.80
  -1  -4   1 1816.31   33.63
   1   4   0   31.42    2.72
  -1   4   0   29.78    2.36
  -1   4   0   29.17    2.06
  -1  -4   0   29.33    2.70
   1  -4   0   34.78    2.29
   1  -4   0   27.83    2.33
  -1   4  -1    5.99    1.53
   1  -4   1    7.62    1.65
   1   4   1    8.33    1.72
   1  -4   1    8.93    1.14
   1   4   2    8.05    1.91
   1  -4   2    6.44    1.89
   1  -4   3 1136.56   25.18
   1   4   4 3420.72   64.46
   1   4   5 1325.03   31.34
  -1   4  -5 1243.54   29.07
   1   4   6  248.36   12.00
  -1   4  -6  226.12   10.63
  -1   4  -7   30.01    4.60
  -1   4  -8  614.64   21.39
  -1   4  -9  281.74   14.87
  -1   4 -10  128.74   10.86
  -1   4 -11  443.03   21.26
  -1   4 -12    6.67    4.85
   1   5 -12  421.59   21.00
  -1  -5  12  413.98   20.03
   1   5 -11  356.38   18.17
  -1  -5  11  355.57   17.64
   1   5 -10  638.19   24.01
  -1  -5  10  627.46   22.90
  -1  -5   9   20.56    3.96
   1   5  -9   29.13    5.47
  -1  -5   9   18.85    4.42
  -1  -5   8   35.10    4.29
  -1  -5   8   46.60    5.58
  -1  -5   7  459.81   13.98
  -1  -5   7  486.82   16.85
  -1  -5   6   22.91    3.77
  -1   5   6   22.75    3.82
  -1  -5   6   14.89    2.28
  -1   5   5  164.89    8.66
  -1  -5   5  147.97    5.41
  -1  -5   5  154.81    7.91
  -1  -5   4 1184.69   21.63
  -1   5   4 1263.70   27.88
  -1   5   4 1181.72   25.60
  -1  -5   4 1207.15   26.65
   1   5  -3   93.34    3.38
  -1   5   3   89.85    4.81
  -1  -5   3   92.11    5.38
  -1   5   3   83.13    5.21
   1   5  -3   92.93    5.35
  -1   5   3   86.29    6.22
   1   5  -2  126.54    3.65
   1   5  -2  128.34    5.91
   1  -5  -2  125.69    5.42
  -1   5   2  124.87    5.27
  -1   5   2  123.39    6.21
  -1  -5   2  129.79    6.01
  -1   5   1 1343.69   25.97
  -1  -5   1 1343.53   27.38
   1  -5  -1 1387.30   26.40
  -1   5   1 1344.76   26.22
   1   5  -1 1370.62   27.39
   1   5   0  407.34   11.49
  -1  -5   0  442.91   12.01
  -1   5   0  416.63    9.54
  -1   5   0  405.73   11.07
   1  -5   0  421.16   10.32
   1  -5   0  434.68   11.08
  -1  -5  -1  103.75    5.56
   1   5   1   97.53    5.19
   1  -5   1  103.34    3.66
   1  -5   1  104.89    5.07
  -1   5  -1  102.05    5.20
   1  -5   2   84.35    4.97
   1   5   2   85.43    5.13
   1  -5   2   88.42    3.24
   1   5   3 1075.67   25.19
   1  -5   3 1107.14   25.25
   1   5   4    3.54    2.12
   1  -5   4    2.04    2.42
   1   5   5   85.47    6.75
   1  -5   5   63.21    5.61
  -1   5  -6  431.98   15.57
   1  -5   6  428.57   15.99
  -1   5  -7  165.71    9.97
  -1   5  -8  118.45    9.08
  -1   5  -9  522.44   20.79
  -1   5 -10   42.09    6.48
  -1   5 -11   -0.36    4.43
  -1  -6  12   25.29    6.04
   1   6 -12   15.08    4.62
  -1  -6  11   38.05    6.20
   1   6 -11   50.78    7.40
   1   6 -10  393.48   18.40
  -1  -6  10  363.56   17.42
  -1  -6   9  188.87   11.57
  -1  -6   9  192.71    9.44
  -1  -6   8    4.34    1.90
  -1  -6   8    5.89    3.40
  -1  -6   7  530.91   14.05
  -1  -6   7  556.99   18.62
  -1  -6   6  319.92    9.00
  -1   6   6  368.88   14.65
  -1   6   6  328.39   12.52
  -1  -6   6  344.50   13.34
  -1  -6   5  392.15   13.78
  -1   6   5  409.08   13.19
  -1  -6   5  377.51    8.89
  -1   6   5  415.64   14.86
  -1   6   4 1323.81   28.79
  -1   6   4 1416.69   31.13
   1   6  -4 1336.05   30.20
  -1  -6   4 1339.95   29.96
  -1  -6   3  104.46    6.02
   1   6  -3  104.94    6.07
  -1   6   3  107.10    6.87
  -1   6   3  108.59    5.71
   1  -6  -2   62.57    4.26
  -1  -6   2   64.97    4.66
  -1   6   2   59.24    4.47
  -1   6   2   65.84    4.17
   1   6  -2   60.77    4.47
   1   6  -2   65.86    2.44
   1   6  -1   25.36    2.90
  -1   6   1   23.56    2.55
   1  -6  -1   27.26    2.82
  -1  -6   1   29.10    3.24
  -1   6   1   28.26    2.68
  -1   6   0 1443.68   26.54
  -1  -6   0 1549.01   30.53
   1  -6   0 1428.81   29.11
   1   6   0 1485.83   30.16
  -1   6   0 1438.85   29.29
  -1   6  -1    1.95    1.61
   1  -6   1    0.04    1.56
  -1  -6  -1   -0.54    2.21
   1   6   1   -0.57    1.70
   1  -6   1    5.06    1.33
   1  -6   2  852.32   20.35
   1   6   2  828.54   20.94
   1  -6   2  850.58   15.82
   1  -6   3    2.32    2.25
   1   6   3    2.48    1.57
   1  -6   3    0.50    0.93
   1   6   4  197.14    9.41
   1  -6   4  190.85    9.44
   1  -6   5    3.29    2.49
   1  -6   6  864.96   24.93
   1  -6   7  404.31   16.73
  -1   6  -7  408.50   16.25
   1  -6   8  255.44   13.70
  -1   6  -8  239.48   12.95
   1  -6   9  180.02   12.30
  -1   6  -9  205.79   12.74
   1  -6  10    4.86    3.32
  -1   6 -10   12.27    5.04
  -1   6 -11   28.87    6.23
  -1  -7  11  186.26   13.09
   1   7 -11  163.30   12.57
  -1  -7  10  201.14   12.88
  -1  -7   9  437.60   18.54
  -1  -7   8   55.83    6.44
  -1  -7   8   54.92    3.88
  -1  -7   7  469.64   11.68
  -1  -7   7  485.23   17.70
  -1   7   6   12.52    2.77
  -1  -7   6    9.29    1.41
  -1  -7   6   14.40    3.22
  -1   7   5 3385.43   63.88
  -1  -7   5 3338.77   65.23
  -1   7   4  171.16    8.13
   1   7  -4  173.25    8.69
  -1   7   4  189.74    9.62
  -1  -7   4  162.50    8.46
  -1   7   3  222.34   10.35
   1   7  -3  227.68    9.88
  -1  -7   3  226.86    9.66
  -1   7   3  236.97    9.24
   1  -7  -2  105.39    5.77
   1   7  -2   98.18    6.10
  -1   7   2   99.34    5.85
  -1   7   2   99.28    5.61
   1   7  -2  101.54    3.22
  -1  -7   2   99.60    6.12
   1   7  -1  446.72   13.85
   1  -7  -1  442.03   13.00
  -1   7   1  441.03   11.90
  -1   7   1  449.34   13.21
  -1  -7   1  472.08   13.91
  -1  -7   0  115.51    6.59
  -1   7   0  124.26    6.32
   1   7   0  137.34    6.94
   1  -7   0  137.60    6.43
  -1   7   0  125.77    4.73
   1   7   1 6876.62  115.61
  -1   7  -1 6776.48  115.00
   1  -7   1 6681.09  114.28
  -1  -7  -1 6788.92  115.53
   1  -7   2  136.08    4.24
  -1   7  -2  119.88    6.99
   1  -7   2  129.55    6.92
   1   7   2  140.56    7.44
   1   7   3  287.25   11.54
   1  -7   3  287.85    6.56
   1  -7   3  275.55   11.14
   1   7   4  111.86    7.19
   1  -7   4  113.96    7.31
   1  -7   4  103.78    3.77
   1  -7   5   35.55    4.74
   1  -7   6   32.76    5.06
   1  -7   7 1437.40   37.10
  -1   7  -8   18.22    4.35
   1  -7   8   20.10    4.73
   1  -7   9  667.19   24.89
  -1   7  -9  676.06   24.33
  -1   7 -10   55.52    7.83
   1  -7  10   54.26    7.65
  -1   7 -11   59.89    8.50
  -1  -8  11   20.17    5.57
   1   8 -11   22.92    5.96
  -1  -8  10 1235.89   36.35
  -1  -8   9    6.47    3.88
  -1  -8   8  228.44   12.78
  -1  -8   7    1.40    3.15
  -1  -8   6   16.05    3.73
  -1   8   5    5.53    2.98
  -1  -8   5    4.83    2.61
  -1   8   5    7.07    2.35
  -1   8   4 5505.26   97.01
  -1  -8   4 5323.82   95.52
  -1   8   4 5471.92   94.42
  -1   8   3  208.85   10.26
   1   8  -3  208.19    9.72
  -1  -8   3  203.00    9.48
  -1   8   3  199.56    8.88
  -1  -8   2 1809.64   38.82
   1   8  -2 1908.35   39.58
   1  -8  -2 1854.31   38.24
  -1   8   2 1935.83   38.57
  -1   8   2 1881.35   38.20
   1   8  -1   27.28    3.48
  -1  -8   1   32.56    3.94
  -1   8   1   33.20    3.67
  -1   8   1   26.08    2.80
   1  -8  -1   25.70    3.15
  -1  -8   0 1442.40   32.26
  -1   8   0 1458.78   31.61
  -1   8   0 1447.04   27.17
   1   8   0 1536.84   32.84
   1  -8   0 1425.23   31.10
   1  -8   1    2.75    2.00
  -1   8  -1    1.16    1.82
   1   8   1    0.80    1.58
  -1  -8  -1    2.79    2.65
   1  -8   2 2080.53   43.14
  -1   8  -2 2176.58   44.13
   1   8   2 2170.32   44.44
   1  -8   3   50.71    4.98
   1  -8   4 1430.10   24.02
   1  -8   4 1408.94   33.64
   1  -8   5   24.70    4.22
   1  -8   5   29.13    1.84
   1  -8   6 2177.16   48.96
   1  -8   7   85.61    8.00
  -1   8  -8    5.38    3.54
   1  -8   8   -0.81    3.68
  -1   8  -9    6.64    4.22
   1  -8   9    4.12    4.44
   1  -8  10  113.27   10.68
  -1   8 -10  104.11    9.90
  -1   8 -11    5.40    4.08
  -1  -9  10  181.27   12.86
  -1  -9   9  309.77   16.10
  -1  -9   8   65.16    7.12
  -1  -9   7  360.13   16.08
  -1  -9   6  530.20   19.13
  -1  -9   5 2136.87   46.69
  -1   9   4  170.98   10.13
  -1  -9   4  180.69    9.84
  -1   9   4  192.44    9.46
  -1   9   3   29.56    3.74
  -1   9   3   27.91    4.23
  -1  -9   3   23.98    3.75
   1  -9  -2  150.81    8.00
  -1   9   2  144.96    7.39
  -1   9   2  143.80    7.87
   1   9  -2  148.17    3.96
  -1  -9   2  154.84    8.49
  -1  -9   1  350.94   13.11
   1  -9  -1  342.18   12.27
  -1   9   1  345.57   12.53
  -1   9   1  332.30   10.44
  -1  -9   0  301.18   12.13
  -1   9   0  300.98   11.84
  -1   9   0  306.23    8.56
   1  -9   0  315.32   11.82
  -1  -9  -1 3787.45   70.55
   1  -9   1 3623.65   68.85
  -1   9  -1 3797.95   70.26
   1  -9   2  101.15    6.92
   1  -9   3  268.41   11.78
   1  -9   4   65.03    6.14
   1  -9   5    6.00    3.32
   1  -9   6    3.72    3.64
   1  -9   7 1687.34   43.05
   1  -9   8   11.21    4.98
  -1   9  -9  119.21   10.40
   1  -9   9  116.59   10.26
  -1   9 -10  175.13   12.95
  -1 -10  10  298.68   16.80
  -1 -10   9   56.79    7.41
  -1 -10   8   26.22    5.50
  -1 -10   7  194.04   12.08
  -1 -10   6  266.24   13.62
  -1 -10   5  335.12   14.89
  -1 -10   4  230.22   11.64
  -1  10   4  224.76   11.92
  -1  10   3   25.50    4.17
  -1 -10   3   24.02    4.23
   1 -10  -2  162.03    8.79
  -1 -10   2  147.30    8.84
   1  10  -2  153.97    3.80
  -1  10   2  160.57    8.13
  -1  10   1   13.17    2.34
  -1 -10   1   14.39    3.39
   1 -10  -1   14.41    3.30
  -1 -10   0  678.62   20.56
  -1  10   0  681.08   15.15
   1 -10   0  675.51   19.75
  -1 -10  -1    0.89    2.61
   1 -10   1    3.27    2.52
   1 -10   2  538.30   17.71
   1 -10   3    4.83    2.83
   1 -10   4   88.69    7.35
   1 -10   5   53.50    6.29
   1 -10   6  438.59   18.49
   1 -10   7  108.42    9.61
   1 -10   8  258.19   15.18
  -1  10  -9   94.71    9.45
   1 -10   9  118.00   11.01
  -1  10 -10   45.38    7.20
  -1 -11   9   24.11    5.85
  -1 -11   8   43.89    6.54
  -1 -11   7   94.35    8.88
  -1 -11   6  419.08   18.20
  -1 -11   5  192.09   11.47
  -1 -11   4   41.49    5.52
  -1 -11   3    1.82    2.60
  -1  11   3    4.67    2.67
  -1 -11   2   19.85    4.16
   1 -11  -2   12.75    3.42
  -1  11   2   13.14    2.76
  -1 -11   1  220.10   11.54
   1 -11  -1  238.67   11.18
  -1  11   1  230.76    8.78
   1 -11   0   94.17    7.22
  -1  11   0   95.69    4.51
  -1 -11   0   89.68    7.28
   1 -11   1   57.81    5.74
  -1 -11  -1   65.31    6.39
   1 -11   2   44.19    5.27
   1 -11   3  197.32   11.11
   1 -11   4    5.06    3.21
   1 -11   5   13.18    4.36
   1 -11   6  120.11    9.75
   1 -11   7  243.95   14.51
   1 -11   8   22.41    5.20
  -1 -12   8    5.12    4.05
  -1 -12   7  147.85   11.52
  -1 -12   6  406.42   18.64
  -1 -12   5   50.30    6.31
  -1 -12   4    1.42    3.03
  -1 -12   3  639.97   22.38
  -1  12   3  652.71   20.63
  -1 -12   2  407.75   16.92
  -1  12   2  402.39   14.01
   1 -12  -2  398.03   16.09
  -1 -12   1  609.41   20.98
   1 -12  -1  586.30   19.96
  -1  12   1  607.87   15.89
  -1  12   0   31.70    2.74
   1 -12   0   24.40    4.44
  -1 -12   0   24.72    4.81
   1 -12   1    4.96    3.29
  -1 -12  -1    6.71    3.59
   1 -12   2   33.99    5.22
   1 -12   3  379.59   16.34
   1 -12   4  449.81   18.67
   1 -12   5  451.75   19.38
   1 -12   6    1.20    3.20
   1 -12   7   86.67    9.22
  -1 -13   7  290.46   16.46
  -1 -13   6  647.94   24.65
  -1 -13   5   15.24    4.65
  -1 -13   4  310.27   15.80
  -1 -13   3   98.99    8.86
  -1 -13   2  119.97    9.52
   1 -13  -2  117.77    9.04
   1 -13  -1  388.92   16.63
  -1 -13   1  423.89   17.85
  -1 -13   0  897.67   27.96
   1 -13   0  864.91   26.58
   1 -13   1   -0.81    3.08
  -1 -13  -1    1.73    3.04
   1 -13   2 1346.05   35.81
   1 -13   3  252.64   13.68
   1 -13   4   22.85    4.82
   1 -13   5   80.44    8.73
   1 -13   6  222.77   14.30
  -1 -14   6    2.36    3.46
  -1 -14   5  255.66   15.15
  -1 -14   4   68.46    7.95
  -1 -14   3  746.20   26.44
  -1 -14   2  351.17   16.91
   1 -14  -2  338.65   16.08
  -1 -14   1  509.26   20.79
   1 -14  -1  513.03   20.12
  -1 -14   0   48.91    6.84
   1 -14   0   46.88    6.09
   1 -14   1   -0.89    2.95
  -1 -14  -1   -4.37    3.79
   1 -14   2   17.37    4.71
   1 -14   3  588.68   22.58
   1 -14   4  132.82   10.73
   1 -14   5  553.60   23.03
  -1 -15   4  170.45   12.59
  -1 -15   3  250.44   15.00
  -1 -15   2   31.16    5.78
   1 -15  -2   20.57    4.86
  -1 -15   1   62.13    7.49
   1 -15  -1   61.28    7.30
   1 -15   0  321.42   16.18
  -1 -15   0  340.78   17.36
   1 -15   1   38.11    5.84
  -1 -15  -1   28.30    5.89
   1 -15   2  152.13   11.37
   1 -15   3   93.35    9.37
   1 -16  -2  197.90   13.37
   1 -16  -1    4.57    3.93
   1 -16   0   20.24    5.18
   1 -16   1   -0.05    3.51
   2   0 -13    0.15    5.00
   2   0 -12  440.45   21.16
   2   0 -11    0.95    3.93
   2   0 -10  123.62   10.02
   2   0  -9    0.29    3.18
  -2   0   8 1562.26   40.25
   2   0  -8 1744.00   39.44
   2   0  -7    0.26    2.43
  -2   0   7    1.15    2.45
   2   0  -6 2412.50   46.72
  -2   0   6 2270.26   47.62
   2   0  -5    1.98    2.03
  -2   0   5    1.45    1.91
   2   0  -4 6544.35  109.16
  -2   0   4 6434.73  108.91
  -2   0   3    1.62    1.46
  -2   0   3    1.27    0.69
   2   0  -3    3.55    1.75
   2   0  -2  644.18   14.77
  -2   0   2  634.99   14.77
   2   0  -1    4.16    0.68
   2   0  -1    5.27    1.73
   2   0   1    0.57    0.93
   2   0   2 8224.58  133.74
   2   0   3    3.42    1.56
   2   0   4 2639.82   49.05
  -2   0  -4 2538.79   50.15
   2   0   5   -2.04    2.06
  -2   0  -5   -1.02    2.48
  -2   0  -6   21.54    4.28
   2   0   6   19.33    3.25
  -2   0  -7    1.32    3.21
  -2   0  -8 2355.98   54.92
  -2   0  -9    0.41    4.21
  -2   0 -10  829.94   30.00
   2  -1 -13   13.46    5.26
   2  -1 -12  241.99   15.53
   2   1 -12  247.21   15.73
   2  -1 -11   25.30    5.91
   2   1 -11   23.26    5.62
   2   1 -10  355.22   16.88
   2  -1 -10  373.84   17.24
   2   1  -9 2374.45   52.93
   2  -1  -9 2456.96   53.77
   2   1  -8  105.28    7.92
   2  -1  -8  120.45    8.45
  -2  -1   8  100.96    8.22
  -2   1   7  111.21    8.13
   2  -1  -7  118.92    7.75
   2   1  -7  118.27    7.77
  -2  -1   7  115.54    7.91
  -2  -1   6  583.11   17.48
  -2   1   6  555.71   18.39
   2  -1  -6  626.37   17.62
  -2   1   5   33.36    3.81
   2  -1  -5   40.78    3.98
  -2  -1   5   35.57    3.48
   2   1  -4  600.21   15.27
   2  -1  -4  603.11   16.19
  -2   1   4  572.84   15.72
  -2  -1   4  577.41   14.95
   2  -1  -4  585.32   14.67
  -2  -1   4  605.56   13.44
  -2  -1   3 7132.64  117.17
  -2   1   3 7156.79  118.01
   2  -1  -3 6953.40  115.85
   2   1  -3 7280.50  117.14
  -2  -1   3 7111.88  114.29
   2  -1  -3 7232.88  118.15
  -2   1   2  180.32    6.74
   2   1  -2  195.25    6.63
   2  -1  -2  193.65    5.30
   2  -1  -2  198.75    7.00
   2   1  -2  186.16    4.84
  -2  -1   2  181.81    4.85
   2  -1  -1 3264.31   55.61
   2   1  -1 3197.58   52.72
   2  -1   1 2695.97   44.78
   2  -1   2   30.05    2.30
  -2   1  -2   32.54    2.80
   2   1   2   34.40    3.01
   2  -1   3 2835.37   50.17
   2   1   3 2810.45   51.80
  -2   1  -3 2804.98   51.09
  -2   1  -4    0.22    2.00
   2   1   4    1.92    1.84
   2   1   5 1930.29   40.45
  -2   1  -5 1906.57   40.59
   2   1   6  244.05   11.19
  -2   1  -6  230.44   11.27
  -2   1  -7 1927.64   44.60
  -2   1  -8  161.99   10.99
  -2   1  -9   71.44    8.25
  -2   1 -10   22.40    5.63
  -2   1 -11  111.78   11.40
   2   2 -12   13.63    5.03
   2  -2 -12    4.31    4.35
   2   2 -11  257.43   14.94
   2  -2 -11  249.69   15.06
   2  -2 -10 1002.41   30.65
   2   2 -10  984.11   30.34
   2  -2  -9 1260.37   33.68
   2   2  -9 1222.95   33.16
   2  -2  -8  112.52    8.23
   2   2  -8  100.01    7.93
  -2  -2   8  112.61    8.03
  -2   2   7  536.05   20.13
  -2  -2   7  591.29   18.30
   2  -2  -7  625.27   18.99
   2  -2  -6    4.86    2.55
  -2  -2   6    6.51    2.15
  -2  -2   6    4.13    2.23
  -2   2   6    6.43    2.75
  -2   2   5   57.04    5.19
   2  -2  -5   63.50    4.80
  -2  -2   5   67.81    4.60
  -2  -2   5   64.66    4.21
  -2  -2   4 4183.36   72.74
   2  -2  -4 4242.12   73.13
   2   2  -4 4257.84   73.05
   2  -2  -4 4369.82   75.92
  -2  -2   4 4260.84   71.81
  -2   2   4 4250.84   75.46
   2   2  -3  721.89   16.01
   2  -2  -3  723.93   15.46
  -2  -2   3  711.66   14.89
  -2   2   3  705.76   13.16
   2   2  -3  700.62   14.92
  -2   2   3  693.29   17.12
  -2  -2   3  697.27   15.87
   2  -2  -3  726.65   17.54
   2  -2  -2  209.18    5.53
  -2  -2   2  199.99    5.89
   2   2  -2  204.61    6.85
  -2   2   2  202.26    7.24
   2   2  -2  196.95    5.80
   2  -2  -2  207.80    7.46
   2  -2  -1  676.68   15.28
  -2  -2   1  673.05   14.03
   2  -2  -1  668.60   12.02
   2   2  -1  671.02   13.80
   2   2   0    2.17    1.12
  -2   2  -1   20.16    1.60
  -2   2  -2 4013.26   67.42
  -2   2  -3  859.83   19.63
   2   2   3  866.56   21.12
   2   2   4  276.04   10.95
  -2   2  -4  242.39    9.74
  -2   2  -5    6.44    2.80
   2   2   5    4.61    2.47
   2   2   6   71.18    6.36
  -2   2  -6   73.99    6.40
  -2   2  -7   76.77    7.26
  -2   2  -8  943.83   28.76
  -2   2  -9    9.37    4.12
  -2   2 -10    1.62    3.89
  -2   2 -11   97.89   10.71
  -2  -3  13   47.02    7.01
   2   3 -12  420.94   20.42
  -2  -3  12  389.42   18.61
   2  -3 -12  409.22   20.71
  -2  -3  11  448.72   19.07
   2  -3 -11  468.17   20.95
   2   3 -11  451.49   20.36
  -2  -3  10    0.10    3.26
   2  -3 -10    2.62    3.49
   2   3 -10    0.80    3.51
  -2  -3   9   23.60    4.38
  -2  -3   9   28.08    4.65
   2  -3  -9   19.79    4.35
   2   3  -9   17.88    4.53
   2  -3  -8  471.27   17.40
  -2  -3   8  465.40   16.41
  -2  -3   8  470.53   16.26
  -2   3   7    9.63    3.35
  -2  -3   7   16.20    3.03
   2  -3  -7   20.80    3.85
  -2  -3   7    7.77    2.46
  -2   3   6  818.13   21.78
  -2   3   6  747.02   23.05
  -2  -3   6  729.29   19.07
  -2  -3   6  795.85   19.95
   2  -3  -6  770.86   20.78
   2  -3  -5 1802.77   36.70
  -2  -3   5 1801.29   35.13
  -2  -3   5 1817.67   35.74
  -2   3   5 1858.98   37.36
  -2   3   5 1788.71   39.58
  -2  -3   4  147.04    5.99
  -2   3   4  146.23    6.67
   2  -3  -4  148.84    6.55
  -2  -3   4  156.46    6.33
  -2   3   4  148.39    7.62
   2   3  -4  156.65    6.34
  -2   3   3    7.59    2.14
   2   3  -3    7.70    1.84
   2   3  -3    4.28    1.35
  -2   3   3    6.26    1.08
  -2   3   3    6.71    1.54
  -2  -3   3    2.83    1.45
   2  -3  -3    6.81    1.54
   2  -3  -3    7.41    2.78
   2  -3  -2   17.43    2.71
  -2  -3   2   15.90    1.99
  -2   3   2   18.31    1.70
   2   3  -2   13.45    1.91
  -2   3   2   15.66    1.32
   2   3  -2   13.39    1.68
   2  -3  -2   14.31    1.29
  -2   3   2   12.69    2.07
  -2   3   1 1074.13   18.62
  -2  -3   1 1105.74   21.56
   2  -3  -1 1076.34   22.14
   2  -3  -1 1088.66   19.36
   2   3  -1 1048.27   21.08
  -2   3   1 1046.47   22.08
   2  -3   0  450.37   11.57
   2   3   0  441.56   11.37
   2  -3   0  450.51   10.32
  -2   3  -1  364.77    7.95
   2   3   1  332.11   10.32
  -2   3  -2   20.07    2.12
   2   3   3  158.34    8.14
  -2   3  -3  134.13    6.10
  -2   3  -4   97.06    5.81
   2   3   4  107.46    6.86
  -2   3  -5  773.96   21.04
   2   3   5  773.86   22.37
  -2   3  -6  121.89    8.18
  -2   3  -7   56.12    6.32
  -2   3  -8   32.68    5.69
  -2   3  -9  333.59   16.84
  -2   3 -10  209.60   14.25
  -2   3 -11   13.45    5.54
  -2  -4  13   50.63    7.47
  -2  -4  12   98.21    9.46
   2  -4 -12  115.16   11.11
   2   4 -12   96.08    9.98
   2  -4 -11  572.82   24.00
  -2  -4  11  549.02   21.50
   2   4 -11  528.39   22.32
   2   4 -10  665.18   24.12
  -2  -4  10  624.77   22.14
   2  -4 -10  684.92   24.83
  -2  -4   9  144.67    9.26
   2  -4  -9  142.70   10.32
  -2  -4   9  139.42    8.89
   2  -4  -8  237.96   12.28
  -2  -4   8  229.66   10.37
  -2  -4   8  228.07   11.19
   2  -4  -7  187.52   10.17
  -2   4   7  191.98   10.34
  -2  -4   7  191.52    9.49
  -2  -4   7  169.17    8.14
   2  -4  -6 1416.32   32.08
  -2   4   6 1338.98   34.60
  -2   4   6 1405.34   32.13
  -2  -4   6 1306.53   28.29
  -2  -4   6 1392.38   30.65
  -2  -4   5 1657.66   32.57
  -2   4   5 1700.18   35.87
   2   4  -5 1755.29   33.79
   2  -4  -5 1668.64   35.34
  -2  -4   5 1695.70   34.47
  -2   4   5 1699.32   38.25
  -2   4   4  193.12    6.63
  -2   4   4  219.12    8.56
   2   4  -4  200.30    7.92
  -2  -4   4  203.25    7.88
   2   4  -4  200.58    7.14
  -2   4   4  211.69    9.46
   2   4  -3  953.39   19.49
  -2   4   3  946.07   20.58
   2  -4  -3  981.69   22.84
  -2  -4   3  954.44   20.69
  -2   4   3  905.29   21.94
   2   4  -3  950.85   20.65
  -2   4   3  946.51   18.61
   2  -4  -2   53.97    2.77
  -2   4   2   49.75    3.04
  -2   4   2   47.71    3.66
   2  -4  -2   48.95    3.93
   2   4  -2   49.07    3.45
  -2   4   2   47.36    2.65
  -2  -4   2   50.82    3.54
  -2  -4   1  120.84    5.48
   2  -4  -1  114.75    5.34
  -2   4   1  114.49    4.41
   2  -4  -1  108.62    4.16
   2   4  -1  113.19    5.21
  -2   4   1  104.67    5.03
   2   4   0 2656.50   47.75
   2  -4   0 2613.04   46.91
   2  -4   0 2672.85   45.90
   2   4   1 1238.99   26.32
   2  -4   1 1264.10   25.29
   2  -4   1 1247.49   24.97
   2   4   2  215.17    8.76
   2  -4   2  230.00    8.53
  -2   4  -3 2692.52   48.76
   2   4   4 1537.96   34.15
  -2   4  -4 1374.63   30.31
   2   4   5   34.77    4.59
  -2   4  -5   27.62    3.74
  -2   4  -6  156.84    9.31
  -2   4  -7  469.78   17.86
  -2   4  -8    1.74    3.38
  -2   4  -9  541.04   21.89
  -2   4 -10  448.01   21.03
  -2   4 -11   12.40    4.94
  -2  -5  13    8.38    4.17
  -2  -5  12   10.37    4.41
   2   5 -12   18.32    5.74
  -2  -5  11  423.98   19.14
   2   5 -11  499.78   21.54
   2   5 -10  765.79   26.52
  -2  -5  10  731.12   24.58
  -2  -5   9    7.15    2.92
  -2  -5   9   11.76    3.24
  -2  -5   8  822.32   21.36
  -2  -5   8  841.84   24.28
  -2  -5   7  394.11   12.41
  -2   5   7  395.01   15.63
  -2  -5   7  420.81   15.03
  -2   5   6  111.76    8.63
  -2  -5   6  117.79    5.72
  -2   5   6  124.78    6.48
  -2   5   6  126.38    7.99
  -2  -5   6  119.99    7.17
  -2   5   5  806.35   19.00
  -2  -5   5  801.87   17.97
  -2  -5   5  839.64   20.94
  -2   5   5  804.48   21.48
  -2   5   5  823.91   23.80
  -2   5   4 1001.94   21.23
   2   5  -4 1030.32   23.38
   2   5  -4 1004.19   20.79
  -2  -5   4 1011.80   23.22
  -2   5   4 1018.61   25.26
  -2   5   4  987.24   23.66
   2   5  -3  255.11    7.64
  -2   5   3  228.36    9.45
   2   5  -3  251.62    9.08
  -2  -5   3  261.78    9.12
  -2   5   3  241.77    7.55
  -2   5   3  248.34    8.92
  -2   5   2 5740.31   96.33
   2  -5  -2 5815.83   95.01
   2  -5  -2 5785.55   98.80
  -2   5   2 5830.25   97.54
   2   5  -2 5782.34   97.55
  -2   5   2 5727.51   95.06
  -2  -5   2 5826.83   97.67
  -2   5   1 2434.86   44.87
  -2  -5   1 2572.67   46.11
  -2   5   1 2444.95   43.90
   2  -5  -1 2496.26   45.37
   2   5  -1 2480.41   45.76
   2  -5  -1 2492.29   43.55
   2  -5   0 1911.88   34.87
  -2  -5   0 1910.92   37.11
   2  -5   0 1852.82   35.05
  -2   5   0 1869.51   35.47
   2   5   0 1882.26   36.63
   2   5   1   58.69    4.36
   2  -5   1   58.49    3.66
   2  -5   1   58.32    3.96
   2  -5   2    1.84    1.72
   2   5   2    0.15    1.51
   2  -5   3    5.27    2.39
   2   5   3    2.39    1.59
  -2   5  -4 1860.05   38.85
   2  -5   4 1895.18   41.10
  -2   5  -5 1342.62   30.89
  -2   5  -6 2048.55   44.39
  -2   5  -7   34.25    5.08
  -2   5  -8  348.96   16.14
  -2   5  -9  229.11   14.17
  -2   5 -10  154.48   12.31
  -2   5 -11  164.56   13.30
   2   6 -12  188.57   13.88
  -2  -6  12  143.18   11.53
  -2  -6  11  100.22    9.20
   2   6 -11  107.01   10.32
  -2  -6  10   60.77    6.93
  -2  -6   9   92.80    6.14
  -2  -6   9  109.39    8.70
  -2  -6   8  250.64    9.66
  -2  -6   8  272.46   12.90
  -2  -6   7 1169.99   25.08
  -2   6   7 1155.76   27.86
  -2  -6   7 1211.85   29.93
  -2   6   6  736.38   19.39
  -2   6   6  766.89   22.39
  -2  -6   6  730.97   21.02
  -2  -6   6  748.52   17.14
  -2   6   5 2635.31   49.84
  -2  -6   5 2722.60   52.45
  -2   6   5 2759.29   56.37
  -2   6   5 2662.86   53.41
   2   6  -4    4.38    1.88
  -2  -6   4    1.41    2.18
  -2   6   4   10.07    2.89
  -2   6   4    5.14    1.52
  -2   6   4    6.75    2.08
   2   6  -4    5.49    1.54
   2   6  -3  510.83   11.89
  -2   6   3  495.88   15.12
  -2   6   3  492.41   14.15
   2   6  -3  489.45   14.54
  -2   6   3  495.32   12.90
  -2  -6   3  496.13   14.59
   2  -6  -2 1007.04   21.06
  -2   6   2  961.66   22.37
   2   6  -2  999.49   22.99
  -2   6   2  977.43   20.98
  -2  -6   2 1021.63   23.04
  -2   6   1  713.76   17.12
   2  -6  -1  750.69   18.05
  -2  -6   1  786.24   19.04
  -2   6   1  732.42   17.12
   2   6  -1  775.82   18.96
   2  -6  -1  736.38   16.95
  -2  -6   0 1038.65   23.81
  -2   6   0  976.67   22.25
   2  -6   0 1012.01   21.54
   2  -6   0 1029.62   21.90
   2   6   0 1003.17   23.43
   2   6   1 3531.56   63.91
   2  -6   1 3441.69   60.10
   2  -6   1 3508.79   62.12
   2  -6   2   98.97    4.74
   2   6   2   95.90    6.22
   2  -6   2   99.14    5.87
   2   6   3 2645.79   53.35
   2  -6   3 2726.34   52.48
   2  -6   4  223.84   10.54
  -2   6  -5  161.57    8.69
   2  -6   5  152.31    9.22
  -2   6  -6  253.41   11.88
   2  -6   6  264.98   12.94
  -2   6  -7  419.85   16.77
   2  -6   7  431.80   17.98
  -2   6  -8   35.78    5.64
   2  -6   8   43.75    6.64
  -2   6  -9  620.73   23.83
   2  -6   9  608.44   24.42
  -2   6 -10  116.80   10.73
   2  -6  10  133.52   11.65
  -2   6 -11  474.41   22.79
  -2  -7  12   43.88    6.96
  -2  -7  11   22.20    5.23
  -2  -7  10  145.00   10.73
  -2  -7   9   15.71    4.31
  -2  -7   8  320.01   14.54
  -2  -7   8  325.80   10.44
  -2   7   7 1508.56   34.25
  -2  -7   7 1542.28   36.77
  -2   7   6   26.97    4.07
  -2  -7   6   30.47    4.33
  -2   7   6   25.79    3.36
  -2   7   5   77.26    5.27
   2   7  -5   78.86    6.22
  -2   7   5   71.56    6.65
  -2   7   5   83.18    6.41
  -2  -7   5   81.04    6.28
  -2   7   4  494.96   15.73
   2   7  -4  510.93   16.06
   2   7  -4  509.09   11.94
  -2   7   4  487.07   16.84
  -2  -7   4  493.53   15.78
  -2   7   4  499.30   14.26
   2  -7  -3  424.81   12.52
  -2   7   3  441.40   13.84
  -2   7   3  423.24   13.96
   2   7  -3  436.17   14.15
   2   7  -3  434.97   10.59
  -2   7   3  425.90   12.57
  -2  -7   3  416.78   13.80
   2  -7  -2 1778.04   34.51
  -2   7   2 1766.87   35.40
  -2   7   2 1735.25   34.46
   2   7  -2 1793.40   36.75
  -2  -7   2 1748.79   36.71
  -2   7   1  666.55   16.68
  -2  -7   1  687.71   18.70
   2  -7  -1  694.03   17.96
  -2   7   1  700.24   17.31
   2   7  -1  713.53   19.02
   2  -7  -1  699.94   17.14
   2  -7   0  741.09   17.60
  -2  -7   0  759.67   19.99
  -2   7   0  723.59   18.76
   2  -7   0  749.85   18.21
   2   7   0  742.17   19.72
   2  -7   1   59.30    3.80
   2  -7   1   53.02    4.43
   2   7   1   63.71    5.08
   2  -7   2   27.83    2.53
   2  -7   2   30.71    3.66
   2   7   2   33.07    3.93
   2  -7   3   88.51    4.58
   2  -7   3   97.59    6.61
   2  -7   4  816.27   23.23
   2  -7   5  386.95   15.47
  -2   7  -6  527.02   18.27
   2  -7   6  559.91   20.21
   2  -7   7   65.02    7.14
  -2   7  -7   62.69    6.43
   2  -7   8   61.91    7.62
  -2   7  -8   64.57    7.37
  -2   7  -9   64.46    7.60
   2  -7   9   53.59    7.45
  -2   7 -10    8.63    4.61
  -2   7 -11  256.99   16.59
  -2  -8  11    7.48    3.71
  -2  -8  10  223.47   13.66
  -2  -8   9   34.73    5.50
  -2  -8   8 1140.34   31.96
  -2  -8   7    4.24    2.91
  -2   8   6  286.64   11.71
  -2  -8   6  299.53   13.29
  -2   8   5   -0.72    2.24
  -2   8   5    0.89    1.77
  -2   8   4   94.92    6.55
  -2   8   4   88.63    6.72
   2   8  -4   89.59    4.01
  -2  -8   4   94.00    6.75
  -2   8   4   91.57    5.83
   2   8  -3   44.05    2.85
  -2   8   3   41.23    3.90
  -2   8   3   43.62    4.33
  -2  -8   3   47.19    4.87
   2   8  -3   38.72    4.28
   2  -8  -3   41.95    3.90
  -2  -8   2 1747.22   37.75
  -2   8   2 1686.63   35.49
   2  -8  -2 1775.95   35.46
  -2   8   2 1740.15   35.65
   2   8  -2 1806.36   37.76
  -2   8   1    4.89    1.76
   2  -8  -1    5.48    2.20
  -2   8   1    6.02    1.81
  -2  -8   1    0.62    2.12
   2   8  -1    5.89    2.36
  -2  -8   0  118.39    7.34
   2  -8   0  117.75    6.23
  -2   8   0  111.95    6.65
   2   8   0  112.96    7.00
   2  -8   0  112.25    6.31
  -2   8  -1   14.54    2.80
   2  -8   1   14.24    2.71
   2  -8   1   14.18    2.36
   2  -8   2  192.71    6.94
   2  -8   2  202.33    9.37
   2  -8   3   17.46    3.36
   2  -8   3   14.22    2.04
   2  -8   4  323.89    9.55
   2  -8   4  316.17   13.64
   2  -8   5    6.13    3.14
   2  -8   5    7.94    1.90
   2  -8   6  462.70   18.65
  -2   8  -7   15.10    4.10
   2  -8   7    4.70    3.60
   2  -8   8    9.98    4.48
  -2   8  -8    7.54    3.53
   2  -8   9   33.25    6.43
  -2   8  -9   37.73    6.32
  -2   8 -10   86.43    9.33
  -2  -9  11    8.40    4.91
  -2  -9  10   84.38    8.80
  -2  -9   9    1.52    3.28
  -2  -9   8   52.24    6.69
  -2  -9   7 1057.01   30.13
  -2  -9   6    0.46    2.87
  -2   9   5    8.89    3.21
  -2  -9   5   10.34    3.38
  -2   9   5   11.06    2.74
  -2   9   4  287.54   12.87
  -2   9   4  282.33   11.41
  -2  -9   4  283.70   12.53
  -2   9   4  277.84   12.37
   2   9  -4  298.83    7.74
   2   9  -3  130.90    4.84
  -2   9   3  132.31    7.62
   2  -9  -3  117.84    6.98
  -2   9   3  124.29    7.13
  -2  -9   3  125.94    8.03
  -2  -9   2 1411.71   33.14
   2  -9  -2 1412.47   31.26
  -2   9   2 1415.93   30.51
  -2   9   2 1426.56   31.65
   2  -9  -1 1210.89   27.85
  -2   9   1 1200.12   25.84
  -2  -9   1 1204.99   29.66
  -2   9   1 1219.18   28.11
  -2  -9   0  192.17   10.00
  -2   9   0  225.34    9.99
   2  -9   0  199.06    9.22
  -2   9  -1   29.40    4.01
   2  -9   1   22.52    3.51
   2  -9   2   27.36    2.79
   2  -9   2   27.60    4.14
   2  -9   3   30.00    4.36
   2  -9   3   32.86    2.75
   2  -9   4  351.00    9.50
   2  -9   4  345.93   14.71
   2  -9   5  635.04   14.63
   2  -9   5  619.88   21.47
   2  -9   6  294.02   14.85
  -2   9  -7   23.80    4.85
   2  -9   7   34.46    5.97
  -2   9  -8   63.08    7.25
   2  -9   8   59.33    7.73
  -2   9  -9   -3.09    3.60
  -2   9 -10  -10.13    4.87
  -2 -10  10    8.97    4.00
  -2 -10   9   47.56    6.81
  -2 -10   8   58.00    7.54
  -2 -10   7  576.41   21.58
  -2 -10   6  481.68   18.83
  -2 -10   5  745.65   23.58
  -2  10   4  759.48   23.39
  -2 -10   4  721.59   22.91
  -2  10   4  789.68   23.68
   2  10  -3  191.32    5.88
   2 -10  -3  188.96    9.43
  -2  10   3  172.48    9.30
  -2  10   3  190.92    9.49
  -2 -10   3  186.15   10.31
  -2 -10   2   99.08    7.59
   2 -10  -2  103.24    6.90
  -2  10   2   88.29    6.01
  -2  10   2   95.33    6.64
  -2  10   1  257.89    9.33
   2 -10  -1  255.02   10.96
  -2 -10   1  252.84   12.04
  -2  10   1  262.00   11.34
   2 -10   0  815.74   22.38
  -2 -10   0  829.20   24.23
   2 -10   1 1216.06   29.66
   2 -10   2  327.08   13.62
   2 -10   3  900.51   25.72
   2 -10   4  442.63   17.25
   2 -10   4  432.29   10.16
   2 -10   5   69.88    7.58
   2 -10   6  219.89   13.09
   2 -10   7  167.94   12.06
  -2  10  -8   47.93    6.66
   2 -10   8   59.17    7.72
  -2  10  -9  274.04   15.77
  -2 -11   9  105.55    9.87
  -2 -11   8  292.35   15.89
  -2 -11   7  226.04   13.49
  -2 -11   6   30.55    5.38
  -2 -11   5  301.18   14.47
  -2 -11   4  322.53   14.89
   2 -11  -3  318.20   13.37
   2  11  -3  337.28    8.04
  -2  11   3  323.97   13.09
  -2 -11   3  310.45   14.38
  -2 -11   2  565.78   19.60
  -2  11   2  526.60   16.09
   2 -11  -2  543.97   17.81
   2 -11  -1 1331.87   32.08
  -2 -11   1 1341.60   34.13
  -2  11   1 1302.90   28.23
  -2 -11   0  660.69   22.06
   2 -11   0  677.92   20.49
   2 -11   1   11.82    3.42
   2 -11   2    0.28    2.58
   2 -11   3   16.50    3.96
   2 -11   4  511.98   19.77
   2 -11   5 1009.88   30.63
   2 -11   6  578.68   22.73
   2 -11   7   73.00    8.66
  -2  11  -8   40.32    6.55
  -2 -12   8   36.40    6.87
  -2 -12   7   12.07    4.20
  -2 -12   6  801.32   27.19
  -2 -12   5  298.36   15.62
  -2 -12   4   13.98    4.15
  -2 -12   3  339.93   15.76
   2 -12  -3  334.35   14.18
  -2  12   3  315.09   13.11
  -2 -12   2  113.80    8.95
  -2  12   2  118.45    6.93
   2 -12  -2  114.40    8.31
  -2  12   1    8.69    2.43
   2 -12  -1   -0.02    2.60
  -2 -12   1    2.93    3.42
  -2 -12   0  818.87   26.18
   2 -12   0  855.92   24.76
   2 -12   1  415.34   16.30
   2 -12   2   83.22    7.33
   2 -12   3  145.72   10.16
   2 -12   4  597.44   22.25
   2 -12   5    4.02    3.97
   2 -12   6   77.44    8.51
  -2 -13   7   46.23    6.82
  -2 -13   6  254.23   14.88
  -2 -13   5  228.51   13.87
  -2 -13   4   49.53    6.78
  -2 -13   3    7.60    3.78
   2 -13  -3    6.95    3.29
  -2 -13   2   62.24    7.32
   2 -13  -2   55.78    6.06
   2 -13  -1  208.26   11.61
  -2 -13   1  213.03   12.95
   2 -13   0  134.91    9.27
  -2 -13   0  147.27   10.93
   2 -13   1   93.96    8.02
   2 -13   2    6.49    3.75
   2 -13   3   53.53    6.71
   2 -13   4   83.44    8.33
   2 -13   5  150.77   11.37
  -2 -14   5   53.76    7.49
  -2 -14   4  492.22   21.31
  -2 -14   3   81.03    8.85
  -2 -14   2   75.59    8.51
   2 -14  -2   76.35    7.43
   2 -14  -1   31.72    5.30
  -2 -14   1   34.40    6.15
   2 -14   0    2.04    3.40
  -2 -14   0    1.21    3.43
   2 -14   1   10.89    4.14
   2 -14   2  334.29   16.34
   2 -14   3    9.76    3.97
   2 -14   4   -0.01    3.24
  -2 -15   3  713.94   26.94
  -2 -15   2   76.37    8.75
   2 -15  -2   63.89    7.48
   2 -15  -1  149.84   10.92
  -2 -15   1  170.69   12.85
   2 -15   0   17.43    4.60
  -2 -15   0   18.76    5.29
   2 -15   1  316.85   16.26
   2 -15   2   -0.40    3.24
   2 -15   3  278.24   15.94
   2 -16  -2   -5.17    4.13
   2 -16  -1   10.55    4.37
   2 -16   0  109.16    9.75
   2 -16   1   17.90    5.17
   3   0 -13   -4.70    4.66
   3   0 -12 1639.45   45.94
   3   0 -11    3.06    4.08
   3   0 -10   90.31    8.61
   3   0  -9    1.30    2.96
   3   0  -8  378.71   15.10
  -3   0   7   -1.12    2.13
   3   0  -7    1.18    2.48
   3   0  -6 3999.56   74.28
  -3   0   6 3934.90   73.85
   3   0  -6 3986.30   72.66
  -3   0   6 3998.90   68.37
   3   0  -5    0.51    2.42
  -3   0   5    2.32    1.01
  -3   0   5    2.01    2.18
  -3   0   4  643.76   17.23
   3   0  -4  637.61   17.21
  -3   0   4  616.79   11.94
   3   0  -3    1.57    2.15
   3   0  -2 1058.67   23.41
   3   0  -2 1037.18   17.69
   3   0  -1    0.81    0.69
   3   0   1    0.79    1.10
   3   0   2    2.92    1.42
   3   0   3    1.66    1.56
   3   0   4   87.56    5.72
   3   0   5    0.38    1.72
   3   0   6  503.93   17.39
  -3  -1  14   53.30    8.14
   3  -1 -13  180.55   14.34
   3   1 -13  165.17   13.54
  -3  -1  13  193.50   13.25
   3  -1 -12   29.09    6.10
   3   1 -12   35.87    6.62
   3  -1 -11  740.97   26.68
   3   1 -11  718.82   26.29
   3  -1 -10  216.24   13.00
   3   1 -10  231.47   13.36
   3  -1  -9  472.81   18.27
   3   1  -9  458.08   18.19
  -3  -1   9  480.81   16.50
   3  -1  -8  469.17   17.00
   3   1  -8  450.67   16.97
  -3  -1   8  456.79   14.84
   3   1  -7 1666.83   37.85
  -3  -1   7 1656.23   37.73
  -3   1   7 1619.32   38.92
   3  -1  -7 1649.73   37.23
  -3  -1   7 1724.67   34.43
  -3  -1   6  985.53   24.68
   3  -1  -6  981.18   23.90
   3   1  -6  974.99   24.90
  -3   1   6  963.87   25.48
  -3  -1   6  961.15   21.26
   3  -1  -5  446.18   15.18
  -3  -1   5  474.78   14.73
  -3   1   5  463.87   15.15
  -3   1   5  477.02   10.72
  -3  -1   5  473.91   11.49
   3  -1  -5  473.30   13.75
   3   1  -5  482.38   14.88
   3  -1  -4 1621.70   30.74
   3   1  -4 1618.66   32.75
  -3   1   4 1590.07   33.48
  -3   1   4 1542.29   25.81
   3  -1  -4 1573.76   33.27
  -3  -1   4 1574.27   27.95
  -3  -1   4 1599.61   32.81
   3   1  -3    8.41    2.40
   3   1  -3    4.73    0.95
  -3   1   3   10.76    2.19
  -3  -1   3    6.95    1.12
   3  -1  -3    7.14    2.83
   3   1  -2    5.39    1.02
   3  -1  -2    1.65    1.90
   3   1  -1 2141.27   37.36
   3  -1  -1 2225.94   41.82
   3  -1   0  451.75    9.21
   3  -1   1  318.96    7.94
   3   1   2 1363.09   28.00
   3  -1   2 1322.53   25.70
   3   1   3    1.79    1.54
   3  -1   3    2.51    1.64
   3  -1   4  555.97   15.60
   3   1   4  547.46   16.57
   3   1   5   86.04    6.39
  -3  -2  14    2.24    3.89
  -3  -2  13   18.32    5.42
   3  -2 -13   23.48    6.30
   3  -2 -12  383.82   19.51
  -3  -2  12  353.51   17.00
   3   2 -12  357.18   18.81
   3  -2 -11  182.41   12.49
   3   2 -11  184.90   12.78
  -3  -2  11  170.52   10.93
  -3  -2  10   79.56    7.12
   3  -2 -10   88.99    8.42
   3   2 -10   79.23    8.14
   3  -2  -9  906.83   27.15
   3   2  -9  894.61   27.16
  -3  -2   9  922.59   24.97
  -3  -2   8  162.70    9.40
   3  -2  -8  161.54    9.64
  -3  -2   8  162.06    8.49
   3  -2  -7  983.77   25.51
  -3  -2   7  955.29   25.16
  -3  -2   7  981.41   23.41
  -3  -2   6 1245.91   28.92
   3  -2  -6 1270.12   28.85
   3   2  -6 1248.48   29.34
  -3   2   6 1308.85   31.61
  -3  -2   6 1240.57   26.44
   3   2  -5   16.83    3.05
   3  -2  -5   17.77    3.83
   3  -2  -5   17.73    2.72
  -3  -2   5   18.78    2.25
  -3  -2   5   16.27    2.75
   3  -2  -4  260.35    8.43
  -3   2   4  246.83   10.11
   3   2  -4  254.46    9.52
  -3  -2   4  244.05    7.40
   3  -2  -4  266.55   10.53
  -3  -2   3 2071.61   36.21
   3   2  -3 2075.96   39.73
   3  -2  -3 2078.72   36.29
   3  -2  -3 2014.63   40.43
   3   2  -3 2024.22   36.13
  -3   2   3 2057.59   40.87
  -3  -2   2   59.00    3.25
   3  -2  -2   53.63    4.39
   3  -2  -2   59.41    2.38
   3   2  -2   55.79    3.01
   3   2  -2   61.97    4.39
   3   2  -1 4653.23   78.32
   3  -2  -1 4802.66   82.02
   3  -2  -1 4739.94   76.05
   3   2   0 1765.35   33.18
   3   2   2   33.60    3.72
   3   2   3    7.06    2.35
  -3   2  -4    8.51    2.38
   3   2   4   14.62    3.18
   3   2   5 1489.45   35.18
  -3   2  -5 1504.43   35.16
  -3   2  -6  963.32   27.76
  -3   2  -7 1800.65   44.21
  -3   2  -8    6.52    4.11
  -3   2  -9   90.35    9.37
  -3  -3  14   11.34    4.87
  -3  -3  13    1.04    3.59
   3  -3 -13    6.09    4.26
   3   3 -12  227.94   14.95
   3  -3 -12  231.72   15.12
  -3  -3  12  241.55   14.13
   3  -3 -11  273.88   15.63
   3   3 -11  279.24   15.80
  -3  -3  11  271.38   14.13
   3  -3 -10  187.74   12.12
   3   3 -10  184.72   12.03
  -3  -3  10  184.75   10.82
   3  -3  -9  168.47   10.57
  -3  -3   9  175.15    9.87
  -3  -3   8    8.79    2.55
  -3  -3   8    7.70    2.64
   3  -3  -8    2.93    2.76
  -3  -3   7   78.73    5.95
   3  -3  -7   93.20    6.93
  -3  -3   7   85.52    5.84
  -3  -3   6 1131.99   26.69
   3  -3  -6 1138.28   26.89
   3   3  -6 1180.20   27.36
  -3   3   6 1174.72   30.17
  -3  -3   6 1149.53   25.42
   3  -3  -5 2502.91   47.73
   3  -3  -5 2550.55   51.61
  -3   3   5 2640.71   51.65
  -3   3   5 2528.00   43.39
  -3  -3   5 2534.48   46.49
   3   3  -5 2560.49   48.51
  -3  -3   5 2558.47   48.60
   3  -3  -4 1963.79   40.12
  -3   3   4 1976.98   40.06
   3  -3  -4 1911.64   35.99
   3   3  -4 1936.41   37.79
   3   3  -4 1908.98   35.81
  -3   3   4 1894.12   31.84
  -3  -3   4 1941.46   35.66
  -3  -3   3  263.46    8.21
  -3   3   3  268.88   10.24
   3  -3  -3  275.32    7.71
   3   3  -3  254.43    8.00
   3  -3  -3  267.79   10.38
   3   3  -3  271.26    9.52
   3  -3  -2 1700.28   28.11
  -3  -3   2 1769.80   32.41
   3  -3  -2 1676.79   34.66
   3   3  -2 1717.50   31.93
   3   3  -2 1765.78   34.56
   3  -3  -1   69.84    4.89
   3  -3  -1   81.65    3.13
   3   3  -1   74.04    4.11
   3   3   0  710.17   17.14
   3  -3   0  748.65   15.91
   3  -3   0  780.62   18.81
   3   3   1 2406.57   45.41
   3   3   3  288.86   11.59
  -3   3  -3  245.38    9.21
   3   3   4 2243.30   46.64
  -3   3  -4 2153.89   43.86
  -3   3  -5 2260.35   47.28
  -3   3  -6    8.92    3.23
  -3   3  -7  533.63   20.26
  -3   3  -8  387.85   17.99
  -3   3  -9   42.59    6.98
  -3   3 -10  465.77   22.67
  -3  -4  13  303.81   17.19
  -3  -4  12   73.54    8.21
   3  -4 -12   73.72    9.12
   3   4 -12   56.99    8.08
  -3  -4  11   70.97    7.46
   3   4 -11   70.56    8.37
   3  -4 -11   66.57    8.05
   3   4 -10  985.59   30.85
   3  -4 -10  973.70   30.26
  -3  -4  10  974.92   28.37
   3  -4  -9  132.93    9.48
  -3  -4   9  127.72    8.58
   3  -4  -8   64.18    6.32
  -3  -4   8   61.79    5.71
  -3  -4   8   62.98    5.65
  -3  -4   7  801.06   21.23
   3  -4  -7  819.68   22.77
  -3  -4   7  796.67   21.33
   3   4  -6   64.34    5.24
  -3   4   6   51.12    3.45
   3  -4  -6   62.58    5.21
  -3  -4   6   60.63    4.79
  -3  -4   6   62.49    4.76
  -3   4   5  614.36   13.66
   3  -4  -5  640.55   17.10
  -3   4   5  641.12   19.34
   3   4  -5  621.60   16.82
  -3  -4   5  635.36   16.48
  -3   4   4 1727.89   36.55
   3   4  -4 1687.15   33.67
   3   4  -4 1679.68   33.07
  -3   4   4 1660.21   29.24
  -3  -4   4 1670.97   32.84
   3  -4  -4 1699.38   36.79
  -3  -4   3   84.21    4.77
   3   4  -3   90.16    5.29
  -3   4   3   88.19    5.82
  -3   4   3   86.87    3.13
   3   4  -3   71.92    4.35
   3  -4  -3   85.38    5.92
   3  -4  -2  311.79    7.32
  -3  -4   2  332.59   10.21
   3  -4  -2  331.92   11.18
   3   4  -2  312.50    9.73
  -3   4   2  315.03   11.19
   3  -4  -1 1361.25   28.76
   3  -4  -1 1350.76   24.56
   3   4  -1 1304.35   27.15
   3   4   0 3143.74   57.27
   3  -4   0 3179.50   58.09
   3  -4   0 3230.71   55.06
  -3   4  -1  705.14   13.32
   3   4   1  702.36   18.35
   3  -4   1  738.70   17.27
   3  -4   1  741.49   18.53
   3   4   2  127.95    7.12
  -3   4  -2  140.63    5.45
   3   4   3   20.23    3.67
  -3   4  -3   20.41    2.68
   3   4   4    4.16    2.42
  -3   4  -4    3.45    1.82
  -3   4  -5  629.52   19.23
  -3   4  -6 1222.79   31.65
  -3   4  -7  252.30   13.19
  -3   4  -8   31.92    5.71
  -3   4  -9   10.29    4.28
  -3   4 -10  162.57   13.28
  -3   4 -11   80.62   10.23
  -3  -5  13    6.84    4.80
  -3  -5  12   36.96    6.49
   3   5 -12   40.00    7.52
   3  -5 -11   32.05    6.20
  -3  -5  11   28.03    5.24
   3   5 -11   30.58    5.94
  -3  -5  10  445.85   18.04
   3  -5 -10  441.63   19.18
   3  -5  -9  689.45   23.42
  -3  -5   9  654.03   20.01
  -3  -5   9  695.63   22.21
  -3  -5   8 1214.94   28.61
  -3  -5   8 1196.92   30.33
  -3   5   8 1182.32   27.37
   3  -5  -8 1230.52   31.72
  -3   5   7   64.81    4.52
  -3  -5   7   68.38    5.93
  -3  -5   7   65.02    5.03
  -3   5   6  120.62    5.71
   3   5  -6  120.87    6.95
  -3   5   6  132.19    8.19
  -3  -5   6  117.91    6.95
  -3   5   5  618.92   17.47
  -3   5   5  601.09   19.27
   3   5  -5  590.40   16.78
   3   5  -5  609.95   16.41
  -3  -5   5  602.14   16.78
  -3   5   5  599.93   14.05
  -3   5   4  377.56   13.51
  -3   5   4  366.90   11.55
   3  -5  -4  371.90   14.13
   3   5  -4  361.49   11.41
   3   5  -4  357.11   11.74
  -3   5   4  356.53    9.16
  -3  -5   4  342.12   11.35
  -3  -5   3  169.60    7.52
   3  -5  -3  161.27    8.47
   3   5  -3  172.62    7.34
  -3   5   3  166.75    8.21
  -3   5   3  173.29    6.58
  -3   5   3  164.23    5.46
   3   5  -3  176.58    7.50
   3  -5  -2  334.61    8.59
  -3  -5   2  336.73   11.07
  -3   5   2  340.25    8.51
  -3   5   2  333.60    8.97
   3  -5  -2  325.18   11.75
   3   5  -2  330.35   10.79
  -3   5   2  345.27   11.76
   3  -5  -1    1.47    1.87
  -3   5   1    1.87    0.60
   3  -5  -1    2.71    1.35
   3   5  -1    2.55    1.46
  -3  -5   1    0.88    1.69
   3  -5   0  301.95    9.10
   3  -5   0  279.02   10.12
   3   5   0  293.47   10.48
   3  -5   1  725.80   19.22
   3   5   1  740.55   19.90
   3  -5   1  761.18   18.54
  -3   5  -1  811.15   15.12
   3   5   2   87.06    6.02
  -3   5  -2  103.72    4.64
   3  -5   2   87.22    5.68
  -3   5  -3    9.14    1.96
   3  -5   3   10.97    2.78
  -3   5  -4   68.46    5.18
  -3   5  -5   88.92    6.67
  -3   5  -6   15.48    4.03
  -3   5  -7   15.98    3.92
  -3   5  -8  123.54   10.19
  -3   5  -9   43.73    7.08
  -3   5 -10   85.84    9.66
  -3  -6  13  474.39   22.16
  -3  -6  12   -0.31    3.71
  -3  -6  11  614.93   23.30
  -3  -6  10  100.02    8.58
  -3   6   9   73.01    5.80
  -3  -6   9   82.27    7.37
  -3  -6   9   81.14    6.09
  -3   6   8  867.44   22.42
  -3  -6   8  856.63   25.10
  -3  -6   8  904.81   22.64
  -3   6   7  193.67    8.42
  -3   6   7  212.64   11.28
  -3  -6   7  198.65   10.09
  -3   6   6    1.81    1.95
  -3  -6   6   -0.49    2.11
  -3   6   6    3.03    1.64
   3   6  -6    2.94    2.43
  -3   6   5 1024.85   25.33
   3   6  -5  986.45   24.64
   3   6  -5 1027.00   23.13
  -3  -6   5  999.99   24.57
  -3   6   5  994.89   21.50
  -3   6   4  272.75   11.47
   3   6  -4  262.28    9.33
   3   6  -4  265.73   10.40
  -3   6   4  272.91   10.21
  -3   6   4  268.89    8.38
  -3  -6   4  273.94   10.56
  -3  -6   3  455.07   14.14
  -3   6   3  489.51   15.13
   3  -6  -3  475.86   15.77
  -3   6   3  460.45   12.90
  -3   6   3  453.07   11.65
   3   6  -3  467.31   14.22
   3   6  -3  465.16   13.26
   3  -6  -2 1031.33   20.80
  -3  -6   2 1018.98   23.98
  -3   6   2  991.04   20.70
  -3   6   2  980.95   21.05
   3   6  -2 1012.24   23.72
   3  -6  -2 1031.10   24.64
  -3   6   2 1002.09   23.97
  -3  -6   1   86.31    5.83
  -3   6   1   83.63    3.72
   3  -6  -1   77.20    5.42
   3   6  -1   87.61    5.60
   3  -6  -1   78.90    4.38
   3  -6   0  125.19    6.79
   3  -6   0  131.20    6.03
   3   6   0  129.79    7.03
   3   6   1  117.99    6.97
   3  -6   1  104.80    6.19
   3  -6   1  112.06    6.12
   3   6   2  384.48   14.03
  -3   6  -2  406.87   10.86
   3  -6   2  406.08   13.30
   3  -6   2  371.34   12.40
   3  -6   3   13.92    3.16
  -3   6  -3   17.02    2.73
  -3   6  -4  445.59   14.28
   3  -6   4  455.87   16.25
   3  -6   5    0.00    2.73
  -3   6  -5   -3.57    2.38
   3  -6   6   19.24    4.38
  -3   6  -6   29.82    4.66
   3  -6   7   -1.17    3.42
  -3   6  -7    4.70    3.59
  -3   6  -8  334.83   16.37
   3  -6   8  275.38   15.75
   3  -6   9   25.08    6.17
  -3   6  -9   31.67    6.28
  -3  -7  12   -0.49    3.70
  -3  -7  11   38.85    5.74
  -3  -7  10  295.96   15.27
  -3  -7   9  208.12   12.11
  -3   7   8  204.33    9.62
  -3  -7   8  225.19   11.89
  -3   7   7  873.01   22.00
  -3  -7   7  863.24   24.81
   3   7  -6  139.02    7.28
  -3   7   6  132.04    8.52
  -3  -7   6  139.48    8.55
  -3   7   6  129.76    6.81
  -3   7   5  433.97   15.25
   3   7  -5  453.31   15.45
   3   7  -5  472.01   13.44
  -3   7   5  455.37   13.02
  -3  -7   5  444.97   15.32
  -3   7   4   60.99    4.86
   3   7  -4   60.54    4.32
  -3   7   4   65.66    5.77
   3   7  -4   58.38    5.00
  -3  -7   4   62.98    5.32
  -3   7   4   56.86    3.94
  -3  -7   3 3414.33   63.80
  -3   7   3 3427.88   64.34
  -3   7   3 3322.29   61.51
   3  -7  -3 3409.92   60.03
   3  -7  -3 3421.47   65.98
  -3   7   3 3387.84   60.08
   3   7  -3 3471.46   63.99
   3   7  -3 3519.06   61.19
  -3   7   2   20.17    2.49
   3   7  -2   24.89    3.36
   3  -7  -2   23.06    3.90
  -3   7   2   19.93    2.40
  -3   7   2   22.64    3.31
   3  -7  -2   22.84    2.57
  -3  -7   2   21.15    3.50
  -3  -7   1  452.72   14.89
   3   7  -1  448.45   14.49
   3  -7  -1  417.75   14.03
   3  -7  -1  439.53   12.41
   3  -7   0   98.29    5.97
   3  -7   0  104.41    5.83
   3   7   0  100.36    6.48
   3  -7   1  397.55   12.94
   3  -7   1  426.76   13.27
   3  -7   2    8.50    2.68
   3  -7   2    7.72    2.42
  -3   7  -3 2990.20   53.78
   3  -7   3 2880.87   57.24
   3  -7   3 2823.07   54.11
   3  -7   4    7.94    3.01
  -3   7  -4    2.34    2.02
  -3   7  -5  177.26    9.46
   3  -7   5  176.74   10.67
   3  -7   6    5.76    3.31
  -3   7  -6    5.66    2.73
   3  -7   7   -0.30    3.33
  -3   7  -7   -0.35    2.82
   3  -7   8   17.14    5.05
  -3   7  -8   19.34    4.75
  -3   7  -9  688.89   25.94
  -3  -8  12   66.75    8.46
  -3  -8  11    4.44    3.58
  -3  -8  10   75.14    7.92
  -3  -8   9   11.97    4.16
  -3  -8   8 1293.55   34.40
  -3  -8   7   16.94    3.99
  -3   8   7   16.41    2.97
   3   8  -6   72.48    5.14
  -3   8   6   67.41    6.32
  -3  -8   6   59.86    6.10
  -3   8   6   62.03    4.91
   3   8  -5    4.47    2.14
  -3   8   5    0.11    2.03
  -3   8   5   -2.36    1.69
  -3  -8   5    1.32    2.24
   3   8  -4   13.86    2.55
  -3   8   4   16.35    3.05
  -3   8   4   17.26    2.68
  -3  -8   4   17.48    3.52
  -3   8   3   26.71    3.27
  -3   8   3   20.47    2.70
   3   8  -3   29.34    3.27
  -3  -8   3   23.29    3.66
  -3   8   3   21.53    3.53
   3  -8  -3   24.00    3.12
   3  -8  -2 3474.11   61.40
  -3   8   2 3418.85   61.48
  -3  -8   2 3426.99   65.20
   3  -8  -2 3329.26   64.86
  -3   8   2 3354.21   61.82
  -3   8   2 3450.33   63.43
   3  -8  -1  103.46    6.76
  -3  -8   1  106.34    7.06
  -3   8   1   99.34    6.08
   3  -8  -1   93.59    5.63
   3  -8   0 1738.66   36.74
   3  -8   0 1802.01   36.45
   3  -8   1   23.01    3.34
   3  -8   1   21.82    3.00
   3  -8   2  821.38   20.25
   3  -8   2  806.59   22.08
   3  -8   3    5.19    2.68
   3  -8   3    1.06    1.78
   3  -8   4 1240.52   27.79
  -3   8  -4 1261.83   29.12
   3  -8   4 1230.84   32.09
   3  -8   5   12.47    3.97
   3  -8   5   12.41    2.80
  -3   8  -5    9.98    2.99
  -3   8  -6  913.50   26.10
   3  -8   6  889.19   28.38
   3  -8   7   34.19    5.98
  -3   8  -7   30.80    5.11
  -3   8  -8  781.33   26.61
   3  -8   8  776.44   28.23
  -3  -9  11   57.66    8.15
  -3  -9  10   88.84    9.01
  -3  -9   9  367.44   17.38
  -3  -9   8  261.84   13.99
  -3  -9   7  362.51   16.04
  -3   9   7  364.45   13.84
  -3   9   6  238.39   10.46
  -3  -9   6  241.89   12.37
  -3   9   5  495.76   17.50
  -3   9   5  506.49   15.81
   3   9  -5  522.43   13.97
  -3  -9   5  514.52   18.16
   3   9  -4    2.62    1.82
  -3   9   4    2.58    1.85
  -3  -9   4    1.17    2.47
  -3   9   4    1.10    1.78
  -3  -9   3 1562.69   36.79
  -3   9   3 1560.58   35.62
  -3   9   3 1531.29   34.03
   3  -9  -3 1591.10   33.53
  -3   9   3 1595.73   33.89
   3   9  -3 1654.06   32.30
   3  -9  -2   98.75    6.06
  -3  -9   2   94.59    7.22
  -3   9   2   97.22    6.19
  -3   9   2   88.64    6.15
  -3   9   1   26.37    3.43
   3  -9  -1   40.40    4.78
   3  -9  -1   21.99    3.20
  -3  -9   1   22.05    3.90
   3  -9   0  284.18   11.29
   3  -9   0  294.18   11.39
   3  -9   1  283.19   11.77
   3  -9   1  301.65   10.98
   3  -9   2  108.33    6.21
   3  -9   2  101.76    7.13
   3  -9   3 2245.57   42.87
   3  -9   3 2144.27   47.63
   3  -9   4  182.67    8.06
   3  -9   4  170.44   10.40
   3  -9   5   42.46    5.95
  -3   9  -5   39.02    4.70
   3  -9   5   37.90    4.01
   3  -9   6    0.27    3.31
  -3   9  -6    1.85    2.95
   3  -9   7    1.46    3.57
  -3   9  -7    0.64    3.07
   3  -9   8    8.23    4.59
  -3 -10  10   63.16    8.29
  -3 -10   9   65.65    8.09
  -3 -10   8  485.83   20.29
  -3 -10   7   42.69    5.99
  -3 -10   6  106.22    8.60
  -3  10   5  334.33   14.45
  -3  10   5  363.47   13.61
   3  10  -5  377.73   10.98
  -3 -10   5  348.29   15.46
  -3 -10   4  207.67   11.46
  -3  10   4  198.29   10.16
   3  10  -4  205.95    7.77
  -3  10   4  208.29    9.83
   3  10  -3  261.98    9.21
  -3 -10   3  242.49   12.15
  -3  10   3  239.00   11.06
  -3  10   3  243.87   10.77
   3 -10  -3  245.51   10.55
  -3  10   3  261.86   11.01
   3 -10  -2  780.97   20.95
  -3 -10   2  797.56   23.90
  -3  10   2  758.23   21.37
  -3  10   2  772.32   21.00
  -3  10   1   74.25    6.13
  -3 -10   1   84.18    7.12
   3 -10  -1   78.97    6.04
   3 -10   0    7.00    2.69
   3 -10   1   20.81    3.80
   3 -10   1   27.53    3.89
   3 -10   2  373.75   14.95
   3 -10   2  395.14   12.66
   3 -10   3    1.59    2.58
   3 -10   3    1.51    2.02
   3 -10   4  193.70   11.56
   3 -10   5    3.03    3.14
  -3  10  -5   10.93    3.37
   3 -10   6   27.14    5.69
   3 -10   7    8.20    4.22
  -3 -11   9  437.73   20.40
  -3 -11   8  237.21   14.21
  -3 -11   7   24.90    5.12
  -3 -11   6   23.20    4.96
  -3 -11   5  160.12   10.56
   3  11  -4   43.52    3.45
  -3 -11   4   38.88    5.64
   3  11  -3  216.65    8.18
  -3 -11   3  213.43   11.96
  -3  11   3  195.44   10.12
   3 -11  -3  201.81   10.14
   3 -11  -2  579.10   18.14
  -3 -11   2  538.03   20.08
  -3  11   2  542.04   17.29
   3 -11  -1    4.10    2.42
  -3 -11   1    5.21    3.06
   3 -11   0    3.03    2.43
   3 -11   1  206.25   10.77
   3 -11   2   37.92    3.94
   3 -11   2   41.13    5.35
   3 -11   3  119.29    8.90
   3 -11   4  131.36    9.96
   3 -11   5  104.17    9.06
   3 -11   6   24.39    5.10
  -3 -12   8   -0.40    3.47
  -3 -12   7  381.50   18.30
  -3 -12   6   -1.41    3.84
  -3 -12   5   81.87    8.13
  -3 -12   4  498.62   20.21
  -3 -12   3   52.10    6.69
   3 -12  -3   56.38    5.86
   3 -12  -2   42.05    5.21
  -3 -12   2   35.88    5.88
   3 -12  -1  736.97   22.47
  -3 -12   1  767.54   25.56
   3 -12   0  130.78    8.75
   3 -12   1  194.81   10.90
   3 -12   2   64.01    6.65
   3 -12   3    3.03    2.99
   3 -12   4   24.34    4.91
   3 -12   5  271.83   15.13
   3 -12   6  141.72   11.40
  -3 -13   7    1.09    3.65
  -3 -13   6  349.38   17.81
  -3 -13   5  292.13   16.00
  -3 -13   4  611.41   23.59
  -3 -13   3   49.58    6.76
   3 -13  -3   62.85    6.39
   3 -13  -2  211.46   11.44
  -3 -13   2  212.76   13.30
   3 -13  -1  156.97    9.96
  -3 -13   1  137.02   10.89
   3 -13   0  105.81    8.37
   3 -13   1  280.39   14.02
   3 -13   2  673.60   23.21
   3 -13   3    1.47    3.39
   3 -13   4  456.26   19.88
   3 -13   5   95.39    9.58
  -3 -14   5   23.10    5.50
  -3 -14   4   18.86    5.25
  -3 -14   3  221.37   14.10
   3 -14  -3  235.14   12.83
   3 -14  -2   20.17    4.15
  -3 -14   2   11.77    4.00
  -3 -14   1  617.99   24.61
   3 -14  -1  599.69   21.48
   3 -14   0  152.16   10.46
   3 -14   1  337.50   16.09
   3 -14   2   28.11    5.52
   3 -14   3   -0.48    3.09
   3 -14   4   10.03    4.08
   3 -15  -2   14.31    4.06
   3 -15  -1  154.59   10.88
   3 -15   0   12.11    4.19
   3 -15   1   39.34    6.10
   3 -15   2  189.57   12.68
   3 -16  -2   50.40    6.81
   3 -16  -1    5.15    3.71
   3 -16   0  215.42   13.54
   4   0 -13   -3.99    4.48
  -4   0  12  562.23   20.94
   4   0 -12  552.73   23.91
  -4   0  11   -2.98    2.65
   4   0 -11    0.07    3.44
  -4   0  10   12.66    3.26
   4   0 -10   15.35    4.09
  -4   0   9   -0.22    1.96
   4   0  -9   -2.57    2.99
   4   0  -8  815.51   24.07
  -4   0   8  838.10   20.04
  -4   0   7   -0.07    1.20
   4   0  -7   -0.89    2.52
   4   0  -6 2785.60   52.77
  -4   0   6 2643.41   45.61
   4   0  -6 2753.93   55.11
  -4   0   5    1.09    0.62
   4   0  -5    1.82    2.79
   4   0  -4 1797.13   38.52
   4   0  -3    2.39    2.62
   4   0  -2 4735.68   83.98
   4   0  -2 4661.65   75.13
   4   0  -1   -1.96    2.78
   4   0  -1    0.65    0.85
   4   0   1    0.70    1.19
   4   0   2 1082.37   23.53
   4   0   3    3.62    1.77
   4   0   4 3833.86   70.00
   4   0   5    1.21    2.29
   4  -1 -13  241.22   16.29
   4  -1 -12  291.92   16.96
   4   1 -12  309.28   17.43
  -4   1  12  316.34   15.09
  -4  -1  12  303.82   15.09
   4  -1 -11  107.15    9.83
   4   1 -11   96.37    9.22
  -4   1  11  116.34    8.43
  -4  -1  11  107.93    8.31
   4  -1 -10  356.10   16.75
   4   1 -10  354.33   16.77
  -4   1  10  370.09   14.20
  -4  -1  10  381.09   14.73
  -4   1   9   41.86    4.28
  -4  -1   9   36.60    4.32
   4  -1  -9   48.22    5.97
   4   1  -9   31.82    5.14
  -4   1   8   31.37    3.18
  -4  -1   8   36.31    3.62
   4  -1  -8   33.43    4.70
   4   1  -8   30.17    4.68
   4  -1  -7 2297.49   47.77
   4  -1  -7 2318.15   50.92
   4   1  -7 2329.64   50.27
  -4   1   7 2337.21   41.59
  -4  -1   7 2355.73   43.03
   4  -1  -6   41.72    5.45
   4  -1  -6   39.53    4.15
   4   1  -6   43.14    5.17
  -4   1   6   35.43    1.97
  -4  -1   6   37.68    2.76
   4  -1  -5   48.98    5.29
   4  -1  -5   54.72    4.23
   4   1  -5   56.80    5.35
  -4  -1   5   56.04    2.93
   4  -1  -4  802.76   18.27
   4   1  -4  810.31   21.66
   4  -1  -4  795.28   21.89
   4  -1  -3    8.87    2.93
   4   1  -3    5.78    2.67
   4   1  -3    4.72    0.95
   4  -1  -2  532.62   16.49
   4   1  -2  519.61   11.30
   4   1  -2  515.73   16.23
   4   1  -1 3686.24   62.46
   4  -1  -1 3721.85   68.72
   4  -1   0  168.76    4.93
   4   1   0  161.55    6.56
   4   1   1 1268.10   26.61
   4  -1   1 1214.28   23.14
   4   1   2   12.60    2.51
   4  -1   2   11.66    1.82
   4   1   3  624.79   17.81
   4  -1   3  627.83   16.00
   4   1   4   24.51    3.72
   4   1   5  914.22   25.13
   4  -2 -13  364.56   19.95
   4  -2 -12  100.32   10.07
   4   2 -12  108.86   10.43
  -4  -2  12   98.00    8.72
  -4  -2  11    2.22    3.14
   4  -2 -11    6.80    3.91
   4   2 -11    5.51    4.23
  -4  -2  10   66.43    6.13
   4  -2 -10   65.11    7.18
   4   2 -10   64.81    7.58
   4  -2  -9  562.87   20.19
   4   2  -9  547.59   20.58
  -4  -2   9  549.19   17.35
   4  -2  -8  430.96   16.32
  -4  -2   8  452.92   14.07
   4   2  -7 1686.05   39.24
   4  -2  -7 1711.06   37.69
  -4   2   7 1686.77   31.43
  -4  -2   7 1747.45   34.04
  -4   2   6   45.88    1.93
   4   2  -6   46.78    5.03
   4  -2  -6   51.11    4.58
  -4  -2   6   55.45    5.41
  -4   2   6   44.26    1.84
   4  -2  -6   63.14    6.56
  -4  -2   6   48.35    3.53
   4  -2  -5  547.41   14.89
   4   2  -5  567.53   17.39
   4  -2  -5  561.03   18.23
  -4  -2   5  558.40   13.14
   4   2  -4   12.08    2.96
   4   2  -4   11.05    1.54
   4  -2  -4   12.13    2.01
  -4   2   4   12.69    3.04
   4  -2  -4   11.67    3.06
  -4  -2   4    9.90    1.57
   4  -2  -3   17.81    3.46
   4   2  -3   20.31    1.94
   4  -2  -3   21.39    1.85
   4   2  -3   15.31    3.08
   4  -2  -2 1150.78   27.46
   4   2  -2 1131.11   22.34
   4   2  -2 1158.54   27.31
   4   2  -1  158.95    6.15
   4  -2  -1  166.24    8.61
   4  -2   0    2.76    2.59
   4   2   0    4.18    1.61
   4   2   2    2.43    1.85
   4   2   3   39.26    4.41
   4   2   4 1084.05   27.96
   4  -3 -13  276.98   17.32
  -4  -3  13  273.97   15.61
   4  -3 -12  636.77   25.75
   4   3 -12  643.81   26.19
  -4  -3  12  701.87   24.31
   4  -3 -11  229.10   14.12
   4   3 -11  246.36   14.83
  -4  -3  11  274.78   13.58
   4  -3 -10  602.04   22.31
   4   3 -10  617.47   23.27
  -4  -3  10  603.35   20.08
   4  -3  -9  599.50   20.88
  -4  -3   9  596.67   18.63
   4  -3  -8   14.74    3.61
  -4  -3   8   17.82    3.24
  -4   3   7   73.70    3.63
   4  -3  -7   79.84    6.20
   4   3  -7   78.54    6.77
  -4  -3   7   82.58    5.39
   4  -3  -6  660.61   17.42
   4  -3  -6  638.29   21.07
  -4   3   6  557.75   10.88
   4   3  -6  621.88   18.62
  -4  -3   6  618.26   15.34
  -4   3   6  573.59   10.78
   4  -3  -5   43.93    3.75
   4   3  -5   33.42    4.10
  -4  -3   5   36.76    3.20
   4  -3  -5   34.39    4.85
  -4  -3   4 1092.43   22.73
   4  -3  -4 1068.54   22.00
   4   3  -4 1100.40   26.38
   4   3  -4 1099.98   22.62
   4  -3  -4 1097.70   27.58
   4   3  -3 1484.49   32.84
   4  -3  -3 1473.86   33.58
   4   3  -3 1477.95   28.60
   4  -3  -2  107.13    7.04
   4   3  -2  117.46    5.31
   4   3  -2  122.26    7.30
   4  -3  -1    6.16    1.16
   4   3  -1    3.43    1.38
   4  -3  -1    2.33    2.39
   4   3   0  152.88    7.06
   4  -3   0  177.18    6.50
   4  -3   0  155.76    8.50
   4   3   1  262.55   10.18
   4   3   3  322.23   13.06
   4   3   4    6.45    2.76
  -4  -4  13   20.32    5.13
   4  -4 -12   16.03    5.10
  -4  -4  12   11.43    4.34
   4   4 -12   15.65    4.89
   4  -4 -11   82.44    8.70
   4   4 -11  108.09   10.12
  -4  -4  11  106.81    8.66
   4  -4 -10   27.84    5.15
  -4  -4  10   33.40    4.88
   4  -4  -9  494.15   18.67
  -4  -4   9  482.79   16.99
   4  -4  -8  795.56   23.40
  -4   4   8  786.59   18.25
  -4  -4   8  794.19   21.73
  -4   4   7  115.41    4.82
   4   4  -7  109.05    7.72
   4  -4  -7  116.39    7.25
  -4  -4   7  117.89    6.85
   4  -4  -6  376.50   12.91
   4  -4  -6  350.77   15.61
   4   4  -6  359.82   13.64
  -4   4   6  363.60    7.99
  -4  -4   6  370.35   12.01
   4  -4  -5  166.61   10.01
   4  -4  -5  163.48    7.25
   4   4  -5  164.43    8.61
   4   4  -5  173.19    7.50
  -4  -4   5  168.93    7.35
  -4  -4   4 1450.11   29.61
   4   4  -4 1457.70   32.30
   4   4  -4 1460.31   29.51
   4  -4  -4 1385.47   33.76
   4   4  -3 1168.07   27.87
  -4  -4   3 1249.61   26.06
   4  -4  -3 1186.53   29.03
   4   4  -3 1165.47   25.05
   4  -4  -2  105.55    6.94
   4   4  -2   96.31    5.38
   4  -4  -2   98.10    3.01
   4  -4  -1  503.30   16.34
   4  -4  -1  514.81   11.52
   4   4  -1  503.55   14.15
   4  -4   0   37.36    3.01
   4   4   0   35.63    3.64
   4  -4   0   39.18    4.66
   4  -4   1   45.41    3.86
   4  -4   1   40.76    4.73
   4   4   1   41.33    4.17
   4   4   2 1291.28   30.62
   4   4   3  818.45   24.33
  -4  -5  13   35.26    6.41
  -4  -5  12    7.15    4.15
   4  -5 -11   -3.37    4.03
  -4  -5  11    6.17    3.69
   4  -5 -10   61.42    7.22
  -4  -5  10   54.05    6.22
   4  -5  -9  599.69   21.12
  -4  -5   9  607.11   20.00
  -4   5   8  519.50   13.94
   4  -5  -8  500.29   17.84
  -4  -5   8  515.87   17.24
   4   5  -7    7.32    3.00
  -4  -5   7    5.65    2.61
  -4   5   7    4.24    1.25
   4   5  -6 1285.81   30.39
  -4   5   6 1306.57   23.85
  -4  -5   6 1253.12   28.73
   4  -5  -5  347.06   15.05
   4   5  -5  323.41   12.39
   4   5  -5  334.88   11.73
  -4   5   5  338.23    7.38
  -4  -5   5  333.15   11.56
   4   5  -4    1.02    1.52
   4  -5  -4    0.13    2.95
  -4  -5   4    1.91    1.73
   4   5  -4    1.97    2.38
  -4  -5   3  702.41   18.52
   4   5  -3  711.66   18.04
   4  -5  -3  702.82   20.89
   4   5  -3  700.53   19.55
   4  -5  -2  857.77   16.62
   4  -5  -2  837.17   23.22
   4   5  -2  867.18   20.93
   4  -5  -1  124.93    7.70
   4  -5  -1  140.49    5.34
   4   5  -1  123.01    6.59
   4  -5   0 2130.87   44.73
   4  -5   0 2207.30   40.53
   4   5   0 2198.70   43.78
   4  -5   1 1450.60   33.53
   4   5   1 1468.63   33.03
   4  -5   1 1499.64   31.04
   4  -5   2 1180.00   27.01
   4  -5   2 1065.05   27.65
   4  -5   3   79.46    6.12
   4  -5   4   35.57    4.80
  -4   5  -5    7.61    2.89
  -4   5  -6  812.77   25.22
  -4  -6  13   82.93    9.34
  -4  -6  12   37.91    6.32
  -4  -6  11  228.32   13.37
  -4  -6  10  437.00   18.03
  -4  -6   9   82.86    7.28
  -4  -6   8    1.34    2.49
   4   6  -7  150.32    8.89
  -4  -6   7  143.73    8.45
  -4   6   7  155.88    6.38
  -4   6   6  377.65    9.95
   4   6  -6  360.47   13.41
  -4  -6   6  372.06   13.51
   4  -6  -5 1361.20   35.32
   4   6  -5 1395.11   31.42
   4   6  -5 1377.15   31.21
  -4   6   5 1374.49   25.52
  -4  -6   5 1376.67   31.10
  -4  -6   4  623.24   18.17
   4  -6  -4  659.80   21.29
   4   6  -4  684.14   18.88
   4   6  -4  657.79   18.25
  -4  -6   3 1285.63   29.16
   4   6  -3 1274.36   28.51
   4  -6  -3 1211.95   31.02
   4   6  -3 1240.61   29.05
   4   6  -2    4.95    1.89
   4  -6  -2    3.46    1.28
   4  -6  -2   -1.29    2.81
   4  -6  -1  660.14   20.14
   4  -6  -1  700.18   16.03
   4   6  -1  716.05   19.29
   4  -6   0  467.15   15.87
   4  -6   0  499.44   13.50
   4   6   0  481.11   15.57
   4  -6   1  778.09   21.85
   4  -6   1  824.37   20.36
   4  -6   2  409.19   13.82
   4  -6   2  355.65   13.82
  -4   6  -3 1489.92   29.66
   4  -6   3 1521.45   34.54
   4  -6   3 1390.00   33.66
   4  -6   4   23.42    4.10
  -4   6  -4   25.89    3.63
  -4   6  -5  994.41   26.18
   4  -6   5  964.37   28.15
   4  -6   6  160.82   11.05
   4  -6   7    2.64    3.45
   4  -6   8  119.29   10.38
  -4  -7  12    5.32    4.34
  -4  -7  11 1034.32   32.21
  -4  -7  10   67.93    7.40
  -4  -7   9   21.37    4.23
  -4  -7   8  327.15   14.37
  -4  -7   7   16.89    3.95
   4   7  -7   16.13    3.55
  -4   7   6  121.97    5.61
   4   7  -6  122.06    7.51
  -4  -7   6  118.06    7.79
   4   7  -5 1411.59   31.65
   4   7  -5 1370.22   32.55
  -4   7   5 1421.21   27.53
  -4  -7   5 1416.59   32.86
  -4   7   4   -1.67    1.37
   4   7  -4    1.11    1.70
  -4  -7   4    3.12    2.45
   4  -7  -4    4.11    3.65
   4   7  -4    6.96    2.61
   4  -7  -3   63.39    6.50
  -4  -7   3   68.35    5.77
   4   7  -3   67.11    5.39
   4   7  -3   68.91    5.49
   4  -7  -2  324.51    9.66
  -4  -7   2  325.34   12.94
   4   7  -2  310.35   12.14
   4  -7  -2  313.72   13.20
   4  -7  -1  172.06    9.52
   4  -7  -1  180.67    7.30
   4  -7   0  693.35   20.71
   4  -7   0  749.56   18.55
   4  -7   1  220.83   10.52
   4  -7   1  237.10    9.82
   4  -7   2  258.92   11.48
  -4   7  -2  263.09    7.15
   4  -7   2  276.12   11.58
   4  -7   3   -1.06    2.63
  -4   7  -3    1.58    1.74
   4  -7   3    0.96    2.38
   4  -7   4    5.80    2.72
  -4   7  -4    0.48    1.83
   4  -7   4   -1.27    2.40
   4  -7   5   33.29    5.53
   4  -7   6  271.97   14.55
   4  -7   7  177.63   12.57
  -4  -8  12  196.28   13.93
  -4  -8  11   -0.78    3.48
  -4  -8  10  443.64   19.42
  -4  -8   9    8.53    3.54
  -4  -8   8  599.92   21.06
   4   8  -7   33.54    4.57
  -4  -8   7   37.55    5.19
  -4   8   6 1175.09   30.23
   4   8  -6 1148.45   27.53
  -4  -8   6 1105.66   29.65
   4   8  -5    1.26    2.35
  -4   8   5    0.55    1.34
  -4   8   5    3.59    2.48
  -4  -8   5    0.33    2.29
  -4  -8   4  122.59    8.12
   4   8  -4  121.16    7.15
  -4   8   4  121.92    6.72
  -4   8   4  124.95    6.04
   4  -8  -3   42.55    5.80
  -4   8   3   40.92    3.47
   4   8  -3   32.48    4.09
  -4  -8   3   38.30    4.70
   4  -8  -3   38.97    3.43
   4  -8  -2  167.93    7.15
  -4  -8   2  167.67    9.59
  -4   8   2  167.52    5.79
   4  -8  -2  142.18    9.09
   4  -8  -1   30.76    4.48
   4  -8  -1   32.21    3.37
   4  -8   0  376.78   14.49
   4  -8   0  418.85   13.34
  -4   8  -1   53.24    2.37
   4  -8   1   59.61    5.46
   4  -8   1   62.00    5.22
   4  -8   2   35.38    4.58
  -4   8  -2   37.84    2.80
   4  -8   2   31.78    4.40
   4  -8   3    5.70    2.80
   4  -8   3    5.67    2.73
   4  -8   4    4.41    2.74
   4  -8   4    5.49    2.53
   4  -8   5   -1.26    3.32
   4  -8   5   -2.17    2.64
   4  -8   6   37.97    6.15
   4  -8   7    5.89    3.68
  -4  -9  11  496.55   22.36
  -4  -9  10  112.60   10.24
  -4  -9   9   -0.04    3.25
  -4  -9   8  163.79   10.99
  -4  -9   7    9.11    3.76
   4   9  -7    5.50    2.68
   4   9  -6   31.17    4.06
  -4  -9   6   31.74    5.09
  -4  -9   5  987.00   27.66
   4   9  -5 1003.87   24.60
   4   9  -4   76.52    5.85
  -4   9   4   77.63    5.82
  -4   9   4   71.03    5.03
  -4  -9   4   65.80    6.34
  -4   9   3   18.73    2.84
  -4   9   3   17.80    2.69
   4   9  -3   12.60    2.80
  -4  -9   3   18.99    4.05
   4  -9  -3   14.44    2.48
   4  -9  -2  216.71    8.86
   4  -9  -2  217.85   11.45
  -4   9   2  199.72    7.63
  -4  -9   2  203.43   11.14
   4  -9  -1   46.05    4.26
   4  -9  -1   45.20    5.36
   4  -9   0  276.09   11.99
   4  -9   0  254.76   10.60
   4  -9   1  685.27   20.58
   4  -9   1  715.82   20.44
   4  -9   2  245.94   11.12
   4  -9   2  236.70   11.37
   4  -9   3    1.16    2.24
   4  -9   3   -1.41    2.82
   4  -9   4    5.06    2.92
   4  -9   4    9.72    3.25
   4  -9   5    7.11    4.08
   4  -9   6  144.36   10.97
   4  -9   7  230.28   14.37
  -4 -10  10  303.16   16.73
  -4 -10   9   29.14    5.93
  -4 -10   8    4.29    3.70
  -4 -10   7   61.18    7.06
   4  10  -6   43.93    4.34
  -4 -10   6   48.87    6.20
  -4 -10   5  499.04   19.02
   4  10  -5  494.05   15.28
  -4 -10   4  637.52   21.98
   4  10  -4  680.38   18.73
  -4 -10   3  564.81   20.53
   4 -10  -3  603.26   17.01
   4  10  -3  578.12   17.46
   4 -10  -2   21.68    3.22
  -4 -10   2   18.21    4.26
   4 -10  -1   82.43    7.05
   4 -10  -1   86.34    6.05
   4 -10   0  466.30   16.61
   4 -10   0  456.32   15.48
   4 -10   1  184.27    9.82
   4 -10   1  198.73   10.08
   4 -10   2  600.92   18.62
   4 -10   2  588.05   19.64
   4 -10   3  657.94   19.37
   4 -10   3  607.52   21.14
   4 -10   4   76.40    7.60
   4 -10   5  256.82   14.19
   4 -10   6  373.63   18.07
  -4 -11   9  318.72   17.10
  -4 -11   8  145.64   11.18
  -4 -11   7   37.04    5.97
  -4 -11   6  312.28   15.73
  -4 -11   5  288.06   14.73
   4  11  -4   63.92    5.20
  -4 -11   4   72.27    7.46
  -4 -11   3  330.09   15.74
   4 -11  -3  332.09   12.63
   4  11  -3  335.61   12.46
   4 -11  -2  236.37   10.54
  -4 -11   2  211.31   12.65
   4 -11  -1  155.22    8.64
   4 -11   0  818.80   23.79
   4 -11   0  775.37   22.64
   4 -11   1 1116.61   28.64
   4 -11   1 1122.36   29.38
   4 -11   2  125.05    8.99
   4 -11   3   32.75    5.19
   4 -11   4    5.43    3.53
   4 -11   5    2.72    3.44
  -4 -12   8   59.23    7.62
  -4 -12   7  156.71   11.79
  -4 -12   6   53.57    6.94
  -4 -12   5   10.18    4.20
  -4 -12   4  646.75   23.89
  -4 -12   3  366.72   17.25
   4 -12  -3  343.66   13.70
   4 -12  -2    3.42    2.18
  -4 -12   2    4.43    3.59
   4 -12  -1   40.63    4.93
   4 -12   0    6.42    2.65
   4 -12   1   21.55    4.48
   4 -12   2  373.28   16.12
   4 -12   3  173.89   11.32
   4 -12   4   52.80    6.87
   4 -12   5  124.65   10.46
  -4 -13   6   86.66    8.95
  -4 -13   5   10.00    3.93
  -4 -13   4  337.38   17.41
  -4 -13   3  177.34   12.47
   4 -13  -3  173.04   10.06
   4 -13  -2   19.20    3.80
  -4 -13   2   17.70    4.47
   4 -13  -1    2.83    2.85
   4 -13   0   31.75    4.97
   4 -13   1   22.46    4.32
   4 -13   2  107.96    8.79
   4 -13   3   13.70    4.09
   4 -13   4    1.43    3.36
   4 -14   0   24.30    5.13
   4 -14   1    5.09    3.45
   4 -14   2    0.40    3.32
   4 -14   3    6.63    3.78
   5   0 -12  310.24   17.42
   5   0 -11    6.33    4.25
   5   0 -10 2273.77   52.50
   5   0  -9    4.06    3.06
   5   0  -8   91.17    8.82
   5   0  -8   89.33    7.14
  -5   0   8   78.51    3.71
   5   0  -7    2.86    3.34
   5   0  -7    1.07    2.27
  -5   0   7   -0.04    0.49
   5   0  -6    7.06    3.17
   5   0  -6   17.21    3.36
   5   0  -5   -1.69    3.21
   5   0  -4 1284.04   32.32
   5   0  -3   -2.13    2.99
   5   0  -2  429.11   16.05
   5   0  -2  432.46    9.36
   5   0  -1   -3.55    3.44
   5   0  -1    1.16    1.07
   5   0   0  377.94   10.24
   5   0   0  345.58   10.86
   5   0   1    0.66    1.31
   5   0   2  340.93   10.88
   5   0   3   -0.48    1.77
   5  -1 -12   72.12    8.65
   5   1 -12   72.44    8.61
   5  -1 -11  213.97   13.45
   5   1 -11  186.91   12.81
   5  -1 -10   75.93    7.69
   5   1 -10   67.61    7.49
   5  -1  -9  822.71   25.11
   5   1  -9  814.84   25.46
  -5  -1   9  813.98   19.55
   5  -1  -8   20.97    3.87
   5   1  -8   18.23    3.85
  -5  -1   8   18.81    2.45
   5   1  -8   28.89    5.32
   5  -1  -8   22.46    5.22
  -5  -1   7  379.04    9.47
   5  -1  -7  376.19   16.71
   5  -1  -7  384.74   13.89
   5   1  -7  372.76   16.17
   5  -1  -6   24.89    4.73
   5  -1  -6   20.02    3.05
   5   1  -6   25.19    4.58
   5  -1  -5 1437.51   29.84
   5   1  -5 1441.29   35.22
   5  -1  -5 1458.25   35.92
   5   1  -4  811.05   23.64
   5  -1  -4  792.45   17.88
   5  -1  -4  823.41   24.06
   5   1  -3  321.54   13.74
   5  -1  -3  332.42   14.08
   5   1  -3  346.36    7.95
   5  -1  -2  511.69   17.42
   5  -1  -2  448.27    8.46
   5   1  -2  512.98   11.03
   5   1  -2  505.59   17.30
   5   1  -1  105.18    4.98
   5  -1  -1  105.52    4.40
   5  -1  -1  115.58    3.55
   5   1  -1   94.85    7.33
   5  -1  -1  118.32    8.31
   5   1   0  147.29    6.87
   5  -1   0  167.37    4.64
   5  -1   0  144.16    9.18
   5   1   1  642.72   16.98
   5  -1   1  652.31   13.79
   5   1   2  467.60   14.47
   5   1   3  103.04    6.66
   5  -2 -13   10.63    5.05
   5  -2 -12   -5.54    4.32
   5   2 -12   -1.59    3.82
   5  -2 -11   13.69    4.74
   5   2 -11    8.27    4.51
   5  -2 -10  361.11   16.46
   5   2 -10  343.12   16.72
   5  -2  -9  404.44   16.46
   5   2  -9  387.02   17.11
  -5  -2   9  404.58   12.97
   5   2  -8  103.86    8.91
   5  -2  -8  107.74    7.73
  -5  -2   8  103.86    5.51
   5  -2  -7  635.25   22.70
   5  -2  -7  644.08   18.80
   5   2  -7  595.76   20.95
  -5  -2   7  628.24   15.12
   5  -2  -6    0.59    1.89
   5  -2  -6    4.77    3.71
  -5  -2   6    2.82    1.47
   5   2  -6    0.64    2.88
   5  -2  -5  805.61   18.77
   5   2  -5  773.97   23.37
   5  -2  -5  797.64   24.37
   5  -2  -4 1507.68   28.38
   5   2  -4 1480.38   35.70
   5  -2  -4 1471.84   36.39
   5   2  -4 1520.26   27.79
   5   2  -3  113.29    8.00
   5  -2  -3  105.84    3.43
   5  -2  -3  104.45    7.90
   5   2  -3  105.77    4.55
   5  -2  -2  115.36    8.11
   5   2  -2  114.34    5.12
   5   2  -2  119.48    8.20
   5  -2  -1  998.95   27.00
   5  -2  -1  996.68   19.34
   5   2  -1  956.39   21.39
   5  -2   0   24.83    4.29
   5   2   0   21.19    2.82
   5   2   1 1620.55   34.00
   5   2   1 1432.38   32.70
   5   2   2 1139.49   27.60
   5   2   3  521.43   17.25
   5  -3 -13  175.56   13.61
   5  -3 -12   40.91    6.86
   5   3 -12   40.20    6.95
   5  -3 -11    5.74    3.72
   5   3 -11    0.46    4.14
   5  -3 -10  237.75   13.13
   5   3 -10  237.83   14.24
   5  -3  -9  225.51   11.87
  -5  -3   9  227.06    9.89
   5  -3  -8  235.51   11.22
   5   3  -8  232.17   12.84
  -5  -3   8  226.56    9.10
   5  -3  -7  106.66    6.96
   5  -3  -7  119.13   10.04
   5   3  -7  119.35    8.75
  -5  -3   7  120.70    6.15
   5  -3  -6   64.83    7.13
  -5  -3   6   69.42    4.50
   5  -3  -6   66.05    4.91
   5   3  -6   73.48    6.83
   5  -3  -5  204.26    7.56
  -5  -3   5  212.76    7.88
   5   3  -5  199.35   10.73
   5  -3  -5  200.95   11.36
   5   3  -4  810.62   23.78
   5   3  -4  846.52   18.62
   5  -3  -4  847.29   24.93
   5   3  -3 1463.52   35.05
   5  -3  -3 1453.30   35.46
   5   3  -3 1460.67   28.78
   5  -3  -2 1201.75   31.28
   5   3  -2 1234.15   25.54
   5   3  -2 1220.60   30.97
   5  -3  -1   19.77    1.89
   5   3  -1   16.39    2.44
   5  -3  -1   11.66    3.74
   5   3   0  182.82    8.29
   5  -3   0  193.92    7.21
   5  -3   0  178.89   10.24
   5  -3   1   53.66    5.88
   5   3   1   52.08    4.73
   5   3   2  163.18    9.22
   5   3   3 1070.26   28.45
   5  -4 -12  103.70   10.35
   5  -4 -11  281.47   15.35
   5   4 -11  281.92   16.42
   5  -4 -10  208.43   12.26
  -5  -4  10  207.52   10.74
   5  -4  -9  141.83    9.36
  -5  -4   9  136.86    8.01
   5  -4  -8  989.96   26.32
   5   4  -8  969.92   28.71
  -5  -4   8  970.57   23.93
   5  -4  -7  188.09    9.27
   5  -4  -7  181.14   12.15
   5   4  -7  176.45   10.51
  -5  -4   7  181.91    8.29
   5  -4  -6    4.18    2.05
   5  -4  -6    8.43    3.83
   5   4  -6    5.59    3.03
  -5  -4   6    7.42    2.32
  -5  -4   5  467.37   13.58
   5   4  -5  432.26   16.32
   5   4  -5  449.97   13.12
   5  -4  -5  423.18   17.35
   5   4  -4   75.76    4.71
   5  -4  -4   59.82    6.61
   5   4  -4   60.10    6.15
   5   4  -3  477.57   17.11
   5  -4  -3  485.40   17.96
   5   4  -3  502.21   13.81
   5  -4  -2 1337.50   33.25
   5   4  -2 1304.47   27.93
   5   4  -2 1284.10   32.39
   5  -4  -1   47.92    2.79
   5   4  -1   53.07    4.47
   5  -4  -1   47.72    5.58
   5   4   0  182.76    8.63
   5  -4   0  160.37    9.74
   5  -4   0  188.17    7.16
   5   4   1  512.22   16.70
   5  -4   1  546.96   15.25
   5  -4   1  517.43   18.24
   5  -4   2  669.33   18.67
   5  -4   2  563.36   19.75
  -5  -5  10   34.39    5.17
  -5  -5   9   14.94    3.40
   5   5  -8  824.54   25.85
  -5  -5   8  859.03   22.95
   5   5  -7  751.05   23.61
  -5  -5   7  780.78   20.93
  -5  -5   6  746.81   19.98
   5  -5  -6  742.17   25.50
   5   5  -6  734.40   22.63
   5   5  -5   21.16    4.02
   5   5  -5   24.41    3.14
  -5  -5   5   29.15    3.60
   5  -5  -5   18.31    4.73
   5   5  -4  120.07    8.22
   5   5  -4  126.59    6.75
   5  -5  -4  115.08    8.79
   5   5  -3  411.42   15.59
   5  -5  -3  416.42   16.42
   5   5  -3  397.25   12.82
   5  -5  -2  219.62    5.17
   5  -5  -2  261.12   12.48
   5   5  -2  250.70    9.79
   5   5  -2  252.56   11.97
   5  -5  -1  343.07   14.73
   5  -5  -1  355.74    9.41
   5   5  -1  351.19   12.36
   5  -5   0  272.91   12.83
   5  -5   0  277.65    9.19
   5   5   0  263.48   11.07
   5  -5   1   80.76    5.35
   5  -5   1   82.29    6.99
   5  -5   2   72.13    6.71
   5  -5   2   89.33    6.31
   5  -5   3  341.87   13.66
   5  -5   3  318.66   14.16
   5  -5   4   48.36    5.62
   5  -5   5   19.41    4.36
  -5  -6  10   17.61    3.97
  -5  -6   9  677.61   21.57
   5   6  -8   77.67    7.42
  -5  -6   8   72.44    6.23
   5   6  -7   40.66    5.51
  -5  -6   7   48.00    5.05
  -5  -6   6  433.72   14.90
   5  -6  -6  419.43   18.96
   5   6  -6  410.57   15.98
   5  -6  -5  229.88   13.39
  -5  -6   5  246.78   10.87
   5   6  -5  256.84   12.04
   5   6  -5  252.59   10.65
   5   6  -4   52.98    4.75
   5  -6  -4   42.89    5.87
   5   6  -4   54.80    5.69
  -5  -6   4   59.95    5.42
   5   6  -3  735.28   20.01
   5  -6  -3  744.47   23.66
   5   6  -3  726.93   22.22
   5  -6  -2   90.40    3.65
   5  -6  -2   89.08    7.72
   5   6  -2  103.99    6.54
   5  -6  -1  181.27   10.51
   5  -6  -1  183.00    6.61
   5  -6   0  542.57   19.20
   5  -6   0  576.12   15.07
   5  -6   1    5.28    2.11
   5  -6   1   -1.44    3.32
   5  -6   2   48.80    4.93
   5  -6   2   39.93    5.40
   5  -6   3    0.98    2.56
   5  -6   3    1.79    2.94
   5  -6   4  172.90   10.32
   5  -6   4  152.23    9.89
   5  -6   5   34.52    5.36
   5  -6   6  185.25   11.97
   5  -6   7   -1.57    3.65
  -5  -7  10    6.46    3.14
  -5  -7   9   30.78    4.98
   5   7  -8  151.75   10.07
  -5  -7   8  146.92    9.42
  -5  -7   7  221.23   11.05
   5   7  -7  203.21   11.09
  -5  -7   6  427.23   15.67
   5   7  -6  436.95   16.38
  -5  -7   5  798.97   22.78
   5  -7  -5  763.69   26.21
   5   7  -5  773.52   23.00
   5  -7  -4   58.21    6.87
   5   7  -4   66.34    6.28
  -5  -7   4   57.35    5.44
   5  -7  -3  379.87   16.38
   5   7  -3  387.00   15.20
   5  -7  -2   16.56    2.00
   5  -7  -2   17.21    3.82
   5  -7  -1  800.32   25.19
   5  -7  -1  887.08   19.41
   5  -7   0  182.46   10.72
   5  -7   0  200.12    8.29
   5  -7   1   -2.69    2.99
   5  -7   1    0.71    2.05
   5  -7   2    4.62    2.50
   5  -7   2    4.71    3.05
   5  -7   3  364.60   15.35
   5  -7   3  404.19   15.32
   5  -7   4   -0.40    2.68
   5  -7   4    2.21    3.04
   5  -7   5  900.23   27.60
   5  -7   5  839.33   25.72
   5  -7   6    6.28    3.63
  -5  -8  10  146.05   10.62
  -5  -8   9    4.98    3.60
   5   8  -8  102.59    8.27
  -5  -8   8   95.82    8.03
   5   8  -7    6.96    3.19
  -5  -8   7    9.35    3.37
  -5  -8   6 1320.48   33.54
   5   8  -6 1349.48   33.19
   5   8  -5   39.21    5.14
  -5  -8   5   32.69    4.70
   5  -8  -5   30.37    6.10
   5   8  -4   10.77    3.41
  -5  -8   4   10.66    3.23
   5  -8  -4   16.87    4.79
   5   8  -3   -1.49    3.10
   5  -8  -3    5.46    3.29
   5  -8  -2    8.68    3.73
   5  -8  -2   15.50    2.19
   5  -8  -1    5.99    2.04
   5  -8  -1    0.01    3.36
   5  -8   0 1639.76   40.22
   5  -8   0 1748.67   35.58
   5  -8   1   10.73    3.67
   5  -8   1   13.16    2.69
   5  -8   2  399.08   16.31
   5  -8   2  416.62   15.14
   5  -8   3   73.09    6.60
   5  -8   3   70.65    6.69
   5  -8   4  242.37   12.28
   5  -8   4  245.93   12.65
   5  -8   5   -1.02    3.21
   5  -8   6  327.21   16.44
  -5  -9  10   10.48    4.23
  -5  -9   9   22.26    5.05
  -5  -9   8   57.92    6.93
  -5  -9   7  252.79   13.33
   5   9  -7  268.31   12.62
  -5  -9   6  366.21   15.82
   5   9  -6  391.13   15.26
  -5  -9   5  279.68   13.51
   5   9  -5  279.47   12.57
   5   9  -4  148.87    9.06
  -5  -9   4  150.92    9.82
   5  -9  -4  182.70   12.38
   5  -9  -3  268.85   14.09
   5   9  -3  270.59   12.60
   5  -9  -2   11.61    4.21
   5  -9  -1  998.09   29.52
   5  -9  -1 1083.96   24.44
   5  -9   0   50.82    6.17
   5  -9   0   63.08    5.16
   5  -9   1   92.99    7.62
   5  -9   1   99.44    6.79
   5  -9   2   17.18    3.91
   5  -9   2   16.94    3.48
   5  -9   3   67.75    6.71
   5  -9   3   62.02    6.34
   5  -9   4   34.60    5.20
   5  -9   5  717.63   24.86
   5  -9   6    0.80    3.28
  -5 -10  10   77.12    8.84
  -5 -10   9  256.56   14.87
  -5 -10   8   83.35    8.59
  -5 -10   7   44.95    6.16
  -5 -10   6  345.63   16.15
   5  10  -6  354.57   14.36
   5  10  -5   85.17    6.78
  -5 -10   5   85.90    8.05
  -5 -10   4   61.95    6.89
   5  10  -4   61.56    6.15
   5 -10  -3  228.96   13.62
   5  10  -3  209.49   11.05
   5 -10  -2  268.06   14.27
   5 -10  -1  124.83    9.25
   5 -10   0  335.29   15.07
   5 -10   1    6.49    2.78
   5 -10   1    5.58    3.60
   5 -10   2   48.42    5.53
   5 -10   2   57.07    6.13
   5 -10   3    3.25    2.90
   5 -10   4   78.23    7.50
   5 -10   5   16.25    4.96
  -5 -11   9   11.31    4.07
  -5 -11   8  238.21   14.34
  -5 -11   7  395.58   18.38
  -5 -11   6   94.49    8.80
  -5 -11   5   30.64    5.71
  -5 -11   4    5.07    3.58
   5  11  -4    6.75    2.97
   5  11  -3   83.35    7.11
   5 -11  -2   86.31    8.76
   5  11  -2   79.84    7.13
   5 -11  -1  274.69   14.45
   5 -11   0  110.44    8.81
  -5 -12   8  222.19   14.68
  -5 -12   7   72.18    8.40
  -5 -12   6   38.22    6.18
  -5 -12   5  246.28   14.76
  -5 -12   4   16.20    4.47
   5  12  -2  302.87   13.89
  -5 -13   5   11.49    5.20
  -5 -13   4  262.84   15.87
   6   0 -12   -1.32    3.57
   6   0 -11    9.42    4.31
   6   0 -10  425.49   18.04
   6   0  -9    3.01    3.24
   6   0  -9    8.50    5.08
   6   0  -8   38.45    4.94
   6   0  -8   43.48    7.02
   6   0  -7   11.00    4.76
   6   0  -7   -0.67    2.24
   6   0  -6   31.29    3.69
   6   0  -6   36.58    6.00
   6   0  -5   -0.73    3.44
   6   0  -4  826.44   26.51
   6   0  -3    1.29    3.34
   6   0  -2  790.06   25.39
   6   0  -1    0.83    2.99
   6   0   0 1089.76   30.79
   6  -1 -12   26.50    5.54
   6   1 -12   18.01    5.18
   6  -1 -11  178.89   12.07
   6   1 -11  173.20   12.17
   6  -1 -10  373.01   16.60
   6   1 -10  386.46   17.35
   6  -1  -9  109.96    8.29
   6   1  -9  114.20    8.76
   6   1  -9  123.82   10.91
   6  -1  -9  111.08   11.09
   6   1  -8  472.66   20.33
   6  -1  -8  455.43   20.55
   6  -1  -8  472.40   16.40
   6   1  -8  438.38   16.74
   6   1  -7   50.05    7.04
   6  -1  -7   40.33    4.40
   6   1  -7   43.40    5.05
   6  -1  -7   47.33    6.99
   6  -1  -6   20.47    5.05
   6  -1  -6   28.33    3.54
   6   1  -6   18.72    4.87
   6  -1  -5 1034.15   22.83
   6   1  -5 1104.76   31.46
   6  -1  -5 1084.39   31.38
   6  -1  -4  129.27    5.21
   6   1  -4  136.82    9.96
   6  -1  -4  153.24   10.74
   6  -1  -3   99.03    8.72
   6  -1  -3   86.66    3.26
   6   1  -3   90.17    7.96
   6   1  -2   99.95    8.55
   6  -1  -2  105.12    8.76
   6   1  -1    7.46    3.08
   6  -1  -1   12.91    4.13
   6  -1   0  136.68    9.58
   6  -2 -12  242.61   14.75
   6   2 -12  270.86   16.24
   6  -2 -11  324.44   16.15
   6   2 -11  344.63   17.56
   6  -2 -10  105.89    8.48
   6   2 -10   99.80    8.88
   6  -2  -9   11.40    3.47
   6   2  -9    9.29    3.65
   6   2  -9    3.85    4.46
   6   2  -8   27.72    5.81
   6  -2  -8   26.00    3.96
   6  -2  -8   31.03    6.75
   6  -2  -7  713.74   25.75
   6  -2  -7  681.29   19.00
   6   2  -7  687.11   24.25
   6  -2  -6  726.46   18.22
   6   2  -6  707.38   24.56
   6  -2  -6  743.37   25.61
   6  -2  -5  625.57   14.69
   6   2  -5  594.31   21.87
   6  -2  -5  613.38   22.77
   6   2  -4  175.47   11.11
   6  -2  -4  171.98   11.40
   6   2  -3  421.36   17.58
   6  -2  -3  433.93   18.18
   6   2  -2    7.48    3.72
   6  -2  -2   11.05    4.08
   6   2  -1   25.97    4.69
   6  -2  -1   29.49    5.13
   6  -2   0  540.44   20.06
   6  -2   1  170.32   10.82
   6   3 -11  329.61   17.38
   6   3 -10  355.94   17.35
   6  -3  -9  154.21    9.25
   6   3  -9  158.74   11.92
   6  -3  -8  521.33   17.00
   6  -3  -8  540.92   23.05
   6   3  -8  547.33   21.70
   6  -3  -7  590.99   23.29
   6   3  -7  536.99   21.20
   6  -3  -6    6.01    5.03
   6   3  -6   -1.33    3.57
   6   3  -5  239.21   13.12
   6  -3  -5  235.52   13.68
   6   3  -4  323.01   15.18
   6  -3  -4  327.00   16.00
   6  -3  -3   21.00    4.86
   6   3  -3   20.12    4.69
   6  -3  -2  608.65   22.00
   6   3  -2  594.92   21.29
   6  -3  -1  933.48   28.15
   6   3  -1  917.58   27.76
   6  -3   0   42.24    5.74
   6  -3   1    6.55    2.24
   6  -3   1    6.65    3.32
   6  -3   2   69.85    7.11
   6   4 -11    3.85    3.90
   6   4  -9   98.91    9.40
   6  -4  -8   49.29    8.40
   6   4  -8   29.95    5.52
   6  -4  -7  279.33   15.96
   6   4  -7  268.21   14.32
   6   4  -6  695.57   23.76
   6  -4  -6  676.66   25.17
   6   4  -5  233.44   12.79
   6  -4  -5  208.42   13.00
   6   4  -4  187.09   11.46
   6  -4  -4  201.81   12.40
   6   4  -3  244.59   13.13
   6  -4  -3  239.56   13.58
   6  -4  -2  624.42   22.56
   6   4  -2  593.82   21.36
   6  -4  -1  464.06   18.93
   6  -4   0   69.98    7.30
   6  -4   1  254.31   13.41
   6  -4   2    7.88    2.53
   6  -4   2    4.81    3.23
   6  -4   3   55.43    6.60
   6  -4   3   68.50    6.27
   6   5  -9    0.61    3.97
   6   5  -8  148.05   10.90
   6  -5  -7  395.00   19.47
   6   5  -7  369.44   16.96
   6  -5  -6  339.49   17.38
   6   5  -6  321.15   15.35
   6   5  -5    6.59    3.80
   6  -5  -5    8.56    4.41
   6   5  -4  421.69   17.71
   6  -5  -4  465.76   19.47
   6  -5  -3   55.20    6.71
   6   5  -3   50.36    6.35
   6  -5  -2   17.73    4.43
   6   5  -2    7.49    3.45
   6  -5  -1  288.36   14.70
   6  -5   0  366.96   16.63
   6  -5   1   20.73    4.82
   6  -5   2  645.74   22.56
   6  -5   3  216.61   12.30
   6  -5   4  252.83   13.63
   6   6  -9  131.70   10.79
   6   6  -8  295.14   15.32
   6  -6  -7   40.40    7.45
   6   6  -7   32.72    5.64
   6   6  -6   23.71    4.92
   6  -6  -6   23.40    5.49
   6   6  -5  106.36    8.86
   6  -6  -5  106.32    9.64
   6   6  -4   98.92    8.46
   6  -6  -4  103.80    9.16
   6   6  -3  668.61   22.94
   6  -6  -3  697.08   24.65
   6  -6  -2  305.46   15.21
   6   6  -2  263.56   13.76
   6  -6  -1  641.10   23.16
   6  -6   0   16.61    4.25
   6  -6   1   10.55    3.81
   6  -6   2   45.52    6.08
   6  -6   3   35.19    5.72
   6  -6   4   55.95    6.68
   6  -6   5  442.75   18.40
   6   7  -9  983.83   31.06
   6   7  -8   48.39    6.77
   6   7  -7   14.44    4.32
   6  -7  -6  193.03   14.00
   6   7  -6  188.05   11.55
   6   7  -5    4.19    3.63
   6  -7  -5    8.54    4.66
   6   7  -4  150.05   10.22
   6  -7  -4  151.29   11.47
   6   7  -3  635.12   22.46
   6  -7  -3  689.92   24.74
   6   7  -2    7.55    3.44
   6  -7  -2    4.95    3.60
   6  -7  -1   73.27    7.92
   6  -7   0  156.90   10.83
   6  -7   1   24.40    5.33
   6  -7   2  218.37   12.75
   6  -7   3  248.60   13.61
   6  -7   4   50.59    6.47
   6   8  -8  462.16   19.32
   6   8  -7    2.89    3.69
  -6  -8   6  274.41   13.41
   6   8  -6  225.14   12.81
   6   8  -5    6.68    3.43
   6  -8  -5    7.70    5.52
   6  -8  -4  823.91   28.83
   6   8  -4  795.51   25.39
   6  -8  -3    4.78    4.63
   6   8  -3    6.04    3.65
   6   8  -2   84.66    8.13
   6  -8  -2   96.01    9.09
   6  -8  -1   -0.67    3.84
   6  -8   0   46.38    6.49
   6  -8   1   20.49    5.10
   6  -8   2  324.10   15.77
   6  -8   3   20.42    4.87
   6   9  -7    2.57    3.20
  -6  -9   6  108.06    8.92
   6   9  -6  101.55    8.46
   6   9  -5   -4.32    3.33
   6  -9  -5    9.08    5.14
   6  -9  -4   40.91    7.05
   6   9  -4   41.55    5.72
   6   9  -3  715.58   24.15
   6  -9  -3  748.44   26.93
   6  -9  -2   48.93    7.04
   6   9  -2   33.53    5.68
   6  -9  -1   -0.04    3.66
   6  -9   0  153.91   11.21
   6  -9   1    7.03    3.91
   6  -9   2   79.79    8.17
   6  10  -5   46.10    6.01
   6  10  -4   10.31    4.19
   6 -10  -4    3.98    4.43
   6  10  -3  240.35   13.19
   6 -10  -3  273.93   15.97
   6 -10  -2  376.32   18.50
   6  10  -2  356.81   16.55
   6 -10  -1  215.17   13.52
   6 -10   0   25.02    5.43
   6  11  -3  127.18    9.60
   6 -11  -3  129.27   11.53
   6 -11  -2   34.65    7.26
   6  11  -2   35.77    5.71
   7   0  -8 1692.11   47.21
   7   0  -7   12.35    5.28
   7   0  -6   99.00    9.68
   7   0  -5   -6.36    4.23
   7   0  -4   25.26    5.56
   7   0  -3    6.52    4.15
   7   0  -2 1016.48   31.75
   7   0  -1    4.01    4.21
   7   0   0   61.09    7.29
   7   0   1   -2.68    3.48
   7  -1  -8   44.96    7.96
   7   1  -8   29.34    6.37
   7   1  -7  562.81   23.70
   7  -1  -7  605.22   24.91
   7   1  -6   -0.42    3.89
   7  -1  -6   -4.37    4.92
   7   1  -5  346.26   17.76
   7  -1  -5  354.84   18.00
   7   1  -4  145.21   11.24
   7  -1  -4  146.08   11.18
   7   1  -3  361.65   17.71
   7  -1  -3  344.73   17.46
   7   1  -2  175.25   11.97
   7  -1  -2  162.73   11.55
   7   1  -1  122.06    9.82
   7  -1  -1  121.84   10.09
   7   1   0  102.98    9.06
   7  -1   0  110.86    9.37
   7  -1   1   46.08    6.63
   7   2  -8  154.77   12.38
   7   2  -7  274.90   16.05
   7  -2  -7  297.94   17.23
   7  -2  -6  113.14   10.49
   7   2  -6  106.66    9.96
   7   2  -5  317.00   16.68
   7  -2  -5  328.17   17.61
   7   2  -4    5.39    3.82
   7  -2  -4   11.41    5.04
   7  -2  -3   88.16    9.24
   7   2  -3   90.78    9.05
   7   2  -2  331.05   16.68
   7  -2  -2  331.94   16.87
   7   2  -1   13.73    4.20
   7  -2  -1    8.07    4.03
   7   2   0   17.88    4.62
   7  -2   0    7.36    3.59
   7  -2   1  410.23   18.41
   7   3  -8  114.07   10.52
   7  -3  -7  135.89   12.06
   7   3  -7  138.54   11.51
   7  -3  -6   97.63   10.01
   7   3  -6   95.29    9.33
   7   3  -5  236.33   14.33
   7  -3  -5  254.36   15.39
   7   3  -4    1.25    3.87
   7  -3  -4   -5.52    4.52
   7  -3  -3    9.04    5.00
   7   3  -3    1.33    3.43
   7   3  -2  361.99   17.40
   7  -3  -2  419.33   19.30
   7  -3  -1  659.03   24.55
   7   3  -1  643.09   23.75
   7  -3   0  358.96   17.23
   7   3   0  372.40   17.48
   7  -3   1    1.47    3.55
   7   4 -10  214.96   13.47
   7   4  -9  225.99   15.05
   7   4  -8   29.39    6.19
   7   4  -7   60.52    7.80
   7   4  -6  681.62   25.52
   7  -4  -6  684.22   27.00
   7  -4  -5   82.95    9.04
   7   4  -5   90.99    9.22
   7  -4  -4    9.35    4.98
   7   4  -4    1.66    3.46
   7   4  -3  425.96   19.15
   7  -4  -3  423.41   19.98
   7  -4  -2   29.86    5.95
   7   4  -2   28.70    5.66
   7  -4  -1   28.50    5.73
   7   4  -1   17.20    4.20
   7  -4   0  424.99   19.01
   7  -4   1   -3.49    3.67
   7   5  -9    1.42    3.98
   7   5  -8   34.30    6.27
   7   5  -7    7.06    4.72
   7   5  -6  448.01   20.15
   7  -5  -6  451.29   21.76
   7   5  -5  365.79   18.11
   7  -5  -5  396.93   19.72
   7   5  -4  379.17   18.05
   7  -5  -4  395.20   19.73
   7  -5  -3   30.82    6.14
   7   5  -3   43.45    6.44
   7  -5  -2   30.75    6.23
   7   5  -2   25.32    4.91
   7  -5  -1   61.49    7.61
   7   5  -1   71.55    7.61
   7  -5   0  128.75   10.64
   7  -5   1   87.55    8.74
   7   6  -9  306.23   17.53
   7   6  -8   -4.46    4.22
   7   6  -7  522.12   22.12
   7   6  -6   13.92    4.94
   7   6  -5   -0.39    3.72
   7  -6  -5    5.03    4.88
   7   6  -4  204.54   13.13
   7  -6  -4  207.73   14.23
   7   6  -3  148.23   11.15
   7  -6  -3  148.58   11.98
   7  -6  -2    4.35    3.70
   7   6  -2    3.26    3.36
   7  -6  -1  320.38   16.84
   7  -6   0   30.61    5.55
   7  -6   1   56.03    7.51
   7   7  -8   -1.65    3.85
   7   7  -7    4.58    3.97
   7   7  -6  158.35   11.83
   7   7  -5   77.41    8.31
   7  -7  -4   88.64    9.84
   7   7  -4   89.65    8.89
   7   7  -3  293.63   15.82
   7  -7  -3  318.96   17.63
   7   7  -2   24.51    5.06
   7  -7  -2   27.75    6.05
   7  -7  -1  129.57   10.96
   7  -7   0   16.34    5.01
   7   8  -7   15.95    5.27
   7   8  -6   45.94    6.82
   7   8  -5    2.22    3.77
   7   8  -4  525.21   21.73
   7   8  -3    7.50    4.58
   7  -8  -2   14.41    4.73
   7  -8  -1    9.80    5.00
   7   9  -5  102.77    9.36
   7   9  -4   73.46    8.20
   0   0   0    0.00    0.00


TITL SA2280 in P2(1)/c
REM P2(1)/c (#14 in standard setting)
CELL 0.71073   6.114465  12.903697  10.627439  90.0000 106.4824  90.0000
ZERR   23.00   0.000400   0.000712   0.000838   0.0000   0.0079   0.0000
LATT  1
SYMM -x, y+1/2,-z+1/2
SFAC C H N Cu Br
UNIT 23.00 23.00 23.00 23.00 23.00
TREF
HKLF 4
END
_computing_structure_solution     'SHELXT 2014/5 (Sheldrick, 2014)'
;
_shelx_hkl_checksum              5643
loop_
_space_group_symop_operation_xyz
'x, y, z'
'-x, y+1/2, -z+1/2'
'-x, -y, -z'
'x, -y-1/2, z-1/2'
loop_
_atom_site_label
_atom_site_type_symbol
_atom_site_fract_x
_atom_site_fract_y
_atom_site_fract_z
_atom_site_U_iso_or_equiv
_atom_site_adp_type
_atom_site_occupancy
_atom_site_site_symmetry_order
_atom_site_calc_flag
_atom_site_refinement_flags_posn
_atom_site_refinement_flags_adp
_atom_site_refinement_flags_occupancy
_atom_site_disorder_assembly
_atom_site_disorder_group
C1 C 0.5009(4) 0.29941(19) 0.3802(3) 0.0175(5) Uani 1 1 d . . . . .
C2 C 0.4600(5) 0.1948(2) 0.3571(3) 0.0235(6) Uani 1 1 d . . . . .
H2 H 0.5311 0.1571 0.3027 0.028 Uiso 1 1 calc R U . . .
C3 C 0.3125(5) 0.14718(19) 0.4157(3) 0.0228(6) Uani 1 1 d . . . . .
H3 H 0.2817 0.0752 0.4023 0.027 Uiso 1 1 calc R U . . .
C4 C 0.2080(4) 0.20346(19) 0.4945(3) 0.0196(5) Uani 1 1 d . . . . .
C5 C 0.0446(5) 0.1545(2) 0.5587(3) 0.0277(6) Uani 1 1 d . . . . .
H5A H 0.1293 0.1117 0.6327 0.041 Uiso 1 1 calc R U . . .
H5B H -0.0641 0.1111 0.4948 0.041 Uiso 1 1 calc R U . . .
H5C H -0.0384 0.2088 0.5906 0.041 Uiso 1 1 calc R U . . .
C6 C 0.2610(4) 0.30757(18) 0.5118(2) 0.0164(5) Uani 1 1 d . . . . .
H6 H 0.1909 0.3475 0.5648 0.020 Uiso 1 1 calc R U . . .
N1 N 0.4079(3) 0.35509(14) 0.4569(2) 0.0151(4) Uani 1 1 d . . . . .
Cu1 Cu 0.5000 0.5000 0.5000 0.01453(11) Uani 1 2 d S . P . .
Br1 Br 0.17511(4) 0.55934(2) 0.32722(3) 0.01904(8) Uani 1 1 d . . . . .
Br2 Br 0.70304(5) 0.37214(2) 0.30634(3) 0.02619(9) Uani 1 1 d . . . . .
loop_
_atom_site_aniso_label
_atom_site_aniso_U_11
_atom_site_aniso_U_22
_atom_site_aniso_U_33
_atom_site_aniso_U_23
_atom_site_aniso_U_13
_atom_site_aniso_U_12
C1 0.0138(13) 0.0226(13) 0.0145(13) -0.0011(11) 0.0014(11) -0.0004(10)
C2 0.0245(14) 0.0226(14) 0.0208(15) -0.0053(12) 0.0020(12) 0.0058(11)
C3 0.0234(15) 0.0150(13) 0.0246(16) -0.0008(11) -0.0017(12) 0.0008(10)
C4 0.0178(13) 0.0181(12) 0.0196(14) 0.0039(11) 0.0001(11) 0.0000(10)
C5 0.0282(16) 0.0232(14) 0.0304(17) 0.0056(13) 0.0065(14) -0.0053(11)
C6 0.0144(13) 0.0182(12) 0.0155(13) 0.0006(11) 0.0025(11) 0.0008(9)
N1 0.0142(11) 0.0154(10) 0.0159(11) 0.0010(9) 0.0044(9) -0.0005(8)
Cu1 0.0152(2) 0.0139(2) 0.0148(2) 0.00020(17) 0.00491(19) -0.00114(15)
Br1 0.01821(14) 0.01922(14) 0.01820(15) 0.00161(10) 0.00275(11) -0.00011(9)
Br2 0.02341(16) 0.03560(17) 0.02370(17) 0.00203(12) 0.01339(13) 0.00107(11)
loop_
_atom_type_symbol
_atom_type_description
_atom_type_scat_dispersion_real
_atom_type_scat_dispersion_imag
_atom_type_scat_source
C C 0.0033 0.0016 'International Tables Vol C Tables 4.2.6.8 and 6.1.1.4'
H H 0.0000 0.0000 'International Tables Vol C Tables 4.2.6.8 and 6.1.1.4'
N N 0.0061 0.0033 'International Tables Vol C Tables 4.2.6.8 and 6.1.1.4'
Cu Cu 0.3201 1.2651 'International Tables Vol C Tables 4.2.6.8 and 6.1.1.4'
Br Br -0.2901 2.4595 'International Tables Vol C Tables 4.2.6.8 and 6.1.1.4'
loop_
_geom_angle_atom_site_label_1
_geom_angle_atom_site_label_2
_geom_angle_atom_site_label_3
_geom_angle
_geom_angle_site_symmetry_1
_geom_angle_site_symmetry_3
N1 C1 C2 123.4(2) . .
N1 C1 Br2 115.47(18) . .
C2 C1 Br2 121.15(18) . .
C3 C2 C1 117.6(2) . .
C3 C2 H2 121.2 . .
C1 C2 H2 121.2 . .
C2 C3 C4 120.7(2) . .
C2 C3 H3 119.7 . .
C4 C3 H3 119.7 . .
C6 C4 C3 117.2(2) . .
C6 C4 C5 120.7(2) . .
C3 C4 C5 122.2(2) . .
C4 C5 H5A 109.5 . .
C4 C5 H5B 109.5 . .
H5A C5 H5B 109.5 . .
C4 C5 H5C 109.5 . .
H5A C5 H5C 109.5 . .
H5B C5 H5C 109.5 . .
N1 C6 C4 122.9(2) . .
N1 C6 H6 118.5 . .
C4 C6 H6 118.5 . .
C1 N1 C6 118.2(2) . .
C1 N1 Cu1 120.81(16) . .
C6 N1 Cu1 120.82(16) . .
N1 Cu1 N1 180.00(13) . 3_666
N1 Cu1 Br1 89.72(6) . 3_666
N1 Cu1 Br1 90.28(6) 3_666 3_666
N1 Cu1 Br1 90.28(6) . .
N1 Cu1 Br1 89.72(6) 3_666 .
Br1 Cu1 Br1 180.000(11) 3_666 .
loop_
_geom_bond_atom_site_label_1
_geom_bond_atom_site_label_2
_geom_bond_distance
_geom_bond_site_symmetry_2
C1 N1 1.329(3) .
C1 C2 1.382(3) .
C1 Br2 1.891(2) .
C2 C3 1.378(4) .
C2 H2 0.9500 .
C3 C4 1.393(4) .
C3 H3 0.9500 .
C4 C6 1.382(3) .
C4 C5 1.500(3) .
C5 H5A 0.9800 .
C5 H5B 0.9800 .
C5 H5C 0.9800 .
C6 N1 1.349(3) .
C6 H6 0.9500 .
N1 Cu1 1.9690(19) .
Cu1 N1 1.9690(19) 3_666
Cu1 Br1 2.4155(3) 3_666
Cu1 Br1 2.4155(3) .
