#------------------------------------------------------------------------------
#$Date: 2022-01-01 07:13:54 +0200 (Sat, 01 Jan 2022) $
#$Revision: 271676 $
#$URL: file:///home/coder/svn-repositories/cod/cif/1/56/58/1565867.cif $
#------------------------------------------------------------------------------
#
# This file is available in the Crystallography Open Database (COD),
# http://www.crystallography.net/. The original data for this entry
# were provided by IUCr Journals, http://journals.iucr.org/.
#
# The file may be used within the scientific community so long as
# proper attribution is given to the journal article from which the
# data were obtained.
#
data_1565867
loop_
_publ_author_name
'Olejniczak, Anna'
'Katrusiak, Anna'
'Podsiad\/lo, Marcin'
'Katrusiak, Andrzej'
_publ_section_title
;
 Stochastic hydration of a high-nitrogen-content molecular compound
 recrystallized under pressure
;
_journal_issue                   1
_journal_name_full               IUCrJ
_journal_page_first              49
_journal_page_last               54
_journal_paper_doi               10.1107/S2052252521010381
_journal_volume                  9
_journal_year                    2022
_chemical_formula_moiety         'C4 H2 Cl N5'
_chemical_formula_sum            'C4 H2 Cl N5'
_chemical_formula_weight         155.56
_chemical_name_systematic        6-chloro-1,2,3,4-tetrazolo[1,5-b]pyridazine
_space_group_crystal_system      orthorhombic
_space_group_IT_number           19
_space_group_name_Hall           'P 2ac 2ab'
_space_group_name_H-M_alt        'P 21 21 21'
_atom_sites_solution_hydrogens   geom
_atom_sites_solution_primary     direct
_audit_creation_date             2020-07-14
_audit_creation_method
;
Olex2 1.3
(compiled 2020.06.28 svn.raecde09e for OlexSys, GUI svn.r6132)
;
_cell_angle_alpha                90
_cell_angle_beta                 90
_cell_angle_gamma                90
_cell_formula_units_Z            4
_cell_length_a                   7.0476(2)
_cell_length_b                   8.7682(2)
_cell_length_c                   10.0363(2)
_cell_measurement_reflns_used    2569
_cell_measurement_temperature    225.0(1)
_cell_measurement_theta_max      63.9930
_cell_measurement_theta_min      6.6980
_cell_volume                     620.19(3)
_computing_cell_refinement       'CrysAlisPro 1.171.40.67a (Rigaku OD, 2019)'
_computing_data_collection       'CrysAlisPro 1.171.40.67a (Rigaku OD, 2019)'
_computing_data_reduction        'CrysAlisPro 1.171.40.67a (Rigaku OD, 2019)'
_computing_molecular_graphics    'Olex2 1.3 (Dolomanov et al., 2009)'
_computing_publication_material  'Olex2 1.3 (Dolomanov et al., 2009)'
_computing_structure_refinement  'SHELXL 2018/3 (Sheldrick, 2015)'
_computing_structure_solution    'SHELXT 2018/2 (Sheldrick, 2018)'
_diffrn_ambient_environment      N~2~
_diffrn_ambient_temperature      225.0(1)
_diffrn_detector                 'CCD plate'
_diffrn_detector_area_resol_mean 10.5357
_diffrn_detector_type            Atlas
_diffrn_measured_fraction_theta_full 0.989
_diffrn_measured_fraction_theta_max 0.989
_diffrn_measurement_details
;
List of Runs (angles in degrees, time in seconds):

  # Type    Start    End  Width  t~exp~   \w     \q     \k     \f   Frames
--------------------------------------------------------------------------
  1  \w     13.00 116.00   1.00    1.25    --   41.73  77.00 150.00  103
  2  \w     13.00  88.00   1.00    1.25    --   41.73-125.00  60.00   75
  3  \w     40.00  99.00   1.00    1.25    --   41.73  37.00 -90.00   59
  4  \w     16.00  51.00   1.00    2.50    --   88.44 -45.00 150.00   35
  5  \w     36.00 158.00   1.00    2.50    --   88.44  15.00  60.00  122
  6  \w      8.00 106.00   1.00    2.50    --   88.44 -94.00 120.00   98
  7  \w     37.00  77.00   1.00    2.50    --   88.44 -45.00  90.00   40
  8  \w     44.00  70.00   1.00    2.50    --   88.44 -45.00-120.00   26
  9  \w     16.00 109.00   1.00    2.50    --   88.44 -94.00-120.00   93
 10  \w     26.00  75.00   1.00    2.50    --   88.44 -45.00   0.00   49
 11  \w     42.00  81.00   1.00    2.50    --   88.44 -94.00   0.00   39
 12  \w     85.00 111.00   1.00    2.50    --   88.44 125.00  90.00   26
 13  \w    116.00 146.00   1.00    2.50    --   88.44 125.00  90.00   30
 14  \w     68.00 107.00   1.00    2.50    --   88.44-125.00  90.00   39
 15  \w     75.00 156.00   1.00    2.50    --   88.44  61.00 -90.00   81
;
_diffrn_measurement_device       'four-circle diffractometer'
_diffrn_measurement_device_type
'SuperNova, Single source at offset/far, Atlas'
_diffrn_measurement_method       '\w scans'
_diffrn_orient_matrix_type
'CrysAlisPro convention (1999,Acta A55,543-557)'
_diffrn_orient_matrix_UB_11      0.0559048000
_diffrn_orient_matrix_UB_12      -0.0094220000
_diffrn_orient_matrix_UB_13      0.1481143000
_diffrn_orient_matrix_UB_21      -0.0481502000
_diffrn_orient_matrix_UB_22      -0.1714281000
_diffrn_orient_matrix_UB_23      0.0006053000
_diffrn_orient_matrix_UB_31      0.2057791000
_diffrn_orient_matrix_UB_32      -0.0374985000
_diffrn_orient_matrix_UB_33      -0.0401416000
_diffrn_radiation_monochromator  mirror
_diffrn_radiation_probe          x-ray
_diffrn_radiation_type           'Cu K\a'
_diffrn_radiation_wavelength     1.54184
_diffrn_reflns_av_R_equivalents  0.0170
_diffrn_reflns_av_unetI/netI     0.0134
_diffrn_reflns_Laue_measured_fraction_full 0.989
_diffrn_reflns_Laue_measured_fraction_max 0.989
_diffrn_reflns_limit_h_max       8
_diffrn_reflns_limit_h_min       -6
_diffrn_reflns_limit_k_max       9
_diffrn_reflns_limit_k_min       -10
_diffrn_reflns_limit_l_max       10
_diffrn_reflns_limit_l_min       -11
_diffrn_reflns_number            3647
_diffrn_reflns_point_group_measured_fraction_full 0.985
_diffrn_reflns_point_group_measured_fraction_max 0.985
_diffrn_reflns_theta_full        64.718
_diffrn_reflns_theta_max         64.718
_diffrn_reflns_theta_min         6.705
_diffrn_source                   'micro-focus sealed X-ray tube'
_diffrn_source_type              'SuperNova (Cu) X-ray Source'
_exptl_absorpt_coefficient_mu    4.815
_exptl_absorpt_correction_T_max  1.00000
_exptl_absorpt_correction_T_min  0.64909
_exptl_absorpt_correction_type   multi-scan
_exptl_absorpt_process_details
;
CrysAlisPro 1.171.40.67a (Rigaku Oxford Diffraction, 2019)
Empirical absorption correction using spherical harmonics,
 implemented in SCALE3 ABSPACK scaling algorithm.
;
_exptl_crystal_colour            colourless
_exptl_crystal_density_diffrn    1.666
_exptl_crystal_description       plate
_exptl_crystal_F_000             312
_exptl_crystal_size_max          0.50
_exptl_crystal_size_mid          0.20
_exptl_crystal_size_min          0.15
_refine_diff_density_max         0.143
_refine_diff_density_min         -0.182
_refine_diff_density_rms         0.032
_refine_ls_abs_structure_details
;
 Flack x determined using 383 quotients [(I+)-(I-)]/[(I+)+(I-)]
 (Parsons, Flack and Wagner, Acta Cryst. B69 (2013) 249-259).
;
_refine_ls_abs_structure_Flack   0.490(7)
_refine_ls_extinction_method     none
_refine_ls_goodness_of_fit_ref   1.115
_refine_ls_hydrogen_treatment    constr
_refine_ls_matrix_type           full
_refine_ls_number_parameters     91
_refine_ls_number_reflns         1034
_refine_ls_number_restraints     0
_refine_ls_restrained_S_all      1.115
_refine_ls_R_factor_all          0.0330
_refine_ls_R_factor_gt           0.0320
_refine_ls_shift/su_max          0.000
_refine_ls_shift/su_mean         0.000
_refine_ls_structure_factor_coef Fsqd
_refine_ls_weighting_details
'w=1/[\s^2^(Fo^2^)+(0.0408P)^2^+0.2669P] where P=(Fo^2^+2Fc^2^)/3'
_refine_ls_weighting_scheme      calc
_refine_ls_wR_factor_gt          0.0838
_refine_ls_wR_factor_ref         0.0846
_reflns_Friedel_coverage         0.641
_reflns_Friedel_fraction_full    0.978
_reflns_Friedel_fraction_max     0.978
_reflns_number_gt                1003
_reflns_number_total             1034
_reflns_threshold_expression     'I > 2\s(I)'
_cod_data_source_file            lt5042.cif
_cod_data_source_block           C4H2N5Cl1@225K_phase_alpha
_cod_database_code               1565867
_shelx_shelxl_version_number     2018/3
_chemical_oxdiff_formula         C4H2N5Cl1
_shelx_space_group_comment
;
The symmetry employed for this shelxl refinement is uniquely defined
by the following loop, which should always be used as a source of
symmetry information in preference to the above space-group names.
They are only intended as comments.
;
_reflns_odcompleteness_completeness 98.77
_reflns_odcompleteness_iscentric 1
_reflns_odcompleteness_theta     64.62
_olex2_refinement_description
;
1. Fixed Uiso
 At 1.2 times of:
  All C(H) groups
2.a Aromatic/amide H refined with riding coordinates:
 C7(H7), C8(H8)
;
_shelx_res_file
;
TITL 1a_a.res in P2(1)2(1)2(1)
    1a.res
    created by SHELXL-2018/3 at 12:51:44 on 14-Jul-2020
REM Old TITL 1a in P2(1)2(1)2(1)
REM SHELXT solution in P2(1)2(1)2(1): R1 0.138, Rweak 0.039, Alpha 0.003
REM <I/s> 0.893 for 15 systematic absences, Orientation as input
REM Flack x = 0.487 ( 0.006 ) from 389 Parsons' quotients
REM Formula found by SHELXT: C8 N Cl
CELL 1.54184 7.0476 8.7682 10.0363 90 90 90
ZERR 4 0.0002 0.0002 0.0002 0 0 0
LATT -1
SYMM 0.5-X,-Y,0.5+Z
SYMM -X,0.5+Y,0.5-Z
SYMM 0.5+X,0.5-Y,-Z
SFAC C H Cl N
UNIT 16 8 4 20

L.S. 44
PLAN  5
CONF
BOND
list 4
MORE -1
BOND $H
fmap 2 53
acta
REM <olex2.extras>
REM <HklSrc "%.\\1a.hkl">
REM </olex2.extras>

WGHT    0.040800    0.266900
FVAR       1.03789
CL1   3    0.290006    0.333345    0.319745    11.00000    0.06555    0.03154 =
         0.07376   -0.00299    0.01675   -0.00167
N4    4    0.358134    0.748056    0.411698    11.00000    0.04628    0.03445 =
         0.03110   -0.00139   -0.00084   -0.00222
N5    4    0.368005    0.594405    0.418157    11.00000    0.04961    0.03494 =
         0.03726    0.00502    0.00335    0.00090
N3    4    0.431646    0.838664    0.506115    11.00000    0.06686    0.04912 =
         0.04023   -0.00816   -0.00715   -0.01010
N2    4    0.393960    0.977390    0.465940    11.00000    0.07570    0.04422 =
         0.05771   -0.01515    0.00365   -0.01039
N1    4    0.298793    0.980941    0.349131    11.00000    0.06381    0.03587 =
         0.05467   -0.00377    0.00522   -0.00119
C9    1    0.276807    0.834507    0.315010    11.00000    0.04570    0.03276 =
         0.03336    0.00386    0.00497    0.00191
C7    1    0.199712    0.604780    0.207796    11.00000    0.05248    0.04860 =
         0.03168   -0.00794    0.00060   -0.00447
AFIX  43
H7    2    0.145998    0.548842    0.138690    11.00000   -1.20000
AFIX   0
C6    1    0.286974    0.529589    0.316604    11.00000    0.04545    0.03180 =
         0.03965   -0.00217    0.00887   -0.00048
C8    1    0.195494    0.758293    0.205661    11.00000    0.05250    0.04934 =
         0.03205    0.00630   -0.00024    0.00262
AFIX  43
H8    2    0.141301    0.811515    0.135118    11.00000   -1.20000
AFIX   0
HKLF 4




REM  1a_a.res in P2(1)2(1)2(1)
REM wR2 = 0.0846, GooF = S = 1.115, Restrained GooF = 1.115 for all data
REM R1 = 0.0320 for 1003 Fo > 4sig(Fo) and 0.0330 for all 1034 data
REM 91 parameters refined using 0 restraints

END

WGHT      0.0408      0.2669

REM Highest difference peak  0.143,  deepest hole -0.182,  1-sigma level  0.032
Q1    1   0.2632  0.5661  0.2595  11.00000  0.05    0.14
Q2    1   0.4185  0.3367  0.3475  11.00000  0.05    0.12
Q3    1   0.2814  1.0461  0.3191  11.00000  0.05    0.12
Q4    1   0.2837  0.7825  0.3569  11.00000  0.05    0.11
Q5    1   0.3316  0.5590  0.3589  11.00000  0.05    0.11
;
_shelx_res_checksum              24792
_shelx_hkl_file
;
   0   0   1    0.08    0.18
   0   0   2 1607.77    9.64
   0   0   3    0.08    0.58
   0   0   4   22.95    1.80
   0   0   5   -0.22    0.74
   0   0  -6 1279.95   11.50
   0   0   6 1271.68   16.99
   0   0  -6 1301.41   11.58
   0   0   7   -0.14    0.93
   0   0  -7    0.41    0.50
   0   0  -7   -0.20    0.59
   0   0  -8  778.75   10.47
   0   0  -8  765.40   10.69
   0   0  -9    0.94    0.51
   0   0 -10  279.18    6.74
   0   0 -11    0.22    0.57
   0  -1   0    0.67    0.32
   0  -1   0    0.09    0.14
   0   1   1 1360.98    7.66
   0  -1   1 1385.17    7.01
   0   1   2   38.71    1.67
   0  -1   2   38.51    1.56
   0   1   3 3900.89   19.72
   0  -1   3 3944.60   19.00
   0  -1   4   20.90    1.70
   0   1   4   19.37    1.74
   0   1   5 1286.66   15.28
   0  -1   5 1249.19   14.75
   0   1  -6   -0.44    0.46
   0   1  -6    0.21    0.60
   0  -1  -6    0.90    0.64
   0  -1  -6    0.56    0.48
   0   1   6    1.54    1.07
   0  -1   6    0.75    0.84
   0   1  -7   31.66    2.07
   0   1  -7   28.25    2.00
   0  -1   7   30.44    3.08
   0  -1  -7   29.22    2.03
   0   1   7   29.50    3.00
   0  -1  -7   29.33    1.99
   0   1   8   42.77    3.94
   0  -1  -8   42.94    2.68
   0   1  -8   49.75    2.85
   0   1  -8   48.03    2.70
   0  -1  -8   48.25    2.69
   0  -1   8   46.26    4.24
   0  -1  -9   19.27    1.83
   0   1  -9   20.32    1.81
   0   1  -9   24.05    2.08
   0  -1  -9   17.75    1.65
   0  -1 -10  113.21    4.35
   0   1 -10  107.57    3.82
   0   1 -10  111.96    4.19
   0   1 -11   33.20    2.05
   0  -1 -11   32.38    2.12
   0  -2   0  182.20    3.65
   0  -2   0  180.99    2.10
   0   2   1 1125.63    8.63
   0  -2   1 1095.60    9.14
   0  -2   2  362.17    5.85
   0   2   2  361.80    5.69
   0  -2   2  372.37    5.31
   0  -2   3  385.61    6.28
   0   2   3  355.26    6.48
   0   2   4    6.85    1.26
   0  -2   4    8.31    1.20
   0   2  -5  771.54    8.12
   0   2  -5  746.04    8.35
   0  -2  -5  762.01    8.27
   0   2   5  742.29   12.18
   0  -2   5  749.42   11.67
   0  -2  -6   13.08    1.40
   0  -2   6   13.76    1.95
   0   2  -6   11.67    1.25
   0   2  -6   11.93    1.18
   0   2   6   14.05    2.07
   0  -2  -6   13.51    1.30
   0   2   7  433.15   11.62
   0   2  -7  429.89    7.43
   0  -2  -7  412.03    7.64
   0   2  -7  412.59    7.49
   0  -2  -7  428.69    7.58
   0  -2   7  446.29   11.36
   0   2  -8   34.78    2.39
   0  -2  -8   29.17    2.26
   0   2  -8   33.02    2.33
   0  -2   8   31.67    3.41
   0  -2  -8   33.12    2.27
   0   2   8   34.83    3.71
   0   2  -9   -0.36    0.55
   0  -2  -9    0.26    0.68
   0   2  -9   -0.01    0.73
   0  -2 -10  111.96    4.12
   0   2 -10  112.28    4.01
   0   2 -10  116.84    3.96
   0  -2 -11    3.30    0.82
   0   2 -11    3.02    0.76
   0  -3   0    0.25    0.20
   0  -3   0    0.02    0.63
   0   3   1  266.94    5.00
   0  -3   1  262.19    5.50
   0   3   2 2045.57   15.39
   0  -3   2 2014.89   15.93
   0   3   3    6.15    1.09
   0  -3   3    8.35    1.28
   0   3   4   29.01    2.37
   0  -3   4   28.89    2.46
   0   3  -4   29.84    1.70
   0  -3  -4   33.66    1.79
   0  -3   5   85.84    4.54
   0   3  -5   83.50    3.01
   0   3   5   85.65    4.44
   0  -3   5   87.01    4.25
   0   3  -5   93.20    2.96
   0  -3  -5   82.73    2.98
   0   3  -6   18.87    1.66
   0  -3   6   19.74    2.32
   0  -3  -6   20.93    1.74
   0  -3   6   20.13    2.55
   0   3  -6   20.17    1.56
   0   3   6   21.14    2.50
   0  -3  -7    5.55    0.93
   0   3  -7    6.95    1.05
   0  -3   7    6.78    1.74
   0  -3  -7    5.52    1.17
   0  -3  -7    6.28    1.16
   0   3   7    4.92    1.67
   0   3  -7    8.16    1.27
   0  -3   8  141.92    7.51
   0  -3  -8  147.95    5.07
   0   3  -8  155.73    4.75
   0   3  -8  158.59    5.00
   0  -3  -9   13.79    1.66
   0   3  -9   12.26    1.46
   0   3  -9   13.83    1.56
   0   3 -10    1.85    0.70
   0   3 -10   -0.29    0.42
   0  -3 -10    1.60    0.78
   0  -3 -11    1.26    0.59
   0   3 -11    2.01    0.58
   0  -4   0   16.66    1.75
   0   4   1 3208.23   20.14
   0  -4   1 3177.10   22.67
   0   4   2   92.79    3.75
   0  -4   2   90.62    4.02
   0  -4   2   88.69    2.98
   0  -4  -3  208.63    4.41
   0   4  -3  209.93    4.42
   0   4   3  206.21    5.98
   0  -4   3  215.40    6.45
   0  -4  -4   97.02    3.25
   0   4   4   84.63    4.27
   0   4  -4   88.69    3.11
   0  -4   4   95.29    4.71
   0  -4  -4   95.13    2.98
   0  -4  -5  222.58    4.77
   0   4  -5  229.20    4.83
   0   4  -5  231.34    5.37
   0  -4  -5  226.05    5.29
   0  -4   5  227.57    7.83
   0   4   5  215.06    7.45
   0  -4   6   49.00    4.05
   0  -4  -6   55.43    2.86
   0   4  -6   53.92    2.84
   0   4  -6   51.77    2.52
   0   4   6   46.00    3.79
   0  -4  -7  203.39    5.70
   0   4  -7  199.23    5.61
   0  -4   7  199.18    8.52
   0   4   7  202.47    8.52
   0   4  -7  192.72    5.08
   0  -4  -7  197.37    5.80
   0   4  -8    7.21    1.20
   0  -4  -8    5.99    1.31
   0   4  -8    6.55    1.21
   0   4  -9  283.02    6.50
   0  -4  -9  287.02    6.74
   0   4 -10   13.06    1.29
   0  -4 -10   10.67    1.22
   0  -5   0    0.99    0.58
   0  -5   0    0.92    0.60
   0   5   0   -0.19    0.50
   0   5  -1  540.81    7.31
   0  -5   1  518.64    6.91
   0   5   1  517.56    9.16
   0  -5  -1  519.38    7.15
   0  -5  -1  534.35    7.28
   0  -5   1  498.49   10.36
   0  -5   1  517.16    6.99
   0   5   1  518.83    7.12
   0  -5  -2    1.80    0.64
   0  -5   2    3.15    0.67
   0   5  -2    2.08    0.58
   0  -5   2    3.09    0.69
   0   5   2    1.70    0.79
   0  -5   2    3.59    1.21
   0   5   2    3.15    0.65
   0  -5   3  814.09    9.10
   0  -5  -3  823.75    9.71
   0   5  -3  827.01    9.80
   0   5   3  843.89   13.17
   0   5   4  671.57   12.81
   0  -5  -4  679.98    9.29
   0  -5   4  655.77   13.43
   0  -5   4  672.90    8.60
   0   5  -4  667.48    9.29
   0  -5  -4  667.39    8.71
   0   5   5    3.95    1.46
   0   5  -5    3.42    0.95
   0  -5  -5    4.58    0.91
   0  -5  -5    2.43    0.93
   0  -5   5    3.14    1.27
   0  -5  -6   74.98    3.52
   0   5  -6   72.90    3.45
   0   5   6   69.97    4.84
   0  -5   6   72.04    5.16
   0  -5  -7    8.95    1.56
   0   5  -7    8.75    1.40
   0  -5  -8    2.15    1.09
   0   5  -8    4.05    1.03
   0  -5  -9   72.03    3.21
   0   5  -9   75.40    3.19
   0  -5 -10   -0.60    0.50
   0   5 -10    0.51    0.35
   0   6   0  979.52   10.99
   0  -6   0  960.52   10.63
   0  -6   0  949.50   10.53
   0  -6   1   40.33    2.19
   0  -6   1   46.22    3.77
   0  -6  -1   41.93    2.27
   0  -6   1   42.25    2.28
   0   6   1   42.97    2.36
   0  -6  -1   44.37    2.46
   0   6  -1   46.91    2.49
   0  -6  -2  192.74    4.96
   0  -6   2  189.57    4.74
   0  -6   2  193.98    4.72
   0  -6   2  182.14    7.25
   0   6  -2  194.53    5.08
   0  -6  -3   24.67    1.90
   0  -6   3   25.32    1.86
   0   6  -3   24.21    1.95
   0  -6   3   23.53    2.71
   0  -6   4    7.13    1.87
   0  -6   4    7.65    1.21
   0  -6  -4    6.81    1.18
   0   6  -4    8.82    1.38
   0  -6  -4    7.86    1.21
   0  -6   5    7.36    2.02
   0  -6  -5    8.13    1.37
   0   6  -5   10.57    1.47
   0  -6  -5    9.68    1.33
   0  -6  -6 1250.36   14.31
   0   6  -6 1245.39   14.45
   0   6  -7    0.62    0.59
   0  -6  -7    1.89    1.04
   0   6  -8   34.67    2.29
   0  -6  -8   29.82    2.18
   0   6  -9    2.16    0.55
   0  -6  -9    2.46    0.64
   0   7   0   -0.18    0.70
   0  -7   0   -0.61    0.55
   0  -7   0    0.59    0.74
   0  -7   1    3.24    0.91
   0   7   1    4.15    0.92
   0   7  -1    4.07    1.06
   0  -7   1    3.53    0.94
   0  -7  -1    2.10    0.80
   0   7  -2    2.64    1.02
   0  -7   2    4.50    1.00
   0  -7  -2    3.68    0.99
   0  -7  -3   46.98    2.73
   0   7  -3   47.10    2.85
   0  -7   3   42.22    2.43
   0  -7   3   46.01    4.06
   0  -7  -3   43.39    2.63
   0  -7  -4   90.65    3.72
   0   7  -4   96.26    4.10
   0  -7  -4   88.61    3.84
   0   7  -5  226.12    6.16
   0  -7  -5  229.31    6.05
   0  -7  -5  229.70    5.78
   0   7  -6    4.08    1.07
   0  -7  -6    6.05    1.11
   0   7  -7   12.43    1.43
   0  -7  -7   11.48    1.38
   0   7  -8   -0.30    0.46
   0  -7  -8    0.71    0.62
   0  -8   0    1.01    0.79
   0   8   0    3.13    1.04
   0  -8   1  526.47    8.63
   0   8  -1  529.60    9.24
   0  -8  -1  525.04    8.50
   0  -8  -2   28.77    2.23
   0  -8   2   24.53    2.00
   0  -8  -2   26.27    2.06
   0   8  -2   28.22    2.26
   0  -8  -3    7.83    1.23
   0  -8  -3    8.48    1.37
   0   8  -3    8.61    1.35
   0  -8  -4    1.02    0.59
   0   8  -4    0.71    0.77
   0  -8  -4    0.80    0.61
   0  -8  -5   21.01    1.83
   0  -8  -5   20.36    1.69
   0   8  -5   20.72    1.88
   0   8  -6   77.91    3.24
   0  -8  -6   73.95    3.10
   0  -8  -7   64.01    2.67
   0   8  -7   68.98    2.72
   0  -9   0    0.91    0.65
   0  -9  -1   56.00    2.89
   0  -9  -1   56.42    2.56
   0   9  -1   59.04    2.96
   0   9  -2  125.88    4.27
   0  -9  -2  130.86    4.29
   0  -9  -2  119.57    3.78
   0  -9  -3    6.92    1.04
   0   9  -3    5.31    1.00
   0  -9  -3    6.34    1.04
   0   9  -4  162.55    4.53
   0  -9  -4  156.84    4.20
   0  -9  -4  149.66    4.16
   0   9  -5    5.37    0.90
   0  -9  -5    5.04    0.86
   0 -10   0   91.08    3.13
   0 -10   1  124.85    3.56
   0 -10  -1  123.98    3.62
   0 -10  -2   19.05    1.37
   0 -10   2   16.90    1.27
  -1   0   0    0.01    0.15
   1   0   0    1.16    0.43
   1   0  -1  989.39    6.92
   1   0   1  999.78    7.03
   1   0   3 1369.75   12.28
  -1   0   3 1370.18   11.16
   1   0   4  470.95    8.46
  -1   0   4  477.21    7.77
  -1   0  -5    6.12    0.89
   1   0   5    5.71    1.42
   1   0  -5    6.03    0.84
  -1   0   5    6.60    1.27
  -1   0  -6   23.99    1.78
  -1   0  -6   23.35    1.54
   1   0   6   25.09    2.67
  -1   0   6   26.09    2.53
   1   0  -6   23.39    1.72
  -1   0  -7   19.99    1.61
  -1   0  -7   16.88    1.71
   1   0   7   17.75    2.48
  -1   0   7   21.29    2.44
   1   0  -7   16.39    1.62
   1   0   8  149.80    7.52
   1   0  -8  150.77    5.00
  -1   0  -8  146.74    4.50
  -1   0  -8  149.07    4.85
  -1   0   8  146.66    7.06
   1   0  -9   19.90    1.95
  -1   0  -9   20.98    1.94
  -1   0 -10  396.11    7.62
   1   0 -10  411.47    8.28
  -1   0 -10  392.78    7.71
  -1   0 -11   23.05    1.71
   1   0 -11   21.85    1.82
   1   1 -11   21.53    1.76
  -1  -1 -11   20.26    1.64
  -1  -1 -10   55.49    2.87
   1   1 -10   57.12    3.12
   1   1 -10   57.64    2.97
  -1  -1  -9   79.56    3.65
   1   1  -9   80.95    3.76
  -1  -1  -9   84.27    3.50
  -1  -1  -8  287.50    6.35
   1  -1   8  296.43   10.66
  -1  -1  -8  298.11    6.95
  -1   1   8  302.83   10.36
   1   1  -8  289.76    6.82
  -1   1   7  239.07    8.41
   1   1  -7  244.51    5.84
  -1  -1  -7  236.16    5.88
  -1  -1  -7  236.10    5.39
   1   1  -7  230.73    5.67
   1  -1   7  243.11    8.80
   1   1  -7  226.52    5.09
   1   1  -6   15.27    1.43
  -1  -1  -6   13.91    1.47
   1  -1   6   13.13    2.01
  -1  -1  -6   15.56    1.25
   1   1  -6   16.34    1.35
  -1   1   6   14.67    2.09
  -1  -1  -6   14.01    1.26
   1   1  -6   14.53    1.36
  -1   1   5  377.62    8.34
   1   1  -5  366.07    5.84
   1  -1   5  362.68    8.54
   1  -1   4  131.54    4.58
  -1   1   4  142.42    4.54
   1  -1   3  796.63    9.72
  -1   1   3  832.03    9.65
  -1   1   2 1748.77   12.31
   1  -1   2 1702.82   12.32
   1  -1   1  702.60    4.39
   1   1   0  671.90    4.59
   1  -1   0  681.54    6.31
  -1  -1   0  687.06    5.85
  -1  -1   1  712.38    3.55
   1   1   1  706.23    5.47
  -1  -1   2 1698.26    9.02
   1   1   2 1688.84   11.31
   1   1   3  797.36    9.51
  -1  -1   3  808.03    8.07
   1   1   4  135.25    4.61
  -1  -1   4  137.87    4.06
  -1   1  -5  372.69    6.00
  -1  -1   5  387.46    7.86
   1   1   5  384.54    8.86
   1  -1  -5  385.05    6.06
   1  -1  -6   15.90    1.47
  -1  -1   6   12.46    1.74
  -1   1  -6   16.71    1.50
   1   1   6   13.95    2.02
   1   1   7  237.20    8.71
  -1   1  -7  235.44    5.79
   1  -1  -7  243.70    5.97
  -1  -1   7  243.22    8.10
  -1  -1   8  288.00    9.59
  -1   1  -8  292.66    6.83
   1   1   8  280.55   10.33
   1  -1  -8  289.94    6.98
   1  -1  -9   78.47    3.82
  -1   1  -9   79.89    3.70
  -1   1  -9   81.99    3.54
  -1   1 -10   60.17    3.06
   1  -1 -10   60.56    3.21
  -1   1 -10   58.39    2.81
  -1   1 -11   17.78    1.50
   1  -1 -11   22.27    1.80
  -1   1 -11   18.98    1.38
   1   2 -11   23.14    1.68
  -1  -2 -11   23.53    1.71
   1   2 -10   32.38    2.29
  -1  -2 -10   28.47    2.02
  -1  -2  -9   38.88    2.43
  -1  -2  -9   37.71    2.53
   1   2  -9   39.46    2.67
  -1  -2  -8   40.88    2.51
   1  -2   8   41.53    4.15
   1   2  -8   42.08    2.41
  -1   2   8   43.54    4.04
   1   2  -8   44.55    2.76
  -1  -2  -8   45.91    2.84
  -1  -2  -7   57.59    2.68
   1   2  -7   57.06    2.93
   1   2  -7   58.51    2.68
   1  -2   7   62.19    4.62
  -1  -2  -7   57.57    3.07
  -1   2   7   59.56    4.38
  -1  -2  -7   59.24    2.81
   1   2  -6  378.09    6.38
   1  -2   6  383.48   10.23
  -1   2   6  399.39   10.18
  -1  -2  -6  400.89    6.46
  -1  -2  -6  384.76    6.57
   1   2  -6  384.10    6.83
   1   2  -5 1880.47   12.88
  -1   2   5 1835.75   19.69
  -1  -2  -5 1911.62   12.74
   1   2  -5 1864.28   13.44
   1  -2   5 1914.95   20.41
   1  -2   4  257.18    6.72
  -1   2   4  263.37    6.71
  -1   2   3 1923.28   16.42
   1  -2   3 1985.77   16.76
   1  -2   2   37.24    1.77
  -1   2   2   38.05    2.16
  -1  -2  -1  745.33    8.16
   1  -2   1  755.34    6.75
   1  -2   1  738.09    7.91
   1   2   0  730.45    3.83
   1  -2   0  716.53    7.20
  -1  -2   0  734.25    7.96
   1  -2  -1  752.67    7.37
  -1  -2   1  756.57    8.52
   1   2   1  768.31    4.20
  -1  -2   2   41.95    2.28
  -1  -2   2   41.78    1.42
   1   2   2   40.73    1.95
  -1  -2   3 1972.80   12.38
   1   2   3 1937.87   15.64
  -1  -2   4  252.58    5.46
   1   2   4  252.72    6.58
  -1   2  -5 1922.31   13.91
   1  -2  -5 1875.31   13.59
  -1  -2   5 1896.19   17.27
   1   2   5 1906.20   20.42
  -1   2  -6  391.51    6.17
   1  -2  -6  403.08    7.22
   1   2   6  388.30   10.27
  -1  -2   6  416.30    9.24
  -1   2  -6  391.72    6.96
  -1   2  -7   57.94    2.96
  -1   2  -7   61.09    2.70
   1  -2  -7   57.81    3.05
   1   2   7   55.62    4.45
  -1   2  -8   41.51    2.72
   1  -2  -8   46.84    2.85
   1   2   8   38.30    3.94
  -1   2  -8   41.74    2.43
  -1   2  -9   37.21    2.32
   1  -2  -9   35.33    2.62
  -1   2  -9   37.55    2.60
   1  -2 -10   32.53    2.33
  -1   2 -10   34.43    2.34
   1  -2 -10   35.20    2.46
  -1   2 -11   20.99    1.50
   1  -2 -11   21.79    1.70
   1   3 -11    7.28    0.93
  -1  -3 -11    6.21    0.92
   1   3 -10   13.78    1.47
  -1  -3  -9   37.96    2.43
   1   3  -9   39.03    2.58
   1   3  -9   36.70    2.22
  -1  -3  -9   39.10    2.41
   1   3  -8   52.70    2.84
  -1  -3  -8   56.36    3.16
  -1  -3  -8   58.47    3.04
   1   3  -8   56.66    3.09
  -1  -3  -7   56.32    2.82
  -1  -3  -7   53.84    2.84
   1   3  -7   51.95    2.85
  -1   3   7   57.94    4.52
   1   3  -7   50.96    2.67
   1  -3   7   58.14    4.22
   1   3  -6   99.90    3.45
  -1  -3  -6   99.93    3.47
   1  -3   6   95.56    4.98
  -1   3   6  101.75    5.46
   1   3  -6   98.13    3.59
   1   3  -5   25.23    1.71
   1  -3   5   23.69    2.35
  -1  -3  -5   24.22    1.68
  -1   3   5   25.09    2.58
   1   3  -5   24.49    1.63
   1   3  -4  134.51    3.50
  -1  -3  -4  136.83    3.51
  -1   3   4  137.27    5.29
   1   3  -4  135.52    3.47
   1  -3   4  125.96    4.61
   1  -3   3  172.95    4.78
  -1   3   3  183.54    5.62
   1  -3   2  236.23    5.44
   1  -3   2  235.36    5.09
   1  -3   1  119.27    3.54
   1  -3   1  126.05    3.56
  -1  -3  -1  128.93    4.16
  -1  -3   0 1900.28   15.70
   1   3   0 1903.31    9.52
   1  -3   0 1922.78   12.90
   1  -3  -1  129.50    3.27
  -1  -3   1  128.84    4.17
   1   3   1  128.58    3.16
   1   3   2  229.37    2.59
   1   3   2  237.16    5.16
   1   3   3  172.61    5.10
  -1  -3   3  171.68    5.62
   1  -3  -4  133.85    3.45
   1  -3  -4  133.88    3.52
   1   3   4  128.00    4.95
  -1   3  -4  135.89    3.63
  -1  -3   4  130.40    5.35
   1  -3  -5   22.79    1.63
  -1   3  -5   26.49    1.81
   1  -3  -5   25.10    1.75
  -1  -3   5   21.40    2.50
   1   3   5   24.14    2.56
  -1   3  -6   99.96    3.75
   1   3   6  102.08    5.52
   1  -3  -6   99.75    3.37
  -1  -3   6  101.76    5.74
   1  -3  -6   99.68    3.68
   1  -3  -7   54.63    3.12
  -1   3  -7   52.69    2.96
   1   3   7   52.02    4.31
  -1  -3   7   53.82    4.36
   1  -3  -8   59.01    3.34
  -1   3  -8   61.25    3.31
  -1   3  -9   38.90    2.59
   1  -3  -9   40.56    2.83
   1  -3 -10   14.20    1.50
  -1   3 -10   13.66    1.47
   1   3  10   16.01    1.75
   1  -3 -10   15.95    1.62
   1  -3 -11    7.45    0.99
   1   4 -10   15.03    1.59
  -1  -4  -9   74.22    3.27
  -1  -4  -9   71.34    3.16
   1   4  -9   71.11    3.04
  -1  -4  -8    6.45    1.09
  -1  -4  -8    6.46    1.20
   1   4  -8    7.31    1.16
  -1  -4  -8    6.44    1.41
   1   4  -7   12.31    1.55
   1   4  -7   12.93    1.56
  -1  -4  -7   10.35    1.35
  -1  -4  -7   12.73    1.66
  -1   4   7   13.80    2.43
   1  -4   6   58.93    4.14
   1   4  -6   57.00    2.83
   1   4  -6   52.94    2.74
  -1   4   6   57.50    4.36
  -1  -4  -6   57.14    2.86
   1  -4   5  367.29    9.36
  -1   4   5  347.72    9.78
  -1  -4  -5  368.48    6.67
   1   4  -5  366.54    6.67
   1  -4   4  176.53    5.94
  -1   4   4  168.88    6.38
   1   4  -4  175.90    4.37
  -1  -4  -4  178.79    4.46
  -1   4   3  921.28   13.81
   1  -4   3  911.52   12.45
  -1  -4  -3  905.27    9.51
   1   4  -3  908.90    9.29
   1  -4   2   21.77    1.83
  -1  -4  -2   23.13    1.52
   1  -4   2   22.73    1.96
   1   4  -2   22.42    1.49
  -1   4   2   24.80    2.22
   1  -4   1  406.93    7.63
   1  -4   1  411.95    6.82
  -1  -4   0  290.48    7.17
   1  -4   0  290.71    5.20
   1   4   1  401.29    6.41
  -1  -4   1  407.51    8.68
   1  -4  -1  416.54    5.83
  -1  -4   2   25.80    2.35
   1   4   2   23.07    1.86
   1  -4  -2   23.28    1.50
  -1  -4   3  905.27   14.09
   1  -4  -3  880.14    9.08
   1   4   3  899.46   12.65
   1  -4  -3  876.69    9.14
  -1   4  -3  899.59    9.26
   1  -4  -4  180.93    4.47
  -1  -4   4  176.86    6.78
   1  -4  -4  169.44    4.33
   1   4   4  170.11    6.13
  -1   4  -4  180.16    4.51
  -1   4  -5  365.97    6.91
   1   4   5  357.11    9.73
   1  -4  -5  363.02    6.82
  -1  -4   5  346.76   10.22
   1  -4  -5  356.45    6.56
   1  -4  -6   57.29    3.00
  -1   4  -6   54.83    2.92
   1   4   6   49.53    4.02
  -1  -4   6   50.85    4.28
   1  -4  -6   52.49    2.68
   1  -4  -7   12.74    1.56
  -1   4  -7   10.90    1.51
   1   4   7   10.40    2.04
  -1  -4   7    9.94    2.06
   1  -4  -8    6.03    1.35
  -1   4  -8    6.40    1.24
   1  -4  -9   71.12    3.51
  -1   4  -9   72.79    3.41
   1  -4 -10   16.51    1.61
   1  -4 -10   16.41    1.49
  -1   4 -10   14.77    1.45
   1   4  10   16.23    1.74
   1   5 -10    1.21    0.61
   1   5  -9   40.98    2.22
  -1  -5  -9   39.53    2.27
   1   5  -9   43.66    2.67
  -1  -5  -8    7.51    1.16
  -1  -5  -8    5.55    1.05
  -1  -5  -8    4.57    1.14
   1   5  -8    4.78    0.95
   1   5  -7  113.60    4.19
  -1  -5  -7  120.29    4.43
   1   5  -6   81.88    3.56
  -1   5   6   79.69    5.33
  -1  -5  -6   85.95    3.67
  -1   5   5   52.65    4.04
   1   5  -5   52.19    2.78
  -1  -5  -5   54.93    2.88
  -1   5   4    4.32    1.36
   1   5  -4    3.71    0.96
  -1  -5  -4    3.89    0.78
  -1  -5  -4    2.81    0.78
   1  -5   4    3.25    1.19
  -1  -5  -3   54.00    2.61
   1   5  -3   48.62    2.47
   1  -5   3   46.83    2.37
  -1   5   3   42.37    3.35
   1  -5   3   47.58    3.36
  -1   5   2  385.77    9.29
   1  -5   2  367.34    8.61
  -1  -5  -2  371.70    6.56
   1  -5   2  360.33    6.30
   1   5  -2  380.64    6.57
  -1  -5  -1 1984.63   14.77
   1  -5   1 1929.97   19.18
   1   5  -1 1909.16   14.55
  -1   5   1 1956.42   13.02
   1  -5   1 1946.92   14.19
  -1  -5   0  253.22    7.63
   1   5   0  249.72    5.22
  -1  -5   0  241.80    4.63
  -1  -5   0  250.23    5.26
  -1   5   0  259.67    4.82
   1  -5   0  249.70    5.12
  -1   5  -1 1907.21   13.49
   1  -5  -1 1933.14   13.49
   1  -5  -1 1921.76   14.28
  -1  -5   1 1950.57   21.42
   1  -5  -2  366.50    6.16
  -1  -5   2  373.85    9.70
  -1   5  -2  381.76    6.26
   1  -5  -2  365.89    6.49
  -1  -5   3   47.91    3.77
   1  -5  -3   49.72    2.45
  -1   5  -3   50.07    2.44
   1  -5  -3   48.55    2.46
  -1   5  -4    5.69    1.02
   1  -5  -4    5.73    1.06
   1  -5  -4    4.82    0.90
   1   5   4    4.56    1.22
  -1  -5   4    3.40    1.21
   1   5   5   43.92    3.63
  -1  -5   5   49.35    4.19
   1  -5  -5   50.36    2.80
   1  -5  -5   49.26    2.64
  -1   5  -5   53.41    2.86
   1  -5  -6   80.21    3.45
  -1  -5   6   84.04    5.89
   1  -5  -6   79.09    3.66
  -1   5  -6   78.65    3.64
  -1   5  -7  121.47    4.59
   1  -5  -7  115.42    4.54
   1  -5  -8    3.91    1.22
  -1   5  -8    4.37    1.13
   1  -5  -9   41.18    2.52
  -1   5  -9   44.79    2.52
  -1   5 -10    1.76    0.49
   1  -5 -10    0.41    0.43
   1   5  10    1.88    0.77
   1   6  -9    6.71    1.10
  -1  -6  -8   55.36    2.79
   1   6  -8   53.76    2.67
   1   6  -8   60.05    3.09
  -1  -6  -8   60.54    2.98
   1  -6   7  103.91    3.80
  -1  -6  -7  108.23    4.12
   1   6  -7  102.54    4.01
  -1  -6  -6  294.45    6.87
   1  -6   6  298.75    6.66
   1   6  -6  283.58    6.83
   1  -6   5  103.97    4.00
   1   6  -5  113.39    4.35
  -1  -6  -5  110.54    4.26
  -1   6   5  103.15    5.94
   1   6  -4 1812.23   16.61
   1  -6   4 1774.72   15.93
  -1  -6  -4 1815.90   16.43
  -1  -6  -4 1832.47   15.04
  -1  -6  -3  140.28    4.51
  -1   6   3  138.00    6.31
   1  -6   3  137.13    4.37
   1  -6   3  132.78    6.02
   1   6  -3  141.56    4.59
   1  -6   2  682.53    9.47
   1   6  -2  703.05   10.03
  -1  -6  -2  700.11    9.82
  -1   6   2  679.75   13.32
   1  -6   1   65.27    2.96
  -1   6   1   65.56    4.10
  -1   6   1   65.75    2.70
   1   6  -1   60.54    2.95
  -1  -6  -1   62.94    2.98
  -1   6   0   17.76    1.47
  -1  -6   0   14.28    1.53
   1   6   0   13.41    1.47
  -1  -6   0   14.40    1.35
   1  -6   0   16.40    1.55
  -1  -6   1   61.07    2.87
  -1   6  -1   66.79    2.82
  -1  -6   1   64.28    4.52
   1  -6  -1   59.49    2.88
   1   6   1   66.37    3.10
   1  -6  -1   63.21    2.71
   1  -6  -2  671.64    9.59
  -1  -6   2  675.58    9.52
   1  -6  -2  704.54    9.79
  -1   6  -2  705.01    9.41
  -1  -6   2  687.52   14.59
   1  -6  -2  679.81    9.12
   1  -6  -3  136.52    4.32
  -1   6  -3  141.40    4.43
   1  -6  -3  140.08    4.52
  -1  -6   3  129.11    6.67
   1  -6  -4 1820.04   16.48
  -1  -6   4 1751.36   25.27
   1  -6  -4 1790.93   16.16
  -1   6  -4 1785.87   16.32
  -1  -6   5  106.94    6.57
   1  -6  -5  110.80    4.17
   1  -6  -5  102.68    4.12
  -1   6  -5  106.52    4.20
  -1   6  -6  297.15    7.03
   1  -6  -6  300.48    7.08
   1  -6  -6  286.72    6.63
   1  -6  -7  102.08    4.15
  -1   6  -7  112.28    4.26
   1  -6  -8   55.82    2.98
  -1   6  -8   58.86    2.90
   1  -6  -9    7.94    1.15
   1   6   9    6.00    1.21
  -1   6  -9    8.54    1.07
   1   7  -8   36.37    1.97
   1   7  -8   36.69    2.03
  -1  -7  -8   33.52    1.82
  -1  -7  -7    1.35    0.88
  -1  -7  -7    1.86    0.71
   1   7  -7    1.42    0.57
   1   7  -7    1.59    0.64
   1   7  -6   11.74    1.34
   1  -7   6   16.07    1.57
   1   7  -6   12.38    1.49
  -1  -7  -6   14.64    1.64
   1   7  -5    3.69    1.02
  -1  -7  -5    2.92    0.99
   1  -7   5    2.84    1.01
  -1  -7  -4    1.01    0.83
   1  -7   4   -0.03    0.83
   1   7  -4    0.36    0.79
  -1  -7  -4    1.66    0.56
  -1  -7  -3   26.28    2.13
   1   7  -3   30.92    2.36
   1  -7   3   30.78    2.28
   1   7  -2  166.50    5.25
  -1  -7  -2  160.46    5.04
   1  -7   2  165.93    5.04
   1  -7   1  301.11    6.74
  -1   7   1  315.89    6.49
   1   7  -1  317.87    7.22
  -1  -7  -1  314.40    6.91
   1  -7   0    1.75    0.83
   1   7   0    1.33    0.99
  -1   7   0    1.83    0.73
  -1  -7   0    0.79    0.71
   1  -7  -1  305.78    6.89
  -1   7  -1  319.67    6.65
   1   7   1  318.79    7.29
   1  -7  -1  315.59    6.32
  -1  -7   1  315.49    6.84
   1  -7  -2  165.27    5.11
  -1  -7   2  155.62    4.81
  -1  -7   2  152.71    7.48
  -1   7  -2  156.18    4.83
   1  -7  -2  162.07    4.73
  -1   7  -3   26.60    2.12
  -1  -7   3   26.69    2.01
   1  -7  -3   27.93    2.25
  -1  -7   3   24.81    3.22
   1  -7  -3   27.14    2.08
   1  -7  -4    1.64    0.92
   1  -7  -4    1.60    0.81
  -1   7  -4   -0.43    0.68
  -1  -7   4    1.51    0.65
  -1   7  -5    4.17    0.99
   1  -7  -5    5.23    1.11
   1  -7  -5    1.75    0.78
  -1   7  -6   14.18    1.61
   1  -7  -6   13.27    1.50
   1  -7  -6   11.58    1.45
   1  -7  -7    1.95    0.80
  -1   7  -7    3.08    0.87
   1  -7  -8   35.88    2.13
   1   7   8   37.57    2.42
  -1   7  -8   36.45    2.03
   1   8  -7    4.29    0.69
  -1  -8  -7    2.65    0.75
   1   8  -6   48.17    2.52
  -1  -8  -6   48.75    2.47
   1   8  -5   59.81    3.02
  -1  -8  -5   59.77    2.93
   1  -8   5   61.11    2.68
  -1  -8  -4  221.10    5.37
   1   8  -4  223.44    5.98
  -1  -8  -4  222.14    5.76
   1  -8   4  218.93    5.48
  -1  -8  -3  193.33    5.27
  -1  -8  -3  185.06    5.31
   1  -8   3  178.99    5.13
   1   8  -3  196.00    5.76
  -1  -8  -2   46.96    2.73
   1   8  -2   42.18    2.80
   1  -8   2   46.55    2.80
   1   8  -1  243.29    6.52
   1  -8   1  232.50    6.07
  -1  -8  -1  235.76    6.00
   1   8   0  213.41    6.12
   1  -8   0  211.24    5.81
  -1  -8   0  203.54    5.54
  -1   8   0  212.13    5.53
   1  -8   0  208.21    5.75
  -1  -8   1  234.01    5.82
  -1   8  -1  243.17    5.93
   1  -8  -1  234.88    6.18
   1  -8  -2   42.99    2.37
   1  -8  -2   42.46    2.73
  -1  -8   2   43.39    2.49
  -1   8  -2   46.42    2.64
  -1  -8   3  174.99    4.79
   1  -8  -3  186.11    5.50
   1  -8  -3  181.23    4.97
  -1   8  -3  185.46    5.29
   1  -8  -4  219.26    5.48
   1  -8  -4  216.87    5.81
  -1   8  -4  233.49    5.87
  -1   8  -5   61.75    2.99
   1  -8  -5   59.04    2.87
   1  -8  -5   62.63    2.92
  -1   8  -6   53.22    2.61
   1   8   6   51.66    2.70
   1  -8  -6   50.57    2.50
   1  -8  -6   48.34    2.37
  -1   8  -7    2.46    0.65
   1  -8  -7    2.68    0.72
  -1  -9  -5   11.27    1.13
   1   9  -5   12.16    1.23
  -1  -9  -4   12.30    1.27
   1   9  -4   14.51    1.47
  -1  -9  -4   10.69    1.15
   1   9  -3   31.56    2.17
   1  -9   3   30.51    1.92
  -1  -9  -3   33.01    2.08
  -1  -9  -3   30.84    1.99
  -1  -9  -2   85.33    3.30
  -1  -9  -2   88.93    3.42
   1  -9   2   86.03    3.33
   1  -9   2   88.25    3.33
   1   9  -2   92.53    3.77
  -1  -9  -1   55.26    2.67
   1  -9   1   54.68    2.77
  -1  -9   0  133.11    4.08
   1  -9   0  130.91    4.32
   1  -9  -1   53.55    2.86
  -1   9  -1   55.16    2.69
  -1  -9   1   52.63    2.48
  -1   9  -2   85.36    3.31
   1  -9  -2   88.89    3.61
   1  -9  -3   32.80    2.18
  -1   9  -3   29.92    1.97
  -1   9  -4   12.94    1.26
   1  -9  -4   13.43    1.32
   1  -9  -5   11.79    1.14
  -1   9  -5   14.50    1.22
  -1 -10  -1   16.04    1.30
   1 -10   1   15.08    1.31
   1 -10   0    3.84    0.76
  -1 -10   0    3.58    0.68
   1 -10  -1   15.72    1.32
  -1 -10   1   15.56    1.26
  -1 -10   2   36.60    1.82
   1 -10  -2   35.95    1.92
   2   0  -1 9977.89   30.55
   2   0   1 9999.00   32.09
   2   0   2 7172.62   29.91
   2   0   2 7081.92   28.40
  -2   0   2 7150.25   24.86
  -2   0   3  877.80    9.72
   2   0   3  853.42   11.11
   2   0   4  367.57    8.32
  -2   0   4  373.36    7.19
  -2   0  -5  294.23    5.80
   2   0   5  300.21    5.94
   2   0  -5  302.85    5.62
  -2   0   5  291.90    7.26
   2   0  -5  277.58    5.00
   2   0   5  289.46    8.33
   2   0  -6  529.83    8.21
  -2   0  -6  520.79    8.34
   2   0  -6  510.57    7.18
  -2   0   6  536.63   11.01
   2   0  -6  506.24    7.86
   2   0   6  518.63    8.36
   2   0   6  533.53   12.62
  -2   0  -7   60.55    3.16
   2   0  -7   62.72    3.05
   2   0  -7   64.26    3.20
   2   0  -7   64.21    2.69
   2   0  -7   64.57    3.13
   2   0   7   57.36    4.67
  -2   0   7   66.76    4.36
   2   0  -8  715.76   11.06
  -2   0   8  664.90   14.73
   2   0  -8  719.51   10.88
   2   0  -8  684.47   10.37
   2   0   8  739.04   17.51
  -2   0  -8  694.74   11.00
  -2   0  -9    2.18    1.00
   2   0  -9    2.50    0.96
  -2   0 -10   55.90    2.68
  -2   0 -10   52.61    2.92
   2   0 -10   56.27    3.03
   2   0 -11   86.97    3.28
  -2   0 -11   83.31    3.04
   2   1 -11   10.93    1.25
  -2  -1 -11   10.61    1.13
   2   1 -10   23.31    1.98
  -2  -1 -10   22.08    1.92
   2   1  -9   66.06    3.46
   2   1  -9   68.18    3.42
  -2  -1  -9   63.64    3.38
  -2  -1  -8   26.56    2.32
   2   1  -8   23.79    2.19
  -2   1   8   30.42    3.59
   2   1  -8   28.91    2.29
   2  -1   8   26.95    3.71
  -2  -1  -7   15.88    1.73
  -2   1   7   15.10    2.32
   2   1  -7   14.22    1.61
   2  -1   7   17.40    2.84
   2   1  -7   12.96    1.27
   2  -1   6  271.60    9.14
  -2  -1  -6  276.41    6.28
   2   1  -6  253.63    5.00
  -2   1   6  275.47    8.32
   2   1  -6  257.15    5.69
   2   1  -6  265.72    5.87
   2   1  -5  832.28    9.31
   2  -1   5  804.79   14.23
   2   1  -5  823.92    9.19
   2   1  -5  789.79    8.31
  -2   1   5  831.78   13.04
  -2   1   4   21.33    1.97
   2  -1   4   19.78    2.17
   2  -1   3  332.63    7.39
  -2   1   3  340.12    6.94
   2  -1   2 2044.71   16.99
   2  -1   1  445.08    7.30
   2   1  -1  449.43    5.96
  -2  -1   0  180.71    3.53
   2   1   0  178.25    3.78
   2  -1   0  186.24    4.57
  -2  -1   1  443.42    4.11
   2   1   1  454.55    6.30
   2  -1  -1  446.10    6.97
  -2  -1   1  437.49    6.11
  -2  -1   2 2132.01   10.71
   2   1   2 2118.91   15.04
   2  -1  -2 2136.07   15.45
   2   1   2 2105.68   14.51
   2   1   3  320.49    6.74
  -2  -1   3  330.93    5.22
   2   1   4   18.55    2.04
  -2  -1   4   30.83    1.95
   2   1   5  831.92   14.33
   2  -1  -5  843.53    9.46
   2  -1  -5  834.68    8.94
  -2  -1   5  848.20   11.53
  -2   1  -5  803.80    9.40
   2   1   6  269.23    9.05
   2  -1  -6  274.90    6.06
  -2  -1   6  271.52    7.53
   2  -1  -6  264.17    5.38
  -2   1  -6  259.47    5.93
   2   1   7   17.70    2.80
   2  -1  -7   16.31    1.76
   2   1   7   16.08    1.88
   2  -1  -7   15.78    1.48
  -2   1  -7   16.24    1.70
   2   1   8   28.24    2.43
   2  -1  -8   28.13    2.26
  -2   1  -8   26.86    2.24
   2  -1  -8   30.09    2.49
   2   1   8   29.55    3.69
   2  -1  -9   67.98    3.55
  -2   1  -9   68.74    3.53
   2  -1  -9   63.43    3.34
   2  -1 -10   22.78    1.97
  -2   1 -10   25.87    2.05
   2  -1 -11   13.38    1.28
  -2   1 -11   12.93    1.27
   2   2 -10   14.42    1.58
  -2  -2 -10   15.64    1.55
   2   2 -10   17.47    1.77
  -2  -2  -9   27.97    2.31
   2   2  -9   33.14    2.51
   2   2  -9   28.18    2.41
  -2  -2  -8  162.21    5.54
   2   2  -8  155.40    5.21
  -2  -2  -7  227.89    6.32
   2   2  -7  224.93    5.90
  -2   2   7  212.12    8.41
  -2   2   6    4.98    1.34
   2   2  -6    5.69    0.88
   2   2  -6    3.13    0.91
   2   2  -5  223.37    5.04
  -2  -2  -5  218.92    4.41
   2   2  -5  223.03    4.52
   2   2  -4  407.89    6.15
   2   2  -4  395.64    5.60
  -2   2   3  116.22    4.53
   2  -2   3  108.80    4.62
   2  -2   3  108.17    2.94
   2  -2   2  101.33    4.06
   2  -2   2  101.46    2.24
   2  -2   1  904.38   11.05
  -2  -2  -1  964.22   10.05
   2  -2   0   94.01    3.48
  -2  -2   0   93.40    3.22
   2   2   0   84.61    2.25
   2  -2  -1  906.35   10.50
   2   2   1  895.68    6.93
  -2  -2   1  925.21   10.49
   2   2   1  898.94    7.87
   2   2   2  104.50    3.26
   2   2   2  107.67    3.13
  -2  -2   2  112.68    4.04
   2  -2  -2  111.42    3.73
  -2  -2   3  112.57    4.44
   2   2   3  114.06    4.23
   2   2   3  109.43    3.71
   2   2   4  412.58    9.36
   2  -2  -4  410.60    6.21
  -2   2  -4  415.25    6.21
   2   2   4  403.99    5.77
   2  -2  -5  236.77    5.27
   2   2   5  224.93    7.76
   2  -2  -5  226.52    5.01
   2   2   5  225.33    4.56
  -2   2  -5  226.56    5.08
   2  -2  -6    5.23    1.01
  -2   2  -6    3.93    1.00
   2  -2  -6    4.12    0.90
   2   2   6    4.10    1.31
   2   2   7  224.40    9.20
   2  -2  -7  230.73    6.16
   2  -2  -7  227.25    5.40
  -2   2  -7  223.64    5.94
   2   2   8  164.37    5.93
   2  -2  -8  163.39    5.53
  -2   2  -8  160.09    5.34
   2  -2  -9   29.66    2.44
   2  -2  -9   28.13    2.20
   2   2   9   30.17    2.49
  -2   2  -9   33.21    2.46
   2  -2 -10   10.98    1.44
   2  -2 -10   14.67    1.57
  -2   2 -10   14.04    1.54
   2  -2 -11   23.83    1.65
  -2   2 -11   26.67    1.67
   2   3 -10    5.03    1.15
  -2  -3 -10    6.28    0.90
  -2  -3  -9   19.97    1.86
   2   3  -9   22.80    2.18
   2   3  -9   25.05    2.10
   2   3  -8   17.20    1.89
  -2  -3  -8   13.58    1.67
  -2  -3  -7   80.10    3.22
   2  -3   7   82.28    5.91
   2   3  -7   75.87    3.56
  -2   3   7   68.51    5.04
   2   3  -6   30.12    1.96
  -2   3   6   34.01    3.36
  -2  -3  -6   36.15    2.10
   2   3  -6   34.77    2.32
  -2   3   5   13.92    2.16
   2   3  -5   11.10    1.25
  -2  -3  -5   12.38    1.23
   2   3  -5   11.22    1.15
   2  -3   5   14.24    2.14
  -2   3   4  243.53    7.61
  -2  -3  -4  222.56    4.62
   2  -3   4  247.28    7.86
   2   3  -4  226.10    4.97
   2   3  -4  222.98    4.68
  -2   3   3  281.52    7.73
  -2  -3  -3  274.49    4.88
   2  -3   3  281.06    7.64
   2  -3   2  340.66    5.27
   2  -3   2  334.55    7.68
   2  -3   1  447.10    8.33
  -2  -3  -1  436.35    8.07
  -2  -3   0  185.56    5.34
   2  -3   0  178.45    5.07
   2  -3  -1  443.15    7.75
  -2  -3   1  440.68    8.45
  -2  -3   2  339.06    7.84
   2  -3  -2  335.51    6.72
   2   3   2  319.89    5.93
   2  -3  -3  273.75    5.06
  -2  -3   3  284.80    7.68
  -2   3  -3  278.30    4.87
   2   3   4  228.54    7.33
   2  -3  -4  231.03    5.01
   2  -3  -4  214.32    4.82
  -2   3  -4  239.51    4.98
  -2  -3   4  236.50    7.66
   2   3   4  226.99    4.57
  -2  -3   5   12.45    2.15
   2  -3  -5   11.85    1.40
   2   3   5   11.69    2.04
   2  -3  -5   11.01    1.29
  -2   3  -5   13.50    1.38
   2   3   5   11.57    1.13
   2  -3  -6   31.17    2.29
  -2  -3   6   34.36    3.45
   2  -3  -6   32.86    2.13
   2   3   6   29.32    3.28
  -2   3  -6   34.32    2.32
   2  -3  -7   73.84    3.63
   2   3   7   66.95    5.30
   2  -3  -7   74.15    3.27
  -2   3  -7   76.52    3.59
  -2  -3   7   84.22    5.87
   2  -3  -8   17.09    1.95
   2   3   8   18.65    2.32
  -2   3  -8   15.32    1.69
   2  -3  -9   22.98    2.09
  -2   3  -9   20.27    1.91
   2   3   9   21.26    2.24
   2  -3  -9   19.80    1.80
   2  -3 -10    5.44    1.03
  -2   3 -10    6.00    0.94
   2   3  10    6.10    1.14
   2  -3 -10    5.74    1.02
   2   4 -10   44.78    2.50
  -2  -4  -9   78.07    3.45
   2   4  -9   88.53    3.99
  -2  -4  -8   42.79    2.51
   2   4  -8   40.67    2.94
  -2  -4  -8   44.46    2.89
  -2  -4  -7  289.32    6.31
   2   4  -7  289.95    6.41
  -2  -4  -6    8.99    1.35
  -2   4   6    4.65    1.60
   2  -4   6    7.79    2.12
   2   4  -6    5.61    1.00
  -2   4   5   90.35    5.26
   2  -4   5   85.39    5.25
   2   4  -5   86.77    3.35
  -2  -4  -5   88.95    3.35
   2  -4   4  200.86    7.35
  -2  -4  -4  210.29    4.91
  -2   4   4  223.11    7.88
   2   4  -4  210.32    4.95
  -2  -4  -3  147.77    4.02
   2  -4   3  154.54    5.95
   2   4  -3  147.09    4.00
  -2   4   3  152.76    6.23
   2   4  -2  430.15    6.56
  -2  -4  -2  416.56    6.64
   2   4  -2  432.58    6.67
   2   4  -1 1547.72   12.18
   2  -4   1 1523.01   11.98
  -2  -4  -1 1521.10   12.48
   2   4   0    1.68    0.65
   2  -4   0    1.65    0.57
   2  -4   0    2.77    0.70
   2  -4   0    2.25    0.83
   2  -4   0    1.38    0.60
  -2  -4   0    3.34    1.28
   2  -4  -1 1582.31   15.12
   2   4   1 1512.18   12.51
  -2  -4   1 1557.75   18.10
   2  -4  -1 1525.27   11.90
   2  -4  -1 1565.56   12.45
   2  -4  -2  431.59    6.49
  -2  -4   2  448.75   10.10
   2  -4  -2  437.17    6.79
  -2   4  -2  434.98    6.04
   2  -4  -3  139.49    4.05
   2  -4  -3  144.15    3.98
   2  -4  -3  141.77    3.88
  -2  -4   3  149.98    6.21
  -2   4  -3  147.16    3.83
   2  -4  -4  198.34    5.02
  -2  -4   4  203.21    7.73
  -2   4  -4  208.16    4.91
   2  -4  -4  203.43    5.02
   2   4   4  207.75    4.63
   2  -4  -5   88.42    3.57
  -2  -4   5   83.87    5.39
  -2   4  -5   90.54    3.55
   2  -4  -5   84.08    3.50
   2   4   5   80.19    2.95
   2  -4  -6   10.35    1.36
  -2   4  -6    8.17    1.27
  -2  -4   6    7.61    1.94
   2  -4  -7  287.04    7.30
   2  -4  -7  280.58    6.47
  -2   4  -7  286.07    6.92
   2  -4  -8   44.44    2.92
   2   4   8   44.23    3.39
  -2   4  -8   43.16    2.76
   2  -4  -9   85.85    3.78
   2   4   9   78.16    4.01
  -2   4  -9   80.15    3.46
   2  -4  -9   81.44    3.32
   2  -4 -10   42.68    2.32
  -2   4 -10   47.31    2.37
   2   4  10   46.83    2.71
  -2  -5  -9   10.04    1.17
   2   5  -9   10.69    1.30
   2  -5   9    9.49    1.18
  -2  -5  -8   31.12    2.34
   2   5  -8   33.38    2.54
  -2  -5  -8   32.38    2.15
  -2  -5  -7   22.16    1.95
   2   5  -7   22.89    1.84
   2   5  -7   24.16    2.27
  -2  -5  -6   82.32    3.52
   2   5  -6   78.44    3.46
   2   5  -6   84.18    4.08
  -2  -5  -5  139.52    4.46
   2   5  -5  131.03    4.39
   2  -5   5  128.81    6.57
   2   5  -5  146.87    5.13
  -2   5   5  136.82    6.92
  -2  -5  -4  303.74    6.42
   2  -5   4  301.97    9.21
  -2   5   4  293.77    9.70
   2   5  -4  299.21    6.45
   2   5  -4  304.14    6.91
   2  -5   3  465.81   10.62
   2   5  -3  453.64    7.70
   2  -5   3  449.00    7.70
  -2  -5  -3  457.00    7.72
   2   5  -3  467.55    7.90
  -2   5   3  459.70   11.55
  -2  -5  -2   45.53    2.45
   2  -5   2   48.83    3.27
   2  -5   2   43.33    2.42
  -2   5   2   44.02    3.59
   2   5  -2   46.94    2.47
   2   5  -1  239.95    5.43
   2  -5   1  242.24    5.35
  -2  -5  -1  244.72    5.54
  -2  -5   0  502.83    8.00
   2  -5   0  509.81    7.98
   2   5   0  512.97    7.93
   2  -5   0  512.57    7.69
   2   5   1  238.67    5.57
  -2  -5   1  250.82    8.15
   2  -5  -1  240.19    5.52
   2  -5  -1  247.58    5.39
  -2   5  -1  244.55    4.75
   2  -5  -2   44.83    2.36
   2  -5  -2   44.68    2.38
  -2  -5   2   41.44    3.49
  -2   5  -2   44.82    2.15
   2  -5  -2   44.56    2.46
   2  -5  -3  453.14    7.59
   2  -5  -3  460.97    8.03
  -2  -5   3  463.49   12.05
  -2   5  -3  449.25    7.19
   2  -5  -4  298.09    6.53
   2  -5  -4  287.34    6.58
  -2  -5   4  304.39   10.18
  -2   5  -4  292.11    6.25
   2   5   4  298.98    5.79
   2  -5  -5  131.92    4.60
  -2   5  -5  134.27    4.51
   2  -5  -5  133.52    4.65
  -2  -5   5  139.59    7.35
   2  -5  -6   83.81    3.75
  -2   5  -6   81.09    3.68
   2  -5  -7   24.79    2.25
   2  -5  -7   23.29    1.96
  -2   5  -7   27.21    2.23
   2  -5  -8   29.03    2.32
   2   5   8   33.48    2.85
  -2   5  -8   31.34    2.29
   2  -5  -9    9.79    1.28
   2   5   9   11.05    1.64
  -2   5  -9   11.56    1.32
   2   6  -9   41.06    2.16
  -2  -6  -8   93.20    3.55
  -2  -6  -8   98.28    3.40
   2  -6   8   94.65    3.44
   2   6  -8   99.77    3.83
  -2  -6  -7  158.53    4.71
   2  -6   7  159.57    4.86
   2   6  -7  152.16    4.59
   2   6  -7  157.49    5.13
  -2  -6  -6  230.44    5.92
   2   6  -6  233.59    6.38
   2   6  -6  213.23    5.72
   2  -6   6  233.73    6.12
  -2  -6  -5  262.49    6.40
   2   6  -5  266.46    6.51
   2  -6   5  265.69    6.58
   2   6  -5  269.75    6.72
  -2  -6  -4  108.60    4.17
  -2   6   4  112.31    6.31
   2   6  -4  108.83    4.20
   2  -6   4  113.91    4.30
   2   6  -4  115.52    4.21
  -2  -6  -3   26.01    2.14
   2   6  -3   25.62    2.12
   2  -6   3   27.24    2.20
  -2   6   3   28.92    3.33
   2   6  -2  409.18    7.91
   2  -6   2  410.59    7.77
  -2  -6  -2  422.58    7.90
  -2   6   2  423.88   11.50
  -2  -6  -1   18.29    1.79
   2   6  -1   18.90    1.78
   2  -6   1   20.16    1.82
   2  -6   1   18.73    1.73
   2   6   0  413.68    7.95
  -2  -6   0  418.50    7.86
   2  -6   0  408.95    7.57
   2  -6   0  429.45    8.02
  -2  -6   1   18.10    1.74
   2   6   1   16.55    1.77
   2  -6  -1   16.21    1.73
   2  -6  -1   17.80    1.75
  -2  -6   1   20.32    2.64
  -2   6  -1   18.20    1.47
   2  -6  -2  426.26    8.18
  -2  -6   2  425.23   12.10
   2  -6  -2  415.83    7.76
  -2   6  -2  411.17    7.05
   2  -6  -3   30.40    2.15
   2  -6  -3   25.67    2.12
  -2  -6   3   29.44    3.38
  -2   6  -3   27.14    1.92
   2  -6  -4  113.07    4.41
   2  -6  -4  112.08    4.20
  -2  -6   4  106.18    6.54
  -2   6  -4  108.41    3.99
   2  -6  -5  260.71    6.54
   2  -6  -5  261.68    6.66
  -2   6  -5  266.29    6.39
   2  -6  -6  227.51    6.09
  -2   6  -6  235.59    6.09
   2  -6  -7  160.91    5.27
   2  -6  -7  155.50    4.69
   2   6   7  162.32    5.97
  -2   6  -7  162.13    4.91
   2  -6  -8  103.56    3.88
  -2   6  -8  100.39    3.62
   2   6   8  106.42    4.43
   2  -6  -9   36.32    2.03
   2   6   9   37.31    2.35
  -2   6  -9   35.44    1.90
   2   7  -7   13.65    1.35
  -2  -7  -7   13.43    1.39
   2  -7   7   14.54    1.40
   2   7  -7   15.61    1.49
  -2  -7  -6   62.74    3.01
   2  -7   6   64.75    3.06
   2   7  -6   64.71    3.06
   2   7  -6   69.87    3.11
  -2  -7  -5   11.31    1.47
   2  -7   5   14.06    1.61
   2   7  -5   12.03    1.50
  -2  -7  -4  133.85    4.68
   2   7  -4  127.41    4.65
   2  -7   4  133.65    4.69
   2  -7   3   36.89    2.59
  -2  -7  -3   36.56    2.55
   2   7  -3   37.44    2.63
   2   7  -2    5.71    1.33
  -2  -7  -2    5.41    1.27
   2  -7   2    4.07    1.02
   2  -7   2    5.54    1.37
  -2   7   2    1.54    1.38
  -2  -7  -1   22.95    2.10
   2  -7   1   23.08    2.04
   2   7  -1   23.96    2.17
   2  -7   1   23.46    2.04
  -2   7   1   17.43    2.44
   2   7   0    9.50    1.50
  -2  -7   0    7.76    1.35
   2  -7   0    8.03    1.34
   2  -7   0    9.42    1.50
  -2   7   0    9.55    2.04
   2  -7  -1   24.93    2.15
  -2  -7   1   20.74    2.02
   2  -7  -1   23.23    2.07
  -2   7  -1   23.65    1.75
  -2   7  -2    6.94    1.00
  -2  -7   2    5.46    1.25
   2  -7  -2    5.73    1.30
   2  -7  -3   38.82    2.45
   2  -7  -3   36.26    2.61
  -2  -7   3   36.36    2.57
  -2   7  -3   34.67    2.22
   2  -7  -4  128.62    4.38
   2  -7  -4  135.78    4.90
   2   7   4  136.85    5.06
  -2   7  -4  132.77    4.40
  -2  -7   4  130.45    4.64
   2  -7  -5   11.68    1.51
   2  -7  -5   12.92    1.54
   2   7   5   14.76    1.90
  -2   7  -5   13.70    1.47
  -2  -7   5   11.47    1.49
   2   7   6   65.76    3.54
  -2   7  -6   70.33    3.17
   2  -7  -6   67.58    3.20
   2  -7  -7   15.24    1.49
   2   7   7   16.09    1.77
   2  -7  -7   12.47    1.21
  -2   7  -7   13.83    1.37
   2  -7  -8    7.16    0.98
   2   7   8    7.80    1.12
  -2   7  -8    9.33    1.01
  -2  -8  -6   15.04    1.37
   2   8  -6   14.93    1.35
   2  -8   6   14.36    1.32
  -2  -8  -5   51.93    2.65
   2   8  -5   51.71    2.65
   2  -8   5   51.64    2.57
   2   8  -4    2.09    0.93
  -2  -8  -4    3.61    1.05
   2  -8   4    4.41    1.06
  -2  -8  -3   15.09    1.53
   2   8  -3   13.50    1.57
   2  -8   3   14.30    1.64
  -2  -8  -3   14.18    1.63
  -2  -8  -2  158.58    5.00
   2  -8   2  155.99    4.70
   2   8  -2  162.55    5.27
   2  -8   2  162.07    5.09
   2   8  -1  252.82    6.75
   2  -8   1  253.28    6.41
  -2  -8  -1  245.41    6.24
   2  -8   1  246.49    6.18
  -2  -8   0    5.95    1.21
   2  -8   0    6.13    1.13
   2  -8   0    6.43    1.35
   2  -8  -1  248.15    6.43
  -2  -8   1  233.03    6.07
  -2  -8   2  149.25    4.84
  -2   8  -2  155.44    4.43
   2  -8  -2  159.64    5.23
   2  -8  -3   15.59    1.64
  -2  -8   3   14.49    1.58
  -2   8  -3   13.64    1.39
  -2   8  -4    4.08    0.93
   2  -8  -4    2.94    1.09
  -2  -8   4    2.26    0.76
   2  -8  -5   52.48    2.75
  -2   8  -5   49.85    2.47
   2  -8  -6   15.61    1.39
  -2   8  -6   14.79    1.30
   2  -8  -6   12.22    1.29
   2  -9   4   76.24    2.81
  -2  -9  -4   83.42    2.96
   2   9  -4   80.16    3.06
  -2  -9  -3   27.47    1.84
  -2  -9  -3   25.13    1.64
   2   9  -3   25.31    1.90
   2  -9   3   23.17    1.71
  -2  -9  -2   72.23    2.91
   2  -9   2   71.13    3.06
  -2  -9  -2   79.47    3.16
  -2  -9  -1   41.20    2.31
   2  -9   1   40.68    2.44
   2  -9   1   39.73    2.30
  -2  -9   0   42.22    2.34
   2  -9   0   41.65    2.41
  -2  -9   1   37.90    2.21
   2  -9  -1   40.15    2.38
  -2  -9   2   71.89    2.89
   2  -9  -2   78.58    3.31
   2  -9  -3   24.76    1.89
   2  -9  -4   86.19    3.19
   3   0   0   -0.01    0.82
   3   0  -1 1400.74   14.54
   3   0   1 1421.24   15.37
  -3   0   1 1435.82   10.07
   3   0   2  313.00    7.50
  -3   0   2  311.65    6.12
   3   0  -2  329.25    7.06
   3   0   3  892.61   13.88
   3   0  -3  879.44    8.45
  -3   0   3  876.01   10.95
   3   0   3  873.45    8.40
   3   0  -3  894.86    8.81
   3   0   3  891.03    8.36
   3   0  -4 1884.79   13.22
  -3   0  -4 1868.86   14.33
  -3   0   4 1912.96   17.26
   3   0  -4 1871.06   13.48
   3   0   4 1859.39   15.66
   3   0   4 1890.23   22.92
   3   0  -4 1836.61   13.72
   3   0  -4 1874.78   14.87
   3   0  -5  173.97    4.50
  -3   0  -5  167.98    4.73
   3   0  -5  171.04    4.43
   3   0  -5  172.39    4.55
   3   0   5  174.49    5.16
   3   0   5  159.41    7.72
   3   0   5  175.13    7.41
  -3   0   5  174.44    5.81
   3   0  -5  171.41    4.92
  -3   0   6    9.02    1.43
  -3   0  -6    7.56    1.31
   3   0  -6    6.29    1.15
   3   0   6    8.10    2.16
   3   0   6    6.50    1.18
   3   0  -6    6.65    1.16
   3   0  -6    5.83    0.98
   3   0   6    6.88    2.59
   3   0  -6    7.07    1.27
  -3   0  -7   92.53    4.06
   3   0  -7   90.76    3.88
   3   0  -7   94.32    3.95
   3   0   7   83.59    3.93
   3   0   7   92.94    7.13
   3   0  -7   88.91    3.50
   3   0   7   83.45    6.11
   3   0  -7   86.06    3.90
   3   0  -8  110.44    3.81
   3   0  -8  106.08    4.32
   3   0  -8   95.04    4.03
  -3   0  -8  109.86    4.53
   3   0  -9   27.90    2.27
  -3   0  -9   29.70    2.36
   3   0 -10   48.68    2.66
  -3   0 -10   44.96    2.57
   3   1 -10   12.44    1.43
  -3  -1 -10   15.16    1.59
   3   1  -9    7.80    1.31
   3   1  -9   10.96    1.47
  -3  -1  -9   10.33    1.53
  -3  -1  -8  194.06    6.09
   3   1  -8  184.62    4.88
   3   1  -8  184.72    5.68
   3   1  -8  185.98    6.02
  -3  -1  -7   65.40    3.53
   3   1  -7   62.34    2.89
   3   1  -7   63.26    3.25
  -3   1   7   58.35    4.34
   3  -1   7   63.28    5.99
   3   1  -7   66.16    3.77
  -3  -1  -6  143.36    4.90
   3   1  -6  136.55    4.13
   3  -1   6  131.67    7.88
   3   1  -6  138.45    4.49
  -3   1   6  132.75    5.97
   3   1  -6  144.72    5.33
  -3   1   5   42.40    3.18
   3   1  -5   41.27    2.22
   3  -1   5   41.38    4.10
   3   1  -5   40.40    2.28
   3   1  -5   37.17    2.63
   3   1  -4  455.61    6.77
   3   1  -4  457.95    6.87
  -3   1   4  462.27    9.67
   3  -1   4  474.32   11.98
   3   1  -4  456.02    8.04
  -3   1   3  264.10    6.84
   3   1  -3  255.77    4.68
   3  -1   3  260.73    7.95
   3  -1   3  260.37    4.77
   3   1  -3  249.40    5.42
   3  -1   2  198.68    6.34
   3  -1   1  120.19    4.76
   3   1  -1  125.99    4.07
   3   1   0  611.11    9.04
   3  -1   0  603.66   10.24
  -3  -1   0  615.35    7.09
   3  -1  -1  129.73    4.67
  -3  -1   1  131.95    3.73
   3   1   1  124.46    4.27
   3   1   2  197.66    5.63
  -3  -1   2  196.59    3.77
  -3  -1   2  203.75    5.24
   3  -1  -2  211.40    5.91
   3  -1  -3  257.36    4.90
   3  -1  -3  246.79    4.64
   3   1   3  252.63    5.76
   3   1   3  242.97    6.84
   3   1   3  244.01    6.91
   3   1   3  255.68    4.69
  -3   1  -4  472.06    7.01
   3  -1  -4  456.29    6.62
   3  -1  -4  457.86    6.98
   3  -1  -4  458.54    6.69
   3   1   4  468.47   10.68
   3   1   4  459.44    6.47
   3  -1  -4  449.94    6.58
   3   1   4  463.12   10.78
   3  -1  -4  445.14    6.80
   3   1   4  465.79    8.46
   3   1   4  461.34    6.63
  -3   1  -5   44.78    2.45
   3  -1  -5   41.37    2.23
   3  -1  -5   42.88    2.37
   3  -1  -5   43.99    2.36
   3   1   5   47.40    4.05
   3   1   5   42.36    3.89
   3   1   5   44.21    2.92
   3  -1  -5   40.53    2.24
   3  -1  -6  141.12    4.55
   3   1   6  133.94    5.14
   3  -1  -6  136.77    4.33
   3   1   6  131.25    7.28
   3  -1  -6  144.24    4.58
   3  -1  -6  131.81    4.19
   3   1   6  130.75    7.22
  -3   1  -6  134.79    4.53
   3  -1  -7   66.74    3.36
   3  -1  -7   66.30    3.11
   3   1   7   57.38    3.46
   3  -1  -7   69.86    3.43
   3   1   7   56.32    5.10
   3   1   7   63.40    5.51
  -3   1  -7   65.59    3.37
   3  -1  -8  194.93    5.88
   3   1   8  189.88    6.21
   3  -1  -8  184.63    5.07
  -3   1  -8  187.35    5.79
   3  -1  -8  189.08    5.69
   3  -1  -9    9.77    1.36
  -3   1  -9   10.04    1.52
   3  -1 -10   12.91    1.35
  -3   1 -10   14.58    1.50
  -3  -2 -10    2.39    0.72
   3   2 -10    1.03    0.54
   3   2  -9   46.11    2.79
   3   2  -9   48.06    2.99
  -3  -2  -9   43.70    2.86
  -3  -2  -8   59.39    3.44
   3   2  -8   59.55    3.29
   3   2  -8   64.22    3.78
  -3  -2  -7  150.31    5.39
   3   2  -7  144.86    4.97
   3  -2   7  156.67    8.96
  -3   2   7  148.12    7.22
   3   2  -7  150.68    5.93
   3   2  -6  301.78    6.17
   3  -2   6  322.54   12.12
   3   2  -6  281.04    8.04
  -3   2   6  304.16    9.58
   3   2  -6  300.88    6.76
   3   2  -5   41.24    2.22
   3   2  -5   37.92    2.31
  -3   2   5   41.13    3.41
   3   2  -5   35.73    2.88
   3   2  -4   14.15    1.27
   3   2  -4   14.46    1.83
   3   2  -4   13.82    1.38
  -3   2   4   13.83    1.97
   3  -2   4   13.15    2.26
   3   2  -3 1371.76   10.98
   3  -2   3 1327.91   18.48
  -3   2   3 1344.03   17.43
   3   2  -3 1322.13   13.32
   3   2  -2  621.55    6.98
   3  -2   2  622.38   11.72
   3  -2   2  649.66    7.25
   3   2  -2  617.34    8.22
   3  -2   1   58.01    3.50
   3   2   0  398.61    6.53
   3  -2   0  421.45    8.92
  -3  -2   0  419.97    7.33
   3  -2  -1   56.84    3.29
   3   2   1   54.80    2.61
  -3  -2   1   58.97    2.97
   3   2   2  628.22    9.25
   3  -2  -2  618.28    7.49
   3  -2  -2  625.88    7.53
   3   2   2  636.35    9.08
   3  -2  -2  627.02    7.16
  -3  -2   2  626.00   10.23
   3  -2  -2  624.87   10.56
   3  -2  -3 1357.47   11.22
   3  -2  -3 1363.42   11.80
   3   2   3 1291.87   14.44
   3   2   3 1380.63   14.52
   3   2   3 1302.75   15.46
  -3  -2   3 1350.32   16.37
  -3   2  -3 1329.83   10.52
   3   2   3 1326.35   11.38
   3  -2  -4   14.07    1.32
   3   2   4   13.25    1.75
   3   2   4   14.44    1.89
   3  -2  -4   14.99    1.30
   3   2   4   17.52    1.26
   3  -2  -4   15.28    1.37
  -3  -2   4   16.63    2.13
   3   2   4   18.63    2.32
  -3   2  -4   17.14    1.39
   3   2   4   14.01    1.30
   3  -2  -5   44.23    2.43
   3  -2  -5   41.87    2.40
   3  -2  -5   43.43    2.26
   3  -2  -5   39.43    2.30
   3   2   5   45.53    3.24
   3   2   5   38.23    3.40
  -3  -2   5   42.81    3.60
   3   2   5   37.46    3.68
   3   2   5   40.30    2.20
  -3   2  -5   41.72    2.33
   3  -2  -6  313.15    6.88
   3  -2  -6  304.83    6.67
   3  -2  -6  305.52    6.76
   3   2   6  318.22    8.56
  -3  -2   6  325.84   10.47
  -3   2  -6  299.70    6.66
   3  -2  -7  154.32    5.16
   3  -2  -7  142.26    4.84
   3   2   7  147.75    5.96
   3  -2  -7  151.61    4.82
  -3  -2   7  141.36    7.50
   3   2   7  141.13    8.08
  -3   2  -7  145.01    4.95
   3  -2  -8   57.79    3.25
   3  -2  -8   61.55    3.23
   3   2   8   60.09    3.80
  -3   2  -8   58.83    3.29
   3  -2  -8   60.94    2.98
   3  -2  -9   43.37    2.72
   3  -2  -9   43.47    2.59
   3   2   9   43.89    3.00
  -3   2  -9   48.82    2.85
  -3   2 -10    1.54    0.67
   3  -2 -10    0.17    0.35
  -3  -3 -10    4.31    0.70
   3   3 -10    3.73    0.88
  -3  -3  -9    9.09    1.33
   3   3  -9   12.61    1.58
  -3  -3  -8   13.19    1.78
   3   3  -8   11.40    1.70
   3   3  -7   13.21    2.11
  -3   3   6  112.44    6.31
   3  -3   6  134.36    7.70
   3   3  -6  127.09    5.62
  -3   3   5   84.58    5.19
   3  -3   5   88.43    5.90
   3   3  -5   82.59    4.36
  -3  -3  -4    8.39    1.05
   3  -3   4    8.43    1.20
  -3   3   4    8.47    1.74
   3  -3   4    9.19    1.87
   3   3  -4   11.27    1.64
   3  -3   3  138.64    6.17
   3  -3   3  133.05    3.74
  -3   3   3  147.99    6.25
  -3  -3  -3  136.87    3.73
   3   3  -3  145.03    4.70
   3  -3   2   67.33    4.07
  -3  -3  -2   60.40    2.50
   3  -3   2   60.98    2.47
   3   3  -2   61.18    2.77
   3  -3   1  346.95    8.82
   3  -3   1  349.10    5.68
   3   3  -1  350.19    6.06
   3  -3   0  286.38    7.71
   3  -3   0  276.02    5.01
  -3  -3   0  286.75    7.14
   3  -3  -1  375.54    8.56
   3  -3  -1  359.55    5.74
   3  -3  -1  359.29    5.95
  -3  -3   1  371.02    8.44
   3   3   1  360.97    6.69
   3  -3  -2   62.25    2.61
   3  -3  -2   62.70    2.60
   3   3   2   59.59    3.02
   3  -3  -2   62.65    2.34
  -3  -3   2   56.40    3.55
   3  -3  -2   59.86    3.51
   3  -3  -3  139.83    4.12
   3  -3  -3  133.78    3.74
   3   3   3  140.75    5.15
  -3  -3   3  143.12    5.95
  -3   3  -3  141.25    3.62
   3   3   4    9.67    1.64
   3  -3  -4    8.80    1.13
  -3   3  -4    7.18    0.95
  -3  -3   4    8.65    1.85
   3  -3  -4    8.75    1.25
   3   3   4    9.23    1.13
   3  -3  -5   87.45    3.55
   3  -3  -5   91.23    3.19
   3  -3  -5   85.37    3.56
   3   3   5   80.15    4.70
  -3  -3   5   93.45    5.54
  -3   3  -5   88.18    3.48
   3   3   5   83.64    3.23
   3  -3  -6  133.20    4.65
   3   3   6  128.30    5.97
   3  -3  -6  132.27    4.60
  -3  -3   6  129.90    6.98
  -3   3  -6  123.96    4.38
   3   3   7   11.65    2.09
   3  -3  -7   11.78    1.65
   3  -3  -7   10.73    1.44
   3  -3  -7    9.97    1.34
  -3   3  -7   10.75    1.56
   3  -3  -8   15.84    1.83
   3  -3  -8   14.43    1.42
   3  -3  -8   15.56    1.57
   3   3   8   11.86    1.96
  -3   3  -8   12.69    1.68
   3  -3  -9    9.94    1.41
   3   3   9    9.42    1.47
  -3   3  -9   11.37    1.40
  -3   3 -10    3.40    0.77
  -3  -4  -9   45.05    2.55
   3   4  -9   46.28    2.78
  -3  -4  -8   79.23    3.84
   3   4  -8   81.41    4.17
   3   4  -7   22.36    2.45
  -3  -4  -6   86.33    3.34
   3   4  -6   88.80    4.65
  -3  -4  -5  187.33    4.82
   3  -4   5  184.87    8.33
   3   4  -5  192.29    6.51
  -3  -4  -4   58.88    2.69
   3  -4   4   56.15    2.56
   3   4  -4   56.56    2.88
  -3   4   4   57.38    4.44
   3   4  -4   58.51    3.37
   3  -4   4   54.74    4.31
   3  -4   3  482.42   11.86
  -3   4   3  496.05   12.41
   3  -4   3  480.30    7.18
   3   4  -3  469.00    7.88
  -3  -4  -3  494.18    7.63
   3   4  -3  500.68    8.86
  -3  -4  -2  120.85    3.83
   3  -4   2  124.06    5.74
   3  -4   2  120.12    3.57
   3   4  -2  112.36    3.71
   3   4  -2  126.38    4.08
  -3  -4  -1   13.80    1.38
   3  -4   1   12.36    1.38
   3  -4   1   13.51    1.25
   3   4  -1   13.04    1.32
   3  -4   1   14.92    1.40
   3  -4   1   11.26    1.83
   3   4  -1   12.42    1.32
   3  -4   0  242.87    7.42
   3  -4   0  242.37    5.00
   3  -4   0  243.46    5.48
   3   4   0  236.50    5.29
  -3  -4   0  238.92    7.45
   3  -4   0  238.18    5.02
   3  -4  -1   13.84    1.96
   3   4   1   15.77    1.52
   3  -4  -1   12.99    1.30
  -3  -4   1   15.17    2.08
   3  -4  -1   13.63    1.29
   3  -4  -1   12.71    1.40
   3  -4  -2  128.79    4.14
   3   4   2  117.21    4.44
   3  -4  -2  123.85    3.68
  -3  -4   2  120.62    5.69
   3  -4  -2  121.35    5.07
   3  -4  -3  484.98    7.34
   3  -4  -3  507.69    8.48
   3   4   3  462.50    9.69
  -3  -4   3  479.16   11.72
  -3   4  -3  493.05    7.10
   3  -4  -4   59.39    3.07
   3   4   4   51.67    3.64
   3  -4  -4   58.88    2.58
  -3  -4   4   58.77    4.60
  -3   4  -4   56.74    2.65
   3   4   4   55.44    2.73
   3  -4  -5  186.76    5.55
   3   4   5  166.90    6.83
  -3  -4   5  177.45    8.09
  -3   4  -5  181.05    5.03
   3   4   5  177.71    4.83
   3  -4  -6   79.83    3.74
   3  -4  -6   83.82    3.83
   3   4   6   85.52    5.13
  -3   4  -6   87.89    3.73
   3   4   6   79.79    3.21
   3  -4  -7   19.22    1.94
   3  -4  -7   19.01    1.79
   3   4   7   16.76    2.64
  -3   4  -7   22.75    2.02
   3  -4  -8   79.74    3.71
   3  -4  -8   85.28    3.45
   3   4   8   81.54    4.49
  -3   4  -8   85.78    3.67
   3  -4  -9   45.89    2.59
   3   4   9   43.66    2.91
  -3   4  -9   44.27    2.45
  -3  -5  -9   18.92    1.53
   3  -5   9   18.65    1.56
   3   5  -9   17.46    1.70
  -3  -5  -8   12.80    1.54
   3   5  -8   14.46    1.74
  -3  -5  -7   57.28    2.74
   3   5  -7   54.88    3.42
  -3  -5  -6   16.00    1.56
   3   5  -6   16.32    1.98
  -3  -5  -5   94.29    3.71
   3   5  -5   95.83    3.94
   3   5  -5  102.02    4.64
   3  -5   4   77.38    5.23
  -3  -5  -4   85.70    3.52
   3   5  -4   76.83    3.55
  -3   5   4   82.78    5.51
   3   5  -4   85.97    4.01
  -3   5   3  135.90    6.87
  -3  -5  -3  130.10    4.28
   3  -5   3  126.98    6.28
   3   5  -3  123.70    4.39
   3  -5   3  128.21    4.41
   3   5  -3  126.97    4.55
  -3   5   2  579.28   13.79
   3  -5   2  571.13   12.67
   3  -5   2  599.52    8.17
   3   5  -2  565.47    9.25
   3  -5   2  611.68    9.23
   3   5  -2  586.43    8.94
  -3  -5  -2  601.83    9.18
   3  -5   1  234.64    7.70
  -3  -5  -1  242.47    5.87
   3  -5   1  242.30    5.28
   3   5  -1  224.68    5.67
   3  -5   1  243.04    5.70
   3  -5   0  146.16    5.89
  -3  -5   0  135.99    4.47
   3  -5   0  129.13    4.59
  -3  -5   0  135.16    6.31
   3   5   0  132.08    4.40
   3  -5   0  133.40    4.20
   3  -5  -1  226.09    6.04
  -3  -5   1  245.82    8.59
   3  -5  -1  236.57    5.54
   3  -5  -1  230.43    7.02
   3  -5  -2  586.42    8.54
   3  -5  -2  614.83    9.96
   3   5   2  575.89    9.97
   3  -5  -2  603.05    8.88
  -3  -5   2  591.04   13.69
   3  -5  -3  131.69    4.73
   3   5   3  122.09    5.09
  -3  -5   3  131.56    6.78
  -3   5  -3  127.83    3.84
   3  -5  -3  126.73    3.85
   3  -5  -4   84.72    3.88
   3   5   4   79.40    4.49
  -3  -5   4   80.56    5.66
  -3   5  -4   82.93    3.31
   3   5   4   78.45    3.34
   3  -5  -5   97.12    4.21
   3   5   5   94.69    5.20
  -3   5  -5   92.21    3.67
   3   5   5   88.78    3.47
   3  -5  -6   15.90    1.77
   3  -5  -6   15.32    1.72
   3   5   6   15.68    2.34
  -3   5  -6   15.81    1.65
   3   5   6   14.95    1.53
   3  -5  -7   56.81    3.16
   3  -5  -7   55.97    2.95
   3   5   7   60.61    4.06
  -3   5  -7   59.46    3.04
   3  -5  -8   11.84    1.40
   3  -5  -8   11.36    1.22
   3   5   8   12.95    1.93
  -3   5  -8   13.40    1.44
   3  -5  -9   18.49    1.54
   3   5   9   17.03    1.78
  -3   5  -9   18.65    1.44
  -3  -6  -8   11.43    1.24
   3  -6   8   12.03    1.26
   3   6  -8   13.01    1.33
  -3  -6  -7  228.33    5.12
   3  -6   7  243.98    5.86
   3   6  -7  230.26    6.00
   3  -6   6   83.10    3.74
   3   6  -6   81.51    3.79
  -3  -6  -6   78.58    3.29
  -3  -6  -5  144.03    4.59
   3   6  -5  138.97    4.65
   3  -6   5  157.36    5.19
   3   6  -5  149.61    5.15
  -3  -6  -4  346.02    7.23
   3   6  -4  337.08    7.41
   3  -6   4  346.09    7.69
   3   6  -4  336.54    7.44
  -3  -6  -3  189.70    5.45
   3   6  -3  195.51    5.71
   3  -6   3  187.68    5.59
  -3   6   3  190.12    8.46
  -3  -6  -2  560.94    9.39
  -3   6   2  553.98   14.29
   3   6  -2  560.18    9.68
   3  -6   2  571.47    9.49
  -3  -6  -1  398.64    8.06
   3  -6   1  380.50    8.22
   3   6  -1  388.65    8.14
   3  -6   1  408.82    7.96
  -3  -6   0    0.18    0.95
   3  -6   0    0.90    0.79
   3  -6   0   -0.01    0.77
   3  -6  -1  414.06    8.75
  -3  -6   1  403.14   11.98
   3  -6  -1  405.37    7.83
  -3  -6   1  398.98    8.27
   3  -6  -2  591.85   10.35
  -3  -6   2  584.85   14.70
   3  -6  -2  568.51    9.27
   3  -6  -3  197.68    6.06
   3   6   3  180.61    6.03
  -3  -6   3  205.10    8.91
   3  -6  -4  346.49    8.01
   3   6   4  330.68    8.58
  -3   6  -4  335.96    6.68
   3   6   4  340.44    6.81
   3  -6  -5  150.38    5.22
   3   6   5  147.06    5.94
  -3   6  -5  152.97    4.62
   3   6   5  138.11    4.10
   3  -6  -6   80.44    3.64
   3  -6  -6   77.18    3.59
   3   6   6   82.00    4.43
  -3   6  -6   79.08    3.34
   3  -6  -7  229.13    5.78
   3  -6  -7  235.54    5.64
   3   6   7  240.57    7.04
  -3   6  -7  233.89    5.40
   3  -6  -8    9.97    1.20
   3  -6  -8    9.77    1.04
   3   6   8    9.77    1.50
  -3   6  -8   11.41    1.11
  -3  -7  -7   19.34    1.49
   3  -7   7   19.86    1.61
  -3  -7  -6   20.25    1.66
   3  -7   6   22.07    1.83
   3   7  -6   23.82    1.77
   3   7  -5   23.96    1.86
   3  -7   5   26.14    2.11
  -3  -7  -5   27.69    2.11
   3   7  -4   16.58    1.62
   3  -7   4   15.89    1.84
  -3  -7  -4   16.40    1.72
  -3  -7  -3   59.67    3.17
   3   7  -3   57.07    3.13
   3  -7   3   59.73    3.24
   3   7  -2  120.12    4.63
   3  -7   2  118.79    4.49
  -3  -7  -2  120.21    4.51
  -3  -7  -1   21.14    2.09
   3  -7   1   19.45    1.92
   3  -7   1   19.19    1.97
   3  -7   0  105.82    4.44
   3  -7   0  101.60    4.15
  -3  -7   0  101.29    4.29
  -3  -7   1   19.51    2.08
   3  -7  -1   21.28    2.20
   3  -7  -1   20.44    2.01
  -3  -7   2  116.04    4.60
   3  -7  -2  118.14    4.78
  -3  -7   3   56.65    3.21
   3  -7  -3   60.81    3.37
   3  -7  -4   19.73    1.94
   3   7   4   15.84    1.83
  -3   7  -4   17.63    1.50
  -3  -7   4   14.76    1.80
   3   7   4   18.06    1.51
  -3  -7   5   25.15    2.05
   3  -7  -5   23.65    2.09
   3   7   5   28.19    2.35
  -3   7  -5   25.94    1.91
   3  -7  -6   21.98    1.74
  -3  -7   6   19.73    1.67
   3  -7  -6   22.88    1.86
   3   7   6   22.74    2.10
  -3   7  -6   22.07    1.59
   3  -7  -7   20.55    1.53
   3   7   7   15.26    1.60
   3  -7  -7   16.91    1.37
  -3   7  -7   19.07    1.43
  -3  -8  -5   23.85    1.71
   3  -8   5   25.72    1.83
  -3  -8  -4   37.61    2.24
   3   8  -4   36.67    2.21
   3  -8   4   40.66    2.40
  -3  -8  -3  221.54    5.54
   3  -8   3  222.55    5.65
  -3  -8  -2   54.34    2.93
   3  -8   2   59.24    3.07
  -3  -8  -1   31.94    2.32
   3  -8   1   30.38    2.22
   3  -8   1   34.39    2.40
  -3  -8   0  176.10    5.27
   3  -8   0  180.63    5.31
   3  -8   0  169.86    5.24
  -3  -8   1   30.98    2.27
   3  -8  -1   29.23    2.26
  -3  -8   2   56.66    2.98
   3  -8  -2   59.70    3.12
  -3  -8   3  209.56    5.49
   3  -8  -3  220.39    5.88
  -3  -8   4   37.32    2.24
   3  -8  -4   36.51    2.33
   3  -8  -5   23.59    1.63
   3  -8  -5   22.26    1.70
  -3  -8   5   24.09    1.72
   3  -9   3   32.29    1.90
  -3  -9  -3   31.64    1.82
  -3  -9  -2   27.22    1.79
   3  -9   2   30.23    1.92
  -3  -9  -1   19.85    1.57
   3  -9   1   20.56    1.70
  -3  -9   0   94.30    3.33
   3  -9   0   93.86    3.30
   3  -9  -1   18.85    1.56
  -3  -9   1   19.63    1.57
  -3  -9   2   28.35    1.80
   3  -9  -2   28.91    1.90
  -3  -9   3   31.24    1.75
   3  -9  -3   31.53    1.93
   4   0   0    9.44    1.67
   4   0   0    9.25    1.15
   4   0  -1  309.50    8.06
   4   0   1  297.78    8.32
   4   0  -1  295.65    5.06
   4   0   1  283.29    5.08
   4   0  -1  303.96    5.97
   4   0   1  289.61    6.03
   4   0  -1  293.38    5.30
   4   0  -1  294.14    5.20
   4   0   1  296.87    5.61
   4   0  -1  297.69    5.90
   4   0   1  289.75    4.92
   4   0  -2 1523.51   12.21
   4   0   2 1489.32   19.27
   4   0  -2 1511.97   12.25
   4   0   2 1513.22   14.18
   4   0  -2 1483.46   11.23
   4   0   2 1490.23   12.55
   4   0  -2 1504.92   13.68
   4   0  -2 1541.95   18.07
   4   0   2 1512.41   11.70
  -4   0  -3 3220.29   18.44
   4   0  -3 3253.39   19.06
   4   0  -3 3280.67   18.88
   4   0   3 3193.93   30.38
   4   0   3 3190.68   21.52
   4   0   3 3242.22   18.86
   4   0  -3 3215.96   21.06
   4   0   3 3278.24   18.18
  -4   0  -4   22.54    1.83
   4   0  -4   22.30    1.70
   4   0   4   20.08    2.92
   4   0  -4   22.53    1.79
   4   0   4   25.09    1.83
   4   0  -4   23.55    1.99
  -4   0  -5  280.57    6.41
   4   0  -5  279.77    6.39
   4   0   5  274.30   10.95
   4   0  -5  279.80    6.32
   4   0  -5  281.84    6.94
  -4   0  -6  432.73    8.43
   4   0  -6  416.75    8.00
   4   0  -6  423.41    8.41
   4   0  -6  421.50    8.78
   4   0  -7  104.54    4.02
   4   0  -7  106.07    4.34
   4   0   7   99.99    4.29
   4   0  -7  104.05    4.39
  -4   0  -7  106.56    4.34
   4   0  -8   67.44    3.10
   4   0  -8   64.33    3.38
   4   0  -8   58.28    3.03
  -4   0  -8   65.90    3.43
   4   0  -9   54.08    2.81
  -4   0  -9   54.62    2.89
  -4   0 -10    6.47    0.94
  -4  -1 -10   17.97    1.51
  -4  -1  -9    5.55    1.18
   4   1  -9    5.49    1.02
   4   1  -8   26.55    2.26
   4   1  -8   24.62    2.24
  -4  -1  -8   26.12    2.28
  -4  -1  -7   96.53    4.25
   4   1  -7   93.78    3.76
   4   1  -7   98.29    4.19
   4   1  -7  102.26    4.77
  -4  -1  -6  237.27    6.52
   4   1  -6  255.23    6.12
   4   1  -6  235.08    6.27
   4  -1   6  234.07    6.10
   4   1  -6  244.25    7.35
  -4  -1  -5    5.99    1.10
   4  -1   5    3.80    1.06
   4   1  -5    2.48    0.86
   4   1  -5    4.19    1.02
   4  -1   5    4.54    1.89
  -4   1   5    4.18    1.18
   4   1  -5    3.72    1.11
   4   1  -4  125.07    4.01
   4  -1   4  134.01    7.19
   4  -1   4  117.39    4.21
  -4   1   4  116.38    5.22
   4   1  -4  129.05    4.83
   4   1  -3   22.52    1.68
   4  -1   3   25.43    2.86
   4  -1   3   18.71    1.73
   4  -1   3   24.59    1.77
   4   1  -3   23.16    2.01
  -4   1   3   28.94    2.45
   4   1  -2  145.70    3.79
   4  -1   2  145.26    6.41
   4   1  -2  140.96    3.69
   4  -1   2  141.77    4.31
   4  -1   2  147.07    4.01
   4   1  -2  137.45    4.40
   4   1  -1  285.06    4.95
   4  -1   1  289.53    8.63
   4   1  -1  278.63    4.89
   4   1  -1  294.00    5.82
   4  -1   1  286.11    5.87
   4  -1   1  290.37    5.45
   4   1  -1  278.31    5.90
   4  -1   1  285.32    4.58
   4   1  -1  282.70    7.25
   4   1   0  838.17   12.70
   4  -1   0  863.55   14.36
   4   1   0  807.36    8.04
   4  -1   0  848.03   10.00
   4   1   0  844.81   10.21
   4  -1   0  805.68    9.09
   4  -1   0  832.81    9.33
   4   1   0  816.64    9.69
   4  -1  -1  287.62    8.15
   4   1   1  282.97    7.67
   4  -1  -1  291.97    5.58
   4  -1  -1  275.30    5.01
   4   1   1  287.67    6.16
   4  -1  -1  278.28    5.22
   4   1   1  286.27    5.63
   4  -1  -1  287.42    5.65
   4  -1  -2  142.45    3.89
   4  -1  -2  145.49    4.02
   4   1   2  147.65    5.77
   4  -1  -2  137.67    3.67
   4  -1  -2  142.93    4.12
   4  -1  -2  142.34    5.70
   4   1   2  139.93    3.85
   4  -1  -3   19.91    1.71
   4  -1  -3   22.08    1.74
   4   1   3   19.57    2.40
   4   1   3   21.77    1.64
   4  -1  -3   22.85    1.85
  -4  -1   3   23.71    2.21
   4   1   3   20.81    1.66
   4  -1  -4  123.56    4.08
   4  -1  -4  123.57    3.93
   4   1   4  123.88    6.16
   4   1   4  123.05    5.01
   4   1   4  130.36    3.90
   4  -1  -4  119.55    4.05
  -4  -1   4  126.17    5.60
   4   1   4  119.50    3.87
  -4   1  -4  126.99    3.88
   4  -1  -5    4.06    0.97
  -4   1  -5    3.74    0.93
   4   1   5    2.55    1.44
   4   1   5    4.35    1.54
   4  -1  -5    2.32    0.96
   4  -1  -5    3.67    0.99
  -4  -1   5    3.76    1.52
   4  -1  -6  232.71    5.81
   4  -1  -6  240.03    6.19
   4  -1  -6  236.43    6.32
   4   1   6  226.67    9.99
   4   1   6  249.84    7.63
   4  -1  -6  236.00    6.01
  -4  -1   6  243.89    9.20
  -4   1  -6  242.36    6.14
   4  -1  -7   96.66    3.93
   4  -1  -7   95.35    3.95
   4  -1  -7   96.85    4.14
  -4   1  -7   99.25    4.08
   4  -1  -8   26.21    2.03
   4  -1  -8   22.48    1.99
  -4   1  -8   27.20    2.19
   4  -1  -9    6.44    0.95
   4  -1  -9    7.59    1.07
  -4   1  -9    7.92    1.12
  -4   1 -10   18.92    1.46
  -4  -2 -10   17.17    1.39
   4   2  -9   41.06    2.58
  -4  -2  -9   47.03    2.65
  -4  -2  -8   49.60    3.04
   4   2  -8   49.97    3.30
  -4  -2  -7   73.92    3.88
   4   2  -7   69.64    4.22
  -4  -2  -6   20.84    2.20
   4   2  -6   26.16    2.06
   4  -2   6   27.02    4.46
   4   2  -6   23.32    2.68
  -4   2   6   21.20    2.97
   4   2  -5   16.25    1.66
  -4   2   5   16.80    2.30
   4  -2   5   12.82    2.99
   4   2  -5   14.70    2.09
   4   2  -4  217.74    5.31
   4  -2   4  226.51    9.54
   4  -2   4  213.02    5.34
  -4   2   4  218.52    7.91
   4   2  -4  217.79    6.75
   4   2  -3   25.32    1.78
  -4   2   3   33.37    3.05
   4  -2   3   26.36    2.95
   4  -2   3   25.77    1.96
   4  -2   3   29.27    1.99
   4   2  -3   26.77    2.23
   4   2  -2  164.74    4.13
   4  -2   2  162.27    4.51
   4  -2   2  163.57    4.50
   4  -2   2  167.48    4.24
   4   2  -2  156.39    4.88
   4  -2   2  164.03    7.04
   4   2  -1  300.62    5.27
   4  -2   1  295.89    9.13
   4   2  -1  301.34    5.97
   4  -2   1  293.22    5.84
   4  -2   1  293.46    5.46
   4   2  -1  296.93    6.28
   4  -2   0   21.78    2.50
   4  -2   0   22.97    1.44
   4   2   0   21.76    1.82
   4  -2   0   22.97    1.67
   4  -2   0   21.45    1.57
   4   2   0   21.07    1.67
   4   2   0   21.24    1.97
   4  -2  -1  300.44    8.67
   4   2   1  292.44    7.14
   4  -2  -1  293.11    5.50
   4  -2  -1  289.78    5.89
   4   2   1  298.81    6.51
   4  -2  -1  291.63    5.60
   4  -2  -1  292.08    5.48
   4   2   1  295.17    5.82
   4   2   2  160.19    5.55
   4  -2  -2  166.58    4.44
   4  -2  -2  167.62    4.57
   4  -2  -2  159.11    4.13
  -4  -2   2  169.90    5.77
   4   2   2  158.53    4.13
   4  -2  -2  158.85    4.11
   4  -2  -2  162.77    6.30
   4  -2  -3   26.80    1.97
   4  -2  -3   26.67    1.93
   4   2   3   22.99    2.39
   4   2   3   27.89    1.83
  -4  -2   3   28.46    2.66
   4  -2  -3   25.60    1.71
   4   2   3   26.56    1.91
   4  -2  -4  212.67    5.55
   4  -2  -4  222.21    5.32
   4   2   4  222.07    7.21
   4   2   4  209.43    4.81
  -4  -2   4  211.78    7.57
  -4   2  -4  216.41    4.98
   4   2   4  223.49    5.41
   4  -2  -5   15.33    1.50
   4  -2  -5   16.03    1.74
   4  -2  -5   17.42    1.68
   4   2   5   16.98    2.43
  -4  -2   5   12.19    2.28
  -4   2  -5   16.98    1.59
   4   2   5   15.15    1.55
   4  -2  -6   26.27    2.03
   4  -2  -6   22.89    2.05
   4   2   6   22.91    2.76
  -4  -2   6   25.50    3.23
  -4   2  -6   23.93    2.02
   4  -2  -7   75.18    3.49
   4  -2  -7   75.83    3.54
   4   2   7   75.59    4.57
  -4   2  -7   76.45    3.58
   4  -2  -8   50.65    2.80
   4  -2  -8   52.46    2.79
  -4   2  -8   53.34    2.97
   4  -2  -9   42.80    2.13
   4   2   9   42.60    2.60
  -4   2  -9   44.71    2.49
  -4   2 -10   18.01    1.40
  -4  -3  -9    0.28    0.60
   4   3  -9    0.28    0.68
  -4  -3  -8    5.29    1.09
   4   3  -8    3.40    0.97
  -4  -3  -7    6.10    1.29
   4   3  -7    8.50    1.93
   4  -3   6   15.02    1.70
   4   3  -6   10.12    2.04
  -4   3   5  119.64    6.47
   4  -3   5  145.46    8.20
   4  -3   5  137.47    4.50
   4   3  -5  127.88    5.84
   4  -3   4   88.84    6.06
   4  -3   4   78.71    3.41
  -4   3   4   83.91    5.31
   4   3  -4   84.88    4.44
  -4   3   3   23.84    2.80
   4  -3   3   30.25    2.12
   4  -3   3   26.96    3.18
   4   3  -3   30.41    2.56
   4  -3   2   33.06    3.45
   4  -3   2   32.23    2.13
  -4  -3  -2   33.56    2.00
   4   3  -2   32.05    2.39
   4  -3   1  183.30    7.38
  -4  -3  -1  188.27    4.65
   4   3  -1  173.99    4.63
   4  -3   1  175.92    4.65
   4  -3   1  172.47    4.31
   4  -3   1  175.48    4.21
   4   3  -1  178.56    5.05
   4   3   0    3.56    0.88
   4  -3   0    1.02    0.41
   4  -3   0    2.15    0.74
   4  -3   0    2.47    1.06
   4  -3   0    0.64    0.47
   4  -3   0    2.69    0.70
   4   3   0    2.85    0.84
   4  -3  -1  175.56    6.88
   4  -3  -1  184.04    4.82
   4  -3  -1  184.29    4.67
  -4  -3   1  175.34    6.12
   4  -3  -1  165.58    3.95
   4   3   1  183.18    4.68
   4  -3  -2   33.47    2.22
   4  -3  -2   34.41    2.21
   4   3   2   32.89    2.59
   4  -3  -2   39.01    2.20
  -4  -3   2   35.05    3.04
   4   3   2   33.91    1.95
   4  -3  -2   31.65    2.97
   4  -3  -3   25.60    2.03
   4  -3  -3   27.65    2.02
   4   3   3   26.55    2.60
  -4  -3   3   32.72    3.02
   4   3   3   26.21    1.93
   4  -3  -4   88.78    3.82
   4   3   4   76.95    4.65
   4  -3  -4   80.94    3.35
  -4  -3   4   84.54    5.16
  -4   3  -4   83.04    3.15
   4   3   4   87.88    3.58
   4  -3  -5  131.62    4.39
   4  -3  -5  137.45    4.80
   4  -3  -5  139.31    4.35
   4   3   5  125.38    6.29
  -4  -3   5  126.68    6.61
  -4   3  -5  138.77    4.34
   4   3   5  135.38    4.47
   4  -3  -6   14.38    1.65
   4  -3  -6   13.05    1.62
   4   3   6   13.60    2.59
  -4   3  -6   15.70    1.63
   4  -3  -7    7.19    1.21
   4   3   7    7.24    1.91
   4  -3  -7    8.74    1.28
  -4   3  -7    8.59    1.27
   4  -3  -8    4.70    1.00
  -4   3  -8    4.85    0.96
   4   3   8    2.59    1.35
   4  -3  -8    2.33    0.78
  -4   3  -9   -0.12    0.50
   4  -3  -9    0.98    0.46
   4   4  -9   16.97    1.54
  -4  -4  -9   13.46    1.32
  -4  -4  -8    9.37    1.35
   4   4  -8   10.93    1.62
  -4  -4  -7  100.88    4.35
   4   4  -7  105.69    5.02
   4   4  -6  107.07    5.24
   4  -4   5   13.08    1.54
   4   4  -5   17.86    2.38
   4  -4   4  233.82    9.70
   4  -4   4  237.47    5.74
  -4   4   4  231.45    9.31
   4   4  -4  258.76    7.63
  -4  -4  -3   95.26    3.49
   4  -4   3   94.80    3.65
   4   4  -3  101.23    4.47
  -4   4   3  105.87    6.16
   4  -4   2  301.99   10.18
  -4  -4  -2  299.39    6.29
   4  -4   2  297.95    6.32
   4  -4   2  308.42    6.50
   4   4  -2  292.60    7.01
   4  -4   1  180.38    7.58
  -4  -4  -1  186.72    5.08
   4  -4   1  183.33    4.94
   4  -4   1  185.65    4.86
   4   4  -1  183.75    5.22
   4  -4   0   84.91    5.03
   4  -4   0   83.25    3.51
   4   4   0   83.69    3.51
   4  -4   0   85.60    3.36
   4  -4   0   81.09    3.19
   4   4   0   92.48    3.54
   4  -4  -1  192.12    7.33
   4  -4  -1  191.80    5.05
  -4  -4   1  182.69    6.99
   4  -4  -1  187.36    4.71
   4  -4  -1  190.95    5.52
   4  -4  -2  300.12    7.10
   4  -4  -2  295.88    6.53
   4   4   2  297.07    7.78
   4  -4  -2  300.14    5.95
  -4  -4   2  285.34    9.16
   4  -4  -3  100.83    4.21
   4  -4  -3   98.31    3.76
   4   4   3   98.29    4.96
  -4  -4   3   91.97    5.42
   4   4   3   97.75    3.86
   4  -4  -4  247.30    6.62
   4  -4  -4  247.89    5.76
   4   4   4  228.11    8.19
  -4  -4   4  222.85    8.89
   4   4   4  242.76    6.11
   4  -4  -5   12.07    1.50
   4  -4  -5   14.04    1.76
   4  -4  -5   16.05    1.53
   4   4   5   11.85    2.42
  -4   4  -5   14.12    1.53
   4   4   5   13.60    1.65
   4  -4  -6  101.18    4.02
   4  -4  -6  100.83    4.27
   4   4   6   99.32    5.73
  -4   4  -6   96.93    3.74
   4  -4  -7   99.16    3.88
   4  -4  -7  108.23    4.15
   4   4   7  105.61    5.49
  -4   4  -7  100.98    3.80
   4  -4  -8   10.87    1.29
   4  -4  -8    9.40    1.19
   4   4   8   12.07    1.81
  -4   4  -8    9.17    1.17
  -4   4  -9   14.26    1.23
  -4  -5  -8    4.96    0.92
   4  -5   8    4.75    0.99
   4   5  -8    6.80    1.14
   4  -5   7   28.14    2.14
   4   5  -7   29.75    2.41
   4  -5   6  111.93    4.25
   4   5  -6  114.49    4.94
  -4  -5  -5   72.29    3.06
   4  -5   5   79.92    3.74
   4   5  -5   83.56    4.28
  -4  -5  -4   22.27    1.85
   4  -5   4   22.87    1.84
   4  -5   4   23.27    2.13
   4   5  -4   22.31    2.31
  -4   5   3   85.41    5.94
   4  -5   3   84.51    5.72
  -4  -5  -3   87.21    3.59
   4  -5   3   92.07    3.54
   4  -5   3   92.84    3.90
   4   5  -3   85.29    3.99
   4  -5   2   68.65    4.86
  -4  -5  -2   67.87    3.24
   4  -5   2   73.80    3.24
   4  -5   2   72.55    3.39
   4   5  -2   70.19    3.45
   4  -5   1  103.95    5.84
  -4  -5  -1  104.95    4.09
   4  -5   1  110.17    3.94
   4  -5   1  102.03    3.92
   4   5  -1  103.07    3.87
  -4  -5   0  360.44    7.63
   4  -5   0  354.75    7.11
   4  -5  -1  106.38    4.60
   4   5   1  101.57    4.06
  -4  -5   1   99.21    5.72
   4  -5  -1  105.27    3.86
   4  -5  -1   96.15    5.27
   4  -5  -2   68.26    3.28
   4  -5  -2   80.20    4.01
  -4  -5   2   65.98    4.90
   4  -5  -2   69.24    3.16
   4  -5  -3   88.88    3.55
   4  -5  -3   94.90    4.36
   4   5   3   84.16    4.60
  -4  -5   3   85.20    5.64
   4  -5  -4   21.98    1.78
   4  -5  -4   23.29    2.23
   4   5   4   24.57    2.84
   4   5   4   23.58    1.96
   4  -5  -5   71.73    3.34
   4  -5  -5   70.37    3.66
   4   5   5   73.67    4.69
   4   5   5   73.11    3.27
   4  -5  -6  102.84    3.90
   4  -5  -6  111.07    4.33
   4   5   6  103.51    5.37
  -4   5  -6  109.42    3.73
   4  -5  -7   25.39    1.83
   4  -5  -7   27.19    2.02
   4   5   7   25.07    2.53
  -4   5  -7   27.83    1.87
  -4   5  -8    4.00    0.79
   4  -5  -8    4.35    0.79
  -4  -6  -7   20.21    1.70
   4  -6   7   20.71    1.68
   4   6  -7   19.25    1.60
   4  -6   6    0.26    0.69
   4   6  -6   -0.13    0.58
  -4  -6  -5   29.99    2.01
   4  -6   5   29.69    2.32
   4   6  -5   29.58    2.32
  -4  -6  -4   37.39    2.33
   4  -6   4   41.96    2.61
   4   6  -4   39.14    2.58
  -4  -6  -3  326.97    7.02
   4  -6   3  331.77    7.40
   4   6  -3  311.32    6.97
  -4  -6  -2   42.16    2.71
   4  -6   2   44.94    2.80
  -4  -6  -1    4.59    1.28
   4  -6   1    4.67    1.10
  -4  -6   0  355.82    7.89
   4  -6   0  357.60    7.48
   4  -6  -1    4.27    1.05
   4  -6  -1    5.42    1.45
   4  -6  -1    5.76    1.19
  -4  -6   1    5.74    1.50
  -4  -6   2   44.04    3.03
   4  -6  -2   45.18    2.58
   4  -6  -2   45.58    3.18
   4  -6  -2   43.50    2.61
   4  -6  -3  334.68    8.12
   4   6   3  332.47    7.19
   4  -6  -4   44.57    3.00
   4   6   4   39.94    3.13
   4   6   4   39.11    2.45
   4  -6  -5   27.64    2.28
   4   6   5   27.83    2.71
   4   6   5   26.17    1.86
   4   6   6    0.75    1.00
   4  -6  -6    0.85    0.71
   4  -6  -7   21.28    1.61
   4  -7   6   10.75    1.17
  -4  -7  -5   29.69    1.85
   4  -7   5   31.28    2.08
  -4  -7  -4    0.34    0.62
   4  -7   4    2.42    0.86
  -4  -7  -3    6.24    1.14
   4  -7   3    4.40    1.17
  -4  -7  -2   54.37    2.94
   4  -7   2   49.02    2.84
  -4  -7  -1   21.90    2.05
   4  -7   1   20.35    1.88
  -4  -7   0   19.60    1.97
   4  -7   0   17.46    1.87
   4  -7   0   16.37    1.72
  -4  -7   1   18.89    2.06
   4  -7  -1   24.14    1.94
   4  -7  -1   23.32    2.20
   4  -7  -1   20.14    1.88
  -4  -7   2   50.56    3.05
   4  -7  -2   58.03    3.36
   4   7   3    5.23    0.97
  -4  -7   3    4.74    1.23
   4  -7  -3    6.49    1.12
   4   7   4    0.74    0.58
  -4  -7   4    1.51    0.83
  -4  -7   5   29.05    2.08
   4  -7  -5   28.94    2.11
  -4  -7   6   10.26    1.10
   4  -7  -6    8.17    1.01
  -4  -8  -4   53.45    2.34
   4  -8   4   55.78    2.50
  -4  -8  -3   45.55    2.31
   4  -8   3   44.09    2.36
  -4  -8  -2   68.82    2.92
   4  -8   2   66.04    3.02
  -4  -8  -1   20.14    1.74
   4  -8   1   22.02    1.63
   4  -8   1   20.91    1.79
  -4  -8   0   52.30    2.73
   4  -8   0   48.94    2.60
  -4  -8   1   20.54    1.84
   4  -8  -1   20.87    1.79
  -4  -8   2   66.20    3.01
   4  -8  -2   63.66    3.00
   4   8   2   61.01    2.65
  -4  -8   3   39.12    2.24
   4  -8  -3   42.50    2.38
   4   8   3   38.97    1.93
  -4  -8   4   55.01    2.47
   4  -8  -4   58.25    2.64
  -4  -9   0    5.79    0.81
   5   0   0    0.06    0.44
   5   0   0    1.02    0.85
   5   0   0    0.06    0.62
   5   0   0    1.15    1.02
   5   0   0    1.49    0.83
   5   0   1  257.41    8.83
   5   0  -1  264.83    5.37
   5   0  -1  250.32    5.61
   5   0   1  244.97    5.31
   5   0   1  253.15    6.53
   5   0  -1  259.79    5.59
   5   0   1  246.43    5.83
   5   0   1  258.18    6.00
   5   0  -1  263.69    6.32
   5   0   1  253.17    5.10
   5   0  -1  253.32    8.36
   5   0  -2    4.97    1.14
   5   0   2    6.44    0.99
   5   0   2    7.42    1.42
   5   0  -2    5.68    1.01
   5   0  -2    6.93    0.96
   5   0   2    6.05    1.70
   5   0   2    6.41    1.21
   5   0  -2    8.19    1.34
   5   0   2    6.86    1.05
   5   0  -3   25.72    1.97
   5   0   3   20.19    2.93
   5   0  -3   25.41    1.99
   5   0   3   24.40    2.36
   5   0   3   27.35    2.10
   5   0  -3   19.21    2.04
   5   0  -4  446.93    8.16
   5   0   4  425.76    9.11
   5   0  -4  425.87    8.92
   5   0  -5  462.58    8.55
   5   0   5  452.39    9.54
   5   0  -5  428.96    9.17
  -5   0  -5  452.80    8.12
   5   0  -6   54.10    3.02
   5   0   6   51.85    3.27
   5   0  -6   54.58    3.29
  -5   0  -6   58.02    3.05
   5   0  -7  165.95    5.00
   5   0   7  159.19    5.24
   5   0  -7  153.37    5.08
  -5   0  -7  158.14    4.91
   5   0  -8    8.70    1.15
  -5   0  -8    8.48    1.16
  -5   0  -9   -0.29    0.51
  -5  -1  -9   20.20    1.49
   5   1  -8   13.76    1.67
  -5  -1  -8   13.22    1.40
   5   1  -7    8.81    1.51
  -5  -1  -7   11.59    1.51
  -5  -1  -6   15.49    1.76
   5   1  -6   14.19    1.64
   5  -1   6   12.72    1.69
   5   1  -6   17.07    2.13
  -5  -1  -5  210.12    5.79
   5   1  -5  218.21    5.83
   5  -1   5  204.19    6.00
   5   1  -5  215.06    7.16
  -5  -1  -4    4.49    0.93
   5  -1   4    2.25    1.19
   5   1  -4    4.70    1.20
   5  -1   4    5.84    2.18
   5   1  -4    4.21    1.41
   5   1  -3   56.59    2.82
   5  -1   3   58.41    4.95
   5  -1   3   52.03    3.11
   5  -1   3   59.00    3.00
   5   1  -3   59.21    3.57
   5   1  -2   84.89    3.26
   5  -1   2   79.66    5.39
   5   1  -2   89.29    3.33
   5  -1   2   87.27    3.92
   5  -1   2   87.40    3.69
   5  -1   2   89.17    3.52
   5   1  -2   82.75    3.88
   5  -1   1  114.80    6.26
   5   1  -1  110.59    3.49
   5   1  -1  113.49    3.58
   5  -1   1  100.17    3.72
   5  -1   1  110.14    4.32
   5   1  -1  103.19    3.42
   5  -1   1  108.66    3.95
   5  -1   1  111.65    3.94
   5   1  -1  115.16    4.36
   5   1  -1   98.07    5.00
   5   1   0    9.40    1.14
   5  -1   0   10.61    1.37
   5   1   0    8.37    1.43
   5  -1   0   10.54    1.36
   5   1   0   10.27    1.27
   5   1   0    8.71    1.69
   5  -1   0   13.25    2.33
   5  -1   0    8.87    1.34
   5   1   0   11.19    1.45
   5   1   0    8.84    1.15
   5  -1  -1  111.97    5.83
   5   1   1  109.80    5.48
   5  -1  -1  108.22    3.49
   5  -1  -1  107.50    3.90
   5   1   1  112.79    4.50
   5  -1  -1  107.07    3.72
   5   1   1  111.95    4.04
   5  -1  -1  107.31    3.93
   5   1   1  102.14    3.56
   5   1   2   79.62    4.75
   5  -1  -2   80.69    3.24
   5  -1  -2   87.04    3.58
   5   1   2   80.52    3.97
   5  -1  -2   83.15    3.26
   5   1   2   87.80    3.53
   5  -1  -2   82.76    3.58
   5   1   2   79.42    3.25
   5  -1  -3   57.64    2.94
   5  -1  -3   58.25    2.97
   5   1   3   59.77    3.61
   5   1   3   59.17    2.92
   5  -1  -3   52.10    2.93
   5   1   3   53.30    2.74
   5  -1  -4    4.90    1.14
   5   1   4    4.90    1.67
   5  -1  -4    4.36    1.02
   5   1   4    4.20    1.06
   5  -1  -4    2.84    1.04
   5  -1  -5  216.70    5.95
   5   1   5  215.12    7.15
   5  -1  -5  195.51    5.69
  -5   1  -5  203.84    5.24
   5  -1  -6   15.54    1.80
   5   1   6   15.63    2.31
   5  -1  -6   16.83    1.63
  -5   1  -6   15.92    1.59
   5  -1  -7   11.35    1.49
   5   1   7   10.86    1.77
  -5   1  -7   12.17    1.32
   5  -1  -8   13.57    1.40
   5   1   8   11.91    1.69
  -5   1  -8   14.44    1.47
  -5   1  -9   19.14    1.46
   5  -2   8   79.80    3.02
   5   2  -8   81.91    3.77
  -5  -2  -8   78.32    3.29
  -5  -2  -7   19.03    1.85
   5  -2   7   21.62    1.92
   5   2  -7   23.36    2.45
  -5  -2  -6   37.60    2.63
   5  -2   6   37.06    2.60
   5   2  -6   33.11    3.07
  -5  -2  -5   38.25    2.61
   5  -2   5   34.25    2.54
   5   2  -5   39.83    3.50
   5   2  -4   71.44    3.35
   5  -2   4   58.65    5.54
   5  -2   4   62.67    3.25
   5  -2   4   61.73    3.32
   5   2  -4   57.25    3.91
   5   2  -3    9.18    1.32
  -5   2   3   11.35    2.10
   5  -2   3    9.14    1.47
   5  -2   3   12.70    2.53
   5   2  -3    7.77    1.62
   5  -2   2  258.76   10.03
   5  -2   2  258.88    6.34
   5  -2   2  269.63    6.06
   5   2  -2  264.42    7.10
   5  -2   1  116.76    6.35
   5   2  -1  115.21    4.29
   5  -2   1  118.91    4.23
   5  -2   1  116.33    3.97
   5   2  -1  118.63    4.56
   5  -2   0  480.83   12.75
   5  -2   0  451.55    8.35
   5   2   0  485.81    8.96
   5  -2   0  491.18    8.31
   5  -2   0  476.89    7.84
   5   2   0  472.10    8.50
   5  -2  -1  117.71    6.13
   5  -2  -1  119.23    3.91
   5  -2  -1  116.05    4.20
   5   2   1  116.73    4.68
   5  -2  -1  125.07    4.14
   5  -2  -1  111.86    3.87
   5   2   1  117.63    4.15
   5   2   1  116.05    4.04
   5  -2  -2  261.02    6.10
   5  -2  -2  258.73    6.28
   5   2   2  259.36    7.31
   5  -2  -2  257.86    5.90
   5   2   2  250.06    5.93
   5  -2  -2  239.89    5.67
   5  -2  -2  265.69    9.22
   5   2   2  262.76    6.05
   5  -2  -3   11.00    1.43
   5  -2  -3    9.22    1.37
   5   2   3    8.82    1.73
   5   2   3    8.89    1.34
   5  -2  -3    8.51    1.19
   5   2   3    9.29    1.30
   5  -2  -4   58.48    3.15
   5  -2  -4   61.91    3.20
   5   2   4   57.62    4.02
   5   2   4   60.95    2.94
   5   2   4   59.92    3.09
   5  -2  -5   39.46    2.67
   5   2   5   39.25    3.55
   5  -2  -6   35.52    2.50
   5   2   6   38.94    3.40
  -5   2  -6   37.16    2.31
   5  -2  -7   21.48    1.95
   5   2   7   23.84    2.56
  -5   2  -7   22.32    1.84
   5  -2  -8   80.58    3.18
   5   2   8   76.95    3.69
  -5   2  -8   82.80    3.09
  -5  -3  -8    1.59    0.71
   5   3  -8    1.63    0.70
  -5  -3  -7   12.61    1.64
   5  -3   7   15.20    1.55
   5   3  -7   16.81    2.00
  -5  -3  -6    7.57    1.31
   5  -3   6    5.95    1.22
   5   3  -6    5.79    1.51
   5  -3   5   33.58    2.42
   5   3  -5   37.94    3.39
   5  -3   4   22.91    2.11
   5   3  -4   24.07    2.71
   5  -3   3  164.10    8.47
   5  -3   3  161.86    5.13
   5  -3   3  157.88    4.72
   5   3  -3  169.11    6.20
   5  -3   2   44.92    4.29
   5  -3   2   41.63    2.64
   5  -3   2   43.01    2.41
   5   3  -2   43.04    3.02
  -5   3   2   36.03    3.71
   5  -3   1   31.77    3.47
   5   3  -1   26.85    1.99
   5  -3   1   27.93    2.25
   5  -3   1   32.42    2.12
   5   3  -1   27.35    2.32
   5  -3   0   31.95    3.46
   5  -3   0   24.53    2.14
   5   3   0   23.16    2.11
   5  -3   0   25.70    2.08
   5  -3   0   24.94    1.85
   5   3   0   24.91    2.08
   5  -3  -1   26.67    2.03
   5  -3  -1   28.81    2.34
   5   3   1   25.90    2.23
   5  -3  -1   27.68    2.10
   5  -3  -1   28.14    1.89
   5   3   1   27.72    2.10
   5  -3  -1   20.87    2.78
   5  -3  -2   41.38    2.65
   5  -3  -2   42.87    2.74
   5   3   2   37.13    2.98
   5   3   2   43.45    2.50
   5   3   2   36.84    2.48
   5  -3  -3  154.16    5.19
   5  -3  -3  168.11    5.17
   5   3   3  155.67    6.36
   5   3   3  155.82    4.41
   5   3   3  161.75    5.08
   5  -3  -4   23.25    2.15
   5  -3  -4   25.81    2.18
   5   3   4   23.03    2.06
   5  -3  -5   36.21    2.60
   5   3   5   35.70    2.43
   5  -3  -6    6.80    1.24
   5  -3  -7   15.42    1.56
   5   3   7   17.30    2.20
  -5   3  -8    1.18    0.47
   5  -3  -8    1.71    0.75
  -5  -4  -8   44.73    2.24
   5  -4   8   47.69    2.26
   5   4  -8   50.05    2.64
  -5  -4  -7   12.50    1.49
   5  -4   7   15.44    1.55
   5   4  -7   16.47    2.02
   5  -4   6  105.18    3.97
   5   4  -6  114.90    5.21
   5  -4   5   95.17    3.64
   5  -4   5   96.75    3.91
   5   4  -5   96.36    4.97
   5  -4   4    5.01    1.18
   5  -4   4    3.76    1.07
   5   4  -4    4.93    1.56
   5  -4   3   15.80    1.66
   5  -4   3   17.26    1.72
   5   4  -3   15.10    1.91
   5  -4   2   88.05    3.74
   5  -4   2   90.86    3.62
   5   4  -2   87.05    4.15
  -5  -4  -1   19.85    1.83
   5  -4   1   18.63    1.86
   5  -4   1   21.11    1.80
   5  -4   1   20.37    3.00
   5   4  -1   19.37    1.97
   5  -4   0  155.14    7.57
  -5  -4   0  169.73    5.13
   5   4   0  158.81    5.12
   5  -4   0  170.06    5.16
   5   4   0  173.43    5.14
   5  -4  -1   23.31    2.08
   5  -4  -1   22.53    2.15
   5   4   1   17.44    1.93
   5   4   1   21.03    1.80
   5  -4  -1   20.11    2.71
   5  -4  -2   88.42    4.13
   5  -4  -2   88.86    3.93
   5   4   2   79.40    4.24
   5   4   2   88.65    3.88
   5  -4  -3   15.84    1.96
   5  -4  -3   16.57    1.82
   5   4   3   11.86    2.13
   5   4   3   13.01    1.70
   5   4   4    5.85    1.20
   5  -4  -4    5.35    1.12
   5  -4  -4    5.19    1.23
   5  -4  -5  102.89    4.33
   5   4   5   88.36    3.64
   5  -4  -6  110.87    4.27
   5  -4  -7   11.33    1.32
   5   4   7   13.59    2.03
   5  -4  -8   43.94    2.11
   5   4   8   46.31    2.64
  -5  -5  -7    7.45    1.09
   5  -5   7    7.96    1.05
   5   5  -7   10.06    1.24
   5  -5   6   12.13    1.40
   5   5  -6   13.96    1.73
   5  -5   5    0.20    0.58
   5   5  -5   -0.59    0.60
   5  -5   4  206.93    5.13
   5  -5   4  208.73    5.64
   5   5  -4  217.25    6.57
   5  -5   3   41.91    2.51
   5  -5   3   38.17    2.52
   5   5  -3   42.13    2.88
  -5  -5  -2   94.36    3.68
   5  -5   2   97.41    3.85
   5  -5   2   93.44    3.76
   5   5  -2   87.72    3.83
  -5  -5  -1   21.03    1.91
   5  -5   1   23.89    2.00
   5  -5   1   22.03    1.85
   5   5  -1   23.15    1.95
  -5  -5   0   18.68    1.86
   5  -5   0   20.11    2.05
   5  -5   0   19.04    1.73
  -5  -5   1   24.84    2.27
   5  -5  -1   21.20    2.16
   5  -5  -1   22.15    2.12
   5  -5  -2   90.19    4.33
   5  -5  -2   91.83    3.91
   5   5   2   92.17    4.23
   5   5   2   95.79    4.04
   5  -5  -3   45.29    3.07
   5  -5  -3   41.60    2.53
   5   5   3   42.90    3.21
   5   5   3   40.27    2.67
   5  -5  -4  213.52    6.30
   5  -5  -4  197.14    5.06
   5   5   4  202.28    6.87
   5   5   4  215.77    5.67
   5   5   5    0.44    0.86
   5  -5  -5    0.11    0.82
   5   5   5    1.46    0.72
   5  -5  -6   13.50    1.49
   5   5   6   16.31    1.90
   5  -5  -7    9.73    1.10
   5   5   7   10.41    1.43
  -5  -6  -6    6.02    0.96
   5  -6   6    9.16    1.13
   5  -6   5   56.36    2.66
   5   6  -5   49.70    2.55
   5  -6   4   11.47    1.39
   5   6  -4   12.10    1.41
  -5  -6  -3   14.90    1.40
   5  -6   3   14.28    1.54
  -5  -6  -2   80.87    3.36
   5  -6   2   85.30    3.53
  -5  -6  -1  451.48    8.18
   5  -6   1  453.64    8.02
  -5  -6   0   30.88    2.37
   5  -6   0   24.28    2.25
   5  -6   0   24.18    1.94
  -5  -6   1  454.37    8.63
   5  -6  -1  436.12    8.17
   5  -6  -1  454.49    7.73
  -5  -6   2   81.30    3.78
   5  -6  -2   80.74    3.97
   5  -6  -2   77.92    3.37
   5   6   2   82.74    3.65
  -5  -6   3   15.73    1.79
   5  -6  -3   12.84    1.73
   5  -6  -3   15.14    1.47
   5   6   3   15.30    1.72
   5   6   3   15.57    1.60
   5  -6  -4   11.38    1.51
   5   6   4   12.79    1.59
   5   6   4   11.18    1.26
   5  -6  -5   54.00    2.82
   5   6   5   49.70    2.87
   5   6   5   45.24    2.20
   5  -6  -6    7.10    0.98
   5   6   6    7.26    1.17
   5  -7   4   43.39    2.21
  -5  -7  -3   19.78    1.50
   5  -7   3   23.31    1.75
  -5  -7  -2    7.06    1.07
   5  -7   2    9.63    1.16
  -5  -7  -1   21.07    1.78
   5  -7   1   21.36    1.88
   5  -7   1   21.58    1.78
  -5  -7   0    4.62    1.04
   5  -7   0    5.81    1.08
   5  -7   0    4.79    0.94
  -5  -7   1   19.42    1.82
   5  -7  -1   21.12    1.69
  -5  -7   2    6.38    1.19
   5  -7  -2    8.78    1.20
   5   7   2    8.02    1.21
  -5  -7   3   23.68    1.92
   5  -7  -3   23.13    1.85
   5   7   3   21.57    1.60
  -5  -7   4   40.31    2.25
   5  -7  -4   43.68    2.36
   5   7   4   40.90    1.96
  -5  -8  -1   34.69    1.85
  -5  -8   0   15.48    1.33
  -5  -8   1   38.43    2.01
   5   8   1   38.78    1.94
   6   0   0    0.03    0.46
   6   0   0    0.32    0.65
   6   0   0    1.08    1.23
   6   0   0    0.54    0.86
   6   0  -1   20.50    1.63
   6   0  -1   22.65    1.93
   6   0   1   19.94    1.74
   6   0  -1   21.94    1.87
   6   0   1   20.21    1.97
   6   0   1   22.67    3.07
   6   0   1   22.82    2.05
   6   0  -1   21.83    2.08
   6   0  -2    4.19    0.99
   6   0   2    5.92    1.43
   6   0  -2    4.25    1.05
   6   0   2    3.39    1.20
   6   0  -2    4.59    1.28
   6   0  -3  644.16    9.59
   6   0   3  637.88   11.69
   6   0   3  635.93   10.89
   6   0   3  668.56   10.27
   6   0  -3  637.41   10.96
   6   0  -4   61.96    3.14
   6   0   4   69.11    3.91
   6   0  -4   65.83    3.64
   6   0  -5  619.97    9.72
   6   0   5  636.45   11.10
   6   0  -5  598.88   10.48
   6   0  -6   26.10    1.99
   6   0   6   20.15    2.01
   6   0  -6   21.92    1.91
   6   0   7    2.09    0.77
   6   0  -7    2.41    0.81
   6   0   7    1.03    0.91
   6  -1   7   37.25    2.27
   6   1  -7   34.97    2.32
   6  -1   6    2.50    1.04
   6   1  -6    0.38    0.88
   6   1  -5   44.84    2.68
   6  -1   5   33.90    2.47
   6  -1   5   42.12    2.89
   6   1  -5   37.96    3.05
   6   1  -4   18.43    1.81
   6  -1   4   19.17    2.10
   6  -1   4   19.41    2.12
   6   1  -4   18.69    2.24
   6   1  -3   12.97    1.56
   6  -1   3    9.44    1.23
   6  -1   3   14.49    1.88
   6  -1   3   14.43    1.81
   6   1  -3   14.32    1.94
   6   1  -2   53.50    2.73
   6  -1   2   53.10    2.82
   6  -1   2   56.35    3.26
   6  -1   2   58.02    3.15
   6   1  -2   53.32    3.44
   6   1  -1    4.17    0.96
   6  -1   1    3.91    1.03
   6  -1   1    2.66    1.15
   6  -1   1    0.36    1.34
   6  -1   1    4.41    1.14
   6   1  -1    4.88    1.34
   6   1   0  315.56    6.07
   6  -1   0  304.98    6.79
   6  -1   0  329.05    7.17
   6   1   0  312.42    6.64
   6  -1   0  319.96    7.14
   6   1   0  332.99    7.60
   6  -1   0  311.64   10.67
   6  -1  -1    3.33    0.97
   6   1   1    4.17    1.30
   6  -1  -1    6.56    1.25
   6   1   1    5.56    1.15
   6  -1  -1    3.21    1.19
   6   1   1    4.18    1.19
   6  -1  -1    3.70    1.16
   6   1   1    3.68    0.88
   6  -1  -2   55.35    2.90
   6  -1  -2   58.57    3.11
   6   1   2   55.48    3.63
   6  -1  -2   58.66    2.91
   6   1   2   58.73    3.29
   6   1   2   56.26    3.09
   6  -1  -2   55.14    3.11
   6   1   2   56.62    2.84
   6  -1  -3   13.04    1.65
   6  -1  -3   13.59    1.69
   6   1   3   12.93    2.09
   6   1   3   13.02    1.61
   6  -1  -3   11.21    1.53
   6  -1  -4   18.96    1.90
   6   1   4   18.59    2.45
   6  -1  -4   13.82    1.61
   6  -1  -5   41.41    2.60
   6   1   5   43.79    3.39
   6  -1  -5   37.48    2.38
   6   1   6    2.88    1.00
   6  -1  -6    1.87    0.84
   6  -1  -7   35.56    2.15
   6   1   7   34.00    2.38
   6  -2   7    2.15    0.74
   6   2  -7    1.42    0.78
   6  -2   6    5.46    1.14
   6   2  -6    7.28    1.33
   6  -2   5   52.43    3.01
   6   2  -5   46.24    3.50
   6  -2   4   27.81    2.25
   6  -2   4   29.42    2.42
   6   2  -4   28.00    2.77
   6  -2   3    3.68    1.03
   6  -2   3    4.96    1.32
   6   2  -3    5.28    1.49
   6  -2   2  131.55    4.80
   6  -2   2  144.97    5.12
   6  -2   2  141.30    4.78
   6   2  -2  145.77    5.61
   6  -2   1   17.79    1.92
   6  -2   1   17.93    1.91
   6  -2   1   15.76    1.71
   6   2  -1   19.76    2.11
   6   2   0    8.20    1.17
   6  -2   0    7.44    1.39
   6   2   0    5.55    1.39
   6  -2   0    8.06    1.35
   6   2   0    8.51    1.44
   6  -2   0    6.34    1.09
   6  -2  -1   19.09    2.00
   6   2   1   19.63    2.27
   6  -2  -1   18.40    1.91
   6   2   1   17.69    1.71
   6  -2  -1   17.49    1.71
   6   2   1   16.90    1.86
   6   2   1   17.93    1.79
   6  -2  -2  137.54    4.58
   6  -2  -2  147.52    4.93
   6   2   2  143.72    5.79
   6   2   2  127.64    4.53
   6  -2  -2  129.19    4.38
   6   2   2  140.45    4.55
   6  -2  -3    3.99    1.12
   6   2   3    4.42    1.64
   6  -2  -3    2.89    0.90
   6   2   3    4.97    1.25
   6  -2  -3    5.08    0.89
   6   2   3    4.52    1.04
   6  -2  -4   33.18    2.44
   6  -2  -4   32.76    2.39
   6   2   4   30.74    3.07
   6  -2  -5   52.01    2.93
   6   2   5   55.32    3.89
   6  -2  -6    8.18    1.23
   6   2   6    8.20    1.69
   6   2   7    3.00    1.04
   6  -2  -7    1.82    0.72
   6   3  -7    3.73    0.87
  -6  -3  -6   12.40    1.32
   6  -3   6   13.23    1.29
   6   3  -6   12.78    1.79
   6  -3   5   36.13    2.32
   6   3  -5   31.57    2.85
   6  -3   4    9.89    1.41
   6  -3   4    8.05    1.42
   6   3  -4    7.31    1.44
   6  -3   3    6.59    1.41
   6  -3   3    8.88    1.40
   6   3  -3    7.54    1.54
   6  -3   2   10.32    1.67
   6  -3   2   10.73    1.50
   6   3  -2   12.34    1.90
   6  -3   1   39.73    2.89
   6  -3   1   44.32    2.83
   6   3  -1   46.30    3.04
   6   3  -1   38.15    2.49
   6   3   0    3.16    0.96
   6  -3   0    3.16    1.03
   6   3   0    6.02    1.14
   6  -3   0    3.64    1.08
   6  -3   0    3.70    0.83
   6   3   0    2.65    0.93
   6  -3  -1   43.49    2.87
   6   3   1   41.22    2.97
   6  -3  -1   46.60    2.82
   6  -3  -1   36.33    2.21
   6   3   1   41.34    2.61
   6   3   1   40.06    2.62
   6  -3  -2    9.78    1.49
   6   3   2   11.76    1.86
   6  -3  -2    9.24    1.32
   6   3   2    9.79    1.32
   6   3   2   10.56    1.39
   6  -3  -3    7.84    1.34
   6   3   3    6.62    1.55
   6  -3  -3    6.86    1.11
   6   3   3    6.60    1.17
   6   3   3    8.69    1.29
   6  -3  -4    9.81    1.43
   6  -3  -4    9.17    1.41
   6   3   4    7.48    1.97
   6   3   4    9.26    1.34
   6  -3  -5   37.72    2.48
   6   3   5   29.68    2.92
   6  -3  -6   14.05    1.49
   6   3   6   11.46    1.91
   6   3   7    3.67    1.21
   6  -3  -7    4.05    0.76
   6   4  -6   48.38    2.86
   6  -4   5    7.76    1.14
   6   4  -5    7.29    1.51
   6  -4   4  185.76    5.04
   6   4  -4  192.18    6.32
   6  -4   3    8.86    1.67
   6  -4   3   10.32    1.47
   6   4  -3   11.29    1.77
   6  -4   2   70.52    3.88
   6  -4   2   69.60    3.35
   6   4  -2   69.56    3.64
   6  -4   1   11.50    1.64
   6  -4   1   10.53    1.47
   6   4  -1    8.52    1.49
   6  -4   0   19.44    2.07
   6  -4   0   17.61    1.88
   6   4   0   16.67    1.76
   6   4   0   20.91    2.10
  -6  -4   1   11.22    1.44
   6  -4  -1   11.78    1.72
   6   4   1   12.75    1.66
   6   4   1    8.85    1.20
   6   4   1   10.92    1.46
   6  -4  -2   65.54    3.46
   6  -4  -2   76.19    3.58
   6   4   2   69.14    3.77
   6   4   2   71.89    3.47
   6  -4  -3   13.03    1.62
   6   4   3    7.62    1.61
   6  -4  -3    8.10    1.26
   6   4   3   12.00    1.51
   6  -4  -4  180.57    5.51
   6  -4  -4  186.14    4.98
   6   4   4  168.39    6.34
   6   4   4  177.89    4.93
   6  -4  -5    8.38    1.28
   6   4   5    5.46    1.60
   6  -4  -6   44.02    2.35
   6   4   6   47.22    2.99
   6  -5   5    6.88    1.09
   6   5  -5    5.50    1.09
   6  -5   4    7.23    1.23
   6  -5   4    7.08    1.04
   6  -5   3   -0.39    0.76
   6  -5   3   -0.33    0.77
   6   5  -3   -0.81    0.68
   6  -5   2   54.54    3.25
   6   5  -2   55.87    2.87
   6  -5   1   74.46    3.76
   6   5  -1   68.16    2.95
   6   5   0    8.34    1.37
  -6  -5   0   12.32    1.38
   6  -5   0   12.17    1.63
  -6  -5   1   68.78    3.11
   6  -5  -1   77.10    3.54
   6   5   1   74.50    3.56
   6  -5  -2   43.05    2.74
  -6  -5   2   49.08    2.72
   6  -5  -2   52.65    2.84
   6   5   2   52.54    2.82
   6   5   2   51.01    2.85
  -6  -5   3    0.53    0.86
   6  -5  -3    0.99    0.72
   6   5   3   -0.28    0.63
   6  -5  -3    0.32    0.78
   6   5   3   -0.02    0.69
  -6  -5   4    4.76    1.08
   6   5   4    6.11    1.42
   6  -5  -4    6.35    1.11
   6   5   4    4.92    0.99
   6  -5  -5    7.03    1.05
   6   5   5    6.74    1.16
   6  -6   4    7.87    1.16
   6  -6   3   95.29    3.68
   6  -6   2   -0.01    0.93
   6  -6   1   83.33    3.54
  -6  -6   0   48.13    2.31
   6  -6   0   53.69    2.79
   6   6   0   53.84    2.85
  -6  -6   1   75.74    3.02
   6  -6  -1   86.18    3.29
   6   6   1   82.38    3.41
   6   6   2    0.70    0.60
  -6  -6   2   -0.02    0.57
   6  -6  -2   -0.81    0.66
  -6  -6   3   77.62    2.98
   6  -6  -3   81.07    2.69
  -6  -6   4    7.53    0.98
   6   7   0   21.65    1.56
   6   7   1   17.20    1.36
   7   0   0    0.85    0.59
   7   0   0    0.95    0.57
   7   0   1   73.77    3.41
   7   0   1   70.22    3.39
   7   0  -1   71.02    3.49
   7   0   2    1.52    0.93
   7   0   2    3.87    1.09
   7   0  -2    3.82    1.12
   7   0   3   54.81    3.16
   7   0  -3   51.76    2.99
   7   0   4    1.15    0.75
   7   0  -4    0.22    0.54
   7   0   5   99.55    3.97
   7   0  -5   83.58    3.31
   7   0   6   34.03    2.18
   7  -1   6    3.83    0.90
   7  -1   5   36.63    2.32
   7   1  -5   31.73    2.31
   7  -1   4    6.24    1.21
   7   1  -4    6.21    1.22
   7  -1   3   46.79    2.85
   7   1  -3   41.25    2.92
   7  -1   2   37.94    2.57
   7  -1   2   42.14    2.67
   7   1  -2   42.47    2.93
   7  -1   1    2.50    0.71
   7  -1   1    3.22    1.03
   7  -1   1    4.43    1.06
   7   1  -1    3.33    1.01
   7  -1   0    2.31    0.83
   7  -1   0    3.41    0.98
   7  -1   0    3.43    1.03
   7   1   0    3.49    1.05
   7  -1  -1    3.51    0.97
   7  -1  -1    4.19    0.90
   7   1   1    3.59    0.90
   7   1   1    2.84    1.10
   7  -1  -1    2.70    0.90
   7  -1  -2   38.95    2.46
   7   1   2   38.50    2.60
   7   1   2   39.60    2.53
   7  -1  -2   34.06    2.34
   7  -1  -3   44.22    2.45
   7   1   3   43.19    2.79
   7  -1  -3   37.15    2.34
   7  -1  -4    7.10    1.07
   7   1   4    5.18    1.23
   7  -1  -4    6.85    1.08
   7  -1  -5   33.33    2.04
   7   1   5   34.11    2.49
   7   1   6    2.84    0.85
   7  -2   5    0.10    0.52
   7   2  -5    0.14    0.73
   7  -2   4   10.64    1.44
   7   2  -4    7.76    1.41
   7  -2   3   14.08    1.62
   7   2  -3   11.74    1.67
   7  -2   2   14.65    1.49
   7  -2   2   14.19    1.72
   7   2  -2   13.08    1.78
   7  -2   1    4.88    1.03
   7  -2   1    4.54    1.07
   7  -2   1    4.80    1.04
   7   2  -1    5.34    1.35
   7  -2   0  238.99    6.03
   7  -2   0  252.02    6.09
   7  -2   0  242.84    5.80
   7   2   0  250.49    6.40
   7  -2  -1    4.87    1.04
   7  -2  -1    5.24    1.00
   7   2   1    2.49    1.01
   7  -2  -2   15.89    1.66
   7   2   2   14.54    1.56
   7  -2  -2   13.64    1.41
   7  -2  -3   12.09    1.51
   7   2   3   14.05    1.88
   7   2   3    9.12    1.35
   7  -2  -4    8.26    1.11
   7   2   4    9.37    1.66
   7   2   4    8.51    1.30
   7   2   5    1.82    1.01
   7  -2  -5    0.58    0.48
   7   2   5    2.18    0.88
   7  -3   5    2.42    0.77
   7   3  -5    2.89    0.84
   7  -3   4   13.05    1.36
   7   3  -4   10.83    1.60
   7  -3   3   36.36    2.37
   7  -3   3   41.48    2.42
   7   3  -3   37.43    2.72
   7  -3   2   14.10    1.56
   7  -3   2   16.50    1.67
   7   3  -2   16.02    1.79
   7  -3   1   -1.79    0.89
   7  -3   1    0.34    0.61
   7   3  -1    0.19    0.80
   7  -3   0    3.37    0.87
   7   3   0    1.86    0.85
   7  -3  -1   -0.74    0.73
   7   3   1   -0.81    0.73
   7   3   1   -0.40    0.28
   7  -3  -2   13.77    1.58
   7   3   2   14.88    1.44
   7  -3  -3   44.97    2.49
   7   3   3   39.17    2.96
   7  -3  -4   10.24    1.13
   7   3   4    8.96    1.41
   7   3   5    2.50    0.89
   7  -4   4    0.32    0.62
   7   4  -4    0.72    0.68
   7  -4   3    1.30    0.60
   7  -4   3    1.62    0.67
   7   4  -3    0.84    0.64
   7  -4   2   19.16    1.84
   7   4  -2   25.25    1.92
   7  -4   1    5.57    0.94
   7   4  -1    2.75    0.80
   7   4   0   56.71    2.54
   7   4   0   52.42    2.68
   7  -4  -1    6.32    1.04
   7   4   1    5.57    0.95
   7  -4  -2   21.50    1.77
   7   4   2   25.20    1.80
   7  -4  -3    1.13    0.75
   7   4   4    3.49    0.89
   7  -5   2   11.49    1.25
   7  -5   1    8.89    1.20
   7   5   0    1.79    0.64
   7  -5   0    0.03    0.65
   7  -5  -1    7.86    1.09
   7   5   1    9.59    1.10
   7  -5  -2   11.11    1.23
   7   5   2   11.44    1.16
   8   0   0   16.37    1.56
   8   0  -1   14.89    1.52
   8   0  -2   17.85    1.58
   8  -1   2    4.20    0.84
   8   1  -2    6.26    1.14
   8   1  -1   12.14    1.41
   8   1   0   28.44    1.99
   8   1   1    9.67    1.29
   8  -1  -1    9.57    1.21
   8   2  -1    2.65    0.79
   8   2   0    1.88    0.73
   8   2   1    4.44    0.86
   0   0   0    0.00    0.00


TITL 1a in P2(1)2(1)2(1)
REM P2(1)2(1)2(1) (#19 in standard setting)
CELL 1.54184   7.047596   8.768226  10.036308  90.0000  90.0000  90.0000
ZERR    4.00   0.000185   0.000199   0.000219   0.0000   0.0000   0.0000
LATT -1
SYMM -x+1/2,-y, z+1/2
SYMM -x, y+1/2,-z+1/2
SYMM  x+1/2,-y+1/2,-z
SFAC C H N Cl
UNIT 16.00 8.00 20.00 4.00
TREF
HKLF 4
END
_computing_structure_solution     'SHELXT 2018/2 (Sheldrick, 2018)'
;
_shelx_hkl_checksum              14392
_olex2_submission_special_instructions 'No special instructions were received'
_oxdiff_exptl_absorpt_empirical_details
;
Empirical correction (ABSPACK) includes:
- Absorption correction using spherical harmonics
- Frame scaling
;
_oxdiff_exptl_absorpt_empirical_full_max 1.685
_oxdiff_exptl_absorpt_empirical_full_min 0.799
loop_
_space_group_symop_operation_xyz
'x, y, z'
'-x+1/2, -y, z+1/2'
'-x, y+1/2, -z+1/2'
'x+1/2, -y+1/2, -z'
loop_
_atom_site_label
_atom_site_type_symbol
_atom_site_fract_x
_atom_site_fract_y
_atom_site_fract_z
_atom_site_U_iso_or_equiv
_atom_site_adp_type
_atom_site_occupancy
_atom_site_site_symmetry_order
_atom_site_calc_flag
_atom_site_refinement_flags_posn
_atom_site_refinement_flags_adp
_atom_site_refinement_flags_occupancy
_atom_site_disorder_assembly
_atom_site_disorder_group
Cl1 Cl 0.29001(14) 0.33334(10) 0.31975(10) 0.0570(3) Uani 1 1 d . . . . .
N4 N 0.3581(4) 0.7481(3) 0.4117(3) 0.0373(6) Uani 1 1 d . . . . .
N5 N 0.3680(4) 0.5944(3) 0.4182(3) 0.0406(7) Uani 1 1 d . . . . .
N3 N 0.4316(4) 0.8387(4) 0.5061(3) 0.0521(8) Uani 1 1 d . . . . .
N2 N 0.3940(6) 0.9774(4) 0.4659(3) 0.0592(9) Uani 1 1 d . . . . .
N1 N 0.2988(5) 0.9809(3) 0.3491(3) 0.0515(8) Uani 1 1 d . . . . .
C9 C 0.2768(5) 0.8345(4) 0.3150(3) 0.0373(7) Uani 1 1 d . . . . .
C7 C 0.1997(6) 0.6048(4) 0.2078(3) 0.0443(8) Uani 1 1 d . . . . .
H7 H 0.145998 0.548842 0.138690 0.053 Uiso 1 1 calc R U . . .
C6 C 0.2870(5) 0.5296(4) 0.3166(3) 0.0390(7) Uani 1 1 d . . . . .
C8 C 0.1955(6) 0.7583(4) 0.2057(3) 0.0446(8) Uani 1 1 d . . . . .
H8 H 0.141301 0.811515 0.135118 0.054 Uiso 1 1 calc R U . . .
loop_
_atom_site_aniso_label
_atom_site_aniso_U_11
_atom_site_aniso_U_22
_atom_site_aniso_U_33
_atom_site_aniso_U_23
_atom_site_aniso_U_13
_atom_site_aniso_U_12
Cl1 0.0656(6) 0.0315(4) 0.0738(6) -0.0030(4) 0.0167(5) -0.0017(5)
N4 0.0463(15) 0.0344(14) 0.0311(13) -0.0014(11) -0.0008(13) -0.0022(12)
N5 0.0496(16) 0.0349(14) 0.0373(14) 0.0050(12) 0.0033(14) 0.0009(13)
N3 0.0669(19) 0.0491(18) 0.0402(15) -0.0082(17) -0.0072(15) -0.0101(18)
N2 0.076(2) 0.0442(18) 0.0577(19) -0.0152(15) 0.0037(18) -0.0104(17)
N1 0.064(2) 0.0359(14) 0.0547(17) -0.0038(13) 0.0052(17) -0.0012(15)
C9 0.0457(17) 0.0328(16) 0.0334(15) 0.0039(13) 0.0050(14) 0.0019(16)
C7 0.052(2) 0.0486(19) 0.0317(16) -0.0079(14) 0.0006(18) -0.0045(17)
C6 0.0455(18) 0.0318(16) 0.0396(17) -0.0022(13) 0.0089(17) -0.0005(15)
C8 0.052(2) 0.0493(19) 0.0321(16) 0.0063(14) -0.0002(17) 0.0026(17)
loop_
_atom_type_symbol
_atom_type_description
_atom_type_scat_dispersion_real
_atom_type_scat_dispersion_imag
_atom_type_scat_source
C C 0.0181 0.0091 'International Tables Vol C Tables 4.2.6.8 and 6.1.1.4'
H H 0.0000 0.0000 'International Tables Vol C Tables 4.2.6.8 and 6.1.1.4'
Cl Cl 0.3639 0.7018 'International Tables Vol C Tables 4.2.6.8 and 6.1.1.4'
N N 0.0311 0.0180 'International Tables Vol C Tables 4.2.6.8 and 6.1.1.4'
loop_
_geom_angle_atom_site_label_1
_geom_angle_atom_site_label_2
_geom_angle_atom_site_label_3
_geom_angle
_geom_angle_site_symmetry_1
_geom_angle_site_symmetry_3
_geom_angle_publ_flag
N5 N4 C9 127.8(3) . . ?
N3 N4 N5 122.5(3) . . ?
N3 N4 C9 109.7(3) . . ?
C6 N5 N4 112.1(3) . . ?
N2 N3 N4 104.7(3) . . ?
N3 N2 N1 112.9(3) . . ?
C9 N1 N2 104.9(3) . . ?
N4 C9 C8 117.7(3) . . ?
N1 C9 N4 107.7(3) . . ?
N1 C9 C8 134.6(3) . . ?
C6 C7 H7 120.4 . . ?
C8 C7 H7 120.4 . . ?
C8 C7 C6 119.2(3) . . ?
N5 C6 Cl1 114.7(3) . . ?
N5 C6 C7 126.3(3) . . ?
C7 C6 Cl1 119.0(3) . . ?
C9 C8 H8 121.5 . . ?
C7 C8 C9 117.0(3) . . ?
C7 C8 H8 121.5 . . ?
loop_
_geom_bond_atom_site_label_1
_geom_bond_atom_site_label_2
_geom_bond_distance
_geom_bond_site_symmetry_2
_geom_bond_publ_flag
Cl1 C6 1.721(3) . ?
N4 N5 1.351(4) . ?
N4 N3 1.341(4) . ?
N4 C9 1.358(4) . ?
N5 C6 1.299(4) . ?
N3 N2 1.309(4) . ?
N2 N1 1.351(5) . ?
N1 C9 1.338(4) . ?
C9 C8 1.407(5) . ?
C7 H7 0.9300 . ?
C7 C6 1.416(5) . ?
C7 C8 1.347(5) . ?
C8 H8 0.9300 . ?
loop_
_geom_torsion_atom_site_label_1
_geom_torsion_atom_site_label_2
_geom_torsion_atom_site_label_3
_geom_torsion_atom_site_label_4
_geom_torsion
_geom_torsion_site_symmetry_1
_geom_torsion_site_symmetry_2
_geom_torsion_site_symmetry_3
_geom_torsion_site_symmetry_4
_geom_torsion_publ_flag
N4 N5 C6 Cl1 -178.8(2) . . . . ?
N4 N5 C6 C7 1.2(5) . . . . ?
N4 N3 N2 N1 0.0(4) . . . . ?
N4 C9 C8 C7 2.0(6) . . . . ?
N5 N4 N3 N2 -179.7(3) . . . . ?
N5 N4 C9 N1 179.6(3) . . . . ?
N5 N4 C9 C8 -1.5(6) . . . . ?
N3 N4 N5 C6 179.7(3) . . . . ?
N3 N4 C9 N1 -0.2(4) . . . . ?
N3 N4 C9 C8 178.7(3) . . . . ?
N3 N2 N1 C9 -0.1(4) . . . . ?
N2 N1 C9 N4 0.2(4) . . . . ?
N2 N1 C9 C8 -178.4(4) . . . . ?
N1 C9 C8 C7 -179.5(4) . . . . ?
C9 N4 N5 C6 -0.1(5) . . . . ?
C9 N4 N3 N2 0.1(4) . . . . ?
C6 C7 C8 C9 -1.1(6) . . . . ?
C8 C7 C6 Cl1 179.4(3) . . . . ?
C8 C7 C6 N5 -0.6(6) . . . . ?
