#------------------------------------------------------------------------------
#$Date: 2021-12-02 10:28:13 +0200 (Thu, 02 Dec 2021) $
#$Revision: 270975 $
#$URL: file:///home/coder/svn-repositories/cod/cif/1/56/54/1565471.cif $
#------------------------------------------------------------------------------
#
# This file is available in the Crystallography Open Database (COD),
# http://www.crystallography.net/
#
# All data on this site have been placed in the public domain by the
# contributors.
#
data_1565471
loop_
_publ_author_name
'Manzano, Carlos M.'
'Nakahata, Douglas H.'
'Tenorio, Juan C.'
'Lustri, Wilton R.'
'Resende Nogueira, Fl\'avia A.'
'Aleixo, Nadia A.'
'da Silva Gomes, Pietra S.'
'Pavan, Fernando R.'
'Grecco, Julia A.'
'Ribeiro, Camila M.'
'Corbi, Pedro P.'
_publ_section_title
;
 Silver complexes with fluoroanthranilic acid isomers: Spectroscopic
 characterization, antimycobacterial activity and cytotoxic studies over a
 panel of tumor cells
;
_journal_name_full               'Inorganica Chimica Acta'
_journal_page_first              119293
_journal_paper_doi               10.1016/j.ica.2019.119293
_journal_volume                  502
_journal_year                    2020
_chemical_formula_moiety         'C7 H5 Ag F N O2'
_chemical_formula_sum            'C7 H5 Ag F N O2'
_chemical_formula_weight         261.99
_chemical_name_common            5FA-Ag
_space_group_crystal_system      orthorhombic
_space_group_IT_number           29
_space_group_name_Hall           'P 2c -2ac'
_space_group_name_H-M_alt        'P c a 21'
_atom_sites_solution_hydrogens   geom
_atom_sites_solution_primary     dual
_cell_angle_alpha                90
_cell_angle_beta                 90
_cell_angle_gamma                90
_cell_formula_units_Z            4
_cell_length_a                   24.842(5)
_cell_length_b                   4.9310(9)
_cell_length_c                   5.9195(12)
_cell_measurement_reflns_used    23914
_cell_measurement_temperature    150
_cell_measurement_theta_max      30.529
_cell_measurement_theta_min      1.639
_cell_volume                     725.1(2)
_computing_molecular_graphics    'Olex2 (Dolomanov et al., 2009)'
_computing_publication_material  'Olex2 (Dolomanov et al., 2009)'
_computing_structure_refinement  'ShelXL (Sheldrick, 2015)'
_computing_structure_solution    'ShelXT (Sheldrick, 2015)'
_diffrn_ambient_temperature      150.15
_diffrn_detector                 'Bruker APEX2 area detector'
_diffrn_detector_area_resol_mean 7.9
_diffrn_detector_type            'CCD area detector'
_diffrn_measured_fraction_theta_full 0.999
_diffrn_measured_fraction_theta_max 0.998
_diffrn_measurement_device       'three-circle diffractometer'
_diffrn_measurement_device_type  'Bruker SMART APEX2 area detector'
_diffrn_measurement_method       '\w and \f scans'
_diffrn_radiation_monochromator  'mirror optics'
_diffrn_radiation_probe          x-ray
_diffrn_radiation_type           MoK\a
_diffrn_radiation_wavelength     0.71073
_diffrn_reflns_av_R_equivalents  0.0338
_diffrn_reflns_av_unetI/netI     0.0166
_diffrn_reflns_Laue_measured_fraction_full 0.999
_diffrn_reflns_Laue_measured_fraction_max 0.998
_diffrn_reflns_limit_h_max       35
_diffrn_reflns_limit_h_min       -35
_diffrn_reflns_limit_k_max       7
_diffrn_reflns_limit_k_min       -6
_diffrn_reflns_limit_l_max       8
_diffrn_reflns_limit_l_min       -8
_diffrn_reflns_number            23914
_diffrn_reflns_point_group_measured_fraction_full 0.999
_diffrn_reflns_point_group_measured_fraction_max 0.998
_diffrn_reflns_theta_full        25.242
_diffrn_reflns_theta_max         30.529
_diffrn_reflns_theta_min         1.639
_diffrn_source                   'microfocus sealed X-ray tube'
_diffrn_source_type              'Incoatec I\ms'
_exptl_absorpt_coefficient_mu    2.747
_exptl_absorpt_correction_T_max  0.7461
_exptl_absorpt_correction_T_min  0.6652
_exptl_absorpt_correction_type   multi-scan
_exptl_crystal_density_diffrn    2.400
_exptl_crystal_description       needle
_exptl_crystal_F_000             504
_exptl_crystal_size_max          0.276
_exptl_crystal_size_mid          0.12
_exptl_crystal_size_min          0.087
_refine_diff_density_max         2.211
_refine_diff_density_min         -1.313
_refine_diff_density_rms         0.162
_refine_ls_abs_structure_details
;
 Refined as an inversion twin.
;
_refine_ls_abs_structure_Flack   0.04(8)
_refine_ls_extinction_coef       .
_refine_ls_extinction_method     none
_refine_ls_goodness_of_fit_ref   1.232
_refine_ls_hydrogen_treatment    constr
_refine_ls_matrix_type           full
_refine_ls_number_parameters     110
_refine_ls_number_reflns         2198
_refine_ls_number_restraints     13
_refine_ls_restrained_S_all      1.229
_refine_ls_R_factor_all          0.0368
_refine_ls_R_factor_gt           0.0334
_refine_ls_shift/su_max          0.000
_refine_ls_shift/su_mean         0.000
_refine_ls_structure_factor_coef Fsqd
_refine_ls_weighting_details
'w=1/[\s^2^(Fo^2^)+4.5602P] where P=(Fo^2^+2Fc^2^)/3'
_refine_ls_weighting_scheme      calc
_refine_ls_wR_factor_gt          0.0671
_refine_ls_wR_factor_ref         0.0682
_reflns_Friedel_coverage         0.833
_reflns_Friedel_fraction_full    1.000
_reflns_Friedel_fraction_max     0.998
_reflns_number_gt                2042
_reflns_number_total             2198
_reflns_threshold_expression     'I > 2\s(I)'
_cod_data_source_file            ICA-2020-502-119293.cif
_cod_data_source_block           5faAg
_cod_database_code               1565471
_shelx_space_group_comment
;
The symmetry employed for this shelxl refinement is uniquely defined
by the following loop, which should always be used as a source of
symmetry information in preference to the above space-group names.
They are only intended as comments.
;
_shelx_estimated_absorpt_t_max   0.796
_shelx_estimated_absorpt_t_min   0.518
_olex2_refinement_description
;
1. Twinned data refinement
 Scales: 0.96(8)
 0.04(8)
2. Fixed Uiso
 At 1.2 times of:
  All C(H) groups, All N(H,H) groups
3. Uiso/Uaniso restraints and constraints
Uanis(C1) \\sim Ueq: with sigma of 0.0001 and sigma for terminal atoms of 0.0002
Uanis(C7) \\sim Ueq: with sigma of 0.001 and sigma for terminal atoms of 0.002
4.a Secondary CH2 refined with riding coordinates:
 N1(H1A,H1B)
4.b Aromatic/amide H refined with riding coordinates:
 C6(H6), C4(H4), C3(H3)
;
_shelx_res_file
;
TITL shelx_a.res in Pca2(1)
    shelx.res
    created by SHELXL-2018/3 at 17:36:09 on 16-Sep-2019
REM Old TITL shelx in Pca21 #29
REM SHELXT solution in Pca2(1): R1 0.085, Rweak 0.004, Alpha 0.029
REM <I/s> 2.016 for 118 systematic absences, Orientation a'=c, b'=a, c'=b
REM Flack x = 0.112 ( 0.018 ) from 623 Parsons' quotients
REM Formula found by SHELXT: C8 Ag F2 N3 O
CELL 0.71073 24.842 4.931 5.9195 90 90 90
ZERR 4 0.0049 0.0009 0.0012 0 0 0
LATT -1
SYMM -X,-Y,0.5+Z
SYMM 0.5+X,-Y,+Z
SYMM 0.5-X,+Y,0.5+Z
SFAC C H Ag F N O
UNIT 28 20 4 4 4 8
EQIV $1 0.5-X,+Y,-0.5+Z
EQIV $2 0.5-X,+Y,0.5+Z
ISOR 0.0001 0.0002 C1
ISOR 0.001 0.002 C7

L.S. 40
PLAN  10
SIZE 0.087 0.12 0.276
TEMP -123
BIND O2 Ag1_$2
BIND Ag1 Ag1_$1
BOND
CONF
list 4
fmap 2 53
acta
TWIN -1 0 0 0 -1 0 0 0 -1 2

WGHT    0.000000    4.560200
BASF   0.03973
FVAR       0.48017
AG1   3    0.232973   -0.236128    0.539180    11.00000    0.02232    0.01259 =
         0.01511    0.00155    0.00426   -0.00376
O1    6    0.287839    0.080598    0.463208    11.00000    0.01794    0.01996 =
         0.01375    0.00464   -0.00296   -0.00723
N1    5    0.316579    0.428457    0.142421    11.00000    0.02207    0.01468 =
         0.00415   -0.00100   -0.00150    0.00109
AFIX  23
H1A   2    0.295094    0.301143    0.207655    11.00000   -1.20000
H1B   2    0.331379    0.352542    0.016818    11.00000   -1.20000
AFIX   0
C2    1    0.359183    0.493477    0.297236    11.00000    0.01233    0.01347 =
         0.01024   -0.00015    0.00047    0.00039
O2    6    0.335578    0.043294    0.779301    11.00000    0.02009    0.01845 =
         0.01125    0.00342    0.00222   -0.00211
C7    1    0.327568    0.144461    0.590180    11.00000    0.01393    0.01330 =
         0.01158   -0.00049    0.00023    0.00001
C1    1    0.364562    0.362852    0.503983    11.00000    0.01123    0.01122 =
         0.01119    0.00000    0.00000    0.00000
C5    1    0.441870    0.638392    0.580781    11.00000    0.01552    0.02572 =
         0.00761   -0.00088   -0.00428   -0.00441
C6    1    0.407449    0.437417    0.645606    11.00000    0.01686    0.01961 =
         0.01313    0.00140   -0.00120    0.00038
AFIX  43
H6    2    0.412470    0.348072    0.786222    11.00000   -1.20000
AFIX   0
C4    1    0.437479    0.770472    0.374238    11.00000    0.02089    0.01756 =
         0.02884    0.00289    0.00108   -0.00413
AFIX  43
H4    2    0.462109    0.908541    0.331301    11.00000   -1.20000
AFIX   0
F1    4    0.482668    0.710752    0.718934    11.00000    0.03133    0.03602 =
         0.04706    0.00421   -0.02042   -0.01420
C3    1    0.395576    0.692240    0.233133    11.00000    0.02133    0.01349 =
         0.01870    0.00379    0.00236   -0.00064
AFIX  43
H3    2    0.391782    0.776687    0.089766    11.00000   -1.20000
AFIX   0
HKLF 4




REM  shelx_a.res in Pca2(1)
REM wR2 = 0.0682, GooF = S = 1.232, Restrained GooF = 1.229 for all data
REM R1 = 0.0334 for 2042 Fo > 4sig(Fo) and 0.0368 for all 2198 data
REM 110 parameters refined using 13 restraints

END

WGHT      0.0000      4.5602

REM Highest difference peak  2.211,  deepest hole -1.313,  1-sigma level  0.162
Q1    1   0.1979 -0.2117  0.5410  11.00000  0.05    2.21
Q2    1   0.2660 -0.1964  0.5432  11.00000  0.05    1.77
Q3    1   0.2383 -0.3215  0.6239  11.00000  0.05    1.01
Q4    1   0.2999 -0.1403  0.5505  11.00000  0.05    1.00
Q5    1   0.2382 -0.3239  0.4585  11.00000  0.05    0.80
Q6    1   0.2206 -0.4239  0.6037  11.00000  0.05    0.54
Q7    1   0.3433  0.3911  0.5071  11.00000  0.05    0.52
Q8    1   0.3015 -0.3162  0.4593  11.00000  0.05    0.51
Q9    1   0.2604 -0.4222  0.5220  11.00000  0.05    0.49
Q10   1   0.3176  0.6140 -0.2636  11.00000  0.05    0.48
;
_shelx_hkl_file
;
   0  -1   0  103.61    4.04
   0  -1   0  109.57    3.88
   0  -1   0  115.80    4.12
   0   1   0  115.77    6.32
   0   1   0  126.05    5.64
   0   1   0  119.87    4.30
   0   1   0  101.29    3.90
   0  -1   0  108.81    4.12
   0   2   0 4295.00   86.19
   0   2   0 4318.39   84.48
   0  -2   0 4155.69   80.92
   0  -2   0 4081.13   80.65
   0  -2   0 4216.27   80.97
   0  -2   0 4007.26   80.76
   0  -2   0 4234.86   81.20
   0  -2   0 4096.66   80.83
   0   2   0 4338.95   81.42
   0   4   0 1670.17   43.56
   0   4   0 1633.55   36.71
   0  -4   0 1643.90   37.24
   0  -4   0 1688.86   36.55
   0   4   0 1630.73   45.75
   0  -4   0 1630.48   37.11
   0   5   0  149.86   15.12
   0  -5   0  147.43   10.30
   0  -5   0  135.51    9.11
   0  -5   0  145.30   10.14
   0   6   0  658.55   29.68
   0  -6   0  645.55   22.64
   0   7   0  170.04   20.97
   0   0   1   -2.83    2.73
   0   0   1   -6.18    2.76
   0   0  -1   -3.75    2.58
   0   0   1   -7.48    2.18
   0   0  -1   -3.41    2.69
   0   0   1   -2.92    2.67
   0   0  -1   -7.21    2.71
   0  -1   1   -6.56    1.92
   0   1  -1   -7.72    3.61
   0  -1   1   -6.54    2.03
   0   1  -1    0.19    2.76
   0   1   1   -8.45    3.21
   0  -1  -1   -0.19    3.86
   0   1  -1   -1.08    3.05
   0   1   1    1.39    3.55
   0  -1   1   -5.74    2.03
   0  -1   1   -3.74    2.22
   0  -1  -1   -8.18    3.68
   0   1   1    5.99    3.65
   0  -1  -1   -2.01    3.33
   0   1   1    0.98    3.22
   0  -1   1   -2.87    2.09
   0  -2  -1   -0.51    3.92
   0   2  -1    1.25    3.59
   0   2   1   -1.18    3.31
   0   2   1   -2.77    4.02
   0   2   1   -3.56    2.97
   0   2   1   -3.88    3.29
   0  -2  -1    2.40    3.41
   0  -2  -1   -1.00    3.85
   0   2   1    5.45    3.56
   0   2  -1   -0.74    2.65
   0   2  -1    0.45    4.42
   0   3  -1    0.53    5.58
   0   3   1    5.67    3.96
   0  -3  -1   -6.14    4.45
   0  -3  -1   -3.41    4.13
   0   3   1    0.64    3.12
   0   3   1   -0.37    3.62
   0   3  -1   -3.19    4.24
   0   3   1   -0.79    4.30
   0   3  -1    2.01    3.19
   0   3   1    3.07    3.87
   0   3   1   -1.56    3.16
   0   3   1   -2.52    2.74
   0  -4  -1    4.49    5.51
   0   4   1   -4.53    4.63
   0  -4  -1    1.38    5.28
   0  -4  -1   -1.86    4.78
   0   4  -1   -7.65    5.01
   0   4  -1    5.38    3.83
   0   4  -1   -3.02    6.16
   0   4   1   -4.87    4.47
   0  -4   1   15.11    3.55
   0   4   1    1.32    5.68
   0   4   1   -4.03    3.61
   0   5   1    8.98    6.15
   0  -5  -1   -2.13    6.15
   0  -5  -1    6.84    6.24
   0  -5  -1    2.50    5.59
   0   5  -1   -5.46    8.02
   0  -5   1    7.36    4.26
   0   5  -1   -3.82    6.44
   0   5   1   -9.31    6.47
   0   6   1  -12.99    6.05
   0   6   1   -2.35    8.45
   0   6  -1   -2.00    8.66
   0  -6  -1   -0.06    6.98
   0  -6  -1    6.83    6.67
   0  -6  -1   -2.45    7.94
   0   6  -1   -0.55   10.60
   0   0   2 5212.97  100.54
   0   0   2 5090.54  100.10
   0   0  -2 4923.73   99.79
   0   0   2 5148.96   99.30
   0   0  -2 5048.90  100.24
   0   0   2 5226.74  100.56
   0   0  -2 4940.82  100.31
   0   1  -2  575.65   14.29
   0  -1   2  575.84   15.07
   0  -1   2  546.84   13.74
   0  -1  -2  548.95   17.50
   0   1   2  542.79   16.91
   0   1  -2  596.61   17.84
   0  -1  -2  563.75   17.53
   0   1  -2  596.39   14.93
   0  -1   2  561.14   14.94
   0  -1   2  547.59   14.79
   0   1   2  505.65   16.50
   0   1   2  531.90   16.80
   0   1   2  528.44   16.10
   0   1  -2  577.88   14.37
   0   1  -2  580.04   13.98
   0  -1  -2  576.98   16.80
   0   2   2 3467.28   74.27
   0   2  -2 3795.48   73.39
   0   2  -2 3723.46   75.33
   0   2   2 3603.84   74.60
   0   2   2 3583.66   73.85
   0   2   2 3574.35   74.35
   0  -2   2 3534.47   70.40
   0  -2   2 3586.64   70.21
   0  -2   2 3680.90   70.41
   0  -2   2 3641.01   70.18
   0  -2   2 3658.73   70.29
   0  -2  -2 3551.39   75.54
   0   2  -2 3523.15   77.51
   0  -2  -2 3513.45   74.00
   0  -2  -2 3430.97   75.35
   0   3   2  375.78   14.38
   0  -3  -2  395.92   13.98
   0  -3  -2  340.65   15.58
   0   3  -2  287.80   12.37
   0   3   2  357.85   13.28
   0   3   2  359.46   13.92
   0   3   2  352.81   14.17
   0   3  -2  297.10   16.85
   0  -3   2  286.25    9.15
   0  -3  -2  309.20   15.19
   0   3  -2  332.71   15.27
   0   4   2  488.96   18.02
   0   4   2  526.39   19.38
   0   4  -2  549.13   17.24
   0   4   2  503.93   21.58
   0   4  -2  499.38   23.74
   0   4  -2  532.89   21.76
   0  -4  -2  487.96   19.99
   0   4   2  460.98   17.00
   0  -4  -2  507.36   20.36
   0  -4  -2  506.97   19.11
   0  -5  -2  382.28   19.48
   0  -5  -2  387.88   18.21
   0   5   2  372.43   21.52
   0  -5  -2  380.89   19.49
   0   5   2  411.54   18.28
   0   5  -2  353.36   23.25
   0   5  -2  358.92   20.23
   0   6  -2  579.26   28.56
   0   6   2  560.18   23.26
   0  -6  -2  556.56   25.83
   0   6  -2  576.59   31.99
   0   6   2  625.21   29.46
   0  -6  -2  570.82   26.08
   0  -6  -2  593.66   23.83
   0   0  -3   -6.88    4.17
   0   0   3   -4.81    4.33
   0   0   3   -1.16    3.98
   0   0  -3    0.24    4.50
   0   0  -3    0.27    4.30
   0   0   3    0.76    4.66
   0   0   3    1.55    4.87
   0   1   3   -0.35    5.14
   0  -1   3   -4.24    4.38
   0  -1  -3    2.46    5.08
   0  -1   3   -0.73    4.14
   0   1  -3    3.05    5.12
   0   1   3    3.46    4.43
   0  -1   3   -3.92    4.44
   0   1   3   -4.35    5.19
   0   1  -3   -3.07    3.55
   0   1  -3   -2.72    3.56
   0   1   3    3.96    5.86
   0  -1   3    0.00    3.22
   0  -1  -3   -7.23    5.03
   0   1  -3    3.12    4.34
   0  -1  -3    2.52    5.64
   0  -2  -3   14.59    6.60
   0   2   3    3.43    4.84
   0   2   3    2.39    5.12
   0   2  -3   -0.24    3.17
   0   2   3    1.21    5.38
   0  -2   3   -3.05    3.60
   0   2  -3   -5.09    5.12
   0  -2   3   -2.20    3.51
   0  -2   3    2.91    3.98
   0  -2  -3    0.38    5.02
   0   2   3    3.09    5.32
   0   2  -3   -4.28    3.88
   0  -2  -3   -1.42    5.54
   0   3  -3   11.01    6.96
   0   3  -3    7.14    5.08
   0   3   3    9.01    6.16
   0  -3   3    6.75    3.93
   0   3   3    8.82    6.22
   0  -3   3    6.29    3.64
   0  -3  -3   19.68    7.77
   0   3  -3    0.23    5.22
   0  -3  -3    8.48    7.11
   0   3   3   20.45    6.93
   0  -3  -3    3.47    5.26
   0   3   3   14.02    6.50
   0  -4   3    0.90    3.73
   0   4   3    1.70    6.21
   0   4   3    0.15    6.09
   0  -4   3    5.84    4.01
   0  -4  -3   -2.64    7.25
   0   4  -3    8.17    8.22
   0  -4  -3    7.97    7.14
   0   4  -3    6.33    5.46
   0   4   3    5.90    7.27
   0   4  -3  -10.23    5.35
   0   4   3    8.24    7.22
   0  -4  -3   -5.71    6.91
   0   5   3    1.18    7.45
   0   5  -3    8.39    9.55
   0   5   3    5.21    7.98
   0  -5  -3    5.28    7.68
   0  -5  -3   -9.17    8.07
   0   5  -3   13.42    7.72
   0  -5  -3    2.99    8.30
   0   5   3   -4.43    7.61
   0  -6  -3   11.01   10.70
   0   6   3    8.25    9.34
   0  -6  -3   13.30   10.49
   0   6  -3    8.64   11.53
   0   6  -3    3.18    8.98
   0   6   3   18.25   11.04
   0  -6  -3  -12.44    8.01
   0   0   4 3039.57   66.43
   0   0  -4 3058.99   68.46
   0   0   4 3138.22   68.79
   0   0   4 3111.90   69.17
   0   0  -4 3134.32   68.39
   0   0   4 3096.73   69.16
   0   0  -4 3137.18   68.51
   0   1  -4  160.84   11.06
   0   1   4  149.93   12.58
   0   1  -4  166.46   12.95
   0  -1  -4  133.68   13.33
   0   1  -4  119.82    9.47
   0   1  -4  137.64   10.05
   0  -1   4  111.40   10.74
   0  -1   4  137.92   11.04
   0  -1   4  159.56    9.20
   0   1   4  172.84   11.51
   0   1   4  148.39   12.52
   0  -1  -4  133.79   13.34
   0  -1  -4  202.37   12.73
   0  -1   4  138.62   11.50
   0   1   4  153.22   12.60
   0   2   4 1627.40   42.63
   0  -2  -4 1648.58   45.11
   0   2   4 1569.35   43.41
   0  -2   4 1735.88   40.32
   0   2   4 1730.61   44.46
   0   2  -4 1795.62   40.53
   0   2  -4 1689.51   36.97
   0  -2   4 1752.08   40.97
   0  -2  -4 1670.91   45.50
   0   2  -4 1735.19   46.97
   0   2   4 1639.49   44.15
   0  -2  -4 1643.65   43.68
   0  -2   4 1754.42   41.04
   0   3   4  312.12   17.52
   0   3   4  249.55   15.49
   0  -3   4  200.88   11.39
   0  -3  -4  275.85   17.65
   0  -3  -4  244.45   15.34
   0  -3   4  208.57   11.96
   0   3   4  265.22   16.35
   0  -3   4  200.51   11.19
   0  -3  -4  292.53   18.17
   0   3  -4  184.81   11.04
   0   3   4  258.56   15.39
   0   3  -4  172.21   15.88
   0   4   4  943.39   31.60
   0  -4   4  977.67   25.75
   0   4   4  938.56   32.04
   0  -4  -4 1010.23   35.24
   0  -4  -4  973.83   34.83
   0  -4  -4  959.40   33.60
   0  -4   4  978.12   26.04
   0   4   4 1002.96   32.66
   0   4  -4  939.40   36.90
   0   5   4  146.15   16.12
   0   5   4  175.52   18.25
   0  -5  -4  160.53   17.78
   0   5   4  141.97   15.27
   0  -5  -4  132.71   16.52
   0   5  -4  112.60   17.51
   0  -5  -4  187.87   19.23
   0   6  -4  195.72   24.38
   0  -6  -4  230.16   21.99
   0  -6  -4  193.06   22.88
   0   6   4  192.44   21.94
   0   6   4  231.50   21.55
   0  -6  -4  213.80   24.45
   0   0   5   -5.30    6.64
   0   0   5    5.05    7.07
   0   0  -5    8.36    6.96
   0   0   5    7.93    6.08
   0   0  -5    6.50    5.88
   0   0   5    3.46    6.72
   0   0  -5    7.10    6.82
   0   1   5   -6.41    5.54
   0   1   5    6.47    7.43
   0  -1  -5    7.60    7.57
   0  -1  -5   11.18    7.88
   0   1  -5   -4.93    6.62
   0   1  -5   -0.75    5.19
   0  -1   5    3.27    6.85
   0   1   5   -1.07    7.28
   0  -1   5    0.14    6.57
   0   1   5    6.09    7.18
   0   1  -5   -2.21    4.85
   0  -1  -5    1.32    6.57
   0   1  -5    1.17    6.67
   0  -1   5    1.57    6.72
   0  -2  -5   -3.52    7.65
   0  -2  -5    5.03    7.39
   0   2  -5   -0.12    7.12
   0   2  -5    1.70    6.22
   0   2   5   -2.46    7.48
   0   2   5    0.88    6.36
   0   2   5    7.66    8.19
   0  -2  -5    4.33    8.27
   0   2   5    6.36    8.17
   0  -2   5    2.77    6.60
   0  -2   5   -0.84    6.30
   0  -2   5   -2.58    6.17
   0  -3  -5   12.38    9.20
   0   3   5    3.51    8.40
   0   3   5    2.14    8.04
   0  -3  -5    7.75    8.63
   0  -3  -5   14.75    9.68
   0   3   5   -4.66    7.30
   0  -3   5   -1.67    5.86
   0   3   5    8.92    9.50
   0  -3   5    0.41    6.29
   0   3  -5   -1.97    7.62
   0  -3   5   -4.94    6.29
   0   3  -5   15.83    6.86
   0  -4  -5    1.66    9.68
   0  -4   5    1.12    5.33
   0   4   5   13.48    9.06
   0  -4   5   -4.69    6.03
   0  -4  -5    5.08    9.24
   0   4  -5    5.74    9.74
   0  -4   5   -3.46    6.11
   0   4   5    0.50    7.95
   0  -4  -5    0.16    9.27
   0   4   5   14.73    9.23
   0   5  -5   -4.51   10.56
   0  -5  -5   -2.56   10.75
   0   5   5   16.20    9.44
   0   5   5    0.09   10.02
   0  -5  -5   -4.92    9.90
   0  -5  -5  -14.88   10.90
   0   5   5    1.41    9.08
   0   0  -6  661.02   25.99
   0   0  -6  635.78   26.41
   0   0  -6  643.47   25.64
   0   0   6  622.92   26.53
   0   0   6  666.24   27.62
   0   0   6  654.70   27.76
   0   1  -6   78.60   11.88
   0  -1  -6   97.60   13.26
   0  -1   6   93.46   12.44
   0  -1   6  105.71   13.33
   0   1   6  124.40   14.93
   0   1  -6  102.07   14.12
   0  -1  -6  134.79   15.18
   0   1  -6   79.89   10.61
   0  -1   6   78.10   12.13
   0  -2   6 1822.97   48.25
   0   2   6 1656.05   50.95
   0   2  -6 1739.42   53.98
   0  -2  -6 1699.85   51.64
   0  -2  -6 1691.54   52.09
   0   2   6 1771.06   51.90
   0  -2   6 1817.73   48.49
   0   2   6 1719.72   48.79
   0   2   6 1806.65   52.64
   0  -2   6 1781.35   46.98
   0  -2  -6 1618.97   50.30
   0   2  -6 1731.25   46.90
   0   3   6   63.32   12.23
   0  -3   6   32.37    8.66
   0   3  -6   28.16   11.29
   0   3   6   78.18   14.09
   0  -3  -6   45.79   13.21
   0   3   6   43.15   12.78
   0   3   6   62.07   12.71
   0  -3  -6   65.87   14.21
   0  -3   6   41.16    9.66
   0   3  -6   33.97    9.26
   0  -3   6   34.70    9.84
   0  -3  -6   46.53   12.32
   0   4  -6  456.78   29.61
   0   4   6  502.90   26.08
   0  -4   6  527.04   22.72
   0  -4   6  494.63   20.79
   0   4   6  494.59   26.93
   0   4  -6  506.73   21.28
   0  -4  -6  500.33   29.63
   0  -4  -6  446.07   28.60
   0   4   6  529.26   27.91
   0  -4  -6  534.72   31.43
   0  -4   6  486.68   21.98
   0   4   6  490.75   27.31
   0   0  -7   -1.43    7.55
   0   0   7  -10.55    8.13
   0   0   7    8.53   10.43
   0   0   7    9.42   10.04
   0   0  -7    2.95    8.16
   0   0  -7    1.76    8.35
   0   0  -7    4.12    9.11
   0   1  -7   -6.32    7.88
   0   1   7    5.88   10.27
   0   1   7  -12.67    8.98
   0  -1   7   -7.64    7.82
   0  -1  -7   13.98    9.44
   0  -1  -7   -5.41    8.31
   0   1  -7   -7.01    7.74
   0  -1  -7   -9.96    7.79
   0  -1  -7   -3.59    8.37
   0  -1   7    2.40    9.81
   0  -1   7   12.20   10.01
   0   1   7   -4.51    9.28
   0  -2  -7   -3.33   10.09
   0  -2  -7    1.73   10.10
   0  -2   7   -9.76    8.12
   0  -2   7    4.82    8.27
   0  -2   7    6.06    9.43
   0   2  -7    3.00   10.00
   0   2   7    8.83   10.83
   0   2  -7    3.23    8.12
   0   2   7   -6.57   10.57
   0  -2  -7    4.27   10.40
   0   2   7    3.64    8.96
   0   2   7   16.76   11.09
   0  -2  -7   11.86   10.19
   0   3   7   -3.91   10.16
   0  -3   7    3.53    8.76
   0   3   7  -12.27   10.82
   0  -3  -7    0.18   10.38
   0  -3   7    6.19    9.56
   0  -3   7    2.95    9.62
   0  -3  -7  -12.51   10.56
   0   3   7   -2.46   11.19
   0   3  -7   -0.20    9.87
   0  -3  -7  -13.82   10.54
   0   3   7    6.41    9.87
   0   3  -7   -0.97    8.40
   0   3   7   14.25   10.27
   0   0   8  398.41   26.55
   0   0   8  415.91   27.61
   0   0  -8  399.32   27.97
   0   0  -8  395.01   26.65
   0   0   8  459.80   28.99
   0  -1  -8   59.86   14.85
   0  -1  -8   50.61   14.19
   0  -1   8   57.14   14.01
   0   1  -8   42.71   14.11
   0  -1  -8   42.66   13.38
   0  -1   8   38.00   13.94
   0   1   8   50.63   13.80
   0  -1   8   45.34   14.24
   0   1   8   41.80   14.58
   0   1  -8   38.34   13.21
   0   1   8   40.61   14.16
   0  -2   8  233.69   24.03
   0   2   8  249.26   26.68
   0   2   8  241.26   27.14
   0   2  -8  279.44   24.77
   0  -2  -8  252.71   27.10
   0  -2  -8  226.44   24.76
   0  -2  -8  224.52   24.91
   0  -2   8  233.68   23.50
   0   2  -8  235.03   26.15
   0  -2   8  245.06   22.93
   0  -2  -8  208.92   25.05
   0   2   8  182.97   23.41
  -1   0   0  -10.27    0.47
   1   0   0  -10.12    0.11
   1   0   0  -10.03    0.13
   1   0   0  -10.09    0.11
  -1   0   0   -9.97    0.15
  -1   0   0   -9.99    0.54
  -1   0   0   -9.69    0.53
   1   0   0  -10.34    0.42
   1   0   0  -10.53    0.52
  -1   0   0  -10.03    0.12
   1   0   0  -10.85    0.44
  -1   0   0  -10.11    0.51
   1   0   0  -10.22    0.43
   1   0   0  -10.19    0.07
  -1   0   0  -10.02    0.38
  -1   0   0  -10.06    0.14
  -1   0   0   -9.81    0.53
  -1   0   0  -10.15    0.15
  -1   1   0 4272.47   79.89
  -1  -1   0 4213.06   79.61
  -1  -1   0 4217.51   79.86
  -1   1   0 4236.97   80.10
   1   1   0 4258.52   79.72
  -1   1   0 4321.08   80.84
   1  -1   0 4019.08   80.24
  -1   1   0 4283.79   80.35
   1  -1   0 4139.75   80.27
   1   1   0 4342.21   82.87
  -1   1   0 4281.15   81.77
  -1   1   0 4291.05   82.54
   1  -1   0 4219.42   80.36
  -1  -1   0 4048.08   79.67
   1  -1   0 4249.02   80.43
   1  -1   0 4236.13   80.35
  -1   1   0 4166.32   80.07
  -1  -1   0 4194.31   79.79
   1   1   0 4158.50   79.62
   1   1   0 4328.98   81.73
   1  -1   0 4073.95   80.29
  -1   2   0   17.94    4.98
  -1   2   0   11.83    4.06
  -1  -2   0    2.16    2.95
   1  -2   0   17.63    3.22
   1  -2   0   13.11    3.43
   1  -2   0   12.66    3.42
  -1   2   0   15.01    3.28
   1  -2   0   11.59    3.23
  -1  -2   0   -0.62    3.07
  -1  -2   0   -2.17    2.82
  -1   2   0   12.06    2.79
  -1  -2   0    5.03    2.63
   1  -2   0   16.54    3.10
   1   2   0   13.30    4.26
   1   3   0 6148.20  119.06
   1  -3   0 6088.08  119.49
   1   3   0 6242.58  124.69
  -1  -3   0 6123.10  118.93
  -1   3   0 6297.11  127.48
   1  -3   0 6076.54  119.42
  -1  -3   0 6235.57  119.58
  -1  -3   0 6219.28  119.36
   1  -3   0 6232.16  120.01
   1  -3   0 6215.83  120.08
   1   3   0 6093.86  127.16
  -1  -3   0 5977.87  118.88
  -1  -3   0 6222.79  119.05
  -1   3   0 6096.15  120.21
  -1   3   0 6330.79  125.07
  -1   4   0  220.69    9.75
   1   4   0  227.05   13.96
  -1  -4   0  254.05   10.88
  -1  -4   0  256.52    9.91
   1   4   0  243.96    9.48
   1  -4   0  225.79   11.27
  -1   4   0  253.61   14.49
   1  -4   0  209.43   10.87
  -1   4   0  230.49   16.10
   1  -4   0  239.20   10.19
   1   4   0  265.75   16.61
  -1  -4   0  228.01   10.60
  -1   4   0  220.89   10.19
  -1  -5   0  787.34   21.21
   1  -5   0  790.61   23.37
  -1   5   0  733.42   28.65
   1  -5   0  754.11   21.57
  -1  -5   0  815.13   22.91
   1  -5   0  776.39   23.22
  -1   5   0  770.44   24.72
  -1  -5   0  794.36   22.69
   1   5   0  770.05   28.91
   1   6   0  181.42   18.31
   1  -6   0  199.58   13.55
  -1   6   0  177.83   18.42
  -1  -6   0  180.01   12.74
   1   7   0  378.20   26.09
  -1   7   0  381.16   26.76
   1   0   1   -3.27    3.03
  -1   0  -1   -9.37    2.77
  -1   0   1   -7.87    2.27
   1   0   1   -3.78    2.87
   1   0   1   -6.83    2.81
   1   0  -1   -6.76    2.71
   1   0   1   -7.03    2.49
   1   0  -1   -9.11    2.65
  -1   0   1   -8.50    2.67
  -1   0  -1   -7.52    2.93
  -1   0   1   -9.08    2.64
  -1   0   1   -8.64    2.89
   1   0  -1   -5.63    2.72
  -1   0  -1   -4.70    2.64
  -1  -1  -1   24.19    4.44
   1  -1   1   30.98    3.33
  -1   1   1   17.28    4.17
   1  -1   1   22.68    3.07
   1   1  -1   20.08    3.97
  -1  -1  -1   19.78    4.58
  -1   1   1   19.69    3.95
   1  -1   1   32.43    3.26
   1   1  -1   19.94    4.79
   1  -1   1   27.03    3.17
  -1   1   1   19.90    4.30
   1   1  -1   17.36    3.37
  -1   1   1   27.05    4.43
  -1  -1  -1    6.41    4.14
   1  -1   1   42.11    3.81
   1   1   1   21.13    3.82
   1  -1  -1   15.09    4.34
  -1  -1   1   21.29    2.67
   1  -1  -1   17.41    4.62
   1   1   1   25.00    4.28
   1   1   1   22.85    4.30
  -1  -1   1   27.53    2.49
  -1   1  -1   14.14    4.63
   1  -1  -1   19.76    4.64
  -1   1  -1   23.30    3.02
  -1  -1   1   22.64    2.47
  -1   1  -1   18.94    2.45
   1   1   1   21.91    4.26
  -1   1  -1   20.39    3.65
  -1   1  -1   25.86    4.06
   1  -2   1  104.10    4.36
  -1  -2  -1  107.88    6.60
  -1   2   1   94.52    6.71
   1  -2   1  102.46    4.37
  -1   2   1   93.48    6.40
  -1   2   1  101.00    6.73
  -1  -2  -1  100.96    7.19
   1   2  -1  102.71    9.02
  -1  -2  -1   92.97    7.05
   1   2  -1   96.82    5.64
  -1   2   1  100.49    6.76
   1   2  -1  107.08    7.48
   1   2   1  104.00    7.56
   1  -2  -1   90.93    7.37
   1   2   1   98.47    6.69
  -1   2  -1  104.89    7.31
   1   2   1  103.58    6.94
   1   2   1   99.57    6.21
  -1   2  -1  110.91    6.31
   1   2   1   96.04    6.17
   1   2   1   99.39    6.47
   1  -2  -1   92.67    7.59
   1  -2  -1  103.67    6.81
  -1   2  -1  128.59    9.46
  -1   3   1    4.68    3.33
   1  -3   1    0.36    2.50
  -1   3   1    5.94    4.28
  -1   3   1    1.22    3.79
   1   3  -1    2.66    4.58
   1  -3   1    7.44    2.65
   1   3  -1    5.73    3.40
   1   3  -1    7.28    6.03
  -1  -3  -1   -0.24    4.21
   1  -3   1    2.96    2.60
  -1   3   1   -0.60    4.56
  -1   3   1   11.44    4.42
  -1   3   1   -0.53    3.36
   1  -3   1    8.18    2.79
  -1   3   1    3.45    3.56
  -1  -3  -1    8.44    4.85
   1   3   1    2.00    2.75
  -1   3  -1    5.49    4.65
   1   3   1    4.28    3.51
   1  -3  -1    7.46    4.82
   1  -3  -1    1.65    4.21
   1   3   1    4.69    4.02
  -1   3  -1    4.25    5.82
   1  -3  -1    0.23    4.44
   1   3   1    5.09    3.67
   1   3   1    5.49    3.99
  -1   3  -1    4.23    3.49
   1   3   1    3.34    4.57
   1   3   1    6.42    3.26
   1   4  -1   12.37    4.05
  -1   4   1   16.88    5.69
   1  -4   1    9.47    3.86
  -1  -4  -1   18.17    6.30
   1  -4   1   13.58    3.85
  -1  -4  -1    6.04    5.71
   1   4  -1    8.35    7.21
   1   4  -1   24.23    6.97
  -1  -4  -1    9.80    5.24
  -1   4   1   11.51    6.38
  -1   4   1   20.75    5.09
  -1   4  -1   15.58    4.66
   1   4   1    8.99    4.07
  -1   4  -1    9.32    7.07
   1   4   1   13.01    5.67
   1   4   1    7.07    6.18
   1  -4  -1    6.63    5.54
   1  -4  -1   13.41    6.19
  -1   4  -1   16.87    6.65
   1  -4  -1   21.11    5.72
   1   5  -1   15.89    9.33
  -1   5   1   22.16    6.79
  -1  -5  -1   15.82    7.00
  -1   5   1   10.38    8.48
  -1  -5  -1    8.64    6.58
   1   5  -1   12.24    7.58
   1  -5   1    9.84    4.68
   1  -5   1    8.50    4.93
  -1   5   1   18.58    5.95
  -1  -5  -1   17.58    6.44
  -1   5  -1   15.21    9.51
   1   5   1   15.61    6.17
  -1   5  -1    0.83    5.07
   1   5   1   10.21    8.17
  -1   5  -1   12.68    8.15
   1  -5  -1   21.30    7.33
   1  -5  -1   10.48    6.27
   1  -5  -1   11.04    7.16
  -1   6   1    8.48    9.53
  -1   6   1    6.17    6.96
  -1  -6  -1   -4.93    5.81
  -1  -6  -1   -0.30    7.74
   1   6  -1   10.24    9.78
  -1  -6  -1   16.46    7.59
  -1   6  -1    3.73   10.58
   1   6   1   -4.91    8.35
   1  -6  -1  -13.71    7.30
  -1   6  -1   -2.75    8.87
   1  -6  -1    1.32    6.38
   1  -6  -1    5.36    7.85
   1   0  -2   62.68    6.63
   1   0  -2   94.15    7.62
   1   0  -2   57.48    6.52
   1  -1   2 3229.37   64.60
   1   1  -2 3429.46   69.19
   1   1  -2 3286.90   64.87
   1  -1   2 3389.53   66.06
  -1   1   2 3150.18   66.75
  -1  -1  -2 3221.08   67.41
  -1   1   2 3039.27   67.50
   1   1  -2 3394.59   64.47
  -1  -1  -2 3155.30   68.12
  -1   1   2 3165.88   67.62
   1   1  -2 3419.48   64.92
   1  -1   2 3352.43   65.82
   1  -1   2 3420.12   66.00
  -1  -1  -2 3219.93   68.43
  -1   1   2 3177.39   67.87
   1   1  -2 3366.21   65.41
   1  -1  -2 3183.57   68.46
  -1   1  -2 3385.16   65.42
  -1  -1   2 3357.43   65.56
  -1  -1   2 3299.99   64.29
  -1   1  -2 3328.70   64.92
   1   1   2 3261.45   68.06
   1   1   2 3189.06   67.87
  -1   1  -2 3372.83   69.53
   1   1   2 3278.81   67.97
  -1  -1   2 3350.63   65.61
   1  -1  -2 3184.94   68.18
   1   1   2 3083.14   66.66
   1  -1  -2 3229.20   67.50
  -1   1  -2 3419.70   65.40
  -1   1  -2 3455.95   67.18
  -1  -1   2 3333.55   65.68
  -1   1  -2 3438.29   65.74
  -1   2   2  256.27   10.94
   1  -2   2  206.50    8.01
   1   2  -2  202.26    9.24
  -1  -2  -2  200.39   11.92
  -1   2   2  234.23   11.30
   1  -2   2  214.75    7.80
   1  -2   2  211.75    8.03
  -1   2   2  229.13   11.43
   1   2  -2  238.19   10.95
   1   2  -2  210.46   12.44
   1  -2   2  186.48    7.91
   1   2   2  240.36   11.41
  -1  -2   2  172.05    7.26
   1   2   2  243.41   11.37
  -1  -2   2  167.08    7.27
   1   2   2  255.47   10.74
  -1  -2   2  198.45    7.34
   1  -2  -2  195.67   11.54
  -1   2  -2  206.99   12.14
  -1   2  -2  209.05   10.49
  -1  -2   2  160.37    7.24
  -1   2  -2  211.97    9.91
  -1  -2   2  158.89    7.17
   1  -2  -2  210.22   12.24
   1  -3   2 2300.22   47.73
  -1  -3  -2 2272.24   54.13
  -1  -3  -2 2360.65   52.06
   1   3  -2 2468.08   55.48
  -1   3   2 2371.53   52.80
  -1  -3  -2 2294.71   54.11
   1  -3   2 2393.71   48.01
   1   3  -2 2457.64   51.11
  -1   3   2 2353.55   52.20
  -1   3   2 2322.86   52.42
   1   3  -2 2461.34   58.86
  -1   3   2 2427.61   52.74
   1  -3   2 2348.27   47.95
   1  -3   2 2370.14   47.94
   1   3   2 2382.70   52.57
   1  -3  -2 2405.96   54.74
   1  -3  -2 2364.78   54.66
   1   3   2 2407.98   52.71
  -1   3  -2 2347.82   58.11
  -1   3  -2 2415.66   55.26
   1   3   2 2351.59   52.17
   1  -3  -2 2355.85   52.42
  -1   3  -2 2425.88   51.54
   1   3   2 2302.29   51.57
  -1   4   2  275.15   12.83
  -1  -4  -2  257.07   15.10
  -1   4   2  263.38   13.32
  -1   4   2  298.88   16.85
   1  -4   2  262.09    9.63
   1   4  -2  233.99   17.24
   1   4  -2  274.93   16.12
  -1   4   2  278.16   14.13
   1   4  -2  245.17   11.62
  -1  -4  -2  288.10   15.61
  -1   4   2  292.07   14.56
   1  -4  -2  284.24   15.55
  -1   4  -2  285.42   12.55
   1  -4  -2  335.20   15.27
   1   4   2  258.98   13.00
   1  -4  -2  305.03   15.69
  -1   4  -2  304.77   16.64
   1   4   2  240.43   13.96
  -1   4  -2  284.06   18.21
   1   4   2  264.52   14.18
   1   4   2  260.27   15.81
  -1  -5  -2 1078.43   33.61
  -1   5   2 1080.60   36.69
  -1   5   2 1073.54   31.61
   1   5  -2 1039.21   35.49
   1   5  -2 1103.08   40.15
  -1  -5  -2 1045.13   32.97
  -1  -5  -2 1085.25   32.22
  -1   5   2 1004.67   30.20
   1   5   2 1124.50   31.95
   1  -5  -2 1074.97   32.43
   1  -5  -2 1107.74   33.83
   1  -5  -2 1043.34   33.66
   1   5   2 1135.85   37.04
   1   5   2 1141.32   31.65
  -1   5  -2 1068.28   29.91
  -1   5  -2 1066.29   36.04
  -1   5  -2 1027.59   39.16
  -1   6   2  242.33   16.45
   1   6  -2  203.72   20.16
   1   6  -2  260.88   23.41
  -1  -6  -2  235.19   16.29
  -1  -6  -2  224.93   18.94
  -1  -6  -2  245.16   18.23
  -1   6   2  239.57   21.09
   1  -6  -2  262.25   18.56
   1   6   2  234.96   16.55
   1  -6  -2  250.32   16.91
   1   6   2  251.59   20.85
  -1   6  -2  222.33   19.11
  -1   6  -2  257.26   22.82
   1  -6  -2  237.18   18.58
   1   0   3    1.44    4.77
  -1   0   3   -2.43    4.29
   1   0  -3    3.41    4.59
  -1   0   3    5.24    4.83
   1   0   3   -4.47    3.47
  -1   0  -3   -9.36    3.97
   1   0  -3   -3.60    4.12
  -1   0  -3    3.91    4.30
  -1   0   3    3.00    4.25
  -1   0   3    0.50    4.66
   1   0  -3   -2.79    4.56
  -1   0  -3   -1.80    4.51
   1   0   3   -2.08    4.35
   1   0   3   -0.70    4.77
  -1   1   3  272.03   13.17
   1   1  -3  295.29   11.57
   1   1  -3  268.17   10.54
  -1  -1  -3  237.89   13.10
   1  -1   3  274.91   11.74
  -1   1   3  285.24   12.20
  -1  -1  -3  285.86   13.06
  -1  -1  -3  265.70   13.42
  -1   1   3  256.75   13.20
   1  -1   3  283.22   10.30
   1   1  -3  282.83   13.42
   1  -1   3  289.79   11.94
   1  -1   3  281.86   11.71
  -1   1   3  263.06   12.82
   1   1  -3  276.14   10.31
   1  -1  -3  277.87   12.92
  -1  -1   3  274.67    9.88
   1   1   3  271.54   12.05
  -1   1  -3  286.16   14.11
  -1  -1   3  289.52   11.77
   1   1   3  258.92   12.80
   1   1   3  263.55   13.14
  -1  -1   3  290.71   11.95
  -1  -1   3  275.03   11.41
  -1   1  -3  269.06   10.57
   1  -1  -3  258.72   13.29
   1   1   3  257.90   13.24
   1  -1  -3  267.21   13.53
  -1   1  -3  290.11   11.66
  -1   1  -3  289.80   11.14
   1   2  -3   23.90    6.88
   1   2  -3   24.16    3.82
   1  -2   3   21.08    4.92
   1  -2   3   22.49    4.94
   1  -2   3    7.19    4.34
  -1  -2  -3   22.27    6.51
  -1   2   3   22.02    6.17
   1   2  -3   19.14    4.08
  -1   2   3   14.30    6.19
  -1   2   3   12.98    6.11
  -1  -2  -3   20.67    6.90
  -1  -2  -3   18.64    6.76
  -1   2   3   15.16    6.11
   1   2  -3   21.32    4.96
  -1   2  -3   15.80    6.81
   1   2   3   23.58    6.62
  -1   2  -3   18.02    3.15
  -1  -2   3   19.13    4.86
   1   2   3   16.50    6.30
  -1   2  -3   19.90    5.27
  -1  -2   3   22.44    4.50
   1  -2  -3   11.97    5.71
  -1   2  -3   19.45    4.75
   1  -2  -3   22.13    7.02
   1   2   3   16.50    5.94
   1  -2  -3   12.78    6.56
   1   2   3   14.72    5.76
  -1   2  -3   19.86    4.55
  -1  -2   3   10.54    4.30
   1  -3   3  117.33    7.31
   1   3  -3  145.34   14.85
  -1   3   3  129.63   11.99
  -1   3   3  126.18   11.69
  -1   3   3  122.35   11.47
   1   3  -3  119.71   11.79
  -1  -3  -3  134.63   12.04
  -1  -3  -3  130.92   13.27
  -1   3   3  119.87   11.22
  -1  -3  -3  115.13   12.15
   1  -3   3  113.89    7.88
   1  -3   3  117.42    7.80
  -1   3  -3  135.91   12.15
   1  -3  -3  121.24   11.09
  -1  -3   3  108.12    7.20
  -1  -3   3  108.14    6.76
   1  -3  -3  132.37   13.44
  -1   3  -3  110.80    9.34
   1  -3  -3  119.61   12.37
  -1  -3   3   99.65    7.08
   1   3   3  119.25   11.40
   1   3   3  153.20   12.64
   1   3   3  121.73   11.41
   1   3   3  125.67   11.58
  -1   3  -3  125.65   14.14
  -1   4   3   51.50    8.82
   1   4  -3   41.38   10.90
   1  -4   3   44.88    5.77
  -1   4   3   54.09    9.31
  -1  -4  -3   27.18    9.21
  -1   4   3   37.35    8.18
  -1  -4  -3   35.43    9.57
   1  -4   3   40.59    5.63
   1   4  -3   30.38    8.37
  -1   4   3   37.16    9.21
   1   4   3   47.37    9.64
   1  -4  -3   33.91    8.82
   1   4   3   52.67    9.34
   1  -4  -3   31.83    9.31
   1   4   3   41.19    8.64
   1   4   3   46.59    8.47
   1  -4  -3   43.78    9.56
  -1   4  -3   26.10    9.86
  -1   4  -3   42.03    7.44
  -1   4  -3   35.38    8.58
  -1   5   3   12.01    8.79
  -1  -5  -3   12.32    9.38
  -1  -5  -3   18.21    9.58
  -1   5   3   18.06    7.45
   1   5  -3   15.49    8.91
  -1   5   3   17.41    9.29
   1   5  -3   15.74   10.64
  -1  -5  -3   13.41    7.92
   1   5   3    6.40    8.06
   1   5   3   12.17    9.72
   1   5   3   34.03    9.85
   1  -5  -3    9.57    8.76
  -1   5  -3   12.78   10.25
  -1   5  -3   20.97    6.88
   1  -5  -3   36.23   10.61
   1  -5  -3   17.98    8.78
  -1   5  -3   20.07    8.80
  -1   6   3   25.66   11.15
  -1  -6  -3    5.39    9.01
   1   6  -3    0.16   11.27
  -1  -6  -3   31.28   12.55
   1   6  -3   31.21   11.61
  -1   6   3   22.52    9.94
  -1  -6  -3   25.17   11.53
  -1   6  -3   35.30   13.46
   1   6   3   26.05   10.33
  -1   6  -3   11.41   10.05
   1  -6  -3   34.96   11.76
   1  -6  -3   16.36    9.90
   1   6   3   11.05   10.25
   1  -6  -3   21.49   11.20
  -1   0   4   46.54    8.00
  -1   0   4   45.97    8.25
   1   0   4   41.90    7.84
   1   0  -4   33.96    7.27
  -1   0  -4   25.38    7.19
  -1   0  -4   19.69    6.64
   1   0   4   34.44    7.65
   1   0   4   28.42    7.63
   1   1  -4 2404.03   56.58
   1   1  -4 2375.56   52.64
  -1   1   4 2244.48   54.69
  -1   1   4 2213.84   55.00
   1  -1   4 2310.90   52.64
  -1  -1  -4 2190.87   55.25
  -1  -1  -4 2301.67   54.34
  -1  -1  -4 2260.11   55.11
   1  -1   4 2280.53   50.28
   1  -1   4 2379.75   53.58
  -1   1   4 2289.63   54.74
   1   1  -4 2341.19   51.43
  -1   1   4 2284.96   52.85
   1   1  -4 2377.92   50.97
   1  -1   4 2391.78   53.52
  -1   1  -4 2360.30   51.99
   1   1   4 2199.29   54.62
  -1   1  -4 2370.87   52.74
  -1  -1   4 2306.77   53.05
   1   1   4 2258.83   55.12
   1   1   4 2242.69   52.93
  -1   1  -4 2317.30   57.01
   1  -1  -4 2234.84   54.92
  -1   1  -4 2322.55   51.13
  -1  -1   4 2331.55   50.00
   1  -1  -4 2237.89   54.06
   1  -1  -4 2272.59   55.42
  -1  -1   4 2344.91   53.25
   1   1   4 2216.10   54.27
  -1  -1   4 2376.54   52.79
  -1  -2  -4  111.35   11.50
   1   2  -4   56.26    7.52
   1   2  -4   54.66    9.28
   1  -2   4   51.30    7.83
   1  -2   4   49.84    7.87
  -1  -2  -4   85.01   11.09
   1   2  -4   44.98    6.24
   1   2  -4   48.51    5.27
  -1   2  -4   40.78    5.58
  -1   2  -4   39.14    8.99
  -1  -2   4   49.51    7.77
  -1  -2   4   53.81    7.88
  -1  -2   4   42.38    7.74
   1  -3   4 1209.56   30.24
  -1   3   4 1164.41   35.14
  -1  -3  -4 1182.89   37.44
   1   3  -4 1197.36   39.19
  -1   3   4 1265.93   36.82
  -1  -3  -4 1186.06   35.46
   1  -3   4 1214.24   31.13
  -1   3   4 1223.03   36.23
   1  -3   4 1212.83   31.16
  -1  -3  -4 1205.02   37.55
  -1   3   4 1218.79   35.33
  -1   3  -4 1188.98   39.27
   1   3   4 1198.26   36.10
  -1  -3   4 1229.54   30.73
   1   3   4 1201.48   35.63
   1   3   4 1182.43   34.98
  -1  -3   4 1260.37   30.90
  -1  -3   4 1224.22   29.69
   1  -3  -4 1217.53   37.68
   1   3   4 1218.04   36.04
   1  -3  -4 1128.75   36.78
  -1   3  -4 1257.27   30.80
   1  -3  -4 1167.02   35.33
  -1   4   4  316.69   18.29
   1  -4   4  249.21   12.45
  -1   4   4  280.03   17.23
  -1  -4  -4  299.88   19.82
   1  -4   4  237.24   12.62
  -1   4   4  270.38   16.86
   1   4  -4  252.52   20.38
  -1  -4  -4  290.68   19.95
   1  -4  -4  340.16   19.55
  -1   4  -4  205.75   19.08
  -1  -4   4  240.48   11.72
   1  -4  -4  287.25   19.65
   1  -4  -4  315.49   20.25
   1   4   4  295.33   17.97
   1   4   4  250.72   17.43
   1   4   4  281.82   17.16
  -1  -4   4  244.32   11.99
  -1  -5  -4  679.89   30.91
  -1   5   4  636.74   27.87
  -1  -5  -4  679.12   29.46
  -1   5   4  665.95   30.44
   1   5  -4  632.87   32.96
  -1  -5  -4  655.53   30.23
   1   5   4  686.91   28.63
   1  -5  -4  672.76   30.84
  -1   5  -4  662.98   29.50
   1   5   4  683.14   28.23
   1   5   4  617.75   29.47
  -1   5  -4  630.11   33.06
   1  -5  -4  742.08   32.17
   1  -5  -4  658.24   29.48
  -1  -6  -4   77.51   14.25
  -1   6   4  110.37   16.39
  -1   6   4  122.23   18.35
  -1  -6  -4   67.08   16.69
  -1  -6  -4   98.30   17.46
   1   6  -4   66.45   16.75
   1   6   4   83.84   14.74
   1  -6  -4   87.55   15.96
   1   6   4   90.27   16.37
   1  -6  -4  101.46   18.17
  -1   6  -4   93.08   16.04
   1  -6  -4   93.87   17.93
  -1   6  -4   68.16   16.81
  -1   0   5    0.77    6.88
  -1   0  -5    1.94    5.85
   1   0  -5   -3.75    5.68
   1   0  -5   -1.97    6.07
  -1   0   5   -3.96    6.22
   1   0   5   -7.52    6.43
   1   0  -5   -3.61    5.98
   1   0   5    3.43    7.29
  -1   0   5   -2.99    6.88
   1   0   5   -4.43    6.59
   1   0   5   -7.89    4.85
  -1   0  -5    2.07    6.26
  -1   0   5    4.26    5.94
  -1   0  -5   -2.89    6.05
  -1  -1  -5   12.62    7.40
  -1   1   5   10.20    8.15
  -1  -1  -5    8.62    7.32
   1   1  -5   14.56    7.29
   1   1  -5   22.21    7.57
  -1   1   5   -7.94    6.06
  -1   1   5   17.57    8.50
   1  -1   5   15.19    7.62
   1   1  -5   15.32    6.18
   1  -1   5   16.47    7.58
  -1   1   5   13.65    8.03
   1   1  -5    6.53    5.53
  -1  -1  -5   20.91    8.38
   1  -1   5   24.17    8.14
   1  -1  -5    7.91    7.49
  -1   1  -5   11.75    7.85
   1   1   5   29.23    9.14
  -1   1  -5   12.15    7.18
  -1  -1   5   12.94    7.30
   1   1   5    8.73    7.84
   1  -1  -5    5.51    6.79
   1   1   5    7.64    7.41
   1  -1  -5   17.63    7.49
   1   1   5    2.93    6.71
  -1  -1   5    3.74    6.63
  -1   1  -5   11.96    6.02
  -1   1  -5   13.16    6.26
  -1  -1   5    6.30    7.08
  -1  -2  -5   21.52    8.12
  -1   2   5   26.25    8.28
   1   2  -5   35.43    9.43
  -1   2   5   27.12    9.24
  -1  -2  -5   26.75    9.07
   1  -2   5   31.63    8.50
  -1   2   5   17.53    8.74
   1  -2   5   30.39    8.12
  -1  -2  -5   14.37    8.79
   1   2  -5   21.98    7.56
  -1   2   5   18.31    9.21
   1  -2   5   19.08    7.38
   1  -2  -5   25.61    8.94
   1   2   5   33.52    9.82
   1  -2  -5   29.44    9.78
  -1  -2   5   16.93    7.59
  -1   2  -5   30.79    8.03
   1   2   5   26.65    9.95
   1  -2  -5   17.19    8.71
   1   2   5   26.71    9.33
   1   2   5   33.16    8.62
  -1  -2   5   25.71    8.17
  -1   2  -5   23.14    9.00
  -1  -2   5   32.23    7.87
  -1   3   5   -0.13    9.05
  -1   3   5   16.96    7.94
  -1  -3  -5   -0.01    9.12
  -1  -3  -5    6.96    8.84
   1  -3   5   12.77    6.87
   1  -3   5   10.53    6.84
  -1  -3  -5    6.09    8.87
   1   3  -5   14.45    8.61
   1   3  -5   14.79    6.90
  -1   3   5   12.85    8.73
   1  -3   5    8.21    6.71
  -1   3   5   10.73    9.01
  -1   3  -5    6.16    6.40
  -1  -3   5    3.31    6.36
   1   3   5    8.29    8.85
   1  -3  -5    2.08    7.94
  -1  -3   5   10.68    7.07
   1   3   5   13.03    9.48
   1  -3  -5   12.49    9.10
   1   3   5   20.09    9.02
  -1  -3   5    9.56    6.32
   1  -3  -5   18.46    9.77
   1   3   5   -3.54    7.40
  -1   3  -5   -3.96    7.86
   1  -3  -5    9.36    9.13
   1  -4   5    6.11    6.80
   1   4  -5    9.36    9.55
  -1   4   5   -7.18    8.14
  -1   4   5   15.67    9.22
  -1  -4  -5   22.01   11.04
  -1   4   5    9.03    8.77
  -1   4   5   10.46    9.16
  -1  -4  -5    8.34    9.40
  -1  -4  -5  -12.90    8.53
   1  -4   5    6.28    5.81
   1  -4   5    0.59    6.37
  -1  -4   5   -3.75    5.93
  -1  -4   5    5.79    5.65
  -1   4  -5   -5.15    8.20
   1   4   5    2.50    8.40
  -1  -4   5    1.13    5.77
   1  -4  -5   20.25   10.57
   1   4   5   -8.26    7.66
   1  -4  -5  -16.48    7.16
   1   4   5    1.67    8.37
   1  -4  -5   19.61   10.75
  -1  -5  -5   -7.00    9.14
  -1  -5  -5   -2.46   11.10
   1   5  -5   -7.27    9.18
  -1  -5  -5    3.79   11.09
  -1   5   5   -3.02    9.66
  -1   5   5   24.53   11.49
   1  -5  -5    2.59   10.59
  -1   5  -5    0.00   10.38
   1   5   5    5.31    9.49
   1   5   5   -3.51   10.53
   1  -5  -5    3.95   11.38
   1   5   5   20.97   10.97
   1  -5  -5    5.37   12.27
  -1   0   6   24.15    9.39
  -1   0  -6   17.60    7.77
  -1   0   6   31.94    9.57
   1   0   6   18.06    8.86
  -1   0  -6   32.24    9.65
  -1   0  -6   20.73    8.51
   1   0  -6   24.52    8.73
   1   0  -6   31.48    8.82
   1   0   6   28.60    9.27
  -1   0   6   25.81    9.91
   1   0  -6    8.18    7.36
   1   0   6   35.75   10.04
  -1   1   6 1329.01   39.60
   1   1  -6 1357.77   43.74
   1  -1   6 1354.23   40.89
  -1  -1  -6 1378.57   42.73
   1  -1   6 1377.49   40.54
  -1   1   6 1366.77   42.29
  -1  -1  -6 1287.46   41.42
  -1   1   6 1331.01   42.62
   1   1  -6 1346.52   38.14
  -1  -1  -6 1344.04   41.82
   1   1  -6 1326.17   39.84
   1   1  -6 1379.69   38.34
   1  -1   6 1397.90   41.71
  -1   1   6 1387.45   43.18
  -1  -1   6 1381.69   40.20
   1   1   6 1284.28   42.61
   1  -1  -6 1313.57   41.41
   1  -1  -6 1316.47   41.48
  -1  -1   6 1385.52   41.03
   1   1   6 1259.19   41.33
  -1   1  -6 1313.45   44.47
  -1  -1   6 1350.25   40.86
  -1   1  -6 1377.25   40.43
  -1   1  -6 1329.04   38.16
   1  -1  -6 1348.88   42.00
   1   1   6 1330.33   39.65
   1   1   6 1355.46   42.70
  -1   2   6  220.58   16.71
  -1   2   6  253.99   19.63
   1  -2   6  139.82   15.11
  -1   2   6  246.45   19.65
   1   2  -6  179.31   14.85
  -1  -2  -6  273.79   19.23
   1  -2   6  129.25   13.97
   1   2  -6  174.67   18.76
  -1  -2  -6  230.06   19.28
  -1  -2  -6  222.81   18.98
  -1   2   6  189.75   18.86
   1   2   6  231.71   19.53
  -1   2  -6  142.93   14.99
   1  -2  -6  250.85   19.63
  -1   2  -6  158.62   18.98
   1  -2  -6  234.14   18.53
  -1  -2   6  204.95   16.47
   1  -2  -6  248.61   19.63
  -1  -2   6  205.58   15.40
   1   2   6  234.81   19.27
  -1  -2   6  217.53   16.85
   1   2   6  249.61   20.30
  -1  -3  -6  422.81   26.12
  -1   3   6  390.78   24.72
  -1   3   6  448.82   25.35
  -1   3   6  425.15   23.59
  -1  -3  -6  425.78   25.56
  -1   3   6  426.57   25.38
  -1   3   6  397.13   22.55
   1  -3   6  441.75   21.49
   1  -3   6  458.68   22.12
   1  -3   6  451.78   20.25
   1   3  -6  443.70   26.62
   1   3  -6  433.18   20.33
   1  -3  -6  444.78   26.86
   1  -3  -6  439.56   26.09
   1  -3  -6  458.65   26.78
   1   3   6  377.14   24.21
  -1  -3   6  405.51   20.94
  -1  -3   6  422.49   19.51
  -1   3  -6  446.19   20.56
   1   3   6  392.43   24.51
   1   3   6  411.02   24.47
  -1  -3   6  424.13   20.81
   1   3   6  410.26   23.11
  -1   3  -6  460.46   27.14
  -1  -4  -6  109.98   17.22
  -1  -4  -6   99.01   17.20
   1  -4   6   55.39   10.75
   1  -4   6   40.30   10.48
   1  -4   6   50.87    9.12
  -1   4   6   90.13   15.43
  -1   4   6   95.43   16.03
  -1   4   6   74.39   14.24
  -1   4   6   96.56   14.75
   1   4  -6   69.77   15.60
  -1  -4  -6  109.05   17.13
  -1   4  -6   45.36   10.00
   1  -4  -6  114.40   18.79
   1  -4  -6  105.49   17.62
  -1  -4   6   75.95   11.66
   1   4   6   50.75   12.03
   1   4   6   80.93   14.57
  -1  -4   6   64.67   10.98
   1   4   6   94.05   15.90
  -1  -4   6   50.69    9.59
  -1   4  -6   77.57   16.56
   1  -4  -6   89.31   16.05
   1   0   7   -1.65    8.92
  -1   0  -7    7.36    8.25
   1   0  -7   -4.74    8.43
  -1   0  -7   15.08    9.38
   1   0  -7   -1.04    7.73
  -1   0   7   -5.28    8.91
   1   0   7   -6.35    9.29
   1   0  -7    6.72    8.26
   1   0  -7    4.18    9.08
  -1   0   7   -0.37    9.10
   1   0   7   19.11   10.93
  -1   0   7   -1.13    9.87
   1  -1   7   -5.75    8.43
  -1  -1  -7   -5.41    8.52
  -1   1   7   -9.40    8.69
  -1   1   7    9.84   10.75
   1  -1   7   -0.12    9.17
   1  -1   7   -2.21    8.96
  -1   1   7    7.62   10.72
  -1  -1  -7   19.56    9.97
   1   1  -7   -4.88    8.39
   1   1  -7   -4.33    7.96
  -1  -1  -7   13.00   10.37
  -1   1  -7    2.65    9.26
   1   1   7   10.51   10.89
  -1   1  -7    9.33    8.87
  -1  -1   7   -3.94    9.09
  -1  -1   7    0.26    8.75
   1  -1  -7    9.90    9.50
  -1  -1   7   -3.75    9.07
   1   1   7   11.60   10.54
   1  -1  -7   19.21   10.11
   1   1   7   21.05   11.86
   1  -1  -7    1.16    9.04
   1  -1  -7   -5.49    8.38
  -1   2   7   22.61   11.92
  -1  -2  -7    5.07   10.03
  -1  -2  -7    9.82   10.86
   1   2  -7   20.12    9.85
  -1   2   7   17.51   10.30
   1  -2   7    8.09    9.97
   1  -2   7    5.88    9.19
  -1   2   7    4.93   11.26
  -1  -2  -7    2.00   10.27
   1  -2   7   15.48    9.84
  -1   2   7    2.80   10.50
  -1   2   7   19.06   10.86
   1   2  -7   13.86   10.27
  -1  -2   7    9.67   10.06
  -1  -2   7    8.91   10.47
  -1  -2   7    0.14    8.82
   1  -2  -7   12.72   11.25
   1   2   7   11.57   10.80
   1  -2  -7   13.53   10.85
   1  -2  -7   13.18   10.46
  -1   2  -7    2.18    8.55
   1   2   7   10.62    9.88
   1  -2  -7   12.82   11.92
   1   2   7   25.22   12.90
  -1   2  -7    1.29   10.37
   1   2   7    4.32   10.82
  -1   3   7   29.93   11.62
  -1  -3  -7   13.66   12.10
  -1  -3  -7   14.26   12.36
  -1   3   7   11.49   11.99
   1   3  -7   10.64    8.84
  -1  -3  -7    8.76   12.03
  -1   3   7   31.36   13.70
   1   3  -7   15.79   11.66
   1  -3   7   26.26   10.95
   1  -3   7   30.43   11.33
  -1   3   7    2.88   10.69
  -1   3   7   20.50   12.36
   1  -3   7   18.09    9.04
   1  -3  -7   13.88   11.43
  -1  -3   7   -7.18    8.81
   1   3   7   15.95   11.14
  -1  -3   7   13.93   10.33
  -1   3  -7   13.57    9.56
  -1   3  -7   10.21   11.30
   1  -3  -7   12.79   12.69
   1  -3  -7   14.64   12.24
   1   3   7   18.53   12.37
   1   3   7    4.39   11.93
   1   3   7   13.86   12.59
  -1  -3   7   12.09    9.06
  -1   0  -8   35.51   12.97
  -1   0  -8   46.66   13.56
   1   0   8   41.32   14.04
   1   0   8   21.62   12.12
   1   0  -8   22.74   12.28
  -1   0   8   23.44   12.49
   1   0   8   13.24   12.67
  -1   0   8   25.95   12.99
  -1   0   8   42.51   13.95
   1   0  -8   19.86   12.00
   1  -1   8  432.98   27.87
  -1  -1  -8  406.61   27.31
   1  -1   8  401.79   27.15
   1   1  -8  418.23   28.19
  -1   1   8  408.88   27.95
   1  -1   8  437.87   27.03
  -1   1   8  431.76   28.38
   1   1  -8  443.14   27.28
  -1  -1  -8  425.83   26.72
  -1   1   8  441.79   29.68
  -1  -1  -8  396.47   27.07
   1   1   8  437.34   29.57
   1   1   8  408.72   28.18
   1  -1  -8  406.18   27.59
  -1  -1   8  402.51   27.06
   1  -1  -8  391.01   26.25
  -1   1  -8  394.06   25.81
   1   1   8  436.65   28.22
  -1  -1   8  404.22   25.70
  -1  -1   8  476.38   28.46
  -1   1  -8  438.78   29.05
   1  -1  -8  409.88   26.65
  -1  -2  -8   90.52   17.43
   1  -2   8   65.48   14.43
   1   2  -8  105.84   16.60
  -1   2   8  104.20   18.80
  -1   2   8  101.52   19.07
  -1  -2  -8  111.69   19.39
  -1  -2  -8   85.46   17.02
  -1  -2  -8  101.56   18.64
   1   2  -8   66.77   16.44
  -1   2   8   72.31   16.27
   1  -2   8   74.31   16.15
   1  -2   8   61.14   14.94
  -1  -2   8   64.10   13.67
   1  -2  -8   80.95   16.77
  -1   2  -8   88.24   15.80
   1  -2  -8  109.95   18.34
   1  -2  -8   70.32   15.84
  -1  -2   8   79.81   15.41
   1   2   8  108.82   19.85
  -1  -2   8   51.53   14.79
   1  -2  -8   92.02   17.66
  -1   2  -8   54.73   15.20
   1   2   8   84.72   17.81
   1   2   8   50.45   16.14
   2   0   0 6856.22  127.61
  -2   0   0 6769.07  127.11
  -2   0   0 6432.17  127.77
  -2   0   0 6810.30  128.34
   2   0   0 6891.59  127.69
   2   0   0 6726.35  127.14
  -2   0   0 6714.71  127.09
  -2   0   0 6696.77  127.84
  -2   0   0 6768.22  127.80
   2   1   0  707.39   16.74
  -2   1   0  735.46   17.78
  -2   1   0  738.49   16.23
   2  -1   0  727.98   16.28
  -2   1   0  718.09   15.86
   2  -1   0  726.75   16.21
   2  -1   0  711.08   16.08
   2   1   0  755.18   18.29
   2  -1   0  754.34   16.15
  -2  -1   0  728.20   15.03
  -2   1   0  738.95   17.10
  -2   1   0  747.62   15.92
  -2  -1   0  717.19   15.15
  -2  -1   0  713.81   15.24
   2  -1   0  712.52   16.13
  -2  -1   0  709.91   15.29
  -2   1   0  734.63   16.06
  -2  -1   0  715.33   15.13
   2   1   0  739.03   15.09
  -2   1   0  733.94   15.79
  -2   1   0  748.25   16.55
   2  -2   0 1499.78   31.79
  -2  -2   0 1511.80   30.82
  -2   2   0 1534.82   31.37
  -2  -2   0 1477.74   30.73
   2   2   0 1533.41   34.30
  -2   2   0 1533.73   35.96
  -2  -2   0 1459.51   30.48
  -2   2   0 1537.11   31.87
  -2  -2   0 1508.47   30.79
  -2  -2   0 1524.58   31.02
   2   2   0 1471.51   30.29
  -2   2   0 1564.88   32.60
  -2   2   0 1483.09   30.69
   2  -2   0 1512.20   32.12
  -2   2   0 1576.57   34.64
   2   2   0 1587.49   36.55
   2  -2   0 1502.54   32.04
   2   3   0  482.87   11.86
  -2  -3   0  470.98   12.87
  -2   3   0  445.20   16.62
  -2  -3   0  462.32   13.04
  -2   3   0  452.06   13.28
  -2   3   0  449.66   18.18
  -2   3   0  434.38   13.77
  -2   3   0  453.06   12.81
  -2  -3   0  445.71   12.25
   2  -3   0  408.51   13.57
   2  -3   0  412.41   13.06
  -2  -3   0  453.55   12.33
   2  -3   0  407.56   13.66
   2   4   0 1244.22   35.03
  -2   4   0 1244.59   37.58
   2  -4   0 1250.23   30.32
  -2  -4   0 1265.62   28.27
   2  -4   0 1220.94   29.99
  -2  -4   0 1249.88   29.26
   2   4   0 1202.75   27.48
  -2  -4   0 1191.76   28.98
   2  -4   0 1205.33   29.30
  -2   4   0 1243.07   35.28
  -2   4   0 1224.26   30.09
  -2   4   0 1253.46   29.73
   2  -5   0  206.31   12.25
  -2   5   0  201.86   11.30
  -2  -5   0  218.91   10.23
  -2   5   0  237.23   18.13
  -2   5   0  242.19   17.09
   2  -5   0  202.90   12.13
   2   5   0  222.62   16.36
   2  -5   0  194.52   11.08
  -2  -5   0  249.68   11.87
  -2  -5   0  193.14   11.15
   2   6   0  621.15   28.96
  -2   6   0  598.75   28.72
  -2  -6   0  650.06   21.58
   2  -6   0  605.70   22.42
   2   7   0  134.95   18.75
  -2   7   0  129.23   18.49
   2   0  -1  246.19    8.06
  -2   0   1  251.81    7.39
   2   0  -1  231.31    7.87
  -2   0  -1  229.53    7.66
   2   0  -1  228.95    7.73
  -2   0  -1  250.75    8.47
   2   0  -1  242.79    7.98
   2   0   1  240.24    8.16
  -2   0  -1  248.05    8.30
   2   0   1  248.16    8.10
  -2   0  -1  218.46    7.79
   2   0   1  246.12    7.77
  -2   0   1  253.09    7.94
   2   0   1  246.20    8.20
  -2   0   1  250.42    7.87
  -2   0   1  248.95    7.90
  -2   1   1  327.08   10.97
   2   1  -1  384.72   11.17
  -2   1   1  346.45   11.33
   2  -1   1  364.34    9.14
  -2  -1  -1  358.82   11.59
  -2   1   1  348.87   11.20
  -2  -1  -1  356.94   11.54
  -2   1   1  354.60   10.73
   2  -1   1  381.22    9.74
   2   1  -1  381.28   12.01
   2  -1   1  386.14    9.87
   2  -1   1  364.61    9.78
  -2  -1  -1  343.51   10.85
   2  -1   1  375.20    9.85
   2   1   1  349.91   11.05
   2  -1  -1  364.66   11.33
  -2  -1   1  373.53    8.44
  -2   1  -1  385.75    9.49
  -2   1  -1  398.98    9.66
  -2   1  -1  389.50   10.94
  -2  -1   1  361.60    8.68
   2   1   1  350.76   10.99
   2  -1  -1  348.83   11.54
   2  -1  -1  346.27   11.46
   2   1   1  365.54   11.23
   2   1   1  349.14   10.80
  -2   1  -1  405.00   10.83
  -2   1  -1  358.82    9.29
   2  -1  -1  339.48   11.53
  -2   1  -1  363.83   12.61
  -2  -1   1  337.80    8.45
  -2   1  -1  355.01    9.00
   2  -2   1  232.43    7.33
  -2  -2  -1  232.35    9.92
  -2   2   1  239.31    9.39
  -2   2   1  226.13    9.14
  -2  -2  -1  222.96    8.78
  -2   2   1  235.49    9.29
   2   2  -1  250.14   10.46
   2  -2   1  232.17    7.48
   2   2  -1  236.42   11.64
   2   2  -1  213.50    7.67
   2  -2   1  241.06    7.47
  -2  -2  -1  211.72    9.53
  -2   2   1  232.48    9.43
   2  -2   1  236.78    7.25
   2  -2   1  242.99    7.16
   2  -2  -1  207.01    9.88
   2   2   1  225.54    8.73
   2   2   1  226.74   10.04
   2   2   1  222.46    9.22
   2  -2  -1  239.36    9.47
   2  -2  -1  221.63    9.64
   2   2   1  216.35    8.36
  -2   2  -1  220.53   11.47
  -2   2  -1  221.97    8.81
   2  -2  -1  216.22   10.03
   2   2   1  223.14    8.85
   2   2   1  230.87    9.10
  -2   2  -1  233.82   10.08
   2   3  -1   29.83    7.32
  -2  -3  -1   54.64    6.71
  -2   3   1   54.30    6.27
  -2   3   1   54.72    5.96
   2   3  -1   38.43    4.43
   2  -3   1   50.39    4.41
   2  -3   1   52.14    4.53
  -2  -3  -1   40.78    6.15
  -2   3   1   47.47    6.16
   2  -3   1   51.77    4.56
   2  -3   1   52.86    4.60
   2  -3   1   51.91    4.64
  -2   3   1   58.80    7.79
  -2   3   1   59.76    5.94
  -2   3   1   50.92    6.00
   2  -3   1   55.36    4.72
   2   3  -1   44.74    6.87
  -2   3   1   46.24    5.91
  -2   3   1   61.00    5.59
   2  -3  -1   55.61    6.94
   2   3   1   52.06    5.14
   2   3   1   46.74    5.56
   2   3   1   44.43    5.78
   2   3   1   49.09    4.42
   2  -3  -1   41.35    6.53
   2   3   1   32.63    4.21
   2   3   1   42.59    6.73
  -2   3  -1   40.74    7.97
  -2   3  -1   37.39    6.54
  -2   3  -1   51.09    5.59
   2   3   1   44.84    5.80
   2  -3  -1   44.88    6.17
  -2  -4  -1  187.75   11.64
  -2   4   1  214.85   11.11
   2  -4   1  208.94    9.04
  -2   4   1  183.15   13.32
   2  -4   1  194.73    9.03
   2  -4   1  212.11    8.62
  -2  -4  -1  188.94   11.69
   2   4  -1  206.66   13.87
  -2   4   1  207.68   10.77
   2   4  -1  206.86   15.95
   2   4  -1  204.93    8.72
   2  -4  -1  183.92   12.18
   2   4   1  172.57    8.47
   2  -4  -1  205.27   11.39
  -2   4  -1  204.73   10.50
   2  -4  -1  187.74   11.93
   2   4   1  213.69   10.88
   2   4   1  200.89   13.68
  -2   4  -1  204.65   15.78
  -2   4  -1  194.36   13.23
  -2   5   1   28.24    6.62
   2  -5   1   29.23    5.74
  -2   5   1   21.24    6.85
   2  -5   1   27.22    5.92
   2   5  -1   26.19    8.92
  -2  -5  -1   26.03    7.71
  -2   5   1   24.87    9.19
  -2  -5  -1   20.55    7.21
  -2  -5  -1   26.67    6.97
   2   5  -1   25.21   10.33
  -2   5  -1   34.51    6.62
   2  -5  -1   24.33    7.61
  -2   5  -1   24.50    8.63
   2   5   1   19.15    8.00
   2  -5  -1   36.44    8.23
   2  -5  -1   19.21    7.00
  -2   5  -1   28.47   11.34
   2   5   1   30.82    7.32
   2   6  -1   15.05   10.07
  -2  -6  -1   42.86    9.94
  -2  -6  -1   51.10   10.07
  -2  -6  -1   51.32    8.98
  -2   6   1   46.48    9.01
  -2   6   1   30.52   11.22
   2  -6  -1   32.29    8.22
   2  -6  -1   38.59    9.71
  -2   6  -1   61.03   15.19
  -2   6  -1   45.44   11.97
   2   6   1   41.45   11.88
   2  -6  -1   56.18   10.41
  -2   0   2 7365.59  140.30
   2   0   2 7016.23  139.23
  -2   0  -2 7345.45  140.03
  -2   0  -2 7341.54  140.55
   2   0  -2 7289.39  140.22
   2   0  -2 7269.00  139.88
   2   0  -2 7328.18  140.03
  -2   0   2 7277.62  140.28
   2   0   2 7168.89  140.41
  -2   0   2 7199.69  139.07
  -2   0   2 7118.69  139.91
  -2   0  -2 7246.74  140.27
   2   0   2 7104.96  140.08
   2   0   2 7071.87  140.26
   2  -1   2  100.85    7.01
   2   1  -2   99.76    5.34
   2  -1   2  108.45    7.00
   2   1  -2  107.23    5.83
  -2  -1  -2   70.93    7.74
   2   1  -2  119.15    6.79
  -2   1   2   98.24    7.72
  -2  -1  -2   66.75    7.61
  -2   1   2  107.85    8.42
   2   1  -2   95.78    5.79
   2  -1   2  108.92    5.96
   2  -1   2  108.20    7.16
  -2   1   2  106.15    8.30
  -2   1   2   83.99    7.92
   2   1  -2   86.21    6.03
   2   1  -2  126.80    8.41
   2   1   2   99.41    8.24
  -2   1  -2   97.67    6.33
   2  -1  -2   98.19    8.79
  -2   1  -2   98.49    6.44
  -2  -1   2  108.66    5.40
  -2  -1   2   76.98    6.40
   2  -1  -2  122.33    8.68
  -2   1  -2  112.43    8.76
  -2   1  -2   96.83    6.14
  -2  -1   2   89.44    6.50
   2   1   2  128.68    7.92
  -2  -1   2   85.71    6.54
   2  -1  -2   99.07    8.61
  -2   1  -2  100.07    6.49
  -2  -2  -2 4393.73   88.77
  -2   2   2 4200.47   89.21
  -2  -2  -2 4169.26   90.02
  -2   2   2 4341.61   89.40
   2  -2   2 4498.18   86.03
   2   2  -2 4499.93   90.32
  -2   2   2 4292.35   89.35
   2  -2   2 4491.56   86.15
  -2  -2  -2 4191.33   89.97
  -2   2   2 4389.14   88.73
   2   2  -2 4521.04   92.62
   2  -2   2 4560.77   85.98
  -2   2  -2 4567.54   90.19
  -2   2  -2 4427.26   93.09
   2  -2  -2 4161.43   89.96
  -2  -2   2 4463.30   84.59
  -2  -2   2 4461.51   84.77
   2  -2  -2 4378.45   89.09
   2  -2  -2 4277.59   90.49
   2   2   2 4314.65   89.22
  -2  -2   2 4385.95   84.74
   2   2   2 4274.08   89.09
   2   2   2 4229.20   88.39
  -2  -2   2 4498.65   84.65
  -2   2  -2 4497.78   85.66
  -2   2  -2 4592.53   88.58
  -2  -2   2 4397.30   84.86
   2   2   2 4291.27   88.85
  -2   3   2  350.72   14.01
   2  -3   2  241.90    9.51
  -2   3   2  362.13   13.77
  -2  -3  -2  343.69   13.16
   2  -3   2  266.01    9.43
   2   3  -2  266.23   11.18
   2  -3   2  236.59    9.74
  -2  -3  -2  313.38   15.23
   2  -3   2  251.95    9.77
   2   3  -2  259.39   15.63
   2   3  -2  261.60   13.81
  -2  -3  -2  309.53   14.81
  -2   3   2  369.99   14.06
  -2   3  -2  281.48   16.46
  -2   3  -2  239.62   13.41
  -2   3  -2  246.58   12.00
   2  -3  -2  291.87   14.79
   2   3   2  358.27   13.69
   2  -3  -2  330.79   14.26
   2  -3  -2  364.91   13.71
   2   3   2  331.21   12.98
   2  -3  -2  287.11   14.92
   2   3   2  337.22   12.75
   2   3   2  321.20   13.30
  -2   4   2 1296.58   34.33
  -2   4   2 1272.76   33.90
   2   4  -2 1333.00   37.75
  -2   4   2 1276.74   33.13
   2   4  -2 1339.72   41.80
   2   4  -2 1381.75   31.78
  -2  -4  -2 1311.23   36.20
   2  -4   2 1347.71   30.15
  -2   4   2 1367.08   34.86
   2  -4   2 1332.53   29.87
  -2   4   2 1357.58   38.90
  -2  -4  -2 1352.86   36.61
  -2   4  -2 1350.43   38.21
   2  -4  -2 1282.36   35.19
   2  -4  -2 1274.31   36.23
   2   4   2 1270.29   37.34
   2   4   2 1292.75   34.28
  -2   4  -2 1260.23   41.13
   2   4   2 1318.66   33.69
   2  -4  -2 1241.97   36.14
  -2   4  -2 1353.53   33.51
  -2   5   2  148.52   15.48
  -2  -5  -2  229.86   15.31
   2   5  -2  186.32   16.09
  -2   5   2  172.47   13.61
   2   5  -2  146.81   17.69
   2  -5   2  168.09    9.66
  -2  -5  -2  220.80   15.53
  -2   5   2  175.93   12.33
  -2  -5  -2  185.55   13.75
   2  -5  -2  196.20   15.57
   2   5   2  197.03   13.46
   2  -5  -2  188.51   15.27
  -2   5  -2  136.74   15.04
   2   5   2  183.75   15.61
  -2   5  -2  136.42   17.23
   2  -5  -2  198.15   14.35
  -2   5  -2  137.81   11.07
  -2   6   2  585.24   23.66
   2   6  -2  508.77   30.45
  -2   6   2  579.65   28.91
  -2  -6  -2  559.40   23.71
   2   6  -2  513.39   27.37
  -2  -6  -2  566.74   25.51
  -2  -6  -2  573.18   25.70
   2   6   2  600.17   23.48
  -2   6  -2  519.07   31.45
   2  -6  -2  550.26   24.38
   2  -6  -2  566.70   26.27
   2   6   2  559.25   28.68
  -2   6  -2  555.30   28.25
   2  -6  -2  587.71   25.63
  -2   0   3   64.62    7.68
   2   0   3   54.76    7.41
   2   0   3   60.69    7.69
  -2   0   3   59.92    6.49
   2   0  -3   64.51    7.57
  -2   0  -3   63.35    7.65
  -2   0  -3   73.27    8.01
   2   0  -3   52.43    6.84
  -2   0  -3   68.03    7.81
   2   0   3   79.53    7.70
   2   0   3   65.28    7.47
  -2   0   3   68.54    7.77
  -2   0   3   71.46    7.54
   2   0  -3   55.91    7.26
  -2  -1  -3  197.89   12.25
  -2   1   3  176.06   10.94
   2  -1   3  193.83    8.57
   2   1  -3  197.56   11.41
  -2   1   3  185.90   11.26
  -2  -1  -3  191.35   11.09
   2  -1   3  213.37   10.47
  -2   1   3  171.14   11.36
   2  -1   3  188.46   10.07
   2   1  -3  199.22    9.04
   2   1  -3  191.13    8.70
  -2  -1  -3  175.54   11.79
   2  -1   3  207.40   10.40
   2   1  -3  191.83    9.82
  -2   1   3  194.38   10.44
  -2  -1   3  190.22    9.68
  -2   1  -3  206.73    9.39
  -2  -1   3  207.78    8.38
   2  -1  -3  167.99   11.43
  -2   1  -3  205.69   12.57
   2  -1  -3  203.21   11.41
   2   1   3  195.81   11.62
  -2  -1   3  189.40   10.03
  -2  -1   3  203.61    8.32
   2   1   3  195.60   10.31
   2  -1  -3  179.75   11.51
  -2  -1   3  180.83    9.79
   2   1   3  190.86   11.38
  -2   1  -3  186.52    9.82
  -2   1  -3  201.00    9.74
   2   1   3  178.87   11.65
   2   2  -3  105.27    7.45
   2   2  -3   88.90    5.58
  -2   2   3   86.55    9.63
  -2  -2  -3   98.29   10.40
  -2   2   3  103.67    9.57
   2   2  -3  110.75   11.04
   2  -2   3   85.20    7.59
   2   2  -3   86.45    6.25
   2  -2   3   88.24    7.61
  -2  -2  -3   94.96    9.72
  -2  -2  -3   88.91   10.43
  -2   2   3   85.52    9.65
  -2   2   3   79.21    9.19
   2  -2   3   98.94    7.62
   2  -2  -3   94.68    9.57
  -2   2  -3  118.86   11.96
  -2   2  -3   94.45    6.98
   2   2   3   83.82    9.47
   2   2   3   98.65    9.61
  -2  -2   3   90.89    7.12
  -2   2  -3  106.92    7.75
   2   2   3  105.47   10.24
   2  -2  -3   95.27   10.21
  -2   2  -3   93.21    5.42
   2   2   3   93.07    9.86
  -2   2  -3  106.23    9.15
   2  -2  -3  103.66   11.12
  -2  -2   3   93.50    7.00
  -2  -2   3   91.72    6.95
  -2   3   3  127.73   10.87
  -2  -3  -3  129.64   10.70
  -2   3   3  136.40   11.54
  -2   3   3  112.48   11.05
  -2   3   3  135.71   12.09
  -2  -3  -3  142.14   12.56
   2   3  -3  139.90   11.33
   2  -3   3  130.45    8.28
  -2  -3  -3  122.81   13.22
   2   3  -3  130.26   13.68
   2  -3   3  114.50    8.15
   2  -3   3  126.66    7.83
  -2  -3   3   94.84    7.03
   2   3   3  132.67   11.69
   2  -3  -3  135.76   13.01
  -2  -3   3  122.64    7.23
   2  -3  -3  138.95   10.95
   2   3   3  132.08   11.57
  -2   3  -3  122.46   13.32
   2   3   3  136.58   11.99
  -2   3  -3  146.25   10.19
   2  -3  -3  124.20   12.83
  -2   3  -3  135.08   11.55
   2   3   3  128.23   11.60
   2  -3  -3  131.43   12.89
  -2   4   3  186.74   13.94
   2   4  -3  182.84   14.05
  -2  -4  -3  210.22   15.58
   2  -4   3  190.53    9.57
   2  -4   3  191.70    9.50
  -2   4   3  188.46   13.38
   2   4  -3  193.65   19.20
  -2   4   3  197.33   13.43
  -2  -4  -3  172.89   15.16
  -2   4   3  202.93   13.66
  -2   4  -3  205.21   17.49
  -2   4  -3  215.13   12.85
   2  -4  -3  204.10   14.70
   2   4   3  167.26   12.73
   2   4   3  186.86   13.73
   2   4   3  190.63   12.91
   2  -4  -3  189.34   15.37
   2  -4  -3  198.98   15.76
   2   4   3  178.38   14.43
  -2   4  -3  206.49   14.98
  -2  -5  -3   38.83   11.09
  -2  -5  -3   39.44   11.52
   2   5  -3   36.53   11.86
  -2   5   3   41.83   11.24
   2   5  -3   25.71    9.36
  -2   5   3   35.45   10.15
  -2  -5  -3   37.32    9.54
  -2   5   3   37.63    8.91
  -2   5  -3   48.70   13.28
   2  -5  -3   18.89   10.10
   2   5   3   35.83   10.54
  -2   5  -3   35.85    8.12
  -2   5  -3   38.18   10.34
   2  -5  -3   48.06   10.62
   2   5   3   38.51   10.12
   2  -5  -3   55.13   11.80
  -2   6   3   75.84   13.00
   2   6  -3   65.61   13.84
  -2   6   3   85.74   15.66
  -2  -6  -3   86.43   15.00
  -2  -6  -3   59.41   12.31
  -2  -6  -3   68.33   14.49
   2   6  -3   39.98   14.20
   2  -6  -3   72.94   14.77
  -2   6  -3   76.95   17.04
   2   6   3   91.84   16.30
   2  -6  -3   71.78   13.21
   2  -6  -3   68.49   14.31
  -2   6  -3   57.52   12.83
   2   6   3   95.03   13.85
   2   0   4 2592.58   58.91
  -2   0   4 2494.88   58.78
   2   0  -4 2641.86   58.85
   2   0   4 2580.42   59.49
  -2   0  -4 2582.69   58.56
  -2   0  -4 2590.36   59.30
  -2   0   4 2573.75   58.62
   2   0   4 2526.88   56.78
  -2   0  -4 2596.16   58.82
  -2   0   4 2601.23   59.26
   2   0  -4 2574.17   58.44
   2   0  -4 2608.06   58.28
   2   0   4 2590.59   59.46
  -2   0   4 2518.65   56.42
   2  -1   4  100.71   10.04
  -2   1   4  103.48   10.89
   2   1  -4   99.73    9.25
  -2   1   4   85.34   10.73
   2   1  -4  126.90   10.33
   2   1  -4   92.17    9.01
   2   1  -4  134.50   11.33
  -2  -1  -4   98.26   11.58
   2   1  -4  114.23    8.95
   2  -1   4   86.34    9.73
  -2  -1  -4   77.78   10.37
   2  -1   4  108.11    8.90
   2  -1   4  101.86   10.34
  -2   1   4  103.44   11.28
   2   1   4   91.92   10.54
   2   1   4  121.58   10.56
  -2  -1   4   99.83   10.19
  -2  -1   4  128.86    8.35
   2  -1  -4   94.94   11.17
  -2   1  -4  122.45   10.52
  -2  -1   4   99.99   10.05
  -2   1  -4  111.23   12.31
   2   1   4  106.69   11.29
  -2   1  -4   90.86    9.17
   2  -1  -4  103.96   11.48
  -2   1  -4  101.23    8.98
   2   1   4   90.53   10.45
  -2  -1   4  108.47    8.10
  -2  -1   4   90.97    9.40
  -2   2   4 1852.53   45.60
  -2  -2  -4 1804.95   48.31
   2   2  -4 1837.94   48.89
  -2   2   4 1781.30   46.45
  -2  -2  -4 1787.98   46.39
  -2   2   4 1809.29   47.07
   2  -2   4 1856.34   43.11
   2   2  -4 1813.07   40.52
  -2  -2  -4 1803.60   48.05
   2   2  -4 1950.99   43.13
  -2   2   4 1776.74   46.79
   2   2  -4 1855.51   38.94
   2  -2   4 1860.14   43.79
   2  -2   4 1863.22   43.81
  -2  -2   4 1840.05   42.59
  -2   2  -4 1719.59   41.30
  -2   2  -4 1840.57   43.02
   2   2   4 1803.31   45.46
   2  -2  -4 1746.08   46.23
   2   2   4 1832.39   47.01
   2  -2  -4 1837.03   48.15
  -2   2  -4 1835.71   40.38
   2   2   4 1850.25   47.51
  -2  -2   4 1902.47   43.32
  -2  -2   4 1875.18   43.42
  -2   2  -4 1857.57   50.33
   2  -2  -4 1800.64   47.97
   2   2   4 1801.48   46.73
  -2  -3  -4  197.78   15.51
  -2   3   4  195.15   13.96
   2  -3   4  135.27   10.52
   2   3  -4  147.27    9.71
  -2  -3  -4  195.14   14.23
  -2   3   4  209.69   14.95
  -2   3   4  216.79   15.14
   2  -3   4  134.06    9.90
  -2  -3  -4  210.29   16.52
   2  -3   4  128.42   10.43
   2   3  -4  122.75   14.05
   2  -3  -4  182.82   15.19
  -2   3  -4  125.90   14.93
   2   3   4  178.62   14.08
   2  -3  -4  197.52   15.88
  -2   3  -4  108.83    9.83
   2   3   4  193.56   14.35
  -2  -3   4  122.96    9.23
  -2  -3   4  114.51    9.76
   2   3   4  177.72   13.87
  -2  -3   4  125.69   10.13
  -2   4   4  965.23   32.52
  -2   4   4  989.93   32.60
   2   4  -4  990.67   38.04
   2  -4   4 1017.30   27.91
  -2  -4  -4 1108.37   36.89
  -2   4   4 1049.38   33.62
  -2   4   4 1032.26   33.80
   2  -4   4 1030.18   25.93
   2  -4   4 1033.50   27.52
  -2  -4  -4 1011.21   35.93
   2  -4  -4 1005.53   35.58
   2   4   4 1028.90   33.38
  -2   4  -4  998.73   38.28
   2   4   4 1058.97   34.14
   2  -4  -4  992.76   34.15
  -2  -4   4 1035.04   26.11
   2   4   4  987.88   32.99
  -2  -4   4 1045.54   26.48
   2  -4  -4 1037.67   36.14
  -2  -5  -4  149.43   17.90
   2   5  -4  162.63   19.99
  -2  -5  -4  142.88   16.40
  -2   5   4  141.34   15.70
  -2   5   4  135.87   16.33
  -2  -5  -4  152.87   18.07
  -2   5  -4  115.32   17.48
   2   5   4  138.12   15.47
   2  -5  -4  163.44   17.44
   2  -5  -4  146.95   17.80
   2  -5  -4  173.06   19.15
   2   5   4  137.82   16.34
  -2   5  -4   93.58   14.54
   2   6  -4  295.48   26.19
  -2  -6  -4  289.86   21.79
  -2  -6  -4  349.53   26.80
  -2   6   4  310.30   21.86
  -2   6   4  336.47   25.04
  -2  -6  -4  339.25   26.00
  -2   6  -4  287.54   29.23
   2   6   4  301.55   22.07
   2  -6  -4  277.08   23.25
  -2   6  -4  348.27   24.47
   2   6   4  317.07   24.21
   2  -6  -4  350.87   26.48
   2  -6  -4  330.04   25.53
   2   0  -5   69.17   10.04
   2   0  -5   76.25   10.88
  -2   0   5   74.01   11.31
  -2   0  -5   83.53   10.63
   2   0  -5   72.23   10.27
   2   0   5   62.61   10.46
  -2   0  -5  101.23   12.87
   2   0   5   70.79    9.29
  -2   0   5   49.79    9.77
   2   0   5   65.73   10.79
  -2   0   5   61.91    8.65
  -2   0   5   78.98   11.05
  -2   0  -5   75.90   10.71
   2   0   5   69.71   11.03
   2   1  -5   56.99   10.81
  -2   1   5   62.27   10.48
  -2   1   5   70.34   11.19
   2   1  -5   63.05    8.83
   2   1  -5   78.29    9.17
   2  -1   5   79.92   10.95
   2  -1   5   66.72   10.21
  -2   1   5   70.39   11.73
  -2  -1  -5   57.92   10.99
  -2  -1  -5   83.29   11.01
   2   1  -5   73.91    9.48
   2   1  -5   78.58   10.49
   2  -1   5   89.27   11.30
  -2  -1  -5   81.60   11.98
  -2   1   5   59.16    9.58
  -2   1  -5   68.35    9.33
  -2  -1   5   66.13   10.31
   2   1   5   56.68    9.47
   2  -1  -5   68.31   10.94
  -2   1  -5   73.48   10.49
   2   1   5   64.12   10.92
  -2  -1   5   66.09    9.99
  -2   1  -5   72.87   12.21
  -2  -1   5   86.29   10.91
   2   1   5   76.30   11.62
  -2   1  -5   68.65    8.88
   2  -1  -5   60.66   10.44
   2  -1  -5   75.69   11.30
   2   1   5   81.22   11.63
  -2   2   5   84.63   12.76
  -2  -2  -5   81.30   13.06
   2  -2   5   87.51   10.62
   2  -2   5   93.60   11.15
   2   2  -5  102.13   13.43
  -2   2   5  102.74   12.59
  -2   2   5   87.19   12.52
   2  -2   5   81.67   10.88
  -2  -2  -5   81.76   12.81
  -2   2   5   90.14   12.86
  -2  -2  -5   83.54   12.56
   2   2  -5   88.61   10.49
   2  -2  -5   80.02   13.45
   2   2   5   77.66   10.94
  -2   2  -5   96.01   14.36
  -2  -2   5   78.36   10.46
   2  -2  -5   57.64   11.27
  -2   2  -5   95.10   11.46
  -2  -2   5   78.99    9.87
  -2  -2   5   81.14   10.64
   2   2   5   95.16   12.94
   2   2   5   92.20   13.07
   2   2   5   68.77   11.83
   2  -2  -5   89.05   12.15
   2  -3   5   22.71    7.55
   2  -3   5   10.05    7.13
   2   3  -5   -0.46    6.13
   2  -3   5   11.79    6.59
  -2   3   5   12.45    9.11
   2   3  -5    2.33    7.78
  -2  -3  -5    4.79    9.20
  -2   3   5    9.96    8.91
  -2   3   5   20.33    8.80
  -2  -3  -5   13.71    9.59
  -2   3   5    5.24    8.62
   2   3   5   14.75    9.56
   2  -3  -5   11.87    9.46
  -2   3  -5    7.71    8.81
  -2  -3   5    0.38    5.37
   2   3   5   15.52    9.17
  -2  -3   5   13.18    6.49
   2  -3  -5   11.39    9.06
   2   3   5   18.29    8.69
  -2   3  -5   12.16    6.89
   2   3   5    4.46    8.85
   2  -3  -5   11.26    8.17
   2  -3  -5   -4.77    7.98
  -2  -3   5   -3.61    6.36
   2  -4   5   37.29    8.74
  -2   4   5   40.25   10.87
   2   4  -5   36.88   12.11
   2  -4   5   59.54    9.38
  -2  -4  -5   20.22   11.28
  -2   4   5   22.37   10.82
  -2  -4  -5   45.03   13.07
  -2   4   5   32.90   10.07
  -2   4   5   26.52   10.78
   2  -4   5   37.33    7.60
   2   4   5   28.21   10.13
  -2  -4   5   26.83    6.63
  -2   4  -5   37.65   12.84
  -2  -4   5   22.78    7.44
   2  -4  -5   34.38   12.34
   2   4   5   37.77   10.70
   2   4   5   45.86   11.32
   2  -4  -5   43.68   11.70
   2  -4  -5   31.06   12.13
  -2  -4   5   35.90    7.80
  -2   5   5    6.72   10.01
  -2  -5  -5   16.34   11.84
  -2  -5  -5   11.26   11.31
   2   5  -5   -0.16    9.96
  -2   5   5    2.91    9.74
  -2  -5  -5   22.48   11.84
   2   5   5   14.88   10.52
   2   5   5    9.94    9.56
   2   5   5   -1.13   10.00
   2  -5  -5    0.11   11.44
   2  -5  -5    6.67   10.84
   2  -5  -5   22.50   12.70
  -2   5  -5    7.30   11.59
   2   0  -6  518.55   23.27
  -2   0  -6  523.08   23.79
   2   0   6  549.75   25.50
  -2   0   6  515.29   24.47
   2   0   6  525.32   24.81
   2   0  -6  530.39   22.95
  -2   0   6  517.19   24.01
   2   0  -6  566.64   23.96
   2   0   6  540.01   24.61
  -2   0  -6  565.88   23.75
   2   0  -6  527.25   24.01
  -2   0  -6  582.40   24.86
  -2   0   6  565.86   25.41
  -2  -1  -6   80.64   12.33
   2  -1   6   46.47   10.34
   2   1  -6   70.31    9.90
   2  -1   6   38.64   10.64
   2   1  -6   66.78   11.12
  -2   1   6   92.29   12.34
   2   1  -6   69.87   10.03
  -2   1   6   81.88   11.43
   2   1  -6   81.15   12.52
   2  -1   6   41.58   10.94
  -2   1   6   85.60   13.11
   2   1   6   48.86   10.96
  -2  -1   6   64.04   10.67
  -2  -1   6   79.70   12.03
  -2  -1   6   81.54   12.31
   2  -1  -6   92.60   13.62
   2  -1  -6   61.91   11.42
   2  -1  -6   84.77   12.58
   2   1   6   43.76   11.24
  -2   1  -6   33.40    9.68
   2   1   6   66.49   12.36
  -2   1  -6   60.00   12.48
  -2   1  -6   30.41    7.99
  -2  -2  -6  821.10   34.20
  -2   2   6  932.95   35.10
  -2  -2  -6  841.87   33.34
  -2   2   6  891.81   31.66
   2   2  -6  927.58   30.54
  -2  -2  -6  783.32   33.26
   2   2  -6  955.27   36.10
   2  -2   6  887.28   31.70
   2  -2   6  868.14   30.51
   2  -2   6  902.40   32.00
  -2   2   6  934.40   35.08
  -2   2   6  903.49   32.39
  -2   2   6  865.04   33.82
  -2   2  -6  845.95   36.23
   2   2   6  945.28   35.72
   2   2   6  835.11   33.50
   2   2   6  885.65   33.94
   2  -2  -6  864.81   33.63
  -2  -2   6  940.01   31.22
   2  -2  -6  947.63   35.72
  -2  -2   6  956.25   31.74
  -2   2  -6  894.97   30.75
   2   2   6  829.63   31.72
   2  -2  -6  910.37   34.18
  -2  -2   6  923.92   29.95
   2  -2  -6  854.99   34.66
   2   3  -6   68.32   11.19
  -2   3   6  124.32   16.49
   2  -3   6   87.86   11.81
  -2  -3  -6  112.77   16.61
   2   3  -6   71.54   14.18
   2  -3   6   76.33   12.17
   2  -3   6   76.92   12.35
  -2   3   6  135.52   17.36
  -2   3   6  117.18   15.06
  -2   3   6  127.73   16.93
  -2  -3  -6   95.70   15.87
  -2   3   6  101.35   14.62
  -2  -3   6   75.02   10.96
   2   3   6  124.42   16.60
   2   3   6  113.35   16.18
  -2   3  -6   86.91   15.31
  -2   3  -6   70.91   11.21
  -2  -3   6   65.03   11.15
   2   3   6  112.84   16.37
  -2  -3   6   89.70   11.91
   2   3   6   90.66   14.76
   2  -3  -6   97.72   15.67
   2  -3  -6  138.15   17.76
   2  -3  -6  126.51   17.35
   2  -4   6  453.99   19.82
  -2   4   6  398.97   23.98
  -2  -4  -6  456.00   28.56
   2  -4   6  440.71   21.98
   2   4  -6  475.25   29.19
  -2   4   6  421.77   26.57
   2  -4   6  425.81   21.11
  -2   4   6  439.44   25.59
  -2  -4  -6  443.63   28.70
  -2   4   6  444.32   26.43
  -2  -4  -6  390.62   26.82
   2  -4  -6  450.39   27.74
   2  -4  -6  485.54   30.09
  -2  -4   6  470.24   31.58
   2   4   6  406.48   25.40
  -2   4  -6  460.87   29.48
   2   4   6  473.44   26.87
   2   4   6  381.00   24.09
  -2   4  -6  438.30   20.22
  -2  -4   6  430.18   20.64
   2  -4  -6  466.90   29.34
   2   0   7   52.88   12.81
   2   0  -7   90.92   15.90
   2   0  -7   87.00   15.19
  -2   0   7   62.98   13.68
  -2   0   7   68.90   14.15
  -2   0   7   58.98   13.42
   2   0   7   77.34   15.36
  -2   0  -7   70.41   12.88
   2   0  -7   93.95   13.94
   2   0  -7   62.66   12.45
  -2   0  -7   61.75   13.49
   2   0   7   57.95   13.53
   2   1  -7   24.75   10.56
  -2  -1  -7   28.80   11.74
  -2  -1  -7   23.19   10.54
   2  -1   7   23.41   11.05
  -2   1   7   14.29   11.02
  -2   1   7   11.95   11.27
   2  -1   7   26.50   11.15
   2   1  -7   15.62   10.01
   2  -1   7   26.13   10.31
  -2   1   7   21.32   10.76
  -2  -1  -7    8.96    9.42
  -2   1  -7   21.36   10.38
  -2  -1   7   -2.26    8.57
   2  -1  -7   14.55    9.92
   2   1   7   17.45   11.30
   2   1   7   26.18   12.41
   2   1   7   29.31   12.67
  -2   1  -7   30.29   11.48
  -2  -1   7   11.23    9.60
   2  -1  -7   10.52    9.17
   2  -1  -7   27.92   11.13
   2  -1  -7   20.05   11.22
  -2  -1   7   29.47   11.34
  -2   2   7   17.17   11.62
  -2   2   7    5.22   10.85
  -2   2   7   10.22   11.75
   2   2  -7   -0.37    9.02
  -2  -2  -7    0.50   10.75
   2  -2   7   18.58   10.14
  -2   2   7   -8.86    8.21
   2   2  -7    1.55    9.03
  -2   2   7    5.71    9.49
   2  -2   7    7.70    9.03
  -2  -2  -7   -5.93    9.92
   2  -2   7   17.75   10.87
  -2  -2  -7    7.32    9.86
   2  -2  -7   -1.91    9.95
   2   2   7   28.25   12.14
   2  -2  -7    6.88   10.69
  -2   2  -7    0.36    7.71
  -2  -2   7   -1.62    8.87
   2   2   7   -0.46   10.59
  -2  -2   7  -13.32    8.90
  -2  -2   7   14.88   10.15
  -2   2  -7    7.79   10.40
   2  -2  -7   12.68   10.34
   2   2   7    2.49    9.29
   2  -2  -7   27.16   11.72
   2   2   7   26.29   11.83
  -2   3   7   27.84   11.38
   2  -3   7   47.78   11.93
   2  -3   7   36.13   12.23
   2  -3   7   36.92   11.01
   2   3  -7   55.73   14.70
  -2   3   7   24.39   12.94
   2   3  -7   45.69   11.52
  -2   3   7   41.61   14.02
  -2   3   7   36.32   11.62
  -2   3   7   44.26   13.91
  -2  -3  -7   42.16   15.07
  -2  -3  -7   47.80   14.47
  -2   3  -7   53.68   12.23
   2   3   7   45.56   12.87
   2  -3  -7   45.17   14.57
  -2   3  -7   22.66   13.02
   2   3   7   55.17   15.08
   2  -3  -7   36.21   13.39
  -2  -3   7   23.71   11.05
   2  -3  -7   59.54   16.12
  -2  -3   7   41.70   10.55
  -2  -3   7   17.14   10.38
   2   3   7   37.86   13.67
   2   3   7   33.69   14.05
  -2   0   8  496.92   29.55
   2   0   8  438.58   29.17
  -2   0  -8  440.10   29.51
   2   0  -8  477.26   28.51
  -2   0   8  435.19   28.81
   2   0  -8  506.61   28.97
  -2   0  -8  476.05   28.04
  -2   0   8  483.90   28.29
   2   0   8  468.38   28.14
   2   0   8  453.70   29.86
  -2  -1  -8   70.42   15.27
  -2   1   8   35.53   13.81
   2   1  -8   55.34   13.69
  -2   1   8   67.95   15.75
   2  -1   8   28.46   13.43
   2   1  -8   35.69   13.23
  -2  -1  -8   49.33   13.81
  -2   1   8   73.97   16.05
   2  -1   8   40.75   13.68
  -2  -1  -8   67.15   14.49
   2  -1   8   33.36   12.26
   2   1   8   51.91   14.22
  -2  -1   8   31.59   12.18
   2  -1  -8   59.67   14.38
  -2  -1   8   45.83   13.36
  -2   1  -8   15.93   11.20
  -2   1  -8   19.52   11.57
  -2  -1   8   36.39   12.09
   2  -1  -8   52.53   13.82
   2   1   8   32.83   13.58
   2   1   8   34.85   13.39
   2  -1  -8   56.52   13.38
  -2  -2  -8  361.96   28.65
  -2  -2  -8  338.76   27.78
  -2   2   8  316.48   27.76
   2   2  -8  365.91   27.81
  -2   2   8  410.90   30.30
  -2  -2  -8  328.77   26.65
  -2  -2  -8  338.35   27.05
   2   2  -8  405.42   25.21
   2  -2   8  376.51   25.52
  -2   2   8  354.36   27.40
   2  -2   8  369.43   27.14
   2  -2   8  371.35   24.88
  -2   2  -8  344.31   24.04
   2  -2  -8  349.35   27.05
   2   2   8  357.88   28.85
   2   2   8  402.11   28.96
  -2   2  -8  375.08   28.61
   2  -2  -8  335.49   27.43
  -2  -2   8  341.41   24.38
   2  -2  -8  366.16   27.35
  -2  -2   8  393.36   25.48
  -2  -2   8  377.39   26.06
   2   2   8  335.38   28.27
   2  -2  -8  411.56   29.18
  -3   0   0    0.78    1.77
   3   0   0   -2.32    2.04
   3   0   0   -1.62    1.91
  -3   0   0   -1.67    1.83
   3   0   0   -3.44    1.88
  -3   0   0   -0.87    1.88
   3   0   0   -0.89    1.89
  -3   0   0   -3.37    1.40
  -3   0   0    2.91    2.05
  -3   0   0    3.19    2.10
  -3   1   0 2177.51   44.90
  -3  -1   0 2210.81   43.02
   3   1   0 2224.64   42.85
  -3   1   0 2196.84   44.33
   3  -1   0 2110.59   43.81
  -3   1   0 2179.48   43.87
  -3  -1   0 2192.96   42.86
   3   1   0 2213.51   42.18
  -3   1   0 2209.51   43.89
  -3  -1   0 2208.22   43.10
   3   1   0 2221.31   42.52
  -3   1   0 2170.26   43.50
  -3   1   0 2173.35   43.97
   3  -1   0 2145.24   43.94
   3   1   0 2208.11   44.21
   3   1   0 2226.14   42.85
  -3  -1   0 2225.73   43.00
  -3  -1   0 2223.15   43.01
  -3   1   0 2242.12   44.49
   3  -1   0 2286.36   44.12
   3  -1   0 2153.09   44.04
  -3   1   0 2238.62   44.08
   3  -2   0   20.41    3.90
  -3  -2   0   -1.30    3.36
   3   2   0   10.11    5.01
  -3   2   0   20.22    3.56
  -3  -2   0   -3.68    3.12
   3  -2   0   18.38    4.00
   3  -2   0   18.88    4.07
  -3  -2   0   -0.25    2.84
  -3  -2   0   -0.63    3.00
   3   2   0   27.61    4.67
  -3  -2   0   -2.60    2.82
   3   3   0 2021.14   40.17
   3  -3   0 1984.75   42.71
  -3   3   0 2053.14   47.11
  -3   3   0 2024.62   48.72
  -3   3   0 1978.25   42.75
  -3  -3   0 1963.52   41.24
  -3  -3   0 1927.45   41.06
  -3  -3   0 2017.08   41.71
  -3  -3   0 1990.76   41.81
   3  -3   0 2008.57   43.31
   3   3   0 2045.81   46.72
  -3   3   0 1998.93   43.79
   3  -3   0 2036.20   43.34
  -3   3   0 2039.11   42.19
   3   3   0 2045.79   49.65
   3   4   0  440.34   18.86
   3   4   0  420.10   11.83
   3  -4   0  453.32   15.72
  -3   4   0  453.12   15.70
  -3   4   0  437.65   20.94
   3  -4   0  427.52   14.66
   3  -4   0  432.46   15.56
  -3   4   0  480.48   19.53
  -3   4   0  438.46   15.07
  -3  -4   0  413.26   14.21
  -3  -4   0  466.76   13.40
  -3   4   0  434.01   14.17
  -3  -4   0  411.12   14.28
   3  -5   0  820.25   23.75
  -3   5   0  808.53   32.94
  -3   5   0  827.72   30.38
  -3  -5   0  864.42   21.95
   3   5   0  840.73   30.53
   3  -5   0  824.94   25.06
  -3   5   0  831.69   24.59
   3  -5   0  821.83   24.89
  -3  -5   0  845.28   23.21
  -3  -5   0  883.41   23.43
  -3   6   0  154.96   17.51
  -3  -6   0  176.37   12.60
   3  -6   0  157.75   13.87
   3   6   0  126.15   15.91
  -3   7   0  266.39   23.48
   3   7   0  286.17   24.47
  -3   0  -1   -4.93    2.93
  -3   0   1   -4.34    2.57
   3   0   1   -1.53    3.24
   3   0   1   -5.12    3.17
  -3   0  -1   -4.52    3.24
   3   0   1   -3.16    3.17
  -3   0   1   -5.23    2.79
  -3   0  -1   -3.44    2.67
  -3   0  -1   -2.71    3.37
  -3   0   1   -5.90    2.93
   3   0   1   -3.91    3.11
   3   0  -1   -4.40    2.79
   3   0  -1   -2.91    3.11
  -3   0   1   -3.32    3.00
   3   0  -1   -3.68    2.89
   3   0  -1   -3.37    3.04
   3   0  -1   -1.54    2.22
  -3  -1  -1 2245.42   47.53
   3   1  -1 2433.01   48.54
   3  -1   1 2336.75   46.37
  -3   1   1 2270.21   46.83
  -3  -1  -1 2292.75   47.70
  -3   1   1 2231.55   47.33
  -3   1   1 2260.99   47.48
   3  -1   1 2333.91   46.34
   3   1  -1 2315.74   44.49
  -3  -1  -1 2233.36   46.77
   3  -1   1 2350.10   46.15
  -3   1   1 2200.54   47.37
   3  -1   1 2360.55   45.72
   3   1  -1 2344.37   47.53
   3   1   1 2318.04   47.29
  -3  -1   1 2387.80   44.82
  -3  -1   1 2408.34   44.91
   3   1   1 2202.36   46.93
  -3  -1   1 2309.27   44.84
   3   1   1 2241.10   46.77
  -3   1  -1 2379.52   47.07
  -3  -1   1 2408.70   44.67
  -3   1  -1 2283.41   48.85
   3  -1  -1 2190.07   47.38
  -3   1  -1 2339.92   45.75
  -3   1  -1 2326.49   45.87
   3   1   1 2288.27   47.10
  -3  -1   1 2324.93   44.91
   3  -1  -1 2210.61   47.78
  -3   1  -1 2367.25   47.10
   3  -1  -1 2228.15   47.79
  -3   1  -1 2327.40   45.94
   3  -1  -1 2253.31   47.36
  -3  -1   1 2319.14   44.68
  -3   1  -1 2381.92   46.05
  -3  -2  -1   89.14    7.36
  -3   2   1   92.20    6.91
  -3   2   1   91.95    6.65
  -3   2   1   83.42    6.95
   3  -2   1   91.96    5.64
   3   2  -1   82.88    4.84
  -3  -2  -1   97.04    6.39
   3   2  -1   92.48    7.44
   3  -2   1   89.90    5.34
   3  -2   1   91.21    5.52
   3  -2   1   84.86    5.32
  -3   2   1   83.21    6.56
   3   2  -1   93.59    8.94
  -3  -2  -1   75.20    6.87
   3  -2  -1   81.60    7.14
   3   2   1   90.17    6.62
  -3   2  -1   91.63    5.48
   3   2   1   80.18    6.25
   3   2   1   93.28    7.13
   3   2   1   77.73    6.03
   3  -2  -1   81.94    6.86
  -3   2  -1   86.31    6.98
   3   2   1   93.16    6.56
   3  -2  -1   84.03    7.45
   3   2   1   85.72    6.06
  -3   2  -1   87.60    6.51
   3  -2  -1   86.26    7.47
  -3   2  -1   93.89    8.53
  -3   2  -1   92.32    5.35
   3  -3   1  208.37    8.25
  -3   3   1  214.27   12.17
   3  -3   1  213.68    8.41
   3   3  -1  230.63   12.19
  -3   3   1  222.52   10.15
   3   3  -1  199.63   13.00
   3  -3   1  217.38    8.53
   3   3  -1  211.47    7.79
  -3   3   1  228.02   10.18
  -3   3   1  231.08    9.90
   3  -3   1  209.29    8.34
  -3  -3  -1  202.23   10.31
  -3   3   1  207.14    9.00
  -3   3   1  220.03    9.75
  -3  -3  -1  193.40   10.36
  -3   3  -1  213.43    9.98
   3  -3  -1  212.83   11.17
   3   3   1  206.07    9.03
  -3   3  -1  234.00   13.75
   3   3   1  230.37    8.43
   3   3   1  234.87   10.05
   3   3   1  227.96    9.62
   3  -3  -1  210.09   10.65
   3   3   1  206.72    7.20
   3  -3  -1  210.87    9.80
   3  -3  -1  212.57   11.08
  -3   3  -1  200.84   11.46
   3   3   1  210.52   11.49
   3   3   1  199.84    7.59
   3   4  -1   82.80   12.10
  -3  -4  -1   86.53    9.15
   3   4  -1   86.19    6.23
   3  -4   1   88.91    7.22
  -3   4   1   89.67    8.62
  -3   4   1   79.40   10.39
  -3  -4  -1   93.03    9.43
   3  -4   1   89.93    7.15
   3  -4   1   83.71    7.26
   3   4  -1   95.23   11.30
  -3   4   1   90.41    8.48
   3   4   1   78.93    6.08
   3  -4  -1   87.04    9.49
  -3   4  -1   96.19   10.83
   3  -4  -1   97.57    9.19
   3  -4  -1   98.09    9.96
   3   4   1   76.66    9.76
  -3   4  -1   86.28    8.26
   3   4   1   89.33    8.36
  -3   4  -1   91.54   12.39
   3   5  -1   39.02   10.10
  -3  -5  -1   32.62    6.91
  -3   5   1   16.03    8.39
  -3   5   1   52.59    8.29
  -3   5   1   25.25    6.61
   3  -5   1   26.20    6.18
  -3  -5  -1   42.42    8.52
  -3  -5  -1   32.78    8.23
   3  -5   1   32.34    6.30
   3   5  -1   38.48   12.04
  -3   5  -1   19.50   10.47
   3  -5  -1   35.98    7.87
   3   5   1   31.87    8.88
  -3   5  -1   41.07    6.84
   3  -5  -1   41.07    8.66
   3  -5  -1   42.74    8.60
   3   5   1   27.76    7.27
  -3   5  -1   44.83   10.20
  -3   6   1   31.33   11.76
  -3   6   1   24.47    8.11
  -3  -6  -1   35.85    9.10
   3   6  -1   19.59    9.81
  -3  -6  -1   23.73    8.34
  -3  -6  -1   37.09    7.94
   3  -6  -1   39.03    9.20
   3  -6  -1   40.29    9.93
  -3   6  -1   20.68    9.98
  -3   6  -1   26.65   13.16
   3  -6  -1   13.08    7.21
   3   6   1   18.38   10.02
  -3   0  -2    4.23    3.92
  -3   0  -2    4.38    4.18
   3   0   2    8.98    4.43
   3   0   2    5.65    3.89
  -3   0  -2    6.64    3.66
   3   0   2    9.41    4.39
  -3   0  -2   -4.26    4.14
  -3   1   2 4716.38   96.29
   3  -1   2 5000.60   95.98
   3   1  -2 5005.01   94.48
  -3   1   2 4666.44   97.45
   3  -1   2 4937.62   94.88
  -3   1   2 4850.19   97.73
  -3  -1  -2 4780.15   98.02
   3   1  -2 4923.05   93.63
   3  -1   2 4830.41   95.78
  -3  -1  -2 4759.66   97.89
   3   1  -2 5005.59   94.13
   3   1  -2 5063.75   98.20
   3   1  -2 4901.57   94.32
   3   1  -2 4983.39   94.95
   3  -1   2 4974.10   95.73
  -3   1   2 4636.47   97.13
  -3  -1  -2 4760.59   96.97
  -3   1  -2 4912.19   95.11
   3  -1  -2 4773.41   97.86
  -3   1  -2 4890.25   99.56
   3   1   2 4666.24   96.47
  -3  -1   2 4863.28   95.03
   3  -1  -2 4822.52   97.67
  -3  -1   2 4953.33   94.95
  -3  -1   2 5039.26   93.80
  -3   1  -2 4950.34   95.53
   3   1   2 4803.94   97.32
  -3   1  -2 4908.22   95.33
   3  -1  -2 4707.36   97.90
   3   1   2 4734.50   97.50
   3   1   2 4699.50   97.36
  -3   1  -2 5103.17   96.98
  -3  -1   2 5004.68   95.09
   3  -1  -2 4765.54   97.21
   3  -2   2  117.37    7.25
  -3  -2  -2  109.13    9.88
  -3   2   2  162.66    9.84
  -3   2   2  153.80    9.77
   3   2  -2  143.35   10.16
  -3  -2  -2  102.29    9.66
  -3   2   2  154.55    9.66
   3  -2   2  119.76    7.26
   3  -2   2  112.22    7.09
   3   2   2  119.96    9.34
  -3   2  -2  111.25    6.70
  -3  -2   2  131.17    5.83
  -3   2  -2  122.48    8.75
   3  -2  -2  154.69   10.25
   3  -2  -2  129.94   10.06
  -3  -2   2  123.77    5.80
  -3   2  -2  111.83    6.60
   3  -2  -2  135.70   10.23
  -3  -2   2  127.02    5.85
  -3   2  -2  111.14   10.15
   3   2   2  135.55    8.76
   3   2   2  134.51    9.27
  -3  -2   2  123.15    6.07
  -3   2  -2  116.55    8.40
  -3  -2   2  129.01    5.93
  -3   2  -2  107.99    4.71
  -3  -3  -2 2547.84   56.26
  -3  -3  -2 2490.62   58.49
   3  -3   2 2657.57   53.89
  -3   3   2 2648.76   57.59
   3  -3   2 2574.62   52.92
  -3   3   2 2553.00   56.93
   3   3  -2 2638.61   59.66
   3  -3   2 2520.74   53.25
  -3   3   2 2618.45   57.53
  -3   3   2 2608.87   57.01
  -3  -3  -2 2541.45   58.55
   3  -3   2 2638.85   53.75
   3   3  -2 2576.24   62.48
  -3   3   2 2619.77   56.91
   3   3   2 2545.69   58.32
   3  -3  -2 2556.90   58.01
   3   3   2 2564.34   55.71
   3  -3  -2 2575.32   57.17
   3   3   2 2685.83   57.15
  -3   3  -2 2647.91   59.50
  -3   3  -2 2747.23   56.88
   3   3   2 2603.44   56.35
  -3   3  -2 2662.56   63.16
   3  -3  -2 2588.53   59.12
   3  -3  -2 2543.02   58.95
   3   3   2 2620.41   56.81
  -3   4   2  231.12   13.13
   3  -4   2  189.68    9.66
   3  -4   2  191.11    9.83
  -3   4   2  238.46   13.02
   3   4  -2  186.19   13.69
  -3   4   2  208.48   12.21
  -3  -4  -2  233.73   14.02
  -3   4   2  251.61   16.30
  -3  -4  -2  234.43   14.48
  -3   4   2  234.93   12.44
   3   4  -2  201.74   16.66
  -3   4  -2  176.78   11.33
   3  -4  -2  229.52   15.09
  -3   4  -2  198.08   13.81
   3   4   2  222.63   13.88
   3   4   2  219.39   13.20
   3  -4  -2  243.86   14.12
   3  -4  -2  241.47   15.54
  -3   4  -2  198.09   16.83
   3   4   2  210.99   14.02
   3   5  -2  820.85   34.41
  -3   5   2  774.23   26.06
   3  -5   2  848.87   23.17
   3   5  -2  818.66   30.81
  -3  -5  -2  769.10   26.54
  -3   5   2  867.18   27.39
  -3  -5  -2  841.82   28.87
  -3   5   2  860.88   32.22
  -3  -5  -2  822.45   28.40
   3  -5  -2  830.98   29.00
   3  -5  -2  779.60   28.39
  -3   5  -2  834.92   25.36
  -3   5  -2  766.04   30.53
   3  -5  -2  789.30   27.37
  -3   5  -2  780.99   34.39
   3   5   2  879.84   26.97
   3   5   2  800.77   30.58
  -3   6   2  136.71   13.90
  -3   6   2  117.13   16.75
  -3  -6  -2  125.88   13.68
  -3  -6  -2  143.37   15.43
   3   6  -2  107.04   15.53
  -3  -6  -2  150.50   16.55
   3   6  -2  135.46   19.29
   3  -6  -2  107.07   13.28
   3  -6  -2  106.30   14.72
  -3   6  -2   84.37   17.05
   3  -6  -2  130.45   15.45
   3   6   2  123.05   16.54
  -3   6  -2  108.42   15.55
   3   6   2  132.31   13.74
  -3   0  -3    2.78    4.79
   3   0  -3   -0.12    4.26
   3   0  -3   -3.37    4.07
  -3   0   3   -1.97    4.50
  -3   0   3    0.28    3.55
   3   0   3    7.00    4.83
   3   0   3   -4.09    4.76
   3   0  -3    2.03    4.78
  -3   0   3   -1.08    4.46
  -3   0  -3   -5.25    4.31
  -3   0  -3    6.58    4.73
   3   0   3   -2.94    4.72
  -3   0   3   -0.94    4.68
   3   0   3    0.95    4.11
   3  -1   3  266.03   11.81
   3  -1   3  265.62   11.84
  -3   1   3  250.64   11.62
   3   1  -3  285.72   10.22
  -3   1   3  249.51   12.84
  -3   1   3  234.91   12.64
  -3  -1  -3  273.46   12.86
   3   1  -3  263.57   12.61
   3  -1   3  262.36   11.88
   3   1  -3  282.12   10.42
   3   1  -3  285.07   11.44
   3   1  -3  258.20   10.41
  -3  -1  -3  263.80   13.53
   3  -1   3  268.30   10.44
  -3   1   3  253.26   12.94
  -3  -1  -3  259.54   13.37
  -3  -1   3  267.09   11.35
  -3   1  -3  271.60   11.50
  -3  -1   3  271.86   11.19
   3   1   3  246.14   11.92
  -3  -1   3  262.83    9.55
  -3  -1   3  265.95   11.43
   3  -1  -3  250.51   12.66
   3  -1  -3  261.45   13.22
  -3   1  -3  282.86   12.34
   3   1   3  232.70   12.71
   3   1   3  264.37   13.08
  -3   1  -3  270.32   10.88
   3  -1  -3  267.07   13.25
  -3   1  -3  269.75   11.28
   3   1   3  227.93   12.87
  -3   1  -3  280.49   14.47
   3   2  -3    4.12    5.48
  -3   2   3   17.36    6.27
  -3  -2  -3   10.39    5.58
  -3   2   3   23.15    6.67
   3   2  -3   19.16    3.91
   3  -2   3   19.46    5.23
   3  -2   3   12.65    4.87
   3   2  -3   16.85    3.40
  -3  -2  -3   18.28    7.10
  -3   2   3   23.20    5.87
   3  -2   3   17.67    4.99
  -3   2   3   16.83    6.34
   3   2  -3   15.68    4.63
  -3  -2  -3   11.84    6.50
   3   2   3   21.74    6.55
  -3   2  -3   17.26    4.78
   3   2   3   19.27    6.42
   3   2   3   23.64    5.88
  -3   2  -3   12.87    6.36
   3  -2  -3   15.95    6.74
  -3   2  -3   15.39    3.05
   3  -2  -3   22.32    6.69
   3   2   3   21.53    6.32
  -3  -2   3   11.00    4.30
   3  -2  -3   17.11    6.80
   3  -2  -3   13.74    6.57
  -3  -2   3   10.66    4.64
  -3   2  -3    9.70    4.15
  -3   2  -3   12.60    3.53
  -3  -2   3   17.24    4.77
  -3   2  -3   15.14    5.36
  -3   3   3   92.72   10.45
  -3   3   3   93.14   10.24
  -3  -3  -3   79.79   11.14
  -3   3   3   96.87   10.50
   3  -3   3   88.36    7.75
  -3   3   3  103.19   10.95
  -3  -3  -3   66.78   10.14
   3   3  -3   91.31   12.03
   3  -3   3   95.85    7.60
  -3  -3  -3   93.34   10.15
   3  -3   3   94.26    7.98
  -3   3   3   88.57   10.27
   3  -3  -3   84.80    9.95
  -3  -3   3   79.66    6.45
   3  -3  -3   71.51   10.12
  -3   3  -3   85.63    7.54
  -3   3  -3   79.69   11.24
  -3  -3   3   84.42    6.51
   3  -3  -3   86.68   11.30
   3  -3  -3   88.69   11.23
  -3   3  -3   92.25    9.42
   3   3   3   97.58   10.62
   3   3   3   97.15   10.30
   3   3   3  108.59   10.80
  -3   3  -3   93.57   10.64
   3   3   3  127.86   11.82
   3   4  -3   96.08   12.05
   3  -4   3  101.28    7.28
  -3  -4  -3  105.45   13.44
  -3   4   3  120.23   12.01
  -3  -4  -3  104.81   12.70
   3  -4   3   97.43    8.19
   3  -4   3  109.06    8.96
  -3   4   3  114.50   12.29
  -3   4   3   92.18   11.31
   3   4  -3   92.28   13.54
   3  -4  -3  100.26   12.92
   3   4   3   92.71   10.34
   3   4   3  115.43   12.28
   3   4   3   93.40   12.00
  -3   4  -3   93.76   10.16
  -3   4  -3   74.53   11.27
   3  -4  -3   97.41   12.72
   3   4   3  109.08   11.74
  -3   4  -3  101.41   15.13
   3  -4  -3   97.71   12.32
  -3   5   3   60.67   11.13
  -3  -5  -3   72.43   12.14
   3  -5   3   53.40    7.73
  -3   5   3   67.33   10.25
   3   5  -3   67.07   14.12
  -3  -5  -3   78.11   13.55
  -3  -5  -3   54.04   11.78
  -3   5   3   70.51   12.88
   3   5  -3   42.30   10.91
   3  -5  -3   61.13   11.81
  -3   5  -3   71.04   10.02
   3  -5  -3   65.57   12.21
  -3   5  -3   51.80   13.17
   3  -5  -3   63.99   12.42
  -3   5  -3   67.04   12.20
   3   5   3   48.37   10.85
   3   5   3   64.48   12.17
  -3   6   3   37.39   11.40
  -3  -6  -3   24.09   11.50
  -3   6   3   31.97   12.54
   3   6  -3   31.29   13.04
   3   6  -3   29.79   11.15
  -3  -6  -3   36.21   12.35
  -3  -6  -3   43.36   11.34
   3  -6  -3   22.11   11.38
   3   6   3   45.09   11.93
  -3   6  -3   42.37   14.88
   3   6   3   26.78   11.14
  -3   6  -3   63.85   13.23
   3  -6  -3   52.95   13.21
   3  -6  -3   30.57   10.58
   3   0   4   15.02    7.02
  -3   0  -4   10.90    5.92
   3   0  -4   38.07    7.21
  -3   0  -4    8.53    6.18
   3   0   4   10.25    6.69
  -3   0   4   18.36    6.81
   3   0   4    6.89    6.11
   3   0  -4   21.26    6.50
  -3   0  -4   10.83    6.06
   3   0   4    5.71    4.79
  -3   0   4   28.11    6.97
   3   0  -4   10.28    6.17
   3  -1   4 2229.31   51.00
  -3   1   4 2116.13   49.90
   3   1  -4 2257.57   52.84
  -3  -1  -4 2130.99   51.55
   3   1  -4 2157.98   47.74
  -3   1   4 2163.04   52.10
   3   1  -4 2220.10   48.55
   3  -1   4 2058.96   47.62
  -3  -1  -4 2112.16   52.98
  -3   1   4 2051.39   51.83
  -3  -1  -4 2116.46   52.58
   3   1  -4 2260.52   49.99
   3  -1   4 2188.07   50.43
   3   1  -4 2177.76   48.68
   3  -1   4 2140.66   50.53
  -3   1   4 2155.52   52.40
  -3   1  -4 2214.21   49.14
  -3   1  -4 2139.02   54.47
  -3  -1   4 2211.36   50.50
   3  -1  -4 2087.54   51.87
  -3  -1   4 2100.53   46.93
   3   1   4 2074.60   50.06
   3  -1  -4 2137.34   52.51
  -3  -1   4 2196.41   49.79
  -3   1  -4 2210.80   49.69
  -3  -1   4 2201.78   50.44
   3   1   4 2153.05   52.21
   3  -1  -4 2136.48   51.64
   3   1   4 2132.88   52.67
  -3   1  -4 2123.07   49.87
   3   1   4 2112.06   52.33
   3   2  -4  100.16    6.77
   3  -2   4  133.67   10.92
  -3   2   4  173.65   13.89
   3  -2   4  117.66   10.15
   3   2  -4   94.29    7.96
   3   2  -4   99.60   11.50
   3  -2   4  128.97   10.80
   3   2  -4  127.36   10.00
  -3   2   4  179.36   13.70
  -3  -2   4  103.58    9.55
   3  -2  -4  115.63   12.55
  -3   2  -4   86.01    7.49
  -3   2  -4   86.91    7.85
  -3   2  -4   97.55   12.39
  -3   2  -4  124.20   10.33
   3  -2  -4  167.21   14.05
   3   2   4  158.44   12.34
  -3  -2   4  113.04   10.26
  -3  -2   4   92.27    9.50
   3  -3   4 1207.28   32.20
  -3   3   4 1193.17   35.40
   3  -3   4 1239.66   31.15
   3  -3   4 1229.39   32.26
  -3   3   4 1271.31   37.07
  -3  -3  -4 1230.00   38.48
   3   3  -4 1205.99   39.19
  -3  -3  -4 1154.93   35.44
  -3  -3  -4 1313.63   39.06
  -3   3   4 1201.81   36.07
  -3   3   4 1153.17   34.96
  -3   3   4 1267.13   36.67
   3  -3  -4 1225.75   38.09
  -3   3  -4 1239.76   31.39
   3  -3  -4 1234.44   36.36
  -3   3  -4 1288.06   35.11
  -3  -3   4 1254.29   29.84
   3  -3  -4 1244.81   37.12
   3   3   4 1233.77   36.51
   3   3   4 1194.93   35.63
   3  -3  -4 1281.50   38.62
   3   3   4 1211.45   36.15
  -3  -3   4 1209.43   30.78
  -3   3  -4 1240.30   40.53
   3   3   4 1166.84   35.44
  -3  -3   4 1211.56   30.58
  -3   4   4  141.48   14.72
  -3   4   4  127.43   13.51
  -3   4   4  143.23   20.23
   3  -4   4   88.48    9.66
  -3   4   4  116.11   13.07
   3  -4   4  117.00    9.09
  -3  -4  -4  167.69   16.95
   3   4  -4  114.84   15.45
   3  -4   4   89.61    9.25
  -3  -4  -4  156.28   16.47
  -3   4   4  104.28   13.03
   3   4   4  124.91   14.02
   3   4   4  139.19   13.71
  -3   4  -4   96.30   14.78
  -3   4  -4  102.38   11.45
   3  -4  -4  122.38   14.46
  -3  -4   4  129.23    9.32
  -3  -4   4   90.82    9.17
   3  -4  -4  164.12   16.49
   3  -4  -4  127.92   14.41
   3   4   4  172.04   14.65
  -3   5   4  562.41   26.09
  -3  -5  -4  576.81   28.51
  -3  -5  -4  537.84   26.90
  -3   5   4  533.94   27.57
  -3  -5  -4  561.09   28.01
   3   5  -4  540.46   30.38
   3   5   4  552.88   25.26
   3   5   4  537.41   26.74
   3  -5  -4  590.26   29.06
  -3   5  -4  511.66   30.42
  -3   5  -4  526.64   26.40
   3  -5  -4  549.65   28.80
   3  -5  -4  515.59   26.51
   3   6  -4  134.92   20.87
  -3  -6  -4  180.12   19.69
  -3  -6  -4  167.67   21.14
  -3  -6  -4  146.22   20.20
  -3   6   4  125.44   18.56
  -3   6   4  157.92   18.25
   3  -6  -4  187.73   20.36
  -3   6  -4  167.38   19.39
   3  -6  -4  155.32   20.70
   3   6   4  159.20   19.88
   3   6   4  132.87   16.56
   3  -6  -4  165.31   21.01
   3   6   4  142.03   17.67
  -3   6  -4  157.30   23.07
   3   0  -5    8.25    6.63
   3   0   5    7.10    7.60
  -3   0  -5    1.38    6.27
  -3   0  -5    5.01    6.39
   3   0  -5    4.05    6.06
  -3   0   5   -1.84    5.08
  -3   0   5    2.06    7.05
   3   0   5    7.92    7.35
   3   0   5    3.86    6.69
   3   0  -5    3.82    5.50
  -3   0   5    4.04    6.72
   3   0   5    3.01    5.74
  -3   0   5   -5.72    6.49
  -3   0  -5    8.07    6.64
   3   0  -5   13.24    7.47
  -3   0   5    4.43    5.42
  -3   1   5  288.78   15.56
   3   1  -5  325.30   15.01
  -3   1   5  316.11   18.33
  -3   1   5  307.84   18.04
   3   1  -5  312.40   16.29
   3  -1   5  356.44   17.99
   3   1  -5  303.79   14.36
  -3  -1  -5  316.67   18.06
   3   1  -5  324.17   17.80
  -3  -1  -5  331.01   18.67
   3   1  -5  338.29   15.30
  -3   1   5  311.22   17.80
  -3  -1  -5  285.13   17.03
   3  -1   5  301.40   17.37
   3  -1   5  322.51   16.85
  -3   1  -5  330.34   15.85
  -3   1  -5  335.02   16.77
  -3   1  -5  303.56   18.90
  -3  -1   5  302.03   15.78
   3   1   5  333.63   18.98
   3  -1  -5  290.32   17.32
   3   1   5  311.83   18.30
   3  -1  -5  294.09   17.68
   3   1   5  324.40   16.65
   3  -1  -5  357.66   18.89
   3  -1  -5  312.74   17.88
   3   1   5  315.57   18.40
  -3  -1   5  342.83   17.09
  -3   1  -5  347.66   15.77
  -3  -1   5  315.44   16.87
   3   2  -5   47.22   10.57
  -3   2   5   95.00   12.12
  -3   2   5   70.25   11.90
  -3   2   5   59.24   10.16
  -3   2   5   51.37   10.89
  -3   2   5   64.74   11.38
  -3  -2  -5   47.10    9.97
   3  -2   5   73.79   10.67
  -3  -2  -5   38.20   10.55
   3   2  -5   47.54    8.71
   3  -2   5   68.02   10.03
  -3  -2  -5   41.97   10.50
   3  -2   5   57.12    9.89
   3   2   5   49.77   10.69
  -3   2  -5   48.56   10.90
  -3  -2   5   54.12    9.31
   3   2   5   49.88   10.91
   3  -2  -5   54.57   11.31
   3  -2  -5   64.71   11.77
   3   2   5   45.53   11.03
   3  -2  -5   54.74   10.83
  -3   2  -5   54.90    9.26
   3  -2  -5   66.65   12.14
   3   2   5   57.01   10.29
  -3  -2   5   42.75    8.80
  -3  -2   5   56.01    8.79
  -3   3   5  127.81   15.70
   3  -3   5  121.68   11.69
   3   3  -5  103.40   14.89
  -3  -3  -5  122.11   15.86
  -3   3   5  106.10   13.42
   3   3  -5   99.42   10.92
   3  -3   5  127.55   12.84
  -3   3   5   98.10   13.90
  -3   3   5  122.91   15.07
  -3  -3  -5  104.52   15.28
  -3   3   5  112.09   13.71
   3  -3   5  121.00   12.48
   3   3   5  117.16   13.62
   3   3   5  118.17   14.38
   3  -3  -5  124.50   16.19
  -3  -3   5  109.41   10.97
   3  -3  -5  101.06   13.27
   3   3   5   99.07   13.97
   3  -3  -5  106.69   14.59
   3  -3  -5  110.48   15.39
  -3   3  -5  120.19   16.78
  -3   3  -5  114.39   11.64
   3   3   5  105.67   14.18
  -3  -3   5  113.72   10.47
  -3  -3   5  122.56   11.84
  -3  -4  -5   20.27   10.89
   3  -4   5    7.77    7.33
   3  -4   5   15.13    7.08
  -3   4   5   25.13   10.20
   3  -4   5   14.30    7.29
  -3  -4  -5   19.99   10.91
   3   4  -5   13.74    9.93
  -3   4   5   34.89   11.11
  -3   4   5   18.94    9.99
   3   4   5   41.47   10.91
  -3   4  -5   10.57   10.49
   3   4   5   19.42    9.27
  -3  -4   5   26.31    7.40
   3  -4  -5   11.35    9.53
  -3  -4   5   12.81    7.90
   3   4   5   34.90   11.20
  -3  -4   5   16.07    7.02
   3  -4  -5   37.79   12.60
   3  -4  -5   16.13   11.24
  -3   5   5   55.00   13.41
   3   5  -5   38.96   13.91
  -3   5   5   83.11   15.69
  -3  -5  -5   71.51   15.49
  -3  -5  -5   72.72   15.49
  -3  -5  -5   69.48   15.91
   3   5   5   45.11   12.76
   3   5   5   57.74   13.44
  -3   5  -5   28.10   13.55
   3  -5  -5   28.97   13.15
   3  -5  -5   46.66   13.57
   3  -5  -5   52.56   15.60
   3   0   6   38.26   10.85
   3   0  -6   41.87    9.36
   3   0  -6   30.99    8.47
   3   0  -6   27.43    9.12
  -3   0   6   37.84   10.23
   3   0   6   31.69   10.01
  -3   0   6   14.99    9.06
  -3   0  -6   29.33    9.24
  -3   0  -6   36.64    9.35
   3   0  -6   38.25    9.69
   3   0  -6   28.24    8.36
  -3   0  -6   30.24    8.79
  -3   0   6   24.20    9.38
  -3   1   6  806.80   32.03
   3  -1   6  824.96   30.90
  -3   1   6  807.94   30.81
  -3   1   6  814.62   31.62
  -3   1   6  770.52   27.89
   3   1  -6  804.13   27.46
   3  -1   6  834.95   30.58
  -3   1   6  741.23   27.73
  -3  -1  -6  802.48   31.49
  -3  -1  -6  781.67   30.59
  -3  -1  -6  846.26   31.46
   3   1  -6  862.77   29.79
   3  -1   6  800.55   30.73
   3   1  -6  850.10   31.90
   3   1  -6  784.30   27.34
   3   1   6  787.62   32.06
  -3  -1   6  822.31   29.19
  -3  -1   6  816.31   30.38
   3  -1  -6  852.55   31.00
  -3   1  -6  834.01   34.27
  -3   1  -6  829.06   29.94
  -3   1  -6  807.38   28.18
   3  -1  -6  809.85   31.11
  -3  -1   6  868.35   30.62
   3  -1  -6  800.11   30.92
   3  -1  -6  802.87   30.71
   3   1   6  827.62   29.62
   3   1   6  788.49   32.05
   3   1   6  822.99   31.84
  -3  -2  -6  124.83   15.97
  -3   2   6  154.43   16.82
  -3   2   6  159.93   17.57
   3   2  -6  143.45   17.11
   3   2  -6  139.34   14.27
  -3  -2  -6  145.98   17.20
   3  -2   6   81.60   12.54
  -3   2   6  154.90   16.54
   3  -2   6  119.34   14.87
  -3   2   6  152.79   15.58
  -3  -2  -6  134.05   15.83
  -3   2   6  145.76   14.86
   3  -2   6   73.50   12.66
  -3  -2   6  141.87   14.66
   3  -2  -6  119.47   15.42
  -3  -2   6  112.07   12.64
  -3   2  -6   87.51   12.25
  -3   2  -6   84.73   15.19
   3   2   6  109.75   15.26
   3  -2  -6  135.28   16.10
   3   2   6  129.90   15.48
   3  -2  -6  116.66   15.61
   3  -2  -6  150.33   17.52
   3   2   6  107.13   14.82
   3   2   6  137.16   16.07
  -3  -2   6  141.01   14.73
   3   3  -6  483.58   21.07
  -3   3   6  432.97   25.90
   3   3  -6  460.82   26.54
   3  -3   6  504.69   22.94
  -3   3   6  450.74   24.17
  -3  -3  -6  429.68   27.12
  -3   3   6  447.63   23.46
  -3   3   6  485.89   26.85
   3  -3   6  476.23   22.87
  -3  -3  -6  455.69   26.35
  -3   3   6  461.81   25.80
   3  -3   6  452.95   21.34
   3  -3  -6  471.44   27.03
   3   3   6  457.83   26.03
   3   3   6  472.35   24.53
  -3  -3   6  489.74   22.08
  -3  -3   6  499.23   20.44
  -3   3  -6  479.86   21.71
  -3   3  -6  434.09   27.78
   3  -3  -6  459.99   25.83
   3   3   6  465.99   25.81
   3   3   6  447.15   25.48
  -3  -3   6  478.73   21.66
   3  -3  -6  514.40   28.13
   3  -4   6   57.14   11.90
   3  -4   6   63.26   10.57
   3   4  -6   61.01   14.57
  -3  -4  -6   48.58   13.97
  -3   4   6   86.93   15.35
  -3  -4  -6   82.42   16.96
  -3   4   6   63.87   13.05
  -3   4   6   95.01   15.84
   3  -4   6   32.61   10.14
   3   4   6   76.79   14.66
   3  -4  -6   76.88   16.03
  -3   4  -6   42.49   10.11
  -3   4  -6   63.07   15.18
   3   4   6   75.13   14.69
   3   4   6   60.12   13.01
   3  -4  -6  104.79   17.87
  -3  -4   6   52.35   10.27
   3  -4  -6   94.77   16.74
  -3   0   7   17.18   10.58
   3   0   7    0.07    9.06
   3   0  -7    8.34    7.94
  -3   0  -7    1.44    7.91
  -3   0  -7   -0.24    8.57
  -3   0   7   -1.49    8.29
  -3   0  -7    5.26    9.84
  -3   0   7   -8.34    8.27
   3   0   7   11.08   10.31
   3   0  -7    5.02    8.64
   3   0  -7   17.39   10.14
   3   0   7    1.04    9.55
   3   0  -7    3.18    7.47
  -3   1   7   57.27   13.63
  -3   1   7   55.58   14.25
  -3  -1  -7   52.69   13.16
  -3  -1  -7   58.77   13.71
   3  -1   7   45.88   13.02
   3   1  -7   59.91   13.12
   3  -1   7   49.25   13.55
   3   1  -7   54.15   12.81
  -3   1   7   55.63   13.58
   3  -1   7   54.95   12.97
  -3  -1  -7   40.21   11.68
  -3  -1   7   51.40   12.19
   3   1   7   57.71   14.91
   3   1   7   71.71   14.96
   3  -1  -7   48.79   12.58
  -3  -1   7   41.41   12.24
   3  -1  -7   30.94   11.97
   3  -1  -7   46.64   12.22
  -3  -1   7   33.07   11.44
   3   1   7   30.30   12.34
  -3   1  -7   25.31   11.88
  -3   1  -7   61.42   13.15
   3  -1  -7   44.10   12.10
   3   2  -7   -9.70    7.69
  -3  -2  -7   -1.17    9.45
  -3  -2  -7    9.54   10.56
  -3  -2  -7   26.49   12.14
   3  -2   7    5.75    9.54
  -3   2   7   -5.16    9.97
  -3   2   7   13.05   11.50
   3  -2   7    8.32    9.60
  -3   2   7   10.04   11.58
  -3   2   7   11.20   13.03
   3  -2   7   12.67    9.89
   3   2  -7   -2.90    9.45
  -3   2  -7   11.96    9.12
   3   2   7   11.51   10.70
   3  -2  -7   -2.02    9.59
   3  -2  -7   14.59   11.04
   3  -2  -7   13.45   10.16
  -3  -2   7   10.20    8.76
   3   2   7  -10.01    9.71
  -3   2  -7    3.75    9.95
  -3  -2   7   -8.85    8.62
  -3  -2   7   20.64   11.03
   3   2   7   -6.85    9.43
   3   2   7   22.01   11.67
   3  -2  -7   -2.99    9.86
   3   3  -7   76.35   13.27
  -3   3   7   83.27   17.01
   3  -3   7   67.13   12.11
   3  -3   7   79.51   14.48
   3   3  -7   80.80   15.60
   3  -3   7   65.99   13.53
  -3  -3  -7   65.29   16.22
  -3   3   7  132.64   19.56
  -3  -3  -7   88.40   17.24
  -3   3   7   65.43   14.18
  -3   3   7   92.01   17.33
  -3   3  -7   49.00   12.14
  -3   3  -7  100.49   18.86
   3   3   7  107.17   18.18
   3  -3  -7   86.10   17.96
   3   3   7   83.56   16.74
   3  -3  -7   92.39   17.53
  -3  -3   7   66.30   11.80
   3  -3  -7   83.12   17.33
   3   3   7   66.35   15.04
  -3  -3   7   76.35   13.55
   3   3   7   72.75   16.36
  -3  -3   7   72.61   13.93
  -3   0  -8   22.90   11.59
   3   0   8   15.62   13.03
  -3   0   8   46.05   14.14
  -3   0   8   51.67   13.26
   3   0   8   14.83   12.11
  -3   0  -8    6.96   10.86
  -3   0   8   29.25   12.22
   3   0  -8   28.71   12.52
   3   0  -8   26.66   11.36
   3   0   8   17.00   12.19
   3  -1   8  496.89   28.99
   3   1  -8  471.03   29.72
  -3  -1  -8  457.56   28.91
  -3   1   8  543.65   32.62
   3  -1   8  508.05   30.27
  -3   1   8  533.91   30.92
   3   1  -8  531.60   29.03
   3  -1   8  528.96   30.21
  -3  -1  -8  498.64   29.88
  -3   1   8  533.35   32.26
   3  -1  -8  453.93   29.19
  -3   1  -8  554.19   32.91
  -3   1  -8  490.47   28.20
  -3  -1   8  510.30   28.44
   3   1   8  504.90   31.78
   3   1   8  439.63   29.50
  -3  -1   8  521.56   29.52
   3  -1  -8  484.71   28.69
  -3  -1   8  542.96   29.58
   3  -1  -8  495.35   28.87
   3   1   8  462.67   29.88
  -3  -2  -8   50.68   15.12
   3  -2   8   25.49   12.31
  -3  -2  -8   32.96   13.55
   3  -2   8   34.07   12.73
   3  -2   8   15.95   11.12
  -3   2   8   45.02   15.17
   3   2  -8   37.86   12.20
  -3   2   8   46.35   15.40
  -3   2   8   74.71   16.92
  -3  -2  -8   34.56   14.41
  -3  -2  -8   67.04   16.43
   3   2  -8   13.26   11.54
   3  -2  -8   38.20   14.31
   3  -2  -8   61.19   14.91
   3  -2  -8   53.39   15.66
  -3  -2   8   36.02   12.91
  -3   2  -8   16.82   11.93
   3   2   8   27.86   14.08
  -3  -2   8   34.43   12.26
   3  -2  -8   53.33   15.24
   3   2   8   39.48   15.12
   3   2   8   33.21   14.38
  -3   2  -8   38.73   12.90
  -3  -2   8   38.40   12.49
  -4   0   0 2419.00   47.81
  -4   0   0 2495.23   48.64
  -4   0   0 2451.43   48.66
   4   0   0 2557.30   48.65
   4   0   0 2448.18   48.48
  -4   0   0 2414.62   48.57
   4   0   0 2465.03   48.68
   4   0   0 2433.06   48.59
  -4   0   0 2401.96   48.52
   4   1   0  534.48   12.48
   4  -1   0  524.76   13.86
   4   1   0  535.01   12.26
  -4   1   0  533.17   13.65
   4   1   0  535.42   12.71
  -4   1   0  557.38   14.02
   4  -1   0  554.17   13.97
  -4   1   0  537.36   14.05
   4   1   0  547.10   12.03
  -4  -1   0  524.77   12.60
  -4  -1   0  533.85   13.46
  -4  -1   0  530.46   12.19
   4  -1   0  511.99   13.58
  -4  -1   0  544.74   12.64
  -4  -1   0  529.72   12.87
  -4   1   0  550.37   13.74
  -4   1   0  532.44   13.73
  -4  -1   0  531.34   12.81
   4   1   0  542.36   12.47
  -4   1   0  530.19   13.65
   4   1   0  533.26   13.25
   4  -1   0  531.34   13.75
  -4   1   0  524.62   13.70
  -4   1   0  520.59   13.08
   4  -2   0 5192.20  101.88
  -4  -2   0 5127.27   99.88
  -4  -2   0 5184.88   99.91
  -4  -2   0 5225.86   99.99
   4  -2   0 5311.63  101.32
  -4   2   0 5171.61  100.53
  -4   2   0 5218.50  100.95
  -4   2   0 5259.53  104.76
  -4   2   0 5227.24  103.64
   4  -2   0 5100.71  101.41
   4   2   0 5366.33   99.13
  -4  -2   0 5279.81   99.80
  -4   2   0 5184.23  102.37
   4   2   0 5219.99  103.11
  -4  -2   0 5139.61  100.09
  -4   2   0 5159.53  101.01
   4  -2   0 5250.14  101.83
  -4   2   0 5089.24  101.46
  -4   3   0  111.99    9.11
  -4   3   0  102.17    7.61
  -4  -3   0   86.89    6.42
  -4   3   0  112.62    6.91
   4  -3   0  101.05    7.19
   4  -3   0   85.41    7.64
  -4  -3   0   98.11    7.04
  -4   3   0  124.26   10.54
  -4  -3   0   84.97    6.16
  -4   3   0  105.70    7.23
  -4  -3   0   76.84    6.51
  -4   3   0  105.47    5.53
   4   3   0   84.86    8.27
   4  -3   0   83.53    7.40
   4  -4   0 1337.25   32.53
  -4  -4   0 1344.79   31.50
  -4   4   0 1365.65   31.95
   4   4   0 1423.69   37.77
  -4   4   0 1387.29   40.31
  -4   4   0 1360.70   33.89
   4  -4   0 1379.22   33.49
  -4  -4   0 1309.81   31.29
   4  -4   0 1360.65   33.41
  -4   4   0 1370.40   38.09
  -4   5   0  118.92   15.55
  -4   5   0  109.92   10.34
   4  -5   0  125.24   10.10
   4   5   0  146.67   14.79
  -4   5   0  129.25   13.97
   4  -5   0  128.29   11.19
  -4  -5   0  168.12   10.33
   4  -5   0  113.58   11.05
  -4  -5   0  156.91    9.99
   4   6   0  648.95   29.77
   4  -6   0  671.43   22.27
   4  -6   0  655.21   24.64
   4  -6   0  649.98   23.63
  -4   6   0  655.71   30.62
   4   0  -1 1804.32   37.59
   4   0   1 1801.50   38.03
   4   0  -1 1789.98   35.68
   4   0   1 1832.30   37.84
   4   0  -1 1844.41   37.63
  -4   0   1 1841.75   37.54
  -4   0   1 1836.21   37.73
  -4   0  -1 1768.99   37.20
   4   0  -1 1879.28   37.61
  -4   0  -1 1818.71   38.00
   4   0  -1 1832.87   37.59
   4   0   1 1841.98   37.58
  -4   0   1 1847.24   37.65
   4   0   1 1794.23   37.93
  -4   0   1 1835.68   36.95
  -4   0  -1 1797.57   37.54
  -4   0  -1 1817.78   38.09
  -4  -1  -1 1111.29   26.62
   4  -1   1 1193.12   26.03
   4   1  -1 1218.26   27.34
   4   1  -1 1179.49   23.41
   4  -1   1 1197.42   25.27
  -4   1   1 1124.37   26.65
  -4   1   1 1118.91   26.51
   4   1  -1 1202.95   24.36
  -4   1   1 1112.19   26.67
   4  -1   1 1156.61   25.64
  -4  -1  -1 1143.10   26.01
  -4   1   1 1114.69   25.98
  -4  -1  -1 1131.90   26.74
   4  -1   1 1200.40   26.11
   4   1  -1 1211.23   24.07
   4   1  -1 1229.34   26.64
  -4   1  -1 1197.96   25.54
  -4   1  -1 1186.33   25.32
  -4  -1   1 1219.70   24.35
   4  -1  -1 1127.79   26.73
   4   1   1 1160.85   26.32
  -4   1  -1 1187.38   25.76
   4   1   1 1144.89   26.07
  -4  -1   1 1226.74   24.40
   4  -1  -1 1148.39   27.07
  -4  -1   1 1162.33   24.27
  -4  -1   1 1225.44   24.27
  -4   1  -1 1220.27   26.50
  -4   1  -1 1218.22   25.60
   4   1   1 1146.73   26.32
  -4  -1   1 1183.52   24.16
  -4   1  -1 1166.13   25.33
   4  -1  -1 1176.83   26.80
   4   1   1 1165.44   26.44
   4  -1  -1 1114.81   26.95
  -4  -1   1 1199.18   24.19
  -4   1  -1 1162.82   27.99
  -4   2   1  726.30   20.03
   4  -2   1  780.10   18.58
   4  -2   1  754.64   18.77
  -4   2   1  769.51   19.78
   4  -2   1  774.33   18.75
  -4   2   1  768.09   20.04
  -4  -2  -1  757.83   20.20
   4   2  -1  846.51   21.60
   4   2  -1  761.82   22.78
  -4  -2  -1  777.23   20.34
  -4   2   1  763.49   20.22
  -4  -2  -1  786.92   19.02
   4   2   1  754.76   20.04
   4  -2  -1  750.15   20.83
   4   2   1  784.84   19.25
   4  -2  -1  777.78   21.07
  -4   2  -1  805.69   23.17
  -4   2  -1  793.56   20.01
  -4   2  -1  752.43   17.04
  -4   2  -1  820.27   18.48
   4   2   1  766.67   18.74
   4   2   1  753.30   19.29
   4   2   1  762.35   19.40
  -4   2  -1  807.52   21.15
   4  -2  -1  754.13   20.51
   4   2   1  779.89   19.57
  -4   2  -1  776.62   18.61
   4  -2  -1  773.00   20.11
  -4   3   1   25.11    5.03
   4  -3   1   15.11    4.09
  -4   3   1   17.61    5.99
   4  -3   1   15.87    4.10
  -4   3   1   23.65    5.06
   4  -3   1   19.54    4.37
  -4  -3  -1   17.95    5.35
  -4   3   1   22.80    5.38
  -4  -3  -1   10.05    5.08
  -4   3   1   33.20    5.01
   4   3  -1   19.63    6.56
   4   3  -1   20.52    5.77
  -4   3  -1   20.16    6.82
   4   3   1   14.51    3.00
   4  -3  -1   14.14    5.40
   4   3   1   18.98    4.67
   4   3   1   20.44    3.79
   4  -3  -1   23.24    5.58
  -4   3  -1   18.41    5.52
   4   3   1   16.99    3.19
  -4   3  -1   18.94    4.53
   4   3   1   14.42    4.51
   4   3   1   13.81    5.15
   4  -3  -1   10.18    5.16
   4  -3  -1   17.69    4.48
   4   3   1   11.57    4.18
  -4   4   1  373.94   14.79
   4   4  -1  360.44   20.03
  -4  -4  -1  359.02   14.84
   4  -4   1  331.78   12.70
   4   4  -1  336.59   16.88
   4  -4   1  333.64   12.77
  -4   4   1  336.37   14.41
  -4   4   1  355.34   17.90
   4  -4   1  336.15   12.58
  -4  -4  -1  358.21   14.98
   4   4   1  352.76   10.47
   4   4   1  353.74   13.59
  -4   4  -1  351.74   14.46
   4  -4  -1  326.80   15.37
  -4   4  -1  338.06   19.07
   4  -4  -1  356.48   15.04
   4  -4  -1  354.33   15.86
   4   4   1  381.12   17.44
  -4   4  -1  349.07   17.41
   4   5  -1   99.98   15.56
   4   5  -1  143.43   14.81
   4  -5   1  134.33    9.33
   4  -5   1  117.78   10.15
   4  -5   1  127.28    9.99
  -4  -5  -1  126.53   10.87
  -4   5   1  144.89   11.55
  -4  -5  -1  127.25   12.41
  -4   5   1  131.61   11.10
  -4   5   1  122.27   14.11
  -4  -5  -1  131.16   11.75
   4  -5  -1  133.03   12.88
  -4   5  -1  125.04   14.28
  -4   5  -1  126.08   10.69
  -4   5  -1  147.48   17.50
   4  -5  -1  146.66   12.47
   4  -5  -1  137.26   13.02
   4   5   1  134.40   14.28
   4   5   1  131.21   11.24
   4   6  -1  146.45   17.17
  -4   6   1  151.31   13.69
  -4  -6  -1  147.04   12.18
  -4  -6  -1  162.54   14.55
   4  -6   1  140.18   12.54
  -4   6   1  130.80   16.87
  -4  -6  -1  156.80   14.02
  -4   6  -1  130.07   16.92
   4  -6  -1  157.11   14.11
   4  -6  -1  158.92   15.25
   4   6   1  132.81   17.15
   4  -6  -1  162.29   15.18
  -4   6  -1  144.54   19.94
  -4   0   2 4723.23   92.79
  -4   0  -2 4743.02   93.94
  -4   0  -2 4742.32   94.65
   4   0   2 4715.94   93.56
   4   0   2 4591.06   93.96
   4   0  -2 4765.68   93.91
   4   0  -2 4817.81   93.87
   4   0   2 4763.59   94.56
  -4   0   2 4766.69   94.06
  -4   0   2 4769.54   94.05
   4   0  -2 4592.81   93.79
   4   0  -2 4923.78   94.02
  -4   0  -2 4747.50   94.51
  -4   0  -2 4692.50   93.68
   4   0   2 4628.23   94.25
  -4   0   2 4702.56   93.81
   4  -1   2  106.75    7.46
   4   1  -2  124.86    5.81
   4   1  -2  123.49    6.34
  -4  -1  -2  115.83    8.31
  -4   1   2  112.60    8.97
   4   1  -2  121.34    8.00
   4  -1   2  120.65    7.64
  -4   1   2  120.79    7.82
   4   1  -2  122.30    6.01
  -4   1   2  119.59    8.89
  -4   1   2  124.57    8.85
   4   1  -2  113.80    6.04
  -4  -1  -2  105.55    8.86
   4  -1   2  110.06    6.73
  -4  -1  -2  107.75    9.10
   4   1  -2  133.06    7.21
   4  -1   2  117.20    7.66
  -4   1   2  127.19    7.99
  -4  -1   2  116.27    6.86
  -4   1  -2  122.51    9.71
   4  -1  -2  134.06    9.24
  -4   1  -2  122.85    7.37
   4   1   2  115.69    8.11
   4   1   2  117.87    8.82
  -4   1  -2  118.02    7.16
  -4  -1   2  115.40    6.60
  -4  -1   2  124.64    5.67
   4  -1  -2  107.51    8.94
   4  -1  -2  154.62    9.02
  -4  -1   2  120.14    6.80
  -4   1  -2  107.67    7.65
  -4   1  -2  112.34    7.12
   4   1   2   99.40    8.46
   4   1   2  105.23    8.79
   4  -1  -2  125.54    8.70
  -4   2   2 1670.56   38.05
  -4  -2  -2 1563.80   39.34
   4  -2   2 1727.62   36.56
   4   2  -2 1701.59   39.58
  -4   2   2 1678.01   39.17
  -4  -2  -2 1561.07   39.23
  -4  -2  -2 1602.34   37.87
   4  -2   2 1701.09   36.10
  -4   2   2 1679.15   39.07
  -4   2   2 1639.31   38.87
   4  -2   2 1748.29   36.56
  -4   2   2 1649.46   37.99
   4   2  -2 1678.96   41.15
  -4  -2   2 1638.18   34.18
  -4   2  -2 1570.95   34.08
   4   2   2 1630.83   37.85
  -4   2  -2 1704.44   38.17
  -4   2  -2 1682.69   38.74
  -4   2  -2 1670.88   35.83
  -4  -2   2 1661.50   34.03
   4  -2  -2 1625.01   38.64
  -4  -2   2 1648.03   33.99
  -4   2  -2 1662.35   35.69
   4   2   2 1687.29   38.69
  -4  -2   2 1706.47   33.95
  -4   2  -2 1646.44   41.88
  -4  -2   2 1741.97   34.37
   4  -2  -2 1574.52   39.56
   4  -2  -2 1629.89   39.92
   4   2   2 1696.40   38.84
   4   2   2 1647.11   38.25
   4  -2  -2 1636.52   39.20
  -4  -3  -2  282.89   12.15
  -4   3   2  244.02   12.18
  -4   3   2  232.89   12.15
   4   3  -2  198.89   12.45
  -4   3   2  240.07   12.52
  -4   3   2  247.04   12.65
   4   3  -2  191.71   14.15
  -4  -3  -2  252.81   13.68
  -4  -3  -2  270.10   13.77
   4   3   2  216.52   11.57
   4  -3  -2  214.44   13.91
  -4   3  -2  203.58   11.41
   4  -3  -2  206.05   13.46
   4  -3  -2  236.48   12.28
  -4   3  -2  175.17   11.84
  -4   3  -2  202.15   14.29
   4   3   2  253.90   12.92
   4   3   2  263.29   12.18
   4   3   2  245.29   11.16
   4  -3  -2  225.82   13.06
  -4   4   2 1418.41   36.62
   4  -4   2 1517.39   33.02
  -4  -4  -2 1430.87   38.76
  -4   4   2 1427.79   36.97
   4   4  -2 1411.56   40.56
   4  -4   2 1484.45   34.42
  -4  -4  -2 1454.09   38.96
  -4   4   2 1449.72   41.26
   4  -4   2 1505.49   34.39
  -4   4   2 1442.23   37.66
  -4   4   2 1519.27   38.04
   4   4  -2 1460.56   44.19
   4   4   2 1490.30   40.29
   4  -4  -2 1470.09   39.86
  -4   4  -2 1480.08   40.74
   4  -4  -2 1482.45   39.85
   4  -4  -2 1424.89   38.55
  -4   4  -2 1431.98   36.93
  -4   4  -2 1498.80   45.08
   4   4   2 1455.80   37.20
   4   5  -2   97.13   14.91
   4   5  -2   65.70   10.91
  -4   5   2   71.85   12.08
  -4  -5  -2  106.59   12.55
   4  -5   2   58.12    7.64
  -4   5   2   70.94   10.55
  -4   5   2   73.11    9.84
  -4  -5  -2   95.26   11.98
   4  -5   2   69.56   10.03
  -4   5  -2   49.03   10.71
   4   5   2   82.80   12.05
  -4   5  -2   53.90   12.74
   4  -5  -2   67.25   11.74
   4   5   2   76.91   10.30
  -4   5  -2   62.58    9.13
   4  -5  -2   61.90   10.38
   4  -5  -2   79.81   10.68
  -4  -6  -2  359.51   21.49
  -4   6   2  376.60   24.93
   4   6  -2  356.54   22.93
  -4   6   2  386.75   19.62
  -4  -6  -2  375.65   21.42
  -4  -6  -2  357.83   19.35
   4   6  -2  370.04   27.15
   4  -6  -2  411.96   22.54
   4  -6  -2  370.36   20.71
   4   6   2  420.08   24.92
  -4   6  -2  359.66   23.52
   4  -6  -2  374.56   21.87
  -4   6  -2  411.79   27.89
   4   6   2  422.75   19.92
  -4   0  -3  621.37   19.75
  -4   0  -3  613.48   19.39
   4   0  -3  606.78   19.06
   4   0   3  668.75   20.43
  -4   0   3  656.46   19.65
   4   0   3  628.27   18.49
  -4   0  -3  606.96   19.24
   4   0   3  658.71   19.97
  -4   0   3  657.28   18.04
  -4   0   3  644.54   17.95
  -4   0   3  621.23   19.46
   4   0  -3  569.07   18.58
   4   0   3  654.64   20.03
  -4   0   3  631.20   19.34
   4   0  -3  599.65   19.02
   4   0  -3  609.76   18.95
   4  -1   3    8.13    5.07
   4   1  -3   -0.33    3.53
  -4   1   3    8.26    4.44
  -4   1   3   -1.72    4.10
  -4  -1  -3    3.70    5.46
  -4   1   3   -0.69    5.28
  -4  -1  -3    2.96    5.54
   4   1  -3    2.35    3.40
   4  -1   3    7.04    4.85
  -4   1   3   -7.19    4.80
  -4  -1  -3   16.94    5.91
   4   1  -3   10.15    4.50
   4   1  -3    7.53    4.46
   4  -1   3    5.59    3.90
   4   1  -3    4.00    3.68
  -4   1   3    3.02    5.23
   4  -1   3    8.16    4.85
   4   1   3   12.75    5.70
   4   1   3    5.09    5.25
  -4  -1   3    6.53    3.21
   4  -1  -3   -5.53    4.89
   4  -1  -3   -0.21    4.97
  -4  -1   3    5.71    4.55
   4  -1  -3   -3.10    5.16
  -4  -1   3    1.83    4.42
  -4   1  -3   14.03    4.90
  -4   1  -3   10.14    4.79
   4  -1  -3   11.31    5.62
  -4   1  -3    5.26    4.51
   4   1   3    7.39    4.97
  -4   1  -3    4.54    4.11
  -4  -1   3   -3.19    4.04
   4   1   3    2.22    4.85
  -4   2   3  383.91   16.86
  -4   2   3  375.80   15.58
  -4   2   3  381.92   16.76
  -4  -2  -3  429.02   17.96
   4  -2   3  411.54   14.75
  -4   2   3  397.88   16.82
   4  -2   3  415.08   14.50
   4   2  -3  432.59   12.56
   4  -2   3  418.31   14.69
   4   2  -3  424.91   17.89
  -4  -2  -3  437.28   16.82
  -4   2   3  410.60   15.84
  -4  -2  -3  422.60   17.94
   4   2  -3  443.03   13.66
   4   2  -3  425.76   11.63
   4  -2  -3  412.52   17.40
  -4   2  -3  424.57   11.89
   4  -2  -3  452.14   18.43
  -4  -2   3  395.64   13.13
  -4  -2   3  398.23   13.45
  -4   2  -3  466.91   14.58
   4   2   3  387.56   16.10
  -4   2  -3  449.68   13.02
   4  -2  -3  420.55   17.98
   4   2   3  388.91   16.97
  -4   2  -3  448.49   16.28
   4   2   3  410.95   16.91
   4  -2  -3  411.48   16.86
  -4   2  -3  430.96   19.55
  -4   2  -3  447.74   14.26
  -4  -2   3  390.03   13.30
   4   2   3  412.24   16.83
   4  -3   3   59.80    7.34
   4  -3   3   55.44    7.11
  -4  -3  -3   65.46   10.33
  -4   3   3   70.29    9.52
  -4   3   3   74.89    9.79
  -4   3   3   65.45    8.94
   4   3  -3   50.48   10.02
  -4   3   3   71.25    9.12
  -4   3   3   73.78    9.38
   4  -3   3   57.40    6.89
  -4  -3  -3   59.93    8.88
  -4  -3  -3   56.58    9.74
   4   3   3   60.53    9.10
  -4   3  -3   58.10   10.49
  -4   3  -3   63.36    8.35
  -4   3  -3   58.53    6.56
  -4   3  -3   37.22    7.65
  -4   3  -3   67.83    6.94
   4   3   3   54.56    8.31
  -4  -3   3   55.41    5.62
   4  -3  -3   61.49    9.50
  -4  -3   3   43.82    5.46
   4  -3  -3   61.33   10.07
   4  -3  -3   73.08    9.32
   4   3   3   71.46    9.69
   4   3   3   57.02    8.34
   4  -3  -3   61.22   10.16
   4   4  -3  142.68   16.26
  -4  -4  -3  158.29   15.10
  -4   4   3  169.19   14.53
  -4   4   3  156.96   13.18
   4  -4   3  156.26    8.89
   4  -4   3  158.10    9.87
   4  -4   3  164.39   10.07
  -4   4   3  156.80   12.78
  -4  -4  -3  163.89   14.57
   4   4  -3  160.19   13.77
   4   4   3  170.85   13.30
  -4   4  -3  153.61   12.28
  -4   4  -3  151.80   14.57
   4  -4  -3  175.09   16.31
   4   4   3  162.03   12.26
   4  -4  -3  164.69   15.05
   4  -4  -3  176.28   15.34
   4   4   3  145.63   12.30
  -4   4  -3  173.58   17.68
   4   4   3  175.09   15.27
  -4   5   3   45.13   11.49
   4   5  -3   17.13    8.90
  -4   5   3   30.94    8.20
   4   5  -3   36.17   12.13
  -4   5   3   43.18   10.23
  -4  -5  -3   17.62    9.20
  -4  -5  -3   36.58   10.99
   4  -5   3   27.81    6.74
   4   5   3   12.92    8.50
   4   5   3   21.27    9.37
  -4   5  -3   20.22   10.86
  -4   5  -3   37.07    7.88
   4  -5  -3   20.24   10.24
   4  -5  -3   48.08   10.72
   4  -5  -3   36.39   10.65
  -4   5  -3   28.90    9.80
   4   6  -3   64.23   15.62
   4   6  -3   67.42   13.79
  -4  -6  -3   53.16   11.85
  -4  -6  -3   51.03   12.51
  -4   6   3   69.86   12.74
  -4   6   3   74.49   15.38
  -4  -6  -3   51.54   13.50
  -4   6  -3   33.47   12.67
   4  -6  -3   43.02   12.51
   4  -6  -3   44.46   12.07
  -4   6  -3   34.05   15.03
   4   6   3   68.29   14.42
   4  -6  -3   51.21   13.49
   4   6   3   70.76   12.75
   4   6   3   79.17   12.66
  -4   0   4 1185.81   32.94
  -4   0   4 1190.48   30.66
  -4   0  -4 1228.82   33.64
  -4   0   4 1174.18   30.55
  -4   0   4 1229.68   33.60
   4   0  -4 1253.15   33.09
   4   0  -4 1230.00   32.41
   4   0   4 1203.42   33.06
   4   0   4 1155.62   33.30
   4   0  -4 1216.98   32.87
  -4   0  -4 1264.38   33.53
  -4   0   4 1199.69   32.81
  -4   0  -4 1212.35   32.90
   4   0   4 1180.27   33.61
   4   0   4 1166.04   31.26
   4   0  -4 1232.81   32.45
  -4  -1  -4   23.60    7.84
  -4   1   4   35.31    7.88
   4  -1   4   34.12    7.24
   4   1  -4   25.05    5.67
  -4   1   4   24.15    7.32
  -4   1   4   29.99    7.78
   4   1  -4   36.49    6.73
   4  -1   4   11.73    6.25
   4   1  -4   27.62    6.39
   4  -1   4   29.16    6.83
   4   1  -4   19.66    5.47
   4  -1   4   21.14    5.44
  -4  -1  -4   46.08    8.91
   4  -1  -4   26.71    7.93
  -4   1  -4   35.53    7.56
  -4  -1   4   19.48    6.72
  -4  -1   4   22.98    6.49
  -4   1  -4   30.20    6.20
   4  -1  -4   36.14    8.27
  -4   1  -4   22.01    6.17
  -4  -1   4   29.96    7.33
   4  -1  -4   11.35    6.75
   4   1   4   21.45    6.36
   4   1   4   24.34    7.30
  -4  -1   4   24.77    5.00
  -4   2   4 1659.96   43.56
  -4   2   4 1647.02   41.89
  -4   2   4 1598.19   43.69
   4   2  -4 1652.78   44.46
   4   2  -4 1622.86   36.72
  -4  -2  -4 1587.63   44.09
   4  -2   4 1689.03   40.13
  -4  -2  -4 1575.28   42.70
  -4   2   4 1622.80   43.35
  -4  -2  -4 1621.33   44.52
  -4   2   4 1624.70   41.67
   4   2  -4 1731.94   39.37
   4  -2   4 1591.07   40.38
   4   2  -4 1628.57   36.68
   4  -2   4 1680.15   40.70
  -4  -2   4 1645.66   39.41
  -4  -2   4 1645.96   39.51
   4  -2  -4 1683.79   45.00
   4  -2  -4 1624.07   43.40
  -4  -2   4 1658.65   38.85
   4   2   4 1656.95   43.72
  -4   2  -4 1623.48   37.61
   4   2   4 1594.91   43.43
   4   2   4 1570.03   42.95
  -4   2  -4 1660.79   39.80
   4   2   4 1606.14   41.92
  -4   2  -4 1727.18   42.32
   4  -2  -4 1617.36   44.41
   4  -2  -4 1548.69   42.60
  -4   2  -4 1610.86   46.43
  -4   2  -4 1607.85   36.55
  -4   3   4  130.34   13.43
  -4   3   4  167.27   13.69
  -4  -3  -4  211.93   15.99
  -4   3   4  170.57   13.18
  -4   3   4  187.34   15.10
  -4   3   4  173.77   14.39
   4  -3   4  119.70   11.10
   4  -3   4  121.24   11.17
   4  -3   4  124.52   10.38
  -4  -3  -4  184.89   15.32
   4   3  -4  162.94   14.88
  -4  -3  -4  193.09   14.15
   4   3   4  163.40   13.39
   4  -3  -4  179.75   15.53
   4  -3  -4  171.28   13.54
   4   3   4  182.48   14.67
   4   3   4  185.87   14.01
  -4  -3   4  144.10    9.21
  -4   3  -4  124.16   10.26
   4  -3  -4  147.79   15.24
   4  -3  -4  132.93   13.86
   4   3   4  167.73   14.34
  -4   3  -4  120.29   12.05
  -4   3  -4  135.11   15.83
  -4  -3   4  125.83    9.82
  -4  -3   4  126.35   10.02
   4  -4   4  668.38   21.63
   4  -4   4  645.21   19.83
  -4  -4  -4  642.56   27.98
  -4   4   4  667.00   25.95
   4   4  -4  629.30   29.62
  -4   4   4  637.65   25.84
  -4   4   4  635.57   26.24
  -4  -4  -4  694.95   28.77
   4  -4   4  656.84   21.89
  -4   4   4  599.68   27.40
   4  -4  -4  643.51   27.16
   4   4   4  637.47   25.48
   4   4   4  681.88   26.22
   4   4   4  630.87   25.99
  -4   4  -4  614.94   30.14
  -4  -4   4  656.72   19.02
  -4   4  -4  613.36   24.36
   4   4   4  633.41   25.55
   4  -4  -4  658.61   28.82
   4  -4  -4  630.51   27.68
   4   5  -4  171.28   21.65
  -4  -5  -4  204.58   20.43
  -4   5   4  167.32   17.25
  -4  -5  -4  181.48   19.73
  -4   5   4  154.13   17.89
   4  -5   4  140.76   12.38
   4   5   4  148.77   16.33
  -4   5  -4  130.96   19.35
  -4   5  -4  132.44   16.40
  -4   5  -4  142.12   14.40
   4   5   4  171.69   17.76
   4  -5  -4  184.14   19.65
   4  -5  -4  165.62   18.17
   4  -5  -4  160.21   18.89
  -4  -6  -4  393.61   25.20
   4   6  -4  377.15   28.48
  -4   6   4  335.63   23.09
  -4  -6  -4  393.89   28.24
  -4  -6  -4  411.19   27.66
  -4   6   4  363.70   26.27
   4  -6  -4  405.36   26.81
  -4   6  -4  379.82   29.88
   4  -6  -4  417.23   28.36
   4   6   4  395.61   25.74
  -4   6  -4  401.63   26.32
   4   6   4  370.21   22.32
   4   6   4  388.68   23.75
   4  -6  -4  389.17   25.25
  -4   0   5  176.15   14.83
   4   0  -5  170.75   13.14
  -4   0  -5  190.24   14.57
   4   0   5  189.78   15.21
  -4   0   5  203.17   12.45
   4   0  -5  198.56   13.69
  -4   0  -5  219.93   14.81
  -4   0   5  188.62   14.85
   4   0   5  218.89   15.51
  -4   0   5  190.86   14.38
   4   0  -5  215.31   13.99
  -4   0  -5  208.39   14.16
   4   0   5  213.75   13.15
   4   0   5  193.84   14.86
   4   0  -5  175.51   13.98
  -4  -1  -5  111.24   13.36
   4  -1   5   91.46   11.93
   4  -1   5   91.81   12.09
  -4   1   5   95.37   11.27
   4   1  -5  113.21   10.67
  -4   1   5  101.20   10.84
  -4  -1  -5   97.91   12.82
  -4   1   5   96.97   12.15
  -4   1   5  102.22   12.80
   4   1  -5   99.14   12.03
   4   1  -5  112.51   10.42
   4   1  -5  109.85   12.47
  -4  -1  -5  110.27   13.00
  -4   1   5   98.24   12.45
   4   1  -5  113.88   11.12
   4  -1   5  115.09   12.66
   4   1   5   98.16   13.02
  -4  -1   5  122.16   12.57
  -4   1  -5   98.37   11.77
  -4   1  -5   99.65   13.63
   4  -1  -5  113.92   13.08
   4  -1  -5   95.85   12.52
   4  -1  -5  106.11   12.34
   4   1   5   99.96   12.88
   4   1   5   87.33   10.78
   4   1   5  115.44   13.92
  -4  -1   5   79.06   10.43
  -4   1  -5   97.10   10.27
  -4  -1   5  109.68   12.28
   4  -1  -5  103.69   12.98
  -4   1  -5  125.07   11.91
   4   2  -5  374.39   20.01
  -4   2   5  339.43   19.64
  -4   2   5  354.56   20.71
  -4   2   5  329.70   17.63
   4  -2   5  375.18   18.12
  -4  -2  -5  355.20   19.04
  -4   2   5  339.04   19.77
   4  -2   5  382.52   17.79
  -4  -2  -5  336.43   20.21
   4   2  -5  361.87   16.75
  -4  -2  -5  351.52   20.53
  -4   2   5  320.25   17.35
   4  -2   5  363.68   17.83
   4   2   5  361.56   20.47
   4  -2  -5  318.14   18.64
   4   2   5  355.19   20.04
   4   2   5  339.60   17.89
  -4   2  -5  329.69   20.84
  -4  -2   5  350.91   17.04
   4   2   5  348.76   19.90
   4  -2  -5  364.49   20.89
  -4  -2   5  363.80   17.29
   4  -2  -5  307.97   19.62
   4  -2  -5  337.61   19.44
  -4   2  -5  349.89   17.08
  -4  -2   5  350.82   16.38
  -4   3   5    8.28    9.04
  -4   3   5   24.10    9.48
  -4   3   5   12.90    8.99
   4   3  -5    4.17    6.52
  -4  -3  -5   14.09   10.15
   4  -3   5   12.39    7.61
  -4   3   5   18.05    7.98
  -4   3   5   12.65    8.08
   4  -3   5   23.16    7.58
   4   3  -5   15.48    8.55
  -4  -3  -5   19.39   10.29
   4  -3   5   18.50    7.98
   4  -3  -5   12.04    9.82
  -4  -3   5   15.35    6.98
   4   3   5   37.75   10.39
   4   3   5   26.17    9.84
  -4   3  -5    2.80    8.94
  -4  -3   5   12.15    6.50
   4   3   5   11.22    8.72
   4   3   5   -2.20    8.29
  -4  -3   5   18.70    7.45
   4  -3  -5   20.55    8.56
   4  -3  -5   25.17   11.07
   4  -3  -5   24.33    9.48
  -4   3  -5    9.16    6.88
  -4   4   5  139.93   16.85
  -4  -4  -5  167.03   19.65
   4  -4   5  131.50   11.32
  -4   4   5  134.97   16.20
  -4   4   5  138.32   16.62
   4  -4   5  148.18   13.60
  -4  -4  -5  128.58   17.57
   4   4  -5  146.18   19.27
   4  -4   5  139.47   13.25
   4  -4  -5  113.08   16.53
   4  -4  -5  142.37   18.30
   4   4   5  140.23   16.75
  -4   4  -5  125.05   18.62
  -4  -4   5  132.34   11.53
   4   4   5  115.01   15.62
   4   4   5  126.78   15.44
  -4   4  -5  142.97   12.87
   4  -4  -5  143.05   17.73
  -4  -5  -5   17.51   12.37
  -4  -5  -5   13.93   11.41
   4   5  -5   18.45   11.66
  -4   5   5    2.68   10.83
  -4  -5  -5   20.02   11.89
  -4   5  -5   12.96   11.81
   4  -5  -5   11.50   11.80
   4  -5  -5    9.69   11.02
   4   5   5    9.40   10.02
   4  -5  -5    5.72   11.51
   4   5   5    4.43    9.40
   4   0  -6 1058.63   34.48
   4   0  -6 1066.07   35.94
  -4   0   6 1124.09   36.72
  -4   0  -6 1092.86   35.18
  -4   0   6 1106.87   36.79
   4   0  -6 1099.85   36.34
  -4   0   6 1087.87   35.61
  -4   0  -6 1055.71   36.04
   4   0   6 1127.61   37.18
   4   0   6 1125.34   37.57
   4   0  -6 1037.85   33.98
   4   0   6 1070.28   37.00
  -4   0  -6 1114.08   36.32
   4   0  -6 1125.58   35.45
  -4   1   6   63.61   11.87
  -4  -1  -6   57.82   11.51
   4   1  -6   57.75   10.75
   4   1  -6   69.80   12.20
  -4   1   6   65.74   11.85
  -4  -1  -6   58.84   11.72
  -4   1   6   73.10   10.60
  -4  -1  -6   48.14   10.80
  -4   1   6   81.15   13.33
   4  -1   6   42.38   10.65
   4   1  -6   63.18   11.45
   4  -1   6   32.21   10.17
  -4   1   6   59.48   10.11
   4   1  -6   33.48    8.73
   4  -1   6   42.09   10.88
   4   1   6   50.09   11.75
   4   1   6   32.63   10.66
  -4  -1   6   53.28   10.81
  -4   1  -6   25.14    8.08
  -4  -1   6   51.53   10.08
   4  -1  -6   60.66   11.16
   4   1   6   51.92    9.92
  -4  -1   6   58.55   10.81
   4  -1  -6   75.08   11.72
   4   1   6   42.13   11.41
  -4   1  -6   38.77   11.56
   4  -1  -6   67.91   11.92
   4  -1  -6   83.39   12.23
  -4   1  -6   39.07   10.25
   4   2  -6  566.17   26.97
  -4   2   6  530.91   24.41
  -4  -2  -6  552.96   26.24
  -4   2   6  572.10   27.74
   4  -2   6  556.37   25.64
   4   2  -6  565.81   23.50
  -4   2   6  582.74   27.61
  -4  -2  -6  571.92   28.17
   4  -2   6  569.95   24.53
  -4   2   6  563.39   24.65
  -4   2   6  534.88   26.25
  -4  -2  -6  582.31   29.01
   4  -2   6  552.96   25.22
   4  -2  -6  588.02   27.60
   4   2   6  550.87   27.63
   4   2   6  531.08   27.14
   4   2   6  528.47   26.37
   4  -2  -6  556.30   28.13
   4  -2  -6  617.54   27.70
  -4   2  -6  564.06   29.40
   4  -2  -6  594.98   27.31
  -4   2  -6  549.93   23.70
  -4  -2   6  564.08   24.06
  -4  -2   6  579.10   24.24
   4   2   6  517.73   24.67
  -4  -2   6  588.08   23.17
  -4  -3  -6   98.67   16.48
  -4   3   6  109.07   15.35
   4  -3   6   73.24   11.96
   4  -3   6   87.90   12.22
   4   3  -6   86.55   14.81
  -4  -3  -6  110.21   16.95
   4   3  -6   85.76   11.84
   4  -3   6   79.92   12.65
  -4   3   6  108.43   16.70
  -4   3   6  133.72   16.77
  -4   3   6  104.31   16.04
  -4  -3   6   98.38   12.30
   4   3   6  104.64   15.22
  -4   3  -6   76.85   15.56
   4  -3  -6   94.09   15.99
   4   3   6  106.08   15.27
   4   3   6   82.51   13.56
   4  -3  -6  118.62   16.50
   4  -3  -6  105.62   15.29
   4   3   6  116.30   16.53
  -4  -3   6   78.42   10.75
  -4   3  -6   84.76   11.90
  -4  -3   6   82.92   11.60
  -4   4   6  499.91   26.84
  -4  -4  -6  522.31   31.34
   4  -4   6  536.67   23.84
   4  -4   6  533.84   24.30
   4   4  -6  566.31   31.19
  -4   4   6  509.30   28.46
   4  -4   6  536.28   22.49
  -4  -4  -6  509.07   30.17
  -4   4   6  474.57   28.22
   4   4   6  550.95   29.23
   4  -4  -6  466.10   29.57
   4   4   6  497.83   28.24
  -4  -4   6  579.74   22.91
   4  -4  -6  541.51   30.70
  -4   4  -6  499.48   22.28
   4  -4  -6  572.56   31.70
  -4   4  -6  461.56   31.09
   4   4   6  511.23   27.28
  -4   0   7  230.58   19.59
   4   0   7  230.95   19.97
  -4   0  -7  255.43   20.18
  -4   0  -7  231.30   18.87
   4   0   7  280.51   21.54
   4   0   7  271.74   21.03
  -4   0   7  247.57   22.98
  -4   0  -7  234.14   19.36
  -4   0   7  245.24   20.60
   4   0  -7  254.06   18.76
   4   0  -7  264.03   19.60
   4   0  -7  239.55   19.64
   4   0  -7  238.25   18.44
   4   1  -7   32.70   10.90
  -4  -1  -7   31.18   10.98
  -4  -1  -7   20.26   10.55
   4  -1   7   30.47   12.34
   4   1  -7   40.82   12.00
  -4  -1  -7   42.76   12.26
   4  -1   7   59.17   13.34
  -4   1   7   27.35   12.41
  -4   1   7   32.75   12.62
   4  -1   7   46.25   12.15
  -4   1   7   32.01   12.05
  -4  -1   7   44.74   12.44
   4  -1  -7   29.23   10.99
   4   1   7   41.89   13.11
   4   1   7   40.15   12.48
  -4   1  -7   62.23   13.53
   4   1   7   41.84   13.03
  -4  -1   7   32.58   11.00
   4  -1  -7   44.53   11.68
  -4   1  -7   36.28   14.02
   4  -1  -7   65.83   14.27
   4  -1  -7   31.90   11.48
  -4  -1   7   47.35   12.22
   4   2  -7   87.65   14.24
  -4  -2  -7   98.53   17.26
  -4   2   7   92.06   17.21
   4  -2   7   87.82   14.46
  -4   2   7  130.28   18.48
   4   2  -7  124.51   17.52
   4  -2   7  105.55   16.09
   4  -2   7  118.60   16.84
  -4   2   7  126.80   18.91
  -4  -2  -7   89.47   15.36
  -4  -2  -7  108.36   17.43
   4   2   7  101.62   16.64
  -4   2  -7  101.78   18.31
   4  -2  -7  119.51   18.78
  -4  -2   7  107.80   15.45
  -4  -2   7   92.71   15.28
   4   2   7  118.65   17.72
   4  -2  -7  107.67   17.76
   4  -2  -7   97.85   16.95
   4  -2  -7  101.30   17.97
  -4   2  -7   99.25   14.57
   4   2   7   94.78   17.33
  -4  -2   7   90.28   13.72
   4   2   7  100.22   15.17
   4   3  -7   45.78   11.32
   4  -3   7   20.16   10.24
   4  -3   7   47.95   12.75
  -4   3   7   49.52   15.09
   4   3  -7   40.23   12.10
  -4   3   7   62.67   14.66
   4  -3   7   62.29   13.24
  -4  -3  -7   53.68   14.97
  -4   3   7   35.62   13.13
  -4   3   7   42.47   13.31
  -4  -3  -7   49.40   14.85
  -4   3  -7   58.52   12.85
   4   3   7   14.25   10.94
   4  -3  -7   52.94   14.54
   4   3   7   50.38   14.28
   4   3   7   75.80   16.31
  -4  -3   7   30.78   11.14
   4  -3  -7   29.77   14.42
  -4  -3   7   29.80    9.93
   4   3   7   35.19   12.92
  -4  -3   7   38.13   11.21
   4  -3  -7   51.86   15.88
  -4   3  -7   27.73   13.81
   4   0   8  310.28   26.54
  -4   0   8  316.25   23.52
  -4   0   8  317.93   25.52
   4   0   8  302.03   24.99
  -4   0   8  326.21   26.11
   4   0  -8  277.94   23.15
  -4   0  -8  300.02   25.02
   4   0   8  283.77   26.74
  -4   0  -8  242.88   24.33
   4   1  -8   26.73   11.38
  -4   1   8   36.77   14.27
  -4  -1  -8   44.14   13.88
  -4   1   8   24.14   12.48
  -4  -1  -8   19.01   11.78
   4   1  -8   24.69   11.91
   4  -1   8   27.42   13.55
   4  -1   8   40.34   13.29
   4  -1   8   -2.02   10.70
  -4   1   8   39.92   14.04
  -4  -1   8   22.55   11.80
   4   1   8   31.68   13.11
  -4   1  -8   16.16   11.43
  -4   1  -8   29.59   13.27
  -4  -1   8   26.69   11.50
  -4  -1   8   22.24   12.69
   4  -1  -8   42.92   13.63
   4  -1  -8   42.21   13.23
   4   1   8   42.76   15.35
   4   1   8   51.58   14.67
   4  -1  -8   43.31   13.39
  -4  -2  -8  419.65   29.26
   4  -2   8  447.19   28.42
   4  -2   8  493.15   27.69
  -4  -2  -8  424.82   37.20
   4  -2   8  441.99   28.78
  -4   2   8  444.12   29.87
  -4   2   8  477.50   31.16
  -4   2   8  447.39   29.75
  -4  -2  -8  450.87   30.02
   4   2  -8  453.49   28.99
   4   2  -8  415.95   25.59
   4   2   8  385.51   29.31
   4  -2  -8  413.20   28.91
   4   2   8  410.31   30.56
  -4  -2   8  435.72   26.49
   4  -2  -8  384.40   28.17
  -4  -2   8  462.82   27.46
  -4   2  -8  450.38   31.08
   4   2   8  400.93   29.32
  -4   2  -8  487.31   26.98
   4  -2  -8  388.13   29.22
  -4  -2   8  450.04   25.80
   4  -2  -8  427.87   29.10
   5   0   0    3.84    3.36
  -5   0   0    3.89    3.23
   5   0   0    0.78    3.10
  -5   0   0   -0.24    3.23
  -5   0   0   -2.63    2.88
   5   0   0    1.46    3.07
  -5   0   0    0.10    2.36
  -5   0   0    4.13    3.28
  -5   0   0    1.17    3.27
   5   0   0   -2.00    3.17
  -5   1   0 9377.21  185.32
  -5  -1   0 9760.29  183.63
   5   1   0 9973.64  183.90
   5  -1   0 9999.00  185.55
   5  -1   0 9496.90  185.17
  -5   1   0 9704.28  185.18
   5  -1   0 9546.51  185.31
   5   1   0 9802.15  184.38
   5  -1   0 9672.61  185.16
  -5   1   0 9526.37  185.36
  -5   1   0 9770.09  185.36
  -5   1   0 9569.67  185.25
   5   1   0 9829.47  183.87
  -5  -1   0 9826.35  184.37
  -5   1   0 9682.45  185.37
   5   1   0 9709.96  183.93
   5   1   0 9961.24  183.66
  -5   1   0 9516.61  184.61
  -5  -1   0 9813.35  184.44
   5   1   0 9868.79  184.26
   5  -2   0    2.24    3.79
   5  -2   0    0.16    3.39
  -5   2   0    5.13    3.11
   5   2   0   -1.32    2.43
  -5  -2   0   -3.80    2.75
   5   2   0    2.54    2.84
   5  -2   0    1.13    3.66
  -5   2   0    6.56    3.26
   5  -2   0    2.19    3.60
  -5   2   0    5.54    3.27
  -5  -2   0    2.34    3.05
   5   2   0   -1.48    2.72
  -5   2   0    4.97    3.55
   5   2   0    1.01    3.40
  -5  -2   0   -4.27    2.78
  -5  -2   0    8.16    3.14
  -5   2   0    7.31    4.27
  -5   2   0    2.84    3.45
  -5   2   0    1.17    3.61
   5  -3   0 1544.91   36.06
  -5  -3   0 1609.53   34.26
  -5  -3   0 1566.22   33.53
  -5   3   0 1599.66   39.14
  -5   3   0 1550.39   33.77
   5  -3   0 1558.40   35.66
  -5   3   0 1578.46   36.96
  -5   3   0 1652.35   41.00
  -5   3   0 1591.87   35.88
   5   3   0 1607.09   38.57
  -5   3   0 1584.16   32.75
  -5  -3   0 1562.50   33.65
   5  -3   0 1545.80   36.14
  -5   3   0 1624.16   35.18
  -5  -3   0 1600.07   34.15
  -5  -4   0  116.30    8.72
   5  -4   0   90.10    8.90
  -5   4   0  123.46    8.70
   5  -4   0  126.43    9.93
  -5   4   0  116.11   12.79
  -5   4   0  109.99   11.36
  -5  -4   0  120.94    8.91
   5   4   0   94.45   10.27
  -5   4   0  126.60    9.88
   5  -4   0  107.81    8.96
  -5   5   0  703.25   29.93
   5   5   0  688.09   27.00
  -5  -5   0  693.68   20.39
  -5   5   0  683.32   22.77
   5  -5   0  656.59   21.68
  -5  -5   0  722.63   20.64
   5  -5   0  698.85   23.33
   5  -5   0  662.47   22.65
  -5   5   0  655.71   21.01
  -5   5   0  656.32   27.12
   5  -6   0  196.96   13.35
   5  -6   0  199.18   15.30
   5  -6   0  187.89   14.38
   5   6   0  215.11   18.43
  -5   6   0  153.36   17.80
   5   0  -1    0.99    1.87
   5   0  -1   -1.69    3.19
  -5   0  -1   -2.05    3.79
  -5   0  -1    0.48    3.41
   5   0  -1   -2.30    3.56
  -5   0   1    0.98    3.16
  -5   0   1   -6.02    3.31
   5   0   1   -1.82    3.51
  -5   0   1   -0.73    3.43
  -5   0  -1    2.73    3.87
   5   0  -1   -0.04    3.41
  -5   0  -1    0.74    2.88
  -5   0   1   -4.35    3.21
   5   0   1    3.97    3.83
   5   0   1   -2.89    3.57
   5   0  -1    2.59    3.34
   5   1  -1 1573.16   31.05
  -5   1   1 1436.47   32.90
  -5  -1  -1 1562.00   33.10
  -5   1   1 1467.58   33.61
   5   1  -1 1603.14   31.61
   5   1  -1 1579.49   30.37
   5  -1   1 1467.60   33.20
   5   1  -1 1590.24   30.90
   5   1  -1 1597.36   31.32
   5  -1   1 1510.38   32.49
  -5   1   1 1422.41   33.61
   5   1  -1 1646.29   34.21
   5  -1   1 1472.99   32.84
   5  -1   1 1463.46   33.11
  -5   1   1 1413.52   33.56
  -5  -1  -1 1535.96   33.81
  -5  -1  -1 1509.25   33.61
  -5   1  -1 1549.25   32.58
  -5  -1   1 1497.32   31.41
  -5   1  -1 1577.95   32.37
   5   1   1 1480.74   33.14
  -5   1  -1 1632.91   32.97
   5  -1  -1 1506.51   34.19
  -5   1  -1 1656.18   32.88
   5  -1  -1 1589.67   33.93
  -5  -1   1 1493.61   31.30
   5  -1  -1 1516.40   34.06
   5   1   1 1465.19   32.89
  -5  -1   1 1507.34   31.43
   5   1   1 1474.43   33.25
   5   1   1 1453.81   33.08
  -5   1  -1 1631.82   33.55
  -5   1  -1 1614.92   35.42
  -5  -1   1 1514.85   31.31
   5  -1  -1 1534.86   33.78
  -5  -2  -1  885.97   21.10
   5   2  -1  887.86   25.01
  -5   2   1  872.54   22.46
  -5   2   1  855.35   22.71
  -5  -2  -1  826.18   22.39
  -5  -2  -1  831.64   22.40
   5  -2   1  893.88   21.45
   5  -2   1  891.02   21.65
  -5   2   1  896.86   22.18
  -5   2   1  873.21   22.52
   5   2  -1  901.27   23.32
   5  -2   1  909.49   21.42
  -5   2  -1  887.98   21.22
  -5   2  -1  902.92   20.00
  -5   2  -1  863.28   19.46
  -5   2  -1  884.67   20.92
   5  -2  -1  819.51   22.59
  -5   2  -1  910.12   23.13
   5  -2  -1  871.53   23.37
  -5   2  -1  888.92   22.41
   5   2   1  889.08   21.86
   5   2   1  896.81   21.67
   5   2   1  856.77   20.86
  -5   2  -1  905.32   25.23
   5  -2  -1  861.69   23.31
   5  -2  -1  903.44   22.69
   5   2   1  908.61   21.52
   5   2   1  865.42   22.02
   5   2   1  904.47   21.76
  -5   3   1  529.96   16.92
   5  -3   1  547.54   15.88
   5  -3   1  562.69   16.27
   5  -3   1  552.97   16.12
  -5   3   1  572.94   17.46
  -5   3   1  586.46   20.03
  -5   3   1  538.88   17.74
   5   3  -1  569.09   19.07
  -5  -3  -1  564.68   17.64
   5   3  -1  551.93   21.37
  -5   3   1  525.49   16.41
  -5  -3  -1  554.47   17.56
  -5   3  -1  580.52   19.39
   5  -3  -1  569.34   18.85
  -5   3  -1  578.87   21.69
   5   3   1  554.64   13.59
   5   3   1  552.34   15.91
   5  -3  -1  544.93   18.64
   5   3   1  549.68   18.46
   5  -3  -1  568.93   18.03
   5   3   1  578.20   14.91
  -5   3  -1  562.44   15.97
  -5   3  -1  563.32   15.54
   5   3   1  557.65   16.63
   5   3   1  585.41   16.64
   5  -3  -1  550.44   17.14
  -5   3  -1  564.91   17.52
  -5  -4  -1   28.53    6.79
   5   4  -1   19.64    6.84
   5  -4   1   19.10    5.41
   5  -4   1   21.94    5.59
   5  -4   1   17.60    5.18
  -5   4   1   35.84    8.07
  -5   4   1   36.57    6.72
   5   4  -1   30.50    8.89
  -5   4   1   24.69    6.27
  -5  -4  -1   20.75    6.45
   5   4   1   24.06    5.76
   5  -4  -1    5.81    6.17
   5  -4  -1   21.22    6.44
   5   4   1   21.34    6.61
  -5   4  -1   19.47    5.80
  -5   4  -1    9.42    7.52
  -5   4  -1   34.94    7.60
   5  -4  -1   21.66    6.83
  -5   4  -1   18.74    4.71
  -5  -5  -1  178.43   12.77
   5  -5   1  177.82   11.59
   5  -5   1  156.67   10.46
  -5   5   1  182.13   16.71
  -5   5   1  190.66   12.58
   5  -5   1  185.69   11.72
  -5   5   1  178.74   13.00
  -5  -5  -1  198.08   12.86
   5   5  -1  189.07   15.09
  -5   5  -1  191.97   15.52
   5  -5  -1  202.87   13.44
  -5   5  -1  175.97   12.42
   5  -5  -1  200.53   14.32
   5  -5  -1  196.77   14.79
   5   5   1  145.99   11.51
   5   5   1  181.64   15.33
  -5   5  -1  193.47   19.33
  -5  -6  -1   90.92   10.38
  -5  -6  -1  104.42   12.42
   5   6  -1   99.38   15.18
  -5  -6  -1  109.79   12.40
  -5   6   1  102.10   11.77
   5  -6   1  114.42   11.45
  -5   6   1   88.89   14.92
   5  -6  -1   97.83   13.13
   5  -6  -1   99.06   12.09
   5   6   1   84.23   14.07
   5  -6  -1   62.91   11.51
  -5   6  -1   78.80   15.96
  -5   6  -1   98.98   15.03
   5   0  -2    4.07    3.92
  -5   0   2    0.95    3.80
  -5   0  -2   -1.13    3.39
   5   0  -2   -0.13    3.76
   5   0   2   -0.45    4.25
   5   0   2   -0.33    3.89
   5   0  -2   -0.86    3.89
   5   0   2   -2.07    3.99
  -5   0   2    4.06    3.27
   5   0  -2    0.14    3.02
   5   0  -2    0.63    3.98
  -5   0  -2    0.55    4.51
  -5   0  -2   -3.35    4.15
  -5   0   2    1.78    4.05
   5   0   2    0.62    4.24
  -5   0   2   -3.55    3.92
  -5   0  -2   -3.59    4.21
   5   1  -2 3408.51   67.02
   5   1  -2 3423.91   66.94
   5   1  -2 3366.12   66.80
   5   1  -2 3455.56   67.71
  -5   1   2 3275.58   68.90
  -5  -1  -2 3370.80   70.74
  -5   1   2 3251.90   70.24
  -5  -1  -2 3207.49   70.46
  -5   1   2 3295.55   69.96
  -5  -1  -2 3351.00   69.62
   5  -1   2 3378.57   69.00
   5   1  -2 3416.83   66.37
   5  -1   2 3363.71   68.92
   5   1  -2 3397.85   69.83
   5  -1   2 3443.47   68.91
  -5   1   2 3319.94   70.29
   5   1  -2 3434.70   66.80
   5  -1   2 3391.97   67.93
   5   1   2 3353.26   69.92
  -5   1  -2 3485.41   68.59
  -5  -1   2 3472.87   67.66
   5   1   2 3275.60   69.28
  -5  -1   2 3464.74   67.76
   5  -1  -2 3350.02   70.80
   5   1   2 3385.72   70.38
  -5   1  -2 3510.32   69.77
   5   1   2 3290.83   69.98
   5  -1  -2 3347.26   70.69
   5  -1  -2 3303.51   69.82
  -5  -1   2 3434.13   66.30
  -5   1  -2 3463.68   68.77
  -5   1  -2 3412.95   68.39
   5  -1  -2 3343.13   70.19
  -5  -1   2 3367.36   67.70
   5   2  -2   20.89    6.02
  -5   2   2   17.93    5.44
   5  -2   2   29.64    5.16
   5   2  -2   18.22    5.00
   5  -2   2   23.18    4.95
  -5  -2  -2   14.25    5.94
   5  -2   2   21.60    4.62
  -5  -2  -2   14.87    6.13
  -5   2   2   20.60    5.75
  -5   2   2   23.42    5.77
  -5   2   2   18.88    4.88
  -5  -2  -2   28.98    5.55
  -5   2  -2   14.57    6.13
  -5  -2   2   17.41    3.29
   5  -2  -2   26.18    6.44
  -5  -2   2   21.20    3.39
   5  -2  -2    9.37    4.98
  -5   2  -2   25.30    3.95
   5  -2  -2   19.67    6.13
  -5   2  -2   19.20    3.27
   5   2   2   16.98    5.49
   5   2   2   18.78    5.47
  -5  -2   2   22.04    3.31
  -5  -2   2   18.54    3.46
  -5   2  -2   20.48    4.72
  -5  -2   2   22.38    3.58
   5   2   2   17.28    5.38
  -5   2  -2   14.38    4.71
  -5   2  -2   20.97    4.33
   5   2   2   24.67    5.97
   5  -2  -2   26.58    6.19
  -5   2  -2   22.31    5.08
  -5   3   2 1383.44   35.49
  -5  -3  -2 1409.85   34.15
  -5  -3  -2 1343.33   36.16
  -5   3   2 1408.61   35.60
   5   3  -2 1461.23   37.17
   5  -3   2 1425.41   33.10
   5  -3   2 1435.51   33.15
  -5   3   2 1363.44   35.01
  -5  -3  -2 1415.83   36.52
  -5   3   2 1423.11   35.15
   5  -3   2 1412.06   32.26
   5   3  -2 1466.87   40.15
   5  -3  -2 1434.99   37.36
   5  -3  -2 1413.08   37.29
   5   3   2 1418.68   34.75
   5   3   2 1429.39   34.79
   5   3   2 1376.81   33.85
   5  -3  -2 1411.02   36.23
  -5   3  -2 1452.47   36.82
   5   3   2 1381.35   33.57
   5  -3  -2 1427.44   35.42
   5   3   2 1438.76   36.04
  -5   3  -2 1344.32   31.50
  -5   3  -2 1404.06   40.07
  -5   3  -2 1395.75   32.23
  -5   3  -2 1428.10   34.88
  -5   4   2  213.54   12.90
  -5   4   2  235.78   13.03
  -5   4   2  229.75   13.54
   5  -4   2  151.79   10.29
  -5  -4  -2  259.70   15.08
   5  -4   2  168.35   10.58
  -5   4   2  223.32   14.98
   5   4  -2  199.67   14.51
  -5  -4  -2  265.48   14.69
   5  -4   2  166.87    9.40
   5   4  -2  202.92   16.36
  -5   4  -2  185.22   13.66
   5  -4  -2  205.86   13.90
   5   4   2  214.37   14.15
  -5   4  -2  214.24   17.39
  -5   4  -2  200.85   12.35
   5  -4  -2  229.95   15.29
   5   4   2  239.08   13.40
   5  -4  -2  189.33   14.19
   5   5  -2  271.16   17.98
   5   5  -2  240.60   20.46
  -5  -5  -2  244.17   16.53
  -5  -5  -2  259.26   17.11
  -5   5   2  271.91   16.01
   5  -5   2  261.41   12.82
  -5   5   2  239.66   15.25
   5  -5   2  245.70   13.35
  -5   5   2  233.60   17.84
  -5   5  -2  236.26   14.18
   5  -5  -2  255.50   17.16
  -5   5  -2  249.71   17.34
   5   5   2  276.73   18.12
  -5   5  -2  252.21   21.15
   5  -5  -2  240.59   17.35
   5  -5  -2  261.15   16.78
   5   5   2  268.64   15.36
  -5  -6  -2  126.08   15.35
  -5  -6  -2  157.07   16.74
  -5   6   2  118.55   16.83
   5   6  -2  109.79   18.00
  -5  -6  -2  127.03   13.71
   5   6  -2  111.41   15.88
  -5   6   2  108.66   13.13
   5   6   2  120.07   13.02
   5   6   2  101.79   15.89
  -5   6  -2  123.25   19.03
   5  -6  -2  114.94   14.35
   5   6   2  105.18   12.71
   5  -6  -2  116.06   14.90
   5  -6  -2  113.56   15.35
  -5   6  -2  106.91   15.65
   5   0  -3   -1.21    4.36
   5   0   3    4.85    5.11
   5   0  -3    0.16    4.44
   5   0   3    0.25    4.66
  -5   0   3    2.24    4.87
  -5   0  -3    2.06    4.69
  -5   0   3    5.38    4.78
  -5   0   3    1.25    3.61
   5   0   3   -4.34    4.56
   5   0   3    1.32    4.39
  -5   0  -3   -2.05    4.57
   5   0  -3    0.58    4.36
   5   0  -3   -1.11    4.25
  -5   0   3    3.53    4.65
  -5   0  -3   10.26    5.37
   5  -1   3 1556.43   36.89
   5   1  -3 1538.99   33.94
  -5   1   3 1486.91   37.90
   5  -1   3 1571.77   36.84
  -5   1   3 1505.42   38.12
   5  -1   3 1552.25   35.13
  -5  -1  -3 1480.51   37.17
   5   1  -3 1560.03   34.51
   5   1  -3 1617.75   35.89
  -5   1   3 1494.31   36.15
   5   1  -3 1606.37   34.93
   5  -1   3 1552.33   36.47
  -5  -1  -3 1466.33   38.03
   5   1  -3 1568.77   37.43
  -5  -1  -3 1510.89   38.65
  -5   1   3 1479.90   37.49
   5  -1  -3 1471.19   37.54
  -5  -1   3 1556.58   33.73
   5   1   3 1520.02   37.85
  -5  -1   3 1524.57   35.26
   5   1   3 1500.11   38.11
   5  -1  -3 1487.63   37.34
   5  -1  -3 1474.87   38.19
  -5   1  -3 1582.35   37.29
  -5  -1   3 1591.61   35.97
  -5   1  -3 1549.05   36.14
  -5   1  -3 1574.86   36.28
   5   1   3 1490.12   36.65
  -5   1  -3 1529.75   35.63
  -5  -1   3 1571.03   35.82
   5   1   3 1490.48   38.05
   5  -1  -3 1453.63   37.78
   5  -2   3   11.17    4.89
  -5   2   3   25.41    6.40
  -5   2   3   15.47    6.42
   5  -2   3   -2.29    4.59
   5   2  -3   13.78    4.71
  -5  -2  -3   26.12    6.49
   5   2  -3   12.92    6.20
  -5  -2  -3   12.64    6.48
  -5   2   3   14.85    6.29
   5  -2   3    5.28    4.88
  -5  -2  -3   21.46    6.77
   5   2  -3    9.06    3.59
  -5   2   3   22.43    6.18
  -5   2   3   14.54    5.99
   5   2  -3    9.56    3.20
  -5   2  -3   11.36    6.68
  -5   2  -3    7.17    4.72
  -5  -2   3    0.82    4.12
   5  -2  -3    9.90    5.90
   5  -2  -3    8.08    5.95
   5   2   3   14.79    5.70
  -5  -2   3    5.53    4.38
   5  -2  -3   12.60    6.81
  -5   2  -3    7.29    3.74
  -5   2  -3    4.39    4.84
   5   2   3   16.50    6.22
  -5   2  -3    0.92    3.94
   5  -2  -3   14.10    6.79
  -5   2  -3    5.26    3.76
   5   2   3    5.64    5.53
   5   2   3   24.78    6.61
  -5  -2   3   -1.48    3.89
  -5  -3  -3  511.53   21.42
   5  -3   3  558.23   17.07
  -5  -3  -3  515.30   19.39
  -5   3   3  543.93   20.60
  -5   3   3  551.58   20.84
   5  -3   3  552.46   17.69
   5  -3   3  542.53   17.69
  -5  -3  -3  516.85   21.42
   5   3  -3  519.32   22.76
  -5   3   3  528.68   20.33
  -5   3   3  533.56   19.90
  -5  -3   3  550.32   15.00
   5  -3  -3  469.24   19.50
   5  -3  -3  519.88   21.10
  -5   3  -3  517.52   20.18
   5   3   3  576.45   20.47
  -5   3  -3  553.69   19.75
  -5   3  -3  471.76   18.46
  -5   3  -3  509.14   16.35
  -5  -3   3  537.85   15.06
   5   3   3  543.12   19.90
   5  -3  -3  467.07   21.12
   5   3   3  540.94   20.03
  -5   3  -3  504.17   23.34
   5  -3  -3  515.54   22.01
   5   3   3  541.30   19.59
  -5  -4  -3   42.75   10.01
   5   4  -3   29.81   10.30
   5  -4   3   28.86    5.75
  -5   4   3   49.06    9.11
   5  -4   3   18.77    5.98
  -5   4   3   33.22   11.01
  -5   4   3   42.87    9.05
  -5   4   3   50.08    9.14
   5  -4   3   16.74    6.11
   5   4  -3   31.11    8.55
  -5  -4  -3   32.66    9.42
   5  -4  -3   29.56    9.13
   5  -4  -3   35.05    8.74
   5   4   3   10.76    7.12
   5   4   3   41.44    8.42
   5  -4  -3   34.11    9.41
  -5   4  -3   32.49    7.83
  -5   4  -3   28.73    9.75
   5   4   3   32.22    8.25
   5   4   3   30.25    8.12
  -5   4  -3   29.98    8.50
  -5   5   3  211.80   15.72
   5   5  -3  214.54   19.92
   5  -5   3  236.15   12.94
  -5   5   3  240.82   21.21
  -5   5   3  204.13   16.33
  -5  -5  -3  279.40   19.14
   5   5  -3  241.40   18.36
  -5  -5  -3  246.13   19.02
  -5   5  -3  249.72   18.04
   5  -5  -3  241.06   18.82
   5  -5  -3  262.83   18.88
   5   5   3  204.78   15.89
  -5   5  -3  232.92   23.51
   5  -5  -3  248.87   18.00
   5   5   3  221.30   17.52
  -5   5  -3  245.85   15.88
  -5  -6  -3    6.36    8.66
   5   6  -3   -1.62    9.78
  -5   6   3   12.13    9.55
  -5   6   3   -0.15   10.30
   5   6  -3   -1.46    9.26
  -5  -6  -3    1.92    9.80
  -5  -6  -3   20.30   11.09
   5  -6  -3   25.21   10.30
  -5   6  -3   -6.58   10.06
  -5   6  -3   12.98    9.93
   5   6   3   -2.98    9.23
   5   6   3    3.38    8.83
   5  -6  -3   15.26   10.83
   5  -6  -3   13.69   10.24
  -5   0  -4    7.48    6.10
  -5   0   4    0.19    5.58
   5   0   4    4.41    5.02
   5   0  -4   15.55    6.17
   5   0  -4   11.29    5.61
  -5   0  -4    6.81    5.52
  -5   0  -4   -4.68    5.45
  -5   0   4    3.65    5.85
   5   0   4    7.87    6.44
   5   0  -4    0.01    5.43
   5   0   4    7.97    6.41
   5   0   4    0.06    6.00
  -5   0   4    1.86    5.80
  -5   0   4    1.53    4.23
   5   0  -4    4.91    5.51
  -5  -1  -4 1868.41   47.73
   5   1  -4 1876.72   43.45
  -5   1   4 1811.75   44.65
   5   1  -4 1877.46   46.51
  -5   1   4 1881.02   47.06
  -5   1   4 1874.19   47.47
   5   1  -4 1900.21   42.71
   5  -1   4 1938.16   43.72
  -5  -1  -4 1889.81   46.93
   5   1  -4 1912.14   43.46
  -5   1   4 1872.17   44.98
   5  -1   4 1829.58   45.60
   5   1  -4 1920.02   44.90
  -5  -1  -4 1876.06   48.04
   5  -1   4 1920.24   46.08
   5  -1   4 1923.98   45.58
  -5   1   4 1882.59   47.43
   5   1   4 1854.27   47.41
  -5   1  -4 1997.20   44.90
  -5  -1   4 1851.01   41.92
   5   1   4 1872.93   47.08
   5  -1  -4 1834.72   46.94
  -5   1  -4 1905.20   45.10
   5  -1  -4 1814.25   47.29
  -5  -1   4 1872.51   45.11
   5  -1  -4 1841.80   46.61
  -5  -1   4 1840.41   44.32
   5  -1  -4 1840.95   46.78
   5   1   4 1871.82   45.83
   5   1   4 1818.94   47.35
  -5   1  -4 1862.69   45.09
  -5  -1   4 1979.16   45.44
   5   2  -4   62.03    6.59
   5   2  -4   53.45    7.61
  -5   2   4   94.80   11.28
   5   2  -4   73.33   10.31
   5  -2   4   63.38    9.01
   5  -2   4   76.60    9.17
  -5   2   4   87.03    9.62
  -5   2   4   85.38   10.79
  -5   2   4   87.25   11.30
  -5  -2  -4  107.21   11.53
   5  -2   4   81.11    9.65
  -5  -2   4   51.54    7.49
  -5   2  -4   51.21    6.92
   5   2   4   75.01   10.50
  -5  -2   4   55.30    8.37
  -5  -2   4   52.47    8.06
  -5   2  -4   66.75    8.59
  -5   2  -4   59.96   10.71
   5   2   4   80.77   10.84
   5  -2  -4  104.77   11.78
   5  -2  -4   64.39   10.41
  -5   2  -4   59.15    9.18
   5   2   4   73.57    9.40
  -5   2  -4   55.39    6.60
   5  -2  -4   67.78   10.75
  -5   3   4  672.71   26.03
  -5   3   4  631.48   25.35
   5  -3   4  691.85   22.56
   5  -3   4  666.85   22.06
   5   3  -4  626.76   26.63
   5  -3   4  678.29   21.48
  -5  -3  -4  661.44   26.58
  -5  -3  -4  632.30   26.69
  -5   3   4  624.26   25.04
  -5   3   4  657.88   24.52
  -5  -3  -4  632.77   26.27
  -5  -3   4  681.91   20.17
  -5   3  -4  708.60   24.52
   5  -3  -4  679.11   27.42
   5  -3  -4  677.69   26.31
   5  -3  -4  666.55   25.15
   5   3   4  642.03   24.31
  -5  -3   4  671.14   20.24
   5   3   4  634.67   25.07
   5   3   4  702.62   25.62
   5  -3  -4  679.24   26.96
  -5   3  -4  652.53   21.20
   5   3   4  633.98   24.26
  -5  -3   4  684.57   19.14
  -5   3  -4  698.60   29.53
  -5  -4  -4   79.20   13.36
  -5   4   4   44.73   10.50
   5  -4   4   23.96    6.62
   5   4  -4   33.86   10.16
  -5  -4  -4   73.10   12.55
   5  -4   4   37.53    7.75
   5  -4   4   25.60    7.26
  -5   4   4   42.87    9.89
  -5   4   4   51.15   10.79
  -5   4   4   52.21   10.66
   5  -4  -4   48.41   10.68
  -5  -4   4   49.81    6.68
   5  -4  -4   36.33   10.41
   5   4   4   27.01    8.96
   5   4   4   38.80    9.62
  -5   4  -4   32.42    9.09
  -5   4  -4   37.52   11.61
   5   4   4   59.14   10.39
   5  -4  -4   56.11   11.78
   5   4   4   43.48    9.93
   5   5  -4  391.70   26.34
   5  -5   4  388.52   17.53
  -5   5   4  405.97   24.32
  -5   5   4  423.26   22.92
  -5  -5  -4  398.49   25.89
  -5  -5  -4  405.97   24.87
  -5   5  -4  364.37   26.62
   5   5   4  408.27   23.41
   5  -5  -4  409.00   25.08
  -5   5  -4  405.64   24.09
  -5   5  -4  405.26   20.58
   5   5   4  413.26   22.47
   5  -5  -4  410.18   25.32
   5  -5  -4  377.93   23.46
  -5   6   4  130.90   19.28
  -5   6   4  121.32   16.83
  -5  -6  -4  134.21   19.99
   5   6  -4   91.44   18.67
  -5  -6  -4  159.27   18.30
  -5  -6  -4  117.54   18.64
   5  -6  -4  116.27   19.15
   5   6   4  126.21   18.14
   5   6   4  103.70   15.70
   5  -6  -4  129.01   19.18
  -5   6  -4  106.53   20.32
   5   6   4  117.54   15.83
   5  -6  -4  116.23   16.81
  -5   6  -4  108.74   17.25
  -5   0  -5    9.97    7.13
   5   0   5    3.66    7.07
  -5   0  -5    9.34    7.15
  -5   0   5   -1.83    6.62
  -5   0  -5    1.72    6.86
  -5   0   5   -0.18    6.86
  -5   0   5    2.70    7.02
   5   0  -5    5.10    6.37
   5   0  -5    7.16    6.36
   5   0  -5   16.46    6.66
  -5   0   5    6.66    5.48
   5   0   5    0.64    7.63
   5   0   5   10.51    6.05
   5   0  -5    5.86    7.79
   5   0  -5    6.12    6.07
   5   0   5   15.08    7.97
   5  -1   5  304.07   17.45
   5   1  -5  271.98   13.54
  -5   1   5  246.10   16.99
  -5  -1  -5  256.77   17.22
   5  -1   5  284.06   16.48
   5   1  -5  291.03   16.65
   5   1  -5  264.29   14.06
   5  -1   5  253.92   16.10
  -5   1   5  273.83   16.78
  -5  -1  -5  267.45   17.42
   5   1  -5  266.83   13.98
  -5   1   5  255.10   17.14
  -5  -1  -5  268.74   16.60
  -5   1   5  270.29   15.13
   5   1  -5  259.59   15.49
   5   1   5  272.17   17.49
   5   1   5  256.35   17.35
   5  -1  -5  277.62   16.62
  -5   1  -5  252.28   14.24
   5  -1  -5  240.80   16.04
  -5   1  -5  281.25   16.07
   5  -1  -5  255.95   16.74
  -5   1  -5  283.52   15.44
   5  -1  -5  283.38   17.73
  -5  -1   5  306.59   16.57
  -5  -1   5  316.56   15.98
   5   1   5  275.28   17.99
  -5  -1   5  285.07   16.35
   5   1   5  268.68   15.51
  -5  -2  -5   25.11    9.65
   5  -2   5    4.06    6.92
  -5   2   5   18.06    8.59
   5  -2   5   23.58    7.90
  -5  -2  -5   31.84   10.10
   5   2  -5    9.17    7.11
   5   2  -5    9.21    6.54
  -5   2   5   22.85    9.35
  -5  -2  -5   30.72    8.79
  -5   2   5   24.10    7.88
  -5   2   5   17.09    8.89
   5  -2   5    9.47    7.13
  -5   2   5   20.05    7.80
  -5   2  -5    9.88    8.13
  -5  -2   5   18.93    6.77
   5  -2  -5   10.58    8.63
   5   2   5   27.42    9.18
   5   2   5    7.59    8.21
   5  -2  -5   31.85    9.36
   5   2   5   25.44    9.08
   5  -2  -5   23.03    9.30
  -5  -2   5    8.35    7.01
  -5  -2   5   14.94    7.08
   5   2   5   12.97    7.17
   5  -2  -5   14.16    7.90
  -5   2  -5   17.88    7.57
   5   3  -5  142.53   12.30
   5   3  -5  137.15   16.24
   5  -3   5  135.77   13.60
  -5  -3  -5  146.12   17.94
   5  -3   5  152.60   12.54
  -5  -3  -5  173.11   18.12
  -5   3   5  167.74   16.83
  -5   3   5  140.98   15.84
  -5   3   5  145.78   14.98
  -5   3   5  151.79   16.60
   5  -3   5  144.81   13.65
   5  -3  -5  156.35   17.87
  -5  -3   5  139.28   12.19
   5   3   5  151.35   16.16
  -5  -3   5  123.78   10.77
  -5   3  -5  146.65   12.50
   5  -3  -5  164.66   17.98
  -5   3  -5  153.44   18.55
   5  -3  -5  156.64   18.31
  -5  -3   5  141.03   12.23
   5   3   5  133.78   15.54
   5   3   5  160.04   16.09
   5   3   5  139.25   15.74
   5  -3  -5  162.21   16.87
  -5   4   5  167.57   17.96
  -5  -4  -5  156.44   19.56
  -5   4   5  147.14   17.24
   5  -4   5  176.98   15.33
   5  -4   5  143.01   12.22
  -5  -4  -5  188.66   21.18
  -5   4   5  170.34   17.77
   5   4  -5  142.96   18.73
   5  -4   5  155.35   13.66
  -5   4   5  200.85   24.85
   5   4   5  189.96   18.71
   5  -4  -5  191.79   20.10
  -5   4  -5  165.11   20.84
  -5   4  -5  160.66   12.89
   5   4   5  146.94   16.63
   5  -4  -5  184.99   19.99
   5   4   5  167.84   17.28
  -5  -4   5  162.64   11.94
   5  -4  -5  176.73   19.09
   5  -5   5  185.55   15.92
  -5  -5  -5  221.34   23.92
  -5  -5  -5  185.95   22.08
   5   5  -5  168.44   22.13
  -5   5   5  160.61   18.76
   5  -5  -5  212.90   22.52
   5  -5  -5  184.57   22.04
  -5   5  -5  164.52   22.74
   5   5   5  160.24   18.52
   5   5   5  195.91   20.51
   5  -5  -5  177.88   22.11
   5   0  -6   42.76   10.03
   5   0  -6   37.01    9.33
   5   0   6   28.43    9.91
  -5   0   6   40.88   10.17
   5   0   6   26.90    9.89
  -5   0  -6   14.27    7.85
   5   0   6   43.53   11.38
  -5   0   6   36.92   10.01
  -5   0  -6   25.40    9.25
   5   0  -6   24.42    8.18
  -5   0  -6   28.41    8.86
   5   0  -6   36.08    9.04
   5   0  -6   21.50    7.86
   5  -1   6  850.67   31.00
   5   1  -6  810.90   29.53
  -5  -1  -6  824.87   32.39
  -5   1   6  791.52   31.80
   5   1  -6  808.64   30.83
   5  -1   6  777.73   29.62
  -5   1   6  810.99   30.92
  -5   1   6  824.70   28.53
   5  -1   6  806.94   31.09
  -5  -1  -6  806.73   31.57
  -5  -1  -6  754.12   30.64
  -5   1   6  779.86   31.46
  -5  -1   6  807.00   29.73
   5   1   6  777.40   31.79
   5  -1  -6  758.96   30.43
  -5  -1   6  790.15   28.56
   5  -1  -6  794.64   30.60
   5  -1  -6  805.63   30.87
   5  -1  -6  780.99   30.78
  -5  -1   6  827.14   30.15
   5   1   6  853.61   32.34
  -5   1  -6  777.05   28.09
  -5   1  -6  770.19   33.78
  -5   1  -6  810.48   29.81
   5   1   6  789.24   29.45
   5   1   6  796.06   32.04
   5   2  -6   21.32    9.13
  -5  -2  -6   47.61   12.42
   5  -2   6   27.22   10.20
  -5  -2  -6   46.37   12.48
  -5   2   6   50.26   12.19
  -5   2   6   59.64   12.51
  -5   2   6   70.89   13.32
   5   2  -6   32.77    9.39
   5  -2   6   25.16    9.54
  -5   2   6   49.33   10.42
  -5  -2  -6   56.54   12.40
   5  -2   6   13.01    9.28
   5  -2  -6   35.35   10.83
  -5   2  -6   33.08    9.33
   5   2   6   35.58   11.10
   5   2   6   24.06   10.61
   5  -2  -6   34.86   11.32
  -5  -2   6   45.66   10.52
   5  -2  -6   56.25   12.64
  -5  -2   6   29.58    8.68
   5   2   6   36.18   11.50
   5   2   6   43.26   12.21
  -5  -2   6   43.53   10.19
  -5   2  -6   11.96   10.01
   5  -2  -6   48.72   11.85
  -5   3   6  633.45   30.16
  -5   3   6  641.21   29.90
   5   3  -6  684.67   24.84
  -5  -3  -6  607.31   31.08
  -5   3   6  588.84   27.60
   5  -3   6  621.13   25.10
  -5  -3  -6  582.09   30.91
  -5   3   6  605.44   29.66
   5  -3   6  618.87   26.43
   5  -3   6  612.02   26.43
   5   3  -6  622.72   30.32
  -5   3  -6  593.05   32.53
   5  -3  -6  587.14   29.38
  -5  -3   6  618.79   24.64
   5   3   6  608.90   29.41
   5   3   6  594.66   28.92
   5  -3  -6  642.27   31.44
  -5  -3   6  623.35   23.45
  -5   3  -6  628.99   25.26
   5   3   6  612.07   29.77
   5  -3  -6  649.81   31.46
   5   3   6  570.12   27.43
  -5  -3   6  666.49   24.84
  -5  -4  -6   86.18   16.51
  -5   4   6   69.22   14.45
   5  -4   6   41.56   10.47
  -5   4   6   81.89   14.01
   5  -4   6   69.39   12.08
  -5  -4  -6   53.80   14.70
  -5   4   6   57.81   13.71
   5  -4   6   51.15   11.38
   5   4  -6   51.34   14.01
   5  -4  -6   52.84   14.08
  -5   4  -6   48.60   10.54
  -5   4  -6   35.02   13.43
   5   4   6   75.45   13.78
   5   4   6   40.93   12.83
   5  -4  -6   79.41   16.26
   5  -4  -6   95.86   17.19
   5   4   6   60.93   14.16
  -5  -4   6   58.62   10.41
  -5   0  -7   17.29    9.40
   5   0  -7   14.42    8.83
  -5   0   7   -1.72    9.26
  -5   0   7   16.35   10.29
   5   0   7   18.64   11.66
   5   0  -7   15.94    8.93
  -5   0  -7   12.87    9.59
  -5   0  -7   20.30   10.45
   5   0   7   16.32   10.30
   5   0   7    3.04    9.86
   5   0  -7    1.60    8.87
  -5   0   7   28.39   10.65
   5   0  -7   12.72    8.70
  -5   1   7  173.65   19.19
   5   1  -7  151.73   17.75
  -5  -1  -7  195.63   20.99
   5  -1   7  151.95   18.10
   5  -1   7  157.92   18.59
  -5   1   7  170.79   20.52
   5  -1   7  157.89   17.89
  -5   1   7  176.17   20.33
   5   1  -7  184.42   19.31
  -5  -1  -7  162.94   19.34
  -5  -1  -7  187.88   21.74
  -5   1  -7  163.57   18.25
   5   1   7  170.39   19.27
  -5  -1   7  167.04   18.48
   5  -1  -7  151.73   18.88
  -5   1  -7  165.48   21.27
   5  -1  -7  163.86   20.17
   5  -1  -7  174.86   19.01
   5  -1  -7  191.18   20.49
   5   1   7  172.48   19.77
   5   1   7  153.43   20.00
  -5  -1   7  167.60   17.75
  -5  -1   7  200.20   20.18
   5   2  -7    9.25    9.12
  -5   2   7    0.30   11.32
   5   2  -7   -7.10    7.86
   5  -2   7   11.11   10.17
   5  -2   7    0.17    9.26
  -5   2   7   11.24   11.19
  -5  -2  -7   21.70   11.93
   5  -2   7    6.72   10.13
  -5  -2  -7   17.93   10.61
  -5   2   7   23.04   11.07
  -5  -2  -7   16.30   12.04
  -5  -2   7    5.18    9.64
  -5  -2   7    9.25    9.06
  -5   2  -7    1.96   10.93
   5  -2  -7    6.87   10.97
   5  -2  -7    2.24    9.76
   5   2   7   11.34   11.26
   5  -2  -7   18.21   11.20
   5  -2  -7   22.20   11.41
   5   2   7   14.90   10.42
   5   2   7   23.10   11.95
  -5  -2   7    6.90    8.53
   5   2   7    9.58   10.45
  -5   2  -7    9.86    8.83
   5  -3   7  209.58   19.60
  -5  -3  -7  224.67   24.33
  -5   3   7  218.83   23.49
  -5   3   7  212.28   24.58
   5   3  -7  199.99   22.59
   5  -3   7  231.22   20.01
   5   3  -7  208.78   17.38
  -5  -3  -7  224.70   24.98
  -5   3   7  201.67   22.83
   5  -3   7  246.36   22.28
  -5   3   7  182.65   20.14
  -5   3  -7  231.71   18.63
   5  -3  -7  251.18   26.50
   5  -3  -7  205.03   23.47
   5   3   7  227.78   23.43
   5   3   7  215.28   21.00
  -5  -3   7  190.84   16.69
  -5   3  -7  234.80   26.92
   5   3   7  236.72   24.23
   5   3   7  218.22   23.69
   5  -3  -7  235.32   25.65
  -5  -3   7  213.55   18.23
  -5  -3   7  215.33   19.78
  -5   0   8   29.55   13.62
   5   0   8   -2.39   10.96
  -5   0   8   26.33   11.37
  -5   0  -8  -16.30    9.50
  -5   0   8   16.15   12.58
   5   0   8    7.44   11.31
  -5   0  -8    5.85   10.34
   5   0   8    4.38   12.50
   5   0  -8   15.88   10.61
   5   1  -8  296.69   29.16
   5  -1   8  282.93   25.90
   5  -1   8  282.97   23.67
  -5  -1  -8  267.09   23.39
  -5   1   8  287.70   28.20
   5   1  -8  284.30   22.73
  -5   1   8  285.13   26.53
   5  -1   8  290.00   24.68
  -5  -1  -8  285.70   24.22
  -5   1   8  316.61   29.36
  -5  -1  -8  323.21   42.47
   5   1   8  275.60   27.52
  -5  -1   8  283.18   22.55
   5  -1  -8  289.34   23.98
   5  -1  -8  289.24   26.75
  -5  -1   8  265.11   23.47
  -5   1  -8  259.29   22.46
  -5  -1   8  266.13   25.63
   5   1   8  290.40   28.07
  -5   1  -8  271.81   27.79
   5   1   8  272.43   26.77
   5  -1  -8  273.53   24.16
  -5   2   8   56.98   16.28
  -5   2   8   54.68   16.35
   5  -2   8   24.85   12.23
   5   2  -8   18.50   10.53
  -5   2   8   56.94   16.21
  -5  -2  -8   55.69   15.21
   5   2  -8   14.81   11.75
   5  -2   8   30.97   13.62
   5  -2   8   16.08   12.84
  -5  -2  -8   56.42   14.64
   5  -2  -8   31.62   12.90
   5   2   8   43.40   15.19
  -5   2  -8   39.35   14.72
  -5   2  -8   37.96   12.83
   5  -2  -8   32.40   13.43
  -5  -2   8   24.02   12.64
   5   2   8   34.53   14.12
   5  -2  -8   36.83   13.41
  -5  -2   8   27.18   10.85
   5  -2  -8   22.46   12.87
  -5  -2   8   25.23   12.39
   5   2   8   50.11   15.39
  -6   0   0 1571.55   33.35
  -6   0   0 1549.65   32.85
   6   0   0 1567.35   33.97
  -6   0   0 1582.15   34.06
   6   0   0 1641.43   34.08
  -6   0   0 1609.75   34.17
  -6   0   0 1630.68   34.22
   6   0   0 1613.18   33.94
   6   0   0 1581.94   34.02
   6   1   0   37.61    3.98
  -6   1   0   40.37    5.16
   6  -1   0   29.69    4.67
   6   1   0   37.49    3.70
  -6   1   0   41.89    4.87
   6  -1   0   34.74    5.14
  -6  -1   0   41.84    4.08
  -6   1   0   36.86    4.59
  -6  -1   0   34.55    2.90
   6  -1   0   33.25    4.73
  -6  -1   0   43.53    4.79
  -6   1   0   34.67    5.01
  -6   1   0   37.91    4.44
  -6   1   0   38.26    5.31
   6   1   0   37.86    4.47
   6  -1   0   41.56    5.15
   6   1   0   36.65    4.07
   6   1   0   35.35    3.95
  -6   1   0   37.94    5.15
  -6  -1   0   39.96    4.61
   6   1   0   35.86    4.02
  -6  -2   0 3520.66   69.71
  -6  -2   0 3567.59   69.30
  -6   2   0 3631.55   72.54
   6  -2   0 3495.29   71.16
   6   2   0 3511.75   71.62
   6   2   0 3614.07   69.16
   6  -2   0 3563.67   71.08
  -6  -2   0 3559.90   70.87
   6   2   0 3519.18   69.13
  -6   2   0 3431.48   73.09
  -6   2   0 3457.88   70.53
  -6  -2   0 3493.18   69.55
  -6   2   0 3556.10   71.07
   6  -2   0 3448.86   71.35
  -6   2   0 3457.91   71.89
   6   2   0 3531.22   68.53
   6  -2   0 3481.20   71.50
  -6   2   0 3471.37   70.45
   6  -3   0   88.26    7.95
   6  -3   0   95.06    8.37
  -6   3   0  108.66    6.83
  -6  -3   0   89.01    6.34
  -6   3   0   93.36    7.70
  -6   3   0  104.23    6.26
  -6  -3   0  117.01    7.04
  -6   3   0  114.93    9.35
  -6  -3   0  107.76    6.47
  -6  -3   0  112.90    7.24
  -6   3   0  119.98    7.69
  -6   3   0  107.40    8.51
   6   3   0   96.58    8.40
   6  -3   0   94.77    7.78
  -6   3   0  113.79   10.39
  -6   4   0  926.56   31.16
   6   4   0  930.86   28.66
  -6  -4   0  920.88   23.77
  -6   4   0  950.68   25.03
   6  -4   0  945.93   26.49
   6  -4   0  911.06   25.49
   6  -4   0  945.19   26.47
  -6  -4   0  941.51   23.95
  -6   4   0  919.07   26.70
  -6   4   0  957.97   29.97
  -6  -5   0  162.97    8.70
  -6   5   0  140.88   11.58
   6  -5   0  130.03   12.17
  -6  -5   0  163.48   10.27
  -6   5   0  130.80   14.76
   6   5   0  122.98   13.39
   6  -5   0  119.40   11.03
  -6  -5   0  145.30   10.00
   6  -5   0  123.55   12.05
  -6   5   0  131.74   10.70
  -6   5   0  135.50   16.42
  -6   6   0  456.38   26.02
   6  -6   0  430.62   20.22
   6  -6   0  422.80   20.44
   6   6   0  436.94   25.05
   6  -6   0  410.11   18.52
  -6   6   0  427.67   18.48
   6   0  -1 1029.45   23.77
   6   0   1  998.86   24.18
  -6   0  -1 1052.21   24.39
  -6   0   1 1013.67   23.46
   6   0  -1 1051.12   23.61
   6   0  -1 1048.01   23.81
  -6   0  -1 1022.10   24.30
   6   0   1  980.15   23.74
  -6   0  -1 1011.55   23.08
  -6   0   1 1058.59   23.98
   6   0   1  995.29   24.05
   6   0   1 1026.15   23.76
  -6   0   1 1020.99   22.91
  -6   0   1 1040.46   23.85
   6   0  -1 1008.69   23.49
   6  -1   1  323.40   11.37
   6  -1   1  338.54   11.49
   6   1  -1  329.27    9.60
  -6   1   1  324.50   11.65
   6   1  -1  316.48    8.80
  -6  -1  -1  302.80    9.06
   6  -1   1  329.87   11.08
  -6  -1  -1  315.22   11.50
  -6  -1  -1  323.34   10.99
  -6  -1  -1  313.96   11.39
   6   1  -1  326.13    9.16
  -6   1   1  317.54   11.74
   6  -1   1  338.14   10.78
   6   1  -1  326.56    9.89
  -6   1   1  320.05   11.31
   6   1  -1  317.30    9.20
   6   1  -1  335.61   11.16
  -6   1   1  311.12   10.67
  -6   1  -1  331.80   12.61
   6   1   1  313.55   11.03
   6   1   1  315.27    8.91
   6  -1  -1  314.65   11.57
   6  -1  -1  313.15   11.68
   6   1   1  311.89   10.84
   6   1   1  309.58   11.04
  -6   1  -1  307.79   10.59
  -6   1  -1  334.39   10.84
  -6  -1   1  338.62    9.78
  -6  -1   1  317.54    9.56
   6  -1  -1  306.02   11.71
   6  -1  -1  319.20   11.56
  -6  -1   1  334.21    9.12
   6   1   1  328.26   11.32
  -6   1  -1  326.07    9.79
  -6   1  -1  324.69   11.09
  -6   1  -1  321.21   11.00
  -6  -2  -1 1022.58   25.64
   6  -2   1  988.44   24.46
  -6   2   1  995.98   24.88
   6  -2   1 1074.80   25.21
  -6   2   1  998.98   25.58
  -6  -2  -1 1028.74   25.53
   6  -2   1 1015.41   23.44
  -6   2   1 1008.37   25.68
  -6  -2  -1 1031.62   23.99
   6  -2   1 1001.59   24.56
   6   2  -1 1056.90   28.00
   6   2  -1 1050.89   26.12
  -6   2   1  982.48   25.21
  -6   2  -1 1027.01   27.97
   6   2   1 1019.42   24.29
  -6   2  -1 1018.20   24.42
  -6   2  -1 1067.52   25.77
  -6  -2   1 1017.41   21.51
  -6   2  -1 1025.21   23.41
  -6  -2   1 1026.35   21.72
   6   2   1  999.72   23.83
  -6   2  -1 1043.56   25.66
  -6  -2   1 1018.37   21.82
  -6  -2   1  998.79   21.39
   6  -2  -1 1042.61   26.70
   6   2   1 1022.31   24.55
   6   2   1 1000.19   24.43
  -6   2  -1 1030.10   22.98
   6  -2  -1 1022.58   26.31
  -6  -2   1 1043.75   21.84
   6   2   1  977.75   24.41
   6  -2  -1 1015.88   25.65
   6  -2  -1 1023.13   25.91
  -6   2  -1 1031.62   24.14
   6   3  -1   84.61    9.24
   6   3  -1   79.50   10.11
   6  -3   1   94.38    7.87
  -6  -3  -1   91.83    8.43
   6  -3   1   83.76    7.40
  -6   3   1  109.50    8.40
  -6   3   1  113.56    8.87
  -6   3   1  108.05    8.16
  -6   3   1  117.15    8.74
  -6   3   1   90.33    9.42
   6  -3   1   86.77    7.57
  -6  -3  -1   89.39    8.38
   6   3   1   91.72    7.76
   6   3   1   77.15    6.66
  -6   3  -1   81.42    8.96
   6  -3  -1   90.52    9.27
   6  -3  -1   84.95    8.84
   6   3   1   81.32    5.02
   6   3   1   76.12    5.99
  -6   3  -1   99.96    8.61
  -6   3  -1   98.66   11.13
   6  -3  -1   91.41    8.39
   6   3   1   83.39    8.40
  -6   3  -1   84.60    7.15
  -6   3  -1   84.55    7.04
   6  -3  -1   87.74    8.54
   6   3   1   94.40    7.86
  -6   4   1  477.86   18.23
   6  -4   1  473.76   16.62
  -6   4   1  456.06   20.48
   6  -4   1  479.79   16.41
   6  -4   1  461.26   16.49
   6   4  -1  476.32   22.97
  -6  -4  -1  463.77   17.46
  -6  -4  -1  468.19   17.42
  -6   4   1  505.67   17.62
  -6   4   1  498.60   22.11
   6   4  -1  501.73   19.99
  -6   4   1  523.24   21.52
   6  -4  -1  463.55   18.89
  -6   4  -1  469.96   15.62
   6   4   1  492.78   19.86
   6  -4  -1  476.33   18.24
  -6   4  -1  475.20   20.40
   6  -4  -1  488.95   19.02
  -6   4  -1  526.80   23.56
  -6   4  -1  483.79   17.90
   6   4   1  501.34   16.37
  -6   5   1  154.63   15.91
  -6   5   1  239.07   14.58
  -6  -5  -1  183.22   12.78
   6  -5   1  175.62   12.06
   6  -5   1  178.90   12.40
   6   5  -1  179.70   16.34
   6  -5   1  195.92   11.71
  -6   5   1  194.43   13.11
  -6  -5  -1  172.75   12.83
  -6   5  -1  180.55   18.77
   6   5   1  203.64   15.77
   6  -5  -1  184.90   13.31
   6  -5  -1  204.96   14.79
  -6   5  -1  189.42   12.75
   6   5   1  167.24   12.17
   6  -5  -1  181.80   14.19
  -6   5  -1  193.30   15.78
  -6  -6  -1  199.97   18.59
  -6   6   1  183.97   14.50
   6  -6   1  169.89   13.63
   6   6  -1  185.77   18.71
  -6  -6  -1  153.64   13.86
  -6   6   1  210.70   20.66
  -6  -6  -1  169.08   12.91
   6  -6  -1  174.68   16.83
  -6   6  -1  181.92   21.65
   6   6   1  225.65   20.76
  -6   6  -1  183.63   19.36
   6  -6  -1  196.01   15.00
   6  -6  -1  188.19   17.56
  -6   0   2 4049.37   80.71
  -6   0  -2 4080.33   81.60
   6   0  -2 3999.06   80.74
   6   0   2 3973.24   81.28
  -6   0  -2 3970.95   80.53
   6   0  -2 4055.55   80.64
  -6   0   2 3973.88   79.46
   6   0  -2 4013.56   80.45
  -6   0  -2 4038.42   80.43
   6   0   2 3877.49   81.19
   6   0   2 4004.03   80.52
  -6   0   2 4023.03   80.91
   6   0  -2 3880.85   77.96
   6   0  -2 4033.15   80.49
  -6   0   2 3939.07   80.68
   6   0   2 3869.11   80.72
  -6   0  -2 4030.89   81.49
   6  -1   2  112.84    7.86
   6  -1   2   96.26    7.79
   6   1  -2  102.82    5.94
  -6   1   2  107.44    8.78
  -6   1   2   88.72    7.12
  -6  -1  -2   97.22    8.13
   6  -1   2   98.80    7.08
   6   1  -2  103.77    5.76
  -6  -1  -2  104.88    9.03
   6   1  -2   91.84    6.00
   6   1  -2   91.79    6.89
  -6  -1  -2   89.85    8.47
  -6   1   2   82.02    8.05
   6  -1   2   86.93    7.81
   6   1  -2  101.54    6.29
   6   1  -2   92.54    7.27
  -6   1   2  106.45    9.19
  -6  -1   2  102.63    5.54
   6   1   2   93.79    8.19
  -6   1  -2   86.42    7.13
   6   1   2   89.55    8.29
  -6   1  -2  104.41    6.51
   6   1   2  108.74    8.73
  -6   1  -2   90.27    7.22
   6  -1  -2   83.22    7.69
  -6  -1   2  103.52    6.85
   6  -1  -2   96.44    8.30
   6   1   2  102.91    7.95
   6  -1  -2   99.96    8.66
  -6   1  -2   92.24    7.68
  -6   1  -2  101.53    7.42
   6  -1  -2   97.62    8.59
  -6  -1   2   90.48    6.48
  -6  -1   2   95.55    6.72
  -6   2   2 1120.14   29.90
  -6   2   2 1113.51   30.06
  -6  -2  -2 1123.08   30.24
   6  -2   2 1159.81   27.86
   6   2  -2 1217.75   31.84
   6  -2   2 1141.83   28.26
  -6   2   2 1115.32   29.05
  -6   2   2 1133.78   29.95
  -6  -2  -2 1148.98   28.88
  -6  -2  -2 1150.33   30.46
   6  -2   2 1155.35   28.27
  -6   2  -2 1192.62   26.72
   6  -2  -2 1143.62   30.93
   6   2   2 1178.52   29.67
  -6   2  -2 1181.67   27.71
   6  -2  -2 1159.61   29.97
  -6   2  -2 1165.47   27.41
  -6   2  -2 1173.96   29.32
  -6  -2   2 1172.98   25.32
   6   2   2 1148.52   29.16
   6   2   2 1135.37   29.37
  -6   2  -2 1195.41   32.98
  -6  -2   2 1158.51   25.64
  -6   2  -2 1166.86   25.95
   6  -2  -2 1211.39   31.31
  -6  -2   2 1187.30   25.51
  -6  -2   2 1147.40   25.42
   6  -2  -2 1200.28   30.64
  -6   2  -2 1176.33   29.20
   6   2   2 1144.66   29.06
  -6  -2   2 1177.97   25.45
  -6   3   2   33.68    6.64
   6  -3   2   15.90    5.25
  -6  -3  -2   62.88    8.66
   6  -3   2   17.85    4.86
   6  -3   2   19.51    5.51
   6   3  -2   16.89    7.11
   6   3  -2   13.94    5.75
   6   3   2   28.65    6.24
  -6   3  -2   22.94    6.20
   6  -3  -2   23.25    7.02
   6  -3  -2   20.77    6.24
  -6   3  -2   24.08    4.94
   6   3   2   19.47    5.76
  -6   3  -2   21.26    7.61
  -6   3  -2   16.96    4.95
   6  -3  -2   23.94    7.33
   6   3   2   24.01    5.86
   6  -3  -2   31.68    6.95
  -6   3  -2   14.33    5.41
   6   3   2   21.01    5.38
  -6  -4  -2 1190.31   33.29
  -6   4   2 1090.41   34.92
   6  -4   2 1132.33   29.63
  -6  -4  -2 1142.27   32.91
  -6   4   2 1129.77   31.89
   6   4  -2 1114.17   37.29
  -6   4   2 1124.86   32.12
   6  -4   2 1132.29   28.26
  -6   4   2 1078.93   31.21
   6  -4   2 1125.58   29.49
   6   4  -2 1139.70   34.39
   6  -4  -2 1124.84   33.87
   6  -4  -2 1142.38   32.82
  -6   4  -2 1137.17   31.54
  -6   4  -2 1123.34   34.07
  -6   4  -2 1083.17   37.77
   6  -4  -2 1199.28   34.65
   6   4   2 1137.94   33.43
   6   4   2 1161.20   31.17
   6  -5   2   71.87    7.76
   6   5  -2   71.10   13.96
  -6   5   2   78.39   12.68
   6   5  -2   61.88   11.35
  -6  -5  -2   71.86   11.44
  -6   5   2   85.65   10.80
  -6   5   2   73.13   10.63
   6  -5   2   69.09    9.05
  -6  -5  -2   86.55   12.17
   6  -5   2   73.58    9.46
   6   5   2   67.51   11.20
   6  -5  -2   78.97   12.12
   6  -5  -2   68.30   10.80
  -6   5  -2   77.53   10.20
   6  -5  -2   92.11   13.29
   6   5   2   76.58   10.76
  -6   5  -2   68.51   14.08
  -6   5  -2   64.27   11.69
  -6   6   2  323.27   23.26
  -6  -6  -2  286.29   17.33
  -6   6   2  310.32   18.68
  -6  -6  -2  305.24   20.01
  -6  -6  -2  288.73   19.74
   6   6  -2  305.20   21.33
  -6   6  -2  340.61   25.78
   6   6   2  302.38   21.79
   6  -6  -2  259.91   18.56
   6  -6  -2  311.65   21.04
   6  -6  -2  309.73   20.79
  -6   6  -2  299.46   22.39
   6   6   2  338.51   17.59
  -6   0  -3 1869.88   42.99
   6   0  -3 1761.33   41.78
  -6   0   3 1860.42   42.10
  -6   0  -3 1805.72   41.78
  -6   0   3 1853.19   42.57
   6   0  -3 1800.86   41.69
   6   0  -3 1755.46   41.47
   6   0  -3 1735.45   39.98
   6   0   3 1864.18   41.69
  -6   0   3 1817.48   40.38
  -6   0  -3 1781.01   42.04
  -6   0   3 1879.81   42.72
   6   0  -3 1745.63   41.78
   6   0   3 1783.30   42.33
   6   0   3 1787.27   42.82
  -6   0  -3 1781.60   42.91
   6   0   3 1820.10   42.83
   6  -1   3    8.97    4.24
  -6   1   3    1.31    5.03
   6  -1   3    4.56    5.04
   6   1  -3   13.41    4.77
  -6  -1  -3   16.22    6.24
  -6   1   3   12.40    4.53
   6  -1   3    1.43    4.85
  -6  -1  -3    5.99    5.62
   6  -1   3    4.06    4.88
   6   1  -3   11.21    4.80
   6   1  -3    7.84    3.70
   6   1  -3    7.24    3.96
  -6  -1  -3    1.08    5.50
  -6   1   3    8.65    5.68
   6   1  -3    1.69    3.51
  -6   1   3    5.46    5.60
   6  -1  -3    7.55    5.54
  -6   1  -3   10.81    4.90
   6  -1  -3   11.22    5.82
   6   1   3   16.56    5.86
  -6   1  -3    8.65    4.81
  -6   1  -3   10.93    4.94
  -6  -1   3   11.20    4.83
  -6   1  -3    9.89    4.79
   6   1   3    8.44    5.76
   6   1   3   -0.35    5.29
   6  -1  -3   13.95    5.96
   6   1   3    6.05    5.49
  -6  -1   3    3.83    4.36
  -6  -1   3   11.79    3.58
   6  -1  -3   17.68    6.25
  -6  -1   3   17.11    5.04
  -6  -2  -3 1392.48   37.86
   6   2  -3 1434.27   32.49
   6   2  -3 1472.70   31.66
   6  -2   3 1333.65   33.82
   6   2  -3 1441.68   37.75
  -6   2   3 1413.08   37.44
  -6  -2  -3 1456.09   38.08
  -6   2   3 1397.22   35.55
   6   2  -3 1405.53   30.36
   6  -2   3 1467.60   35.04
   6  -2   3 1360.23   31.99
  -6   2   3 1367.36   36.80
  -6  -2  -3 1392.50   36.02
   6  -2   3 1397.93   34.50
  -6   2   3 1333.79   36.53
   6  -2  -3 1444.17   37.53
   6  -2  -3 1385.44   37.93
   6  -2  -3 1404.27   37.79
  -6  -2   3 1401.20   32.13
  -6   2  -3 1419.63   32.68
  -6   2  -3 1428.03   31.94
  -6  -2   3 1402.62   32.50
   6   2   3 1396.61   36.54
   6   2   3 1382.52   35.65
  -6   2  -3 1460.88   35.98
  -6   2  -3 1440.86   33.69
   6   2   3 1462.67   37.33
   6   2   3 1391.26   36.33
  -6  -2   3 1380.25   32.45
   6  -2  -3 1393.73   36.70
  -6   2  -3 1421.65   40.23
  -6  -3  -3   48.44    9.07
  -6  -3  -3   45.93    7.81
   6  -3   3   27.69    6.74
  -6  -3  -3   39.30    8.58
   6   3  -3   25.86    7.99
  -6   3   3   50.96    8.96
  -6   3   3   55.03    8.28
  -6   3   3   54.24    8.81
  -6   3   3   52.29    8.97
   6  -3   3   31.60    6.56
   6  -3   3   33.41    6.72
   6  -3  -3   35.93    9.13
  -6   3  -3   28.60    7.02
  -6   3  -3   30.52    9.04
  -6   3  -3   22.26    5.49
   6   3   3   31.16    7.00
   6  -3  -3   26.13    7.66
   6  -3  -3   35.23    8.60
   6   3   3   38.85    8.21
   6  -3  -3   26.71    7.70
  -6  -3   3   30.84    4.43
   6   3   3   38.87    7.61
  -6   3  -3   29.23    7.05
   6   3   3   28.49    7.42
  -6  -3   3   35.76    4.93
  -6  -3   3   36.96    5.23
  -6   4   3  476.53   23.93
  -6   4   3  469.28   20.08
   6  -4   3  489.07   16.47
   6  -4   3  488.37   17.61
   6  -4   3  457.36   17.49
   6   4  -3  443.96   23.88
  -6  -4  -3  480.98   22.52
  -6   4   3  497.70   20.90
  -6   4   3  490.35   20.82
   6   4  -3  471.50   22.04
  -6  -4  -3  439.17   21.34
  -6   4  -3  432.88   15.67
   6  -4  -3  487.14   22.68
  -6   4  -3  489.56   25.25
   6   4   3  504.73   23.26
   6  -4  -3  446.47   22.43
   6  -4  -3  468.09   21.25
   6   4   3  476.34   20.69
  -6   4  -3  470.23   21.63
   6   4   3  452.35   19.97
  -6   4  -3  456.44   19.50
  -6   5   3   66.02   11.42
   6   5  -3   58.91   11.66
  -6   5   3   78.47   13.39
  -6  -5  -3   52.65   11.92
  -6   5   3   84.21   11.73
   6   5  -3   38.99   12.15
   6  -5   3   55.21    8.39
  -6  -5  -3   73.47   13.13
   6   5   3   64.08   11.08
   6  -5  -3   71.74   12.56
  -6   5  -3   73.22   12.64
   6  -5  -3   80.00   12.53
   6  -5  -3   87.49   13.79
   6   5   3   50.75   10.99
  -6   5  -3   61.87   10.21
  -6   5  -3   57.49   13.97
  -6  -6  -3  174.41   17.49
   6   6  -3  136.94   18.18
  -6   6   3  164.37   20.43
  -6   6   3  137.81   16.79
   6   6  -3  136.01   20.35
  -6  -6  -3  136.64   17.74
  -6  -6  -3  152.43   18.48
   6   6   3  188.21   18.03
   6   6   3  151.67   18.13
  -6   6  -3  139.68   18.02
   6  -6  -3  138.58   18.41
  -6   6  -3  106.50   19.82
   6  -6  -3  149.46   19.30
   6  -6  -3  140.82   16.95
   6   0  -4  911.18   27.16
   6   0   4  904.47   28.17
   6   0   4  938.54   26.48
  -6   0  -4  952.09   28.19
   6   0  -4  886.52   26.42
  -6   0   4  907.95   27.58
   6   0  -4  895.70   27.34
  -6   0  -4  921.04   27.62
  -6   0   4  879.32   25.19
   6   0  -4  949.84   27.31
  -6   0   4  904.40   27.82
   6   0   4  932.72   28.06
  -6   0  -4  903.32   28.07
   6   0   4  905.19   28.35
  -6   0   4  928.18   27.53
   6   0  -4  917.46   26.16
   6  -1   4   14.59    6.49
  -6  -1  -4   12.79    7.45
  -6   1   4   11.91    5.29
   6   1  -4   14.64    4.97
   6   1  -4   19.36    6.06
   6   1  -4   19.48    5.45
  -6   1   4   26.01    7.19
  -6   1   4   19.77    7.47
   6   1  -4   12.74    5.22
   6  -1   4   16.25    6.65
  -6   1   4   13.27    7.12
   6  -1   4   23.73    7.12
   6  -1   4   20.43    5.54
  -6  -1  -4   23.14    7.56
   6   1  -4   31.10    6.93
  -6  -1  -4   18.21    7.44
   6   1   4   21.57    7.45
  -6  -1   4   13.61    6.10
  -6  -1   4   15.19    6.57
  -6   1  -4   18.45    6.28
  -6  -1   4   12.85    4.44
   6  -1  -4   20.31    6.73
   6   1   4   16.41    6.90
  -6   1  -4   20.55    6.46
  -6  -1   4   22.81    6.23
  -6   1  -4   12.03    5.60
   6  -1  -4   34.72    8.15
   6   1   4   28.33    7.75
   6   1   4   11.93    6.15
   6  -1  -4   20.08    7.34
   6  -1  -4   14.89    7.24
  -6  -2  -4 1393.92   41.26
   6  -2   4 1510.22   38.45
   6  -2   4 1524.90   37.92
   6   2  -4 1457.31   40.94
  -6   2   4 1444.44   40.85
  -6  -2  -4 1463.31   41.88
  -6   2   4 1422.88   38.65
   6   2  -4 1479.65   34.44
  -6   2   4 1464.17   41.19
  -6  -2  -4 1416.21   39.88
   6   2  -4 1528.69   36.67
  -6   2   4 1478.79   40.73
   6  -2   4 1470.62   38.33
   6  -2  -4 1440.28   41.81
  -6   2  -4 1545.54   39.78
   6   2   4 1431.83   39.36
  -6  -2   4 1494.30   35.94
   6  -2  -4 1500.21   41.85
   6   2   4 1406.27   40.16
   6   2   4 1551.84   41.35
  -6   2  -4 1457.10   43.96
  -6  -2   4 1476.48   36.50
   6  -2  -4 1465.84   40.95
  -6  -2   4 1504.82   36.74
   6   2   4 1484.21   41.02
   6  -2  -4 1448.44   40.15
  -6   2  -4 1501.33   37.55
  -6   2  -4 1520.05   36.00
  -6   2  -4 1499.66   35.02
   6   3  -4   43.19    9.66
  -6   3   4   62.96   10.73
  -6   3   4   73.38   10.57
   6  -3   4   39.07    8.10
   6  -3   4   44.57    7.83
  -6  -3  -4   91.05   12.70
  -6   3   4   74.83   11.36
  -6  -3  -4   92.18   12.85
  -6   3   4   58.53    9.55
   6  -3   4   62.62    9.05
  -6  -3   4   39.14    6.26
  -6   3  -4   49.46    8.09
  -6   3  -4   41.55   11.16
   6   3   4   50.04    9.61
  -6   3  -4   40.72    8.64
   6   3   4   54.90    9.67
   6   3   4   52.18    9.61
   6  -3  -4   52.25   10.53
   6  -3  -4   74.93   11.37
   6  -3  -4   64.40   10.52
  -6  -3   4   44.09    7.04
   6  -3  -4   46.79   10.71
   6   3   4   39.58    8.71
  -6  -3   4   37.26    7.04
   6  -4   4  439.90   18.56
   6  -4   4  456.26   18.50
  -6   4   4  422.42   21.87
  -6  -4  -4  423.60   23.45
  -6  -4  -4  417.27   22.85
  -6   4   4  448.34   22.14
   6   4  -4  411.88   24.05
  -6   4   4  434.76   21.84
   6  -4   4  438.88   17.14
  -6   4   4  442.91   21.85
   6   4   4  445.25   21.61
  -6   4  -4  418.41   21.80
   6  -4  -4  452.39   24.44
  -6   4  -4  428.71   17.06
   6   4   4  410.17   20.52
  -6   4  -4  458.37   26.36
   6  -4  -4  445.95   23.02
  -6   4  -4  444.76   20.63
   6   4   4  446.06   21.44
   6  -4  -4  443.02   24.27
   6   4   4  393.32   20.81
  -6  -4   4  444.94   14.98
  -6   5   4  102.40   14.94
  -6  -5  -4   78.65   15.50
  -6  -5  -4   80.39   15.79
   6   5  -4   51.41   13.68
  -6   5   4   87.50   14.73
   6  -5   4   69.99   10.37
  -6   5  -4   66.15   11.63
   6  -5  -4   67.86   14.41
  -6   5  -4   84.83   14.20
   6   5   4   80.99   12.90
   6  -5  -4   71.31   12.96
   6   5   4   82.89   13.41
   6  -5  -4   79.42   14.01
  -6   5  -4   51.51   14.66
  -6  -6  -4  310.45   25.61
  -6  -6  -4  282.12   27.05
   6   6  -4  308.81   26.23
  -6   6   4  274.85   26.01
  -6   6   4  242.27   20.35
  -6  -6  -4  242.00   20.69
   6   6   4  258.84   20.40
  -6   6  -4  279.78   22.99
   6  -6  -4  283.20   26.70
   6   6   4  256.73   21.64
   6  -6  -4  265.79   22.72
   6  -6  -4  280.88   27.52
  -6   6  -4  222.87   27.67
   6   0   5  426.39   17.98
  -6   0   5  405.67   17.15
  -6   0  -5  470.43   20.55
   6   0   5  415.98   20.53
  -6   0   5  445.37   20.54
  -6   0  -5  420.05   19.69
   6   0  -5  429.22   18.81
  -6   0  -5  467.41   20.71
  -6   0   5  379.57   19.25
   6   0  -5  410.01   19.05
   6   0   5  401.74   20.29
  -6   0   5  404.12   19.42
   6   0   5  438.95   20.44
   6   0  -5  412.88   19.07
   6   0  -5  419.60   19.92
   6   0  -5  441.33   18.81
  -6   1   5  118.23   13.57
   6   1  -5  118.31   10.89
  -6   1   5  108.11   13.65
   6  -1   5  112.99   12.62
  -6  -1  -5  117.57   14.15
   6   1  -5  126.81   12.80
   6  -1   5  104.07   12.48
  -6  -1  -5   85.21   11.47
   6  -1   5  101.00   12.33
   6   1  -5  113.65   12.37
  -6   1   5  109.45   13.26
   6   1  -5  111.66   11.26
  -6  -1  -5  122.89   13.95
   6   1  -5  116.27   10.93
  -6   1   5  101.36   10.69
   6   1   5   93.43   12.88
  -6   1  -5  123.99   12.33
   6   1   5  135.86   14.70
   6   1   5  126.75   12.53
   6  -1  -5  115.14   13.69
  -6   1  -5  100.66   11.25
  -6  -1   5  107.01   11.88
   6  -1  -5  112.76   13.60
   6  -1  -5  106.97   12.97
  -6  -1   5  112.04   11.82
   6  -1  -5  148.25   15.03
  -6  -1   5  110.81   12.41
  -6   1  -5  108.89   12.01
   6   1   5  114.56   13.32
  -6  -2  -5  289.37   19.40
   6  -2   5  303.90   16.50
   6   2  -5  299.45   17.63
  -6   2   5  253.78   17.92
   6  -2   5  295.35   16.95
  -6   2   5  309.01   16.97
  -6   2   5  286.80   18.61
  -6  -2  -5  315.15   19.52
   6   2  -5  310.91   15.90
  -6   2   5  258.99   17.71
   6  -2   5  272.23   16.63
  -6  -2  -5  282.62   17.96
   6  -2  -5  302.50   18.43
  -6  -2   5  282.54   15.88
   6  -2  -5  314.17   19.62
  -6  -2   5  292.92   15.01
   6   2   5  292.45   17.01
  -6   2  -5  262.99   19.63
   6  -2  -5  303.68   19.28
   6  -2  -5  305.88   19.23
   6   2   5  305.86   19.03
  -6  -2   5  301.26   15.90
   6   2   5  303.66   18.76
   6   2   5  298.12   19.31
  -6   2  -5  288.50   16.05
  -6   3   5   49.46   11.24
   6  -3   5   43.84    9.50
   6  -3   5   23.33    8.68
  -6   3   5   69.66   12.59
  -6   3   5   50.25   11.60
   6  -3   5   46.08    8.83
  -6   3   5   39.11   11.07
   6   3  -5   31.36    7.71
   6   3  -5   23.89    9.66
  -6  -3  -5   37.62   11.32
  -6  -3  -5   49.67   11.80
   6  -3  -5   48.54   12.25
  -6  -3   5   28.63    7.19
   6  -3  -5   36.49   11.19
  -6  -3   5   32.35    8.09
   6   3   5   55.08   11.15
   6  -3  -5   49.66   10.81
   6  -3  -5   44.04   10.68
  -6  -3   5   34.44    8.03
   6   3   5   33.34   10.35
  -6   3  -5   34.78    8.53
   6   3   5   46.95   10.18
   6   3   5   33.46    9.54
  -6   3  -5   33.56   11.77
  -6   4   5  182.48   17.84
  -6  -4  -5  204.86   22.05
  -6   4   5  165.68   22.52
   6  -4   5  162.58   13.04
  -6   4   5  217.66   20.55
   6   4  -5  186.17   20.29
  -6   4   5  181.99   18.93
   6  -4   5  172.72   14.72
   6  -4   5  167.78   14.41
  -6  -4  -5  217.41   21.94
   6   4   5  215.97   19.53
  -6  -4   5  192.43   12.50
   6  -4  -5  178.98   19.29
  -6   4  -5  182.65   13.89
  -6   4  -5  197.75   22.74
   6   4   5  198.79   17.49
   6   4   5  207.75   20.01
   6  -4  -5  174.93   20.09
   6  -4  -5  218.46   21.93
  -6   5   5   41.86   12.47
  -6  -5  -5   28.55   13.23
  -6  -5  -5   53.37   15.00
   6  -5   5   39.99    9.92
   6   5  -5   13.14   11.48
   6  -5  -5   32.17   13.20
  -6   5  -5   33.31   13.89
   6  -5  -5   42.85   14.30
   6  -5  -5   57.74   14.03
   6   5   5   34.98   11.49
   6   5   5   34.10   11.41
   6   0   6  927.96   34.28
  -6   0  -6  897.70   32.68
   6   0  -6  878.75   30.97
   6   0  -6  927.27   31.36
  -6   0   6  935.82   33.22
   6   0  -6  894.94   32.49
  -6   0   6  870.59   31.74
  -6   0  -6  913.84   32.89
   6   0  -6  946.31   31.45
   6   0   6  890.06   33.02
   6   0   6  873.43   33.07
  -6   0  -6  903.43   31.99
   6   0  -6  926.16   30.91
  -6   0   6  882.27   32.50
  -6   1   6   61.46   13.03
  -6  -1  -6   53.19   11.93
   6  -1   6   36.26   11.16
  -6  -1  -6   48.72   11.22
  -6   1   6   56.98   11.24
   6  -1   6   47.21   11.24
   6  -1   6   47.69   10.99
   6   1  -6   49.02   10.33
  -6  -1  -6   54.34   11.77
  -6   1   6   39.04    8.95
  -6   1   6   55.71   12.21
   6   1  -6   59.82   11.42
  -6  -1   6   55.64   11.15
   6   1   6   45.14   11.59
  -6   1  -6   36.17    9.98
  -6   1  -6   57.61   13.52
   6   1   6   39.98   10.15
   6   1   6   60.11   13.24
  -6   1  -6   41.21    9.81
  -6  -1   6   66.31   11.07
   6  -1  -6   47.46   10.78
   6  -1  -6   83.28   12.96
  -6  -1   6   47.82   10.55
   6  -1  -6   60.05   12.19
   6   1   6   59.25   12.55
   6  -1  -6   68.75   12.11
  -6  -2  -6  389.73   24.38
   6  -2   6  412.03   21.23
  -6  -2  -6  370.00   23.69
  -6   2   6  379.70   23.07
   6  -2   6  431.81   22.18
   6   2  -6  379.57   21.96
   6  -2   6  432.74   22.22
  -6   2   6  371.60   20.77
  -6   2   6  395.86   24.10
  -6  -2  -6  373.99   22.17
  -6   2   6  396.37   23.70
   6   2  -6  416.39   20.35
  -6  -2   6  405.05   20.75
   6   2   6  374.70   23.72
   6   2   6  350.97   23.23
  -6   2  -6  374.27   20.43
  -6   2  -6  363.94   24.29
  -6  -2   6  395.13   20.78
  -6  -2   6  406.83   19.62
   6   2   6  430.44   24.19
   6  -2  -6  409.34   23.76
   6  -2  -6  367.63   22.29
   6  -2  -6  388.68   23.55
   6  -2  -6  424.22   24.48
   6   2   6  403.51   21.92
   6  -3   6   51.16   10.99
  -6  -3  -6   98.71   15.69
  -6   3   6   97.58   15.24
  -6   3   6   79.63   14.78
  -6   3   6  101.67   15.71
   6   3  -6   51.36   10.02
   6  -3   6   52.09   11.71
  -6   3   6   56.61   11.58
   6  -3   6   55.34   12.05
   6   3  -6   43.09   11.78
  -6  -3  -6   80.00   15.03
   6   3   6   49.78   12.37
   6  -3  -6   76.92   14.97
   6   3   6   58.06   12.43
  -6  -3   6   44.29    9.02
  -6   3  -6   53.13   10.78
   6  -3  -6   75.84   15.18
   6  -3  -6   52.55   13.01
  -6  -3   6   68.98   11.05
   6   3   6   47.89   12.54
  -6  -3   6   64.62   10.28
   6   3   6   59.48   13.32
  -6   3  -6   37.23   13.32
  -6   4   6  374.84   25.80
   6  -4   6  348.87   21.43
  -6   4   6  361.20   24.19
  -6  -4  -6  371.25   26.88
   6  -4   6  358.06   19.35
  -6   4   6  358.93   24.39
   6  -4   6  311.21   20.04
  -6  -4  -6  338.97   27.02
   6   4  -6  354.35   25.22
   6  -4  -6  295.87   25.17
   6   4   6  301.59   25.99
   6  -4  -6  336.38   25.38
  -6   4  -6  357.42   27.39
  -6   4  -6  372.25   19.91
  -6  -4   6  382.19   18.88
   6  -4  -6  339.37   26.88
   6   4   6  347.35   23.22
   6   4   6  322.95   24.34
   6   0   7  376.46   24.92
   6   0  -7  386.50   23.30
  -6   0   7  358.62   24.24
  -6   0  -7  346.26   22.35
  -6   0  -7  366.93   22.30
  -6   0   7  355.90   22.35
   6   0  -7  344.70   21.40
   6   0  -7  372.37   21.54
  -6   0   7  343.01   23.07
   6   0   7  343.21   23.32
   6   0  -7  358.84   21.02
  -6   0  -7  311.36   21.88
   6   0   7  371.91   23.96
   6  -1   7   23.39   11.29
  -6  -1  -7   30.78   10.53
   6   1  -7   12.58    8.67
  -6   1   7   25.94   11.86
  -6  -1  -7    9.32    9.87
  -6   1   7   45.54   13.43
  -6   1   7   16.76   10.46
  -6  -1  -7   30.79   11.21
   6  -1   7   16.14   10.64
   6  -1   7   13.09   11.04
   6   1  -7   27.83   10.39
  -6  -1   7    5.31    9.58
  -6  -1   7   32.52   11.48
  -6  -1   7   29.07    9.89
   6  -1  -7   20.24   11.18
   6   1   7   28.65   12.26
  -6   1  -7   25.11   11.61
   6   1   7   28.85   12.77
   6   1   7   22.14   11.16
  -6   1  -7   28.54   10.54
   6  -1  -7   -1.30    9.16
   6  -1  -7   27.11   10.93
   6  -1  -7    8.64    9.84
   6  -2   7  233.94   21.69
  -6   2   7  191.86   21.19
  -6   2   7  213.85   22.89
   6  -2   7  193.23   19.97
  -6  -2  -7  225.42   23.07
  -6   2   7  248.13   24.17
  -6  -2  -7  234.10   22.87
   6  -2   7  208.34   21.02
   6   2  -7  190.62   19.96
  -6  -2  -7  191.73   21.69
   6   2  -7  205.68   17.88
   6   2   7  174.24   20.70
   6   2   7  217.03   22.36
   6   2   7  207.51   23.04
   6  -2  -7  208.67   21.07
  -6  -2   7  198.56   18.60
  -6  -2   7  215.48   18.37
   6  -2  -7  212.32   22.92
   6  -2  -7  219.04   22.90
   6  -2  -7  256.55   24.46
  -6  -2   7  183.28   18.85
   6   2   7  217.74   19.02
  -6   2  -7  220.80   20.57
  -6   2  -7  230.39   25.45
  -6   3   7   32.54   13.95
   6   3  -7   36.07   10.51
   6  -3   7   27.88   11.29
   6  -3   7   31.76   11.65
  -6   3   7   21.98   12.39
  -6  -3  -7   48.22   14.97
   6   3  -7   30.33   12.11
  -6   3   7   27.32   13.06
  -6  -3  -7   48.34   14.32
   6  -3   7   36.31   12.68
  -6   3   7   28.74   11.76
   6   3   7   23.83   12.80
   6  -3  -7   30.91   13.96
   6   3   7   38.15   13.42
  -6   3  -7   37.19   14.48
  -6   3  -7   28.85   11.19
  -6  -3   7   42.78   11.83
   6  -3  -7   35.76   13.22
  -6  -3   7   37.74   11.46
   6   3   7   38.25   13.55
   6  -3  -7   39.88   14.10
  -6  -3   7   28.23   10.05
   6   3   7   44.00   12.05
  -6   0  -8  243.12   26.40
   6   0   8  166.67   22.05
   6   0   8  191.53   22.18
   6   0  -8  211.26   22.57
  -6   0   8  237.99   24.94
  -6   0   8  215.33   22.02
  -6   0  -8  184.62   21.25
  -6   0   8  215.96   24.34
   6   0   8  199.66   23.91
   6  -1   8   -8.96   10.73
   6  -1   8  -12.96    9.87
  -6   1   8   34.72   14.16
  -6   1   8   38.34   13.79
   6   1  -8   10.53   10.89
  -6   1   8    6.98   12.58
   6  -1   8    8.71   11.73
  -6  -1  -8   22.40   11.82
  -6  -1  -8    7.15   10.62
  -6  -1  -8   23.72   13.87
   6   1   8    3.48   11.83
  -6   1  -8   11.73   11.68
   6  -1  -8   22.72   11.91
   6   1   8    8.55   12.55
   6  -1  -8    5.64   10.83
  -6   1  -8    1.86   10.31
  -6  -1   8   27.76   11.63
  -6  -1   8   -6.32   11.12
   6   1   8   27.05   13.28
   6  -1  -8   24.08   12.37
  -6  -1   8    4.30   12.00
   7   0   0    0.66    3.94
  -7   0   0   -1.36    3.24
  -7   0   0    8.57    4.08
  -7   0   0    0.60    4.06
  -7   0   0   -1.53    3.89
  -7   0   0    0.72    2.97
   7   0   0    6.55    4.48
   7   0   0   -4.85    3.76
  -7   0   0    1.46    3.84
   7   0   0    3.06    3.85
  -7   1   0 2709.85   56.51
   7   1   0 2755.24   55.82
  -7   1   0 2813.96   57.62
  -7  -1   0 2848.21   54.03
   7   1   0 2806.18   56.02
  -7   1   0 2795.68   57.48
  -7   1   0 2724.96   57.15
  -7  -1   0 2802.92   56.63
  -7  -1   0 2812.79   56.69
   7  -1   0 2690.80   57.22
   7  -1   0 2779.13   57.28
   7   1   0 2840.17   55.78
   7   1   0 2795.87   55.78
  -7   1   0 2751.25   57.55
   7   1   0 2780.57   55.24
  -7  -1   0 2847.63   55.68
   7  -1   0 2898.65   57.65
   7  -1   0 2701.08   57.41
   7   1   0 2788.73   56.29
  -7   1   0 2851.39   56.52
  -7   2   0  250.15   10.88
   7   2   0  255.11   10.09
  -7   2   0  237.93   11.18
  -7   2   0  252.55    9.85
  -7   2   0  267.25   11.01
  -7  -2   0  251.71    9.40
  -7  -2   0  261.07    9.43
   7  -2   0  243.61   10.58
   7  -2   0  254.12   10.88
   7  -2   0  254.53   10.75
   7  -2   0  257.42   10.61
   7   2   0  252.63    7.41
   7   2   0  249.87    9.05
   7   2   0  260.49    8.83
  -7   2   0  246.89   10.34
  -7   2   0  233.91    9.94
   7   2   0  242.95    8.36
  -7   3   0  768.37   23.56
  -7   3   0  744.96   19.92
   7   3   0  783.55   18.87
  -7   3   0  740.63   22.07
   7  -3   0  743.34   21.24
  -7  -3   0  770.50   18.87
  -7   3   0  772.35   20.59
  -7  -3   0  749.48   19.59
  -7   3   0  774.00   24.54
  -7   3   0  747.71   21.52
  -7   3   0  750.32   19.33
  -7  -3   0  767.52   19.57
   7  -3   0  768.06   21.98
   7   3   0  753.85   22.54
   7  -3   0  780.89   21.97
   7  -4   0   43.17    7.69
  -7   4   0   62.25    7.46
  -7  -4   0   69.64    7.17
  -7   4   0   73.66   10.95
   7   4   0   49.27    8.26
   7  -4   0   51.93    8.09
  -7   4   0   64.65    9.41
  -7   4   0   58.63    8.21
   7  -4   0   55.40    7.65
  -7  -4   0   77.18    7.44
  -7   5   0  473.26   18.09
   7  -5   0  451.50   18.60
   7   5   0  486.10   22.57
  -7   5   0  467.28   19.60
   7  -5   0  492.13   20.14
   7  -5   0  483.99   19.88
  -7  -5   0  490.09   16.78
  -7  -5   0  489.70   17.05
  -7   5   0  500.60   23.35
  -7   5   0  481.57   24.73
  -7   6   0   43.41    8.90
  -7   6   0   33.17   11.43
   7   6   0   47.18   11.78
   7  -6   0   34.66    9.32
   7  -6   0   36.56    8.69
   7  -6   0   28.58    9.22
  -7   0  -1   -3.86    3.83
  -7   0  -1    0.66    4.10
   7   0  -1    1.37    3.64
  -7   0   1    0.17    3.66
  -7   0   1   -2.70    3.13
   7   0  -1   -1.76    3.81
   7   0  -1    1.09    3.64
   7   0   1    0.20    3.61
  -7   0   1   -0.22    3.60
   7   0   1    1.80    4.07
   7   0  -1    5.23    3.87
  -7   0  -1    3.08    4.23
   7   0   1    1.21    3.79
   7   0   1    0.82    3.91
  -7   0  -1   -2.31    3.03
  -7  -1  -1 1726.37   38.33
   7   1  -1 1803.10   37.08
   7   1  -1 1769.28   37.20
  -7  -1  -1 1725.99   39.37
   7   1  -1 1809.29   37.67
   7  -1   1 1841.40   38.75
   7  -1   1 1809.68   39.54
   7   1  -1 1851.07   39.14
   7   1  -1 1766.66   37.40
   7  -1   1 1840.15   39.76
   7  -1   1 1781.38   39.12
  -7   1   1 1836.57   40.05
  -7  -1  -1 1741.65   36.65
   7   1  -1 1761.28   36.75
  -7   1   1 1780.99   39.78
  -7  -1  -1 1801.00   39.66
  -7  -1   1 1866.24   37.74
   7  -1  -1 1802.54   39.73
  -7   1  -1 1770.53   38.59
  -7   1  -1 1836.82   39.19
  -7   1  -1 1811.78   37.33
  -7   1  -1 1802.77   40.60
   7   1   1 1816.73   39.01
  -7  -1   1 1818.78   37.74
  -7  -1   1 1855.71   36.95
  -7   1  -1 1846.56   39.05
   7   1   1 1766.46   38.71
   7   1   1 1764.31   36.09
   7   1   1 1792.80   39.03
   7  -1  -1 1784.45   40.02
   7  -1  -1 1753.45   39.37
   7   1   1 1833.18   39.06
   7  -1  -1 1793.98   39.94
  -7   1  -1 1771.49   39.13
   7   2  -1  434.01   15.97
  -7  -2  -1  401.47   14.05
   7  -2   1  402.71   13.63
   7  -2   1  403.40   12.51
   7  -2   1  392.64   13.86
  -7   2   1  412.20   14.53
  -7   2   1  402.47   13.51
  -7   2   1  390.26   14.11
   7  -2   1  383.65   13.46
  -7  -2  -1  406.28   12.68
  -7  -2  -1  400.63   13.91
  -7   2   1  402.46   13.27
   7   2  -1  415.53   14.00
   7   2   1  395.33   12.94
   7   2   1  400.54   13.15
  -7  -2   1  404.42   11.10
   7  -2  -1  408.73   14.52
  -7   2  -1  389.06   15.77
  -7   2  -1  369.13   15.04
  -7  -2   1  386.78   10.84
   7  -2  -1  404.34   15.09
   7   2   1  391.95   12.83
   7   2   1  399.86   12.48
  -7   2  -1  403.70   12.36
  -7   2  -1  427.88   13.17
  -7   2  -1  412.66   12.70
  -7   2  -1  430.54   14.03
  -7  -2   1  406.05   10.84
   7  -2  -1  381.67   14.46
  -7  -2   1  402.84   11.14
   7   2   1  372.64   12.52
   7  -2  -1  398.69   14.22
  -7   2  -1  397.36   13.95
  -7  -2   1  396.66   10.67
  -7  -3  -1  918.86   25.36
   7   3  -1  929.31   29.57
   7  -3   1  949.99   24.85
   7  -3   1  960.84   24.70
   7   3  -1  911.68   26.63
  -7   3   1  937.69   25.02
  -7  -3  -1  930.17   25.21
   7  -3   1  960.87   24.81
  -7   3   1  964.49   25.19
  -7   3   1  939.89   26.10
  -7   3   1  975.44   27.54
  -7   3   1  969.15   25.63
  -7   3   1 1003.49   27.97
   7   3   1  980.07   24.34
  -7   3  -1  941.84   27.01
   7  -3  -1  884.28   25.61
  -7   3  -1  936.14   29.34
   7  -3  -1  893.07   26.59
   7   3   1  964.16   22.27
   7  -3  -1  899.32   26.44
   7   3   1  953.91   21.15
  -7  -3   1  948.00   20.73
  -7   3  -1  879.87   21.36
  -7   3  -1  900.76   24.18
   7   3   1  948.74   24.05
  -7   3  -1  934.06   25.87
   7   3   1  939.79   25.86
  -7   3  -1  959.13   24.01
   7  -3  -1  911.11   25.14
   7   3   1  964.97   23.43
  -7   4   1   83.35    9.26
  -7   4   1   57.26    8.76
  -7  -4  -1   67.79    8.47
   7  -4   1   51.20    7.38
   7  -4   1   68.83    8.08
   7  -4   1   70.39    8.30
  -7   4   1   61.51    8.22
  -7  -4  -1   67.08    8.54
   7   4  -1   51.64    8.84
   7   4  -1   52.47   10.71
  -7   4   1   63.56    9.81
  -7   4   1   76.41    9.67
  -7   4  -1   49.32   10.41
  -7   4  -1   54.28    7.94
   7   4   1   69.69    9.54
  -7   4  -1   61.48    7.27
   7  -4  -1   53.93    8.98
   7  -4  -1   53.68    8.26
   7  -4  -1   65.65    9.40
  -7   4  -1   40.67    8.60
   7   4   1   63.04    7.54
   7  -5   1  617.34   21.73
  -7   5   1  571.45   22.56
  -7  -5  -1  603.27   22.00
   7   5  -1  580.31   25.30
  -7   5   1  603.31   26.60
   7  -5   1  574.10   20.11
  -7  -5  -1  593.83   21.50
  -7   5   1  627.99   22.03
   7  -5   1  572.11   21.08
  -7   5  -1  594.04   28.56
  -7   5  -1  588.82   19.51
   7  -5  -1  600.73   22.48
   7   5   1  600.16   20.58
   7  -5  -1  595.03   23.74
  -7   5  -1  584.36   22.07
  -7   5  -1  591.44   25.66
   7  -5  -1  612.64   23.75
   7   5   1  598.05   25.09
   7   6  -1   32.80   10.66
  -7   6   1   35.53   11.98
  -7  -6  -1   56.63   10.69
   7  -6   1   44.03    9.60
  -7   6   1   36.90    9.80
   7   6   1   30.95   10.64
   7  -6  -1   50.36   10.47
   7  -6  -1   62.72   11.55
  -7   6  -1   34.42   13.47
   7  -6  -1   40.77   10.79
  -7   6  -1   37.95   11.24
   7   0  -2    3.48    4.09
  -7   0  -2    0.63    4.24
  -7   0  -2    5.04    4.76
   7   0   2   -1.64    4.11
  -7   0  -2    1.76    3.59
  -7   0   2    5.08    4.24
   7   0   2    2.87    4.53
   7   0  -2    2.57    4.16
   7   0   2   -4.77    4.19
   7   0  -2    1.87    3.88
   7   0  -2    0.69    3.83
  -7   0  -2   -3.15    4.37
  -7   0   2   -1.50    4.05
   7   0  -2    0.95    2.52
   7   0   2   -2.51    4.03
  -7   0   2    2.23    4.30
  -7   0   2    3.30    3.52
   7   1  -2 2245.80   46.90
   7  -1   2 2271.25   49.37
  -7   1   2 2286.05   50.24
   7  -1   2 2282.20   49.38
   7  -1   2 2229.33   47.93
   7   1  -2 2320.11   46.82
   7   1  -2 2257.62   46.76
  -7  -1  -2 2178.00   50.22
  -7   1   2 2180.74   49.67
   7   1  -2 2297.96   46.43
  -7  -1  -2 2180.48   50.21
  -7   1   2 2224.18   49.98
   7   1  -2 2294.58   47.61
  -7  -1  -2 2233.54   49.20
   7  -1   2 2251.06   48.82
   7   1  -2 2356.70   48.95
  -7   1   2 2260.99   48.84
   7   1   2 2228.38   49.67
  -7  -1   2 2315.84   47.77
   7  -1  -2 2182.63   50.05
   7   1   2 2235.55   49.56
  -7  -1   2 2296.94   46.16
  -7   1  -2 2332.23   49.40
  -7   1  -2 2231.55   48.33
   7  -1  -2 2235.84   50.51
  -7   1  -2 2362.75   48.95
   7  -1  -2 2247.00   49.93
  -7  -1   2 2285.07   47.48
   7  -1  -2 2167.86   49.60
   7   1   2 2250.25   49.14
  -7   1  -2 2285.33   48.97
  -7  -1   2 2259.78   47.54
  -7   1  -2 2198.16   47.03
   7   1   2 2261.80   49.91
  -7   2   2  116.79   10.08
  -7   2   2  104.12    8.76
  -7   2   2  118.15    9.86
  -7  -2  -2   94.11    8.50
   7   2  -2  101.81    9.96
  -7  -2  -2   99.46    9.54
   7  -2   2  101.39    8.12
   7  -2   2  102.78    8.60
   7  -2   2   89.11    8.02
  -7  -2  -2   92.25    9.26
  -7   2   2   96.61    9.22
   7  -2   2   97.26    6.75
  -7  -2   2   90.71    5.97
   7   2   2  105.65    8.51
  -7  -2   2  103.88    6.17
  -7   2  -2   98.19   10.88
  -7   2  -2   89.01    6.72
   7   2   2  103.90    8.83
   7   2   2  106.81    9.40
  -7   2  -2  103.07    8.61
  -7   2  -2  104.48    7.99
   7  -2  -2  105.66   10.19
  -7   2  -2   94.34    7.03
   7   2   2  113.90    9.58
   7  -2  -2  114.79    9.70
  -7   2  -2   97.14    9.43
   7  -2  -2   99.38    9.95
  -7   2  -2  102.75    7.64
  -7  -2   2   92.48    5.93
  -7  -2   2   98.04    5.97
   7  -2  -2  103.70    9.60
   7  -3   2 1313.95   31.31
  -7   3   2 1272.29   33.49
   7  -3   2 1284.63   31.94
  -7  -3  -2 1278.78   34.36
   7   3  -2 1306.72   37.37
  -7  -3  -2 1303.45   34.52
   7  -3   2 1287.90   31.83
  -7   3   2 1262.42   33.15
  -7   3   2 1250.10   33.66
   7   3  -2 1275.90   34.62
  -7  -3  -2 1243.99   31.68
  -7   3   2 1262.09   33.57
   7   3   2 1269.65   31.79
   7  -3  -2 1281.48   34.34
  -7   3  -2 1259.90   37.86
  -7   3  -2 1349.93   34.60
   7  -3  -2 1269.10   33.57
  -7  -3   2 1272.93   27.19
   7   3   2 1308.71   32.90
  -7   3  -2 1256.95   30.39
   7  -3  -2 1252.54   35.14
   7  -3  -2 1281.11   35.16
   7   3   2 1260.27   32.76
   7   3   2 1289.67   32.48
   7   3   2 1286.41   31.28
  -7   3  -2 1282.69   33.29
  -7  -3   2 1255.33   27.13
  -7   3  -2 1214.15   30.70
   7   4  -2  150.01   15.98
  -7  -4  -2  225.79   14.40
   7  -4   2  176.36   10.50
  -7   4   2  192.00   12.94
  -7   4   2  199.55   13.21
   7  -4   2  153.39   11.18
  -7   4   2  201.84   15.15
  -7   4   2  196.14   13.26
   7  -4   2  174.35   11.53
   7   4  -2  169.13   13.31
  -7  -4  -2  243.32   14.74
  -7   4  -2  160.76   10.15
   7  -4  -2  162.30   13.97
   7   4   2  177.47   12.92
  -7   4  -2  167.16   14.04
  -7   4  -2  168.67   12.29
   7  -4  -2  170.75   13.65
   7  -4  -2  166.82   14.41
  -7   4  -2  178.26   17.55
   7   4   2  198.80   12.62
   7   5  -2  368.27   21.14
   7  -5   2  385.47   16.94
  -7   5   2  410.17   18.90
  -7   5   2  377.30   19.23
   7   5  -2  417.31   24.78
  -7  -5  -2  358.57   19.70
   7  -5   2  406.76   17.57
   7  -5   2  387.64   15.05
  -7   5   2  404.44   22.27
  -7  -5  -2  381.63   20.05
   7  -5  -2  384.97   20.06
   7  -5  -2  403.21   21.22
   7   5   2  433.39   21.48
  -7   5  -2  376.97   21.36
  -7   5  -2  356.89   24.46
   7   5   2  416.05   18.82
  -7   5  -2  359.28   18.37
   7  -5  -2  368.58   20.63
  -7  -6  -2   41.16    9.40
  -7  -6  -2   55.88   12.20
  -7   6   2   38.54   10.55
   7   6  -2   34.83   11.01
  -7   6   2   21.25   11.25
  -7  -6  -2   42.62   11.37
  -7   6  -2   24.08   10.98
   7   6   2   32.17    9.58
  -7   6  -2   28.08   12.58
   7  -6  -2   28.78   10.80
   7  -6  -2   32.55   10.06
   7   6   2   27.48   10.85
   7  -6  -2   37.81   10.60
  -7   0   3    5.38    4.89
   7   0   3    4.47    4.39
  -7   0   3    2.37    4.75
   7   0   3    5.91    5.26
   7   0   3    8.16    5.20
   7   0  -3    0.90    4.66
   7   0  -3    0.97    4.43
   7   0   3    7.01    5.14
   7   0  -3   -1.06    4.10
  -7   0  -3   -1.01    3.96
  -7   0  -3   -4.88    4.85
  -7   0   3    4.15    4.97
   7   0  -3    2.20    3.34
  -7   0  -3   -1.75    5.16
  -7   0  -3    4.81    5.24
  -7   0   3    2.32    3.55
   7   0  -3    2.43    4.49
   7   1  -3  949.45   23.72
   7  -1   3  941.95   24.63
   7   1  -3  916.97   23.04
   7   1  -3  969.99   24.99
   7   1  -3  941.82   23.92
   7  -1   3  896.87   25.91
  -7   1   3  884.32   26.97
  -7  -1  -3  967.75   27.99
  -7   1   3  944.12   25.50
  -7  -1  -3  931.62   27.71
   7  -1   3  943.01   25.81
  -7   1   3  887.75   26.59
   7  -1   3  932.28   26.07
  -7  -1  -3  967.88   26.81
   7   1  -3  931.77   25.46
  -7   1   3  924.40   27.18
  -7   1  -3  953.72   26.33
   7   1   3  891.01   26.65
   7  -1  -3  944.98   27.17
   7   1   3  925.87   27.04
  -7  -1   3  983.46   25.38
  -7  -1   3  950.60   25.04
  -7   1  -3  938.40   25.27
   7   1   3  936.68   26.15
   7  -1  -3  901.18   26.45
   7   1   3  929.50   27.19
   7  -1  -3  921.79   27.27
  -7  -1   3  941.63   24.62
  -7   1  -3  942.69   25.41
   7  -1  -3  935.03   26.82
  -7   1  -3  993.68   25.96
  -7  -1   3  938.53   22.78
   7  -2   3  208.50   11.70
  -7  -2  -3  198.80   13.43
  -7   2   3  213.74   12.81
  -7   2   3  218.65   12.36
  -7  -2  -3  218.80   13.60
   7  -2   3  183.73    9.49
  -7  -2  -3  239.33   12.88
   7  -2   3  204.39   11.51
  -7   2   3  191.51   13.30
   7  -2   3  200.90   11.69
  -7   2   3  199.25   13.72
   7   2  -3  202.09   12.75
   7   2  -3  212.07   10.15
   7   2  -3  208.67    8.96
   7   2  -3  199.23    8.17
   7  -2  -3  221.28   14.06
  -7   2  -3  192.20   10.69
   7   2   3  188.98   12.55
   7   2   3  206.66   12.85
  -7   2  -3  226.65   15.19
  -7   2  -3  204.05    9.67
   7  -2  -3  210.04   13.56
   7   2   3  197.98   12.37
  -7   2  -3  189.61   11.83
   7  -2  -3  200.35   13.85
   7  -2  -3  203.87   12.77
  -7  -2   3  200.91   10.05
  -7   2  -3  209.75   10.30
  -7  -2   3  197.40    9.57
   7   2   3  178.92   12.41
  -7  -2   3  188.03    9.75
  -7   3   3  813.57   25.71
  -7  -3  -3  754.67   26.67
  -7   3   3  773.20   26.30
   7  -3   3  772.51   22.90
   7  -3   3  808.69   23.88
  -7   3   3  764.82   25.86
   7  -3   3  789.35   23.63
  -7  -3  -3  769.13   27.05
  -7  -3  -3  735.75   25.04
  -7   3   3  781.13   26.32
   7   3  -3  777.84   28.14
  -7   3  -3  796.93   25.40
   7   3   3  812.09   25.60
  -7  -3   3  799.75   20.05
   7  -3  -3  808.71   27.90
  -7   3  -3  820.37   30.42
  -7   3  -3  771.24   25.29
  -7   3  -3  735.15   21.88
   7   3   3  770.77   24.13
   7  -3  -3  782.79   27.90
   7  -3  -3  759.77   26.68
  -7  -3   3  777.74   19.96
   7   3   3  773.62   24.50
   7   3   3  817.62   25.51
   7   3   3  782.64   25.14
   7  -3  -3  768.04   25.76
   7   4  -3  137.39   16.15
  -7  -4  -3  151.09   15.23
  -7  -4  -3  146.90   14.98
   7  -4   3  124.20   10.96
  -7   4   3  127.42   13.10
  -7   4   3  134.25   15.07
  -7   4   3  139.32   13.36
   7  -4   3  142.76   11.93
   7  -4   3  117.95   10.16
  -7   4   3  146.08   13.99
   7  -4  -3  140.54   15.04
   7   4   3  126.92   12.92
  -7   4  -3  136.10   13.88
  -7   4  -3  119.66    9.51
   7   4   3  122.81   12.46
   7  -4  -3  122.69   14.13
  -7   4  -3  117.34   15.72
   7  -4  -3  116.22   13.14
  -7   4  -3  133.28   12.66
   7  -5   3  412.51   15.75
   7  -5   3  407.88   17.55
   7   5  -3  412.44   25.92
  -7  -5  -3  404.22   22.69
  -7  -5  -3  430.93   23.55
  -7   5   3  406.97   24.24
  -7   5   3  402.50   20.84
  -7   5   3  448.98   21.67
   7   5  -3  407.12   22.77
   7  -5   3  440.79   18.26
   7   5   3  441.37   22.42
   7  -5  -3  464.58   24.13
  -7   5  -3  419.07   20.05
   7  -5  -3  403.21   23.55
  -7   5  -3  421.96   23.06
   7  -5  -3  398.81   22.10
   7   5   3  418.78   21.16
  -7   5  -3  405.73   26.56
  -7   6   3   80.86   15.93
  -7  -6  -3   55.09   13.67
   7   6  -3   55.27   15.24
   7   6  -3   66.41   13.92
  -7  -6  -3   79.68   13.19
  -7   6   3   62.44   12.62
  -7  -6  -3   94.06   15.93
   7   6   3   61.90   12.83
  -7   6  -3   55.66   15.81
   7  -6  -3   51.67   13.14
   7  -6  -3   77.16   14.86
  -7   6  -3   78.07   14.79
   7   6   3   84.99   15.21
   7  -6  -3   67.00   14.21
  -7   0   4    2.22    5.93
  -7   0  -4    6.15    6.21
   7   0   4    8.55    6.66
  -7   0  -4   13.84    6.50
   7   0  -4    3.75    5.60
  -7   0   4   -3.74    5.44
   7   0   4   -1.70    5.89
   7   0  -4   -1.28    4.98
   7   0   4    9.95    6.51
   7   0  -4    3.32    5.60
   7   0   4    7.45    5.09
   7   0  -4    3.46    4.59
  -7   0   4    1.10    6.17
  -7   0   4    4.71    4.53
   7   0  -4    6.05    5.42
  -7   0  -4   11.04    6.27
   7   1  -4 1096.16   29.21
  -7   1   4 1097.59   30.71
   7   1  -4 1119.45   31.25
   7   1  -4 1108.87   30.50
   7   1  -4 1096.47   28.97
   7  -1   4 1110.43   29.46
  -7   1   4 1114.14   32.39
   7  -1   4 1141.10   32.27
   7  -1   4 1115.51   31.53
  -7   1   4 1080.72   32.88
  -7  -1  -4 1172.99   34.04
  -7   1   4 1048.19   32.41
  -7  -1  -4 1111.54   32.42
  -7  -1  -4 1120.39   33.24
   7   1  -4 1115.33   28.29
   7  -1   4 1091.13   31.81
  -7   1  -4 1134.31   31.30
  -7  -1   4 1146.48   31.08
  -7  -1   4 1149.30   30.49
  -7  -1   4 1124.55   27.81
   7  -1  -4 1145.34   32.74
   7   1   4 1064.74   32.29
   7  -1  -4 1061.70   32.30
  -7   1  -4 1149.33   30.92
  -7   1  -4 1131.12   31.15
   7   1   4 1135.05   33.53
   7  -1  -4 1094.31   32.82
  -7   1  -4 1148.74   31.94
   7   1   4 1116.39   33.32
   7   1   4 1128.82   31.46
  -7  -1   4 1078.58   30.55
   7  -1  -4 1134.56   33.40
  -7  -2  -4  122.27   13.30
  -7   2   4  109.88   12.34
  -7   2   4  112.46   12.67
   7  -2   4   89.75   10.72
  -7  -2  -4  135.40   13.35
   7   2  -4   99.80   11.15
  -7   2   4   92.90   10.14
  -7  -2  -4  117.57   13.09
  -7   2   4  104.47   12.05
   7  -2   4  115.39   10.98
   7  -2   4   92.19   10.78
   7   2  -4  114.85   10.06
  -7   2  -4   89.77   13.34
  -7  -2   4  106.01    9.51
  -7   2  -4   95.02    9.32
   7   2   4  106.16   11.86
  -7   2  -4   98.12    8.88
  -7  -2   4   84.94    9.02
   7  -2  -4  119.09   13.62
   7   2   4   99.00   11.78
   7   2   4   97.76   11.08
  -7   2  -4   99.35   10.13
   7   2   4   89.27   11.66
   7  -2  -4   72.84   11.40
  -7   2  -4  101.42   11.25
  -7  -2   4   90.60    9.55
   7  -2  -4  110.64   13.20
   7  -2  -4   92.74   11.79
  -7   3   4  636.70   25.77
  -7  -3  -4  645.81   26.51
   7  -3   4  637.64   22.53
  -7   3   4  625.01   24.36
   7  -3   4  650.73   21.82
   7  -3   4  631.23   22.81
  -7   3   4  652.35   25.67
  -7  -3  -4  635.86   26.63
  -7   3   4  674.16   25.81
   7   3  -4  648.14   26.75
   7  -3  -4  624.08   26.67
   7   3   4  628.09   25.03
  -7   3  -4  632.72   29.13
   7   3   4  635.61   24.21
  -7   3  -4  675.83   21.78
   7  -3  -4  598.31   24.68
   7   3   4  682.30   25.58
  -7  -3   4  676.84   20.14
   7  -3  -4  615.03   25.46
  -7  -3   4  645.08   19.05
   7   3   4  634.58   24.09
   7  -3  -4  634.69   27.07
  -7  -3   4  674.47   20.16
  -7   3  -4  651.07   24.20
  -7  -4  -4   62.53   12.65
  -7   4   4   47.16   10.36
  -7  -4  -4   53.15   11.88
   7   4  -4   29.55   10.67
  -7   4   4   44.94   10.10
  -7   4   4   63.60   11.51
  -7   4   4   60.18   10.94
   7  -4   4   35.47    8.25
   7  -4   4   50.65    8.43
   7  -4   4   50.27    9.46
   7  -4  -4   25.23    9.36
   7   4   4   37.16   10.07
   7  -4  -4   61.22   12.53
   7   4   4   29.06   10.05
   7   4   4   39.86    9.54
  -7  -4   4   44.67    6.68
  -7   4  -4   27.99    8.72
  -7   4  -4   32.15    9.55
   7   4   4   36.67   10.29
   7  -4  -4   46.96   11.65
  -7   4  -4   50.14    8.30
  -7   4  -4   40.42   12.16
  -7  -5  -4  348.92   25.13
  -7  -5  -4  364.33   24.16
  -7   5   4  349.66   21.67
  -7   5   4  336.54   23.01
   7   5  -4  358.14   25.12
   7  -5   4  370.73   18.35
   7   5   4  331.80   21.49
   7  -5  -4  351.10   22.91
  -7   5  -4  357.11   22.67
   7  -5  -4  354.86   24.34
   7   5   4  343.54   21.20
  -7   5  -4  367.14   26.85
  -7   5  -4  334.28   19.99
   7  -5  -4  335.64   24.12
  -7  -6  -4   83.17   16.90
   7   6  -4   54.79   15.86
  -7  -6  -4   49.88   15.29
  -7   6   4   74.03   15.60
  -7   6   4   43.42   12.90
  -7  -6  -4   40.08   12.83
   7  -6  -4   29.19   12.32
  -7   6  -4   42.38   13.89
   7   6   4   60.17   13.82
  -7   6  -4   34.25   15.55
   7   6   4   59.77   13.55
   7  -6  -4   55.30   14.85
   7  -6  -4   76.22   16.55
   7   0  -5   13.06    7.05
  -7   0   5    9.15    7.34
   7   0  -5   10.59    6.52
   7   0   5   22.31    8.27
  -7   0  -5    7.14    6.74
  -7   0   5    3.67    7.23
   7   0  -5   15.39    7.85
   7   0  -5    4.86    6.10
  -7   0   5    1.81    5.09
   7   0   5   21.31    8.32
   7   0   5    6.81    7.10
   7   0   5   16.40    6.72
  -7   0  -5   14.19    6.98
  -7   0   5   15.18    7.38
   7   0  -5    7.00    5.52
  -7   0  -5   21.51    7.58
   7  -1   5  549.52   22.44
   7  -1   5  516.50   22.53
  -7   1   5  530.51   23.33
   7   1  -5  534.05   19.30
  -7  -1  -5  579.82   24.24
   7   1  -5  557.36   19.96
  -7   1   5  500.14   22.82
  -7  -1  -5  530.99   22.98
   7  -1   5  548.48   23.21
  -7   1   5  526.55   23.63
  -7  -1  -5  517.10   23.84
  -7   1   5  530.91   21.05
   7   1  -5  547.24   21.92
   7   1  -5  529.52   20.03
   7   1  -5  545.35   21.75
  -7   1  -5  557.36   21.42
   7   1   5  537.84   23.84
  -7   1  -5  559.23   22.38
   7  -1  -5  552.10   23.39
   7  -1  -5  531.37   23.17
   7   1   5  539.56   23.40
   7  -1  -5  556.36   23.61
   7   1   5  556.18   24.39
   7   1   5  507.03   21.49
   7  -1  -5  544.44   23.35
  -7  -1   5  555.98   22.24
  -7  -1   5  556.50   22.13
  -7  -1   5  546.25   21.44
  -7   1  -5  576.58   21.89
   7  -2   5   39.27    9.42
  -7   2   5   32.69    8.43
   7   2  -5   49.68    9.25
  -7   2   5   45.19   10.34
   7  -2   5   39.26    9.34
   7   2  -5   35.00    8.92
   7  -2   5   17.93    7.65
  -7  -2  -5   41.93    9.45
  -7   2   5   35.49    9.67
  -7   2   5   27.98    9.92
  -7  -2  -5   45.70   11.03
  -7  -2  -5   41.56   10.49
   7   2   5   38.06    9.98
   7   2   5   12.90    8.64
  -7  -2   5   34.94    8.38
   7  -2  -5   44.06   10.23
   7  -2  -5   41.34   10.65
  -7  -2   5   23.50    7.92
   7   2   5   40.16    9.70
  -7  -2   5   41.56    7.95
  -7   2  -5   37.14   11.41
   7  -2  -5   25.10   10.00
   7   2   5   34.38   10.39
  -7   2  -5   27.35    7.89
   7  -2  -5   42.51   11.14
   7   3  -5  525.86   25.61
   7  -3   5  533.86   22.64
  -7  -3  -5  538.37   26.67
  -7   3   5  538.60   25.76
  -7  -3  -5  474.09   25.28
   7  -3   5  519.68   21.37
  -7   3   5  538.78   25.99
   7  -3   5  502.39   22.28
  -7   3   5  514.82   25.21
   7   3  -5  522.08   19.84
  -7   3   5  574.90   24.61
  -7   3  -5  518.55   21.12
  -7  -3   5  560.10   20.47
  -7   3  -5  500.88   27.82
   7  -3  -5  534.70   24.60
   7   3   5  537.50   25.31
   7  -3  -5  543.42   26.63
   7   3   5  517.77   23.72
  -7  -3   5  552.17   20.47
   7  -3  -5  521.40   27.03
   7   3   5  582.12   25.71
   7   3   5  516.83   24.32
  -7  -3   5  512.67   18.98
   7  -3  -5  547.77   25.79
  -7   4   5   60.83   12.99
   7   4  -5   56.55   13.32
  -7  -4  -5   55.53   13.12
  -7   4   5   80.59   15.26
  -7   4   5   88.34   14.24
  -7  -4  -5   74.51   14.88
   7  -4   5   74.85   10.27
  -7   4   5   77.29   13.61
   7  -4   5   54.10   10.82
   7  -4   5   53.08   10.60
  -7  -4   5   56.21    8.82
  -7   4  -5   44.42    9.38
   7   4   5   66.77   13.59
   7   4   5   88.15   14.35
   7   4   5   79.73   14.27
  -7   4  -5   37.64   13.33
   7  -4  -5   74.74   14.43
   7  -4  -5   73.01   14.71
   7  -4  -5   57.95   14.02
  -7   5   5  167.99   19.22
   7  -5   5  179.70   15.50
  -7  -5  -5  218.23   24.45
   7   5  -5  193.42   22.95
  -7  -5  -5  203.00   23.67
   7   5   5  179.06   18.72
  -7   5  -5  167.14   23.51
   7   5   5  193.06   20.36
   7  -5  -5  196.26   23.12
   7  -5  -5  154.08   20.68
   7  -5  -5  156.41   20.28
   7   0  -6   12.16    7.73
  -7   0  -6    5.69    7.67
  -7   0   6   20.47    8.68
   7   0   6    8.75    9.20
  -7   0  -6    9.24    8.27
  -7   0   6   20.85    9.11
  -7   0  -6   17.88    8.37
   7   0   6   -3.81    8.07
  -7   0   6   13.09    8.74
   7   0  -6   18.84    8.29
   7   0  -6   16.02    7.40
   7   0  -6   25.91    9.67
   7   0   6   15.08    9.01
   7   0  -6   22.11    8.19
   7  -1   6  408.88   22.51
   7   1  -6  426.38   21.16
  -7   1   6  397.41   22.43
   7   1  -6  390.39   20.47
  -7   1   6  342.28   21.15
  -7  -1  -6  395.94   22.92
  -7  -1  -6  379.71   21.97
  -7  -1  -6  370.06   22.39
   7  -1   6  384.00   22.07
  -7   1   6  366.89   22.41
   7  -1   6  393.45   21.59
  -7   1   6  362.14   22.42
   7   1   6  362.04   22.73
  -7   1  -6  385.96   20.04
  -7   1  -6  394.78   20.99
  -7   1  -6  374.29   24.46
   7  -1  -6  377.63   21.62
   7  -1  -6  388.37   21.69
   7   1   6  400.59   20.79
   7  -1  -6  388.44   21.94
   7   1   6  370.26   22.90
   7   1   6  387.53   23.12
  -7  -1   6  400.70   21.43
  -7  -1   6  402.42   21.45
   7  -1  -6  387.45   21.80
  -7  -1   6  396.33   20.57
  -7   2   6   27.15   11.14
   7  -2   6    7.45    8.81
   7  -2   6    8.46    8.64
   7   2  -6    6.20    7.72
   7  -2   6   17.64    9.60
   7   2  -6   17.15    8.57
  -7   2   6   22.34    9.33
  -7   2   6   27.77   10.80
  -7  -2  -6    7.11    9.86
  -7   2   6   52.12   12.77
  -7  -2  -6   22.47    9.58
  -7  -2  -6    8.71    9.96
  -7  -2   6    0.23    8.00
   7   2   6   14.46   10.39
   7  -2  -6   11.46    8.83
   7  -2  -6   14.51    9.80
   7   2   6   19.82    8.79
  -7   2  -6   19.33    8.98
  -7  -2   6   26.03    9.61
  -7  -2   6   18.91    8.26
   7  -2  -6   23.67   10.27
  -7   2  -6   12.66   10.52
   7   2   6    2.10    9.72
   7  -2  -6   21.26   10.48
   7   2   6    4.95    9.69
  -7   3   6  405.18   23.23
   7  -3   6  402.23   22.61
   7   3  -6  441.91   25.04
   7  -3   6  407.90   21.45
   7   3  -6  405.42   19.71
  -7   3   6  411.38   25.17
  -7  -3  -6  422.98   26.59
   7  -3   6  430.73   22.67
  -7  -3  -6  405.35   26.45
  -7   3   6  396.68   25.47
  -7   3   6  454.60   26.77
   7   3   6  409.48   24.10
   7  -3  -6  411.60   25.60
  -7  -3   6  419.37   20.45
   7  -3  -6  394.77   25.93
   7   3   6  394.02   23.19
  -7  -3   6  425.27   19.33
  -7  -3   6  428.34   20.86
   7   3   6  409.35   25.35
  -7   3  -6  403.09   20.86
   7  -3  -6  377.23   25.60
  -7   3  -6  400.54   27.16
   7   3   6  403.38   25.09
  -7   4   6   20.90   11.68
   7   4  -6   10.76    9.92
  -7   4   6   34.63   12.98
   7  -4   6   31.20   10.58
   7  -4   6   25.08   10.63
  -7  -4  -6   51.47   14.69
  -7  -4  -6   50.01   16.39
  -7   4   6   48.14   12.86
   7  -4   6   46.71   10.54
   7   4   6   34.87   16.29
   7   4   6   22.12   11.83
  -7  -4   6   33.16    9.14
   7  -4  -6   22.74   12.55
  -7   4  -6   21.03    9.22
   7  -4  -6   24.92   13.53
  -7   4  -6   24.52   12.92
   7  -4  -6   35.43   14.00
  -7   0   7   27.89   10.26
  -7   0  -7    7.89    9.42
   7   0   7   10.79   10.78
   7   0  -7   30.30   10.71
  -7   0   7   21.82   10.92
   7   0   7    2.09   10.28
   7   0   7    7.24   10.65
  -7   0  -7   20.27    9.96
  -7   0   7   10.76   10.40
  -7   0  -7   -7.72    7.54
   7   0  -7   29.15   10.00
   7   0  -7   21.74    9.16
  -7  -1  -7  220.27   22.67
   7   1  -7  222.64   19.34
   7   1  -7  201.30   17.77
  -7  -1  -7  225.11   19.88
  -7   1   7  246.23   23.12
  -7   1   7  255.29   23.77
  -7   1   7  283.72   21.33
   7  -1   7  267.70   21.00
   7  -1   7  258.02   23.69
   7  -1   7  284.19   22.11
  -7  -1  -7  245.36   21.04
   7   1   7  242.73   21.69
  -7  -1   7  240.40   20.42
   7  -1  -7  264.16   22.83
   7  -1  -7  237.02   20.67
   7   1   7  259.18   22.96
   7  -1  -7  253.73   23.14
  -7  -1   7  234.74   18.93
   7   1   7  259.52   23.44
  -7   1  -7  227.97   19.26
  -7   1  -7  257.25   23.45
   7  -1  -7  236.61   20.19
  -7  -1   7  236.40   20.40
   7   2  -7   10.25    8.97
  -7   2   7   16.30   12.51
  -7   2   7   10.56   11.51
   7  -2   7   15.95   11.50
   7  -2   7   17.47   10.89
   7   2  -7    0.00    8.80
  -7  -2  -7   24.60   11.40
  -7   2   7    7.02   11.19
  -7  -2  -7   16.75    9.95
  -7  -2  -7   20.57   11.62
   7  -2   7   11.25   10.27
   7   2   7   -3.96    9.91
   7  -2  -7   36.67   12.32
   7  -2  -7   16.77   10.81
  -7  -2   7   -4.86    8.65
  -7  -2   7   11.67    9.24
  -7   2  -7    8.22   11.37
   7   2   7    7.30    8.64
  -7   2  -7   -2.36    8.72
   7   2   7   -3.86    9.84
   7  -2  -7    8.66   11.17
   7  -2  -7   18.93   11.07
   7   2   7   23.45   11.97
  -7  -2   7    4.35    9.57
  -7  -3  -7  233.74   25.69
  -7   3   7  255.00   25.88
  -7   3   7  224.29   24.38
   7  -3   7  233.80   19.84
   7   3  -7  216.63   23.09
   7  -3   7  227.58   21.88
  -7  -3  -7  265.44   27.12
   7   3  -7  199.58   17.42
  -7   3   7  219.03   21.83
   7  -3   7  190.49   20.53
  -7   3   7  277.25   26.73
  -7   3  -7  233.60   19.09
  -7  -3   7  219.43   17.47
  -7  -3   7  211.81   19.00
  -7   3  -7  273.45   29.64
   7   3   7  246.32   22.37
   7   3   7  217.01   23.11
  -7  -3   7  205.48   18.14
   7   3   7  229.09   23.41
   7  -3  -7  247.04   26.29
   7  -3  -7  214.45   24.59
   7   3   7  231.92   23.32
   7  -3  -7  277.82   26.57
  -7   0   8   15.05   12.96
  -7   0   8   15.29   12.40
   7   0   8    2.49   11.73
  -7   0  -8    7.24   10.39
   7   0   8    9.34   12.27
   7   0   8   -0.11   11.59
  -7   0   8   14.08   11.54
   7   0  -8    8.46   10.83
  -7   1   8  248.70   25.95
  -7  -1  -8  196.99   22.63
  -7  -1  -8  197.22   22.48
   7  -1   8  170.85   21.70
  -7   1   8  201.17   24.51
  -7   1   8  207.87   23.82
   7  -1   8  216.13   24.41
  -7  -1  -8  167.99   27.41
   7   1  -8  225.14   23.60
   7  -1   8  218.17   23.70
   7  -1  -8  194.64   22.75
   7  -1  -8  218.27   23.61
  -7   1  -8  200.83   25.04
   7  -1  -8  220.59   24.01
   7   1   8  219.18   25.62
  -7  -1   8  205.99   21.77
  -7  -1   8  206.94   23.12
  -7   1  -8  211.39   22.41
   7   1   8  208.90   24.48
  -7  -1   8  139.76   20.10
   7   1   8  187.21   23.24
   8   0   0  971.84   23.73
   8   0   0  959.48   23.73
  -8   0   0  971.57   23.75
  -8   0   0  979.24   23.96
   8   0   0  968.17   23.56
  -8   0   0  945.61   22.81
   8   0   0 1004.65   23.68
  -8   0   0  971.35   23.91
  -8   0   0  957.47   22.23
   8   1   0   71.51    5.68
   8  -1   0   65.60    6.52
   8   1   0   75.06    6.38
   8  -1   0   60.87    6.53
  -8   1   0   69.54    6.66
   8   1   0   60.20    4.45
  -8   1   0   59.57    6.34
  -8  -1   0   67.01    6.23
   8  -1   0   69.08    6.70
  -8  -1   0   68.65    4.19
  -8   1   0   69.72    5.95
  -8   1   0   59.88    5.80
  -8   1   0   59.06    5.62
  -8   1   0   68.10    7.00
   8  -1   0   70.76    6.73
  -8  -1   0   67.57    6.09
   8   1   0   71.75    5.80
  -8  -1   0   71.11    5.61
   8   1   0   67.47    5.96
   8  -2   0 1954.19   43.36
   8   2   0 1971.34   38.86
   8  -2   0 1945.02   43.51
  -8   2   0 1926.15   43.91
   8   2   0 1974.39   40.88
  -8   2   0 1965.76   43.93
   8   2   0 1973.55   41.27
  -8   2   0 1958.64   42.92
   8   2   0 1971.55   40.52
   8   2   0 2010.42   42.82
   8  -2   0 1942.13   43.11
  -8  -2   0 1971.71   41.94
  -8  -2   0 2008.39   41.98
   8   2   0 1966.83   39.73
  -8   2   0 1915.17   42.26
  -8   2   0 1973.91   43.51
   8  -2   0 1894.54   43.53
  -8   2   0 1905.85   43.11
  -8   3   0    9.12    4.23
   8  -3   0    1.84    4.78
   8  -3   0    6.93    4.98
   8  -3   0    3.41    4.82
   8   3   0    7.04    3.90
   8  -3   0   13.95    5.11
  -8  -3   0    5.86    4.16
   8   3   0    0.86    4.26
  -8  -3   0   11.42    4.29
  -8   3   0    4.00    4.81
  -8   3   0   12.53    4.52
  -8   3   0    3.27    5.21
  -8   3   0    5.63    4.46
  -8  -3   0   12.17    4.10
  -8   3   0    2.86    4.66
   8  -4   0  739.58   23.57
  -8  -4   0  789.29   21.70
  -8   4   0  763.80   22.72
  -8  -4   0  807.91   21.66
   8  -4   0  814.04   24.69
  -8   4   0  801.26   25.13
   8  -4   0  783.51   24.45
  -8   4   0  776.23   27.14
  -8   4   0  783.21   28.03
   8   4   0  775.83   25.82
  -8   5   0   18.96    6.57
  -8   5   0   10.74    6.42
   8  -5   0    4.26    6.75
  -8  -5   0   24.70    6.31
   8  -5   0   15.17    6.65
  -8   5   0   -4.71    8.17
  -8  -5   0   29.21    6.28
   8   5   0    9.30    7.35
   8  -5   0    3.40    6.42
  -8   5   0   15.81    8.07
  -8   6   0  113.97   12.44
   8  -6   0  100.59   13.10
  -8   6   0  105.85   16.08
   8  -6   0  117.33   14.22
   8  -6   0  117.77   12.76
   8   6   0  118.12   16.21
   8   0   1 3168.56   64.08
  -8   0   1 3135.88   62.54
  -8   0   1 3233.91   63.99
   8   0  -1 3027.76   63.26
   8   0  -1 3079.68   63.28
   8   0   1 3106.49   64.17
  -8   0  -1 2986.19   62.56
  -8   0  -1 3089.01   64.12
  -8   0  -1 3013.12   63.15
   8   0   1 3166.73   63.70
  -8   0  -1 3042.12   64.19
   8   0  -1 3049.37   63.55
   8   0   1 3190.28   64.03
  -8   0   1 3175.17   63.82
  -8   1   1  392.74   13.73
   8   1  -1  387.66   12.47
  -8  -1  -1  351.58   13.10
   8   1  -1  377.48   11.11
   8   1  -1  395.94   12.12
  -8  -1  -1  349.86   10.50
   8   1  -1  366.00   11.04
   8  -1   1  394.09   13.83
   8  -1   1  382.49   12.75
  -8   1   1  401.19   13.83
  -8   1   1  376.40   12.37
  -8  -1  -1  370.63   12.38
   8  -1   1  393.26   13.24
   8   1  -1  369.66   11.63
   8  -1   1  390.59   13.40
  -8  -1  -1  386.24   13.38
   8   1  -1  383.85   11.51
  -8  -1   1  389.90   11.88
  -8  -1   1  395.45   11.11
   8  -1  -1  385.46   13.70
   8  -1  -1  376.00   13.41
  -8   1  -1  372.07   12.61
   8   1   1  371.51   13.00
  -8  -1   1  391.91   11.92
  -8   1  -1  381.48   13.17
  -8   1  -1  366.39   12.79
  -8   1  -1  365.82   10.67
  -8   1  -1  361.86   12.54
   8  -1  -1  375.15   13.44
   8   1   1  367.66   12.63
   8   1   1  368.98   12.74
   8   1   1  368.67   12.53
   8   1   1  365.54    9.57
   8  -1  -1  372.49   13.27
  -8  -2  -1 2875.24   61.96
  -8   2   1 2961.68   62.50
   8   2  -1 2993.53   64.39
  -8  -2  -1 2906.23   60.24
   8   2  -1 2943.15   62.06
   8  -2   1 2912.53   62.06
  -8  -2  -1 2872.72   61.75
  -8   2   1 2883.22   62.56
  -8   2   1 2935.33   60.80
   8  -2   1 2946.45   60.51
   8  -2   1 2950.30   61.77
  -8   2   1 2920.65   61.51
   8   2  -1 2998.67   59.16
   8  -2   1 2955.56   62.01
   8  -2  -1 2901.40   62.45
  -8   2  -1 2927.96   61.67
  -8  -2   1 2870.40   58.63
   8  -2  -1 2843.97   62.97
   8   2   1 2973.16   60.20
  -8  -2   1 2968.37   58.99
  -8   2  -1 2953.02   64.75
  -8  -2   1 2919.01   58.58
  -8   2  -1 2978.08   60.87
  -8   2  -1 2953.20   60.46
  -8   2  -1 2904.23   60.88
   8   2   1 2945.28   60.96
   8  -2  -1 2908.20   62.43
   8   2   1 3016.28   60.74
   8   2   1 2856.20   60.16
  -8  -2   1 3005.25   58.86
   8  -2  -1 2883.77   63.03
   8   2   1 2983.67   60.96
  -8   2  -1 2919.86   62.27
  -8   3   1  163.55   10.94
  -8  -3  -1  173.03   10.64
  -8   3   1  188.43   10.63
   8  -3   1  165.42   10.09
  -8  -3  -1  195.43   10.92
   8   3  -1  178.28   11.27
  -8   3   1  182.85   11.20
  -8   3   1  169.59   10.81
  -8   3   1  163.15   11.63
   8  -3   1  161.77   10.30
  -8   3   1  168.28   10.30
   8  -3   1  142.74   10.16
   8   3  -1  182.37   13.49
   8  -3  -1  178.77   10.48
  -8   3  -1  169.10    8.07
  -8   3  -1  169.88    9.80
  -8   3  -1  180.98   10.86
  -8   3  -1  162.10    9.56
   8   3   1  170.81    7.28
  -8  -3   1  160.13    6.77
  -8   3  -1  192.62   11.21
   8   3   1  155.80    7.79
  -8   3  -1  172.66    7.30
  -8  -3   1  158.62    7.34
   8  -3  -1  168.33   11.58
  -8  -3   1  161.17    6.88
   8   3   1  152.00    9.55
  -8  -3   1  166.07    7.43
   8   3   1  144.88    8.73
   8  -3  -1  170.11   11.06
  -8   3  -1  178.51   12.99
   8   3   1  173.64   10.22
   8   3   1  149.37    9.12
   8  -3  -1  171.99   11.64
  -8   4   1  666.24   22.02
   8  -4   1  690.51   22.07
  -8   4   1  676.63   21.68
  -8   4   1  715.05   22.45
  -8   4   1  714.74   23.86
  -8  -4  -1  697.93   22.25
   8  -4   1  679.77   21.62
   8   4  -1  712.58   25.04
  -8   4   1  693.46   25.78
  -8  -4  -1  667.10   21.96
   8  -4   1  659.11   21.60
  -8   4  -1  727.38   23.48
   8  -4  -1  687.16   24.03
  -8  -4   1  697.79   17.56
  -8   4  -1  720.57   27.83
  -8   4  -1  688.05   25.08
   8  -4  -1  704.79   23.22
  -8  -4   1  721.70   17.73
   8  -4  -1  661.08   23.79
   8   4   1  683.27   23.75
  -8   4  -1  668.39   20.73
   8   4   1  732.07   21.10
   8  -5   1  118.54   12.10
  -8   5   1  128.30   12.12
   8  -5   1  126.88   12.20
  -8  -5  -1  154.70   12.22
   8   5  -1  101.81   13.15
   8  -5   1  120.43   11.20
  -8   5   1  105.63   13.73
  -8   5   1  125.66   12.78
  -8  -5  -1  151.46   12.46
  -8   5  -1  127.70   10.81
  -8   5  -1  116.68   16.24
   8  -5  -1  151.58   14.53
  -8   5  -1  128.43   12.75
   8  -5  -1  118.69   13.35
   8   5   1  104.14   12.59
  -8   5  -1  122.70   14.54
   8  -5  -1  118.57   12.39
   8   5   1  133.53   11.34
  -8   6   1  171.84   15.35
   8  -6   1  156.39   15.16
  -8  -6  -1  159.81   15.28
   8   6  -1  140.33   16.94
  -8   6   1  176.47   19.75
   8  -6  -1  155.18   16.56
   8   6   1  161.24   18.03
   8  -6  -1  143.14   15.77
  -8   6  -1  121.59   18.09
  -8   6  -1  168.02   18.97
   8  -6  -1  156.89   15.45
   8   0   2  952.49   24.13
   8   0   2  919.71   24.72
  -8   0   2  939.00   24.38
  -8   0  -2  927.79   23.63
   8   0   2  941.51   24.97
  -8   0   2  956.64   24.48
   8   0   2  920.75   24.48
  -8   0  -2  926.94   24.01
  -8   0   2  908.41   22.68
   8   0  -2  932.64   23.90
   8   0  -2  927.00   24.27
   8   0  -2  932.31   23.96
  -8   0   2  899.88   23.80
  -8   0  -2  938.46   25.16
   8   0  -2  918.61   20.35
  -8   0  -2  926.86   24.97
   8   0  -2  891.88   23.66
   8   1  -2  186.56    8.28
  -8  -1  -2  179.73   11.22
   8  -1   2  186.66   10.23
   8   1  -2  182.47    8.37
   8  -1   2  174.79   10.23
  -8  -1  -2  176.89    8.54
  -8  -1  -2  197.06   11.24
   8  -1   2  181.87    9.37
  -8   1   2  185.29   10.89
  -8  -1  -2  174.81   10.22
   8   1  -2  179.70    8.92
  -8   1   2  182.62    9.48
   8  -1   2  191.72   10.20
   8   1  -2  194.47    8.58
   8   1  -2  193.43    9.38
  -8   1   2  164.07   10.19
  -8   1   2  170.88   10.81
   8   1  -2  183.14    8.11
  -8   1  -2  172.26    9.48
   8  -1  -2  185.48   10.72
  -8  -1   2  201.73    9.16
   8   1   2  182.49   10.51
   8  -1  -2  181.64   10.65
  -8   1  -2  185.18    8.03
  -8  -1   2  176.11    8.80
  -8   1  -2  187.56    9.74
   8   1   2  179.79   10.62
   8  -1  -2  187.36   11.08
   8  -1  -2  187.98   11.06
  -8   1  -2  186.93    9.92
  -8  -1   2  205.39    9.36
   8   1   2  159.34    9.90
  -8  -1   2  181.86    7.74
  -8   1  -2  178.61    9.65
   8   1   2  189.75   10.27
  -8  -2  -2 1340.61   34.14
  -8  -2  -2 1317.43   32.40
   8  -2   2 1335.83   32.80
   8  -2   2 1386.79   32.36
   8  -2   2 1359.50   32.68
  -8   2   2 1363.43   34.00
   8   2  -2 1321.14   34.75
  -8   2   2 1343.11   34.37
  -8   2   2 1297.79   32.69
  -8  -2  -2 1264.53   33.84
   8   2  -2 1285.83   28.59
   8  -2   2 1342.31   30.55
  -8   2   2 1297.50   33.76
   8   2  -2 1275.02   27.74
   8   2  -2 1321.84   29.47
   8   2   2 1356.36   32.94
   8  -2  -2 1271.00   33.46
   8  -2  -2 1270.41   33.61
   8   2   2 1314.64   32.55
  -8   2  -2 1316.65   30.53
   8  -2  -2 1283.59   34.65
  -8   2  -2 1304.68   32.98
   8   2   2 1289.26   30.42
   8  -2  -2 1259.35   34.20
  -8   2  -2 1335.07   32.27
   8   2   2 1341.19   32.98
   8   2   2 1355.99   32.83
  -8   2  -2 1314.79   31.01
  -8  -2   2 1325.20   29.37
  -8   2  -2 1290.92   31.33
  -8  -2   2 1377.27   31.31
  -8   2  -2 1298.86   36.40
  -8  -2   2 1358.55   29.56
   8   3  -2   13.84    6.86
  -8   3   2   19.77    6.55
  -8   3   2   12.44    5.87
   8  -3   2   17.10    5.89
   8  -3   2    8.13    5.42
   8   3  -2   22.48    6.33
  -8   3   2   17.23    6.29
   8  -3   2    9.04    5.22
  -8   3  -2   10.81    5.08
  -8   3  -2   16.76    7.59
  -8   3  -2    7.20    4.77
   8  -3  -2   14.22    6.31
   8  -3  -2   16.11    6.58
  -8   3  -2   14.02    5.82
  -8   3  -2   23.61    6.42
  -8  -3   2   10.36    3.29
   8  -3  -2   14.07    6.98
   8   3   2    6.09    4.80
  -8  -3   2   19.60    3.66
  -8   3  -2   16.71    3.92
   8   3   2   16.85    5.87
  -8  -3   2   13.50    3.57
   8   3   2    5.84    5.13
   8   3   2    9.90    6.01
   8  -3  -2   17.22    6.98
   8   3   2   13.78    5.35
   8  -4   2  597.53   20.73
  -8  -4  -2  601.58   22.91
   8   4  -2  571.37   26.02
  -8   4   2  622.06   22.78
  -8   4   2  624.46   21.94
  -8   4   2  580.11   21.85
   8   4  -2  576.98   23.22
   8  -4   2  613.99   20.81
  -8  -4  -2  638.81   23.12
  -8   4   2  582.06   24.07
   8  -4   2  579.15   19.22
   8   4   2  602.64   21.08
  -8   4  -2  586.70   18.85
   8  -4  -2  589.84   23.71
  -8   4  -2  574.67   23.08
  -8   4  -2  605.25   21.99
   8   4   2  614.38   22.47
  -8   4  -2  564.66   26.42
   8  -4  -2  550.18   23.27
   8  -4  -2  606.69   22.82
   8   5  -2  110.64   16.73
  -8   5   2  123.45   13.23
   8  -5   2  115.86   10.41
   8   5  -2  117.96   14.03
  -8   5   2  113.02   12.75
  -8  -5  -2  160.97   15.23
  -8  -5  -2  133.44   14.36
  -8   5   2   94.48   13.75
   8  -5   2  127.25   11.95
   8  -5   2  106.48   11.60
   8   5   2  126.52   14.04
  -8   5  -2  109.20   14.10
   8  -5  -2  128.86   15.06
   8  -5  -2  135.34   14.22
   8  -5  -2  146.51   15.68
  -8   5  -2  127.36   17.31
   8   5   2  119.95   12.32
  -8   5  -2  148.23   13.81
  -8   6   2  249.58   21.89
   8  -6   2  262.41   16.64
  -8  -6  -2  263.40   16.97
  -8  -6  -2  258.03   20.10
  -8  -6  -2  264.30   19.12
  -8   6   2  253.11   17.64
   8   6  -2  240.34   20.14
   8   6   2  254.52   19.91
   8  -6  -2  257.00   20.52
   8  -6  -2  280.10   20.44
  -8   6  -2  271.17   24.37
  -8   6  -2  266.56   21.31
   8   6   2  280.50   17.22
   8  -6  -2  280.73   19.52
  -8   0   3 1227.33   31.79
   8   0   3 1228.83   31.95
  -8   0   3 1212.73   29.66
   8   0   3 1214.32   32.45
  -8   0  -3 1210.11   32.21
  -8   0  -3 1237.55   32.50
  -8   0   3 1212.38   31.72
   8   0  -3 1207.33   31.19
   8   0  -3 1236.25   31.15
  -8   0  -3 1210.59   31.02
   8   0   3 1197.06   32.19
   8   0  -3 1242.47   31.15
   8   0  -3 1225.32   31.53
  -8   0  -3 1217.66   31.58
   8   0   3 1196.13   30.89
  -8   0   3 1228.65   31.46
   8   0  -3 1191.72   28.29
  -8   1   3   19.98    6.63
  -8   1   3   29.88    6.14
   8   1  -3   21.08    4.55
  -8   1   3   24.10    6.64
  -8  -1  -3   23.02    6.80
   8   1  -3   16.09    4.68
   8   1  -3   20.68    4.71
   8  -1   3   37.67    6.39
  -8   1   3   29.12    6.62
   8   1  -3   23.75    5.30
   8   1  -3   25.09    5.74
   8  -1   3   16.74    6.00
  -8  -1  -3   33.69    7.32
   8  -1   3   23.79    6.24
   8  -1   3   19.49    6.32
  -8  -1  -3   18.29    6.58
  -8   1  -3   20.88    5.60
  -8  -1   3   22.09    5.51
  -8   1  -3   16.27    5.70
  -8  -1   3   24.09    5.50
   8   1   3   25.64    6.76
  -8   1  -3   22.25    5.95
   8  -1  -3   17.88    6.07
   8  -1  -3   17.82    6.22
   8   1   3   17.07    6.32
   8   1   3   32.98    7.22
  -8   1  -3   25.11    6.03
  -8  -1   3   19.88    4.36
  -8  -1   3   22.36    5.74
   8  -1  -3   19.43    6.47
   8  -1  -3   15.12    6.04
   8   1   3   36.14    7.55
  -8   2   3  826.80   27.07
   8  -2   3  892.53   23.39
   8   2  -3  927.00   27.89
   8   2  -3  897.58   21.31
  -8   2   3  907.79   26.27
   8  -2   3  874.18   25.67
   8  -2   3  905.52   25.50
  -8  -2  -3  854.78   27.82
  -8   2   3  880.42   27.67
  -8  -2  -3  914.07   28.40
   8  -2   3  851.97   25.53
  -8  -2  -3  884.77   26.52
   8   2  -3  908.56   22.28
   8   2  -3  925.65   23.62
  -8   2   3  853.07   27.10
  -8   2  -3  897.14   26.49
   8  -2  -3  859.19   27.02
  -8  -2   3  905.84   22.99
  -8   2  -3  887.65   25.16
  -8   2  -3  902.29   30.37
   8   2   3  900.97   27.37
  -8  -2   3  875.09   23.21
   8  -2  -3  864.11   28.12
  -8   2  -3  907.74   23.46
   8  -2  -3  894.61   28.25
   8   2   3  875.50   26.84
  -8   2  -3  896.25   24.14
   8   2   3  834.44   26.09
  -8   2  -3  913.06   24.82
   8  -2  -3  863.33   27.30
   8   2   3  904.67   27.15
  -8  -2   3  909.21   23.57
   8  -3   3  177.86   11.99
  -8  -3  -3  223.11   15.07
   8  -3   3  186.86   11.85
   8  -3   3  186.46   12.24
   8   3  -3  172.11   14.45
  -8   3   3  211.92   14.63
  -8   3   3  213.77   14.36
  -8   3   3  216.41   14.60
  -8   3   3  223.25   13.92
  -8  -3  -3  245.34   15.85
  -8  -3   3  201.10    9.43
   8  -3  -3  212.80   13.94
  -8   3  -3  169.15   15.94
  -8   3  -3  194.21   12.88
   8   3   3  199.26   12.90
   8  -3  -3  177.30   14.66
   8  -3  -3  191.48   14.35
  -8  -3   3  189.74    9.26
   8   3   3  223.72   12.50
  -8   3  -3  189.81   13.22
   8   3   3  218.36   13.55
  -8   3  -3  181.01   11.05
   8   3   3  212.16   13.70
   8   3   3  207.77   13.00
   8  -3  -3  201.91   15.76
  -8   4   3  376.76   18.87
   8  -4   3  372.62   16.73
   8  -4   3  356.16   16.82
  -8   4   3  393.02   20.24
  -8  -4  -3  412.13   21.10
   8  -4   3  393.86   16.24
   8   4  -3  394.20   22.33
  -8   4   3  378.13   18.73
  -8   4   3  388.50   19.21
  -8  -4  -3  405.03   20.60
   8   4   3  343.56   18.11
  -8   4  -3  397.18   19.44
  -8   4  -3  399.38   23.57
  -8   4  -3  387.16   15.47
   8   4   3  410.86   18.95
   8  -4  -3  374.09   20.00
  -8   4  -3  413.50   18.98
   8  -4  -3  409.25   21.42
   8  -4  -3  386.32   21.05
   8  -5   3  151.60   12.74
  -8   5   3  176.36   16.31
  -8   5   3  153.46   17.49
   8   5  -3  165.19   20.13
   8  -5   3  157.05   13.52
  -8  -5  -3  187.87   18.20
   8  -5   3  167.36   11.80
  -8   5   3  178.17   15.47
   8   5  -3  178.90   17.88
  -8  -5  -3  169.80   17.78
  -8   5  -3  173.71   17.41
   8  -5  -3  183.36   18.49
   8  -5  -3  212.15   18.67
  -8   5  -3  156.00   20.45
   8   5   3  180.24   15.88
   8   5   3  184.81   15.36
  -8   5  -3  171.65   15.41
   8  -5  -3  213.96   17.64
  -8  -6  -3  255.27   21.34
  -8  -6  -3  238.26   20.87
   8   6  -3  192.24   24.30
  -8   6   3  237.38   23.45
  -8   6   3  222.38   18.52
   8   6  -3  232.41   22.13
   8   6   3  220.17   21.41
  -8   6  -3  239.47   22.89
   8   6   3  218.93   17.87
   8  -6  -3  233.21   22.12
   8  -6  -3  224.32   22.63
   8  -6  -3  253.66   23.87
  -8   6  -3  243.65   26.96
   8   0   4 1245.69   35.95
  -8   0   4 1288.53   35.67
   8   0   4 1306.93   36.45
  -8   0   4 1276.70   33.05
  -8   0  -4 1332.88   35.60
   8   0   4 1241.17   34.25
  -8   0   4 1269.26   35.04
   8   0  -4 1305.45   35.06
  -8   0  -4 1332.00   36.48
   8   0  -4 1333.28   34.94
  -8   0   4 1274.53   35.65
   8   0  -4 1278.75   32.48
   8   0  -4 1351.94   34.76
   8   0  -4 1354.52   35.77
  -8   0  -4 1363.39   36.04
   8   0   4 1236.96   35.46
   8  -1   4   79.11   10.22
  -8   1   4   73.34    8.83
   8  -1   4   66.22    9.83
  -8  -1  -4   45.43    9.73
   8  -1   4   80.73    9.38
  -8   1   4   74.71   10.44
   8   1  -4   76.89    7.81
   8  -1   4   68.82    9.87
   8   1  -4   79.09    8.63
  -8  -1  -4   62.11    9.45
  -8  -1  -4   62.61   10.00
   8   1  -4   70.65    8.98
  -8   1   4   63.93   10.01
  -8   1   4   77.87   10.40
   8   1  -4   75.51    8.32
   8   1  -4   65.98    8.46
  -8  -1   4   88.70    9.48
   8   1   4   71.59   10.23
  -8   1  -4   72.67    9.17
  -8  -1   4   81.28    7.79
  -8   1  -4   68.53    9.06
   8  -1  -4   83.98   10.89
  -8   1  -4   67.86    9.55
   8  -1  -4   76.09   10.29
   8  -1  -4   65.87   10.11
  -8  -1   4   65.08    9.10
   8   1   4   75.50    9.26
  -8   1  -4   68.75    9.32
   8   1   4   73.18   10.60
   8   1   4   92.68   11.46
  -8  -1   4   66.74    9.16
   8  -1  -4   69.68   10.00
   8  -2   4  558.19   21.26
  -8   2   4  554.21   22.82
  -8   2   4  539.01   23.16
  -8   2   4  537.41   21.15
   8  -2   4  560.77   20.66
   8  -2   4  563.17   21.37
  -8  -2  -4  591.84   23.79
  -8   2   4  541.23   23.11
   8   2  -4  597.81   19.59
  -8  -2  -4  575.29   23.87
  -8  -2  -4  566.10   22.49
   8   2  -4  577.56   22.22
   8  -2  -4  566.85   23.26
  -8  -2   4  550.10   19.39
   8  -2  -4  566.98   22.78
  -8   2  -4  574.50   19.24
   8  -2  -4  571.31   23.72
  -8   2  -4  575.20   25.71
  -8   2  -4  594.47   22.02
   8   2   4  549.22   22.72
  -8   2  -4  571.05   20.55
   8   2   4  528.64   21.43
  -8   2  -4  575.13   18.74
   8   2   4  561.82   23.13
   8  -2  -4  589.64   24.54
  -8  -2   4  583.27   19.65
  -8  -2   4  560.71   18.83
   8   2   4  537.65   22.47
  -8   3   4   81.79   11.11
   8  -3   4   66.48   10.37
   8  -3   4   79.85   10.48
  -8  -3  -4   74.73   12.27
   8   3  -4   62.78    7.85
   8  -3   4   78.53   10.06
  -8   3   4   71.98   11.79
  -8   3   4   94.59   12.34
  -8  -3  -4   78.88   12.34
   8   3  -4   70.69   11.55
  -8   3   4  103.75   12.77
   8   3   4   70.03   10.58
  -8   3  -4   61.05    8.65
  -8   3  -4   70.59   13.31
  -8   3  -4   83.02   10.68
   8  -3  -4   72.33   12.19
   8  -3  -4   83.64   12.17
   8   3   4   81.30   11.81
  -8  -3   4   75.38    8.40
  -8  -3   4   72.04    8.14
   8   3   4   68.28   10.87
  -8  -3   4   93.42    8.40
   8   3   4   89.68   12.29
   8  -3  -4   89.53   13.15
   8  -3  -4   78.94   12.24
   8  -4   4  429.66   17.58
  -8   4   4  386.08   21.31
  -8   4   4  413.08   21.69
   8  -4   4  407.48   18.35
   8   4  -4  404.87   23.80
  -8  -4  -4  369.04   22.76
  -8   4   4  367.51   20.85
  -8   4   4  399.98   21.47
   8  -4   4  425.42   19.11
  -8  -4  -4  379.47   22.86
   8   4   4  394.61   19.92
  -8   4  -4  379.56   20.25
   8  -4  -4  412.65   22.62
   8  -4  -4  411.41   23.98
  -8   4  -4  383.38   20.83
  -8   4  -4  374.82   16.78
  -8   4  -4  448.03   26.57
  -8  -4   4  389.17   14.31
   8   4   4  412.01   21.01
   8  -4  -4  382.38   23.15
  -8  -5  -4   40.66   13.14
   8  -5   4   30.06    9.33
  -8   5   4   52.71   12.29
  -8   5   4   25.35   11.06
  -8  -5  -4   58.25   14.44
   8   5  -4   37.03   12.05
   8  -5  -4   23.22   11.87
  -8   5  -4   30.46   10.66
  -8   5  -4   30.45    9.81
   8   5   4   50.85   11.74
   8  -5  -4   48.54   13.66
   8   5   4   37.81   11.02
   8  -5  -4   44.62   12.03
  -8   5  -4   35.22   13.48
   8   6  -4  152.66   21.96
  -8   6  -4  147.84   22.24
   8   0   5 1600.31   44.69
   8   0   5 1583.85   42.36
   8   0  -5 1544.34   42.71
   8   0  -5 1579.41   41.03
   8   0   5 1681.64   45.84
  -8   0  -5 1686.08   44.85
  -8   0  -5 1629.14   44.78
  -8   0  -5 1614.73   44.19
   8   0  -5 1606.69   42.49
  -8   0   5 1604.76   43.54
  -8   0   5 1605.69   41.01
   8   0  -5 1603.79   43.90
   8   0   5 1638.17   45.29
   8   0  -5 1582.34   42.88
  -8   0   5 1590.18   44.27
  -8   0   5 1612.70   44.57
   8   1  -5   75.42   10.85
   8   1  -5   93.65   11.29
  -8  -1  -5   92.77   12.73
   8  -1   5   87.49   11.76
   8  -1   5  114.20   13.37
  -8   1   5   85.95   11.87
   8   1  -5  103.12   13.14
   8  -1   5   95.31   12.83
  -8   1   5   90.66   12.34
  -8  -1  -5   62.90   10.57
  -8   1   5   74.97   10.11
   8   1  -5  100.86   10.70
  -8   1   5  104.12   13.40
   8   1  -5   83.88    9.84
  -8  -1  -5  104.31   13.54
   8   1   5  103.93   13.26
   8   1   5  111.30   13.80
  -8   1  -5   96.95   12.62
  -8   1  -5   95.36   11.48
  -8  -1   5   90.88   11.69
   8   1   5  118.34   13.45
   8  -1  -5   90.28   12.10
  -8   1  -5   84.61   10.95
  -8  -1   5   94.33   11.23
   8  -1  -5   77.85   11.85
  -8  -1   5   92.51   11.76
   8  -1  -5   97.23   13.00
   8  -1  -5   86.41   11.89
   8   1   5   90.88   12.35
  -8   2   5  521.81   24.78
  -8   2   5  534.23   22.80
  -8  -2  -5  534.38   25.28
   8  -2   5  550.90   23.32
   8   2  -5  544.70   23.53
   8   2  -5  565.08   21.41
  -8   2   5  585.86   25.68
  -8  -2  -5  566.60   24.53
   8  -2   5  571.94   23.04
   8  -2   5  536.89   23.18
  -8   2   5  545.47   25.17
  -8  -2  -5  564.09   26.10
   8  -2  -5  592.11   26.21
  -8   2  -5  571.57   28.31
  -8   2  -5  559.81   22.19
   8   2   5  580.24   25.56
  -8  -2   5  558.01   21.76
   8   2   5  593.03   25.54
   8  -2  -5  563.07   25.94
  -8  -2   5  564.18   20.98
   8  -2  -5  544.58   24.95
  -8  -2   5  582.35   22.08
   8   2   5  581.96   25.68
   8  -2  -5  550.01   24.76
   8   2   5  553.53   23.51
  -8  -3  -5   27.74   11.02
   8  -3   5   27.46    8.47
  -8   3   5   32.70   10.24
   8   3  -5   14.37    8.68
   8  -3   5   15.71    8.74
   8  -3   5   15.04    8.26
  -8  -3  -5   42.72   11.27
   8   3  -5   28.10    7.65
  -8   3   5   49.11   10.18
  -8   3   5   50.35   11.15
  -8   3  -5   16.97    8.75
   8  -3  -5   28.23   10.79
  -8   3  -5   20.38   11.09
  -8   3  -5   18.05    7.80
   8   3   5   33.46    9.89
  -8  -3   5   21.15    7.35
   8   3   5   17.31    9.17
   8   3   5   34.73   10.56
   8  -3  -5   31.16   10.25
   8  -3  -5   15.68    8.51
  -8  -3   5   17.38    6.73
  -8  -3   5   26.03    7.43
   8  -3  -5   28.17   10.55
  -8   4   5  364.81   22.89
   8  -4   5  328.54   18.66
  -8   4   5  342.81   22.40
   8  -4   5  344.48   19.30
  -8   4   5  329.68   28.51
   8  -4   5  350.91   17.89
  -8   4   5  373.99   22.42
   8   4  -5  345.79   23.26
  -8  -4  -5  374.95   25.21
  -8  -4  -5  352.04   24.38
   8  -4  -5  367.72   24.15
  -8   4  -5  324.50   24.66
  -8  -4   5  353.48   16.05
  -8   4  -5  350.58   17.76
  -8   4  -5  373.55   21.92
   8   4   5  314.64   20.93
   8   4   5  335.88   19.64
   8  -4  -5  370.54   25.04
   8   4   5  330.42   27.58
   8  -4  -5  340.71   23.91
   8   5  -5   57.14   14.62
  -8  -5  -5   38.95   14.82
  -8   5   5   64.57   14.39
   8  -5   5   48.24   10.79
  -8  -5  -5   38.77   13.79
   8   5   5   37.46   12.36
  -8   5  -5   29.12   13.74
   8   5   5   31.10   10.74
   8  -5  -5   34.60   13.82
   8  -5  -5   38.90   13.78
   8  -5  -5   35.92   14.15
   8   0  -6  573.03   23.06
   8   0  -6  540.47   23.49
   8   0  -6  534.71   25.03
  -8   0  -6  540.18   25.24
  -8   0  -6  576.12   25.73
   8   0  -6  558.36   24.08
  -8   0   6  561.65   25.01
   8   0   6  566.30   27.01
   8   0   6  541.81   26.85
  -8   0  -6  571.42   26.05
   8   0   6  544.55   25.88
  -8   0   6  593.36   26.49
   8   0  -6  560.12   24.11
  -8   0   6  603.51   26.38
  -8  -1  -6    7.51    8.65
   8   1  -6   16.54    7.56
  -8   1   6   26.46    9.92
   8  -1   6    3.46    9.11
  -8  -1  -6    9.01    8.13
  -8   1   6    9.64    8.51
  -8  -1  -6   -0.03    8.92
   8  -1   6   13.13    8.97
  -8   1   6   20.70   10.03
   8   1  -6   17.86    8.66
   8  -1   6    2.68    8.33
   8   1   6    6.36    9.49
   8   1   6    1.28    9.27
  -8   1  -6    2.76    8.00
   8  -1  -6   -1.90    7.80
  -8   1  -6   23.61   11.12
   8  -1  -6   14.33    9.16
   8  -1  -6    4.63    8.04
   8   1   6    4.45    7.68
  -8   1  -6   13.02    8.00
   8  -1  -6   -2.20    8.11
  -8  -1   6    0.55    7.67
  -8  -1   6   14.87    9.02
   8   1   6    5.59    9.16
  -8  -1   6   14.41    9.04
  -8  -2  -6  299.60   22.49
  -8   2   6  282.34   21.21
   8  -2   6  291.47   19.11
  -8  -2  -6  253.42   20.87
  -8   2   6  266.39   20.35
   8   2  -6  285.44   19.02
  -8   2   6  268.59   18.19
   8   2  -6  306.14   18.23
   8  -2   6  288.44   19.80
  -8  -2  -6  258.07   19.72
  -8   2   6  265.05   21.63
   8  -2   6  303.19   20.11
   8   2   6  276.82   18.96
   8   2   6  289.31   21.57
   8  -2  -6  291.07   21.72
   8  -2  -6  300.20   21.85
  -8   2  -6  269.77   22.16
  -8  -2   6  259.09   18.31
   8   2   6  303.83   21.66
   8  -2  -6  307.06   20.88
  -8  -2   6  296.23   18.77
   8  -2  -6  279.32   21.19
  -8  -2   6  280.12   17.51
  -8   2  -6  310.92   18.75
   8   2   6  254.40   20.46
  -8   3   6   19.15   11.19
   8  -3   6   13.77    9.52
  -8   3   6   18.34   11.62
   8   3  -6   19.18    9.99
  -8  -3  -6   28.01   11.80
   8   3  -6   14.39    7.87
   8  -3   6   15.51    8.60
  -8   3   6   27.19   11.27
  -8  -3  -6   17.55   11.76
  -8   3   6   12.72    9.09
   8  -3   6    7.80    9.04
   8  -3  -6   20.44   11.44
  -8   3  -6   14.08    8.58
  -8  -3   6    7.35    8.46
  -8  -3   6    9.40    7.23
  -8   3  -6   17.62   11.30
   8   3   6   13.13    9.14
   8  -3  -6   -0.42    9.37
  -8  -3   6   21.47    8.75
   8  -3  -6   19.12   11.50
   8   3   6    4.85    9.82
   8   3   6   21.40   10.60
   8   3   6   20.64   10.89
  -8  -4  -6  145.55   21.48
  -8   4   6  158.90   20.11
   8   4  -6  138.53   19.15
   8  -4   6  162.13   17.16
  -8   4   6  162.34   20.75
  -8  -4  -6  139.14   21.90
   8  -4   6  157.47   16.05
  -8   4   6  177.62   21.10
   8  -4   6  152.18   16.69
   8   4   6  180.76   20.56
  -8  -4   6  138.76   14.22
   8  -4  -6  144.59   20.88
   8  -4  -6  155.13   21.54
   8  -4  -6  172.64   22.85
  -8   4  -6  140.99   15.72
  -8   4  -6  113.30   19.41
  -8   0  -7  289.78   21.47
   8   0  -7  285.20   21.49
  -8   0   7  314.54   21.67
   8   0   7  315.47   24.02
  -8   0   7  323.64   23.26
   8   0  -7  294.06   21.32
   8   0   7  309.30   22.99
   8   0   7  330.87   23.37
  -8   0   7  328.30   23.33
   8   0  -7  278.82   21.53
  -8   0  -7  276.32   21.00
  -8   0  -7  313.69   21.79
   8  -1   7   35.43   11.42
   8  -1   7   37.06   12.56
  -8  -1  -7   56.56   13.03
  -8   1   7   43.28   12.26
   8   1  -7   30.95    9.87
  -8   1   7   59.01   14.21
  -8   1   7   49.81   13.33
   8  -1   7   52.51   13.27
  -8  -1  -7   54.78   12.90
   8   1  -7   40.41   12.00
  -8  -1  -7   52.20   13.60
  -8  -1   7   41.55   12.67
  -8   1  -7   34.80   13.88
  -8  -1   7   53.14   13.00
   8  -1  -7   51.02   12.39
  -8   1  -7   69.47   14.17
   8   1   7   43.87   13.34
  -8  -1   7   46.50   11.71
   8  -1  -7   50.65   12.96
   8  -1  -7   40.68   11.74
   8   1   7   47.71   12.88
   8  -1  -7   59.14   12.60
   8   1   7   53.20   13.40
   8   2  -7  291.39   20.18
   8  -2   7  237.64   21.96
   8   2  -7  246.02   19.64
   8  -2   7  251.15   21.62
  -8  -2  -7  214.42   21.62
  -8   2   7  285.32   25.78
   8  -2   7  265.57   21.41
  -8  -2  -7  284.34   27.40
  -8   2   7  268.88   23.03
  -8   2   7  281.64   23.63
  -8  -2  -7  269.60   23.20
   8   2   7  254.46   24.29
  -8   2  -7  265.95   28.04
   8  -2  -7  300.63   28.21
   8   2   7  262.92   23.45
  -8  -2   7  229.29   18.75
  -8   2  -7  280.66   20.48
  -8  -2   7  222.63   19.87
   8  -2  -7  306.34   26.82
   8  -2  -7  268.72   23.10
   8   2   7  254.54   20.14
   8   2   7  242.95   23.55
  -8  -2   7  287.42   20.84
   8  -2  -7  278.90   23.81
  -8  -3  -7   56.31   15.56
  -8   3   7   42.34   13.48
  -8   3   7   54.86   15.50
   8  -3   7   46.04   13.38
   8   3  -7   35.19   10.88
   8  -3   7   48.74   13.20
   8  -3   7   50.75   12.80
  -8   3   7   19.78   12.86
   8   3  -7   26.52   12.61
  -8  -3  -7   43.19   15.48
  -8   3   7   53.21   14.49
   8   3   7   37.39   13.28
  -8  -3   7   39.52   10.36
   8  -3  -7   34.86   13.37
   8  -3  -7   40.15   14.50
   8   3   7   26.09   11.42
   8  -3  -7   37.24   14.27
  -8  -3   7   36.37   11.82
   8   3   7   44.69   14.82
  -8   3  -7   32.02   10.99
  -8  -3   7   22.97   10.64
  -8   3  -7   11.42   13.21
   8   3   7   49.56   13.68
   8   0   8  233.73   25.21
   8   0  -8  214.17   23.50
  -8   0  -8  196.33   22.12
  -8   0   8  194.65   22.68
   8   0   8  229.16   24.74
  -8   0   8  232.01   23.48
  -8   0   8  206.75   23.20
   8   0   8  233.85   26.17
  -8   1   8   13.81   13.21
  -8  -1  -8    5.52   10.54
   8  -1   8    2.12   12.30
   8   1  -8    7.86   10.62
  -8   1   8    8.81   11.73
  -8  -1  -8   -2.88   11.53
   8  -1   8    6.53   11.14
  -8  -1  -8    7.17   10.72
   8  -1   8  -14.96   10.44
  -8   1   8   22.45   13.92
  -8   1  -8    4.60   10.49
   8   1   8    2.76   12.87
   8  -1  -8   11.73   11.45
   8  -1  -8   -3.60   10.05
   8   1   8   -7.93   11.37
  -8   1  -8    3.62   13.09
  -8  -1   8   12.42   12.16
  -8  -1   8    0.78   11.08
   8  -1  -8   12.85   11.62
   8   1   8   -9.99   10.80
  -8  -1   8    9.80   11.33
  -9   0   0   -3.41    4.20
   9   0   0   -1.83    4.00
  -9   0   0   -3.72    4.20
  -9   0   0   -2.92    3.08
   9   0   0    5.84    4.36
  -9   0   0    0.73    3.81
   9   0   0    1.72    4.24
   9   0   0   -4.66    3.84
  -9  -1   0 2162.83   46.23
   9   1   0 2190.66   45.50
  -9  -1   0 2179.75   44.88
  -9   1   0 2185.80   47.28
   9   1   0 2188.32   45.86
  -9  -1   0 2164.63   43.20
   9  -1   0 2233.18   47.30
   9   1   0 2154.82   45.39
   9  -1   0 2111.41   46.69
   9  -1   0 2112.42   46.57
  -9   1   0 2114.50   46.90
  -9   1   0 2109.03   47.01
  -9   1   0 2116.17   46.29
   9   1   0 2161.10   45.10
   9  -1   0 2098.18   46.76
  -9   1   0 2150.46   45.91
  -9   1   0 2134.87   44.99
  -9  -1   0 2173.95   46.16
  -9   2   0   20.93    5.08
  -9   2   0   22.23    5.27
   9  -2   0   21.84    5.69
  -9  -2   0   22.97    5.05
  -9   2   0   28.91    5.25
   9  -2   0   21.73    5.46
   9  -2   0   16.20    5.25
   9   2   0   22.25    3.96
  -9   2   0   26.33    5.48
  -9   2   0   19.98    4.86
   9   2   0   22.42    4.28
   9   2   0   30.14    4.29
   9   2   0   28.82    4.99
   9  -2   0   23.69    5.86
  -9   2   0   25.66    5.55
   9   2   0   25.87    3.76
  -9  -2   0   29.54    5.16
   9   2   0   25.94    3.50
  -9   3   0  443.86   15.38
  -9   3   0  444.93   17.15
  -9   3   0  456.66   18.14
   9   3   0  443.38   11.90
  -9  -3   0  436.83   14.30
  -9   3   0  424.38   16.70
   9   3   0  451.03   13.80
   9  -3   0  457.11   16.84
   9  -3   0  427.13   16.59
  -9   3   0  441.21   14.81
   9   3   0  411.15   15.95
  -9  -3   0  453.57   14.56
   9   3   0  453.25   13.45
   9  -3   0  442.69   15.59
  -9   3   0  430.68   15.15
   9  -3   0  446.99   16.49
   9  -4   0   45.49    8.21
  -9   4   0   57.01    7.65
  -9   4   0   46.86    9.74
   9  -4   0   56.87    8.56
  -9  -4   0   63.44    7.48
   9  -4   0   38.38    8.00
  -9  -4   0   69.57    7.48
   9   4   0   54.29    8.69
  -9   4   0   53.49    9.30
  -9   4   0   54.49    8.60
  -9   5   0  469.06   20.69
  -9   5   0  437.51   22.41
   9  -5   0  487.34   20.80
  -9   5   0  440.94   18.55
   9  -5   0  480.47   20.01
  -9   5   0  469.33   24.82
  -9  -5   0  486.40   17.19
   9   5   0  447.53   22.25
  -9  -5   0  486.22   17.24
   9  -5   0  471.59   20.69
  -9   6   0    9.90    8.04
  -9   6   0   -6.30    8.43
   9  -6   0    4.16    8.21
   9  -6   0    1.60    8.26
  -9   6   0    8.97    9.63
   9  -6   0   10.82    7.78
   9   6   0   11.09    8.85
  -9   0   1   -0.79    3.91
  -9   0  -1   -2.78    3.90
   9   0  -1   -4.28    3.80
  -9   0  -1   -0.78    3.07
   9   0  -1    4.50    4.04
  -9   0   1   -5.28    3.72
   9   0   1   -2.77    4.12
   9   0   1    2.67    4.30
  -9   0   1    0.33    3.23
   9   0   1   -5.01    3.84
   9   0  -1   -0.54    3.78
  -9   0  -1    0.00    4.50
   9   0  -1   -2.90    3.78
   9   0   1   -5.24    3.74
  -9   0  -1    1.76    4.43
   9   1  -1 3895.53   77.38
  -9   1   1 3826.43   79.44
   9   1  -1 3795.97   76.50
   9  -1   1 3813.26   79.20
  -9  -1  -1 3870.39   77.78
  -9   1   1 3900.97   79.66
   9   1  -1 3896.46   77.16
  -9  -1  -1 3856.06   79.23
   9  -1   1 3871.06   78.96
   9  -1   1 3781.87   79.34
   9  -1   1 3867.51   78.48
  -9   1   1 3775.61   77.99
  -9  -1  -1 3879.92   79.21
  -9  -1  -1 3763.13   75.71
   9   1  -1 4006.27   78.70
   9   1  -1 3849.29   76.96
   9  -1  -1 3864.16   79.11
   9   1   1 3804.17   78.44
   9   1   1 3849.44   78.41
  -9  -1   1 3841.01   76.32
  -9   1  -1 3919.19   78.77
  -9   1  -1 3792.45   78.15
  -9   1  -1 3918.90   75.78
   9   1   1 3861.14   78.40
   9   1   1 3785.97   78.18
  -9  -1   1 3902.36   77.60
   9   1   1 3755.10   74.22
  -9  -1   1 3912.17   77.54
   9  -1  -1 3889.66   79.37
   9  -1  -1 3876.44   79.55
  -9   1  -1 3918.19   78.67
  -9   1  -1 3869.00   78.91
   9  -1  -1 3876.16   79.25
  -9  -2  -1  163.97    8.63
  -9   2   1  174.44   10.06
   9   2  -1  154.29    9.03
   9   2  -1  171.87    8.18
   9   2  -1  173.42    6.68
   9  -2   1  150.53   10.02
  -9   2   1  146.20    8.08
  -9   2   1  157.07   10.43
   9  -2   1  149.19    9.62
  -9   2   1  152.25    9.25
   9   2  -1  155.68    7.25
   9   2  -1  167.79   10.55
  -9  -2  -1  179.23   10.20
   9  -2   1  157.39    8.98
   9  -2   1  148.37   10.00
  -9  -2  -1  177.69   10.24
  -9   2   1  154.29    9.89
  -9   2  -1  168.10   11.39
   9   2   1  138.85    8.64
   9   2   1  152.62    7.80
   9  -2  -1  170.06   10.18
  -9   2  -1  160.32    9.07
   9  -2  -1  156.24   10.71
  -9  -2   1  159.42    7.87
  -9   2  -1  175.79    9.10
   9   2   1  156.49    9.03
   9  -2  -1  155.02   10.27
  -9   2  -1  170.32   10.07
   9  -2  -1  163.90   10.28
   9   2   1  150.76    8.37
  -9   2  -1  176.65    9.33
  -9  -2   1  152.03    7.73
  -9   2  -1  161.98    9.22
   9   2   1  147.81    8.58
   9  -3   1  862.54   24.58
  -9   3   1  884.23   25.16
  -9  -3  -1  867.60   24.80
  -9   3   1  852.97   25.62
  -9  -3  -1  864.31   24.71
  -9   3   1  863.29   26.44
  -9   3   1  832.20   24.57
   9   3  -1  871.22   25.78
   9  -3   1  870.84   25.14
  -9   3   1  848.41   25.26
   9  -3   1  916.33   25.11
  -9   3   1  852.54   24.45
   9  -3  -1  852.03   26.15
   9   3   1  916.57   23.81
   9  -3  -1  898.99   26.67
  -9   3  -1  825.62   25.08
   9   3   1  908.52   22.83
  -9   3  -1  847.08   25.61
   9  -3  -1  879.49   25.63
  -9   3  -1  854.74   24.53
  -9   3  -1  886.85   21.48
  -9  -3   1  834.19   20.27
   9   3   1  910.26   21.78
   9   3   1  858.98   24.49
  -9   3  -1  880.46   22.30
  -9   3  -1  865.97   23.80
  -9  -3   1  885.52   21.28
   9  -3  -1  880.82   25.11
   9   3   1  873.63   20.56
   9   3   1  910.87   23.58
  -9  -3   1  846.86   20.51
  -9  -3   1  860.18   21.21
  -9   3  -1  879.20   28.60
  -9   4   1  155.08   11.56
  -9   4   1  114.78   12.12
   9  -4   1  138.38   11.44
  -9   4   1  130.60   11.09
  -9  -4  -1  144.24   11.01
  -9   4   1  138.28   10.56
   9  -4   1  148.59   11.42
   9   4  -1  119.91   12.07
   9  -4   1  120.77   10.96
  -9  -4  -1  161.18   11.73
  -9   4   1  141.64   11.78
   9   4   1  116.18   10.07
  -9   4  -1  119.16    9.98
   9  -4  -1  102.74   11.18
   9  -4  -1  116.54   12.44
   9  -4  -1  107.53   11.80
  -9  -4   1  124.81    7.79
  -9  -4   1  133.03    7.45
  -9   4  -1  129.89   14.88
  -9   4  -1  101.60   11.46
  -9   4  -1  109.77   11.14
   9   4   1  135.75   11.49
  -9   5   1  659.40   24.03
   9   5  -1  663.70   26.48
  -9   5   1  642.78   25.10
  -9  -5  -1  667.37   23.05
   9  -5   1  634.79   22.57
  -9   5   1  648.37   27.89
  -9  -5  -1  637.67   22.93
   9  -5   1  640.53   23.68
   9  -5   1  633.61   23.78
  -9   5  -1  678.91   30.40
  -9   5  -1  659.78   24.92
   9   5   1  703.77   22.08
   9  -5  -1  637.51   25.53
   9  -5  -1  638.01   25.29
  -9   5  -1  665.58   22.28
  -9   5  -1  667.35   27.74
   9  -5  -1  656.64   24.87
   9   5   1  596.90   25.29
  -9   6   1  179.26   19.72
   9  -6   1  148.52   13.28
   9  -6   1  158.38   15.62
  -9  -6  -1  193.08   15.40
   9  -6   1  147.46   15.16
   9   6  -1  166.47   18.54
  -9   6   1  157.75   15.09
   9  -6  -1  164.24   17.21
   9  -6  -1  168.11   16.08
   9  -6  -1  148.30   16.37
  -9   6  -1  151.76   17.82
  -9   6  -1  156.17   13.57
  -9   6  -1  179.77   21.45
  -9   6  -1  169.35   23.59
   9   6   1  175.87   18.10
   9   0   2    2.02    5.00
  -9   0   2    0.44    4.30
   9   0  -2    2.55    4.61
  -9   0  -2    5.68    4.94
   9   0  -2   -1.60    2.00
   9   0   2   -3.45    4.30
   9   0   2    6.07    4.43
  -9   0  -2    3.07    4.86
  -9   0   2   -0.73    4.16
  -9   0  -2    6.89    3.99
   9   0  -2    1.15    4.10
  -9   0  -2    1.04    4.28
  -9   0   2   -0.21    3.25
   9   0   2    0.10    4.81
   9   0  -2    6.75    4.21
   9   0  -2   -3.26    3.88
  -9   0   2    1.12    4.45
  -9   1   2  937.36   25.79
   9  -1   2  958.63   25.86
   9   1  -2  933.10   23.22
   9   1  -2  934.96   23.30
   9   1  -2  955.90   23.04
   9  -1   2  985.33   24.62
   9   1  -2  962.93   24.10
  -9   1   2  972.83   26.46
  -9   1   2  948.63   26.20
  -9  -1  -2  902.20   23.25
  -9  -1  -2  906.95   26.23
   9   1  -2  949.89   24.08
  -9  -1  -2  956.38   26.40
   9  -1   2  939.29   25.33
  -9  -1  -2  917.87   25.15
   9  -1   2  955.47   25.81
  -9   1  -2  916.29   24.69
  -9  -1   2  982.30   22.65
   9   1   2  936.39   25.66
   9   1   2  997.65   25.91
   9  -1  -2  911.95   25.76
  -9   1  -2  899.29   24.93
  -9   1  -2  941.92   25.00
   9  -1  -2  906.10   25.92
   9  -1  -2  963.20   26.49
  -9  -1   2  982.64   24.14
   9   1   2  969.81   25.35
  -9  -1   2  996.53   24.42
   9   1   2  969.29   26.15
  -9   1  -2  927.82   25.24
  -9  -1   2  985.58   23.86
  -9   1  -2  895.82   22.22
   9  -1  -2  893.23   25.52
   9  -2   2  177.87   10.52
   9  -2   2  188.50   11.10
   9   2  -2  186.17    7.42
  -9   2   2  189.08   11.98
  -9  -2  -2  186.07   10.60
   9   2  -2  187.14    7.57
   9  -2   2  182.40   11.20
  -9  -2  -2  186.67   11.98
   9   2  -2  192.59   11.64
   9  -2   2  201.20    9.63
  -9  -2  -2  202.57   12.17
  -9   2   2  192.85   11.71
   9   2  -2  186.45    8.95
  -9   2   2  197.53   10.93
  -9   2   2  179.58   11.25
  -9   2  -2  191.17   11.01
  -9   2  -2  180.29    9.85
   9  -2  -2  204.26   11.88
  -9   2  -2  208.37   13.54
   9   2   2  184.97   10.95
   9   2   2  187.73   11.06
  -9   2  -2  184.68    9.61
   9   2   2  178.20   10.72
  -9   2  -2  185.18   10.15
  -9   2  -2  192.40    9.96
   9   2   2  179.32    8.69
   9  -2  -2  190.30   11.79
  -9  -2   2  187.20    8.70
  -9  -2   2  183.02    8.57
   9  -2  -2  190.76   12.57
   9   2   2  170.05   10.48
   9  -2  -2  193.14   12.64
   9   3  -2  441.28   19.92
  -9  -3  -2  434.69   18.05
  -9  -3  -2  436.04   18.40
  -9   3   2  401.95   16.78
  -9   3   2  390.29   17.24
   9  -3   2  431.91   16.08
   9  -3   2  431.24   16.72
   9   3  -2  420.40   17.86
  -9   3   2  428.75   17.90
   9  -3   2  437.63   16.86
  -9   3  -2  424.85   15.43
   9   3   2  431.19   16.93
  -9  -3   2  409.96   12.49
  -9   3  -2  427.70   13.48
  -9   3  -2  418.13   20.30
   9   3   2  403.48   15.65
   9   3   2  414.04   15.82
   9  -3  -2  443.47   18.36
  -9   3  -2  429.21   17.48
   9  -3  -2  432.31   19.04
   9  -3  -2  431.52   17.76
   9   3   2  409.45   16.33
  -9  -3   2  415.71   12.68
   9  -3  -2  416.47   18.53
  -9   3  -2  413.56   17.23
   9   3   2  397.82   15.14
   9   4  -2   99.72   13.75
   9  -4   2   89.54    9.32
   9  -4   2  104.00   10.79
  -9  -4  -2  111.07   12.11
  -9   4   2  114.23   11.99
  -9   4   2   93.74   11.28
   9  -4   2   95.99   10.42
  -9   4   2  130.38   13.75
   9   4  -2  102.77   12.07
  -9  -4  -2  124.30   12.91
  -9   4   2   95.82   10.68
  -9   4  -2  102.50   14.07
  -9   4  -2   88.16   11.62
   9  -4  -2  103.36   12.00
  -9   4  -2   93.58    9.38
   9  -4  -2   87.06   11.94
   9   4   2  105.60   10.96
   9  -4  -2   91.68   12.76
  -9   4  -2   95.44   10.73
   9   4   2   89.29   10.37
  -9   5   2  358.54   19.25
  -9  -5  -2  344.63   19.51
   9  -5   2  362.36   17.60
  -9   5   2  369.17   22.09
  -9  -5  -2  363.07   19.85
  -9   5   2  353.24   18.59
   9  -5   2  340.97   17.68
   9   5  -2  370.95   23.75
   9  -5   2  360.89   15.96
   9   5  -2  335.01   19.74
  -9   5  -2  363.37   18.67
  -9   5  -2  342.13   20.75
   9   5   2  325.59   19.42
  -9   5  -2  332.31   15.50
  -9   5  -2  398.12   24.87
   9  -5  -2  369.09   20.30
   9  -5  -2  349.05   20.69
   9  -5  -2  355.40   20.80
   9   5   2  354.58   17.83
   9  -6   2   11.34    8.04
  -9   6   2   18.95   11.16
  -9   6   2   31.30    9.92
  -9  -6  -2   16.25   10.11
   9   6  -2   21.50    9.98
  -9  -6  -2   31.41   11.17
   9  -6  -2    4.10    8.81
   9  -6  -2    6.83    9.76
  -9   6  -2   17.12   10.49
   9  -6  -2   29.66   11.49
   9   6   2   11.96    8.60
   9   6   2    3.15    8.71
  -9   6  -2    8.71   11.25
   9   0  -3    0.48    4.27
   9   0   3    7.35    5.58
   9   0  -3    0.29    3.04
  -9   0  -3    9.25    5.59
   9   0   3    1.25    5.18
   9   0  -3   -3.75    4.30
  -9   0  -3   -3.74    4.08
  -9   0  -3    0.96    4.94
  -9   0   3    2.13    3.93
  -9   0  -3    6.92    5.80
  -9   0   3    7.38    5.14
   9   0  -3   -5.64    4.38
   9   0  -3   -0.80    4.29
  -9   0   3   -2.68    4.92
   9   0   3    7.79    5.59
  -9   0   3   -0.71    4.89
   9   0   3    8.37    5.12
  -9  -1  -3 1493.57   39.82
   9  -1   3 1492.32   38.13
   9   1  -3 1538.29   37.11
   9   1  -3 1526.50   35.80
  -9   1   3 1486.11   39.41
  -9  -1  -3 1525.53   39.93
  -9  -1  -3 1523.78   38.60
   9  -1   3 1545.74   39.07
  -9   1   3 1540.56   37.72
   9  -1   3 1580.64   38.97
   9   1  -3 1553.37   35.98
   9   1  -3 1549.17   35.26
   9  -1   3 1566.20   37.12
   9   1  -3 1552.82   36.92
  -9   1   3 1534.41   39.59
  -9   1   3 1490.58   38.95
   9   1   3 1529.08   38.31
  -9  -1   3 1615.54   37.21
  -9  -1   3 1556.62   37.22
   9  -1  -3 1505.48   39.65
   9   1   3 1582.74   39.60
  -9  -1   3 1558.53   37.29
   9  -1  -3 1550.07   39.13
   9   1   3 1556.10   39.29
   9  -1  -3 1541.85   39.43
  -9  -1   3 1568.23   34.95
  -9   1  -3 1574.41   37.78
  -9   1  -3 1659.93   38.51
   9  -1  -3 1599.63   39.49
  -9   1  -3 1550.18   38.28
  -9   1  -3 1607.26   38.53
   9   1   3 1529.20   39.54
  -9  -2  -3   76.32    9.16
  -9  -2  -3   76.77   10.45
   9   2  -3   70.30    6.15
  -9   2   3   71.53    9.43
   9   2  -3   67.67    9.03
  -9   2   3   71.56    9.66
   9  -2   3   69.55    8.92
  -9  -2  -3   72.10   10.00
   9   2  -3   61.18    6.26
   9  -2   3   73.90    8.97
   9  -2   3   49.02    6.89
  -9   2   3   80.35    9.94
   9   2  -3   74.46    7.79
   9  -2   3   58.22    8.71
  -9   2   3   78.09    9.49
  -9  -2   3   47.77    6.58
  -9   2  -3   56.42    7.28
  -9   2  -3   68.88    7.65
   9  -2  -3   82.98   11.07
   9   2   3   57.61    8.33
  -9  -2   3   65.87    7.43
   9   2   3   54.21    8.78
  -9   2  -3   66.68    8.24
   9   2   3   69.02    9.46
   9  -2  -3   72.20   10.14
   9  -2  -3   82.20   10.71
  -9   2  -3   65.59   10.93
  -9   2  -3   73.15    8.01
   9  -2  -3   62.92    9.15
   9   2   3   74.40    9.37
  -9   2  -3   69.70    9.03
  -9  -2   3   61.60    6.97
  -9   3   3  798.44   27.32
   9   3  -3  817.18   29.22
  -9  -3  -3  842.14   28.51
   9  -3   3  791.32   24.54
  -9   3   3  819.58   26.74
   9  -3   3  812.99   25.52
  -9   3   3  794.70   27.36
   9  -3   3  827.03   25.63
  -9   3   3  809.71   27.88
  -9  -3  -3  842.71   28.56
   9   3   3  814.46   26.13
  -9   3  -3  834.20   24.16
   9  -3  -3  827.73   29.30
  -9   3  -3  856.21   31.81
   9   3   3  837.15   26.53
  -9  -3   3  784.26   21.20
   9  -3  -3  797.95   27.10
   9   3   3  828.56   26.70
   9  -3  -3  801.10   28.48
  -9   3  -3  832.68   26.21
  -9   3  -3  874.27   27.03
  -9  -3   3  804.20   21.40
   9   3   3  823.20   25.91
   9   3   3  826.32   24.93
   9  -3  -3  829.93   28.06
  -9   4   3   59.82   10.01
  -9   4   3   63.18   10.43
  -9  -4  -3   48.32   10.49
   9  -4   3   43.80    8.67
   9   4  -3   44.50   10.81
  -9   4   3   54.37   11.15
   9  -4   3   44.34    8.56
   9  -4   3   39.77    7.96
  -9  -4  -3   50.44   10.75
   9  -4  -3   58.85   11.23
   9  -4  -3   49.51   11.27
   9  -4  -3   39.51   10.48
   9   4   3   48.88    9.06
  -9   4  -3   20.41    9.85
  -9   4  -3   36.66    9.02
  -9   4  -3   46.51    7.93
  -9  -4   3   42.80    5.48
  -9   4  -3   56.37    9.79
   9   4   3   34.76    8.77
  -9  -5  -3  348.99   22.00
  -9   5   3  376.85   20.54
  -9  -5  -3  354.26   22.37
   9  -5   3  352.64   17.55
   9  -5   3  342.65   15.89
   9   5  -3  315.31   23.18
  -9   5   3  300.20   21.20
   9  -5   3  349.72   18.20
  -9   5   3  322.17   19.42
  -9   5  -3  365.77   21.54
   9   5   3  309.88   19.51
   9  -5  -3  320.53   21.98
  -9   5  -3  327.76   24.89
  -9   5  -3  322.28   19.02
   9  -5  -3  352.19   22.40
   9  -5  -3  327.86   20.77
   9   5   3  357.53   19.35
  -9   6   3  134.92   18.82
  -9   6   3  131.55   16.14
  -9  -6  -3  115.81   17.51
   9   6  -3  116.52   19.34
  -9  -6  -3  132.88   18.24
   9  -6  -3  145.10   17.31
   9   6   3  145.24   17.87
   9  -6  -3  137.70   19.10
   9   6   3  147.40   16.53
  -9   6  -3  106.42   20.11
  -9   6  -3  114.42   16.75
   9  -6  -3  139.69   18.83
  -9   0  -4    9.75    6.62
  -9   0  -4   -2.33    5.85
  -9   0   4   10.16    6.42
   9   0  -4    0.50    5.37
   9   0  -4    6.81    4.11
  -9   0  -4    2.67    6.61
  -9   0   4   -1.36    6.12
  -9   0   4   -1.45    4.68
   9   0   4   -2.41    6.31
   9   0   4    4.21    5.47
   9   0  -4   -1.72    5.12
   9   0   4    5.20    6.52
   9   0  -4    7.49    5.67
   9   0   4    2.42    6.72
   9   0  -4    9.77    6.24
  -9   0   4   10.54    6.80
   9   1  -4  413.42   15.73
   9  -1   4  380.25   18.24
   9  -1   4  406.01   17.99
  -9   1   4  388.58   16.73
   9   1  -4  396.43   15.46
   9   1  -4  391.75   14.80
  -9  -1  -4  402.72   19.40
  -9  -1  -4  420.80   18.70
   9   1  -4  370.99   15.84
   9  -1   4  364.29   15.93
  -9   1   4  401.84   18.43
   9   1  -4  401.38   17.09
  -9   1   4  367.63   18.32
   9  -1   4  375.84   18.00
  -9  -1  -4  414.88   19.69
  -9   1   4  366.79   18.41
  -9  -1   4  405.12   17.21
  -9  -1   4  419.72   17.30
  -9  -1   4  404.00   16.83
  -9   1  -4  387.13   17.50
  -9   1  -4  414.88   17.62
   9   1   4  384.67   17.64
  -9   1  -4  403.60   16.84
   9  -1  -4  400.57   19.31
  -9   1  -4  443.17   18.30
   9  -1  -4  381.06   18.37
   9  -1  -4  381.85   18.44
   9  -1  -4  395.57   18.83
   9   1   4  384.85   18.93
   9   1   4  390.98   18.60
   9   1   4  402.34   19.27
   9  -2   4   79.83   10.73
  -9  -2  -4   94.10   12.41
   9   2  -4   94.03    9.93
   9   2  -4   78.43   10.38
  -9   2   4   70.46   10.87
  -9  -2  -4   93.71   11.54
  -9   2   4   75.69   10.85
  -9   2   4   51.64   10.17
  -9  -2  -4  101.63   12.73
   9  -2   4   72.26   10.14
   9  -2   4   74.96   10.54
  -9   2   4   98.10   12.48
   9  -2  -4  101.46   13.43
   9  -2  -4   88.39   12.37
   9   2   4   73.61   11.45
   9   2   4  101.76   12.67
   9  -2  -4   83.16   10.92
  -9  -2   4  101.30   10.07
  -9   2  -4   78.07   10.17
   9  -2  -4   73.78   11.19
  -9   2  -4   83.39   12.80
  -9  -2   4   86.49    9.14
  -9  -2   4   79.23    8.98
   9   2   4   61.76   10.53
   9   2   4   81.96   10.58
  -9   2  -4   83.52    9.35
  -9   2  -4   75.03    8.78
  -9   2  -4   75.23    9.93
   9   3  -4  614.62   19.51
  -9  -3  -4  586.96   25.50
  -9   3   4  608.95   25.03
   9  -3   4  597.14   23.07
   9  -3   4  573.35   21.66
   9  -3   4  599.35   22.64
  -9   3   4  608.18   25.42
  -9   3   4  594.52   23.89
  -9   3   4  599.46   25.55
   9   3  -4  613.28   25.61
  -9  -3  -4  591.07   26.27
  -9   3  -4  598.42   23.90
   9   3   4  618.49   24.17
   9   3   4  628.31   24.78
  -9  -3   4  621.50   18.87
  -9  -3   4  591.27   19.31
   9  -3  -4  615.42   25.78
   9  -3  -4  583.71   25.86
  -9  -3   4  601.47   19.49
   9   3   4  614.17   24.82
  -9   3  -4  596.13   21.37
   9   3   4  588.49   23.71
   9  -3  -4  600.44   24.86
   9  -3  -4  623.43   26.88
  -9   3  -4  629.80   28.83
   9  -4   4   29.72    8.09
   9  -4   4   20.21    7.97
   9   4  -4   14.06    9.55
  -9   4   4   29.44    9.53
   9  -4   4   24.74    8.49
  -9  -4  -4   50.22   11.94
  -9   4   4   18.19    9.35
  -9   4   4   25.40    9.90
  -9   4   4   13.87    9.05
  -9  -4  -4   23.31   10.42
  -9   4  -4   15.15    8.54
   9  -4  -4   28.20   11.44
   9   4   4   21.35    7.74
  -9  -4   4   13.91    5.56
  -9   4  -4   32.54    9.80
  -9   4  -4   10.16    6.82
   9  -4  -4   23.29    9.60
   9  -4  -4   36.78   11.54
  -9   4  -4   21.57   11.23
   9   4   4   25.85    9.81
  -9  -5  -4  124.56   18.16
   9   5  -4  148.39   20.05
  -9  -5  -4  145.30   19.06
  -9   5   4  102.22   14.42
   9  -5   4  135.53   12.47
  -9   5   4  131.16   16.04
   9  -5   4  124.88   13.21
   9  -5   4  125.84   13.96
  -9   5   4  125.61   17.37
   9   5   4  135.71   15.69
  -9   5  -4  149.98   17.25
   9  -5  -4  127.12   17.82
   9   5   4  143.43   16.81
  -9   5  -4  138.90   15.57
  -9   5  -4  136.83   20.41
   9  -5  -4  110.83   16.64
   9  -5  -4  130.84   18.85
   9   0   5    7.25    8.03
   9   0   5   10.27    6.61
   9   0  -5   13.15    6.76
   9   0  -5   18.64    7.25
  -9   0   5   12.91    7.34
  -9   0  -5   18.72    8.04
  -9   0   5   13.13    7.31
   9   0   5   16.52    8.00
  -9   0  -5   11.91    7.31
   9   0  -5   23.63    6.00
  -9   0  -5    4.55    7.10
   9   0  -5    6.55    6.65
   9   0   5   11.82    8.15
  -9   0   5    9.70    6.95
   9   0  -5   12.60    7.22
  -9   0   5   20.19    7.94
  -9  -1  -5  872.57   31.22
   9   1  -5  848.60   27.30
   9   1  -5  833.74   28.13
  -9   1   5  833.32   27.56
   9  -1   5  895.52   30.30
   9   1  -5  810.43   25.90
  -9  -1  -5  862.36   30.28
  -9  -1  -5  871.91   31.20
  -9   1   5  859.76   31.01
   9  -1   5  824.92   28.94
  -9   1   5  830.22   29.96
  -9   1   5  784.72   30.10
   9   1  -5  838.68   26.40
   9  -1   5  859.88   29.79
  -9   1  -5  879.87   28.74
   9  -1  -5  866.74   30.20
  -9  -1   5  835.19   27.86
   9   1   5  837.48   30.75
  -9  -1   5  855.37   28.74
  -9  -1   5  855.14   28.81
  -9   1  -5  820.27   28.55
   9  -1  -5  786.15   29.31
   9  -1  -5  782.36   29.73
   9   1   5  829.75   30.73
  -9   1  -5  857.33   28.07
   9   1   5  851.67   30.29
   9  -1  -5  832.77   29.58
   9   1   5  837.70   28.52
   9  -2   5   43.31   10.07
   9  -2   5   47.61   10.00
   9   2  -5   69.01   10.52
  -9   2   5   47.37   11.20
  -9   2   5   73.38   12.18
  -9  -2  -5   73.39   12.59
  -9   2   5   51.07    9.41
  -9  -2  -5   64.13   11.10
   9   2  -5   57.18    9.35
   9  -2   5   59.33   10.50
  -9   2   5   79.95   12.42
  -9  -2  -5   71.72   12.49
   9   2   5   59.00   11.59
   9  -2  -5   67.59   11.10
   9   2   5   63.26   11.03
   9   2   5   71.78   12.42
  -9   2  -5   52.85   10.47
  -9  -2   5   51.38    9.58
   9  -2  -5   53.26   11.21
  -9  -2   5   51.55    8.97
  -9   2  -5   41.77    9.64
  -9   2  -5   51.35   12.83
   9   2   5   54.41   11.27
   9  -2  -5   66.20   12.39
   9  -2  -5   98.54   13.64
  -9  -2   5   70.82   10.77
   9  -3   5  776.12   27.81
  -9   3   5  761.46   30.95
   9  -3   5  790.59   28.87
  -9   3   5  852.71   32.13
  -9   3   5  755.52   29.32
   9  -3   5  857.91   29.81
   9   3  -5  818.23   31.96
  -9  -3  -5  758.13   32.51
  -9  -3  -5  772.81   32.77
   9   3  -5  782.71   25.25
  -9   3   5  786.44   31.85
  -9   3  -5  796.57   35.70
   9   3   5  814.74   29.90
   9  -3  -5  754.58   32.27
   9  -3  -5  711.31   30.66
   9   3   5  851.61   31.97
   9  -3  -5  723.81   30.48
  -9  -3   5  805.75   26.04
   9   3   5  779.83   30.22
  -9  -3   5  786.89   25.61
   9   3   5  800.53   30.66
  -9   3  -5  797.70   30.24
  -9  -3   5  818.91   24.72
   9  -3  -5  817.00   33.60
  -9   3  -5  743.95   26.97
   9  -4   5   35.93   10.63
  -9   4   5   68.01   12.76
  -9   4   5   59.25   13.47
  -9   4   5   62.10   12.73
   9  -4   5   44.55    9.59
  -9  -4  -5   54.00   13.62
  -9   4   5   45.87   13.52
   9  -4   5   27.60    9.58
  -9  -4  -5   52.84   13.32
   9   4  -5   24.40   10.64
   9  -4  -5   66.58   14.12
   9   4   5   45.55   11.85
  -9   4  -5   48.56   14.47
   9  -4  -5   59.16   13.82
  -9   4  -5   39.52    9.90
  -9  -4   5   43.54    8.22
   9   4   5   56.36   10.66
  -9   4  -5   47.55   11.26
   9  -4  -5   59.54   14.09
  -9  -5  -5  182.78   23.04
  -9  -5  -5  195.87   23.10
   9   5  -5  169.01   21.84
   9  -5   5  146.11   16.14
  -9   5   5  178.69   20.06
  -9   5  -5  167.49   14.52
   9  -5  -5  179.19   23.25
  -9   5  -5  172.82   19.19
   9   5   5  171.22   18.51
   9   5   5  190.78   20.06
  -9   5  -5  127.87   20.91
   9  -5  -5  183.53   22.40
   9  -5  -5  203.26   23.40
  -9   0  -6   -1.63    7.56
  -9   0   6    6.13    8.54
   9   0  -6    4.59    7.43
   9   0  -6   15.51    6.55
  -9   0  -6    8.04    8.58
   9   0  -6   13.35    8.43
   9   0   6   -8.06    8.60
   9   0   6    2.88    8.92
  -9   0   6   18.02    8.81
   9   0   6    4.98    9.25
  -9   0  -6   12.20    8.57
   9   0  -6   12.62    7.52
   9   0  -6   17.90    8.30
  -9   0   6    7.47    8.15
   9   1  -6  220.42   17.11
  -9  -1  -6  213.10   18.42
  -9  -1  -6  237.14   19.34
  -9  -1  -6  225.82   18.21
   9  -1   6  225.74   17.88
  -9   1   6  221.31   19.54
   9   1  -6  212.96   15.27
  -9   1   6  238.71   19.43
   9  -1   6  229.80   18.84
  -9   1   6  225.68   20.37
   9  -1   6  235.91   18.67
   9  -1  -6  220.46   20.72
  -9  -1   6  237.49   17.15
   9   1   6  205.73   16.30
  -9  -1   6  226.09   17.97
  -9   1  -6  191.73   16.47
  -9   1  -6  228.87   16.60
   9   1   6  211.02   19.65
  -9  -1   6  232.89   17.90
   9   1   6  220.89   19.17
   9  -1  -6  230.33   18.18
   9  -1  -6  227.48   19.58
   9  -1  -6  207.58   18.62
   9   1   6  217.33   19.29
  -9   2   6    8.94    9.53
   9  -2   6   14.57    9.29
  -9  -2  -6   24.51   11.02
  -9   2   6   10.57    8.83
   9  -2   6   26.46   10.35
  -9   2   6   12.04   10.70
   9  -2   6   11.39    9.36
   9   2  -6    5.48    8.19
  -9   2   6   14.02   10.44
   9   2  -6   11.43    8.31
  -9  -2  -6   25.00   11.24
  -9  -2  -6   12.05   10.39
   9   2   6   13.93    8.85
   9  -2  -6   36.73   11.84
   9   2   6   18.17   10.29
  -9  -2   6   12.93    7.47
  -9  -2   6    6.39    8.52
  -9   2  -6   13.17   11.05
  -9   2  -6   22.05    9.07
   9  -2  -6    7.90   10.58
   9  -2  -6   20.47   10.14
   9   2   6   14.98   10.50
   9  -2  -6   16.57   10.79
   9   2   6   18.80   10.79
  -9  -2   6   12.73    8.85
   9   3  -6  288.19   17.59
  -9   3   6  323.36   23.13
  -9  -3  -6  306.33   24.74
  -9   3   6  284.18   20.46
   9  -3   6  290.19   20.52
  -9  -3  -6  300.44   23.41
  -9   3   6  293.38   22.01
   9  -3   6  290.40   19.82
   9  -3   6  319.72   19.89
   9   3  -6  296.63   21.27
  -9   3   6  292.96   25.04
   9  -3  -6  291.18   24.09
   9  -3  -6  284.58   22.91
  -9  -3   6  330.71   18.40
  -9  -3   6  275.41   16.70
   9   3   6  297.84   21.65
   9   3   6  310.96   20.76
  -9   3  -6  268.44   18.37
  -9  -3   6  287.75   18.20
   9   3   6  252.90   21.58
   9   3   6  274.35   21.62
  -9   3  -6  284.71   28.11
   9  -3  -6  326.61   25.22
   9  -4   6    5.94    9.70
   9  -4   6   -1.51    9.11
   9   4  -6   12.45   10.35
   9  -4   6    8.34    8.94
  -9   4   6   -6.08   10.07
  -9  -4  -6   -5.07   11.52
  -9   4   6   11.05   10.56
  -9  -4  -6   11.81   12.23
  -9   4   6   -1.85   10.32
   9   4   6   28.07   12.19
   9  -4  -6    8.46   12.30
  -9  -4   6    5.18    7.94
   9   4   6    7.94    8.43
  -9   4  -6   -3.37    8.36
   9  -4  -6   -2.61   11.28
   9  -4  -6   15.77   12.90
  -9   4  -6    3.59   11.72
  -9   0  -7    9.97    9.67
   9   0  -7   10.12    9.59
  -9   0   7   12.62    9.56
   9   0   7   14.42   11.02
  -9   0  -7    5.48    9.81
   9   0   7   16.51   10.88
  -9   0   7    1.67    9.59
  -9   0  -7    7.58    9.12
   9   0   7    9.47   11.39
  -9   0   7   22.13   10.40
  -9  -1  -7  354.53   23.62
  -9   1   7  344.44   25.37
  -9  -1  -7  366.22   24.62
   9  -1   7  337.11   23.18
  -9  -1  -7  372.89   24.69
   9   1  -7  353.46   22.75
  -9   1   7  353.63   24.31
   9  -1   7  382.00   25.09
   9  -1   7  392.89   24.11
  -9   1   7  387.25   26.50
  -9  -1   7  396.04   23.18
   9   1   7  314.45   24.28
   9  -1  -7  375.72   24.02
   9  -1  -7  344.98   22.97
   9  -1  -7  391.71   24.77
   9   1   7  374.16   25.50
  -9   1  -7  339.93   26.60
  -9   1  -7  355.17   22.81
   9   1   7  340.18   24.99
  -9  -1   7  345.54   23.45
   9  -1  -7  344.01   22.52
  -9  -1   7  356.29   23.28
   9  -2   7   19.62   10.93
  -9  -2  -7   26.61   12.92
   9  -2   7   30.74   12.22
   9   2  -7   41.21   11.42
  -9   2   7   40.75   12.97
  -9  -2  -7   42.03   13.25
  -9   2   7   29.06   13.19
   9  -2   7   47.94   13.64
  -9  -2  -7   28.71   12.89
   9   2  -7   30.93   10.06
  -9   2   7   41.84   13.42
  -9  -2   7   25.55   10.80
  -9  -2   7   16.76    9.87
   9  -2  -7   39.19   13.07
   9  -2  -7   22.76   11.04
   9  -2  -7   31.70   12.41
  -9   2  -7   21.90   12.59
   9   2   7   15.38    9.84
   9   2   7   29.56   12.88
   9   2   7   39.39   13.67
  -9   2  -7   35.59   11.28
  -9  -2   7   25.95   11.07
   9   2   7   27.35   12.84
   9  -2  -7   21.13   11.77
  -9  -3  -7  313.14   30.52
   9   3  -7  265.90   22.35
   9   3  -7  265.41   19.61
  -9  -3  -7  299.02   26.66
   9  -3   7  304.00   22.92
  -9   3   7  290.68   25.86
   9  -3   7  306.42   21.73
  -9   3   7  279.68   22.48
  -9   3   7  335.68   25.90
   9  -3   7  288.64   22.98
  -9   3   7  320.12   29.42
  -9  -3   7  285.89   20.64
   9  -3  -7  294.47   25.28
   9   3   7  284.66   26.93
   9   3   7  295.22   23.95
   9  -3  -7  308.47   28.81
   9   3   7  278.19   22.47
  -9   3  -7  283.73   29.93
  -9   3  -7  265.34   20.23
   9  -3  -7  309.63   29.23
   9   3   7  288.28   24.38
  -9  -3   7  314.58   20.78
  -9  -3   7  318.24   19.45
   9   0   8    8.23   12.36
  -9   0  -8   20.77   12.56
   9   0   8  -16.44   10.48
   9   0  -8   -9.16    9.85
  -9   0   8   12.11   12.65
  -9   0   8    8.86   11.74
   9   0   8    1.52   11.28
  -9   0   8   19.24   11.76
   9  -1   8  153.56   20.85
  -9   1   8  144.77   20.85
  -9   1   8  138.43   21.10
   9  -1   8  130.70   20.81
  -9  -1  -8  139.03   20.51
   9  -1   8  128.20   20.76
   9   1  -8  125.49   18.85
  -9  -1  -8  110.15   18.41
  -9  -1  -8   96.58   22.07
  -9   1   8  167.22   21.61
   9   1   8  158.29   22.85
  -9  -1   8  172.51   21.33
  -9   1  -8  137.09   19.83
  -9  -1   8  136.56   18.42
   9  -1  -8  144.52   21.01
  -9   1  -8  115.34   21.74
   9   1   8  140.94   21.42
  -9  -1   8  188.68   22.28
   9  -1  -8  177.21   25.21
   9   1   8  169.03   23.54
   9  -1  -8  152.05   20.74
 -10   0   0  766.11   19.42
 -10   0   0  766.16   20.14
  10   0   0  793.12   21.21
  10   0   0  789.94   21.24
  10   0   0  770.95   20.85
 -10   0   0  786.67   21.54
  10   0   0  740.52   20.83
 -10   0   0  750.55   21.16
  10   1   0   18.30    4.45
  10   1   0   19.56    4.65
  10  -1   0   14.08    5.15
 -10   1   0   13.55    4.24
 -10  -1   0   12.86    3.08
  10   1   0   14.77    4.37
  10  -1   0   17.73    5.81
 -10   1   0   17.59    5.24
 -10   1   0   13.57    4.36
 -10   1   0   12.38    5.06
 -10  -1   0   14.51    4.04
 -10   1   0   19.94    5.54
 -10  -1   0    9.93    4.69
  10  -1   0   15.89    5.14
 -10   1   0   13.10    4.44
  10  -1   0    9.44    4.74
 -10  -1   0   13.06    4.97
  10   1   0   23.08    5.08
 -10   2   0  556.58   17.47
 -10  -2   0  526.42   16.51
  10  -2   0  508.63   17.59
 -10   2   0  545.24   17.62
  10   2   0  526.14   15.06
 -10   2   0  538.01   16.83
 -10  -2   0  522.58   16.37
  10   2   0  544.76   15.12
  10  -2   0  503.48   17.48
  10   2   0  548.85   15.84
 -10   2   0  541.94   17.29
  10  -2   0  537.26   17.47
 -10   2   0  543.13   16.80
 -10   2   0  551.44   17.85
  10   2   0  534.39   14.45
  10   2   0  545.93   15.90
  10  -2   0  527.59   18.08
  10   2   0  533.03   13.83
 -10  -3   0   29.15    5.73
  10  -3   0   39.57    6.83
 -10   3   0   29.11    6.99
 -10   3   0   38.27    7.16
  10  -3   0   29.79    6.88
 -10   3   0   31.45    6.19
 -10   3   0   38.61    6.62
  10   3   0   23.86    4.10
  10  -3   0   30.15    6.95
  10   3   0   27.38    5.99
  10   3   0   35.30    5.18
 -10  -3   0   29.83    5.90
 -10   3   0   40.02    6.98
  10  -3   0   20.49    6.44
  10   3   0   35.25    5.68
 -10   3   0   30.27    6.01
 -10   4   0  355.30   17.85
  10  -4   0  336.40   16.78
 -10   4   0  346.95   15.36
 -10  -4   0  389.26   14.56
  10   4   0  334.85   16.83
 -10  -4   0  341.38   14.08
 -10   4   0  382.53   19.39
  10  -4   0  354.76   16.83
  10  -4   0  366.32   16.56
 -10   4   0  364.24   17.08
 -10   5   0   44.61    9.61
 -10   5   0   49.01    8.94
  10   5   0   52.53   10.48
  10  -5   0   63.01   10.70
 -10   5   0   55.16   12.32
 -10   5   0   62.39   11.51
  10  -5   0   62.25   10.08
 -10  -5   0   73.95    8.89
  10  -5   0   71.19   11.08
 -10  -5   0   75.65    8.57
 -10   6   0   37.68   12.84
  10  -6   0   52.23   11.10
  10  -6   0   52.68   10.80
  10   6   0   74.77   13.82
 -10   6   0   40.90   10.39
 -10   6   0   51.38   10.64
  10  -6   0   64.28   11.77
  10   0  -1 2356.52   51.87
  10   0  -1 2394.74   52.02
 -10   0  -1 2355.11   50.61
  10   0   1 2440.62   52.73
 -10   0  -1 2377.01   51.57
 -10   0  -1 2433.64   52.69
  10   0   1 2431.10   52.27
  10   0   1 2423.48   52.04
 -10   0  -1 2416.24   52.80
 -10   0   1 2510.68   52.53
 -10   0   1 2442.44   50.87
 -10   0   1 2446.94   52.33
  10   0  -1 2380.79   51.79
  10   0  -1 2389.50   51.55
  10   0   1 2445.21   52.56
  10   1  -1  145.81    8.68
  10  -1   1  157.71    9.58
  10  -1   1  160.91    9.92
  10   1  -1  149.10    8.29
  10  -1   1  141.75    9.85
 -10  -1  -1  152.80    9.78
 -10  -1  -1  146.92    6.80
 -10   1   1  171.07    9.93
  10  -1   1  142.79    9.82
 -10   1   1  171.69   10.30
 -10  -1  -1  142.35    9.83
 -10  -1  -1  137.11    8.72
  10   1  -1  149.83    8.04
  10   1  -1  153.22    8.03
 -10   1   1  143.08    8.61
  10   1   1  147.15    5.17
 -10   1  -1  158.18    9.20
  10   1   1  137.43    8.88
  10  -1  -1  152.31    9.75
 -10   1  -1  143.36    8.72
 -10  -1   1  152.27    8.61
  10  -1  -1  158.27    9.96
  10   1   1  145.67    8.83
 -10   1  -1  150.65    9.64
 -10   1  -1  137.24    6.40
  10  -1  -1  137.11    9.69
 -10   1  -1  152.71    9.44
 -10  -1   1  144.29    7.62
  10   1   1  151.66    9.41
  10  -1  -1  136.53    9.49
 -10  -1   1  149.46    8.54
  10   1   1  154.10    9.23
  10  -2   1 2616.04   58.09
 -10  -2  -1 2677.88   57.74
  10   2  -1 2700.51   53.44
 -10  -2  -1 2693.29   55.71
  10  -2   1 2656.30   57.66
 -10   2   1 2566.25   56.86
  10   2  -1 2696.39   57.04
  10   2  -1 2600.13   53.93
 -10   2   1 2540.10   57.94
  10   2  -1 2704.74   55.05
 -10   2   1 2613.95   58.07
  10  -2   1 2658.32   58.19
 -10   2   1 2542.75   54.92
 -10  -2  -1 2663.38   57.63
 -10   2   1 2550.07   58.15
  10  -2   1 2591.27   56.47
  10   2  -1 2640.06   51.82
  10   2   1 2576.86   54.61
 -10  -2   1 2630.25   54.95
 -10  -2   1 2567.67   54.98
  10  -2  -1 2667.33   58.68
 -10   2  -1 2713.32   56.86
 -10   2  -1 2704.76   56.59
  10   2   1 2621.70   55.89
  10   2   1 2646.45   55.55
  10   2   1 2556.18   56.20
  10   2   1 2585.15   56.01
  10  -2  -1 2624.91   58.04
  10  -2  -1 2661.13   58.90
 -10   2  -1 2709.40   56.98
  10  -2  -1 2711.19   58.24
 -10   2  -1 2655.85   56.32
 -10   2  -1 2746.59   60.09
 -10   2  -1 2668.06   58.01
  10  -3   1  220.44   12.78
  10  -3   1  224.15   12.65
 -10   3   1  258.08   13.93
 -10   3   1  250.17   13.02
 -10   3   1  222.95   12.51
 -10   3   1  220.12   12.35
  10   3  -1  235.72   12.72
 -10   3   1  251.73   12.54
 -10   3   1  222.50   12.17
 -10   3   1  266.68   13.61
 -10  -3  -1  232.95   12.30
  10  -3   1  233.58   12.74
  10  -3   1  235.58   14.92
 -10  -3  -1  247.79   12.77
  10  -3  -1  244.50   13.40
 -10   3  -1  213.59   10.59
  10   3   1  227.68    8.85
  10  -3  -1  222.78   13.64
 -10   3  -1  219.32   14.39
 -10   3  -1  214.07   11.66
  10   3   1  221.16   11.66
  10   3   1  233.23   11.69
  10   3   1  240.22   11.44
  10  -3  -1  240.88   12.63
 -10  -3   1  214.00    9.81
 -10   3  -1  239.50   12.79
  10   3   1  226.57    9.71
 -10  -3   1  223.32    9.88
 -10   3  -1  253.06   13.28
  10  -3  -1  221.01   13.67
 -10  -3   1  230.99    8.90
 -10   3  -1  219.95   10.08
  10   3   1  229.59   10.65
 -10  -3   1  196.85   11.94
 -10  -4  -1  980.16   28.26
 -10   4   1  940.57   27.62
  10  -4   1  944.86   28.86
  10  -4   1  935.14   28.37
 -10   4   1  938.94   29.71
  10   4  -1  964.06   30.31
  10  -4   1  952.34   28.02
 -10   4   1  993.56   28.54
 -10   4   1  926.22   30.94
 -10  -4  -1 1011.66   28.35
  10  -4  -1  956.75   30.09
 -10   4  -1  962.70   29.61
  10   4   1  958.35   26.66
 -10   4  -1  920.86   26.81
  10   4   1  961.61   29.14
  10  -4  -1  918.80   29.19
 -10   4  -1  957.40   30.79
  10  -4  -1  989.51   30.60
 -10  -4   1  957.45   23.65
 -10   4  -1  960.92   33.39
 -10  -4   1  962.42   23.93
 -10   5   1  141.62   13.74
  10  -5   1  145.97   13.93
  10   5  -1  126.42   14.36
 -10  -5  -1  167.22   13.53
  10  -5   1  141.99   13.85
 -10  -5  -1  170.26   13.00
 -10   5   1  154.70   13.35
 -10   5   1  119.15   14.86
  10  -5   1  127.91   12.57
 -10   5  -1  117.96   16.46
  10   5   1  143.79   11.37
  10  -5  -1  155.21   15.61
 -10   5  -1  148.65   12.07
 -10   5  -1  159.44   14.46
  10  -5  -1  117.61   13.76
 -10   5  -1  154.32   15.67
  10   5   1  132.22   14.19
 -10  -5   1  157.50   11.28
  10  -5  -1  129.83   13.64
  10  -6   1  268.88   18.18
 -10   6   1  240.04   17.90
  10   6  -1  274.76   20.71
 -10  -6  -1  246.83   17.21
  10  -6   1  250.30   17.41
 -10   6   1  236.96   22.20
  10  -6   1  235.28   15.65
 -10   6   1  254.13   17.30
 -10   6  -1  249.93   20.83
  10   6   1  248.22   19.47
 -10   6  -1  250.16   15.76
  10  -6  -1  231.82   18.20
 -10   6  -1  250.13   22.89
  10  -6  -1  238.58   18.80
  10  -6  -1  285.02   20.67
 -10   6  -1  247.51   17.57
 -10   0   2  734.31   21.64
  10   0   2  712.81   22.08
  10   0   2  703.24   22.01
 -10   0  -2  766.60   22.40
  10   0  -2  786.52   21.66
 -10   0  -2  727.16   22.14
  10   0   2  729.05   21.17
 -10   0  -2  718.42   20.51
 -10   0   2  715.52   20.99
  10   0  -2  759.09   21.65
  10   0  -2  755.54   21.02
  10   0   2  723.25   21.78
 -10   0   2  720.04   21.44
  10   0  -2  764.08   21.16
 -10   0  -2  742.42   21.27
 -10   0   2  734.63   19.93
 -10  -1  -2  241.02   11.70
 -10   1   2  230.38   10.82
 -10  -1  -2  230.40   12.63
  10   1  -2  225.49   10.72
  10  -1   2  232.45   11.76
 -10   1   2  230.21   12.62
  10   1  -2  235.02   10.32
  10  -1   2  225.11   12.25
  10   1  -2  228.95    9.80
 -10  -1  -2  219.70    9.69
  10  -1   2  220.58   11.87
 -10   1   2  226.93   12.37
  10   1  -2  241.82   10.08
  10  -1   2  238.01   11.13
 -10   1   2  222.33   11.71
 -10  -1  -2  216.70   12.11
  10   1  -2  244.09   10.17
  10  -1  -2  228.60   12.53
  10   1   2  218.61   12.21
  10   1   2  224.57   11.71
  10  -1  -2  220.67   12.12
 -10  -1   2  228.30    9.39
 -10   1  -2  225.01    8.59
 -10   1  -2  225.49   11.24
  10  -1  -2  221.22   12.09
 -10  -1   2  235.79   10.95
  10   1   2  242.39   11.74
 -10   1  -2  229.67   11.20
 -10   1  -2  229.07   11.47
  10  -1  -2  225.67   12.09
 -10   1  -2  228.71   11.60
  10   1   2  247.51   12.05
 -10  -1   2  230.47   10.73
  10  -2   2 1252.00   32.93
  10   2  -2 1299.05   29.81
  10   2  -2 1300.06   33.82
  10  -2   2 1282.23   30.80
  10   2  -2 1270.60   28.60
 -10   2   2 1237.97   33.80
 -10  -2  -2 1291.80   32.26
 -10   2   2 1228.65   32.18
 -10   2   2 1269.03   34.12
 -10  -2  -2 1220.06   33.67
  10   2  -2 1244.53   28.16
 -10  -2  -2 1298.13   34.08
  10  -2   2 1239.11   32.42
  10  -2   2 1224.22   32.77
  10  -2  -2 1275.99   34.54
  10  -2  -2 1291.61   33.90
  10   2   2 1305.61   32.81
 -10   2  -2 1290.06   31.28
  10  -2  -2 1281.70   34.59
 -10  -2   2 1285.86   29.89
  10  -2  -2 1283.44   33.82
  10   2   2 1254.88   29.27
 -10   2  -2 1237.54   35.92
 -10   2  -2 1257.78   31.42
  10   2   2 1268.42   32.54
 -10   2  -2 1266.87   31.57
 -10   2  -2 1300.70   31.30
 -10  -2   2 1271.54   29.76
 -10   2  -2 1291.88   33.32
  10   2   2 1277.55   32.23
  10   2   2 1282.75   32.82
 -10   3   2   22.65    7.56
  10  -3   2   21.54    6.46
  10   3  -2   18.79    7.44
  10  -3   2   32.85    7.36
 -10   3   2   22.98    7.11
 -10  -3  -2   28.11    7.75
 -10  -3  -2   25.81    7.29
  10  -3   2   16.30    6.63
 -10   3   2   27.30    7.73
 -10   3  -2   23.30    6.60
  10   3   2   23.64    5.82
  10   3   2   20.55    6.88
  10  -3  -2   18.24    7.73
  10  -3  -2   24.99    7.98
 -10   3  -2   19.17    8.23
 -10  -3   2   29.45    5.08
  10  -3  -2   22.66    6.76
  10   3   2   34.58    6.68
 -10  -3   2   24.93    4.70
 -10   3  -2   29.38    6.69
  10  -3  -2   12.38    7.09
 -10   3  -2   25.40    6.80
  10   3   2   23.72    5.95
  10   3   2   14.41    6.12
 -10   3  -2   28.42    5.48
  10   4  -2  115.12   14.59
  10   4  -2  119.00   13.04
 -10   4   2  123.20   12.67
  10  -4   2  101.25   10.44
 -10   4   2   99.41   11.78
 -10   4   2  109.89   12.85
  10  -4   2  118.77   12.20
 -10   4   2  119.11   12.37
  10  -4   2  119.08   11.76
 -10  -4  -2  138.32   13.17
 -10  -4  -2  139.48   14.01
 -10   4  -2  119.10   10.70
  10  -4  -2  118.94   13.48
  10  -4  -2  137.54   13.81
  10   4   2  122.39   11.73
 -10   4  -2   79.46   13.37
 -10   4  -2  122.59   12.86
 -10   4  -2  116.45   12.18
  10   4   2  116.41   11.67
  10  -4  -2  131.52   14.00
  10  -5   2   20.72    7.92
  10  -5   2   23.56    8.55
 -10   5   2   20.50    8.69
 -10   5   2   31.98   10.29
  10  -5   2   35.69    7.97
 -10  -5  -2   38.45    9.83
 -10  -5  -2   25.46    8.79
 -10   5   2   15.42    8.42
  10   5  -2   23.98    8.99
  10  -5  -2   27.45   10.01
 -10   5  -2   17.21    9.07
  10   5   2   16.73    7.95
 -10   5  -2   -2.23    9.68
  10   5   2   29.91    8.53
 -10   5  -2   25.44    7.30
  10  -5  -2   37.79   10.49
  10  -5  -2   33.54    9.73
 -10   5  -2   24.73    8.32
  10   6  -2   73.86   14.08
 -10  -6  -2   76.82   13.76
 -10   6   2   69.53   14.78
 -10   6   2   55.50   11.98
 -10  -6  -2   74.99   13.95
 -10   6   2   84.66   13.84
  10  -6   2   91.02   12.95
  10   6   2   68.98   13.55
 -10   6  -2   64.40   12.47
  10  -6  -2   58.74   14.13
  10   6   2   81.18   12.57
 -10   6  -2   85.36   17.99
  10  -6  -2   77.00   13.47
 -10   6  -2   64.13   13.20
  10  -6  -2   76.42   14.56
  10   0   3 2140.18   50.32
  10   0  -3 2139.19   48.57
  10   0  -3 2170.48   49.51
  10   0   3 2144.06   50.39
 -10   0  -3 2067.37   48.77
 -10   0   3 2112.05   47.14
  10   0   3 2103.65   48.64
 -10   0  -3 2071.52   49.90
  10   0   3 2087.63   49.55
 -10   0  -3 2146.96   48.61
  10   0  -3 2091.01   44.14
 -10   0   3 2093.18   49.37
 -10   0   3 2194.44   49.81
 -10   0  -3 2129.50   50.31
  10   0  -3 2057.26   48.68
 -10   0   3 2051.32   48.65
  10   0  -3 2098.68   48.46
 -10  -1  -3   27.03    7.44
  10   1  -3   18.27    6.03
  10   1  -3   29.02    5.60
  10  -1   3   17.39    6.54
  10   1  -3   24.39    5.07
 -10   1   3   36.28    7.74
  10   1  -3   26.42    5.40
  10  -1   3   25.70    6.97
  10   1  -3    9.93    4.55
 -10   1   3   23.90    6.49
 -10   1   3   18.81    6.50
 -10   1   3   22.03    7.03
  10  -1   3   18.31    6.85
  10  -1   3   28.36    6.18
 -10  -1  -3   15.51    6.18
 -10  -1  -3   31.32    7.71
 -10  -1   3   23.12    4.61
  10   1   3   25.62    7.11
 -10   1  -3   16.06    6.16
  10  -1  -3   27.64    7.17
 -10  -1   3   16.94    5.74
  10  -1  -3   18.18    6.63
  10  -1  -3   15.67    6.34
 -10   1  -3   25.11    6.34
 -10  -1   3   20.04    5.67
  10  -1  -3    4.12    5.55
  10   1   3   19.35    7.06
 -10   1  -3   18.27    5.81
 -10  -1   3   27.92    6.18
 -10   1  -3   24.04    6.46
  10   1   3   21.05    6.73
  10   1   3   31.07    7.33
 -10   2   3 1536.53   41.22
 -10   2   3 1569.68   41.42
  10  -2   3 1624.69   39.57
 -10  -2  -3 1528.95   41.76
 -10  -2  -3 1570.70   40.00
  10   2  -3 1545.14   35.35
  10   2  -3 1536.71   35.39
  10   2  -3 1552.65   36.71
  10   2  -3 1503.05   34.59
  10  -2   3 1557.29   39.96
 -10  -2  -3 1513.84   41.62
 -10   2   3 1615.13   41.42
  10   2  -3 1544.13   40.52
  10  -2   3 1581.09   39.97
  10  -2   3 1562.08   37.09
  10   2   3 1567.41   40.62
  10   2   3 1512.14   39.60
  10  -2  -3 1567.98   42.36
 -10   2  -3 1566.64   40.10
 -10  -2   3 1606.63   36.50
 -10   2  -3 1534.51   44.53
  10   2   3 1548.22   40.27
 -10   2  -3 1500.62   38.26
 -10   2  -3 1564.72   38.00
  10  -2  -3 1505.82   40.73
 -10  -2   3 1574.54   36.95
  10  -2  -3 1620.69   42.32
 -10  -2   3 1609.06   36.96
  10   2   3 1611.87   40.69
 -10   2  -3 1564.11   37.96
 -10   2  -3 1571.92   37.59
  10  -2  -3 1542.54   41.27
  10  -3   3   94.67   10.65
  10  -3   3  118.11   11.44
 -10  -3  -3  100.65   12.31
 -10  -3  -3  118.19   13.01
  10   3  -3  105.81   12.57
  10  -3   3  112.87   11.04
 -10   3   3  115.78   11.48
 -10   3   3  125.22   12.96
 -10   3   3  110.32   11.86
 -10   3   3   97.02   11.93
 -10  -3   3   92.13    7.90
  10  -3  -3   94.28   12.60
  10   3   3  112.20   11.92
 -10   3  -3   89.42   13.67
  10   3   3  109.22   11.16
  10  -3  -3   93.33   12.09
 -10  -3   3   97.32    8.15
 -10   3  -3   88.26   10.10
  10   3   3  118.59   12.04
 -10   3  -3   98.54    9.78
  10   3   3   91.06    9.45
  10   3   3  108.73   11.98
  10  -3  -3  134.85   13.62
  10  -3  -3   94.79   12.11
 -10   3  -3   90.67   10.82
 -10   4   3  632.28   25.96
 -10   4   3  686.83   25.74
  10   4  -3  708.11   29.83
  10  -4   3  659.98   24.22
  10  -4   3  667.96   22.90
  10  -4   3  688.24   24.58
 -10  -4  -3  688.31   27.43
 -10   4   3  639.32   27.64
 -10  -4  -3  695.66   27.71
  10  -4  -3  676.17   27.02
  10  -4  -3  748.12   29.29
  10   4   3  666.79   24.36
 -10   4  -3  722.71   26.88
 -10   4  -3  723.55   31.53
 -10   4  -3  693.62   22.79
  10   4   3  674.01   24.98
 -10  -4   3  653.84   18.77
  10  -4  -3  703.30   28.60
 -10   4  -3  706.74   26.00
 -10   5   3   67.74   13.13
 -10  -5  -3   86.10   14.13
 -10   5   3   62.66   11.69
  10  -5   3   65.50   10.82
  10  -5   3   48.99    9.84
  10  -5   3   53.43    9.17
 -10  -5  -3   77.21   13.44
  10   5  -3   55.07   13.04
 -10   5   3   60.08   11.19
 -10   5  -3   75.85   15.56
  10  -5  -3   52.98   12.81
  10  -5  -3   74.07   13.28
  10  -5  -3   79.52   13.41
 -10   5  -3   54.46    8.96
  10   5   3   53.11   10.70
  10   5   3   70.80   11.58
 -10   5  -3   78.84   12.26
 -10   5  -3   56.28   12.03
 -10  -6  -3  273.41   22.40
 -10  -6  -3  255.61   21.80
 -10   6   3  236.81   19.13
 -10   6   3  275.87   25.35
 -10   6   3  243.51   26.11
 -10   6  -3  273.19   24.70
  10  -6  -3  274.15   22.88
  10  -6  -3  251.00   22.31
 -10   6  -3  252.42   21.40
 -10   6  -3  295.68   27.02
  10   6   3  268.48   18.92
  10  -6  -3  255.23   20.89
  10   6   3  235.52   19.94
 -10   0   4 1269.96   35.35
  10   0  -4 1239.52   33.88
  10   0   4 1269.46   36.03
  10   0   4 1294.04   36.04
 -10   0   4 1167.48   31.59
 -10   0  -4 1129.45   33.05
  10   0   4 1221.04   33.62
  10   0  -4 1214.95   34.64
 -10   0   4 1223.39   34.13
  10   0  -4 1173.08   29.87
  10   0  -4 1201.16   33.29
 -10   0  -4 1203.28   34.59
 -10   0   4 1239.68   34.89
  10   0   4 1251.89   35.23
  10   0  -4 1247.05   33.96
 -10   0  -4 1206.78   35.04
 -10   0  -4 1214.45   35.40
 -10   1   4   28.24    8.17
  10   1  -4   18.98    5.50
 -10  -1  -4   19.57    8.23
  10   1  -4   15.20    6.86
  10  -1   4   21.02    7.48
  10  -1   4   19.39    7.72
 -10   1   4   19.44    7.42
  10  -1   4   22.17    7.88
  10   1  -4   17.64    5.55
 -10   1   4   17.05    6.49
 -10  -1  -4   21.01    8.43
 -10  -1  -4    9.29    6.73
  10   1  -4   24.03    6.13
  10   1  -4   20.02    6.15
 -10   1   4   18.84    7.74
  10  -1   4   14.98    6.07
 -10   1  -4   15.52    7.07
  10  -1  -4   24.89    7.85
 -10   1  -4   22.94    7.73
  10   1   4   18.97    7.94
  10   1   4   26.19    7.26
  10  -1  -4   10.71    7.22
 -10  -1   4   17.98    6.40
 -10  -1   4   26.16    7.52
 -10  -1   4   23.67    7.51
  10  -1  -4   18.38    7.63
 -10   1  -4   20.28    7.04
  10   1   4   28.95    8.61
 -10   1  -4   27.76    7.43
  10  -1  -4   19.35    7.73
  10   1   4   17.20    8.01
 -10   2   4  170.79   15.27
  10   2  -4  126.33   10.92
 -10  -2  -4  156.78   15.15
 -10   2   4  162.76   15.45
  10   2  -4  124.11   11.69
  10  -2   4  166.13   13.25
  10  -2   4  173.10   14.85
 -10  -2  -4  149.39   14.02
 -10   2   4  180.86   15.22
 -10  -2  -4  166.63   16.40
  10  -2   4  153.35   13.71
 -10   2   4  139.48   12.34
  10   2   4  157.34   14.01
 -10  -2   4  156.75   11.41
 -10   2  -4  156.99   17.20
 -10   2  -4  129.42   10.42
 -10   2  -4  140.41   12.06
 -10  -2   4  158.68   10.81
 -10  -2   4  163.95   11.44
  10  -2  -4  137.04   14.15
  10   2   4  164.95   14.10
 -10   2  -4  135.42   10.88
  10  -2  -4  144.63   15.22
 -10   2  -4  136.79   12.92
  10   2   4  169.99   14.92
  10  -2  -4  143.26   15.28
  10  -2  -4  151.89   14.49
  10   2   4  146.70   13.38
 -10   3   4    1.01    7.48
 -10   3   4    7.97    8.02
  10   3  -4   11.16    6.00
  10  -3   4   -0.56    6.54
  10   3  -4    6.03    7.59
 -10  -3  -4   12.23    8.74
 -10   3   4   10.06    8.12
  10  -3   4   12.22    7.32
 -10   3   4    1.54    6.83
  10  -3   4   23.16    8.05
 -10  -3  -4   11.74    8.71
  10   3   4   15.21    7.79
  10   3   4    7.91    7.55
 -10   3  -4   -3.42    6.29
  10  -3  -4    4.05    8.58
  10  -3  -4   20.05    8.99
 -10   3  -4   23.39    7.49
  10   3   4    9.56    7.50
 -10  -3   4    8.83    5.39
  10   3   4   16.02    8.22
 -10   3  -4   11.59    9.58
 -10  -3   4   15.92    6.13
  10  -3  -4    7.54    9.02
  10  -3  -4    6.30    7.53
  10  -4   4  188.28   13.72
 -10  -4  -4  192.28   19.10
 -10   4   4  199.77   18.93
 -10   4   4  210.04   18.52
 -10   4   4  198.75   18.71
  10   4  -4  175.55   18.69
 -10   4   4  194.74   18.43
  10  -4   4  196.37   15.18
  10  -4   4  169.00   14.48
 -10  -4  -4  175.46   18.96
 -10   4  -4  193.14   21.45
  10   4   4  209.14   14.75
  10   4   4  185.02   16.75
  10  -4  -4  192.74   18.76
  10  -4  -4  168.94   19.03
 -10  -4   4  175.25   10.70
 -10   4  -4  179.03   16.76
 -10   4  -4  189.60   15.79
 -10   4  -4  167.11   12.84
  10  -4  -4  227.21   21.50
  10  -5   4   31.61    9.45
 -10  -5  -4   12.77   11.92
 -10   5   4   19.59   10.52
 -10   5   4   35.57   11.99
 -10  -5  -4   35.05   13.15
  10  -5   4   22.05    8.08
 -10   5   4    7.62    9.50
  10   5  -4   21.93   11.69
  10  -5   4   15.92    9.01
 -10   5  -4   21.21   10.34
 -10   5  -4   31.28   10.81
  10   5   4    2.16    9.22
  10  -5  -4   28.00   12.44
 -10   5  -4   -1.79   11.39
  10   5   4   23.72    9.67
  10  -5  -4    8.63   11.15
  10  -5  -4   20.08   11.42
 -10   0   5 1222.98   36.43
  10   0  -5 1178.17   35.33
  10   0   5 1246.77   35.61
  10   0  -5 1169.40   35.05
  10   0   5 1268.90   38.41
  10   0   5 1301.00   38.15
 -10   0  -5 1160.05   36.67
 -10   0   5 1248.63   37.44
 -10   0   5 1287.39   37.63
 -10   0  -5 1242.91   37.77
  10   0   5 1240.15   38.05
  10   0  -5 1176.06   36.45
 -10   0  -5 1172.60   36.81
  10   0  -5 1163.15   35.27
  10   0  -5 1176.84   32.37
 -10   1   5   27.45    7.47
  10   1  -5   36.38    8.73
 -10  -1  -5   38.83    9.01
 -10   1   5   35.99    9.30
 -10  -1  -5   43.22   10.27
  10   1  -5   36.79    7.74
  10   1  -5   41.59    7.98
  10  -1   5   26.80    9.16
 -10  -1  -5   39.00   10.42
  10  -1   5   43.45   10.07
 -10   1   5   32.94   10.14
 -10   1   5   48.72   10.50
  10   1  -5   33.22    7.50
  10  -1   5   38.89    9.83
  10   1   5   38.85    9.35
  10   1   5   41.48    9.94
  10  -1  -5   40.78    9.75
  10  -1  -5   41.32   10.04
  10   1   5   43.05   10.87
 -10  -1   5   45.83    9.18
 -10   1  -5   28.69    8.11
 -10  -1   5   40.53    8.94
  10   1   5   39.69   10.75
  10  -1  -5   44.39   10.05
  10  -1  -5   38.79    7.57
  10  -1  -5   31.01    9.68
 -10   1  -5   36.56    9.27
 -10   1  -5   36.61    9.00
 -10  -1   5   36.68    8.77
  10  -2   5  629.96   25.65
  10  -2   5  579.32   24.79
 -10   2   5  610.63   27.36
 -10   2   5  626.48   27.56
  10   2  -5  599.86   23.04
  10   2  -5  640.37   24.90
 -10  -2  -5  597.99   27.36
 -10   2   5  544.78   25.61
 -10   2   5  615.87   24.61
 -10  -2  -5  588.59   25.78
 -10  -2  -5  570.11   26.54
  10  -2   5  629.19   24.94
 -10  -2   5  616.06   23.22
 -10   2  -5  615.03   23.95
 -10   2  -5  638.76   30.37
  10   2   5  616.98   26.86
  10   2   5  640.48   26.97
  10   2   5  597.42   24.78
  10   2   5  650.19   27.72
 -10  -2   5  576.49   22.02
 -10  -2   5  622.28   23.41
 -10   2  -5  592.14   25.44
  10  -2  -5  662.29   27.37
  10  -2  -5  595.34   26.05
  10  -2  -5  601.91   26.78
  10  -2  -5  621.18   27.83
 -10  -3  -5   84.69   14.17
 -10   3   5   65.17   12.43
  10  -3   5   47.80   10.85
  10  -3   5   44.29    9.80
 -10  -3  -5   91.56   14.25
  10   3  -5   57.52   11.68
  10  -3   5   43.90   10.60
 -10   3   5   61.81   12.23
  10   3  -5   54.25    9.54
 -10   3   5   49.71   11.55
 -10   3   5   66.81   11.18
  10   3   5   82.82   13.12
 -10   3  -5   50.84   13.81
  10   3   5   57.84   11.46
 -10   3  -5   38.31    9.10
  10  -3  -5   75.01   13.85
  10   3   5   64.08   11.69
 -10   3  -5   47.48   10.84
  10  -3  -5   73.51   14.10
 -10  -3   5   66.43    9.80
  10   3   5   74.12   13.36
  10  -3  -5   67.54   13.46
 -10  -3   5   51.69    8.63
 -10  -3   5   51.23    8.58
  10  -3  -5   66.32   13.13
 -10  -4  -5  423.38   26.19
 -10   4   5  391.73   24.10
 -10   4   5  394.67   23.23
 -10   4   5  319.82   27.83
  10  -4   5  370.08   21.12
 -10  -4  -5  402.14   26.52
  10  -4   5  403.69   19.81
  10   4  -5  445.79   26.09
  10  -4   5  383.52   21.39
 -10   4   5  358.29   23.55
  10  -4  -5  474.29   27.81
 -10   4  -5  415.38   28.67
 -10   4  -5  425.77   23.45
  10   4   5  357.65   20.53
 -10  -4   5  418.39   17.66
  10   4   5  403.21   23.02
 -10   4  -5  371.46   19.26
  10  -4  -5  455.19   27.02
  10  -4  -5  383.24   25.03
  10   5  -5   60.37   15.22
  10  -5   5   58.27   12.76
 -10  -5  -5   96.58   18.57
 -10  -5  -5   63.04   16.64
 -10   5   5  106.19   17.28
  10  -5  -5  119.18   19.88
  10  -5  -5  101.36   18.17
 -10   5  -5   84.52   18.91
  10   5   5   65.56   13.83
  10   5   5   69.40   13.16
 -10   5  -5   61.67   13.93
 -10   5  -5  101.73   12.98
  10  -5  -5  107.51   18.63
  10   0  -6  193.78   17.12
 -10   0  -6  184.02   17.51
  10   0  -6  210.39   17.93
  10   0   6  228.18   19.40
 -10   0  -6  202.38   17.21
  10   0  -6  207.04   15.58
 -10   0   6  203.56   17.68
  10   0  -6  201.05   15.77
 -10   0   6  201.80   17.34
 -10   0  -6  218.63   17.48
 -10   0   6  232.34   18.61
  10   0   6  230.27   20.24
  10   0   6  216.83   19.22
  10  -1   6   -5.05    7.72
  10  -1   6    2.28    9.12
 -10   1   6   -0.62    8.87
 -10  -1  -6   16.74    9.15
  10   1  -6    6.13    8.06
  10   1  -6    0.09    6.05
  10  -1   6    2.79    9.14
 -10  -1  -6   18.31   10.06
 -10   1   6    8.82    8.63
 -10   1   6   -2.25    8.33
 -10  -1  -6   13.98    9.53
 -10  -1   6    5.97    8.30
  10  -1  -6    5.59    9.08
  10  -1  -6    3.83    8.54
  10   1   6   15.45   10.21
  10  -1  -6    2.60    8.21
 -10   1  -6   -2.40    7.55
 -10  -1   6    4.29    7.85
  10   1   6   -1.34    8.95
 -10   1  -6    8.30    7.97
  10  -1  -6    1.10    8.42
  10   1   6    8.57    8.03
 -10  -1   6   -9.48    7.21
  10   1   6    4.65    9.40
 -10  -2  -6  188.54   19.97
 -10   2   6  220.15   21.45
  10  -2   6  167.36   17.26
  10   2  -6  178.77   17.38
 -10   2   6  183.06   20.12
  10  -2   6  200.95   19.58
 -10   2   6  183.78   17.26
 -10   2   6  199.93   19.95
 -10  -2  -6  205.10   20.73
 -10  -2  -6  215.76   21.76
  10   2  -6  196.95   18.14
  10  -2   6  212.75   19.46
 -10  -2   6  191.71   17.29
 -10   2  -6  196.24   18.71
 -10   2  -6  176.27   21.22
 -10  -2   6  176.79   16.64
  10  -2  -6  188.89   20.78
  10   2   6  152.11   18.69
  10   2   6  179.22   19.83
  10  -2  -6  213.71   20.90
  10   2   6  160.17   16.81
 -10  -2   6  193.33   15.23
  10  -2  -6  201.07   20.26
  10   2   6  197.65   20.23
  10  -2  -6  211.65   21.15
  10  -3   6    7.43    9.42
 -10   3   6   22.76   11.50
  10   3  -6   27.28    8.85
  10  -3   6   12.05    9.28
 -10  -3  -6   21.74   12.49
 -10   3   6   26.86   11.77
 -10   3   6   -8.51    9.78
  10   3  -6    5.69    8.46
 -10   3   6   26.69   10.55
 -10  -3  -6    0.31   10.35
  10  -3   6   24.60   10.46
  10  -3  -6   23.59   12.85
  10   3   6   25.57   11.60
 -10  -3   6   10.03    7.95
 -10   3  -6    7.46    8.84
  10   3   6   18.02   10.63
 -10  -3   6   30.29    9.34
  10  -3  -6    9.25   10.54
  10  -3  -6   27.44   12.95
  10   3   6   12.46   10.31
 -10   3  -6    1.48   11.16
 -10  -3   6   12.92    7.98
  10   3   6    8.16    9.89
 -10   4   6   69.69   14.68
 -10  -4  -6   47.51   16.45
 -10   4   6   50.08   14.43
 -10  -4  -6   80.85   17.38
  10  -4   6   53.66   11.74
  10   4  -6   49.18   14.56
 -10   4   6   60.72   15.26
  10  -4   6   68.86   13.54
  10  -4   6   62.31   13.26
  10  -4  -6   60.13   15.74
 -10   4  -6   59.98   12.32
  10   4   6   78.52   15.40
 -10  -4   6   64.06   11.09
  10  -4  -6   60.94   16.61
 -10   4  -6   59.04   16.56
  10  -4  -6   63.87   16.24
  10   0   7  441.07   26.29
 -10   0   7  404.58   26.15
  10   0  -7  434.67   25.68
  10   0   7  397.65   25.82
 -10   0   7  458.73   25.23
  10   0   7  429.07   26.64
 -10   0  -7  408.37   25.01
 -10   0  -7  410.75   24.58
 -10   0  -7  402.18   25.03
 -10   0   7  443.31   26.40
 -10   1   7   42.99   12.34
 -10  -1  -7   31.74   11.56
  10  -1   7   15.45   11.02
  10   1  -7    5.17    9.42
  10  -1   7   19.13   11.36
 -10   1   7   24.77   11.67
 -10   1   7   36.48   12.51
  10  -1   7   29.12   12.09
 -10  -1  -7   10.57   10.89
 -10  -1  -7   42.51   11.86
  10   1   7    9.79   11.72
 -10  -1   7   18.17    9.74
  10  -1  -7   13.17   10.03
  10   1   7   22.10   12.06
 -10  -1   7    3.29    9.83
  10  -1  -7    8.29    9.73
 -10   1  -7   25.43   12.72
  10  -1  -7   21.67   10.75
  10   1   7   29.07   11.69
  10  -1  -7   25.15   11.33
 -10  -1   7   19.95   10.76
 -10   1  -7   20.53    9.85
  10  -2   7  357.65   23.77
  10  -2   7  326.71   23.73
 -10   2   7  380.33   25.53
 -10  -2  -7  323.40   25.88
  10   2  -7  331.45   22.03
 -10   2   7  383.71   26.70
  10  -2   7  352.05   24.58
 -10   2   7  384.51   27.08
 -10  -2  -7  350.69   26.97
  10   2   7  391.34   26.16
  10   2   7  323.71   25.03
  10  -2  -7  325.07   24.88
  10   2   7  299.69   21.61
  10  -2  -7  310.68   23.99
  10   2   7  336.81   25.78
 -10  -2   7  374.59   23.18
 -10   2  -7  350.30   27.43
 -10  -2   7  371.20   22.98
  10  -2  -7  331.51   25.02
  10  -2  -7  423.36   27.17
 -10  -2   7  380.66   21.66
 -10   2  -7  344.92   22.44
 -10   3   7   48.34   16.08
 -10  -3  -7   36.44   14.59
 -10   3   7   39.63   14.54
 -10   3   7   52.72   14.68
 -10   3   7   31.13   13.66
  10  -3   7   36.22   11.64
  10  -3   7   34.08   13.45
 -10  -3  -7   33.26   14.04
  10  -3   7   30.42   12.39
  10   3  -7   13.72   10.14
  10   3  -7   49.43   12.83
  10  -3  -7   43.89   14.85
  10  -3  -7   51.65   15.34
 -10  -3   7   16.38    9.55
  10   3   7   44.00   14.82
  10  -3  -7   38.58   14.85
 -10  -3   7   36.61   11.15
 -10  -3   7   36.09   10.72
  10   3   7   35.60   13.92
 -10   3  -7   17.26   12.79
  10   3   7   37.17   12.54
  10   3   7   41.72   14.03
 -10   3  -7   29.14   11.31
 -10   0  -8  125.84   18.97
 -10   0   8  146.24   19.40
  10   0   8  125.26   20.31
 -10   0   8  157.01   20.64
  10   0  -8  154.21   20.80
  10   0   8  152.31   21.81
 -10   0   8  144.18   21.60
  10   0   8  134.68   20.62
  10  -1   8   14.26   12.69
 -10  -1  -8   37.85   16.18
 -10   1   8   12.34   12.66
 -10  -1  -8   21.10   13.27
  10  -1   8   10.15   12.33
  10  -1   8   15.35   13.26
 -10   1   8   18.97   13.66
 -10  -1  -8   10.28   11.66
 -10   1   8   20.45   12.80
  10   1  -8   28.57   13.25
 -10   1  -8    9.04   10.30
  10   1   8   11.93   12.51
 -10  -1   8    1.83   10.58
 -10  -1   8   22.11   11.62
 -10   1  -8   11.96   13.74
  10   1   8   14.55   12.75
  10  -1  -8   20.79   12.95
 -10  -1   8   14.65   12.49
  10   1   8    9.42   12.81
 -11   0   0    2.11    4.73
 -11   0   0    0.69    3.89
  11   0   0    3.24    4.40
  11   0   0    1.58    4.62
 -11   0   0    4.50    3.51
  11   0   0    4.19    4.47
 -11   0   0    3.55    4.66
  11   0   0    1.29    4.54
  11   1   0  295.06   11.49
 -11  -1   0  283.27   11.04
 -11   1   0  292.34   12.96
 -11   1   0  283.26   10.76
  11   1   0  286.05   11.40
  11   1   0  291.51   12.15
  11  -1   0  284.69   12.81
  11  -1   0  292.59   12.78
  11  -1   0  275.59   13.03
 -11   1   0  275.77   11.67
 -11  -1   0  275.07    9.29
 -11  -1   0  279.55   12.19
 -11   1   0  292.34   12.80
  11   1   0  277.64   11.28
  11  -1   0  303.37   12.91
 -11  -1   0  286.96   12.34
 -11   1   0  285.80   11.78
 -11   2   0    9.48    5.11
  11   2   0    7.71    3.67
  11   2   0   11.08    3.92
  11   2   0    9.41    3.77
  11  -2   0   16.03    5.62
 -11   2   0    9.10    4.63
  11  -2   0    6.61    5.11
  11   2   0    5.27    3.30
 -11   2   0    5.57    4.49
  11   2   0    4.03    3.73
 -11   2   0    8.55    4.94
 -11  -2   0    8.75    4.81
  11  -2   0    4.74    5.18
 -11   2   0    5.27    4.80
  11   2   0    6.45    4.65
 -11   2   0    9.54    4.68
 -11  -2   0    7.87    4.80
 -11  -2   0    5.41    4.01
  11  -2   0    2.36    4.69
 -11  -3   0  165.42    9.89
  11   3   0  170.93    7.84
  11   3   0  159.11    8.50
 -11   3   0  163.81   10.74
  11   3   0  168.32    9.47
 -11   3   0  135.80   11.26
  11  -3   0  171.80   12.11
 -11   3   0  172.06   11.52
  11   3   0  160.38   10.50
  11  -3   0  171.17   11.89
  11  -3   0  159.81   10.92
  11  -3   0  161.03   11.82
 -11  -3   0  167.06    9.93
 -11   3   0  160.52   11.79
 -11   3   0  158.89   10.37
 -11   3   0  157.87   10.58
  11  -4   0   52.23    8.96
 -11   4   0   36.97    7.37
 -11  -4   0   55.53    7.59
 -11   4   0   53.85   10.04
 -11  -4   0   71.82    8.30
  11   4   0   48.58    6.80
 -11   4   0   49.12    9.20
 -11   4   0   43.26    8.74
  11  -4   0   59.07    9.69
  11  -4   0   42.13    8.54
  11   4   0   40.81    8.00
  11  -5   0  134.99   14.30
 -11  -5   0  126.82   10.59
 -11   5   0  118.56   13.52
 -11   5   0  134.42   15.43
 -11  -5   0  134.36   11.39
 -11   5   0  137.51   12.81
  11  -5   0  131.62   13.95
  11  -5   0  115.01   12.88
 -11   5   0  130.82   15.90
  11   5   0  143.02   14.48
  11  -6   0   45.88   10.92
 -11   6   0   32.32   10.06
  11  -6   0   54.11   11.81
 -11   6   0   41.38   10.97
  11   6   0   35.90   11.03
 -11   6   0   46.12   13.60
  11  -6   0   30.50   10.83
  11   0  -1   -1.87    4.14
 -11   0   1   -0.15    4.35
  11   0   1    6.52    4.75
  11   0   1    5.35    4.90
 -11   0   1    1.31    4.40
 -11   0  -1   -3.07    3.86
  11   0   1    2.38    4.48
  11   0  -1   -4.53    4.21
 -11   0  -1    6.13    5.06
  11   0  -1   -1.93    4.31
  11   0  -1   -5.57    3.94
  11   0   1   -6.39    4.39
 -11   0  -1    5.28    5.13
 -11   0  -1   -2.92    3.46
 -11   0   1   -3.14    3.58
 -11   1   1 2943.37   63.71
 -11  -1  -1 2965.85   63.49
 -11  -1  -1 2927.10   59.44
  11   1  -1 3040.72   61.43
  11   1  -1 2920.85   60.71
  11   1  -1 2976.64   61.18
  11  -1   1 2903.43   63.45
 -11  -1  -1 2951.32   61.74
 -11  -1  -1 2979.42   63.35
  11  -1   1 2988.85   62.78
  11  -1   1 2965.44   63.18
 -11   1   1 2859.64   61.74
  11   1  -1 2928.46   61.54
 -11   1   1 2953.98   63.54
  11  -1   1 2908.81   63.28
  11  -1  -1 2885.01   63.14
 -11  -1   1 2883.52   61.57
 -11   1  -1 2898.95   58.59
 -11   1  -1 2899.26   62.19
  11   1   1 2945.06   62.33
 -11  -1   1 3018.06   60.44
  11  -1  -1 2999.15   63.67
 -11   1  -1 2919.54   63.12
  11   1   1 2877.11   62.28
  11   1   1 2916.54   62.41
  11   1   1 2871.56   62.24
  11  -1  -1 2976.85   63.13
  11  -1  -1 2966.18   63.29
 -11   1  -1 2973.35   63.06
  11   1   1 2802.28   56.71
 -11  -1   1 2933.86   61.84
 -11   1  -1 2964.73   62.64
  11  -2   1   23.15    6.40
  11  -2   1   20.83    6.24
 -11   2   1   11.82    4.02
  11   2  -1   26.68    5.55
  11  -2   1   26.17    6.64
 -11  -2  -1   17.86    5.98
 -11   2   1   16.37    5.77
 -11   2   1   12.80    5.84
 -11  -2  -1   17.41    4.85
  11  -2   1   17.50    5.62
  11   2  -1   23.96    4.11
 -11   2   1   20.19    5.72
 -11  -2  -1   22.58    5.96
  11   2  -1   16.74    3.35
  11   2  -1   21.08    4.46
 -11   2   1   16.32    5.53
  11  -2  -1   14.25    5.68
 -11   2  -1   13.55    4.54
 -11   2  -1   20.16    6.06
 -11   2  -1   16.77    5.84
  11   2   1   17.32    4.77
 -11   2  -1   13.89    5.27
  11  -2  -1   12.42    5.41
  11   2   1   20.36    5.62
  11   2   1   20.78    5.13
 -11  -2   1   20.38    4.98
 -11   2  -1   16.91    5.70
  11   2   1   13.97    3.61
 -11  -2   1   25.47    5.20
  11   2   1   17.81    4.95
  11  -2  -1   17.62    6.13
 -11   2  -1   13.62    5.45
  11  -2  -1    9.19    5.46
 -11   3   1 1287.22   34.62
  11   3  -1 1226.72   33.42
  11  -3   1 1288.95   33.59
 -11   3   1 1278.09   34.03
 -11   3   1 1248.12   33.38
 -11   3   1 1257.64   32.95
 -11   3   1 1257.61   33.16
  11  -3   1 1210.01   33.70
 -11  -3  -1 1208.73   32.76
 -11  -3  -1 1249.42   33.19
  11  -3   1 1292.70   33.97
 -11   3   1 1275.21   34.75
 -11   3   1 1317.16   33.74
 -11   3  -1 1279.36   32.51
 -11   3  -1 1275.09   36.48
 -11  -3   1 1247.27   30.09
  11   3   1 1292.93   29.85
 -11   3  -1 1269.93   33.83
  11   3   1 1327.53   32.12
  11  -3  -1 1226.05   34.76
 -11   3  -1 1239.64   31.40
  11   3   1 1316.44   31.01
  11  -3  -1 1256.06   34.69
  11  -3  -1 1241.40   34.05
 -11   3  -1 1256.84   34.18
  11  -3  -1 1281.10   33.73
  11   3   1 1276.73   32.11
 -11  -3   1 1275.33   30.22
 -11   3  -1 1244.20   30.69
  11   3   1 1268.73   28.70
  11  -4   1   95.64   11.15
 -11   4   1   92.79   10.70
 -11   4   1   87.81   11.15
  11  -4   1   85.49   10.47
 -11   4   1   88.45   10.03
 -11  -4  -1   87.88    9.95
  11  -4   1   86.07   10.86
 -11  -4  -1   86.29   10.21
 -11   4   1   94.35   10.78
 -11   4   1   84.83   11.33
  11   4  -1   82.79   10.52
 -11   4  -1   96.00   10.15
  11  -4  -1   91.89   11.50
 -11   4  -1   68.61   10.23
 -11  -4   1   87.53    7.83
 -11   4  -1   78.75   10.58
  11  -4  -1   72.98   10.97
  11   4   1   80.26    9.01
 -11   4  -1   84.31   12.82
 -11  -4   1  100.58    8.30
  11   4   1   86.84    9.90
  11  -4  -1   74.47   11.07
 -11  -5  -1  655.83   23.41
  11   5  -1  608.70   26.08
 -11   5   1  622.95   23.79
  11  -5   1  620.82   23.57
  11  -5   1  596.99   24.47
 -11  -5  -1  607.95   23.28
 -11   5   1  602.02   27.41
  11  -5   1  607.84   24.33
 -11   5   1  637.36   25.71
  11  -5  -1  617.02   26.00
  11   5   1  611.56   25.25
 -11   5  -1  657.58   27.53
  11  -5  -1  588.09   25.31
 -11   5  -1  598.50   24.89
  11   5   1  644.94   21.64
 -11  -5   1  627.03   19.02
 -11   5  -1  633.79   29.69
  11  -5  -1  604.26   24.89
 -11   5  -1  612.37   22.36
  11  -6   1  166.05   14.82
 -11   6   1  157.58   18.98
  11  -6   1  184.08   17.39
 -11  -6  -1  176.63   16.14
 -11   6   1  133.81   15.43
  11  -6   1  168.26   16.12
 -11   6   1  175.32   16.63
  11   6  -1  177.96   18.89
  11  -6  -1  165.53   18.34
 -11   6  -1  151.64   15.99
  11  -6  -1  175.64   18.30
 -11   6  -1  132.07   17.22
  11   6   1  161.73   17.70
 -11   6  -1  150.44   20.68
 -11   6  -1  139.45   14.14
  11  -6  -1  166.65   16.68
 -11   0  -2   -0.47    3.81
  11   0  -2   -2.98    3.88
 -11   0   2   -3.12    4.71
  11   0   2    0.07    5.02
 -11   0  -2   -2.45    4.30
  11   0   2    0.00    4.59
 -11   0  -2   -0.66    4.69
 -11   0  -2   -5.65    4.59
  11   0   2    5.63    5.22
  11   0   2    6.30    5.26
 -11   0   2    0.63    3.82
 -11   0   2   -4.39    4.72
  11   0  -2   -7.00    3.95
  11   0  -2   -3.17    4.11
  11   0  -2   -3.94    4.44
  11   1  -2 1008.44   25.92
  11   1  -2 1036.06   25.39
  11   1  -2 1005.77   24.88
 -11   1   2  975.82   27.90
  11  -1   2  966.71   27.58
 -11  -1  -2  987.23   28.26
  11   1  -2  991.52   25.04
  11   1  -2  997.10   24.65
  11  -1   2  975.48   26.16
 -11  -1  -2  986.99   26.49
 -11  -1  -2  971.41   27.84
  11  -1   2  972.35   27.60
 -11  -1  -2  981.43   24.75
 -11   1   2  997.22   27.99
  11  -1   2 1002.44   27.33
  11   1   2  921.24   20.78
  11  -1  -2 1008.22   27.48
  11  -1  -2  969.58   27.57
  11   1   2  968.25   27.30
 -11   1  -2  967.65   22.84
  11   1   2  944.77   26.67
 -11   1  -2  981.16   26.83
 -11  -1   2 1000.98   24.18
  11   1   2  934.36   26.46
 -11   1  -2 1015.92   27.05
  11  -1  -2 1008.53   27.97
 -11   1  -2 1003.85   26.76
 -11   1  -2 1007.43   26.61
 -11  -1   2  959.57   25.75
  11  -1  -2  981.18   27.58
  11   1   2  923.19   26.78
 -11  -1   2 1007.88   26.14
  11  -2   2   27.65    6.68
 -11   2   2   26.32    7.09
  11  -2   2   20.37    5.53
 -11   2   2   35.42    7.10
  11   2  -2   34.02    4.85
 -11   2   2   19.49    6.74
  11  -2   2   25.09    6.98
  11   2  -2   29.80    4.67
  11   2  -2   27.76    3.66
  11   2  -2   30.46    6.57
 -11  -2  -2   36.29    6.73
  11  -2   2   32.64    7.41
  11   2  -2   21.86    5.22
 -11  -2  -2   32.88    7.46
 -11  -2  -2   24.36    7.10
 -11   2  -2   22.39    6.04
 -11   2  -2   25.59    5.83
 -11  -2   2   28.76    5.53
 -11   2  -2   16.22    5.71
  11  -2  -2   21.20    7.06
  11   2   2   31.28    6.68
  11  -2  -2   24.54    7.32
  11   2   2   30.92    4.39
 -11  -2   2   27.33    5.40
 -11   2  -2   22.44    5.19
  11   2   2   32.51    6.92
  11   2   2   30.30    6.90
 -11   2  -2   25.74    5.97
  11   2   2   18.47    6.18
  11  -2  -2   34.12    7.13
 -11   2  -2   29.37    7.88
  11  -2  -2   32.98    7.34
  11   3  -2  149.43   12.95
 -11   3   2  160.09   13.85
  11  -3   2  152.86   12.68
 -11   3   2  133.65   11.94
 -11  -3  -2  138.52   12.72
 -11  -3  -2  128.12   12.71
 -11   3   2  124.19   11.49
  11  -3   2  131.98   11.54
  11  -3   2  134.21   11.57
 -11   3  -2  129.11   14.30
 -11   3  -2  143.29   12.39
  11   3   2  122.58    9.38
 -11  -3   2  132.55    8.45
  11   3   2  131.50    9.26
 -11   3  -2  115.30    8.84
 -11   3  -2  136.97   10.62
  11   3   2  138.04   10.68
  11   3   2  118.67   10.94
  11  -3  -2  146.79   12.28
 -11   3  -2  130.76   11.47
 -11  -3   2  129.25    8.41
  11  -3  -2  140.65   13.84
  11   3   2  144.79   10.41
  11  -3  -2  151.09   13.49
  11  -3  -2  140.85   13.60
 -11   4   2   75.49   10.73
  11  -4   2   50.20    9.30
  11   4  -2   56.78   11.24
  11   4  -2   40.27    9.27
 -11   4   2   60.82    9.98
  11  -4   2   73.21   10.50
 -11   4   2   63.20   10.27
  11  -4   2   46.77    8.56
 -11  -4  -2   59.68   10.14
 -11   4   2   65.99   11.01
 -11  -4  -2   70.17   10.87
  11  -4  -2   63.76   11.37
 -11   4  -2   55.14    9.53
 -11  -4   2   69.76    6.62
 -11   4  -2   46.75   11.67
 -11  -4   2   69.87    6.97
 -11   4  -2   65.45    8.84
  11   4   2   61.70    9.43
  11  -4  -2   62.65   10.59
  11   4   2   73.01    9.65
 -11   4  -2   46.54    9.34
  11  -4  -2   55.47   11.15
 -11  -5  -2  172.51   15.39
 -11   5   2  185.19   16.57
 -11  -5  -2  170.29   16.33
  11  -5   2  177.89   15.96
 -11   5   2  168.83   16.25
 -11   5   2  190.86   18.41
  11   5  -2  157.20   16.43
  11  -5   2  173.50   14.44
  11  -5   2  159.95   13.03
 -11   5  -2  166.14   12.86
  11  -5  -2  171.52   16.80
 -11   5  -2  167.30   15.34
 -11   5  -2  207.60   17.22
  11  -5  -2  156.29   17.19
  11   5   2  170.54   14.48
  11  -5  -2  179.09   17.91
  11   5   2  178.79   13.94
 -11   5  -2  196.39   21.16
  11   6  -2    8.72    9.06
 -11   6   2    2.06    9.02
 -11  -6  -2    5.50    9.18
 -11   6   2    2.95   10.55
 -11   6   2   15.40    9.66
  11  -6   2   18.92    9.33
 -11  -6  -2    8.05   10.47
  11  -6  -2   17.20   10.19
  11  -6  -2   10.81   10.38
  11   6   2   19.13    9.41
 -11   6  -2    7.58   11.68
 -11   6  -2   17.25    9.97
  11  -6  -2   12.91   11.07
  11   6   2   11.18    8.99
 -11   6  -2    8.31    9.50
  11   0   3   -7.22    4.63
 -11   0   3    0.39    5.00
  11   0   3   -1.12    5.38
 -11   0  -3   -0.74    5.54
  11   0  -3    8.52    5.18
  11   0   3   -1.84    5.49
  11   0  -3    1.44    5.34
  11   0   3    8.13    6.30
 -11   0  -3   -7.91    5.59
 -11   0  -3    1.55    4.84
  11   0  -3    0.17    4.87
 -11   0   3    5.58    5.39
 -11   0   3   15.32    6.37
 -11   0  -3    2.75    5.13
  11   0  -3    5.35    5.19
  11   0  -3   -1.86    2.60
 -11   0   3    5.57    4.65
 -11   1   3 1839.53   44.44
  11  -1   3 1895.00   46.08
  11  -1   3 1925.66   46.78
 -11  -1  -3 1844.73   43.69
 -11   1   3 1825.52   46.30
  11   1  -3 1892.80   43.26
  11   1  -3 1882.89   44.50
  11   1  -3 1903.18   43.42
  11  -1   3 1920.75   44.75
 -11  -1  -3 1901.53   46.04
 -11   1   3 1899.79   47.27
  11   1  -3 1876.95   42.60
 -11  -1  -3 1925.63   47.70
 -11   1   3 1867.91   47.05
  11  -1   3 1865.27   46.43
 -11  -1  -3 1859.25   47.16
  11   1  -3 1937.24   43.27
  11   1   3 1924.23   46.98
  11  -1  -3 1839.86   46.25
  11   1   3 1832.88   45.43
  11  -1  -3 1903.55   46.90
 -11  -1   3 1951.99   44.95
 -11   1  -3 1947.52   45.79
 -11   1  -3 1935.92   46.15
 -11  -1   3 1921.80   44.75
  11  -1  -3 1945.70   47.48
 -11   1  -3 1953.39   46.04
 -11  -1   3 1903.39   44.17
  11   1   3 1845.19   46.68
  11   1   3 1859.31   46.35
 -11   1  -3 1881.02   45.18
  11  -1  -3 1911.61   46.73
 -11  -1   3 1877.83   41.94
 -11  -2  -3   39.82    8.68
  11   2  -3   39.19    4.69
 -11  -2  -3   46.63    8.14
  11   2  -3   49.49    7.16
  11  -2   3   44.27    8.78
  11  -2   3   32.20    7.64
  11   2  -3   44.11    8.05
 -11   2   3   38.32    8.57
 -11  -2  -3   26.77    8.10
  11   2  -3   35.84    5.74
 -11   2   3   31.77    7.07
  11   2  -3   41.08    5.74
  11  -2   3   34.41    6.62
 -11   2   3   33.52    8.17
  11  -2   3   41.56    8.30
 -11   2   3   29.23    8.21
  11   2   3   34.92    7.61
 -11   2  -3   34.99    6.33
  11  -2  -3   51.00    9.54
  11   2   3   32.42    8.08
  11  -2  -3   36.85    8.77
 -11  -2   3   34.45    6.48
 -11   2  -3   34.80    9.46
 -11   2  -3   36.80    7.06
  11  -2  -3   30.77    8.73
 -11  -2   3   34.78    6.42
  11   2   3   37.55    8.23
  11   2   3   33.17    7.94
 -11   2  -3   39.18    7.40
  11  -2  -3   47.80    9.04
 -11   2  -3   44.43    8.09
 -11   2  -3   36.70    7.47
  11  -3   3 1097.26   31.28
 -11   3   3 1076.32   33.24
 -11   3   3 1119.42   34.11
 -11   3   3 1087.55   32.33
 -11  -3  -3 1101.41   34.60
 -11   3   3 1034.76   33.34
 -11  -3  -3 1050.66   33.79
  11  -3   3 1117.33   32.27
  11  -3   3 1086.87   32.12
  11   3  -3 1085.68   34.41
  11   3   3 1082.72   32.47
 -11   3  -3 1085.15   31.51
  11   3   3 1093.82   31.85
  11   3   3 1110.16   31.59
  11  -3  -3 1063.55   33.70
  11   3   3 1076.25   32.17
 -11   3  -3 1080.49   37.64
 -11  -3   3 1094.90   27.76
  11  -3  -3 1108.13   35.14
 -11  -3   3 1098.35   27.63
  11  -3  -3 1043.78   34.64
  11  -3  -3 1063.31   33.19
 -11   3  -3 1136.77   33.42
  11   3   3 1076.79   29.33
 -11   3  -3 1047.08   30.19
  11   4  -3   71.48   12.83
 -11  -4  -3   98.32   13.65
  11  -4   3   83.59   11.50
  11  -4   3   71.36   10.19
 -11  -4  -3   92.09   13.45
  11  -4   3   73.22   10.92
 -11   4   3  110.93   13.16
 -11   4   3   87.99   12.15
 -11   4   3   96.94   14.95
  11   4   3   62.10    9.41
  11   4   3   88.89   11.86
 -11  -4   3   71.58    7.41
 -11   4  -3   72.98    9.88
  11  -4  -3   57.37   11.90
  11  -4  -3   85.75   13.05
 -11   4  -3   62.53   10.76
 -11   4  -3   81.67   11.58
  11  -4  -3   79.34   12.37
 -11   4  -3   82.87   14.73
  11  -5   3  510.32   20.51
  11   5  -3  485.08   28.12
  11  -5   3  480.75   21.75
 -11   5   3  505.12   23.98
  11  -5   3  461.86   21.97
 -11   5   3  504.84   26.75
 -11  -5  -3  505.81   25.72
 -11   5   3  528.31   24.88
 -11  -5  -3  475.94   25.63
 -11   5  -3  457.94   19.71
  11   5   3  496.96   22.81
 -11   5  -3  558.61   30.86
 -11   5  -3  498.97   23.99
  11  -5  -3  479.44   25.18
  11   5   3  462.75   22.44
  11  -5  -3  481.39   25.94
  11  -5  -3  457.07   25.76
 -11   5  -3  476.88   24.45
 -11   6   3  125.00   18.78
 -11   6   3  104.34   15.34
 -11   6   3  121.28   15.83
 -11  -6  -3  123.09   17.72
 -11  -6  -3  115.00   17.33
  11  -6   3  122.14   14.78
 -11   6  -3  100.95   16.65
  11  -6  -3  113.69   17.46
  11   6   3   96.93   14.96
 -11   6  -3  101.24   20.05
  11   6   3  127.08   15.54
  11  -6  -3  149.81   20.30
 -11   6  -3   92.88   13.99
  11  -6  -3   93.68   15.94
 -11   0  -4    3.78    5.92
  11   0  -4   -0.62    3.45
 -11   0   4   11.65    7.00
  11   0   4    2.88    7.09
 -11   0   4   -0.93    4.61
  11   0  -4   -1.82    6.19
 -11   0   4    0.24    6.50
  11   0  -4    0.98    5.33
 -11   0   4    3.25    6.25
 -11   0  -4    6.56    6.96
  11   0  -4    2.23    5.92
  11   0   4   -0.90    6.43
 -11   0  -4   -8.89    5.42
  11   0   4    1.68    6.44
 -11   0  -4    0.76    6.36
  11   0   4   -0.71    6.31
  11   0  -4    2.69    5.44
  11  -1   4  200.62   15.01
 -11   1   4  230.39   15.77
  11  -1   4  235.81   13.14
  11  -1   4  220.73   15.01
  11  -1   4  229.83   15.52
  11   1  -4  212.71   12.36
 -11  -1  -4  214.71   14.91
  11   1  -4  217.43   12.28
 -11   1   4  210.44   13.19
 -11  -1  -4  210.98   15.83
  11   1  -4  214.61   13.67
  11   1  -4  204.02   11.46
  11   1  -4  217.88   11.90
 -11   1   4  237.21   15.43
 -11   1   4  213.99   15.77
 -11  -1  -4  182.74   14.93
 -11  -1   4  199.14   13.56
 -11   1  -4  208.44   14.12
  11   1   4  223.33   15.49
  11  -1  -4  181.41   14.09
 -11   1  -4  207.01   13.64
 -11   1  -4  229.56   13.98
 -11  -1   4  229.33   14.03
  11   1   4  219.56   15.50
  11   1   4  217.90   15.77
  11  -1  -4  214.55   14.98
  11   1   4  227.80   14.24
  11  -1  -4  200.14   14.62
 -11  -1   4  221.97   13.40
 -11   1  -4  231.63   14.56
  11  -1  -4  210.72    8.89
  11  -1  -4  207.12   15.01
 -11   2   4   71.80   11.84
 -11   2   4   78.52   11.37
 -11   2   4   76.12   12.04
 -11  -2  -4   78.43   12.21
  11   2  -4   67.75    9.10
 -11  -2  -4   75.32   12.03
  11   2  -4   68.61   10.14
 -11   2   4   82.17   11.32
  11  -2   4   66.98   11.02
  11  -2   4   82.17   10.83
  11  -2   4   72.99   10.94
 -11  -2  -4   71.86   11.18
 -11  -2   4   79.57    9.19
  11  -2  -4   57.62   11.49
 -11  -2   4   72.53    9.27
  11   2   4   52.55   10.47
 -11   2  -4   74.82    9.47
  11   2   4   51.83    9.73
  11  -2  -4   62.46   10.43
  11  -2  -4   83.51   12.27
 -11  -2   4   79.90    9.60
 -11   2  -4   74.16   10.41
  11   2   4   89.97   11.89
 -11   2  -4   59.67    9.84
  11   2   4   59.13   10.68
 -11   2  -4   66.05    8.86
  11  -2  -4   64.25   10.98
 -11   2  -4   80.97   13.71
  11   3  -4  257.90   17.72
 -11  -3  -4  239.08   18.42
 -11  -3  -4  236.54   18.45
  11   3  -4  262.25   13.46
  11  -3   4  271.77   15.72
 -11   3   4  278.06   18.15
 -11   3   4  264.31   18.29
  11  -3   4  280.71   16.90
 -11   3   4  267.46   16.79
 -11   3   4  266.15   17.96
  11  -3   4  272.16   16.99
 -11   3  -4  261.22   15.22
  11  -3  -4  250.12   19.35
  11  -3  -4  264.76   19.88
 -11  -3   4  268.17   13.32
 -11  -3   4  294.33   14.02
  11   3   4  290.23   17.01
 -11   3  -4  276.70   17.09
  11   3   4  260.78   16.78
 -11   3  -4  291.44   21.52
  11   3   4  259.69   13.68
  11  -3  -4  254.83   18.26
  11  -3  -4  252.01   17.43
  11   3   4  263.15   17.50
  11   3   4  319.25   18.28
  11  -4   4   18.10    8.82
  11  -4   4    2.93    8.02
 -11   4   4   14.51    8.83
  11  -4   4   11.40    7.27
 -11  -4  -4   24.61   10.30
 -11   4   4   10.67    9.57
  11   4  -4   11.84    8.99
 -11  -4  -4   23.27   10.80
 -11   4   4   15.18    8.72
 -11   4   4   20.47    9.78
  11  -4  -4    7.66    9.77
  11   4   4   14.15    8.89
 -11   4  -4    8.54    7.11
 -11   4  -4   11.18    8.15
 -11   4  -4   -5.22    9.73
  11   4   4   16.56    7.15
 -11   4  -4   15.72    8.85
 -11  -4   4   10.44    5.80
  11  -4  -4   18.33   10.89
  11  -4  -4   12.75    9.90
 -11  -5  -4   32.81   12.78
 -11   5   4   25.83   12.06
 -11   5   4   24.09   10.77
 -11   5   4   10.21    9.52
 -11  -5  -4   40.90   13.72
  11  -5   4   46.97   10.71
  11  -5   4   29.93    8.87
  11   5  -4   22.26   11.84
  11  -5   4   42.35   10.92
  11  -5  -4   12.97   11.38
  11  -5  -4   25.85   11.58
 -11   5  -4   25.64    8.61
  11   5   4   26.52   11.29
 -11   5  -4   46.57   15.03
  11   5   4   39.44   10.31
 -11   5  -4   36.83   11.09
  11  -5  -4   36.74   12.99
 -11   5  -4   28.88   11.46
  11   0  -5    5.10    6.18
  11   0   5   -0.28    7.34
  11   0   5    2.05    6.32
 -11   0   5    3.04    7.17
  11   0   5    5.88    8.29
 -11   0  -5    0.64    7.56
  11   0  -5    4.98    4.92
  11   0  -5   -0.61    6.30
 -11   0  -5   11.91    7.84
 -11   0   5   -7.91    6.42
 -11   0  -5   17.24    8.14
  11   0  -5   -0.76    5.89
 -11   0   5    3.49    6.86
  11   0   5   15.50    8.37
  11   0  -5    3.19    7.40
 -11   1   5  864.71   31.08
  11   1  -5  892.23   29.90
  11   1  -5  876.09   27.43
  11  -1   5  858.68   31.10
 -11   1   5  870.37   28.70
 -11   1   5  897.17   32.09
  11  -1   5  849.79   30.59
 -11  -1  -5  899.51   31.46
 -11   1   5  844.68   31.48
  11   1  -5  873.19   27.23
  11   1  -5  924.61   28.04
 -11  -1  -5  873.53   32.40
  11  -1   5  827.13   30.94
 -11  -1  -5  897.00   31.95
 -11   1  -5  897.62   30.21
  11  -1  -5  867.94   31.13
  11   1   5  870.24   31.92
  11   1   5  857.41   31.95
  11  -1  -5  896.53   31.60
 -11   1  -5  922.57   29.91
 -11  -1   5  923.83   30.20
  11  -1  -5  923.19   31.37
 -11   1  -5  919.09   30.21
 -11  -1   5  863.85   29.63
 -11  -1   5  892.89   29.20
 -11   1  -5  892.72   30.31
  11  -1  -5  860.47   30.70
  11   1   5  891.79   32.12
  11   1   5  896.81   30.23
  11  -2   5   29.42    9.71
 -11  -2  -5   34.96   10.11
 -11   2   5   32.11    9.96
 -11   2   5   31.96   10.11
 -11  -2  -5   32.20    9.32
 -11   2   5   31.94   10.08
  11   2  -5   13.04    7.74
  11  -2   5   23.27    9.33
  11  -2   5   19.81    8.79
 -11   2   5   40.88    9.38
  11   2  -5   29.30    8.33
 -11  -2  -5   20.98    9.86
  11  -2  -5   27.46    9.22
 -11  -2   5    9.83    7.34
  11   2   5   30.77   10.25
  11   2   5   30.50   10.05
  11  -2  -5   21.37    9.48
  11   2   5   46.20   11.02
 -11   2  -5   13.09    7.87
 -11   2  -5   27.66    8.95
  11  -2  -5   19.45    9.29
  11  -2  -5   42.94   11.08
 -11   2  -5   28.52   10.77
 -11  -2   5   24.30    8.08
 -11  -2   5   20.60    7.70
  11   2   5   21.36    8.81
 -11  -3  -5  600.25   29.67
 -11   3   5  642.53   28.91
 -11   3   5  638.59   27.10
  11  -3   5  648.70   26.97
  11  -3   5  594.69   26.13
 -11   3   5  639.63   28.97
  11   3  -5  628.16   27.67
  11   3  -5  626.87   22.78
  11  -3   5  683.83   26.04
 -11   3   5  635.70   29.33
 -11  -3  -5  627.84   29.37
  11  -3  -5  642.44   29.86
  11   3   5  670.69   28.11
  11  -3  -5  653.93   29.09
 -11  -3   5  661.09   23.30
  11   3   5  651.11   28.58
  11  -3  -5  627.61   28.08
 -11  -3   5  670.58   23.58
  11   3   5  613.03   27.27
 -11   3  -5  616.17   32.66
  11  -3  -5  618.14   29.95
 -11   3  -5  601.02   26.86
 -11  -3   5  640.79   22.14
  11   3   5  648.26   27.48
 -11   3  -5  617.35   25.09
 -11   4   5   80.86   21.09
  11  -4   5   54.80   11.31
 -11  -4  -5  108.76   17.46
  11   4  -5   90.17   15.42
 -11  -4  -5  119.33   17.40
  11  -4   5   74.52   13.16
 -11   4   5   94.29   14.39
 -11   4   5   85.51   14.58
  11  -4   5   51.35   11.46
 -11   4   5   85.20   15.17
  11   4   5   96.68   12.51
  11  -4  -5   95.49   17.11
  11  -4  -5   74.59   15.50
 -11  -4   5   69.32    9.68
 -11   4  -5   69.10   11.56
 -11   4  -5   65.58   16.81
  11  -4  -5   87.47   15.25
  11   4   5   94.89   14.62
 -11   4  -5   75.68   13.42
 -11  -5  -5  290.12   28.68
  11   5  -5  280.10   27.24
  11  -5   5  310.29   29.43
 -11   5   5  249.41   21.81
  11  -5   5  254.81   19.73
 -11  -5  -5  278.29   28.09
  11  -5   5  259.26   21.09
  11   5   5  235.57   20.64
  11  -5  -5  271.60   25.58
 -11   5  -5  262.17   28.91
  11  -5  -5  325.33   26.91
 -11   5  -5  244.11   20.69
  11  -5  -5  259.84   26.34
 -11   5  -5  258.63   17.43
  11   0   6  -10.47    8.60
  11   0  -6    3.10    7.81
 -11   0   6   -1.65    7.77
  11   0  -6    9.29    7.82
 -11   0   6    9.13    8.80
 -11   0  -6    4.18    7.74
 -11   0  -6    7.27    8.43
  11   0  -6   -1.48    6.65
  11   0   6    0.32    8.45
  11   0   6    1.18    9.10
 -11   0  -6   -9.63    7.78
  11   0  -6  -11.71    7.35
 -11   0   6   -8.80    8.04
 -11  -1  -6  114.32   16.12
 -11  -1  -6  117.01   16.65
  11  -1   6  124.93   15.52
 -11   1   6  109.84   14.87
  11  -1   6   96.63   14.48
  11  -1   6   94.54   14.89
  11   1  -6   78.85   14.53
 -11   1   6   98.00   15.56
 -11  -1  -6   87.81   13.95
  11   1  -6  130.67   16.14
 -11   1   6  110.31   15.65
  11   1   6  113.39   15.98
  11  -1  -6  142.05   18.31
  11  -1  -6  154.27   16.94
  11   1   6  122.15   15.89
  11  -1  -6  136.03   16.61
 -11  -1   6  126.12   14.59
  11   1   6   84.63   14.45
 -11  -1   6  109.69   15.01
  11  -1  -6  147.26   17.22
 -11   1  -6   87.49   12.85
 -11  -1   6  123.09   14.90
  11   1   6  115.16   16.92
 -11   1  -6  100.88   13.88
 -11  -2  -6    5.92   10.28
  11  -2   6   -0.63    9.61
 -11  -2  -6    6.12   10.20
  11  -2   6   20.63   10.31
  11   2  -6   17.27    8.52
 -11   2   6   27.25   10.34
  11  -2   6   20.88    9.65
 -11   2   6   -3.11    9.73
  11   2  -6    4.27    7.98
 -11  -2  -6   14.96    9.67
 -11   2   6    3.57   10.39
 -11   2   6    5.83    9.67
  11   2   6   20.49   10.78
  11  -2  -6    3.75    9.62
  11   2   6    6.10    8.23
 -11  -2   6   10.32    7.80
 -11  -2   6    2.78    8.27
  11  -2  -6    6.81    9.39
 -11  -2   6   -2.55    8.02
  11  -2  -6    4.06    9.25
  11   2   6   29.42   11.58
 -11   2  -6    4.75   10.25
 -11   2  -6   -4.51    8.07
  11  -2  -6   12.58   10.34
  11   2   6   -4.48    9.29
 -11   3   6  119.37   17.91
 -11  -3  -6  137.33   19.57
  11  -3   6   97.85   14.15
 -11   3   6  112.55   17.59
  11   3  -6   88.98   14.34
  11  -3   6   88.35   14.53
 -11   3   6  101.64   16.33
  11  -3   6   96.57   15.16
 -11  -3  -6   93.06   16.86
 -11   3   6   99.37   14.78
  11   3  -6   96.59   13.24
  11  -3  -6  113.65   18.02
  11   3   6  127.33   17.80
 -11  -3   6   92.55   12.82
 -11  -3   6   96.51   12.12
  11  -3  -6  101.54   17.72
 -11   3  -6   64.89   12.29
 -11  -3   6  132.56   14.60
  11   3   6  115.74   17.68
  11   3   6   93.81   14.94
  11  -3  -6   78.61   15.38
 -11   3  -6   67.16   16.43
  11   3   6  119.59   17.10
  11  -4   6   -2.32    9.52
 -11   4   6   22.03   11.32
  11  -4   6   33.00   10.83
 -11   4   6   35.10   12.91
 -11   4   6   20.41   12.40
  11   4  -6    2.65    9.89
  11  -4   6   -5.61    9.42
 -11  -4  -6   19.26   14.30
 -11  -4  -6    1.37   13.23
  11  -4  -6    9.40   13.08
 -11  -4   6   11.41    8.53
  11  -4  -6   32.96   14.62
 -11   4  -6    6.55    9.36
  11  -4  -6   40.41   14.20
 -11   4  -6   16.67   12.60
  11   4   6    3.18    9.94
  11   0   7    5.59   11.54
 -11   0   7   24.88   10.20
  11   0  -7    8.36   10.19
 -11   0  -7    4.81    8.81
 -11   0  -7   23.14   10.00
  11   0   7   -3.28   10.07
 -11   0  -7    4.81    9.71
 -11   0   7   16.02   10.83
 -11   0   7   22.48   11.71
  11   0   7    0.25   10.23
 -11   1   7  476.85   28.16
 -11  -1  -7  432.79   26.88
 -11  -1  -7  487.71   28.29
 -11  -1  -7  482.86   26.96
  11  -1   7  469.25   27.67
  11  -1   7  482.89   27.30
 -11   1   7  477.54   27.12
  11   1  -7  489.34   26.39
 -11   1   7  494.56   28.08
  11  -1   7  457.66   27.95
 -11  -1   7  482.85   26.58
  11   1   7  472.04   28.45
 -11  -1   7  472.16   24.97
  11  -1  -7  410.49   25.48
 -11   1  -7  424.82   30.06
 -11  -1   7  488.66   26.87
  11  -1  -7  459.95   27.22
 -11   1  -7  510.41   26.98
  11  -1  -7  473.79   26.47
  11   1   7  471.28   28.96
  11  -1  -7  480.64   26.54
  11   1   7  468.32   28.25
 -11  -2  -7   25.02   12.66
  11   2  -7   11.41   10.25
  11  -2   7   13.26   11.42
 -11   2   7   34.98   13.27
  11  -2   7   34.69   13.05
 -11  -2  -7   39.47   14.11
  11  -2   7   29.63   11.71
 -11   2   7   38.97   13.92
 -11   2   7   17.00   11.96
 -11  -2   7   23.77   10.64
  11   2   7   26.80   13.09
  11  -2  -7   17.89   11.91
  11   2   7   34.55   12.66
 -11  -2   7   32.24   11.12
 -11  -2   7   12.31    9.65
  11   2   7   31.32   13.38
  11  -2  -7   51.68   13.70
  11  -2  -7   26.23   12.35
 -11   2  -7    4.07   11.05
 -11   2  -7   18.32   10.16
  11   2   7   23.72   10.92
  11  -2  -7   29.85   12.96
 -11  -3  -7  320.08   26.89
  11  -3   7  297.79   24.38
 -11   3   7  333.79   26.99
 -11   3   7  312.78   28.74
  11   3  -7  346.46   21.54
 -11   3   7  298.13   25.77
 -11  -3  -7  331.37   27.14
  11  -3   7  328.75   24.10
  11  -3   7  333.53   23.27
  11   3   7  303.76   25.26
  11   3   7  329.82   25.82
 -11   3  -7  313.22   28.59
  11  -3  -7  387.24   28.92
 -11  -3   7  340.18   21.85
  11   3   7  311.14   23.43
 -11  -3   7  328.48   20.53
  11  -3  -7  325.02   26.36
  11  -3  -7  333.78   27.38
  11   3   7  311.02   25.31
 -11  -3   7  340.95   21.64
 -11   3  -7  336.34   22.57
 -11   0  -8   17.00   11.83
  11   0   8   -2.03   12.27
  11   0  -8    1.76   10.89
  11   0   8   -3.68   11.64
 -11   0   8    0.31   10.72
  11   0   8   -5.83   11.93
 -11   0   8   -2.60   11.82
 -11   0   8   -3.12   12.01
 -12   0   0  531.17   17.72
  12   0   0  501.06   16.94
  12   0   0  520.44   17.34
 -12   0   0  501.92   16.11
  12   0   0  496.46   17.03
  12   0   0  500.45   17.42
 -12   0   0  484.94   17.28
 -12   0   0  523.38   15.57
 -12   1   0    6.71    5.43
 -12   1   0   -8.26    4.54
  12   1   0    3.67    4.67
 -12   1   0   -4.01    3.91
  12   1   0    6.07    4.71
  12   1   0    7.79    4.60
 -12  -1   0    1.26    3.16
 -12  -1   0    5.54    4.99
 -12   1   0    3.45    4.58
  12  -1   0    4.55    5.30
 -12   1   0    2.64    3.85
  12   1   0    1.73    4.29
 -12  -1   0   -2.41    4.65
  12  -1   0    4.46    5.13
  12  -1   0   -2.06    5.38
  12  -1   0    3.79    5.22
 -12  -1   0   -3.97    3.84
  12  -2   0  150.94   11.31
 -12   2   0  156.35   10.99
 -12  -2   0  161.39    8.27
 -12   2   0  165.73   10.18
  12   2   0  148.61    7.97
  12   2   0  182.58    9.02
  12   2   0  169.12    7.96
 -12  -2   0  151.16    9.83
 -12   2   0  162.75   10.59
  12  -2   0  150.76   11.02
 -12  -2   0  153.95    9.99
  12   2   0  145.85    9.60
  12  -2   0  156.24   10.96
  12  -2   0  164.00   10.98
 -12   2   0  167.89   10.83
 -12   2   0  159.22    9.32
  12   2   0  151.54    8.14
 -12   2   0  154.83    9.57
 -12  -3   0    0.84    4.89
 -12   3   0    6.31    5.31
  12   3   0    7.60    4.94
  12   3   0   -2.81    4.11
 -12   3   0   -0.18    5.19
 -12   3   0   16.08    6.38
  12  -3   0    6.46    6.23
 -12  -3   0    3.18    4.95
  12   3   0   -3.05    3.69
 -12   3   0    1.91    5.48
  12  -3   0    0.63    5.31
  12  -3   0   11.65    6.67
 -12   3   0    0.75    5.30
  12   3   0    3.90    3.87
  12  -3   0   -1.53    5.70
 -12   3   0   -2.35    4.92
 -12  -4   0  152.05   10.97
 -12   4   0  146.91   11.65
 -12  -4   0  153.15   10.95
  12  -4   0  155.89   14.04
  12   4   0  154.51   12.28
 -12   4   0  149.00   12.90
  12  -4   0  162.90   14.65
 -12   4   0  157.29   13.93
 -12   4   0  153.52   14.85
  12  -4   0  161.38   13.73
  12  -5   0    9.53    8.51
 -12   5   0    8.83    8.58
 -12  -5   0   21.11    6.49
  12  -5   0    3.23    7.37
  12   5   0   12.69    7.92
 -12   5   0   21.65    8.33
 -12   5   0   17.99    9.81
  12  -5   0   13.79    8.78
 -12  -5   0   13.79    6.80
 -12   5   0   20.33    8.57
  12  -6   0   45.66   11.80
  12  -6   0   31.45   10.81
 -12   6   0   36.75   13.02
  12  -6   0   45.22   11.68
 -12   6   0   47.29   11.40
 -12   6   0   44.73   11.19
  12   6   0   48.54   11.80
 -12   0   1 1919.53   43.62
 -12   0  -1 1888.80   44.06
 -12   0   1 1945.80   42.19
 -12   0  -1 1887.83   41.78
  12   0  -1 1789.57   42.86
  12   0  -1 1832.14   43.33
 -12   0  -1 1831.31   42.52
  12   0   1 1897.59   43.98
 -12   0   1 1891.98   43.61
  12   0  -1 1811.91   42.67
  12   0   1 1943.26   43.50
 -12   0  -1 1867.74   44.01
  12   0  -1 1861.28   43.10
  12   0   1 1936.99   43.62
  12   0   1 1884.79   43.71
 -12  -1  -1  129.49    9.90
  12   1  -1  126.00    8.98
  12   1  -1  145.01    8.51
 -12  -1  -1  130.96    7.09
  12  -1   1  126.55    9.93
 -12  -1  -1  121.64    9.89
 -12  -1  -1  135.45    9.22
  12  -1   1  137.46   10.55
 -12   1   1  140.50    9.30
  12   1  -1  122.35    8.56
 -12   1   1  121.60    8.85
  12  -1   1  137.85    9.92
 -12   1   1  138.79   10.33
  12   1  -1  134.05    8.79
  12  -1   1  138.87   10.34
 -12   1   1  127.42   10.27
  12   1   1  126.75    9.55
  12  -1  -1  124.78    9.77
  12   1   1  131.89    9.64
 -12   1  -1  128.17    9.30
  12  -1  -1  117.42    9.68
  12  -1  -1  127.74   10.25
  12   1   1  127.88    9.32
 -12  -1   1  122.83    8.01
 -12   1  -1  137.81    6.37
 -12   1  -1  126.50   10.30
  12  -1  -1  129.44    9.99
 -12  -1   1  109.94    8.99
 -12  -1   1  147.50    9.45
 -12   1  -1  131.03    9.11
 -12   1  -1  129.86   10.23
  12   1   1  126.43    9.61
 -12  -2  -1 2060.77   43.34
  12  -2   1 2151.20   50.41
  12   2  -1 2136.83   45.70
  12   2  -1 2161.94   43.44
  12  -2   1 2224.58   50.01
 -12   2   1 2130.55   50.15
  12  -2   1 2181.39   48.83
 -12   2   1 2140.28   49.89
 -12   2   1 2117.64   45.63
 -12  -2  -1 2172.23   47.45
 -12   2   1 2168.61   48.84
 -12  -2  -1 2160.40   49.79
  12   2  -1 2119.57   44.38
  12  -2   1 2183.58   50.65
  12   2  -1 2137.39   45.97
 -12  -2  -1 2101.53   49.41
  12   2  -1 2166.31   47.25
 -12   2   1 2127.51   50.50
 -12   2  -1 2148.90   49.07
 -12  -2   1 2160.98   47.59
 -12   2  -1 2163.81   48.76
  12  -2  -1 2127.91   50.63
  12   2   1 2158.83   47.80
 -12   2  -1 2167.97   51.09
  12   2   1 2123.85   47.87
  12  -2  -1 2170.75   50.77
 -12   2  -1 2150.99   47.28
  12  -2  -1 2122.08   49.90
 -12   2  -1 2121.64   48.67
 -12  -2   1 2166.37   47.40
 -12  -2   1 2190.58   43.50
  12  -2  -1 2145.81   50.08
 -12  -2   1 2107.84   47.28
  12   2   1 2104.92   45.35
  12   2   1 2159.59   47.35
  12   2   1 2139.04   48.28
 -12   2  -1 2203.11   50.18
 -12   3   1  233.21   13.30
  12  -3   1  222.57   14.16
  12   3  -1  199.93    9.41
 -12  -3  -1  244.17   13.50
  12  -3   1  214.69   13.45
 -12  -3  -1  223.12   13.03
 -12   3   1  230.73   13.41
 -12   3   1  249.21   14.06
 -12   3   1  229.01   12.20
  12   3  -1  218.25   10.77
 -12   3   1  202.74   12.91
  12  -3   1  232.20   13.82
 -12   3   1  210.49   13.51
 -12   3   1  227.89   13.00
  12   3  -1  217.86   12.33
 -12   3  -1  204.56   12.40
  12   3   1  226.52   12.24
 -12   3  -1  214.87   11.90
 -12   3  -1  213.72   14.39
 -12  -3   1  223.15   10.95
  12   3   1  222.29   10.37
  12  -3  -1  202.99   13.61
  12   3   1  217.21    9.46
 -12   3  -1  217.84   13.00
  12  -3  -1  224.58   13.19
  12  -3  -1  230.54   14.64
  12  -3  -1  189.97   13.39
 -12   3  -1  231.71   12.59
 -12  -3   1  218.43   10.96
  12   3   1  208.85   10.88
  12   3   1  226.31   11.46
 -12   3  -1  212.15   11.39
 -12   4   1 1194.31   35.21
 -12  -4  -1 1144.12   33.13
  12   4  -1 1136.02   34.34
 -12   4   1 1121.60   35.67
 -12   4   1 1176.51   35.19
 -12  -4  -1 1175.32   33.01
 -12   4   1 1166.95   33.20
  12  -4   1 1200.33   34.71
  12  -4   1 1174.64   33.59
 -12   4   1 1150.70   32.93
  12  -4   1 1201.62   34.52
 -12   4  -1 1152.19   35.09
 -12   4  -1 1184.15   38.10
 -12   4  -1 1166.98   35.18
 -12   4  -1 1135.61   32.09
  12  -4  -1 1176.29   35.51
  12  -4  -1 1185.35   35.32
  12   4   1 1206.61   31.55
 -12  -4   1 1168.79   29.54
  12   4   1 1167.10   33.23
  12  -4  -1 1194.36   34.85
 -12  -4   1 1214.60   29.47
  12   5  -1   89.68   12.91
 -12   5   1   91.92   12.22
  12  -5   1   75.88   12.02
  12  -5   1   86.06   12.47
  12  -5   1  100.94   12.17
 -12  -5  -1  100.81   11.47
 -12   5   1   88.30   12.87
 -12  -5  -1   85.23   11.50
 -12   5   1   89.83   11.92
  12  -5  -1  117.99   14.54
  12   5   1  109.18   10.92
  12  -5  -1   81.05   12.58
 -12   5  -1   85.51   10.90
 -12   5  -1   80.84   12.32
  12  -5  -1   86.82   13.03
 -12   5  -1   91.46   12.08
 -12  -5   1  112.21    9.51
 -12   5  -1   90.02   15.24
  12   5   1   81.38   11.84
 -12   6   1  343.57   24.10
 -12   6   1  347.57   20.07
 -12  -6  -1  358.42   20.25
  12  -6   1  342.97   21.02
  12  -6   1  344.08   21.45
  12   6  -1  355.63   22.78
 -12   6   1  304.41   20.68
  12  -6   1  349.69   19.23
 -12   6  -1  343.63   26.35
  12  -6  -1  331.92   21.68
  12   6   1  336.76   21.78
  12  -6  -1  369.37   23.18
  12  -6  -1  338.97   22.84
 -12   6  -1  379.58   23.84
 -12   6  -1  333.05   18.44
 -12   6  -1  329.05   21.21
 -12   0   2  394.02   15.64
  12   0  -2  344.58   14.24
 -12   0   2  388.69   13.64
  12   0  -2  345.19   14.94
  12   0   2  370.73   15.82
 -12   0  -2  366.06   14.75
 -12   0  -2  358.08   15.80
  12   0   2  384.29   15.59
  12   0  -2  344.11   14.11
 -12   0   2  361.11   15.27
 -12   0  -2  345.35   15.52
  12   0  -2  334.05   14.58
 -12   0  -2  336.48   13.49
  12   0   2  394.71   15.16
  12   0   2  396.94   15.95
  12   1  -2   58.43    6.70
 -12  -1  -2   53.91    7.71
  12  -1   2   50.30    7.72
 -12   1   2   49.56    7.03
  12   1  -2   54.43    6.72
 -12  -1  -2   49.79    6.04
  12  -1   2   49.95    8.01
 -12  -1  -2   56.40    8.47
  12   1  -2   57.79    6.82
  12  -1   2   44.00    6.89
 -12   1   2   52.90    8.21
  12   1  -2   59.24    7.34
 -12  -1  -2   54.40    8.39
 -12   1   2   41.31    7.76
  12  -1   2   43.85    7.65
  12   1   2   56.08    8.04
 -12   1  -2   52.36    7.70
  12   1   2   52.74    7.53
 -12  -1   2   53.56    6.33
  12  -1  -2   46.11    7.59
 -12   1  -2   54.84    7.86
  12  -1  -2   47.35    7.56
 -12  -1   2   58.42    7.39
 -12   1  -2   56.46    7.88
  12   1   2   59.05    8.19
 -12   1  -2   55.55    7.43
 -12   1  -2   50.99    4.75
 -12  -1   2   55.71    7.30
  12   1   2   65.27    8.33
  12  -1  -2   50.09    7.87
  12  -1  -2   58.39    8.33
  12  -2   2  307.20   14.68
  12   2  -2  294.01   10.99
  12   2  -2  306.63   12.58
  12   2  -2  319.83   14.55
  12  -2   2  281.76   12.92
 -12  -2  -2  287.73   13.56
  12   2  -2  292.92   11.06
 -12   2   2  270.05   13.69
 -12  -2  -2  308.57   15.73
  12  -2   2  295.13   15.05
 -12  -2  -2  300.33   15.33
 -12   2   2  284.80   15.56
  12  -2   2  298.31   15.02
 -12   2   2  283.34   15.13
  12   2  -2  295.99    9.59
  12   2   2  296.63   13.96
 -12   2  -2  290.63   16.49
  12   2   2  300.22   13.94
 -12   2  -2  314.62   13.57
 -12   2  -2  294.80   13.52
  12   2   2  278.20   13.99
 -12  -2   2  287.12   12.38
 -12  -2   2  278.12   12.35
  12  -2  -2  295.85   15.84
 -12   2  -2  302.79   14.84
  12  -2  -2  296.18   15.31
  12  -2  -2  323.14   15.45
 -12   2  -2  296.45   12.29
 -12   2  -2  300.43   13.76
  12  -2  -2  259.96   15.10
  12   2   2  293.74   14.01
  12   2   2  279.51   10.34
  12  -3   2  111.71   10.87
 -12   3   2  108.91   11.99
 -12   3   2  104.91   10.90
 -12  -3  -2   90.47   10.87
  12  -3   2  122.01   11.81
 -12   3   2   92.52   10.79
  12  -3   2   99.21   11.03
 -12   3   2  112.45   11.98
  12   3  -2   89.23   11.76
 -12  -3  -2   99.64   11.80
 -12   3  -2  108.53   10.58
 -12  -3   2  109.90    8.84
 -12   3  -2   93.03    9.22
  12   3   2  103.35    9.92
  12  -3  -2   98.23   11.41
  12   3   2  102.47    8.38
  12  -3  -2  107.37   12.99
  12   3   2   96.52   10.56
 -12   3  -2  102.48   11.16
  12   3   2  122.52   10.87
  12  -3  -2  100.82   12.40
  12  -3  -2  104.99   11.79
 -12   3  -2  122.49   14.00
  12   3   2  108.40    9.79
 -12  -3   2   95.08    8.08
 -12   3  -2  106.92   10.73
 -12   4   2  131.26   13.50
 -12   4   2  113.98   13.10
  12  -4   2  117.77   11.99
  12  -4   2  126.92   12.91
  12   4  -2  111.71   12.63
 -12   4   2  106.16   12.33
  12  -4   2  113.46   12.71
 -12  -4  -2  118.37   13.28
 -12  -4  -2  116.11   12.97
 -12   4   2  146.48   14.86
  12   4   2  100.97   10.67
 -12   4  -2  107.42   15.19
  12  -4  -2  110.47   13.92
 -12  -4   2  116.10    8.35
 -12   4  -2  133.20   12.61
 -12   4  -2  118.75   12.69
 -12   4  -2  121.29   13.32
  12  -4  -2  118.78   14.43
  12   4   2  116.42   12.47
 -12  -4   2   95.73    8.44
  12  -4  -2  121.96   13.55
  12  -5   2   -4.11    7.46
 -12  -5  -2   -2.87    8.15
 -12  -5  -2   11.95    8.20
  12  -5   2   -1.92    6.84
 -12   5   2    8.98    8.34
  12  -5   2    5.17    6.77
 -12   5   2   15.37    9.80
  12   5  -2   -2.36    7.61
 -12   5   2   -4.65    7.47
  12  -5  -2  -11.86    7.64
  12  -5  -2   -2.04    8.97
  12  -5  -2    3.37    8.50
  12   5   2   -2.50    6.46
 -12   5  -2   12.61   10.51
 -12   5  -2    2.45    6.72
  12   5   2   -3.97    6.96
 -12   5  -2    3.11    7.37
 -12   5  -2    8.75    8.80
 -12  -6  -2   22.35   10.67
 -12   6   2   18.11    9.99
  12   6  -2   33.01   12.10
 -12   6   2   35.51   11.48
  12  -6   2   31.84   10.74
 -12  -6  -2   42.58   12.07
 -12   6   2   45.33   13.15
 -12   6  -2   35.62    9.40
  12   6   2   23.47   10.10
  12  -6  -2   48.17   11.88
  12   6   2   23.36   10.51
  12  -6  -2   44.66   12.71
  12  -6  -2   56.28   14.16
 -12   6  -2   27.57   10.03
 -12   6  -2   18.51   10.68
 -12   6  -2    8.59   11.94
  12   0   3 1750.94   44.68
 -12   0  -3 1784.80   43.56
 -12   0  -3 1770.48   44.86
  12   0   3 1763.23   44.66
 -12   0  -3 1728.28   42.47
  12   0  -3 1797.84   42.86
 -12   0  -3 1776.56   44.55
 -12   0   3 1725.94   41.16
  12   0  -3 1764.53   43.61
 -12   0   3 1763.44   43.82
 -12   0   3 1751.14   43.21
  12   0   3 1734.20   42.95
  12   0  -3 1761.48   42.70
 -12   0   3 1789.11   44.11
  12   0   3 1752.28   43.83
  12   0  -3 1747.38   43.02
 -12   1   3  112.75    9.87
 -12   1   3  123.23   12.53
  12  -1   3  121.54   11.99
 -12  -1  -3  121.48   12.02
  12   1  -3  107.00    9.11
  12   1  -3  109.23    9.43
 -12   1   3  128.80   12.04
  12  -1   3  135.11   12.02
  12   1  -3  103.31    8.87
  12  -1   3  138.80   11.82
  12  -1   3  114.96   11.95
 -12  -1  -3  112.58   11.59
 -12  -1  -3  107.42   11.84
  12   1  -3  111.49   10.59
 -12   1   3  112.11   11.27
 -12  -1  -3  119.29    9.26
  12   1  -3  123.54    8.56
  12  -1  -3  102.91   11.00
  12   1   3  120.76   11.25
 -12   1  -3  129.44   12.04
  12  -1  -3  117.21   11.67
  12   1   3  115.50   11.45
 -12   1  -3  109.80   10.86
  12   1   3  117.83   11.91
  12  -1  -3   97.37   10.94
 -12   1  -3  121.49   11.66
  12   1   3  127.81   11.91
 -12  -1   3  118.72   10.68
 -12  -1   3  121.88   10.57
 -12   1  -3  109.21   11.15
 -12  -1   3  124.67   10.03
  12  -1  -3  139.30   12.84
 -12  -1   3  118.42    8.38
  12  -2   3 1435.25   39.02
 -12  -2  -3 1456.74   38.69
  12   2  -3 1421.56   37.96
 -12   2   3 1537.59   41.11
 -12  -2  -3 1371.51   40.02
 -12   2   3 1426.01   37.82
  12   2  -3 1507.03   34.93
  12  -2   3 1416.02   36.46
  12   2  -3 1366.06   33.40
  12  -2   3 1466.55   38.39
 -12  -2  -3 1410.90   40.09
  12   2  -3 1477.16   35.77
  12  -2   3 1419.00   38.98
 -12   2   3 1463.96   39.61
 -12   2   3 1471.38   40.17
 -12   2  -3 1429.80   35.44
 -12  -2   3 1457.21   35.88
  12   2   3 1377.39   38.03
 -12   2  -3 1434.96   43.13
  12   2   3 1434.87   38.76
  12   2   3 1461.24   38.98
  12  -2  -3 1464.88   40.58
 -12  -2   3 1452.53   35.75
  12  -2  -3 1437.51   39.50
  12  -2  -3 1427.27   39.59
 -12   2  -3 1447.58   39.10
 -12   2  -3 1467.91   37.12
 -12   2  -3 1431.65   37.37
  12  -2  -3 1497.09   40.95
  12   2   3 1421.47   38.95
 -12   2  -3 1448.63   36.72
  12   2   3 1397.46   32.91
 -12  -3  -3  199.74   15.53
 -12   3   3  195.26   15.63
  12  -3   3  153.52   13.46
 -12  -3  -3  192.34   15.53
  12  -3   3  166.66   14.02
 -12   3   3  156.88   13.11
  12  -3   3  158.35   13.77
 -12   3   3  209.48   15.14
  12   3  -3  160.65   14.30
  12   3   3  143.13   10.16
 -12   3  -3  158.38   12.19
  12   3   3  148.25   13.66
 -12  -3   3  154.01   10.21
  12   3   3  171.93   12.83
  12  -3  -3  159.09   15.55
  12  -3  -3  180.03   15.16
  12  -3  -3  177.71   16.01
  12   3   3  150.19   13.37
 -12   3  -3  160.18   17.65
  12   3   3  149.82   12.96
 -12   3  -3  173.50   13.86
 -12   3  -3  164.55   12.45
  12  -3  -3  168.77   16.15
 -12  -3   3  153.65   10.51
  12  -4   3  869.51   29.72
  12  -4   3  875.62   29.73
 -12   4   3  848.52   37.72
  12   4  -3  886.31   33.77
 -12  -4  -3  887.38   32.90
 -12   4   3  885.12   31.49
 -12   4   3  867.21   30.14
 -12  -4  -3  926.97   32.83
  12  -4   3  888.37   28.32
 -12   4   3  884.40   31.68
  12  -4  -3  934.97   33.70
 -12   4  -3  881.02   27.69
 -12   4  -3  862.24   35.33
  12  -4  -3  898.22   33.23
 -12   4  -3  882.10   30.29
  12   4   3  873.49   29.52
  12   4   3  857.49   27.99
  12  -4  -3  846.35   31.71
 -12  -4   3  874.81   23.95
 -12   4  -3  869.39   30.85
 -12   5   3   82.42   15.10
  12  -5   3   94.04   13.08
 -12  -5  -3  124.82   15.58
 -12  -5  -3   99.28   15.35
  12  -5   3   96.26   11.97
  12  -5   3   81.15   12.90
  12   5  -3   99.27   16.27
 -12   5   3   96.22   13.64
 -12   5   3  101.03   13.73
  12   5   3  115.38   13.85
 -12   5  -3   97.22   11.78
 -12   5  -3   97.77   13.70
  12   5   3   64.49   10.99
 -12   5  -3   82.40   16.28
  12  -5  -3   84.80   14.03
  12  -5  -3  104.68   15.66
 -12   5  -3   94.93   13.56
  12  -5  -3  113.00   15.92
 -12   6   3  311.51   24.84
 -12   6   3  300.54   22.73
 -12  -6  -3  296.94   23.77
  12  -6   3  315.87   20.53
 -12   6   3  330.22   22.14
 -12  -6  -3  291.23   23.81
  12  -6  -3  305.42   26.17
  12   6   3  309.03   21.18
 -12   6  -3  334.78   22.53
 -12   6  -3  301.71   22.76
  12   6   3  310.55   20.78
  12  -6  -3  309.65   26.55
 -12   6  -3  305.17   27.77
  12  -6  -3  354.26   25.08
 -12   0  -4  212.83   15.26
  12   0  -4  197.98   13.45
  12   0  -4  198.84   13.57
  12   0   4  220.90   15.50
  12   0   4  196.32   14.52
 -12   0   4  190.25   14.38
  12   0  -4  200.96   14.32
 -12   0  -4  189.28   14.27
  12   0  -4  217.73   13.52
 -12   0   4  211.78   13.88
 -12   0  -4  226.61   13.79
 -12   0  -4  202.88   14.25
 -12   0   4  215.12   12.04
  12   0  -4  192.23    9.16
 -12   0   4  203.38   14.52
  12   0   4  214.06   13.84
  12   0   4  193.55   15.09
 -12   1   4  140.01   14.46
 -12   1   4  137.49   12.41
  12   1  -4  128.81   10.14
  12   1  -4  137.46   11.46
 -12  -1  -4  141.98   13.95
  12   1  -4  134.22   11.34
  12   1  -4  104.95    9.39
 -12  -1  -4  133.05   14.01
  12  -1   4  132.08   13.75
  12   1  -4  123.70   12.00
 -12   1   4  162.78   14.84
  12  -1   4  133.71   13.19
 -12   1   4  129.62   13.07
  12  -1   4  126.44   11.21
 -12  -1  -4  139.75   14.54
  12  -1   4  127.67   13.63
  12  -1  -4  125.15   13.52
 -12  -1   4  130.41   12.33
  12   1   4  138.18   13.55
  12   1   4  140.15   14.38
  12  -1  -4  138.23   13.93
 -12   1  -4  131.57   12.83
 -12  -1   4  141.46   12.32
 -12   1  -4  128.18   12.86
  12  -1  -4  144.83   14.01
 -12   1  -4  125.76   12.68
  12  -1  -4  130.82   13.50
 -12  -1   4  157.27   13.48
  12   1   4  113.12   13.14
 -12   1  -4  145.64   12.98
  12   1   4  141.62   14.59
 -12   2   4   75.12   10.19
 -12   2   4   79.43   11.90
  12  -2   4   83.21   11.96
 -12   2   4   58.09   11.24
  12  -2   4   73.37   11.09
  12  -2   4   83.01   11.01
  12   2  -4   79.40    9.80
 -12  -2  -4   86.50   13.18
 -12  -2  -4  103.59   13.43
 -12  -2  -4   72.14   10.75
 -12   2   4   80.56   12.70
  12   2  -4   80.41   10.59
  12   2   4   77.59   11.46
  12   2   4   86.42   12.35
  12  -2  -4   82.45   11.81
 -12   2  -4   88.33   11.39
 -12   2  -4   84.69   10.51
  12  -2  -4   70.96   12.02
 -12   2  -4   86.85   14.23
 -12   2  -4   72.11    9.76
  12   2   4   71.50   11.56
 -12   2  -4   77.25   10.55
  12  -2  -4   80.24   12.40
 -12  -2   4   71.49    9.51
  12  -2  -4   77.13   12.35
 -12  -2   4   74.86    9.63
  12   2   4   81.90   12.01
 -12  -2   4   82.39    9.53
 -12  -3  -4   11.64    9.55
  12   3  -4   -0.49    6.77
 -12   3   4    8.94    8.85
 -12   3   4    9.03    7.51
  12  -3   4   15.38    7.91
 -12  -3  -4   17.86    9.16
 -12   3   4   13.06    8.88
  12  -3   4    9.83    8.34
  12  -3   4   10.20    8.08
 -12   3   4    4.25    8.47
  12  -3  -4    9.00    9.43
  12  -3  -4   13.29    8.91
  12   3   4   14.70    6.21
 -12   3  -4   13.14    6.95
  12  -3  -4    9.62    9.11
 -12  -3   4   12.61    6.25
  12   3   4    6.60    7.88
  12   3   4   14.02    7.92
  12   3   4   11.05    7.92
 -12   3  -4   11.64    9.91
  12   3   4    5.08    8.18
 -12  -3   4   22.14    6.47
 -12   3  -4   -7.31    6.59
  12  -3  -4   20.68    9.64
  12  -4   4   97.60   12.04
  12  -4   4   93.34   13.09
 -12  -4  -4   93.23   15.34
 -12  -4  -4  105.35   15.73
 -12   4   4   81.88   14.91
  12  -4   4   87.30   12.91
  12   4  -4  100.27   14.76
 -12   4   4   93.69   14.58
 -12   4   4   49.93   11.51
 -12   4  -4   81.92   12.05
  12  -4  -4   92.84   14.85
 -12   4  -4   86.35   12.91
 -12  -4   4   93.68    9.68
  12   4   4   91.94   11.60
  12   4   4   73.18   12.43
  12  -4  -4   93.42   16.16
  12  -4  -4   86.37   15.01
 -12   4  -4  102.02   17.08
 -12   4  -4   96.24   12.02
  12  -5   4   14.75    8.19
 -12   5   4   -1.46   10.12
  12  -5   4   -5.86    8.38
 -12   5   4    0.29    8.83
 -12  -5  -4    3.89   10.62
  12  -5   4    2.87    8.05
 -12   5   4  -14.41    8.67
 -12  -5  -4   -4.31   10.17
  12   5  -4    1.37   10.03
 -12   5  -4   17.15   12.67
  12   5   4    4.93    9.07
 -12   5  -4  -10.55    6.99
  12  -5  -4   -9.95    9.61
  12  -5  -4   -5.36   10.03
  12   5   4    0.28    7.21
 -12   5  -4   -7.20    8.39
 -12   5  -4    5.55    9.16
  12  -5  -4   -1.37   10.13
 -12   0   5  921.10   31.44
 -12   0  -5  922.73   32.01
  12   0  -5  950.96   30.69
  12   0   5  950.90   30.98
  12   0   5  921.81   33.10
 -12   0  -5  916.46   32.47
 -12   0   5  928.72   31.98
  12   0  -5  939.17   30.81
  12   0  -5  947.95   31.89
 -12   0  -5  943.38   32.23
  12   0  -5  939.78   30.11
  12   0   5  923.49   32.18
 -12   0   5  927.79   32.02
  12   0   5  961.32   33.67
 -12   1   5   29.67    8.09
 -12  -1  -5   24.12    8.47
  12   1  -5   27.78    7.68
  12   1  -5   34.38    8.00
  12   1  -5   23.28    8.45
  12  -1   5   28.40    9.94
  12  -1   5   37.24    9.86
 -12   1   5   23.58    9.29
 -12   1   5   19.93    9.38
 -12   1   5   22.49    9.47
  12   1  -5   16.55    5.92
  12  -1   5   26.74    9.52
 -12  -1  -5   24.22    9.19
 -12  -1  -5   26.14    9.57
  12   1   5   22.42    8.91
  12  -1  -5   28.63    9.37
  12  -1  -5   15.16    8.42
  12   1   5   30.61   10.60
 -12   1  -5   21.13    8.41
 -12  -1   5   16.19    7.94
  12  -1  -5   16.90    8.14
 -12  -1   5   11.00    7.52
  12   1   5   22.72    9.95
  12   1   5   11.20    8.74
 -12   1  -5   25.62    8.68
 -12   1  -5   11.25    7.61
 -12  -1   5    3.10    7.25
 -12   1  -5   18.86    8.03
  12  -1  -5   21.56    8.71
 -12   2   5  709.52   30.26
  12   2  -5  768.89   26.62
 -12   2   5  737.78   30.50
  12   2  -5  768.32   27.57
  12  -2   5  733.93   29.16
 -12  -2  -5  734.76   30.46
  12  -2   5  738.45   27.93
 -12  -2  -5  762.45   31.68
 -12   2   5  722.87   29.38
  12  -2   5  722.92   28.84
 -12  -2  -5  710.65   28.97
 -12   2   5  713.12   27.19
 -12  -2   5  727.13   26.35
 -12  -2   5  770.36   26.69
  12   2   5  759.47   30.91
  12   2   5  739.31   29.72
  12  -2  -5  742.85   30.30
  12  -2  -5  748.93   29.91
  12  -2  -5  746.34   31.04
 -12   2  -5  734.61   34.17
 -12   2  -5  753.76   27.82
  12   2   5  723.17   28.09
  12  -2  -5  737.72   29.84
  12   2   5  736.80   29.69
 -12   2  -5  759.65   29.05
 -12  -2   5  750.33   25.59
 -12   3   5   82.73   12.03
  12  -3   5   56.24   12.10
  12   3  -5   75.42   10.62
 -12   3   5   85.27   14.28
  12   3  -5   71.97   12.45
 -12  -3  -5   79.14   14.90
 -12  -3  -5   84.84   14.33
  12  -3   5   97.50   14.13
  12  -3   5   96.50   12.64
 -12   3   5   79.12   14.06
 -12   3   5   79.15   14.35
  12  -3  -5   90.78   15.47
 -12   3  -5   73.71   12.03
 -12   3  -5   80.43   13.07
 -12  -3   5   62.35   10.01
  12   3   5   87.05   13.50
 -12  -3   5   72.74   10.08
  12   3   5   60.17   12.26
  12   3   5   65.52   13.49
  12  -3  -5   78.93   14.47
  12   3   5   94.16   13.74
 -12   3  -5   87.28   16.71
  12  -3  -5   65.64   13.08
  12  -3  -5   73.16   14.53
 -12   4   5  370.62   24.32
 -12   4   5  401.88   23.74
  12  -4   5  406.73   21.18
  12  -4   5  428.50   22.97
  12   4  -5  402.27   24.66
 -12   4   5  397.19   24.87
 -12  -4  -5  422.17   27.31
  12  -4   5  435.84   23.17
 -12  -4  -5  427.96   26.99
  12  -4  -5  432.63   27.86
 -12  -4   5  421.83   18.74
 -12   4  -5  415.58   20.97
 -12   4  -5  451.42   25.15
  12  -4  -5  414.50   27.45
  12   4   5  388.23   23.04
  12  -4  -5  407.98   25.74
 -12   4  -5  476.84   30.52
 -12  -5  -5   83.08   16.97
 -12  -5  -5  116.23   18.95
  12   5  -5   79.15   15.90
  12  -5   5  100.79   12.93
  12  -5   5   69.69   13.26
  12  -5   5   83.67   14.91
 -12   5   5   85.84   15.96
  12  -5  -5   93.66   17.52
 -12   5  -5   64.61   11.88
 -12   5  -5   77.60   14.62
 -12   5  -5   78.11   18.45
  12  -5  -5  111.11   20.05
  12  -5  -5   90.59   17.92
  12   5   5   69.63   14.62
  12   0  -6   57.68   12.55
 -12   0  -6   79.15   13.90
  12   0   6   51.66   12.41
 -12   0  -6   51.05   12.27
  12   0   6   41.27   11.96
 -12   0   6   70.94   12.55
 -12   0   6   81.29   13.77
  12   0   6   79.84   14.19
  12   0  -6   65.26   11.79
 -12   0  -6   68.76   12.78
  12   0  -6   64.76   11.51
 -12   0   6   56.13   12.36
  12  -1   6   13.97    9.05
 -12   1   6   31.46   11.58
 -12  -1  -6   11.90    9.89
 -12   1   6   13.34   10.00
  12  -1   6   16.53   10.02
  12  -1   6   12.01   10.01
 -12  -1  -6   -0.36    9.49
  12   1  -6    3.23    8.60
 -12  -1  -6   13.91    9.55
 -12   1   6   11.09   10.00
  12  -1  -6   18.53    9.60
 -12  -1   6   19.05    9.74
  12   1   6   10.04    9.85
  12   1   6    5.77    9.33
  12  -1  -6   11.23    9.20
  12  -1  -6    6.18    8.94
  12   1   6   22.70    9.95
 -12  -1   6   -0.03    8.02
  12  -1  -6   15.83    9.25
  12   1   6   10.18   10.60
 -12  -1   6   26.41    9.76
 -12   1  -6   12.10    9.22
 -12   1  -6    9.09    8.72
 -12   2   6   69.41   14.33
 -12   2   6   66.56   14.67
 -12  -2  -6   69.89   15.16
  12   2  -6   55.28   11.76
 -12  -2  -6   81.96   14.87
 -12   2   6   91.65   15.57
 -12   2   6   58.59   11.72
  12  -2   6   87.85   14.58
  12   2  -6   77.34   12.18
 -12  -2  -6   73.26   14.07
  12  -2   6   72.45   13.37
  12  -2   6   94.07   14.79
 -12   2  -6   75.96   13.53
 -12  -2   6   86.88   12.36
  12   2   6   71.70   13.30
 -12   2  -6   65.37   15.00
  12  -2  -6   87.88   15.63
 -12  -2   6   73.91   12.81
  12  -2  -6   79.68   14.07
  12   2   6   88.62   15.56
  12   2   6   76.35   14.74
  12  -2  -6   81.57   14.47
  12  -2  -6   70.45   14.03
 -12  -2   6   86.06   13.02
  12   2   6   78.48   15.06
 -12   3   6   17.02   11.46
 -12   3   6   -2.62   10.03
 -12   3   6    7.85    9.10
  12  -3   6    3.14   10.06
 -12   3   6   -8.31    9.85
  12   3  -6   -1.01    7.69
 -12  -3  -6   20.49   11.88
 -12  -3  -6   13.87   11.72
  12  -3   6    5.57    9.00
  12   3  -6  -10.02    7.06
  12  -3   6    9.89   10.20
  12   3   6    8.39    9.87
  12   3   6   -6.67    9.67
  12  -3  -6    7.17   10.44
  12   3   6    7.04   10.99
 -12   3  -6    2.80   11.24
  12  -3  -6   15.36   11.75
 -12  -3   6   -4.46    6.62
 -12  -3   6    5.01    7.95
 -12  -3   6    5.54    8.10
 -12   3  -6    3.10    8.75
  12   3   6   12.73    9.55
  12  -3  -6    4.95   11.11
  12  -4   6   46.84   12.47
 -12  -4  -6   47.05   16.05
  12  -4   6   36.67   11.24
 -12   4   6   32.06   11.99
  12  -4   6   29.29   11.69
  12   4  -6   35.70   12.90
 -12  -4  -6   54.25   16.51
 -12   4   6   36.89   13.84
 -12   4   6   38.61   13.70
 -12  -4   6   40.27   10.18
  12  -4  -6   42.37   14.59
  12  -4  -6   24.97   13.84
  12   4   6   48.37   12.28
 -12   4  -6   30.80   11.03
 -12   4  -6   13.24   13.96
  12  -4  -6   44.39   15.96
 -12   0  -7  494.34   27.50
 -12   0  -7  449.97   28.47
 -12   0   7  551.30   29.09
  12   0  -7  556.78   28.85
 -12   0   7  504.91   28.80
  12   0   7  556.10   29.76
  12   0   7  542.17   29.30
 -12   0   7  515.08   27.25
  12   0   7  494.56   29.63
 -12   0  -7  504.93   27.45
  12  -1   7    0.71   11.27
  12   1  -7   25.05   10.96
 -12  -1  -7    9.95   11.21
  12  -1   7   18.18   11.14
 -12  -1  -7    4.90    9.46
 -12   1   7   10.45   11.49
 -12   1   7   16.74   11.86
 -12  -1  -7   27.67   11.99
  12  -1   7    5.80   10.18
 -12   1   7   34.27   12.80
  12  -1  -7   26.99   10.16
  12   1   7   24.55   12.03
  12  -1  -7    0.87   10.05
  12  -1  -7    9.99   10.25
 -12  -1   7   15.73    9.96
  12   1   7   27.32   12.69
  12  -1  -7   19.62   12.32
 -12  -1   7   15.64   10.86
 -12  -1   7   22.84   11.33
 -12   1  -7   26.51   12.84
 -12   1  -7   11.67   10.04
  12   1   7   22.61   12.22
  12  -2   7  351.09   25.07
  12  -2   7  306.87   22.51
 -12  -2  -7  355.42   26.10
 -12  -2  -7  353.99   26.20
  12  -2   7  341.71   24.58
 -12   2   7  321.18   25.54
 -12   2   7  345.86   25.79
  12   2  -7  366.14   22.88
 -12   2   7  314.18   25.02
 -12   2  -7  300.95   27.33
 -12  -2   7  379.54   23.35
  12   2   7  312.93   22.83
  12   2   7  339.71   25.85
  12   2   7  331.38   25.56
 -12   2  -7  303.63   22.52
  12  -2  -7  331.57   25.78
 -12  -2   7  407.54   24.04
  12  -2  -7  290.36   24.95
 -12  -2   7  367.19   21.72
  12  -2  -7  376.38   25.61
  12  -2  -7  314.30   24.83
  12   2   7  336.61   26.36
 -12  -3  -7   41.44   16.07
 -12  -3  -7   44.55   15.77
  12  -3   7    2.18   11.35
 -12   3   7   28.68   13.76
 -12   3   7   16.40   13.36
  12  -3   7   12.56   12.01
  12  -3   7    0.35    9.77
 -12   3   7   29.70   13.46
  12   3  -7   24.30   11.27
  12  -3  -7   43.28   15.23
  12   3   7   19.28   13.62
  12   3   7    6.11   11.83
 -12  -3   7   25.76   11.53
 -12   3  -7   31.64   11.67
 -12  -3   7   15.13    9.17
  12   3   7   14.19   11.56
  12  -3  -7   32.37   13.90
 -12   3  -7    2.44   12.47
 -12  -3   7   10.38    9.22
  12   3   7   22.05   10.90
  12  -3  -7   46.45   15.85
 -13   0   0    0.63    3.71
  13   0   0   -0.87    4.81
 -13   0   0    6.02    5.18
 -13   0   0    2.35    5.33
  13   0   0    2.53    4.92
 -13   0   0    3.45    4.46
  13   0   0   -0.15    4.88
  13   0   0    2.57    4.88
  13   1   0  162.43    9.60
 -13  -1   0  151.40   10.70
  13  -1   0  152.77   10.88
 -13  -1   0  148.67    9.14
  13   1   0  151.15    9.65
 -13   1   0  148.41    9.76
 -13   1   0  150.19   10.76
  13  -1   0  159.84   11.02
  13  -1   0  152.85   11.00
 -13   1   0  147.92    9.81
 -13   1   0  166.22    8.74
 -13  -1   0  151.30    7.48
  13   1   0  160.31    9.70
 -13  -1   0  147.93   10.38
  13   1   0  155.74   10.31
 -13   1   0  151.98   11.10
  13  -1   0  161.95   11.32
  13  -2   0   -4.06    5.12
 -13   2   0   10.18    6.08
  13   2   0   -1.13    4.79
 -13   2   0    9.32    4.72
  13   2   0    1.81    4.00
 -13   2   0    7.21    5.46
  13   2   0    4.92    4.03
 -13   2   0   -1.78    4.89
  13   2   0    3.40    3.28
 -13  -2   0    7.83    2.52
  13  -2   0    3.35    5.46
  13  -2   0    3.79    5.43
  13   2   0   10.33    4.57
 -13   2   0    4.95    4.27
 -13  -2   0   -5.67    4.78
 -13  -2   0   -0.39    3.82
 -13  -2   0    6.60    5.49
 -13   2   0   12.96    5.47
  13  -2   0   -1.69    5.51
 -13   3   0  188.40   13.11
 -13   3   0  191.81   13.00
  13  -3   0  208.07   13.72
  13  -3   0  184.57   13.36
  13   3   0  209.72    9.44
 -13  -3   0  193.95   11.50
 -13  -3   0  211.20   12.00
  13  -3   0  205.98   13.59
 -13   3   0  203.65   12.92
  13   3   0  199.34   11.30
 -13   3   0  164.38   11.75
 -13   3   0  171.19   11.78
  13   3   0  211.56   11.62
 -13   3   0  196.13   12.37
  13  -3   0  187.29   12.40
 -13   4   0  117.39   13.49
 -13   4   0  129.27   12.21
  13  -4   0  130.69   13.04
 -13   4   0  129.06   13.05
  13   4   0  128.14   12.13
 -13  -4   0  119.22   10.36
  13  -4   0  140.20   13.98
 -13   4   0  137.24   13.36
  13  -4   0  136.08   13.50
  13   4   0  130.06   10.04
 -13  -4   0  119.95   10.91
  13  -5   0   10.90    8.62
  13  -5   0   24.52    9.54
 -13  -5   0   17.50    7.41
  13   5   0   16.52    8.64
 -13   5   0   11.50    9.00
  13  -5   0   -0.30    7.89
 -13   5   0   11.16    8.34
 -13   5   0   12.81   10.07
 -13  -5   0   15.53    6.85
 -13   5   0    5.07    7.35
 -13   6   0   -3.85    8.10
  13  -6   0    2.85    8.93
 -13   6   0    1.59    9.91
  13  -6   0    8.00    9.48
  13  -6   0    1.19    8.62
 -13   6   0    2.27    8.40
 -13   6   0    1.59   10.33
  13   6   0   14.60    9.11
 -13   0  -1    0.53    5.07
 -13   0   1    5.03    4.25
  13   0  -1    1.18    4.66
  13   0   1   -1.37    5.15
 -13   0   1   -2.33    4.66
  13   0  -1    3.27    4.68
 -13   0   1   -2.43    4.92
 -13   0  -1    3.00    4.87
  13   0   1    2.54    4.80
  13   0  -1   -0.04    4.82
  13   0  -1   -1.20    4.39
 -13   0  -1   -3.11    3.68
  13   0   1    1.57    4.84
 -13   0  -1    2.64    5.60
  13   0   1    3.31    5.25
  13  -1   1 2639.31   58.08
 -13   1   1 2603.02   57.01
  13  -1   1 2580.00   58.32
 -13  -1  -1 2619.71   56.50
 -13  -1  -1 2572.89   58.07
  13   1  -1 2572.81   55.56
 -13   1   1 2663.42   58.63
  13   1  -1 2579.80   55.92
 -13   1   1 2608.51   56.51
  13  -1   1 2623.03   57.62
  13   1  -1 2554.58   56.59
  13  -1   1 2555.04   58.36
 -13   1   1 2614.65   58.47
  13   1  -1 2530.72   55.78
 -13  -1  -1 2622.55   58.41
 -13  -1  -1 2572.15   53.89
 -13   1  -1 2571.64   57.11
  13  -1  -1 2560.38   57.92
 -13   1  -1 2584.85   58.25
  13  -1  -1 2462.74   57.56
 -13   1  -1 2570.03   56.81
  13  -1  -1 2598.86   58.34
  13  -1  -1 2614.83   57.82
 -13  -1   1 2625.20   55.01
 -13  -1   1 2588.09   56.81
 -13   1  -1 2659.72   58.33
  13   1   1 2545.21   56.85
 -13  -1   1 2615.37   56.89
  13   1   1 2578.09   57.28
  13   1   1 2569.36   56.99
 -13   1  -1 2594.22   52.22
  13   1   1 2526.20   56.97
 -13  -2  -1   48.87    4.46
  13   2  -1   41.05    4.73
 -13   2   1   48.94    8.45
 -13   2   1   47.48    8.30
 -13   2   1   47.47    7.82
 -13   2   1   45.55    7.26
  13   2  -1   42.12    5.26
 -13  -2  -1   45.20    7.73
  13  -2   1   52.23    8.27
  13  -2   1   55.79    8.45
  13   2  -1   57.20    7.37
 -13  -2  -1   43.51    7.82
  13   2  -1   50.61    6.13
 -13  -2  -1   43.02    6.54
  13  -2   1   46.75    8.19
  13   2  -1   46.15    5.84
  13  -2   1   44.13    8.23
 -13   2   1   48.49    5.58
 -13  -2   1   46.99    6.84
  13   2   1   51.09    5.10
  13  -2  -1   47.50    8.26
  13  -2  -1   50.99    8.21
 -13  -2   1   45.30    6.80
  13   2   1   49.98    7.10
 -13   2  -1   43.63    7.49
 -13  -2   1   47.19    4.41
  13   2   1   52.24    7.91
 -13   2  -1   44.70    7.47
 -13  -2   1   52.79    7.06
  13  -2  -1   41.81    7.88
 -13   2  -1   49.51    6.29
  13   2   1   45.70    6.66
  13  -2  -1   42.90    8.06
 -13  -2   1   40.66    6.91
 -13   2  -1   47.52    8.33
  13   2   1   43.15    6.81
 -13   2  -1   45.27    7.77
 -13   2  -1   43.75    7.56
  13  -3   1 1184.24   33.04
 -13  -3  -1 1154.58   32.33
 -13   3   1 1195.36   33.54
 -13   3   1 1120.63   30.61
 -13   3   1 1155.18   32.10
 -13  -3  -1 1214.15   32.49
  13   3  -1 1107.18   27.89
 -13   3   1 1198.25   33.62
  13  -3   1 1137.96   33.45
 -13   3   1 1148.73   32.86
 -13   3   1 1100.16   32.49
 -13   3   1 1193.49   33.90
 -13   3   1 1151.50   32.78
  13   3  -1 1197.87   29.39
  13   3  -1 1164.76   32.07
  13  -3   1 1205.59   33.75
  13  -3  -1 1170.73   33.03
 -13   3  -1 1199.96   35.48
  13  -3  -1 1196.52   33.68
 -13   3  -1 1174.10   30.71
  13   3   1 1141.47   28.72
  13  -3  -1 1124.48   33.70
  13   3   1 1158.69   30.93
 -13  -3   1 1179.00   29.86
 -13   3  -1 1220.43   31.62
  13   3   1 1138.75   29.67
  13   3   1 1179.86   30.26
 -13  -3   1 1167.18   29.90
  13  -3  -1 1167.01   34.02
 -13   3  -1 1211.05   33.72
 -13   3  -1 1161.64   31.70
 -13   3  -1 1151.18   31.97
  13  -4   1  184.25   14.63
 -13   4   1  202.01   14.81
 -13   4   1  183.23   13.73
  13  -4   1  164.81   13.69
 -13   4   1  183.05   14.39
  13   4  -1  155.25   12.99
 -13  -4  -1  197.45   13.84
 -13   4   1  152.22   13.51
  13  -4   1  220.57   15.40
 -13  -4  -1  207.31   13.91
 -13   4   1  163.56   13.10
 -13   4  -1  147.24   12.53
 -13  -4   1  183.00   11.10
  13   4   1  190.27   12.90
  13   4   1  196.40   12.58
 -13   4  -1  167.88   13.77
 -13  -4   1  191.51   11.20
  13  -4  -1  162.43   15.40
  13  -4  -1  178.43   15.01
 -13   4  -1  167.93   14.19
  13  -4  -1  195.82   14.99
 -13   4  -1  166.10   15.55
  13  -5   1  654.69   26.33
 -13   5   1  647.73   25.10
  13  -5   1  665.35   25.30
  13  -5   1  642.90   26.92
 -13   5   1  652.56   28.24
 -13   5   1  655.91   27.11
  13   5  -1  633.68   26.52
 -13  -5  -1  662.67   24.72
 -13  -5  -1  662.49   25.05
 -13   5  -1  678.31   28.15
  13   5   1  655.65   26.18
  13   5   1  688.42   23.02
  13  -5  -1  644.92   27.44
  13  -5  -1  687.26   28.68
  13  -5  -1  643.80   27.01
 -13   5  -1  652.24   30.92
 -13  -5   1  660.52   20.63
 -13   5  -1  613.17   23.86
 -13   5  -1  636.16   26.44
  13  -6   1  114.59   15.90
 -13   6   1   98.97   14.54
 -13   6   1   84.01   14.08
 -13   6   1  114.36   16.29
  13  -6   1  123.36   14.21
 -13  -6  -1  108.26   14.03
  13   6  -1  101.19   15.27
  13  -6   1  124.42   15.67
  13  -6  -1  128.57   16.82
 -13   6  -1  115.41   18.45
  13   6   1   97.27   14.53
  13  -6  -1   86.01   14.29
  13  -6  -1  109.13   15.44
 -13   6  -1  116.59   13.56
 -13   6  -1  110.89   16.27
 -13   6  -1   87.67   13.33
  13   0   2    0.72    4.74
 -13   0  -2   -0.27    5.38
  13   0  -2   -4.66    4.30
  13   0   2   -4.16    4.95
 -13   0   2    0.05    5.35
 -13   0  -2    0.48    5.20
  13   0  -2    3.99    5.01
  13   0   2    0.60    5.31
  13   0  -2    3.61    5.01
 -13   0  -2    3.16    4.20
  13   0   2    0.22    5.33
 -13   0   2   -0.46    4.32
 -13   0  -2    1.42    4.85
 -13   0   2   -2.97    4.97
  13   0  -2   -4.46    4.34
  13  -1   2   16.02    6.41
 -13  -1  -2   13.39    4.48
  13   1  -2   16.83    5.28
 -13   1   2    9.29    5.06
  13  -1   2   15.03    6.52
 -13  -1  -2   12.01    6.44
 -13   1   2   13.46    6.57
 -13  -1  -2   25.18    6.67
 -13  -1  -2   18.23    6.90
  13  -1   2   12.42    6.59
  13   1  -2    9.11    4.99
  13   1  -2   15.12    4.92
  13  -1   2   19.62    6.44
 -13   1   2   19.81    6.83
  13   1  -2   17.82    5.76
  13  -1  -2   12.68    6.24
  13  -1  -2   23.94    7.13
 -13   1  -2   13.56    6.18
  13   1   2   29.06    7.03
 -13   1  -2   15.70    3.39
 -13  -1   2   15.66    5.76
 -13  -1   2   18.15    5.12
 -13   1  -2   21.52    6.32
  13   1   2   29.48    7.05
 -13   1  -2   13.85    5.69
  13  -1  -2   27.23    6.96
  13   1   2   24.02    6.37
 -13   1  -2   24.92    6.53
  13   1   2   18.62    6.16
 -13  -1   2   25.71    6.10
  13  -1  -2   16.75    6.17
 -13  -2  -2   37.63    8.09
 -13   2   2   43.85    7.48
  13  -2   2   51.74    7.62
 -13   2   2   37.19    8.42
  13  -2   2   37.30    7.87
  13  -2   2   42.96    8.59
  13   2  -2   45.35    5.89
 -13   2   2   29.88    7.76
  13   2  -2   40.32    5.15
  13  -2   2   31.63    7.70
 -13  -2  -2   38.23    8.27
  13   2  -2   39.07    6.59
 -13  -2  -2   40.83    7.46
  13   2  -2   40.90    5.79
  13  -2  -2   31.53    8.18
 -13   2  -2   36.11    7.65
 -13   2  -2   43.75    7.33
  13   2   2   39.65    7.90
 -13   2  -2   44.10    7.73
  13   2   2   31.76    7.37
  13  -2  -2   26.12    8.04
 -13  -2   2   34.28    6.43
 -13  -2   2   35.81    6.79
 -13   2  -2   41.89    9.15
  13   2   2   44.13    7.90
  13  -2  -2   28.44    7.87
  13   2   2   41.29    4.70
 -13   2  -2   41.63    7.45
  13  -2  -2   36.26    8.38
 -13   2  -2   35.97    5.67
  13   2   2   32.20    6.78
 -13  -3  -2  240.20   15.60
  13  -3   2  273.94   15.95
  13  -3   2  296.95   15.80
 -13   3   2  276.64   14.88
  13  -3   2  274.91   15.01
 -13   3   2  283.36   15.63
 -13   3   2  274.52   16.68
 -13  -3  -2  263.87   15.88
 -13   3   2  279.39   16.29
 -13  -3   2  288.15   12.65
  13  -3  -2  250.07   15.74
 -13   3  -2  246.01   17.27
  13   3   2  270.44   14.24
 -13   3  -2  276.79   14.36
 -13   3  -2  250.11   15.46
 -13   3  -2  246.26   13.03
  13  -3  -2  239.01   15.75
 -13   3  -2  251.57   13.61
  13  -3  -2  219.52   15.92
  13   3   2  263.08   14.69
  13  -3  -2  266.04   17.10
  13   3   2  271.95   13.24
  13   3   2  296.52   12.50
  13   3   2  289.17   14.00
 -13  -3   2  272.31   12.41
 -13  -4  -2   33.93    9.46
  13  -4   2   20.82    8.42
 -13  -4  -2   25.52    8.94
 -13   4   2   16.25    7.96
 -13   4   2   27.44    8.64
 -13   4   2   23.17    8.70
 -13   4   2   21.78    8.15
  13  -4   2   29.45    8.58
  13  -4   2   13.58    7.43
  13  -4  -2   29.59    9.92
 -13   4  -2   20.12    7.28
  13   4   2   14.44    7.79
  13  -4  -2   38.10    9.83
 -13  -4   2   31.46    6.03
 -13  -4   2   25.82    6.03
 -13   4  -2   18.92    9.43
  13  -4  -2   12.08    8.31
 -13   4  -2   16.82    7.54
  13   4   2   19.46    6.53
 -13   4  -2   22.75    8.11
  13  -5   2   72.63   12.20
 -13   5   2   68.24   12.54
 -13  -5  -2   49.77   11.28
  13  -5   2   70.74   11.93
 -13   5   2   52.90   11.11
  13   5  -2   60.06   11.81
 -13  -5  -2   67.00   12.70
  13  -5   2   74.45   11.17
 -13   5   2   63.53   12.66
 -13   5  -2   39.71   13.44
  13   5   2   82.08   11.92
 -13   5  -2   65.06   11.83
  13  -5  -2   69.82   13.16
  13  -5  -2   53.21   12.69
 -13   5  -2   49.96   11.66
 -13   5  -2   74.94   11.15
  13  -5  -2   60.71   13.20
  13   5   2   74.27   11.41
  13   6  -2   50.13   12.87
 -13   6   2   20.63   10.09
  13  -6   2    5.75    9.54
 -13   6   2   19.71   11.82
  13  -6   2   17.03   10.47
  13  -6   2   22.57    9.56
 -13   6   2   27.55   11.45
 -13  -6  -2    7.25    9.93
 -13  -6  -2   18.54   10.51
  13   6   2   38.82   10.21
 -13   6  -2   52.95   15.67
  13   6   2   23.11   10.12
 -13   6  -2   32.05   11.27
  13  -6  -2   16.39   11.94
 -13   6  -2   38.44   11.11
  13  -6  -2   14.51   11.42
  13  -6  -2   26.09   11.96
 -13   6  -2   33.39    9.60
  13   0   3    9.85    6.92
 -13   0  -3    8.04    6.55
  13   0   3    5.69    6.16
  13   0   3    8.28    6.11
 -13   0   3    6.59    4.73
  13   0  -3    5.72    5.45
 -13   0   3   -2.52    5.52
 -13   0  -3    9.55    6.47
  13   0   3    6.88    6.61
 -13   0  -3   -2.50    4.77
 -13   0  -3   -3.31    5.82
  13   0  -3    0.20    5.34
  13   0  -3    3.93    5.80
 -13   0   3    3.10    5.63
 -13   0   3    2.45    6.09
  13   0  -3    8.35    5.42
 -13   1   3 2008.63   49.25
 -13   1   3 2034.03   50.19
 -13  -1  -3 1997.55   50.42
  13  -1   3 1976.30   47.41
  13   1  -3 1970.21   45.61
  13   1  -3 1990.68   47.49
  13  -1   3 2031.91   49.98
  13   1  -3 2023.41   46.15
 -13  -1  -3 1897.70   46.01
  13   1  -3 2016.79   46.26
  13  -1   3 1948.23   48.81
 -13   1   3 2015.20   50.14
 -13  -1  -3 2043.89   49.05
 -13   1   3 1926.31   47.04
 -13  -1  -3 2026.72   50.67
  13   1  -3 1956.72   44.50
  13  -1   3 1942.52   49.61
  13  -1  -3 1938.03   49.37
 -13  -1   3 2049.21   47.87
  13  -1  -3 2018.99   49.28
 -13  -1   3 1960.33   47.48
  13   1   3 1955.03   49.05
  13   1   3 1973.26   49.74
  13  -1  -3 2025.34   49.71
  13   1   3 2035.70   49.72
 -13   1  -3 2020.02   48.84
 -13   1  -3 1937.05   47.94
 -13   1  -3 1973.68   48.97
 -13  -1   3 1981.64   44.65
 -13   1  -3 2044.55   48.71
  13  -1  -3 1996.93   49.49
  13   1   3 2011.04   48.70
  13   2  -3   51.78    6.91
 -13   2   3   62.03   10.10
 -13  -2  -3   45.36    9.80
  13  -2   3   41.08    9.14
  13  -2   3   40.42   10.87
 -13   2   3   40.73    9.51
 -13   2   3   50.98    8.54
  13   2  -3   70.42    8.90
 -13  -2  -3   58.92   10.31
  13  -2   3   45.10    8.84
  13   2  -3   47.40    8.23
  13  -2   3   62.06   10.29
 -13  -2  -3   48.96    8.85
 -13   2  -3   42.59    8.08
  13  -2  -3   56.99   10.51
 -13   2  -3   47.34    8.87
  13   2   3   54.46    9.70
  13  -2  -3   62.24   10.39
  13  -2  -3   61.84   10.35
  13   2   3   57.03    9.66
 -13   2  -3   47.77    8.42
  13   2   3   55.02    5.77
 -13  -2   3   45.52    7.86
 -13   2  -3   53.52   10.92
 -13  -2   3   52.44    7.97
 -13   2  -3   56.14    8.89
  13  -2  -3   63.40   10.61
  13   2   3   50.19    9.52
  13   2   3   48.67    9.39
  13  -3   3 1261.12   35.54
  13  -3   3 1228.31   36.54
 -13   3   3 1197.09   35.74
 -13  -3  -3 1263.95   38.46
  13   3  -3 1244.49   37.70
  13  -3   3 1277.95   36.66
 -13   3   3 1235.25   37.57
 -13  -3  -3 1255.20   38.26
  13   3  -3 1193.42   31.15
 -13   3   3 1233.00   38.10
 -13   3  -3 1166.95   40.93
  13  -3  -3 1224.92   38.71
  13   3   3 1217.99   35.04
 -13  -3   3 1226.22   31.76
  13   3   3 1240.95   35.95
 -13   3  -3 1234.69   36.76
  13   3   3 1226.52   31.61
  13  -3  -3 1294.39   38.31
  13  -3  -3 1278.67   39.32
 -13  -3   3 1233.38   31.72
 -13   3  -3 1256.61   34.42
 -13   3  -3 1248.87   34.72
  13  -3  -3 1183.15   37.00
  13   3   3 1257.16   35.64
  13   3   3 1169.13   35.40
 -13   4   3   75.12   12.02
 -13   4   3   55.47   10.43
 -13   4   3   79.85   12.29
  13  -4   3   81.68   11.58
  13  -4   3   78.43   12.15
 -13  -4  -3   86.18   12.82
  13  -4   3   84.54   12.10
 -13   4   3   94.64   17.11
 -13  -4  -3   58.12   12.11
  13   4  -3   67.05   12.83
 -13   4  -3   71.83   10.40
  13  -4  -3  102.20   14.70
 -13   4  -3   63.24   13.48
 -13  -4   3   89.34    8.72
  13   4   3   86.78   11.90
  13  -4  -3   61.02   12.21
 -13  -4   3   75.43    9.38
 -13   4  -3   73.02   12.12
 -13   4  -3   77.89   11.29
  13   4   3   64.01    9.36
  13  -4  -3   65.77   13.05
 -13  -5  -3  448.73   24.83
 -13   5   3  447.42   23.60
 -13   5   3  410.62   24.63
 -13  -5  -3  479.53   25.30
  13  -5   3  433.54   20.54
  13  -5   3  398.24   22.03
  13  -5   3  421.51   21.90
 -13   5   3  415.08   23.70
 -13   5  -3  404.27   22.82
 -13   5  -3  457.98   23.58
  13   5   3  463.91   22.30
  13  -5  -3  423.58   24.73
  13   5   3  457.91   21.64
 -13   5  -3  400.93   27.86
  13  -5  -3  485.53   26.85
 -13   5  -3  430.11   20.19
  13  -5  -3  446.23   26.37
 -13  -6  -3  132.24   17.81
 -13   6   3   93.80   15.31
  13  -6   3   96.88   14.73
 -13   6   3  104.74   17.28
 -13  -6  -3  116.41   17.69
 -13   6   3   87.38   14.95
  13   6   3   87.19   13.91
 -13   6  -3   98.68   15.82
  13   6   3   93.22   14.40
  13  -6  -3   87.24   16.29
  13  -6  -3  121.35   17.65
 -13   6  -3   63.36   13.19
 -13   6  -3   73.28   11.56
 -13   6  -3  103.20   20.74
  13  -6  -3  122.50   18.69
 -13   0   4   -4.41    6.16
 -13   0  -4    0.62    7.05
  13   0  -4   -2.44    5.50
  13   0  -4   -7.78    5.46
 -13   0   4   -2.62    5.17
  13   0   4   -3.73    5.62
 -13   0  -4    0.94    7.11
 -13   0   4    6.25    6.57
  13   0   4    6.29    7.36
  13   0   4    6.54    7.32
  13   0   4    7.22    7.42
  13   0  -4   -6.09    2.81
  13   0  -4   -6.78    5.32
 -13   0  -4    1.34    6.74
 -13   0   4    8.09    6.97
  13   0  -4   10.16    7.02
 -13   0  -4   -0.38    5.88
  13   1  -4  217.69   11.48
 -13  -1  -4  222.58   16.12
 -13   1   4  210.96   13.47
 -13   1   4  204.35   15.41
  13  -1   4  224.51   15.60
 -13  -1  -4  240.72   15.47
 -13   1   4  203.46   15.85
  13   1  -4  214.65   12.20
 -13  -1  -4  217.72   16.26
  13   1  -4  236.68   14.72
  13  -1   4  207.75   15.46
  13   1  -4  224.72   13.11
  13  -1   4  169.68   14.96
  13   1  -4  234.67   13.13
  13  -1   4  218.79   13.59
 -13   1   4  206.95   16.06
  13  -1  -4  262.71   16.11
 -13   1  -4  216.52   15.14
 -13  -1   4  201.74   14.13
  13   1   4  211.20   14.71
 -13  -1   4  208.10   13.65
 -13   1  -4  244.65   15.20
 -13  -1   4  203.65   14.04
  13  -1  -4  215.92   15.70
  13   1   4  219.78   16.22
 -13   1  -4  246.28   15.06
 -13   1  -4  246.27   15.09
  13  -1  -4  231.38   15.73
  13   1   4  210.16   15.62
  13   1   4  202.99   15.94
  13  -1  -4  235.61   15.83
  13  -2   4   48.69    9.97
 -13   2   4   46.89   10.21
 -13   2   4   40.69    8.56
  13  -2   4   56.80   11.19
  13   2  -4   48.86    9.08
  13   2  -4   53.20    9.13
  13  -2   4   63.20   10.60
 -13   2   4   42.28   10.77
 -13   2   4   54.77   10.89
 -13  -2  -4   45.73   10.51
 -13  -2  -4   66.73   10.72
 -13  -2  -4   50.82   10.94
  13  -2  -4   68.68   11.82
 -13   2  -4   59.62   13.18
 -13   2  -4   49.81    8.92
  13   2   4   47.27    9.58
  13  -2  -4   58.44   11.05
 -13   2  -4   41.58    8.69
  13   2   4   58.15   10.82
  13   2   4   49.71   10.31
  13  -2  -4   50.47   11.09
 -13   2  -4   38.68    9.01
 -13  -2   4   55.02    9.02
  13  -2  -4   52.70   11.20
 -13   2  -4   46.22    9.27
 -13  -2   4   43.96    8.44
  13   2   4   58.41   11.11
  13  -3   4   50.72   10.13
  13  -3   4   65.90   11.71
 -13   3   4   63.58   11.22
  13  -3   4   60.66   11.50
  13   3  -4   47.81    8.77
 -13  -3  -4   55.02   12.09
 -13   3   4   50.78   12.02
  13   3  -4   66.58   11.54
 -13  -3  -4   52.79   12.34
 -13   3   4   70.42   12.32
 -13   3   4   64.70   12.57
 -13   3  -4   49.31   10.17
  13   3   4   70.89   11.78
  13   3   4   68.33   11.45
  13  -3  -4   55.91   12.04
  13  -3  -4   58.20   12.63
  13   3   4   65.19   11.25
 -13   3  -4   47.11   13.09
  13  -3  -4   42.61   11.64
  13   3   4   65.15   11.70
  13  -3  -4   41.01   10.82
 -13  -3   4   72.44    9.42
 -13   3  -4   36.48    8.86
  13   3   4   53.85    7.85
 -13  -3   4   67.71    9.31
 -13   4   4   40.01   11.24
  13   4  -4   42.83   12.08
 -13  -4  -4   27.78   11.25
  13  -4   4   28.14   10.06
  13  -4   4   44.51   10.83
 -13   4   4   30.63   12.49
 -13  -4  -4   63.11   13.32
 -13   4   4   57.28   12.53
  13  -4   4   25.47    9.31
  13  -4  -4   44.88   12.13
 -13   4  -4   24.06   12.64
  13   4   4   84.53   13.70
  13   4   4   38.89    8.38
 -13   4  -4   35.36    9.20
 -13   4  -4   39.71   10.23
 -13  -4   4   33.20    7.54
  13  -4  -4   64.39   13.49
  13  -4  -4   41.70   13.07
 -13   4  -4   53.16   11.25
 -13  -5  -4   22.86   13.15
  13  -5   4   32.64    9.70
 -13   5   4   51.05   12.17
  13  -5   4   49.67   11.87
 -13  -5  -4   29.45   12.54
  13   5  -4   17.37   12.58
 -13   5   4   35.59   12.52
 -13   5   4   29.82   12.50
  13  -5   4   31.97   11.05
  13  -5  -4   30.53   13.37
  13  -5  -4   18.83   11.52
 -13   5  -4   34.43    9.79
  13   5   4   49.22   12.39
 -13   5  -4   39.51   12.10
 -13   5  -4   54.94   15.78
 -13   5  -4   29.88   11.10
  13  -5  -4   48.61   14.43
 -13   0   5    7.80    7.38
  13   0  -5   -0.71    6.40
 -13   0  -5   13.71    8.19
 -13   0   5   -1.33    7.17
  13   0   5    6.74    8.81
  13   0   5    4.58    6.73
  13   0   5   18.84    8.99
  13   0  -5    7.07    7.22
 -13   0  -5    2.64    7.87
  13   0   5    4.75    8.16
 -13   0  -5   10.37    7.46
  13   0  -5   11.42    8.49
  13   0  -5   12.94    7.35
 -13   0   5   11.94    8.27
 -13   1   5  775.16   30.28
  13   1  -5  788.09   25.30
  13  -1   5  785.86   30.55
  13   1  -5  770.16   27.43
  13  -1   5  801.42   30.62
  13   1  -5  783.28   28.48
 -13   1   5  812.98   30.04
 -13   1   5  800.09   30.71
 -13   1   5  817.98   27.60
  13  -1   5  818.08   29.99
 -13  -1  -5  793.53   31.12
 -13  -1  -5  794.75   29.79
 -13  -1  -5  803.46   30.68
  13   1  -5  794.74   26.71
 -13  -1   5  767.22   28.38
 -13   1  -5  742.35   28.43
  13   1   5  813.49   31.36
  13   1   5  795.86   29.26
 -13  -1   5  787.53   27.83
 -13  -1   5  796.59   28.79
  13   1   5  809.70   30.89
  13  -1  -5  754.25   29.91
  13  -1  -5  787.69   29.57
 -13   1  -5  769.44   28.29
  13   1   5  808.81   31.33
  13  -1  -5  777.92   29.42
  13  -1  -5  786.02   30.13
 -13   1  -5  760.51   29.03
 -13   1  -5  800.16   28.99
  13   2  -5   61.59   10.08
 -13  -2  -5   61.95   12.51
 -13   2   5   68.79   12.87
 -13  -2  -5   76.24   13.89
  13   2  -5   54.96   10.12
  13  -2   5   63.30   12.10
  13  -2   5   64.68   12.44
 -13   2   5   78.15   13.27
 -13   2   5   66.16   13.00
 -13  -2  -5   67.42   12.84
 -13   2   5   67.13   11.21
  13  -2   5   53.54   11.22
  13  -2  -5   59.13   12.55
 -13   2  -5   55.79   11.34
  13  -2  -5   54.89   12.50
 -13   2  -5   69.66   15.22
  13   2   5   64.14   12.53
  13  -2  -5   40.28   11.10
  13  -2  -5   55.83   11.47
 -13  -2   5   55.98   10.28
  13   2   5   58.53   12.47
 -13  -2   5   68.38   10.07
  13   2   5   81.82   13.40
 -13  -2   5   67.49   11.15
 -13   2  -5   56.27   10.46
  13   2   5   83.27   12.67
 -13  -3  -5  672.03   31.14
 -13   3   5  691.51   30.75
  13   3  -5  666.94   28.56
 -13   3   5  646.79   30.26
  13  -3   5  711.72   27.84
 -13  -3  -5  658.85   31.08
  13  -3   5  688.64   28.65
  13  -3   5  701.23   29.57
 -13   3   5  696.40   30.41
 -13   3   5  681.13   28.12
  13   3  -5  670.38   24.45
  13  -3  -5  654.34   36.98
 -13   3  -5  670.35   28.92
 -13   3  -5  651.15   34.43
  13   3   5  638.29   28.98
  13   3   5  664.85   29.61
  13  -3  -5  643.93   31.24
 -13  -3   5  655.40   24.71
  13   3   5  678.48   28.69
  13   3   5  679.82   28.65
 -13  -3   5  694.69   24.90
 -13   3  -5  659.19   26.37
  13  -3  -5  729.43   32.19
  13  -3  -5  720.45   31.26
 -13  -4  -5   53.86   14.29
  13   4  -5   44.03   12.39
 -13  -4  -5   49.65   14.24
 -13   4   5   66.68   14.16
  13  -4   5   47.77   12.32
  13  -4   5   28.47   10.92
  13  -4   5   50.09   10.78
 -13   4   5   67.19   13.97
 -13   4  -5   38.05   15.02
  13   4   5   63.13   12.55
  13  -4  -5   75.33   14.74
 -13   4  -5   42.93   12.01
  13  -4  -5   56.80   14.88
 -13  -4   5   50.79    9.64
  13  -4  -5   42.11   13.46
 -13   4  -5   33.65    9.81
 -13  -5  -5  306.54   28.98
 -13   5   5  317.33   23.36
 -13  -5  -5  264.30   28.52
  13  -5   5  245.20   20.73
  13  -5   5  273.56   20.91
  13   5  -5  270.10   23.82
  13  -5   5  292.69   18.97
  13  -5  -5  317.32   28.15
 -13   5  -5  272.65   18.49
 -13   5  -5  292.62   22.90
 -13   5  -5  276.43   29.51
  13   5   5  297.97   21.80
  13  -5  -5  292.29   28.25
  13  -5  -5  313.14   29.56
 -13   0   6    0.02    8.18
  13   0  -6   -4.09    9.14
  13   0   6  -12.15    9.01
 -13   0   6   -6.96    8.75
  13   0   6   -7.13    8.33
 -13   0   6   10.06    9.44
  13   0   6   -8.17    9.09
 -13   0  -6   -1.23    8.26
 -13   0  -6    2.15    8.05
  13   0  -6    3.41    7.18
 -13   0  -6   -1.96    7.89
  13   0  -6   -1.90    6.92
 -13   1   6   73.78   14.23
  13   1  -6   56.57   12.10
 -13  -1  -6   56.49   12.74
 -13   1   6   61.45   13.63
  13  -1   6   60.48   13.70
 -13  -1  -6   53.25   12.62
  13  -1   6   38.74   11.45
 -13  -1  -6   55.29   12.89
  13  -1   6   45.83   12.66
 -13   1   6   18.39   10.31
  13  -1  -6   51.37   11.99
 -13   1  -6   63.34   12.63
  13  -1  -6   43.06   13.06
 -13  -1   6   40.64   10.35
 -13  -1   6   58.09   12.36
  13   1   6   47.44   12.64
  13  -1  -6   42.53   11.31
  13   1   6   53.47   13.00
  13  -1  -6   51.55   12.14
 -13  -1   6   39.45   11.33
 -13   1  -6   55.04   11.49
  13   1   6   38.60   11.64
  13   1   6   44.64   13.09
 -13  -2  -6   19.95   11.79
  13  -2   6   21.13   11.19
  13   2  -6   11.88    9.36
 -13   2   6   20.79   11.89
  13  -2   6    7.64    9.29
 -13   2   6   18.11   11.09
 -13   2   6    6.86    8.41
 -13   2   6   36.46   12.30
 -13  -2  -6   11.79   10.87
  13  -2   6   10.92   10.17
 -13  -2  -6   26.11   11.73
 -13  -2   6   18.70    9.39
 -13  -2   6   13.54    8.61
 -13   2  -6   13.83    9.28
  13   2   6   11.27   11.18
 -13   2  -6   16.09   11.60
  13   2   6   23.62   11.24
  13  -2  -6   40.59   12.56
  13  -2  -6   -4.33    8.46
  13  -2  -6   32.76   11.94
  13   2   6   20.27   10.06
 -13  -2   6   35.77   10.74
  13   2   6   19.39   11.43
  13  -2  -6   21.79   11.22
 -13  -3  -6   35.34   13.40
 -13  -3  -6    8.08   11.46
  13   3  -6   31.04   10.90
  13  -3   6   23.02   12.14
  13   3  -6   28.74    9.81
 -13   3   6   20.69   12.35
  13  -3   6   14.47   10.84
  13  -3   6   31.46   11.09
 -13   3   6   33.54   10.65
 -13   3   6   15.67   12.19
 -13   3   6   18.84   12.49
 -13  -3   6   16.27    8.98
 -13   3  -6   22.62    9.80
  13   3   6   49.00   13.11
  13  -3  -6   24.86   12.15
  13   3   6   27.43   12.15
 -13   3  -6   33.39   14.50
  13  -3  -6   20.72   12.54
 -13  -3   6   17.53    9.67
  13   3   6   27.35   10.84
  13  -3  -6   27.02   12.98
  13   3   6   19.79   11.40
 -13  -4  -6    9.36   12.98
  13  -4   6   20.30   10.86
 -13  -4  -6    2.97   11.79
  13  -4   6   -1.40    9.08
  13   4  -6    1.13    9.18
 -13   4   6    4.37   10.62
 -13   4   6   -4.78   11.46
  13  -4   6   -8.92    9.14
 -13   4   6   14.55   11.68
 -13   4  -6   -0.41    8.91
  13  -4  -6    5.52   12.54
  13  -4  -6   14.69   13.70
  13  -4  -6    9.97   12.33
 -13  -4   6    0.67    8.30
  13   4   6    3.60    9.94
 -13   4  -6   -8.99   12.00
 -13   0   7   25.37   11.79
 -13   0  -7    9.10   10.30
  13   0   7    1.41   11.16
 -13   0   7   12.16   10.69
 -13   0  -7   15.42    9.90
 -13   0   7   12.65   10.33
  13   0   7    9.30   11.24
  13   0   7   38.16   12.78
 -13   0  -7    7.02   12.19
  13   0  -7   -5.29   10.08
 -13   1   7  366.01   26.26
  13  -1   7  408.10   25.93
 -13  -1  -7  422.92   27.68
 -13   1   7  413.74   26.20
  13  -1   7  390.11   26.48
  13  -1   7  414.70   27.39
 -13  -1  -7  404.33   26.59
 -13  -1  -7  382.03   25.60
  13   1  -7  465.48   26.22
 -13   1   7  441.41   27.57
 -13   1  -7  417.33   29.92
  13  -1  -7  391.14   24.95
  13   1   7  396.98   26.72
 -13   1  -7  420.54   25.19
 -13  -1   7  465.24   26.15
  13   1   7  401.34   27.12
  13  -1  -7  391.06   25.13
 -13  -1   7  422.97   24.23
  13  -1  -7  434.02   27.24
 -13  -1   7  406.28   25.68
  13   1   7  455.17   29.18
  13  -2   7   13.13   11.57
  13  -2   7   -4.51   10.73
 -13   2   7   38.35   14.28
 -13   2   7   32.32   13.50
  13  -2   7   18.29   11.59
 -13   2   7   32.75   12.78
 -13  -2  -7   24.50   12.95
 -13  -2  -7   18.67   12.70
  13   2  -7   20.97   10.62
 -13  -2   7   17.59   10.34
  13  -2  -7   44.67   13.22
 -13   2  -7    5.52   10.81
  13  -2  -7   15.81   11.18
  13   2   7   13.29   12.04
 -13   2  -7   11.31   10.45
  13   2   7   47.49   14.22
  13   2   7   17.47   12.07
 -13  -2   7   23.46   10.42
  13  -2  -7   21.28   11.95
  13  -2  -7   12.35   11.53
  13   2   7   21.18   10.83
 -13  -2   7   20.13   10.80
  13   3  -7  347.46   22.07
 -13  -3  -7  318.05   26.95
  13  -3   7  303.23   24.71
 -13   3  -7  302.69   22.15
 -13   3  -7  310.79   29.22
  14   0   0    1.39    5.83
  14   0   0    0.21    5.08
 -14   0   0    6.30    5.75
  14   0   0    2.43    4.84
 -14   0   0    0.56    3.79
 -14   0   0   -1.63    4.25
  14   0   0   -4.96    4.73
 -14   0   0   -1.40    5.42
  14  -1   0    5.27    6.01
 -14  -1   0   -2.75    4.24
 -14  -1   0   -2.70    5.22
 -14  -1   0    3.51    3.40
 -14   1   0   -0.66    4.29
 -14  -1   0   -7.50    4.72
  14   1   0    0.12    4.55
 -14   1   0    3.19    4.38
  14  -1   0   -3.41    5.14
  14   1   0    3.85    4.64
 -14   1   0    0.77    5.20
 -14   1   0    0.15    4.00
  14   1   0    3.52    5.41
  14   1   0    1.66    4.67
  14  -1   0    5.40    5.50
  14  -1   0    2.52    5.71
 -14   1   0    5.49    5.57
  14   2   0   43.13    6.22
 -14  -2   0   43.75    7.46
  14  -2   0   37.91    7.42
 -14   2   0   38.02    6.59
  14  -2   0   35.87    8.03
 -14   2   0   33.83    6.63
 -14   2   0   35.55    7.80
  14  -2   0   23.15    6.93
 -14   2   0   36.24    7.67
 -14  -2   0   36.92    3.84
 -14  -2   0   36.96    7.26
  14  -2   0   29.51    7.50
 -14   2   0   30.62    6.00
  14   2   0   41.15    5.80
 -14  -2   0   49.99    6.48
  14   2   0   41.26    6.53
 -14   2   0   26.25    6.75
  14   2   0   37.27    7.26
 -14  -3   0    5.98    5.83
  14   3   0   -3.28    4.42
 -14   3   0    3.32    5.45
  14  -3   0    2.90    6.59
  14  -3   0    5.56    6.75
 -14   3   0    0.04    5.57
 -14  -3   0    1.32    5.45
 -14   3   0   -4.90    5.72
  14  -3   0    8.43    6.55
  14   3   0    2.15    5.09
 -14   3   0   10.07    6.52
 -14   3   0    0.09    5.34
 -14   3   0   -1.75    5.55
  14   3   0    7.90    5.51
  14  -3   0    9.63    7.63
 -14   4   0    9.76    7.05
 -14   4   0    3.58    7.38
 -14  -4   0    5.10    6.50
 -14   4   0    2.63    6.15
  14   4   0   -1.72    5.53
 -14   4   0    0.21    6.53
  14  -4   0   -7.71    6.32
 -14  -4   0    4.35    5.79
  14   4   0    4.86    5.94
  14  -4   0   -7.67    6.39
  14  -4   0   -0.32    7.23
  14  -5   0   -1.48    7.53
  14   5   0   -0.58    6.82
 -14   5   0    9.00    7.80
 -14  -5   0   -8.25    5.75
  14  -5   0   -9.49    7.65
 -14   5   0   -7.44    7.93
 -14   5   0  -19.45    7.30
 -14  -5   0    0.84    6.65
  14  -5   0   -4.77    8.14
 -14   5   0    2.60    7.90
 -14   6   0    0.51    9.90
  14   6   0   20.20   10.10
  14  -6   0    4.49    9.81
 -14   6   0   18.59   10.94
 -14   6   0   13.05    9.48
  14  -6   0   27.88   10.51
  14  -6   0    7.60   10.02
 -14   6   0   17.25    9.96
 -14   0   1 3044.26   65.19
 -14   0  -1 3119.75   67.97
  14   0  -1 3053.21   66.28
 -14   0   1 3015.67   64.59
 -14   0  -1 3092.24   65.03
  14   0   1 2999.88   66.78
  14   0   1 2970.36   67.14
 -14   0  -1 3219.65   68.20
  14   0   1 2948.97   66.92
 -14   0   1 3098.15   67.26
  14   0  -1 3100.28   66.84
  14   0   1 2928.07   66.53
  14   0  -1 3141.93   66.87
 -14   0  -1 3106.40   66.07
  14   0  -1 3098.02   66.88
 -14   0   1 3003.98   66.96
  14   1  -1   24.33    5.71
  14   1  -1   15.38    5.57
 -14   1   1    5.15    5.84
  14   1  -1   22.03    5.49
  14  -1   1   35.00    7.20
 -14   1   1   21.62    5.62
 -14   1   1   22.06    6.97
  14  -1   1   29.83    6.96
  14   1  -1   25.29    5.90
  14  -1   1   35.65    7.22
  14  -1   1   33.93    7.19
 -14  -1  -1   28.20    6.98
 -14  -1  -1   22.71    4.55
 -14   1   1   22.43    5.76
 -14  -1  -1   16.79    6.54
 -14  -1  -1   21.75    5.91
  14   1   1   19.18    6.13
  14  -1  -1   16.08    6.25
  14  -1  -1   12.69    5.94
 -14  -1   1   22.78    6.03
 -14   1  -1   26.27    3.68
  14   1   1   24.72    6.45
 -14   1  -1   24.53    5.87
 -14  -1   1   31.37    5.69
 -14  -1   1   18.50    4.32
 -14   1  -1   27.87    6.12
 -14   1  -1   23.61    6.76
 -14   1  -1   11.90    6.24
  14  -1  -1   18.68    6.38
  14   1   1   18.58    6.08
  14   1   1   22.35    6.43
  14  -1  -1   19.82    6.54
 -14  -1   1   25.89    6.34
 -14   2   1 2067.35   44.39
 -14   2   1 2098.79   50.85
  14   2  -1 2094.15   45.00
 -14   2   1 2179.14   50.89
  14  -2   1 2071.41   50.53
  14   2  -1 2002.41   46.04
  14   2  -1 2115.88   44.03
 -14  -2  -1 2122.05   49.94
  14  -2   1 2077.62   48.90
 -14   2   1 2069.81   49.58
  14  -2   1 2110.30   50.09
 -14   2   1 2049.28   48.55
 -14  -2  -1 2094.23   47.02
  14   2  -1 2067.90   45.89
  14  -2   1 2012.01   50.18
 -14  -2  -1 2024.28   43.08
 -14  -2  -1 2075.43   49.84
  14   2  -1 2115.94   47.58
  14   2   1 2090.81   47.80
 -14  -2   1 2096.74   47.74
  14  -2  -1 2114.69   50.26
 -14   2  -1 2108.94   49.59
  14  -2  -1 2053.05   50.11
  14   2   1 2105.31   47.30
 -14   2  -1 2074.85   46.14
  14  -2  -1 2176.84   51.19
  14   2   1 2090.23   47.78
  14   2   1 2034.73   48.15
  14   2   1 2039.46   43.92
 -14  -2   1 2091.08   43.08
 -14   2  -1 2101.55   49.89
 -14   2  -1 2034.14   48.49
 -14   2  -1 2087.37   49.15
 -14  -2   1 2087.12   47.98
 -14  -2   1 2076.98   47.89
  14  -2  -1 2114.15   50.77
 -14  -2   1 2080.70   47.70
 -14   2  -1 2072.71   50.60
 -14  -3  -1   40.20    8.10
 -14   3   1   39.29    8.32
 -14   3   1   36.70    8.71
  14   3  -1   32.39    6.82
 -14   3   1   25.61    7.95
  14  -3   1   41.35    8.69
 -14   3   1   27.19    7.70
 -14   3   1   33.00    7.66
 -14   3   1   35.00    6.63
 -14   3   1   47.12    8.53
  14  -3   1   52.45    9.86
 -14   3   1   32.79    8.43
 -14  -3  -1   38.19    7.96
  14  -3   1   30.10    8.12
  14  -3  -1   19.93    7.76
 -14  -3   1   41.03    7.07
  14  -3  -1   30.53    8.43
  14   3   1   30.52    6.55
 -14   3  -1   30.42    7.11
  14   3   1   33.77    6.05
 -14  -3   1   38.52    7.22
  14  -3  -1   29.64    7.81
 -14   3  -1   29.33    7.62
 -14   3  -1   39.69    8.30
 -14   3  -1   35.00    7.73
  14   3   1   33.41    7.34
  14   3   1   29.66    6.10
 -14   3  -1   33.28    6.84
  14  -3  -1   30.05    8.58
 -14   3  -1   25.52    8.43
  14  -4   1  797.61   28.47
 -14   4   1  771.86   28.39
  14   4  -1  869.79   28.22
  14  -4   1  817.48   27.82
 -14   4   1  811.97   27.12
 -14   4   1  783.69   27.05
 -14   4   1  800.88   28.85
 -14  -4  -1  834.77   27.62
 -14  -4  -1  802.03   27.20
  14  -4   1  817.19   28.63
 -14   4   1  793.35   27.39
  14  -4  -1  816.12   28.93
  14   4   1  799.52   26.16
 -14   4  -1  827.53   26.79
  14   4   1  802.75   25.20
 -14   4  -1  830.72   31.04
 -14  -4   1  774.32   23.83
 -14   4  -1  799.56   27.88
 -14   4  -1  808.98   28.67
 -14  -4   1  821.25   24.38
  14  -4  -1  790.38   29.24
  14  -4  -1  865.33   30.19
 -14  -5  -1  133.03   13.95
 -14   5   1  151.18   15.05
 -14   5   1  134.37   16.20
 -14  -5  -1  117.10   12.90
  14  -5   1  175.29   15.98
  14  -5   1  155.77   15.98
  14  -5   1  138.28   15.63
 -14   5   1  152.14   16.00
  14   5  -1  120.21   13.93
  14   5   1  122.08   13.65
  14  -5  -1  156.78   16.18
 -14   5  -1  130.72   14.83
 -14   5  -1  126.73   17.39
  14  -5  -1  142.73   16.08
 -14  -5   1  125.24   10.98
  14  -5  -1  126.78   15.54
 -14   5  -1  155.79   14.60
  14   5   1  139.77   12.75
 -14   5  -1  156.17   16.28
  14   6  -1  313.38   21.68
  14  -6   1  309.54   20.77
 -14   6   1  250.81   22.05
  14  -6   1  264.44   18.46
 -14   6   1  293.79   21.27
  14  -6   1  317.42   21.88
 -14   6   1  315.09   20.03
 -14  -6  -1  309.67   19.39
 -14   6  -1  262.11   24.60
 -14   6  -1  315.79   21.03
  14  -6  -1  299.60   21.24
 -14   6  -1  290.11   22.37
 -14   6  -1  333.50   19.22
  14  -6  -1  281.06   22.15
  14  -6  -1  323.84   23.01
  14   6   1  310.99   21.20
 -14   0  -2  340.27   16.12
  14   0  -2  358.03   15.14
 -14   0  -2  345.33   16.39
  14   0   2  355.68   16.37
  14   0  -2  344.26   15.47
  14   0   2  340.40   15.84
  14   0  -2  337.12   14.79
 -14   0   2  350.60   14.00
 -14   0   2  355.61   16.05
  14   0   2  344.58   16.20
 -14   0  -2  339.39   14.12
 -14   0  -2  335.07   15.30
  14   0  -2  353.24   15.56
 -14   0   2  359.22   16.06
  14   0   2  343.87   15.40
  14  -1   2   45.00    7.44
 -14  -1  -2   42.93    6.19
 -14   1   2   37.44    7.86
  14  -1   2   36.61    8.20
  14   1  -2   30.10    6.78
 -14   1   2   31.49    6.16
 -14  -1  -2   35.89    8.00
  14  -1   2   24.25    7.48
  14   1  -2   38.53    6.65
 -14  -1  -2   25.95    6.51
  14   1  -2   38.35    6.66
 -14   1   2   26.56    7.49
 -14  -1  -2   38.59    8.20
  14  -1   2   33.55    7.81
  14   1  -2   37.31    6.63
 -14  -1   2   44.78    6.44
  14  -1  -2   28.26    7.94
 -14   1  -2   31.10    6.96
  14  -1  -2   36.49    7.75
  14   1   2   40.94    7.98
  14  -1  -2   20.79    6.96
  14   1   2   27.73    7.31
  14  -1  -2   36.79    7.86
 -14  -1   2   32.44    7.06
 -14   1  -2   34.02    7.48
 -14   1  -2   31.17    7.43
  14   1   2   33.35    7.72
  14   1   2   32.43    7.25
 -14   1  -2   42.02    7.36
 -14  -1   2   34.24    7.23
 -14  -2  -2    1.82    6.59
 -14   2   2   -6.11    6.07
  14   2  -2   -0.76    4.84
 -14  -2  -2    1.91    6.83
  14   2  -2    7.77    4.23
  14  -2   2   -5.10    5.86
  14   2  -2    5.00    3.70
 -14   2   2    3.31    6.70
  14  -2   2    6.68    5.56
  14   2  -2    4.51    4.06
 -14   2   2  -10.43    5.02
 -14  -2  -2   -1.96    5.19
  14   2  -2    0.47    4.18
  14  -2   2   -2.73    6.07
  14  -2   2    3.71    6.39
  14  -2  -2   -6.32    6.13
  14   2   2    2.49    2.89
  14   2   2   -1.95    5.60
 -14   2  -2    9.61    5.88
 -14   2  -2   -2.23    3.80
 -14   2  -2    8.94    5.94
  14  -2  -2   -5.40    5.58
  14  -2  -2    1.71    6.10
 -14   2  -2    2.63    5.67
  14  -2  -2    2.81    6.76
  14   2   2   -3.47    5.35
  14   2   2    1.71    5.54
 -14  -2   2    9.69    5.55
 -14   2  -2   -1.75    5.35
  14   2   2    9.61    6.53
 -14   2  -2    2.12    6.57
 -14  -2   2    0.70    5.06
 -14   3   2   60.88    9.66
  14  -3   2   80.37   10.59
 -14   3   2   83.87   11.95
 -14  -3  -2   69.14   10.86
 -14   3   2   66.10    9.72
  14  -3   2   73.53   10.78
  14  -3   2   78.98   10.91
 -14   3   2   80.60   11.04
 -14  -3  -2   78.34   11.25
 -14   3  -2   76.36   12.37
 -14  -3   2   69.46    8.29
  14  -3  -2   97.95   12.50
  14   3   2   85.24   10.12
  14   3   2   70.51    8.98
  14   3   2   68.26    9.79
 -14   3  -2   78.19    9.19
 -14   3  -2   68.54    8.74
  14  -3  -2   75.61   11.15
  14  -3  -2   81.64   11.65
  14   3   2   68.58    7.51
 -14   3  -2   73.55    9.75
 -14  -3   2   73.37    8.47
  14   3   2   82.00    9.28
 -14   3  -2   76.52   10.62
  14  -3  -2   69.63   10.67
 -14   4   2   44.17   10.22
 -14   4   2   45.46    9.77
  14  -4   2   36.47    9.78
  14  -4   2   31.60    8.64
 -14   4   2   28.05    8.72
 -14  -4  -2   15.46    9.02
 -14  -4  -2   49.27   10.47
  14  -4   2   32.54    9.34
 -14   4   2   48.28   10.50
 -14   4  -2   42.66   10.00
  14   4   2   40.68    7.71
 -14  -4   2   42.03    7.41
 -14   4  -2   40.23    9.13
  14   4   2   48.50    9.72
  14  -4  -2   32.57   10.05
 -14   4  -2   33.45    8.62
 -14   4  -2   58.90   12.55
  14  -4  -2   27.02   10.02
  14  -4  -2   42.54   10.82
 -14  -4   2   36.22    6.93
 -14   5   2    0.05    8.13
 -14   5   2    4.54    8.67
 -14   5   2   -8.67    8.22
 -14  -5  -2   -0.21    8.64
  14  -5   2   17.33    8.23
  14  -5   2    3.92    8.85
 -14  -5  -2    2.42    8.27
  14  -5   2   10.74    8.63
 -14   5  -2   -1.47    6.89
  14   5   2    3.14    7.85
  14  -5  -2    9.61    9.71
  14  -5  -2   -1.81    9.09
  14   5   2  -10.72    5.91
 -14   5  -2   13.89    8.85
 -14   5  -2    0.13   10.54
 -14   5  -2   11.09    8.79
  14  -5  -2   -0.55    8.74
  14  -6   2   11.99    9.75
 -14  -6  -2   18.75   10.83
 -14   6   2    7.89   10.59
  14  -6   2   10.58    8.53
 -14   6   2    6.03    9.69
  14  -6   2   12.43    9.84
 -14   6   2   13.09   10.15
 -14  -6  -2   13.58   10.80
 -14   6  -2   20.46   14.05
  14  -6  -2   -6.19   10.77
 -14   6  -2   -0.24    8.85
  14   6   2    8.60    8.79
 -14   6  -2   15.80   10.30
  14  -6  -2   20.94   11.95
  14  -6  -2   13.26   10.81
  14   6   2   13.46    9.29
 -14   6  -2    9.26    8.72
  14   0  -3 2655.00   59.05
  14   0  -3 2505.10   58.70
 -14   0  -3 2557.79   60.61
 -14   0   3 2584.97   60.26
  14   0   3 2517.53   60.47
 -14   0   3 2503.91   56.69
  14   0  -3 2553.05   58.41
 -14   0  -3 2588.28   59.41
  14   0   3 2514.09   58.89
  14   0  -3 2515.66   59.43
  14   0   3 2598.72   60.97
 -14   0  -3 2487.11   57.85
 -14   0  -3 2571.56   61.02
 -14   0   3 2497.03   59.66
  14   0   3 2544.93   60.21
  14   1  -3   34.91    6.94
 -14   1   3   47.03    9.21
 -14  -1  -3   34.26    9.12
 -14   1   3   39.04    8.99
  14  -1   3   37.73    9.11
 -14  -1  -3   44.13    7.35
  14  -1   3   51.39    9.48
  14   1  -3   27.82    7.44
 -14   1   3   34.63    6.63
 -14  -1  -3   31.42    8.68
  14   1  -3   39.40    7.22
  14   1  -3   32.20    6.98
  14   1  -3   38.62    5.87
  14  -1   3   21.54    7.86
 -14  -1  -3   42.22    8.90
  14  -1   3   28.79    7.42
 -14  -1   3   30.77    7.60
  14  -1  -3   29.54    8.27
  14   1   3   51.82    9.60
  14   1   3   23.88    7.86
 -14   1  -3   37.33    8.31
 -14   1  -3   46.54    9.08
  14   1   3   37.05    9.06
 -14  -1   3   35.44    7.98
  14  -1  -3   42.49    8.38
  14   1   3   30.50    8.29
 -14  -1   3   42.99    6.76
 -14   1  -3   34.52    8.16
 -14   1  -3   17.58    7.06
  14  -1  -3   34.10    8.09
  14  -1  -3   41.21    8.88
 -14   2   3 1374.05   39.81
 -14   2   3 1320.02   36.89
  14   2  -3 1350.26   36.43
 -14  -2  -3 1352.94   37.62
  14   2  -3 1380.57   35.32
  14  -2   3 1350.12   37.95
  14  -2   3 1371.57   39.06
 -14  -2  -3 1401.48   40.12
 -14  -2  -3 1388.07   40.07
  14  -2   3 1389.71   39.17
 -14   2   3 1345.71   39.64
 -14  -2   3 1375.12   35.52
  14   2   3 1372.14   37.96
 -14   2  -3 1328.07   37.84
 -14   2  -3 1397.19   36.71
  14  -2  -3 1436.00   40.19
  14  -2  -3 1423.07   40.46
  14   2   3 1320.49   30.77
  14   2   3 1381.84   38.26
 -14   2  -3 1330.87   36.76
 -14  -2   3 1354.44   35.45
  14   2   3 1336.72   37.53
  14  -2  -3 1397.82   39.53
  14   2   3 1323.79   37.86
 -14   2  -3 1379.66   37.19
  14  -2  -3 1339.52   39.02
 -14   2  -3 1297.67   42.29
 -14  -3  -3   20.08    8.82
  14  -3   3   19.67    8.47
 -14   3   3   29.92    9.57
 -14   3   3   31.98    8.45
  14   3  -3   37.35    7.36
  14  -3   3   21.75    8.99
 -14  -3  -3   57.14   10.69
  14   3  -3   13.41    7.27
 -14   3   3   27.22    8.98
  14  -3   3   17.77    8.35
  14  -3  -3   20.11    9.83
  14  -3  -3   19.37    8.99
  14   3   3   17.94    5.36
  14   3   3   27.68    8.06
  14   3   3   21.53    7.83
  14   3   3   22.24    7.85
 -14   3  -3   34.28    8.19
 -14  -3   3   15.74    6.48
 -14  -3   3   16.84    6.45
  14  -3  -3   19.59    8.28
 -14   3  -3   30.12   10.39
  14   3   3   16.83    7.50
 -14   3  -3   32.52    7.13
 -14   3  -3   34.68    8.59
  14  -3  -3   21.10    9.04
  14  -4   3  633.80   26.17
 -14   4   3  640.42   26.20
  14  -4   3  623.62   25.92
 -14   4   3  636.54   26.86
  14   4  -3  600.16   28.09
 -14   4   3  656.25   27.63
 -14  -4  -3  585.56   27.23
  14  -4   3  628.22   24.87
 -14  -4  -3  663.36   28.14
  14  -4  -3  633.66   28.62
  14  -4  -3  673.65   29.25
  14   4   3  662.63   25.69
 -14  -4   3  610.61   20.40
  14   4   3  631.50   22.56
 -14   4  -3  618.49   23.71
 -14   4  -3  623.04   30.91
  14  -4  -3  593.51   26.89
 -14   4  -3  624.54   26.27
 -14   4  -3  592.32   24.73
 -14  -4   3  617.66   20.78
 -14  -5  -3  105.63   15.88
  14  -5   3   76.64   11.98
  14  -5   3  112.15   14.96
  14  -5   3   79.59   12.86
 -14   5   3   89.69   13.66
 -14   5   3  101.24   14.45
 -14  -5  -3   99.07   15.26
 -14   5   3  103.08   16.10
 -14   5  -3   90.15   12.11
 -14   5  -3   84.62   17.50
  14   5   3   99.53   12.54
 -14   5  -3   92.11   14.17
  14   5   3   82.48   13.10
  14  -5  -3   89.71   15.70
  14  -5  -3   97.06   16.01
  14  -5  -3   99.86   15.35
 -14   5  -3   94.40   14.02
 -14   0  -4   37.03    8.20
 -14   0   4   36.24    7.37
 -14   0  -4   32.94    9.28
 -14   0  -4   49.00   10.23
  14   0  -4   40.55    8.60
 -14   0  -4   49.32   10.56
  14   0  -4   32.77    8.38
  14   0  -4   51.41   10.71
 -14   0   4   33.20    9.34
  14   0   4   48.29   10.44
  14   0   4   51.31   10.52
  14   0   4   46.32   10.10
  14   0   4   40.02    8.80
  14   0  -4   38.26    8.77
 -14   0   4   54.62    9.53
 -14   0   4   40.50    9.60
 -14   1   4   99.16   12.69
 -14   1   4   96.24   13.22
  14  -1   4   94.33   12.67
 -14   1   4   96.12   10.90
  14  -1   4  103.79   11.55
  14  -1   4  103.97   12.50
  14   1  -4   90.33   11.62
  14   1  -4  107.29   10.37
 -14  -1  -4   78.28   12.44
 -14   1   4   91.45   12.04
 -14  -1  -4  100.36   13.20
  14   1  -4   90.01    8.98
  14  -1   4   95.04   12.56
  14   1  -4  122.05   11.52
  14   1  -4  101.26   10.43
 -14  -1  -4  121.41   14.43
 -14   1  -4  109.51   12.20
  14   1   4  103.57   12.82
 -14   1  -4   85.93   11.16
 -14  -1   4   75.52   11.19
 -14   1  -4   93.36   11.72
  14   1   4  108.89   13.41
  14   1   4   89.18   12.45
  14  -1  -4  100.61   12.32
 -14  -1   4  100.52   11.24
  14   1   4   87.03   10.92
 -14  -1   4   87.69   11.51
  14  -1  -4  115.04   13.29
  14  -1  -4   76.79   12.22
  14  -1  -4   87.26   11.63
 -14   1  -4   88.08   11.93
  14   2  -4   72.65   10.29
  14  -2   4   39.37   10.46
 -14  -2  -4   64.98   12.09
 -14  -2  -4   50.50   11.42
  14  -2   4   54.64   10.75
  14   2  -4   66.83    9.50
 -14   2   4   50.70    9.73
 -14   2   4   53.16   11.37
 -14   2   4   66.37   12.04
  14  -2   4   52.13   10.30
 -14  -2  -4   54.48   10.40
 -14   2   4   52.21   11.72
  14   2   4   53.29   10.24
  14   2   4   50.96   10.62
  14  -2  -4   67.62   12.31
  14  -2  -4   74.37   12.36
  14   2   4   48.09   10.45
 -14   2  -4   60.52   10.48
 -14  -2   4   40.35    8.58
 -14   2  -4   60.44   10.54
 -14   2  -4   70.60   10.38
  14   2   4   53.90   11.16
  14  -2  -4   70.63   12.28
 -14   2  -4   58.69    9.79
 -14  -2   4   47.76    9.08
  14  -2  -4   58.87   12.08
 -14   2  -4   63.97   13.79
  14  -3   4   24.06    9.40
 -14   3   4   14.10    9.86
 -14   3   4   15.56    9.94
 -14  -3  -4   13.22    9.86
  14  -3   4   11.16    8.92
  14   3  -4   20.07    7.32
  14   3  -4   14.58    7.90
 -14  -3  -4   14.87   10.06
  14  -3   4   14.81    9.04
 -14   3   4    3.67    8.22
  14  -3  -4   18.76    9.67
  14   3   4   17.89    8.95
 -14   3  -4   26.41   11.91
  14   3   4   11.85    8.23
  14  -3  -4   38.64   11.60
  14   3   4   21.44    6.31
  14  -3  -4   11.07    9.79
  14   3   4    5.00    7.83
 -14  -3   4   17.08    7.23
 -14   3  -4   12.56    7.61
 -14  -3   4   27.58    7.56
  14   3   4   15.42    8.89
  14  -3  -4    7.70    9.15
 -14   3  -4   24.09    8.84
 -14   4   4   18.71   10.00
  14  -4   4   25.41   10.47
 -14  -4  -4   19.39   10.76
 -14  -4  -4   33.80   11.74
 -14   4   4   22.02   12.96
  14  -4   4   11.25    8.72
 -14   4   4   11.79    9.28
  14  -4   4   18.14    9.54
  14   4  -4   45.78   11.93
  14   4   4    8.72    9.15
 -14   4  -4   27.87   10.09
  14  -4  -4   18.76   11.76
 -14  -4   4   21.79    7.38
 -14   4  -4   21.11    8.66
 -14   4  -4   33.58   13.45
  14  -4  -4   13.36   11.13
  14  -4  -4   15.63   10.70
 -14   4  -4   36.42    9.75
 -14  -5  -4    4.69   11.32
 -14   5   4   17.27   10.72
 -14   5   4    2.29    9.92
  14  -5   4    3.29    7.75
  14   5  -4  -14.45    8.72
  14  -5   4   -3.94    9.00
  14  -5   4    9.77    9.50
 -14   5   4   -1.24   10.73
 -14  -5  -4   -6.92   11.06
  14  -5  -4   12.51   11.33
 -14   5  -4    3.59    8.31
  14  -5  -4  -22.01    9.31
 -14   5  -4   -0.66    9.13
 -14   5  -4    4.99    8.88
  14   5   4    6.77    9.28
  14  -5  -4    7.68   12.31
 -14   5  -4    4.50   12.19
 -14   0  -5 1108.10   36.19
 -14   0   5 1124.00   36.50
 -14   0  -5 1135.84   37.09
  14   0   5 1159.09   37.65
  14   0  -5 1105.31   34.64
  14   0  -5 1112.95   36.34
 -14   0   5 1102.90   35.41
 -14   0  -5 1129.90   36.89
  14   0   5 1076.90   34.64
  14   0   5 1091.21   37.58
  14   0  -5 1093.45   33.85
  14   0  -5 1090.73   34.46
  14   0   5 1044.85   36.71
 -14   0   5 1079.83   36.08
  14  -1   5   37.40   11.19
 -14   1   5   35.94   10.33
  14  -1   5   40.54   10.33
  14   1  -5   28.51    9.11
 -14  -1  -5   39.14   10.95
 -14  -1  -5   31.36   10.70
  14  -1   5   43.02   10.86
 -14   1   5   38.88   10.98
 -14  -1  -5   38.16   10.68
 -14   1   5   36.63    8.59
 -14   1   5   28.22   10.41
 -14  -1   5   32.98    9.63
 -14   1  -5   29.40    9.34
  14   1   5   21.53    8.58
 -14  -1   5   36.30    9.50
  14   1   5   34.60   10.21
 -14  -1   5   24.90    8.85
  14   1   5   25.25    9.94
  14  -1  -5   24.98    9.37
  14  -1  -5   46.11   10.48
 -14   1  -5   24.24    8.86
 -14   1  -5   43.99   10.01
 -14   1  -5   32.83    9.49
  14   1   5   37.06   10.72
  14  -1  -5   10.59    8.93
  14  -1  -5   46.21   10.63
 -14  -2  -5  657.98   28.50
  14  -2   5  703.67   29.31
 -14  -2  -5  626.31   30.03
 -14  -2  -5  673.25   30.23
  14   2  -5  662.19   25.69
 -14   2   5  759.71   30.72
  14  -2   5  744.33   29.71
 -14   2   5  729.67   27.62
 -14   2   5  655.45   29.05
  14   2  -5  686.22   25.95
 -14   2   5  691.55   30.20
  14  -2   5  702.02   28.26
  14   2   5  730.14   30.39
 -14  -2   5  721.64   25.49
  14   2   5  709.41   28.46
  14   2   5  722.35   30.11
 -14  -2   5  705.12   26.40
  14  -2  -5  694.29   29.74
  14  -2  -5  667.67   29.57
  14  -2  -5  740.05   31.47
 -14  -2   5  726.06   26.59
  14   2   5  709.20   29.72
 -14   2  -5  697.99   34.49
 -14   2  -5  689.87   28.48
 -14   2  -5  656.68   27.08
  14  -2  -5  665.21   29.52
  14   3  -5   75.95   12.56
  14   3  -5   72.43   11.23
  14  -3   5   71.04   13.67
  14  -3   5   75.31   12.23
 -14  -3  -5   65.70   13.40
 -14   3   5   46.98   12.23
 -14   3   5   58.42   13.33
 -14   3   5   65.21   11.76
  14  -3   5   60.58   13.53
 -14   3   5   81.32   14.49
 -14  -3  -5   69.12   14.27
 -14  -3   5   66.85   10.80
 -14   3  -5   72.28   15.65
 -14   3  -5   72.48   12.80
  14   3   5   73.48   13.21
  14  -3  -5   70.25   13.81
  14  -3  -5   84.63   15.10
  14   3   5   69.64   13.12
  14   3   5   68.91   12.89
  14  -3  -5   59.48   13.94
  14   3   5   44.97   12.37
 -14   3  -5   56.05   11.30
 -14  -3   5   57.55   10.32
  14  -4   5  388.76   23.57
  14  -4   5  364.07   22.43
 -14  -4  -5  360.41   25.23
 -14  -4  -5  307.12   25.00
  14  -4   5  351.50   20.87
 -14   4   5  350.47   23.09
 -14   4   5  357.36   24.74
  14   4  -5  361.36   24.03
  14  -4  -5  384.18   26.66
 -14  -4   5  345.00   17.99
  14  -4  -5  390.73   25.91
 -14   4  -5  347.41   23.28
  14   4   5  395.44   23.40
 -14   4  -5  322.41   19.57
 -14   4  -5  348.60   28.24
  14  -4  -5  371.36   26.23
 -14   0  -6   49.29   12.27
  14   0   6   52.81   12.74
 -14   0  -6   60.51   13.55
  14   0  -6   74.34   12.26
 -14   0   6   76.39   12.99
 -14   0   6   47.22   12.52
  14   0   6   46.32   13.47
  14   0  -6   61.59   13.98
 -14   0  -6   31.63   11.43
  14   0   6   45.87   12.89
  14   0  -6   40.65   11.06
 -14   0   6   65.13   13.48
  14  -1   6    1.06    9.47
  14   1  -6    7.62    9.11
  14  -1   6    0.08    9.16
 -14   1   6  -10.11    8.47
 -14   1   6   13.45   10.60
 -14  -1  -6   11.79   10.49
 -14   1   6    2.27    9.94
 -14  -1  -6   -2.85    9.44
  14  -1   6    1.07    9.64
 -14  -1  -6    7.47    9.43
  14   1   6    4.78    8.15
 -14  -1   6   -1.03    8.13
  14  -1  -6    4.44    8.48
  14  -1  -6   -2.64    7.72
 -14   1  -6   10.76    8.68
  14  -1  -6    9.34    9.38
  14  -1  -6    4.78    8.99
 -14   1  -6   -6.27    8.32
  14   1   6    4.58   10.40
 -14  -1   6  -27.44    7.74
 -14  -1   6    4.19    9.32
  14   1   6   -4.00    9.62
  14   1   6   12.82   10.10
 -14   2   6   11.88   11.83
  14  -2   6    2.34    9.77
 -14  -2  -6   11.44   11.21
 -14   2   6   18.41   11.30
  14   2  -6   22.65    9.99
 -14  -2  -6   15.09   11.58
 -14   2   6   28.26   12.93
  14  -2   6   17.39   10.36
 -14   2   6   31.59   15.31
  14  -2   6   24.85   11.51
  14   2   6   27.65   12.12
  14  -2  -6   21.61   11.76
 -14   2  -6    7.35    8.91
  14   2   6   40.45   13.58
  14  -2  -6   18.02   10.30
  14   2   6   39.44   12.21
 -14  -2   6   31.10   10.78
 -14   2  -6   32.14   13.72
  14  -2  -6   28.27   12.25
 -14  -2   6   29.58   10.43
  14   2   6   15.77   10.90
  14  -2  -6   12.62   10.49
 -14  -2   6   21.80    9.56
  14  -3   6    1.98   10.13
 -14   3   6  -11.56    7.90
 -14  -3  -6   11.22   12.25
 -14   3   6   -6.31   10.89
  14  -3   6   -3.30    9.80
 -14   3   6   -5.39   10.06
 -14   3   6   15.69   11.45
  14   3  -6   -0.38    8.16
 -14  -3  -6   -6.71   10.47
  14  -3   6  -12.26    8.75
 -14   3  -6  -22.29    8.18
  14   3   6    9.43   10.78
 -14   3  -6   -1.14   12.37
  14   3   6  -13.58    8.47
  14   3   6   -2.65   10.41
  14   3   6   -8.37    8.80
 -14   3  -6    2.91    8.86
  14  -3  -6   -4.03   11.32
  14  -3  -6   16.41   11.83
 -14  -3   6   -3.98    7.83
  14  -3  -6   -1.04   10.78
 -14  -3   6   -1.28    7.61
  14  -4   6   -2.70    9.06
  14   4  -6   -4.83    9.89
 -14   4   6    4.75   11.14
  14  -4   6   10.09   11.22
  14  -4   6   -3.97    9.81
 -14   4   6    0.35   11.27
 -14  -4  -6   13.33   13.77
 -14  -4  -6   -0.81   12.77
 -14   4   6    7.28   12.01
 -14   4  -6    2.51   10.70
  14  -4  -6   14.87   13.47
 -14  -4   6    2.59    8.45
  14   4   6   22.22   11.14
 -14   4  -6   -7.50   12.75
  14  -4  -6   -3.51   11.45
  14  -4  -6   11.28   14.24
 -14   4  -6   -0.27    9.31
 -14   0   7  511.44   27.23
 -14   0  -7  490.11   36.37
  14   0  -7  533.57   29.61
 -14   0  -7  465.87   27.36
  14   0   7  504.78   29.41
 -14   0   7  523.24   29.52
 -14   0   7  520.32   29.30
  14   0   7  480.41   29.09
  14   0   7  496.46   29.94
 -14   0  -7  504.38   28.19
  14   1  -7   20.48   11.52
 -14   1   7   43.53   13.73
 -14   1   7   24.79   12.50
 -14   1   7   24.77   11.93
 -14  -1  -7   14.22   10.97
  14  -1   7   10.30   10.78
  14  -1   7   17.79   11.46
 -14  -1  -7   22.46   11.92
 -14  -1  -7   12.75   10.32
  14  -1   7   33.04   12.46
 -14  -1   7   19.43   10.82
 -14  -1   7   18.12   11.12
  14   1   7   19.34   13.12
 -14  -1   7   11.11   10.88
  14   1   7   14.47   12.05
 -14   1  -7   11.89   10.21
  14  -1  -7   33.56   11.28
 -14   1  -7   29.74   13.39
  14  -1  -7   22.30   11.20
  14   1   7   28.42   13.47
  14  -1  -7   31.11   12.33
 -14   2   7  405.21   28.99
 -14  -2  -7  393.43   27.48
  14   2  -7  448.39   25.22
  14  -2   7  356.58   25.97
 -14   2   7  428.12   28.55
  14  -2   7  368.72   25.40
 -14   2   7  408.40   28.82
  14  -2   7  402.21   27.33
 -14  -2  -7  372.40   27.69
  14  -2  -7  383.15   27.02
  14   2   7  350.89   27.03
  14   2   7  388.01   26.94
 -14  -2   7  411.14   25.12
  14   2   7  362.89   24.54
 -14  -2   7  371.34   24.11
 -14   2  -7  387.04   30.63
  14  -2  -7  411.59   26.91
  14  -2  -7  472.43   28.50
  14   2   7  357.13   27.21
 -14   2  -7  350.24   23.85
  14  -2  -7  369.18   26.73
 -14  -2   7  439.05   24.05
  15   0   0    5.84    5.39
  15   0   0   -5.32    4.87
 -15   0   0   -0.79    4.62
 -15   0   0    2.63    5.98
  15   0   0   -2.08    4.87
 -15   0   0   11.93    6.14
  15   0   0   -1.43    4.96
 -15   0   0   -0.72    3.94
  15   1   0    2.67    5.02
 -15  -1   0    1.97    4.58
  15   1   0   -0.72    5.05
 -15  -1   0    7.57    5.97
 -15  -1   0    0.64    3.51
 -15  -1   0    3.15    5.74
 -15   1   0    6.35    6.05
  15  -1   0    3.92    5.50
  15   1   0    0.84    4.95
  15  -1   0    3.50    5.90
 -15   1   0    0.40    4.51
  15  -1   0    4.38    6.32
 -15   1   0   -2.11    4.52
 -15   1   0    3.18    5.83
  15   1   0    6.26    5.59
 -15   1   0    2.39    4.47
  15  -1   0    2.27    6.03
  15  -2   0   -6.89    5.98
  15   2   0    2.24    4.55
 -15  -2   0    1.98    4.35
 -15   2   0   -5.24    5.73
 -15  -2   0    1.34    2.73
 -15   2   0    4.11    6.09
 -15   2   0    2.11    4.66
  15   2   0    4.68    4.48
 -15   2   0    6.51    5.77
  15   2   0    3.50    5.59
 -15  -2   0    2.53    5.69
  15  -2   0    8.00    6.73
 -15   2   0    1.27    5.53
  15  -2   0    3.27    6.22
 -15  -2   0   -8.23    5.11
  15  -2   0   -7.02    5.46
  15   2   0   -1.59    4.57
 -15   2   0    2.23    4.88
 -15   3   0   47.56    8.29
  15   3   0   34.84    7.50
 -15   3   0   38.62    7.47
  15   3   0   41.57    6.85
 -15   3   0   41.63    8.67
 -15   3   0   33.44    8.24
 -15   3   0   34.77    7.91
 -15   3   0   18.69    7.62
 -15  -3   0   37.92    7.90
 -15  -3   0   44.23    8.40
  15  -3   0   30.15    8.56
  15  -3   0   28.19    8.45
  15  -3   0   36.93    8.73
 -15  -4   0   24.62    8.08
  15  -4   0   31.11    9.66
  15  -4   0   39.84   10.05
  15  -4   0   17.71    8.46
 -15   4   0   37.87    9.33
 -15  -4   0   33.47    7.85
 -15   4   0   34.69    8.49
 -15   4   0   30.28    9.39
 -15   4   0   49.48    9.28
  15   4   0   35.29    7.74
  15   4   0   35.93    7.73
 -15   5   0   -9.72    6.58
  15   5   0    2.64    7.21
 -15  -5   0   -6.32    6.72
 -15   5   0    0.38    8.30
  15  -5   0    7.71    8.58
  15  -5   0   17.27    9.55
 -15   5   0    4.90    8.57
 -15   5   0    6.10    8.61
 -15  -5   0   -5.96    6.36
  15  -5   0    3.27    8.62
 -15   6   0   -6.84    8.44
 -15   6   0  -10.65    9.28
  15   6   0   -7.77    8.46
 -15   6   0    0.75    9.50
  15  -6   0    8.21   10.55
 -15   6   0    8.47   10.26
  15  -6   0    3.42    9.49
  15  -6   0   -6.90    9.21
  15   0   1    8.62    5.68
 -15   0   1    2.54    5.49
 -15   0  -1    4.74    6.04
  15   0  -1    4.30    5.25
 -15   0  -1    4.47    4.94
 -15   0   1    6.21    5.93
  15   0   1    8.04    6.01
 -15   0   1    1.70    4.41
 -15   0  -1    5.71    5.92
 -15   0   1    0.79    4.02
  15   0  -1    9.54    5.51
  15   0   1   11.83    5.98
  15   0  -1    6.80    5.55
  15   0  -1    5.15    5.51
 -15   0  -1    2.67    4.28
  15   0   1    2.12    5.17
 -15  -1  -1 2659.64   57.61
  15  -1   1 2872.44   62.18
 -15  -1  -1 2724.63   62.69
  15   1  -1 2751.02   60.08
  15  -1   1 2729.76   62.68
 -15  -1  -1 2811.77   60.68
 -15   1   1 2756.75   61.01
  15   1  -1 2714.10   60.81
 -15   1   1 2764.63   60.71
 -15   1   1 2833.53   62.92
 -15   1   1 2743.07   62.68
  15  -1   1 2724.31   62.33
  15  -1   1 2724.57   62.11
  15   1  -1 2793.48   60.25
  15   1  -1 2753.95   59.77
 -15  -1  -1 2668.31   62.34
  15  -1  -1 2707.31   62.15
 -15  -1   1 2744.13   61.20
 -15   1  -1 2661.31   54.96
  15   1   1 2754.05   61.28
 -15   1  -1 2742.33   61.07
  15   1   1 2718.81   61.13
 -15   1  -1 2712.02   62.28
 -15  -1   1 2813.64   59.10
 -15   1  -1 2744.63   62.73
 -15   1  -1 2756.75   61.03
  15   1   1 2639.85   60.99
  15  -1  -1 2691.07   61.73
  15   1   1 2686.88   61.09
 -15  -1   1 2746.90   61.21
  15  -1  -1 2575.94   61.64
  15  -1  -1 2756.97   62.68
 -15  -1   1 2806.66   57.67
 -15   2   1   56.63    8.27
 -15   2   1   56.79    5.88
 -15  -2  -1   56.79    9.25
  15   2  -1   57.26    8.39
 -15   2   1   54.90    9.31
 -15   2   1   47.42    8.95
  15   2  -1   72.97    7.04
  15  -2   1   57.03    8.50
 -15  -2  -1   59.37    5.23
  15   2  -1   63.16    6.41
 -15   2   1   61.79    8.66
 -15   2   1   43.38    8.84
 -15  -2  -1   63.64    7.86
  15   2  -1   65.04    7.53
  15  -2   1   53.98    9.42
  15  -2   1   61.59    9.63
  15  -2   1   64.37    9.44
 -15  -2  -1   59.61    9.19
  15   2   1   55.72    8.17
 -15   2  -1   66.74    6.89
 -15  -2   1   58.25    8.28
  15   2   1   49.71    7.84
 -15  -2   1   65.40    8.61
 -15   2  -1   58.66    9.16
  15   2   1   55.67    5.16
 -15   2  -1   62.00    9.10
  15  -2  -1   52.94    9.18
  15  -2  -1   55.49    9.47
 -15   2  -1   60.88    8.48
  15   2   1   59.04    7.83
 -15  -2   1   58.70    5.31
 -15   2  -1   57.23    8.94
 -15  -2   1   61.70    8.27
  15   2   1   70.65    8.70
  15  -2  -1   63.90    9.96
  15  -2  -1   66.24    9.53
 -15   2  -1   69.59    9.66
  15  -3   1 1401.62   40.00
 -15   3   1 1425.16   35.85
 -15   3   1 1420.12   39.09
 -15   3   1 1460.90   39.92
 -15   3   1 1406.24   38.08
 -15   3   1 1484.00   40.40
 -15   3   1 1453.99   39.80
  15  -3   1 1443.76   39.29
 -15   3   1 1372.19   38.16
 -15  -3  -1 1418.97   38.63
  15   3  -1 1442.03   35.80
 -15  -3  -1 1440.90   38.37
  15  -3   1 1404.31   40.04
  15   3   1 1398.04   35.65
  15   3   1 1364.83   34.38
 -15   3  -1 1449.30   38.05
 -15   3  -1 1471.13   37.48
 -15   3  -1 1447.45   38.04
  15   3   1 1406.60   34.92
  15  -3  -1 1410.42   39.25
 -15  -3   1 1385.54   36.14
 -15   3  -1 1427.92   40.41
  15   3   1 1438.74   37.03
  15  -3  -1 1425.47   39.91
 -15  -3   1 1422.44   36.41
 -15   3  -1 1425.80   39.58
 -15   3  -1 1469.95   37.47
  15  -3  -1 1432.21   40.12
  15  -3  -1 1433.62   40.53
  15  -4   1  182.90   15.05
 -15   4   1  185.67   14.60
  15  -4   1  165.36   15.74
 -15  -4  -1  193.98   14.40
 -15   4   1  184.40   15.11
 -15   4   1  173.98   15.76
  15  -4   1  150.35   15.36
 -15   4   1  155.51   13.84
  15   4  -1  165.29   13.52
 -15   4   1  149.55   13.61
 -15  -4  -1  169.16   14.34
 -15   4  -1  176.36   13.87
  15   4   1  163.61   12.08
  15  -4  -1  186.65   16.57
 -15  -4   1  163.60   11.99
  15  -4  -1  168.92   16.27
 -15   4  -1  175.30   13.90
  15   4   1  157.40   12.89
 -15   4  -1  193.11   15.46
 -15   4  -1  187.79   16.30
  15  -4  -1  167.32   16.40
 -15  -4   1  171.91   11.85
 -15   5   1  559.07   26.27
 -15   5   1  576.93   24.38
 -15  -5  -1  546.53   23.03
  15   5  -1  522.42   24.26
  15  -5   1  560.52   25.66
 -15   5   1  580.56   27.01
  15  -5   1  575.09   26.43
  15  -5   1  585.53   24.97
 -15  -5  -1  532.65   23.52
 -15   5  -1  537.85   27.93
 -15   5  -1  581.34   25.65
  15   5   1  557.08   21.54
 -15   5  -1  532.88   23.24
 -15  -5   1  552.94   20.40
  15  -5  -1  526.31   25.66
  15   5   1  534.65   23.46
 -15   5  -1  541.75   25.68
  15  -5  -1  566.73   26.67
  15  -5  -1  517.14   26.40
 -15   6   1   84.74   15.33
 -15   6   1   63.60   13.04
 -15  -6  -1   65.25   12.08
  15  -6   1   45.30   11.28
  15  -6   1   41.87   12.11
  15   6  -1   49.79   12.07
  15  -6   1   63.26   14.23
 -15   6   1   30.45   11.74
 -15   6  -1   40.46   10.67
  15   6   1   57.92   12.28
 -15   6  -1   45.11   11.73
 -15   6  -1   42.81   14.43
 -15   6  -1   54.88   13.12
  15  -6  -1   47.57   12.31
  15  -6  -1   68.61   14.02
  15  -6  -1   46.91   13.21
  15   0  -2   -3.46    5.00
 -15   0  -2  -11.65    5.38
  15   0   2   -8.07    5.38
  15   0   2    1.89    5.85
 -15   0  -2    6.55    5.71
  15   0  -2   -0.59    5.07
 -15   0  -2   -0.31    4.50
 -15   0   2   -2.58    4.65
  15   0   2   -3.19    6.15
  15   0  -2   -3.68    5.15
 -15   0   2    4.80    6.04
  15   0   2   -5.30    4.87
 -15   0  -2   -6.16    5.61
  15   0  -2    4.85    5.64
 -15   0   2   -6.39    5.23
  15   1  -2   47.24    7.97
  15  -1   2   35.51    8.43
 -15  -1  -2   58.17    7.06
 -15   1   2   43.79    7.16
  15   1  -2   56.56    7.70
  15  -1   2   55.48    9.38
 -15  -1  -2   51.92    8.86
  15   1  -2   36.76    6.86
 -15   1   2   37.51    8.79
  15   1  -2   54.81    7.76
 -15   1   2   48.38    9.29
 -15  -1  -2   41.43    8.75
  15  -1   2   55.33    9.24
 -15  -1  -2   42.14    8.03
  15  -1   2   51.21    9.08
 -15   1  -2   37.42    8.15
 -15   1  -2   62.55    9.20
 -15  -1   2   51.56    7.95
  15  -1  -2   54.85    9.49
  15   1   2   58.17    9.10
  15  -1  -2   56.43    8.93
  15   1   2   58.72    9.07
 -15   1  -2   39.80    7.47
  15   1   2   54.70    8.72
 -15  -1   2   52.98    7.08
 -15   1  -2   41.49    8.42
  15  -1  -2   59.94    9.37
  15   1   2   41.14    7.74
  15  -1  -2   37.41    8.61
 -15  -1   2   59.26    8.82
  15   2  -2   16.10    6.31
 -15  -2  -2   21.50    4.78
 -15  -2  -2   22.58    6.90
 -15   2   2   14.02    7.62
  15   2  -2   20.82    5.38
  15  -2   2   22.41    7.64
  15  -2   2   23.80    8.03
 -15   2   2   12.40    6.30
 -15  -2  -2   20.00    7.75
 -15  -2  -2   12.04    7.93
  15   2  -2   17.56    5.02
  15  -2   2   16.41    6.64
 -15   2   2   25.02    7.95
  15  -2   2   23.43    8.09
  15  -2  -2   14.78    8.04
 -15   2  -2   15.22    7.16
 -15   2  -2   21.36    6.87
  15   2   2    9.14    6.89
  15   2   2   21.66    7.36
 -15  -2   2   14.16    6.35
 -15  -2   2   13.27    6.21
  15   2   2   22.02    6.99
  15  -2  -2   20.48    7.72
 -15   2  -2   21.32    5.03
  15   2   2   14.17    3.45
 -15   2  -2   15.42    6.94
  15  -2  -2   20.89    8.07
  15   2   2   21.66    7.38
  15  -2  -2    9.20    7.32
 -15   2  -2   19.05    8.13
 -15   2  -2   24.51    7.35
 -15   3   2    7.55    6.81
 -15   3   2   -2.04    7.36
 -15   3   2   17.04    7.46
  15   3  -2    4.79    5.92
 -15   3   2   -1.65    7.23
  15  -3   2   17.69    7.85
  15  -3   2   18.86    7.98
 -15  -3  -2   11.79    7.85
 -15  -3  -2   20.91    8.41
  15  -3   2    9.28    7.86
 -15   3  -2   11.07    7.58
  15   3   2   12.59    6.35
 -15   3  -2    9.99    6.87
  15   3   2   19.27    5.09
 -15   3  -2   18.97    6.72
  15   3   2   14.04    6.75
 -15   3  -2   12.89    5.84
  15  -3  -2   14.40    7.48
  15  -3  -2   16.22    8.76
 -15  -3   2   20.84    6.64
 -15  -3   2    7.55    5.82
  15   3   2   15.87    7.66
 -15  -3   2   13.21    5.92
  15   3   2   21.02    8.63
  15  -3  -2    6.52    8.27
  15  -3  -2    6.73    7.64
 -15   3  -2   16.75    8.93
 -15   4   2   45.47   10.03
 -15   4   2   28.25    9.01
  15  -4   2   39.31    9.54
 -15  -4  -2   29.82   10.25
 -15  -4  -2   37.39   10.27
 -15   4   2   17.97    8.84
  15  -4   2   37.17    9.88
  15  -4   2   40.78   10.19
 -15   4   2   38.80   10.08
 -15   4  -2   48.99   12.10
  15  -4  -2   27.86   10.09
  15   4   2   27.34    6.92
  15  -4  -2   32.42   10.24
 -15  -4   2   44.05    7.78
  15  -4  -2   25.03   10.07
 -15   4  -2   38.55    9.85
 -15   4  -2   27.32    8.72
  15   4   2   47.34    9.47
 -15   4  -2   43.51    9.45
 -15  -4   2   44.31    7.43
 -15  -5  -2   16.39   10.28
  15  -5   2   -0.35    8.84
 -15   5   2   -4.40    8.52
 -15   5   2    4.02    8.29
  15  -5   2   13.81    8.68
  15  -5   2    3.14    8.56
 -15  -5  -2   16.67    9.57
 -15   5   2   -5.49    8.59
 -15   5  -2  -10.59    9.14
  15   5   2    5.75    7.01
  15  -5  -2    8.82   10.22
 -15   5  -2   -8.69    7.57
 -15   5  -2   -2.76    7.77
  15  -5  -2   -8.65    8.83
 -15   5  -2   -0.05    7.89
  15  -5  -2   14.90    9.82
  15   5   2    1.56    7.89
 -15   6   2    2.06    9.86
  15  -6   2    7.35    9.69
  15  -6   2    4.65    9.62
 -15   6   2    7.95    9.39
  15  -6   2    7.62    9.03
 -15  -6  -2   -0.77    9.76
 -15   6   2   11.07   10.60
 -15  -6  -2    2.09    8.82
 -15   6  -2   -2.37    7.96
 -15   6  -2   -0.36    9.04
  15  -6  -2   -7.04    9.92
  15   6   2    0.19    8.06
 -15   6  -2   -2.37   11.63
  15  -6  -2  -13.26    9.75
  15  -6  -2    5.58   10.96
  15   6   2   10.20    9.34
 -15   6  -2    9.37   10.05
  15   0  -3   -1.10    5.55
  15   0   3    6.85    6.78
 -15   0   3    4.24    4.99
  15   0  -3   -0.88    6.45
 -15   0  -3    2.62    6.17
  15   0  -3   -0.07    5.70
 -15   0  -3    5.01    7.31
 -15   0  -3   11.09    6.20
  15   0   3    6.73    7.06
 -15   0   3    0.85    6.30
 -15   0  -3    1.07    6.95
  15   0   3    5.50    6.30
  15   0   3   -1.32    6.88
  15   0  -3    6.54    6.17
 -15   0   3    8.45    6.84
  15  -1   3 1211.88   35.98
  15   1  -3 1223.74   34.03
  15   1  -3 1234.96   32.58
 -15   1   3 1192.19   35.89
  15  -1   3 1211.38   35.61
 -15  -1  -3 1230.49   36.74
 -15  -1  -3 1175.98   32.15
 -15  -1  -3 1237.94   35.06
  15   1  -3 1143.93   32.26
  15  -1   3 1190.72   35.69
 -15  -1  -3 1172.75   36.35
  15   1  -3 1177.89   31.88
  15  -1   3 1212.23   33.80
 -15   1   3 1262.70   36.55
 -15   1   3 1251.59   33.64
 -15  -1   3 1276.56   34.37
  15  -1  -3 1186.61   35.07
 -15  -1   3 1213.49   33.98
  15  -1  -3 1180.71   35.53
 -15   1  -3 1246.06   35.56
  15  -1  -3 1194.10   35.48
 -15   1  -3 1230.64   35.29
  15   1   3 1248.95   36.31
  15  -1  -3 1144.90   34.78
 -15   1  -3 1217.16   34.59
  15   1   3 1194.68   34.61
  15   1   3 1219.50   35.56
 -15   1  -3 1284.19   35.30
  15   1   3 1261.10   35.88
  15  -2   3  104.56   12.86
 -15  -2  -3  110.16   12.23
 -15   2   3  101.97   12.93
 -15   2   3  104.09   12.77
 -15   2   3  101.94   11.24
  15   2  -3  112.23   11.26
  15  -2   3  108.95   12.28
 -15  -2  -3  103.58   13.13
 -15  -2  -3  116.48   13.55
  15   2  -3  119.15   10.86
  15  -2   3  110.86   13.33
 -15   2  -3  134.44   12.55
  15  -2  -3  101.15   13.55
  15   2   3  113.67   12.94
 -15  -2   3  107.19   10.87
 -15   2  -3  131.21   12.48
  15  -2  -3  107.78   12.43
  15   2   3   82.55    6.31
  15  -2  -3   93.96   12.67
  15   2   3  121.72   13.03
 -15   2  -3   96.19   13.91
  15   2   3   92.53   11.99
 -15   2  -3   96.14   11.31
  15  -2  -3  110.05   12.31
  15   2   3  103.98   12.47
 -15   2  -3  113.08   11.87
 -15  -2   3  114.35   11.10
  15  -3   3  908.91   30.24
  15  -3   3  905.68   31.02
 -15  -3  -3  870.74   31.97
  15  -3   3  922.38   31.47
 -15   3   3  859.27   29.36
 -15  -3  -3  856.37   31.58
 -15   3   3  888.18   31.99
 -15   3   3  858.50   31.86
  15   3  -3  894.13   30.87
  15   3  -3  875.28   25.96
  15   3   3  917.67   29.68
  15  -3  -3  945.29   32.20
  15   3   3  845.76   24.22
  15   3   3  900.65   29.84
  15  -3  -3  871.87   32.23
  15   3   3  878.73   28.68
 -15   3  -3  898.05   35.05
  15  -3  -3  882.46   31.20
 -15  -3   3  882.97   26.45
 -15   3  -3  930.97   27.64
 -15   3  -3  856.47   28.56
  15   3   3  867.58   29.61
 -15   3  -3  898.40   30.59
 -15  -3   3  886.59   26.67
  15  -3  -3  891.47   32.50
 -15   4   3   99.00   13.88
  15  -4   3  127.05   14.18
 -15   4   3   95.82   13.21
  15  -4   3  112.14   14.77
 -15  -4  -3  121.07   15.79
  15  -4   3  124.71   14.87
 -15   4   3  133.56   15.85
 -15  -4  -3  123.15   15.78
  15   4   3  105.87   13.19
 -15   4  -3  123.39   17.39
 -15   4  -3  100.22   12.33
  15  -4  -3   97.91   14.73
 -15  -4   3  115.89   10.65
 -15   4  -3  106.41   14.24
  15   4   3  109.04   10.84
 -15  -4   3  129.30   11.52
  15  -4  -3  117.19   14.76
 -15   4  -3   99.66   12.61
 -15  -4   3  110.07   10.32
  15  -4  -3  107.39   15.38
 -15  -5  -3  421.59   24.80
  15  -5   3  343.78   21.83
 -15   5   3  394.72   25.45
 -15   5   3  382.99   23.83
  15  -5   3  394.27   21.13
  15  -5   3  419.86   22.75
 -15   5   3  403.07   23.14
 -15  -5  -3  424.07   24.65
  15  -5  -3  437.89   26.64
 -15   5  -3  430.76   23.99
  15   5   3  383.18   21.61
 -15   5  -3  399.11   27.90
 -15   5  -3  376.00   20.25
  15  -5  -3  403.41   24.87
  15  -5  -3  402.82   25.98
 -15   5  -3  418.37   23.15
 -15   0   4   -0.64    7.06
  15   0  -4   -5.69    5.97
  15   0   4   -3.19    7.65
  15   0   4   -3.60    7.12
  15   0   4    8.66    7.96
  15   0  -4    0.11    6.81
  15   0   4    0.11    6.07
 -15   0  -4   -7.21    5.54
 -15   0   4    7.78    5.74
 -15   0  -4   -1.06    7.15
 -15   0  -4   -4.20    7.09
  15   0  -4   -2.51    6.01
 -15   0   4    0.41    6.93
  15   0  -4    0.56    5.70
 -15   0   4    5.33    7.62
 -15   0  -4    3.01    7.53
 -15   1   4    6.89    7.91
  15   1  -4   14.41    6.69
  15   1  -4    2.60    7.17
 -15  -1  -4   14.06    7.47
  15  -1   4    3.94    7.76
 -15  -1  -4    6.05    7.54
  15  -1   4    7.25    8.08
  15  -1   4   -2.31    6.13
 -15   1   4   23.87    8.98
  15   1  -4   13.86    6.40
 -15   1   4    0.52    7.21
  15   1  -4    6.55    4.63
 -15  -1  -4    4.62    8.21
  15  -1   4   13.32    7.80
  15   1  -4   -0.10    6.23
 -15   1   4    9.51    6.96
  15   1   4   14.27    8.29
 -15   1  -4    3.13    7.11
 -15   1  -4   14.72    7.63
  15   1   4    9.07    8.13
 -15   1  -4    8.64    7.78
  15   1   4    2.56    6.57
  15  -1  -4    7.67    7.81
  15  -1  -4    0.03    7.32
  15  -1  -4   12.87    8.44
 -15  -1   4    6.61    7.25
  15   1   4    2.18    7.79
 -15   1  -4   14.78    8.16
  15  -1  -4    9.09    7.70
 -15  -1   4    4.42    7.36
  15   2  -4   32.84    7.74
 -15  -2  -4   40.82   11.08
 -15   2   4   25.47    9.13
 -15  -2  -4   36.05   10.81
 -15   2   4   53.12    9.61
  15  -2   4   40.87   10.51
  15  -2   4   57.84   11.24
  15  -2   4   48.03   11.08
 -15   2   4   44.64   11.36
 -15   2   4   53.71   11.47
 -15  -2  -4   37.63    9.44
  15   2  -4   29.70    8.57
  15   2   4   45.48   10.75
  15   2   4   51.08   11.05
  15  -2  -4   40.92   10.54
  15  -2  -4   39.60   11.31
 -15   2  -4   42.02   12.53
 -15   2  -4   37.01    8.79
  15  -2  -4   43.30   11.03
 -15   2  -4   28.64    8.92
 -15   2  -4   48.31    9.87
 -15   2  -4   43.72    9.74
 -15  -2   4   44.87    8.99
  15   2   4   28.75    9.23
 -15  -2   4   49.02    9.32
  15   2   4   45.02   10.75
  15  -2  -4   48.86   11.18
 -15   3   4   60.62   11.03
  15  -3   4   49.58   10.84
  15   3  -4   49.56    9.34
 -15  -3  -4   56.86   12.41
  15  -3   4   39.02   10.94
 -15   3   4   59.53   12.59
 -15   3   4   58.42   12.46
  15  -3   4   68.65   12.29
 -15  -3  -4   48.57   12.42
  15   3  -4   50.91   10.55
  15  -3  -4   53.41   12.25
  15   3   4   25.95    8.71
 -15   3  -4   40.97   12.73
 -15  -3   4   62.58    9.66
  15   3   4   71.83   12.84
  15   3   4   47.94   11.36
  15  -3  -4   74.24   13.90
  15  -3  -4   43.45   11.63
 -15  -3   4   43.73    8.90
 -15   3  -4   49.71   10.16
 -15   3  -4   36.08   10.10
  15  -3  -4   46.63   12.31
  15   3   4   43.37   10.74
 -15   4   4   -4.54    9.02
  15  -4   4    0.01    8.32
  15  -4   4   -1.13    8.87
  15  -4   4    8.98    8.94
 -15  -4  -4   11.59   10.04
 -15   4   4    3.37    9.06
 -15  -4  -4    6.15   10.43
  15   4  -4    3.38    8.67
  15  -4  -4    4.32   10.66
  15   4   4    2.25    8.72
 -15  -4   4    7.67    6.74
  15  -4  -4   -9.26    9.32
  15  -4  -4   12.92   10.05
 -15   4  -4   -7.02    7.79
 -15   4  -4    9.61    8.37
 -15   4  -4    6.59   11.03
 -15  -5  -4    1.84   11.09
 -15   5   4   -8.01    9.55
 -15  -5  -4    6.56   10.99
  15  -5   4   -4.30    8.75
  15  -5   4   10.64    9.88
  15  -5   4    6.04    8.82
 -15   5   4   10.36   11.30
 -15   5   4  -11.53    8.79
  15   5   4    7.68    9.38
 -15   5  -4    2.75    8.92
  15  -5  -4   13.01   11.72
 -15   5  -4  -13.58    8.32
  15  -5  -4   11.71   12.55
 -15   5  -4  -12.00    7.77
 -15   5  -4  -16.59   10.54
  15  -5  -4    2.34   11.46
 -15   0   5    4.33    7.62
  15   0   5    5.94    8.78
  15   0  -5   -4.79    6.30
  15   0  -5    5.50    6.98
 -15   0   5    8.64    8.79
 -15   0  -5   15.80    9.20
  15   0  -5   -6.94    5.98
 -15   0   5    4.92    8.71
  15   0   5   -3.15    8.49
 -15   0  -5    3.63    8.17
 -15   0  -5   11.72    8.35
  15   0   5    9.21    9.29
  15   0  -5    9.51    7.94
  15   0   5    4.04    6.89
 -15   1   5  903.30   33.93
  15  -1   5  993.68   33.86
 -15  -1  -5  920.17   33.56
 -15  -1  -5  913.39   34.16
  15  -1   5  931.92   34.44
 -15  -1  -5  875.89   34.31
  15   1  -5  893.41   31.76
 -15   1   5  940.55   30.81
  15  -1   5  991.63   35.13
 -15   1   5  896.34   33.70
 -15   1   5  926.32   33.31
 -15   1  -5  874.78   32.35
 -15   1  -5  924.62   32.45
  15  -1  -5  913.03   33.83
 -15   1  -5  915.51   32.51
  15   1   5  904.53   34.28
 -15  -1   5  950.24   32.77
  15  -1  -5  904.09   32.67
  15   1   5  935.64   34.55
 -15  -1   5  926.03   31.30
  15   1   5  928.66   34.26
 -15  -1   5  927.46   32.19
  15  -1  -5  896.38   32.72
  15  -1  -5  969.25   33.82
  15   1   5  965.98   33.12
 -15   1  -5  926.31   32.88
 -15  -2  -5   36.21   11.74
  15  -2   5   35.17   11.24
 -15  -2  -5   54.03   12.37
  15   2  -5   41.88    9.13
 -15   2   5   40.54   10.08
  15  -2   5   57.34   12.68
 -15   2   5   59.19   13.43
 -15   2   5   47.00   11.65
 -15   2   5   53.36   12.97
  15  -2   5   48.09   11.48
  15   2  -5   55.33   10.88
 -15  -2  -5   49.46   12.66
 -15   2  -5   35.83   10.43
 -15  -2   5   54.08   10.51
  15   2   5   48.11   11.04
  15   2   5   56.26   12.00
  15   2   5   68.51   13.29
  15  -2  -5   52.40   13.02
  15  -2  -5   53.59   12.76
 -15   2  -5   57.94   15.36
 -15   2  -5   47.75   11.10
  15  -2  -5   52.64   12.20
  15  -2  -5   51.84   12.41
  15   2   5   46.36   11.42
 -15  -2   5   58.99   10.88
 -15   3   5  680.45   31.61
  15  -3   5  658.22   29.16
  15  -3   5  640.76   27.74
  15   3  -5  652.29   25.28
 -15   3   5  630.59   29.80
 -15   3   5  631.62   31.03
  15   3  -5  622.22   27.28
 -15  -3  -5  626.61   31.31
 -15   3   5  649.69   28.40
 -15  -3  -5  634.66   30.63
  15  -3   5  703.29   29.97
  15   3   5  602.65   28.42
 -15  -3   5  682.66   25.51
  15  -3  -5  680.09   31.97
 -15   3  -5  662.28   29.20
 -15   3  -5  667.65   35.37
  15   3   5  646.84   28.59
  15   3   5  666.17   29.60
  15   3   5  600.88   28.07
 -15  -3   5  640.71   25.22
  15  -3  -5  676.35   32.08
 -15   3  -5  651.21   26.77
  15  -3  -5  640.11   30.86
 -15   4   5   17.53   10.73
  15   4  -5   13.95    9.49
 -15   4   5    0.25    9.97
 -15  -4  -5   16.78   12.11
 -15  -4  -5   25.69   12.08
  15  -4   5   33.66   11.74
  15  -4   5   13.99   10.40
  15  -4   5   16.54   10.30
  15  -4  -5   25.03   13.24
  15  -4  -5   29.79   13.14
 -15  -4   5   15.94    8.08
 -15   4  -5   14.29   14.14
  15  -4  -5   -0.68   10.94
  15   4   5   35.05   11.72
 -15   4  -5    1.25    9.67
 -15   4  -5   30.26   10.21
 -15   0  -6  -13.37    8.09
  15   0  -6   -4.72    7.41
 -15   0   6    0.84    9.23
 -15   0   6  -10.18    7.72
 -15   0  -6    9.61    9.06
 -15   0   6   -4.68    7.99
  15   0   6   -4.42    9.33
  15   0  -6    3.08    9.16
  15   0  -6    5.67    7.92
  15   0   6    8.12   10.51
  15   0   6   10.47   10.05
 -15   0  -6   10.74    9.38
 -15  -1  -6   10.56    9.79
  15  -1   6   -7.72    8.21
  15   1  -6   -7.16    8.85
  15  -1   6    1.25   10.00
 -15   1   6    5.85   10.74
 -15   1   6   -1.26    9.17
 -15   1   6   11.21   10.35
 -15  -1  -6    2.21    8.72
  15  -1   6    5.42   10.45
 -15  -1  -6   13.82   10.45
  15  -1  -6    2.96    8.76
  15  -1  -6    2.61    9.13
  15  -1  -6    5.12    9.20
 -15   1  -6    9.75    8.88
 -15  -1   6   15.93   10.35
 -15  -1   6   -1.57    9.12
  15   1   6    0.40   10.16
 -15  -1   6    1.42    8.11
  15   1   6    6.83   10.83
  15   1   6    6.74    8.65
  15  -1  -6    4.98    9.42
  15   1   6    5.48   10.98
 -15   1  -6    2.79    9.13
 -15   2   6    7.84   10.66
  15  -2   6   30.89   11.59
 -15  -2  -6    9.74   11.22
  15  -2   6   25.84   12.04
  15   2  -6    1.96    9.09
 -15  -2  -6   10.61   11.00
 -15   2   6   21.37   12.38
 -15   2   6   23.64   12.64
  15  -2   6   -0.15    9.79
 -15   2  -6   10.70    9.90
  15   2   6   24.29   11.51
  15  -2  -6   11.66   11.24
  15  -2  -6    6.46   10.20
 -15  -2   6   24.92    9.75
  15   2   6   22.51   11.97
 -15   2  -6    7.95   11.48
 -15  -2   6   14.49    9.25
  15  -2  -6   11.88    9.99
  15   2   6   13.22   11.19
 -15  -2   6   23.78    9.98
  15   2   6    2.49    8.55
  15  -2  -6   22.53   12.12
  15   3  -6   -4.67    8.78
  15  -3   6  -11.11    8.76
 -15  -3  -6    1.33   11.45
 -15   3   6   -2.96   11.29
 -15  -3  -6    4.93   11.44
 -15   3   6   -2.20   10.11
  15  -3   6    3.99   10.42
 -15   3   6   -3.66   10.92
 -15   3   6  -10.73    8.85
  15  -3   6    5.27   10.64
  15  -3  -6    9.39   12.23
  15   3   6   15.37   10.61
 -15   3  -6   -8.41    8.64
  15  -3  -6    9.35   11.93
  15  -3  -6   -9.67   10.02
 -15   3  -6    7.03   10.95
  15   3   6    8.88   10.61
 -15  -3   6   -6.12    8.11
 -15   3  -6    2.02   13.18
  15   3   6   -6.72   10.24
 -15  -3   6    7.75    8.47
  15   0  -7    5.40   10.16
 -15   0   7   -1.50   10.51
 -15   0   7    9.19   10.40
  15   0   7   -2.75   11.89
 -15   0   7   35.92   13.04
 -15   0  -7   12.68   10.06
  15   0   7   21.74   12.02
 -15   0  -7   15.74   10.22
  15   0   7   17.23   12.84
 -15   1   7  379.55   27.03
 -15  -1  -7  392.12   26.77
  15  -1   7  377.90   27.16
 -15  -1  -7  357.89   25.00
 -15   1   7  407.26   27.61
 -15  -1  -7  381.07   27.06
 -15   1   7  361.20   25.61
  15   1  -7  383.51   24.87
  15  -1   7  370.95   26.97
  15  -1   7  426.53   26.63
 -15   1  -7  372.73   29.38
 -15  -1   7  405.13   25.33
  15   1   7  398.36   28.42
 -15  -1   7  371.32   23.45
 -15   1  -7  379.72   24.52
  15  -1  -7  352.69   25.92
  15  -1  -7  367.38   24.90
  15  -1  -7  383.51   25.22
 -15  -1   7  371.87   25.61
  15   1   7  438.48   28.25
  15   1   7  356.35   26.25
  15  -2   7   26.14   13.09
 -15   2   7   15.46   13.30
 -15   2   7   41.39   14.48
  15   2  -7   23.24   11.56
 -15  -2  -7   26.18   13.31
 -15  -2  -7   47.91   15.02
  15  -2   7   27.82   12.21
 -15   2   7   20.62   12.34
  15  -2   7   20.47   12.80
 -15  -2   7   19.27   11.28
 -15   2  -7   43.35   15.80
  15  -2  -7   17.40   12.26
  15   2   7   36.16   13.49
 -15  -2   7   32.84   11.00
  15   2   7    3.21   10.71
  15  -2  -7   16.02   12.18
 -15   2  -7   34.23   11.65
  15  -2  -7   29.64   13.24
  15   2   7   11.92   10.92
  15   2   7   47.54   15.01
 -15  -2   7   20.01   11.51
  15  -2  -7   17.33   12.17
 -16   0   0   88.75    9.17
  16   0   0   94.06   10.12
  16   0   0   86.49    9.48
  16   0   0   83.81    9.92
 -16   0   0   95.84   10.68
 -16   0   0   65.75    7.86
 -16   0   0   92.20   10.50
  16   0   0   99.67   10.08
 -16  -1   0  136.50   12.10
 -16  -1   0  133.68   10.07
 -16   1   0  158.47   11.05
 -16  -1   0  158.89   12.36
 -16   1   0  151.90   10.94
  16  -1   0  143.82   11.76
  16   1   0  148.45   11.17
 -16  -1   0  144.21    8.45
  16  -1   0  147.21   12.26
  16  -1   0  149.82   12.19
  16   1   0  151.50   11.63
  16  -1   0  149.72   12.50
  16   1   0  125.77   10.39
 -16   1   0  155.41   12.60
  16   1   0  144.65   10.68
 -16   1   0  136.69   12.09
  16   2   0   -1.51    4.62
  16  -2   0    4.92    6.25
 -16   2   0   -3.69    6.28
 -16  -2   0    0.81    6.11
 -16   2   0   -5.81    4.44
  16  -2   0    9.95    6.89
 -16   2   0    4.03    4.65
  16   2   0   -3.45    4.59
 -16   2   0    1.47    5.42
 -16   2   0   -2.71    6.38
  16   2   0   -1.88    5.62
  16  -2   0   -4.89    6.07
  16   2   0    1.20    5.09
  16  -2   0    1.62    6.76
 -16  -2   0   -3.60    4.58
 -16   2   0    3.05    5.64
 -16  -2   0    3.42    6.14
 -16  -2   0   -0.32    2.90
  16  -3   0   15.07    7.94
  16   3   0   10.05    4.99
 -16  -3   0   14.69    6.63
 -16   3   0   14.33    7.28
 -16  -3   0   11.33    6.66
 -16   3   0   14.86    7.17
 -16   3   0   23.49    6.81
 -16   3   0   12.55    7.41
 -16   3   0    8.11    6.52
 -16   3   0    6.36    6.42
  16  -3   0   11.90    7.58
  16   3   0   11.05    6.65
  16  -3   0   11.71    7.79
 -16   4   0   39.84    9.15
  16   4   0   35.44    8.02
 -16   4   0   25.02    9.06
  16  -4   0   40.57   10.67
 -16   4   0   50.84   10.53
  16  -4   0   28.97    9.67
 -16   4   0   25.41    8.51
 -16  -4   0   24.69    7.85
 -16  -4   0   46.40    9.26
  16   4   0   28.93    7.67
  16  -4   0   39.93   10.03
  16  -5   0   -3.82    8.55
 -16   5   0    3.49    8.26
 -16   5   0  -12.12    7.44
  16   5   0    3.10    7.00
 -16  -5   0   -0.65    6.69
  16  -5   0   14.18   10.18
 -16   5   0   -6.78    7.40
 -16   5   0    1.39    8.46
  16  -5   0  -10.22    8.43
 -16  -5   0   -6.08    7.26
  16  -6   0   -3.51   10.24
  16  -6   0   -3.77    9.63
 -16   6   0   14.74   11.08
  16   6   0   22.85   10.30
  16  -6   0    9.67   10.87
 -16   6   0   11.95   11.97
 -16   6   0    0.29    9.53
 -16   6   0   10.97    9.80
  16   0  -1 2907.39   64.84
 -16   0   1 2855.03   63.37
 -16   0   1 2849.70   65.47
  16   0   1 2907.67   65.87
  16   0   1 2847.86   65.30
  16   0   1 2927.62   65.52
  16   0  -1 2905.11   65.38
 -16   0  -1 2899.66   66.39
  16   0  -1 2890.51   64.92
  16   0  -1 2886.99   65.42
 -16   0  -1 2926.99   64.27
 -16   0   1 2899.09   65.73
  16   0   1 2955.60   66.10
 -16   0  -1 2931.43   66.37
 -16   0  -1 2941.89   63.19
 -16   0   1 2871.55   62.78
  16   1  -1   40.17    7.34
  16   1  -1   33.38    6.88
 -16   1   1   37.59    7.56
  16  -1   1   32.16    7.96
  16   1  -1   26.29    6.80
  16  -1   1   27.67    8.13
 -16   1   1   35.72    8.34
  16   1  -1   39.38    7.02
  16  -1   1   19.51    7.30
 -16  -1  -1   30.88    5.40
 -16  -1  -1   36.38    7.02
 -16  -1  -1   44.06    8.45
 -16   1   1   37.24    8.06
 -16   1   1   29.85    6.59
 -16  -1  -1   33.75    8.07
  16  -1   1   30.90    8.14
  16   1   1   41.98    7.99
 -16  -1   1   45.26    7.84
  16   1   1   24.86    6.91
 -16   1  -1   35.75    8.24
  16  -1  -1   40.89    8.48
 -16   1  -1   33.17    7.03
 -16   1  -1   43.25    8.08
 -16  -1   1   29.56    7.20
 -16  -1   1   22.31    7.43
  16   1   1   29.63    7.37
 -16  -1   1   34.52    6.40
  16  -1  -1   34.61    8.29
  16  -1  -1   31.05    7.78
 -16   1  -1   40.69    8.34
 -16  -1   1   38.58    7.87
  16   1   1   39.70    7.78
 -16  -1   1   34.06    5.39
  16  -1  -1   32.44    7.63
 -16   1  -1   37.14    4.04
  16  -2   1 1740.92   45.35
  16  -2   1 1739.99   44.69
 -16   2   1 1724.49   43.98
  16   2  -1 1695.98   39.56
 -16   2   1 1760.24   45.13
 -16   2   1 1714.08   45.31
  16   2  -1 1700.79   38.91
 -16   2   1 1760.92   43.46
 -16   2   1 1764.36   45.16
 -16   2   1 1780.39   37.82
 -16  -2  -1 1671.95   41.22
 -16  -2  -1 1660.98   37.29
 -16  -2  -1 1703.97   44.36
 -16  -2  -1 1619.62   44.09
 -16   2   1 1724.83   45.17
  16   2  -1 1643.82   40.32
  16  -2   1 1734.53   43.62
  16  -2   1 1764.85   45.35
  16   2  -1 1730.78   42.15
  16   2   1 1779.80   42.50
 -16   2  -1 1717.19   44.22
 -16   2  -1 1636.50   42.77
 -16   2  -1 1705.55   43.78
 -16  -2   1 1772.30   43.12
 -16  -2   1 1798.63   43.01
  16   2   1 1763.30   42.73
 -16   2  -1 1650.89   44.00
 -16  -2   1 1814.37   37.57
  16   2   1 1781.14   43.37
 -16   2  -1 1734.37   39.74
  16  -2  -1 1754.63   45.59
  16  -2  -1 1686.40   44.66
  16   2   1 1704.84   37.12
  16  -2  -1 1705.47   45.13
 -16   2  -1 1670.42   44.02
  16   2   1 1807.11   42.06
  16  -3   1   56.83   10.38
 -16   3   1   54.22    9.89
 -16   3   1   31.13    9.52
  16  -3   1   23.82    8.86
 -16   3   1   44.16    9.67
 -16  -3  -1   43.12    8.88
 -16   3   1   36.53    6.83
  16   3  -1   58.93    8.41
 -16   3   1   24.83    8.15
  16  -3   1   37.05    9.96
 -16  -3  -1   44.59    9.39
 -16   3   1   40.19    8.34
 -16   3   1   17.46    7.24
 -16   3  -1   40.17    8.62
  16  -3  -1   26.32    9.02
 -16  -3   1   29.83    7.23
 -16   3  -1   44.20    8.84
  16  -3  -1   51.48   10.08
 -16   3  -1   44.64    9.07
 -16   3  -1   32.73    6.98
  16  -3  -1   53.38   10.28
  16   3   1   28.61    5.76
 -16   3  -1   36.34    8.57
  16   3   1   34.67    6.70
 -16  -3   1   37.46    7.82
  16  -3  -1   30.31    9.46
  16   3   1   38.98    8.22
 -16   3  -1   46.15    9.35
  16   3   1   40.29    7.28
 -16   4   1  879.44   30.96
  16  -4   1  861.10   31.04
  16  -4   1  836.08   31.01
  16   4  -1  888.79   29.16
 -16   4   1  855.58   30.32
 -16  -4  -1  845.36   29.09
  16  -4   1  808.85   29.60
 -16   4   1  921.36   30.54
  16   4  -1  853.06   24.85
 -16   4   1  805.35   27.79
 -16  -4  -1  818.75   28.86
 -16   4   1  835.18   28.94
  16  -4  -1  839.70   31.28
 -16   4  -1  858.80   30.58
  16   4   1  818.87   26.54
 -16   4  -1  819.17   28.32
  16  -4  -1  838.52   31.15
 -16  -4   1  878.14   26.40
  16   4   1  832.37   27.18
  16  -4  -1  876.70   31.21
 -16  -4   1  811.34   26.25
 -16   4  -1  863.52   29.17
 -16   4  -1  817.10   31.72
  16  -5   1   59.68   12.17
 -16   5   1   79.78   12.16
 -16   5   1   80.84   13.38
  16  -5   1   90.54   14.44
 -16  -5  -1   92.17   12.69
 -16   5   1   83.32   13.87
  16  -5   1   77.83   13.27
  16   5  -1   80.70   12.48
 -16  -5  -1   81.04   11.91
 -16   5  -1   96.26   13.68
  16  -5  -1   78.36   14.44
  16   5   1   92.68   11.77
 -16  -5   1   76.41   10.31
 -16   5  -1   68.09   12.36
 -16   5  -1   72.54   15.12
  16  -5  -1   82.08   13.49
  16  -5  -1   94.58   15.15
  16   5   1   59.40   10.60
 -16   5  -1   82.54   12.56
 -16  -6  -1  359.95   21.45
  16  -6   1  343.77   21.67
  16  -6   1  391.82   23.96
  16   6  -1  433.24   25.27
 -16   6   1  347.79   22.46
  16  -6   1  413.67   25.49
 -16   6   1  353.39   24.75
 -16   6   1  337.21   22.62
 -16   6  -1  379.19   24.17
  16   6   1  382.35   18.93
  16  -6  -1  332.46   23.09
 -16   6  -1  387.67   21.46
  16   6   1  389.18   22.52
 -16   6  -1  401.45   24.32
  16  -6  -1  394.45   26.14
  16  -6  -1  369.09   25.15
 -16   6  -1  351.26   26.31
 -16   0   2    4.44    6.22
 -16   0  -2   10.77    7.07
  16   0   2    4.14    6.23
 -16   0  -2    2.35    6.41
  16   0  -2   11.73    6.28
  16   0   2   -0.83    5.61
 -16   0  -2    6.74    5.32
  16   0   2    3.21    6.53
  16   0  -2    1.74    6.05
  16   0  -2    8.91    6.20
 -16   0  -2   20.45    6.62
  16   0  -2    8.01    6.25
 -16   0   2    3.97    6.31
 -16   0   2    5.93    5.33
  16   0   2   11.88    6.81
  16   1  -2   22.60    6.49
  16  -1   2   20.27    7.86
 -16   1   2   15.92    7.47
  16  -1   2    7.27    7.12
  16   1  -2   10.49    6.26
  16   1  -2   14.46    6.01
  16  -1   2   16.41    6.49
  16  -1   2   16.95    7.65
 -16   1   2   16.60    7.61
 -16  -1  -2   19.22    5.49
 -16  -1  -2   21.15    8.01
 -16  -1  -2   26.43    7.90
 -16   1   2   11.59    5.80
  16   1  -2   25.46    6.25
 -16  -1  -2   26.67    7.03
  16   1   2    9.55    6.68
 -16   1  -2    4.50    6.59
  16  -1  -2   12.57    6.70
 -16   1  -2   11.80    6.28
  16   1   2    5.35    6.65
  16  -1  -2   21.63    7.37
  16   1   2   20.46    7.19
 -16   1  -2   20.72    6.80
 -16  -1   2   19.54    5.55
  16  -1  -2    6.05    6.34
  16  -1  -2   21.96    7.98
  16   1   2   17.20    6.56
 -16  -1   2   13.33    6.53
 -16  -1   2   19.08    7.08
 -16   1  -2   21.73    7.41
  16  -2   2   44.84    9.39
  16   2  -2   51.89    8.31
  16  -2   2   49.94    9.75
  16  -2   2   38.04    8.24
 -16   2   2   44.01    9.91
  16  -2   2   51.43   10.26
  16   2  -2   42.88    6.98
 -16  -2  -2   28.92    8.76
 -16   2   2   62.16   10.68
 -16   2   2   34.48    8.43
 -16  -2  -2   49.00    9.57
 -16  -2  -2   34.13    5.77
 -16   2   2   32.82    7.87
  16   2  -2   51.38    6.84
 -16  -2  -2   38.22    8.21
  16  -2  -2   43.29    9.37
  16   2   2   46.42    4.50
  16   2   2   43.52    8.40
 -16   2  -2   26.56    7.81
 -16   2  -2   22.22    7.44
 -16   2  -2   44.61    8.93
  16  -2  -2   45.02    9.90
  16   2   2   50.17    8.96
  16   2   2   38.87    8.29
 -16   2  -2   40.53    6.01
  16   2   2   48.68    8.71
 -16   2  -2   39.47    8.30
  16  -2  -2   39.40    9.33
 -16   2  -2   48.69   10.18
  16  -2  -2   31.45    8.92
 -16  -2   2   45.79    8.42
 -16  -2   2   52.06    8.31
 -16  -3  -2   85.42   12.40
 -16   3   2   96.43   12.37
 -16   3   2   85.28   12.63
  16  -3   2   90.96   12.33
 -16   3   2   71.39   11.03
  16   3  -2   83.28    9.75
 -16   3   2   92.49   12.69
 -16  -3  -2   56.62   10.84
  16  -3   2  102.12   12.94
  16  -3   2   76.49   10.84
 -16  -3   2   75.40    9.72
 -16  -3   2   78.30    9.37
  16   3   2   81.33    7.87
  16  -3  -2   86.03   12.87
 -16   3  -2   88.90   13.31
  16   3   2   65.20   10.28
 -16  -3   2   78.78    9.67
 -16   3  -2   57.49    8.60
 -16   3  -2   78.70   11.62
  16   3   2   87.90   10.60
 -16   3  -2   76.63   10.36
  16  -3  -2   75.58   12.17
  16  -3  -2   82.82   12.32
  16  -3  -2   82.60   12.56
  16   3   2   71.86    9.78
 -16   3  -2   74.65   10.02
  16  -4   2   50.68   11.34
  16  -4   2   53.09   10.70
  16  -4   2   24.20    9.54
 -16   4   2   31.63    9.96
 -16  -4  -2   16.30    9.40
 -16   4   2   41.97   10.40
 -16   4   2   38.63   10.48
 -16   4   2   38.19   10.08
 -16  -4  -2   34.78    9.85
 -16  -4   2   53.78    8.31
 -16   4  -2   20.94    8.59
  16   4   2   30.86    9.11
 -16   4  -2   14.89    8.77
  16   4   2   20.85    6.60
  16  -4  -2   46.66   11.39
  16  -4  -2   39.45   10.66
 -16  -4   2   23.71    7.42
  16  -4  -2   22.54   10.43
 -16   4  -2   32.08    8.45
 -16   4  -2   42.83   11.62
 -16  -5  -2    7.20    8.97
  16  -5   2    4.21    8.58
 -16  -5  -2    6.94    9.86
 -16   5   2   22.79   10.44
  16  -5   2   14.22    9.21
  16  -5   2   16.98    9.88
 -16   5   2    8.77    9.50
 -16   5   2    5.90    8.71
  16  -5  -2   12.47   10.75
  16  -5  -2   -0.51    9.41
  16   5   2    4.70    8.19
  16  -5  -2    8.78   10.17
 -16   5  -2    3.49   10.90
  16   5   2    9.69    7.65
 -16   5  -2   16.36    8.66
 -16   5  -2   -4.02    8.77
 -16   5  -2   -2.56    8.17
  16  -6   2   25.26   10.58
  16  -6   2    8.10   10.09
 -16   6   2    2.86   10.12
 -16   6   2   18.44   12.26
 -16  -6  -2   10.98   10.34
  16  -6   2   14.52   10.55
 -16  -6  -2   45.63   12.52
 -16   6   2    7.38   11.51
  16  -6  -2   36.00   13.10
  16   6   2   20.60    9.53
  16  -6  -2   -7.31   10.96
 -16   6  -2   20.89   13.92
  16  -6  -2   14.48   11.72
 -16   6  -2   36.18   11.99
 -16   6  -2   18.89   11.07
 -16   6  -2    2.84    9.01
 -16   0   3 1026.05   31.64
  16   0  -3 1000.35   29.96
  16   0  -3  996.86   30.56
 -16   0  -3 1037.02   32.70
 -16   0  -3  975.81   30.52
  16   0   3 1005.48   30.73
  16   0  -3 1026.75   31.33
  16   0   3  975.14   32.08
 -16   0   3 1000.60   28.41
  16   0  -3 1020.44   30.37
 -16   0  -3  980.33   29.55
  16   0   3  992.08   31.87
  16   0   3 1001.82   32.12
 -16   0   3  954.46   30.94
 -16   0  -3  958.32   31.73
 -16  -1  -3   36.99    8.82
 -16  -1  -3   51.43   10.37
 -16   1   3   58.24   10.73
 -16  -1  -3   25.94    8.97
  16   1  -3   27.05    8.08
  16  -1   3   33.15    9.00
  16  -1   3   40.12    9.69
  16  -1   3   25.84    7.80
  16  -1   3   36.01    9.24
  16   1  -3   26.89    7.30
 -16   1   3   11.55    7.75
  16   1  -3   33.15    7.38
 -16   1   3   46.19    8.61
  16   1  -3   31.85    7.29
 -16  -1  -3   43.16    7.48
  16   1   3   22.97    8.90
  16   1   3   36.52    9.06
 -16  -1   3   34.23    8.12
  16  -1  -3   37.78    9.29
  16  -1  -3   35.25    8.47
  16  -1  -3   48.03    9.46
 -16  -1   3   40.80    8.49
  16   1   3   36.37    9.22
 -16   1  -3   27.80    9.02
 -16   1  -3   28.58    7.71
  16  -1  -3   31.60    8.65
 -16   1  -3   42.87    9.67
 -16   1  -3   30.86    8.09
  16   1   3   33.77    9.10
  16  -2   3  881.38   31.16
  16  -2   3  894.84   30.46
 -16   2   3  895.77   31.79
 -16   2   3  932.32   29.92
 -16  -2  -3  926.36   32.25
 -16  -2  -3  979.45   32.74
  16   2  -3  974.35   28.64
 -16  -2  -3  971.57   30.42
  16  -2   3  907.63   31.53
 -16   2   3  922.92   32.12
  16   2   3  936.93   30.77
  16  -2  -3  937.93   32.09
 -16   2  -3  968.80   30.34
 -16   2  -3  932.78   34.90
  16  -2  -3  928.08   32.51
  16  -2  -3  973.00   31.96
 -16  -2   3  916.52   28.53
  16   2   3  926.24   30.58
  16   2   3  880.15   30.06
 -16   2  -3  985.13   30.35
 -16  -2   3  923.73   28.57
  16  -2  -3  964.02   31.85
 -16   2  -3  981.38   30.02
 -16   2  -3  969.26   30.96
  16   2   3  886.87   29.95
 -16   3   3   78.54   12.61
 -16  -3  -3   35.25   10.24
  16  -3   3   73.43   12.17
 -16   3   3   68.83   12.30
  16   3  -3   79.18    9.81
  16  -3   3   51.29   10.81
  16  -3   3   80.58   12.33
 -16  -3  -3   75.37   12.85
 -16   3   3   82.30   12.59
  16  -3  -3   70.14   12.50
 -16   3  -3   78.21   11.44
  16  -3  -3   57.05   10.98
  16  -3  -3   87.16   13.59
 -16   3  -3   63.08   11.02
  16   3   3   68.55   11.28
 -16  -3   3   57.94    9.05
 -16   3  -3   59.95   13.15
  16   3   3   56.45   10.61
  16  -3  -3   72.28   12.24
 -16  -3   3   79.42   10.17
  16   3   3   60.03   10.16
  16   3   3   53.28   10.47
 -16   3  -3   68.89    9.14
 -16   4   3  576.88   26.09
 -16   4   3  640.25   27.89
  16  -4   3  657.81   27.51
  16  -4   3  643.52   26.23
 -16   4   3  615.23   27.88
 -16  -4  -3  593.26   27.89
 -16  -4  -3  608.56   28.02
  16  -4   3  641.69   27.39
 -16   4  -3  605.15   30.52
  16  -4  -3  608.38   28.84
 -16  -4   3  612.26   21.88
  16  -4  -3  589.19   28.14
 -16  -4   3  600.52   21.73
 -16   4  -3  578.84   24.02
 -16  -4   3  597.02   21.24
  16  -4  -3  600.90   28.57
 -16   4  -3  619.28   27.46
  16   4   3  682.41   26.63
 -16   4  -3  604.03   24.59
 -16   5   3  103.36   15.61
 -16  -5  -3  110.35   15.91
  16  -5   3  165.03   18.29
  16  -5   3  134.34   16.57
 -16  -5  -3  104.70   16.69
 -16   5   3  109.72   15.26
  16  -5   3  131.13   15.35
 -16   5   3  139.51   18.06
  16   5   3  103.40   14.53
 -16   5  -3  146.85   17.39
 -16   5  -3  134.18   20.72
 -16   5  -3  158.81   16.14
  16  -5  -3  167.30   20.45
  16  -5  -3  126.53   17.56
 -16   5  -3  143.76   16.17
  16  -5  -3  130.88   18.59
  16   0   4  170.65   15.78
  16   0  -4  188.40   15.33
 -16   0  -4  167.13   13.42
  16   0   4  163.95   15.68
  16   0  -4  155.68   13.71
 -16   0   4  144.61   15.10
  16   0  -4  168.97   13.45
  16   0  -4  177.45   14.19
  16   0   4  182.42   17.05
 -16   0  -4  159.60   15.83
  16   0   4  159.02   15.97
 -16   0  -4  183.41   15.73
 -16   0   4  177.83   16.27
 -16   0  -4  189.84   17.05
  16  -1   4    9.32    8.43
 -16   1   4    4.90    8.34
 -16  -1  -4   23.18    9.14
 -16   1   4   25.44    7.94
 -16  -1  -4   10.90    8.96
  16  -1   4   12.32    7.04
  16   1  -4   17.69    7.09
 -16  -1  -4   26.44    9.07
  16   1  -4   12.35    7.99
  16   1  -4   16.56    7.14
  16  -1   4   -0.84    8.17
  16  -1   4   14.13    8.32
 -16   1   4   15.34    8.75
  16   1   4   18.41    9.08
 -16   1  -4   18.91    8.42
  16  -1  -4   26.65    8.88
  16   1   4   28.59    9.66
  16   1   4   28.65    9.73
 -16   1  -4    8.57    8.27
  16  -1  -4   13.00    7.98
 -16  -1   4    3.86    7.70
 -16   1  -4   18.32    8.80
  16  -1  -4   14.14    8.31
 -16  -1   4   23.10    8.41
  16  -1  -4   20.23    9.84
  16   1   4   22.94    8.78
 -16   1  -4    8.79    7.56
 -16  -2  -4   41.78   11.48
  16   2  -4   38.57    7.93
  16  -2   4   36.63   10.44
 -16  -2  -4   35.00   10.61
  16  -2   4   20.76    9.32
 -16   2   4   24.27    7.99
  16   2  -4   47.97    9.71
 -16  -2  -4   26.67    9.13
  16  -2   4   31.05   10.42
 -16   2   4   47.15   11.24
 -16   2   4   28.91   10.81
  16  -2  -4   38.76   11.15
 -16   2  -4   31.60    8.76
  16   2   4   32.64    9.95
 -16   2  -4   21.50    8.44
  16   2   4   48.01   11.15
  16  -2  -4   36.03   10.84
  16   2   4   40.20   10.33
 -16   2  -4   28.68    9.17
  16   2   4   46.43   10.75
  16  -2  -4   34.90   10.33
 -16   2  -4   45.69   12.84
  16  -2  -4   43.02   11.00
 -16  -2   4   38.03    9.29
 -16   2  -4   42.01    9.77
 -16  -2   4   40.15    8.97
  16  -3   4    8.69    9.35
  16  -3   4   -3.02    8.83
 -16   3   4   -1.56    9.17
 -16   3   4   -0.68    7.94
  16   3  -4    5.68    7.69
  16  -3   4    3.95    8.07
 -16  -3  -4   11.29    9.65
 -16   3   4   -4.99    8.94
  16   3  -4    0.38    6.85
 -16  -3  -4   18.25    9.81
 -16  -3   4    6.85    7.23
  16  -3  -4   19.15   10.75
  16  -3  -4    7.65    9.69
  16   3   4    4.62    8.50
 -16   3  -4    3.18    8.21
 -16   3  -4   -5.26   10.17
  16  -3  -4   16.35    9.72
  16   3   4    2.88    7.92
  16   3   4   -0.66    8.49
 -16   3  -4    3.69    7.61
  16   3   4   12.88    8.95
 -16  -3   4    2.77    6.42
  16  -3  -4    6.75    9.67
  16  -4   4   40.66   11.52
  16   4  -4   33.40   11.60
 -16   4   4   45.03   12.53
 -16  -4  -4   20.00   11.65
 -16   4   4   30.87   12.17
  16  -4   4   46.28   11.98
  16  -4   4    4.02    9.21
 -16  -4  -4   25.91   12.32
  16  -4  -4   35.24   12.05
 -16   4  -4   42.45   10.86
  16  -4  -4   24.17   12.00
 -16   4  -4   44.99   14.73
  16   4   4   31.42   10.89
  16  -4  -4   12.98   11.74
 -16  -4   4   38.82    8.62
 -16   4  -4   26.12   10.75
 -16  -5  -4   36.18   13.63
 -16   5   4   13.01   11.18
 -16  -5  -4    5.58   11.30
 -16   5   4   11.19   10.54
  16  -5   4   14.89   11.10
  16  -5   4   23.76   10.78
  16  -5   4   24.55   11.48
 -16   5   4   19.10   12.17
 -16   5  -4    5.08    9.28
  16  -5  -4    9.93   13.20
  16   5   4   17.46   10.24
 -16   5  -4   17.81   10.44
  16  -5  -4   14.47   11.86
 -16   5  -4   15.59    9.54
 -16   5  -4   -4.41   11.56
  16  -5  -4   28.73   13.37
  16   0  -5 1021.44   35.12
 -16   0   5  938.82   34.03
 -16   0  -5 1024.51   35.06
  16   0   5 1006.75   36.50
  16   0  -5 1032.02   32.64
 -16   0   5  937.86   34.65
 -16   0  -5  978.39   34.79
  16   0   5  977.45   33.29
  16   0  -5 1045.79   33.52
  16   0  -5  987.73   33.05
 -16   0  -5 1002.75   35.88
  16   0   5  923.90   34.39
  16   0   5  981.87   35.86
 -16   0   5  914.47   33.14
 -16   1   5   20.95   10.25
  16  -1   5   21.10    9.36
 -16  -1  -5   11.72    9.78
 -16   1   5    9.11    8.52
 -16   1   5    8.31    9.67
  16  -1   5    2.55    9.17
 -16  -1  -5    4.40    8.29
 -16  -1  -5   11.56    9.18
  16   1  -5    8.64    8.48
  16  -1   5    1.48    8.99
 -16  -1   5    7.48    8.16
  16   1   5   17.27    8.27
 -16  -1   5    0.90    8.34
  16   1   5   -0.25    8.76
  16   1   5    5.72    9.28
  16  -1  -5    3.72    8.27
 -16   1  -5    2.83    7.88
  16  -1  -5    4.17    8.17
  16   1   5   16.71    9.84
 -16  -1   5   14.39    8.10
  16  -1  -5    6.04    9.33
 -16   1  -5   -5.02    7.63
  16  -1  -5   10.15    8.35
 -16   1  -5    7.04    8.23
 -16   1  -5    7.22    8.63
  16  -2   5  912.65   33.44
 -16  -2  -5  825.86   34.61
  16   2  -5  884.94   30.94
 -16   2   5  911.35   34.42
 -16   2   5  921.58   35.52
 -16  -2  -5  842.31   34.99
 -16   2   5  895.04   35.91
  16  -2   5  876.73   34.50
 -16   2   5  888.55   31.84
  16  -2   5  904.45   34.79
  16   2   5  891.54   35.00
  16   2   5  851.64   34.11
  16   2   5  842.15   34.17
  16  -2  -5  925.41   35.11
 -16  -2   5  882.63   30.99
 -16   2  -5  889.62   33.43
  16  -2  -5  938.97   35.82
 -16   2  -5  904.38   32.47
 -16  -2   5  933.97   31.56
  16   2   5  915.39   33.72
 -16   2  -5  878.32   39.83
  16  -2  -5  887.63   34.74
  16  -2  -5  933.33   35.21
  16   3  -5    9.11    8.52
  16  -3   5   -3.80    9.18
 -16   3   5   11.37    9.40
  16  -3   5   19.69   10.92
 -16   3   5   27.45   11.87
  16  -3   5   18.49   10.55
 -16  -3  -5   34.21   12.34
 -16   3   5   26.27   11.43
 -16  -3  -5   31.00   12.42
  16   3  -5   25.20    9.08
  16   3   5    9.81    9.90
  16  -3  -5   24.62   12.07
 -16   3  -5   13.96    9.42
  16   3   5   26.39   14.28
 -16  -3   5   27.23    8.81
  16   3   5   18.87   11.00
  16   3   5    9.59    9.24
  16  -3  -5   21.26   11.65
 -16   3  -5   19.25   13.83
 -16  -3   5   24.15    9.13
  16  -3  -5   17.49   12.31
 -16   3  -5    9.95    9.12
 -16   4   5  422.44   27.03
 -16   4   5  422.73   25.21
 -16  -4  -5  383.35   26.82
  16  -4   5  429.72   25.38
  16   4  -5  412.87   24.75
 -16  -4  -5  440.70   28.54
  16  -4   5  436.36   25.17
  16  -4   5  406.27   23.45
 -16  -4   5  406.15   20.52
 -16   4  -5  431.71   30.91
  16  -4  -5  448.79   28.15
  16  -4  -5  422.88   29.35
  16   4   5  366.71   24.35
 -16   4  -5  410.34   25.26
 -16   4  -5  368.78   21.66
  16  -4  -5  415.67   28.43
 -16   0  -6    9.19    9.40
 -16   0  -6    3.40    9.19
  16   0   6    7.10   10.29
  16   0   6   -5.93    9.52
  16   0   6   11.85   11.28
 -16   0   6    3.25    9.41
  16   0  -6    1.88    8.08
  16   0  -6   -7.50    8.68
 -16   0   6   -7.42    9.46
  16   0  -6   18.52    9.32
 -16   0   6   -0.85    8.21
 -16   0  -6    0.88    8.70
 -16  -1  -6   13.60   10.39
  16  -1   6   -1.74   10.46
 -16   1   6    3.22   10.09
 -16   1   6    9.97   10.43
 -16  -1  -6   10.75    9.83
  16  -1   6   12.77   10.38
 -16  -1  -6   -5.62    9.00
  16   1  -6   15.43   10.17
 -16   1   6   15.09   11.47
  16  -1   6   -1.30    9.68
  16  -1  -6    6.57   11.21
 -16   1  -6    9.60    8.81
  16   1   6    2.00    8.28
  16  -1  -6    2.97    9.33
  16   1   6   -5.49   10.53
  16   1   6   10.71   10.56
  16  -1  -6   21.30   10.14
  16   1   6   19.85   11.94
  16  -1  -6   14.81   10.01
 -16  -1   6   -1.48    9.50
 -16  -1   6    7.05    9.17
 -16  -1   6   -7.65    9.07
 -16   1  -6   22.82   10.46
  16  -2   6   -1.41   10.04
 -16   2   6   25.60   12.57
 -16   2   6   21.50   13.01
 -16  -2  -6   15.65   11.49
  16   2  -6   15.23   10.43
 -16  -2  -6   33.73   13.13
 -16   2   6    6.15   10.19
  16  -2   6   17.41   10.47
  16  -2   6    2.02   10.54
  16  -2  -6   22.61   12.32
 -16   2  -6    7.24    9.65
  16   2   6   29.78   12.21
 -16   2  -6   28.75   11.76
  16  -2  -6   18.09   11.57
  16   2   6   13.32   11.00
  16  -2  -6    4.95    9.43
 -16  -2   6   30.45   10.65
  16   2   6   27.18   11.88
  16  -2  -6    2.11   11.03
  16   2   6   15.80    9.84
 -16   2  -6   15.90   12.52
 -16  -2   6   21.08   10.45
  16  -3   6   26.50   11.88
 -16   3   6    3.29    9.41
 -16  -3  -6   -7.50   11.37
 -16   3   6   16.89   12.44
  16  -3   6    6.59   10.20
 -16   3   6   16.80   12.94
 -16   3   6    0.64   10.71
  16   3  -6    7.84    9.86
 -16  -3  -6   11.85   12.50
  16  -3   6   16.86   11.73
  16   3   6    7.08    9.90
 -16   3  -6    8.18   10.58
  16  -3  -6    6.98   11.76
 -16  -3   6   27.56   10.95
  16  -3  -6   14.65   12.82
 -16   3  -6    8.69   13.06
  16   3   6   17.89   12.00
  16  -3  -6  -10.99   10.75
 -16  -3   6   -3.67    8.49
  16   3   6   16.82   11.74
 -16   3  -6   10.32   11.51
  16   0  -7  386.72   26.42
  16   0   7  409.97   28.34
 -16   0   7  389.80   27.43
 -16   0  -7  386.67   25.80
 -16   0   7  337.99   25.47
 -16   0   7  355.01   24.41
  16   0   7  358.83   26.69
  16   0   7  360.55   26.01
 -16   0  -7  385.95   25.45
  16  -1   7   10.59   11.76
 -16   1   7   -0.70   10.59
 -16  -1  -7   12.51   11.61
 -16   1   7   15.41   12.23
  16   1  -7    3.18   11.07
 -16  -1  -7   13.07   11.20
  16  -1   7    0.85   11.63
 -16  -1  -7   18.54   11.87
 -16   1   7   14.71   12.76
  16  -1   7   17.97   13.04
 -16   1  -7   16.84   13.59
 -16  -1   7   31.72   12.91
 -16   1  -7   21.07   11.14
  16   1   7   11.79   12.41
 -16  -1   7   44.45   12.47
  16   1   7   31.02   13.85
  16  -1  -7   24.72   11.81
 -16  -1   7    6.40    9.95
  16  -1  -7   11.40   12.49
  16  -1  -7   13.25   10.81
  16   1   7   52.04   14.10
 -16   2   7  383.21   29.09
  16   2  -7  341.43   24.08
 -16   2   7  359.30   26.81
 -16  -2  -7  358.11   27.64
  16  -2   7  384.73   26.77
  16  -2   7  370.64   26.60
 -16  -2  -7  333.58   27.78
 -16   2   7  315.88   27.01
  16  -2   7  350.85   25.45
  16   2   7  378.08   27.78
  16  -2  -7  358.87   27.15
 -16   2  -7  331.27   29.81
  16   2   7  310.36   25.91
  16   2   7  353.55   27.60
 -16  -2   7  369.22   24.56
  16   2   7  335.75   29.41
  16  -2  -7  316.01   26.22
 -16   2  -7  344.09   24.17
  16  -2  -7  352.71   26.94
 -16  -2   7  343.49   23.93
  16  -2  -7  351.75   27.51
  17   0   0   -5.85    5.23
  17   0   0   -2.39    5.41
 -17   0   0   -1.68    6.15
 -17   0   0    2.68    4.65
 -17   0   0   -2.95    6.09
  17   0   0    6.29    6.03
 -17   0   0    4.42    5.73
  17   0   0    6.93    6.39
 -17   1   0   38.60    7.36
 -17   1   0   48.58    9.20
  17   1   0   34.89    7.47
  17   1   0   43.46    8.13
 -17   1   0   41.08    8.09
  17  -1   0   51.43    9.14
  17  -1   0   49.65    9.51
 -17  -1   0   42.23    5.82
 -17  -1   0   57.78    7.88
  17  -1   0   35.94    8.38
  17  -1   0   50.44    9.69
  17   1   0   35.93    7.64
 -17  -1   0   46.32    8.85
 -17  -1   0   40.20    8.24
 -17   1   0   41.92    8.69
  17   1   0   56.96    8.27
 -17   2   0   43.31    9.30
  17  -2   0   50.34    9.86
 -17   2   0   31.44    6.74
 -17  -2   0   60.00    9.81
 -17   2   0   33.65    7.82
  17  -2   0   42.93    9.10
  17   2   0   55.43    7.83
  17   2   0   54.83    8.43
  17   2   0   50.89    8.55
  17  -2   0   37.31    8.66
 -17  -2   0   55.18    9.51
  17   2   0   47.84    7.46
 -17   2   0   48.52    8.83
 -17   2   0   43.52    6.79
 -17   2   0   52.46    9.79
 -17  -2   0   45.68    5.06
  17  -2   0   42.70    9.33
  17  -3   0   47.08   10.17
  17  -3   0   61.71   10.99
 -17   3   0   75.19   10.91
 -17   3   0   83.74   11.34
 -17   3   0   67.07   10.55
 -17   3   0   62.03   10.02
 -17  -3   0   69.39   10.19
  17  -3   0   56.14   11.01
 -17   3   0   85.99    9.71
  17   3   0   66.82    9.54
 -17   3   0   60.09    9.32
 -17  -3   0   72.69   10.02
  17   4   0   65.66    9.55
  17  -4   0   58.32   11.61
 -17   4   0   47.10   10.02
  17   4   0   48.84    8.88
 -17  -4   0   50.79   10.52
 -17   4   0   58.60   11.67
 -17   4   0   79.81   11.06
 -17   4   0   38.89   10.00
  17  -4   0   68.46   12.10
 -17  -4   0   76.10   10.58
  17  -4   0   56.09   11.58
 -17   5   0  -17.89    8.07
  17  -5   0    0.10    8.70
 -17  -5   0   -2.52    7.44
 -17   5   0    6.91    8.62
  17  -5   0    5.44    9.76
 -17   5   0   -0.05    8.93
 -17  -5   0   -2.70    7.81
  17   5   0   -4.90    6.39
 -17   5   0    3.35    8.15
  17  -5   0   -5.08    8.92
 -17   6   0   33.51   12.29
  17  -6   0   34.76   12.24
  17  -6   0   14.83   11.59
  17  -6   0   26.07   11.87
  17   6   0    7.15    9.38
 -17   6   0   17.94   11.44
 -17   6   0   20.54   10.65
 -17   0   1   -0.97    6.12
 -17   0   1    4.37    5.16
 -17   0   1    8.74    6.41
  17   0   1    3.78    6.39
  17   0   1   17.11    6.91
 -17   0  -1   10.12    6.38
 -17   0   1    3.19    5.85
 -17   0  -1    7.31    5.03
  17   0   1    8.66    6.46
 -17   0  -1    9.63    6.72
 -17   0  -1    6.84    6.81
  17   0   1   23.03    7.02
  17   0  -1    7.35    6.04
  17   0  -1    9.85    6.17
  17   0  -1    7.42    5.89
 -17   0   1   13.49    5.25
  17   0  -1    6.27    6.18
 -17  -1  -1 1306.47   37.24
  17  -1   1 1321.74   37.05
 -17  -1  -1 1339.57   35.10
 -17   1   1 1319.44   35.07
 -17   1   1 1287.75   36.95
  17   1  -1 1281.36   34.10
  17   1  -1 1295.22   34.59
 -17   1   1 1340.84   37.29
 -17   1   1 1345.07   37.42
 -17  -1  -1 1286.30   32.23
  17  -1   1 1306.38   37.05
 -17  -1  -1 1302.72   37.16
  17  -1   1 1391.35   36.76
 -17   1   1 1314.95   35.14
  17   1  -1 1299.02   35.40
  17   1  -1 1336.51   34.98
  17  -1   1 1371.50   37.22
 -17  -1   1 1303.97   35.69
  17  -1  -1 1299.84   36.77
 -17   1  -1 1326.70   37.33
  17   1   1 1316.64   35.90
  17  -1  -1 1285.96   36.07
 -17  -1   1 1348.21   36.39
  17   1   1 1322.22   35.85
 -17   1  -1 1277.81   28.59
  17   1   1 1325.97   35.87
 -17   1  -1 1297.45   36.73
  17  -1  -1 1302.71   36.77
 -17   1  -1 1314.91   35.32
 -17  -1   1 1311.58   35.75
  17  -1  -1 1328.09   37.39
 -17  -1   1 1350.07   32.07
 -17   1  -1 1290.71   35.25
 -17  -1   1 1381.09   36.24
 -17  -1   1 1383.00   33.75
  17   1   1 1334.77   35.81
  17  -2   1  192.15   14.41
 -17   2   1  189.09   14.96
 -17  -2  -1  182.34   14.06
 -17   2   1  199.47   15.03
 -17  -2  -1  185.21    8.96
  17   2  -1  195.49   10.59
 -17  -2  -1  187.71   14.03
  17  -2   1  177.16   14.28
 -17   2   1  181.22   14.58
 -17   2   1  196.92   13.79
 -17   2   1  197.80   13.63
  17   2  -1  200.68   13.02
 -17  -2  -1  182.51   12.09
  17  -2   1  231.45   14.30
  17   2  -1  187.21   10.83
  17   2  -1  193.19   11.43
 -17   2   1  194.61   14.76
  17  -2   1  180.10   14.72
 -17   2   1  189.88    8.86
  17   2   1  198.37   13.57
  17   2   1  184.29   12.01
 -17  -2   1  189.33    8.85
 -17   2  -1  181.98   13.78
  17  -2  -1  200.54   14.83
 -17   2  -1  178.99   13.25
  17  -2  -1  192.70   14.82
 -17   2  -1  208.07   13.53
  17   2   1  191.46   12.50
 -17  -2   1  205.41   13.55
 -17   2  -1  178.80    9.94
  17  -2  -1  188.02   14.22
 -17  -2   1  189.94   13.28
  17   2   1  175.23   12.81
 -17   2  -1  171.20   14.25
 -17   2  -1  193.88   14.15
  17  -2  -1  203.30   15.16
 -17   3   1 1430.69   38.54
 -17   3   1 1383.74   35.24
  17   3  -1 1416.13   36.86
 -17   3   1 1398.45   40.29
 -17  -3  -1 1428.86   39.64
  17  -3   1 1388.49   41.02
 -17   3   1 1440.08   40.64
 -17  -3  -1 1402.17   40.08
  17  -3   1 1423.86   40.48
 -17   3   1 1425.77   39.30
  17  -3   1 1453.15   41.46
 -17   3   1 1440.02   41.40
 -17   3   1 1423.15   41.15
  17   3   1 1397.61   37.95
 -17   3  -1 1411.37   37.15
  17   3   1 1367.62   37.45
  17  -3  -1 1409.60   41.40
 -17  -3   1 1390.53   37.48
 -17   3  -1 1434.46   39.14
 -17   3  -1 1400.07   40.36
 -17   3  -1 1382.26   38.92
  17   3   1 1401.38   34.46
 -17   3  -1 1451.69   41.01
 -17   3  -1 1381.94   38.33
 -17  -3   1 1358.65   37.33
  17  -3  -1 1445.11   42.05
  17  -3  -1 1462.75   41.30
  17  -4   1   65.42   12.38
 -17  -4  -1   85.05   12.37
 -17   4   1   82.25   12.25
 -17   4   1   54.53   10.77
 -17   4   1   98.33   12.43
 -17   4   1   90.68   13.10
  17   4  -1   81.31    9.67
 -17   4   1   77.18   11.59
  17  -4   1   78.77   12.17
  17  -4   1   66.57   12.34
 -17  -4  -1  102.98   12.69
  17   4   1   78.54   11.27
 -17   4  -1   78.59   10.91
  17  -4  -1   89.41   13.36
 -17   4  -1   94.95   13.83
 -17   4  -1   99.40   12.40
  17   4   1   91.44   10.30
  17  -4  -1   88.76   13.90
 -17   4  -1   71.45   11.77
  17  -4  -1   92.75   13.78
 -17  -4   1   81.97   10.67
 -17  -4   1   67.28   10.21
 -17   5   1  361.63   22.70
 -17  -5  -1  355.26   20.05
 -17   5   1  360.53   22.14
 -17  -5  -1  421.87   21.29
  17  -5   1  391.50   21.93
 -17   5   1  377.46   21.17
  17  -5   1  339.41   22.66
  17   5  -1  323.60   19.81
  17  -5   1  368.61   22.14
 -17   5  -1  342.56   20.99
  17   5   1  352.83   19.15
 -17  -5   1  352.14   17.63
  17  -5  -1  326.42   22.06
 -17   5  -1  331.78   19.94
 -17   5  -1  314.69   20.95
  17  -5  -1  355.57   24.03
  17  -5  -1  372.74   23.40
  17   5   1  378.64   18.76
 -17   5  -1  319.55   23.02
 -17   6   1   33.05   12.72
 -17   6   1   39.21   12.26
  17  -6   1   41.83   12.31
  17   6  -1   39.05   11.35
 -17   6   1   55.29   13.01
  17  -6   1   38.34   13.40
  17  -6   1   43.76   12.17
 -17  -6  -1   35.27   11.15
 -17   6  -1   22.39   13.46
  17   6   1   47.49   11.57
  17  -6  -1   49.65   14.08
 -17   6  -1   32.18   10.60
  17  -6  -1   26.21   12.00
 -17   6  -1   38.32   12.28
  17  -6  -1   43.27   13.76
 -17   6  -1    9.09    9.87
  17   6   1   37.54    9.89
  17   0  -2    6.29    6.60
 -17   0   2   -2.72    5.30
 -17   0  -2   -1.60    6.47
 -17   0   2   -1.89    6.27
  17   0   2   -1.74    6.47
 -17   0  -2   -9.81    6.27
  17   0  -2    0.89    5.72
 -17   0  -2    5.53    6.11
  17   0  -2    2.01    6.10
 -17   0  -2   -2.35    5.13
  17   0   2    0.02    5.81
  17   0   2   -0.17    6.88
  17   0   2   -2.84    6.26
  17   0  -2    6.39    5.99
 -17   0   2   -5.10    5.50
  17  -1   2  163.29   14.31
 -17  -1  -2  179.85   13.01
 -17   1   2  166.72   14.20
  17   1  -2  184.89   11.98
 -17  -1  -2  188.58   14.84
 -17   1   2  173.82   12.63
  17   1  -2  189.25   12.13
  17  -1   2  176.22   14.31
  17   1  -2  180.49   12.71
  17  -1   2  179.37   14.40
  17  -1   2  191.96   13.56
  17   1  -2  177.40   11.51
 -17  -1  -2  176.52   14.70
 -17  -1  -2  156.52   10.48
 -17   1   2  163.73   13.92
  17  -1  -2  156.74   13.51
 -17   1  -2  173.35   14.23
  17   1   2  173.73   13.73
  17   1   2  169.06   13.46
  17  -1  -2  167.39   13.67
 -17   1  -2  187.94   14.12
 -17  -1   2  173.73   12.98
  17   1   2  163.06   13.22
  17  -1  -2  163.36   14.73
  17   1   2  176.15   13.17
 -17   1  -2  146.38   12.65
  17  -1  -2  160.38   13.42
 -17   1  -2  176.39   12.91
 -17  -1   2  154.28   10.40
 -17  -1   2  160.72   12.54
  17  -2   2   -0.20    6.82
 -17  -2  -2    5.90    6.51
 -17  -2  -2   16.42    7.82
 -17   2   2    3.85    7.42
  17   2  -2    3.70    5.24
 -17   2   2    6.77    6.58
 -17   2   2    7.01    6.44
  17   2  -2    0.47    4.98
  17  -2   2    8.66    7.43
  17   2  -2    3.71    6.14
  17  -2   2    2.04    7.08
  17  -2   2   12.31    6.74
 -17   2   2   14.39    8.24
 -17  -2  -2    5.30    4.51
 -17  -2  -2   -1.65    6.96
 -17   2  -2   -3.47    6.57
 -17   2  -2   13.68    7.07
 -17   2  -2   -1.55    7.24
  17   2   2    6.86    6.67
  17   2   2    7.41    2.82
 -17  -2   2    8.02    6.64
  17   2   2    5.54    6.81
  17   2   2    1.27    6.35
 -17   2  -2   -4.98    6.29
 -17   2  -2    5.22    6.77
  17   2   2    8.69    6.82
 -17  -2   2    3.09    6.50
  17  -2  -2    1.57    7.35
  17  -2  -2    4.16    7.65
  17  -2  -2    7.27    7.28
 -17   2  -2    2.56    4.06
  17  -2  -2    0.10    6.96
 -17  -3  -2   45.74   10.41
 -17   3   2   31.39   10.04
 -17   3   2   43.21    9.24
 -17   3   2   58.85   10.27
  17  -3   2   36.54   10.01
  17   3  -2   58.33    9.22
  17  -3   2   53.27   10.19
  17  -3   2   48.01   10.78
 -17   3   2   53.29   11.18
 -17  -3  -2   42.04   10.22
 -17   3  -2   47.10   11.49
 -17   3  -2   31.90    7.44
 -17  -3   2   38.95    8.56
  17  -3  -2   41.46   10.62
  17   3   2   40.64    9.24
  17   3   2   46.94    8.82
  17  -3  -2   33.64    9.53
 -17  -3   2   39.54    8.35
 -17   3  -2   60.75    9.91
 -17   3  -2   36.07    9.41
  17   3   2   41.30    6.12
  17   3   2   38.59    8.55
 -17  -3   2   48.83    8.71
 -17   3  -2   45.47    9.59
  17  -3  -2   49.86   11.09
  17  -3  -2   25.97    9.46
 -17  -3   2   51.56    9.08
 -17   4   2   20.62    9.16
  17  -4   2    9.77    9.14
  17  -4   2   15.04    8.93
 -17  -4  -2   25.28   10.77
 -17   4   2    3.24    8.10
  17  -4   2   -0.43    8.10
 -17   4   2    5.01    8.46
 -17   4   2    6.17    8.53
 -17  -4  -2    7.84    8.29
 -17   4   2    7.48    8.81
  17  -4  -2   -1.03    9.09
 -17  -4   2   14.11    7.12
 -17   4  -2    5.27    7.68
 -17   4  -2   22.12   10.69
 -17   4  -2    6.38    6.98
  17   4   2    1.46    5.51
  17  -4  -2    6.01    9.62
 -17  -4   2   19.87    7.22
  17  -4  -2   -7.57    8.34
  17   4   2    8.07    7.89
 -17   4  -2   14.25    8.49
 -17   5   2   38.66   10.91
  17  -5   2   28.64   10.95
 -17  -5  -2   38.32   11.95
  17  -5   2   28.40   10.08
 -17   5   2   48.12   12.15
 -17   5   2   35.28   11.32
 -17  -5  -2   26.64   11.26
  17  -5   2   14.78   10.20
 -17   5  -2   32.55    9.86
  17  -5  -2   26.59   12.40
 -17   5  -2   17.59   11.39
  17   5   2   30.96    9.85
 -17   5  -2    3.48    8.58
  17  -5  -2   30.36   12.60
 -17   5  -2   20.06   10.13
  17  -5  -2   40.48   13.23
 -17   0  -3    0.65    7.37
  17   0  -3    6.81    6.76
 -17   0  -3   -0.15    5.96
  17   0  -3   -0.75    6.57
 -17   0  -3   14.67    7.98
  17   0   3   14.34    8.09
 -17   0   3    1.20    6.89
 -17   0  -3   13.72    6.90
  17   0   3   13.59    7.98
  17   0  -3    0.76    6.39
  17   0   3    9.30    7.60
 -17   0   3   12.76    5.96
  17   0  -3    6.07    6.53
 -17   0   3   -5.70    6.58
  17   0   3   -1.24    7.62
 -17  -1  -3 1270.72   36.13
  17  -1   3 1189.48   37.41
 -17   1   3 1170.96   37.10
  17  -1   3 1247.76   37.40
  17  -1   3 1205.93   37.53
 -17   1   3 1215.46   34.71
 -17  -1  -3 1227.10   38.07
 -17  -1  -3 1217.14   38.17
  17   1  -3 1214.09   33.24
  17   1  -3 1260.47   34.18
 -17   1   3 1245.97   37.80
 -17  -1  -3 1240.38   33.57
  17  -1   3 1213.67   35.34
  17   1  -3 1255.74   35.65
  17   1  -3 1191.38   33.74
 -17   1  -3 1313.60   36.85
  17  -1  -3 1190.23   36.73
  17  -1  -3 1201.68   36.41
 -17   1  -3 1284.07   37.51
  17   1   3 1225.67   37.10
  17   1   3 1183.46   36.28
  17   1   3 1239.14   36.26
 -17   1  -3 1252.78   36.35
 -17  -1   3 1243.06   35.79
  17   1   3 1264.99   37.61
 -17   1  -3 1272.90   37.03
  17  -1  -3 1308.21   37.32
 -17  -1   3 1244.69   35.96
  17  -1  -3 1267.39   37.40
  17  -2   3  130.84   14.38
 -17   2   3  140.73   14.01
 -17  -2  -3  130.92   14.66
  17   2  -3  130.15   12.43
  17  -2   3  149.80   15.64
 -17   2   3  151.01   16.16
  17  -2   3  153.47   15.08
 -17  -2  -3  150.73   16.41
 -17  -2  -3  143.11   13.84
 -17   2   3  133.29   14.82
 -17   2  -3  139.49   13.84
 -17  -2   3  141.27   12.66
  17   2   3  146.95   14.56
  17  -2  -3  130.80   14.87
  17   2   3  163.87   14.99
  17   2   3  159.60   15.46
 -17   2  -3  146.24   17.27
 -17   2  -3  130.53   13.58
  17   2   3  165.26   15.27
  17  -2  -3  122.87   14.51
 -17  -2   3  153.34   13.66
 -17   2  -3  134.43   13.67
  17  -2  -3  144.72   16.11
  17  -2  -3  142.10   15.54
 -17   2  -3  154.21   14.78
  17  -3   3  743.51   29.73
 -17  -3  -3  781.80   30.73
  17  -3   3  819.92   30.40
  17   3  -3  773.21   25.51
  17  -3   3  768.05   28.90
 -17   3   3  747.55   30.38
 -17  -3  -3  761.63   30.52
 -17   3   3  789.13   30.47
 -17   3   3  804.77   28.70
  17   3   3  804.06   28.55
 -17   3  -3  777.43   25.07
  17   3   3  781.50   28.54
 -17   3  -3  777.65   27.84
  17  -3  -3  759.08   31.32
 -17   3  -3  753.85   33.18
  17  -3  -3  758.23   30.49
 -17  -3   3  800.72   25.99
 -17   3  -3  772.55   29.45
  17   3   3  759.11   27.67
 -17  -3   3  796.63   25.90
  17  -3  -3  801.43   31.03
  17  -3  -3  788.61   31.71
 -17  -4  -3  149.15   17.88
  17  -4   3  107.39   14.76
  17  -4   3  147.27   16.89
 -17   4   3   97.82   14.40
 -17   4   3  129.29   16.22
 -17  -4  -3  121.02   16.13
 -17   4   3  143.04   16.14
  17  -4   3  134.24   15.26
  17  -4  -3  131.61   17.13
 -17   4  -3  112.18   13.61
 -17   4  -3  140.53   18.91
  17   4   3  137.89   15.51
  17  -4  -3  112.62   16.63
 -17   4  -3  141.70   15.92
 -17  -4   3  131.00   12.59
 -17   4  -3  117.59   13.05
 -17  -4   3  114.76   11.80
  17  -4  -3  121.41   16.21
  17  -5   3  437.42   23.35
  17  -5   3  476.35   26.01
 -17  -5  -3  474.79   27.35
 -17  -5  -3  472.67   27.04
 -17   5   3  472.29   27.21
 -17   5   3  442.53   25.05
 -17   5   3  451.12   26.30
  17  -5   3  425.31   24.82
 -17   5  -3  437.20   22.48
  17   5   3  439.45   23.50
 -17   5  -3  441.49   25.78
  17  -5  -3  450.71   27.93
  17  -5  -3  460.17   27.61
  17  -5  -3  455.72   28.20
 -17   5  -3  473.83   24.56
 -17   5  -3  451.70   29.70
 -17   0  -4   -1.87    6.23
 -17   0   4   -0.98    7.37
 -17   0  -4    4.20    7.44
  17   0  -4    2.04    6.43
  17   0  -4    8.87    7.08
  17   0   4    2.26    8.25
 -17   0   4    1.16    7.84
  17   0   4    4.14    8.39
 -17   0  -4   15.67    8.93
  17   0   4    6.74    7.78
 -17   0  -4    4.13    8.31
  17   0  -4  -10.33    6.07
  17   0  -4   -4.43    7.19
  17   0   4    4.22    6.97
 -17  -1  -4  123.01   13.94
  17  -1   4   88.49   13.71
  17   1  -4  110.68   11.89
  17  -1   4  104.57   13.15
 -17   1   4  137.25   15.42
 -17  -1  -4  105.22   11.71
  17  -1   4  103.45   13.41
 -17   1   4  123.56   13.49
 -17  -1  -4  120.25   14.90
  17   1  -4  121.21   12.32
  17   1  -4   92.49   12.42
 -17  -1  -4   94.49   14.00
  17  -1   4   96.79   13.56
 -17   1   4   91.80   13.50
  17   1   4  125.90   15.54
 -17   1  -4  109.06   13.70
  17  -1  -4  100.16   13.95
  17   1   4  102.57   13.86
 -17   1  -4   90.35   12.70
 -17  -1   4  100.81   12.98
  17  -1  -4  103.70   13.32
  17  -1  -4  129.38   14.53
 -17   1  -4  109.84   13.75
 -17  -1   4  109.56   12.95
  17  -1  -4  110.99   13.64
  17   1   4  107.56   14.37
 -17   1  -4   99.11   12.37
  17   1   4   95.65   12.10
 -17  -2  -4    1.25    8.97
  17  -2   4   10.35    9.47
  17  -2   4   -2.06    8.70
 -17   2   4   -0.71    9.22
  17  -2   4   -7.88    7.64
  17   2  -4   -1.21    5.64
 -17   2   4    7.47    8.02
  17   2  -4    4.45    7.12
 -17  -2  -4    4.45    9.13
 -17   2   4    7.07    9.33
 -17  -2  -4    9.99    9.60
  17   2   4    7.47    7.88
  17   2   4   -9.48    7.65
  17   2   4   -6.74    7.98
  17  -2  -4   -2.67    8.74
 -17   2  -4    0.95    7.91
  17  -2  -4    7.95    8.94
 -17  -2   4    2.33    7.26
 -17  -2   4    9.82    7.80
  17  -2  -4   10.75    8.70
  17   2   4   -0.74    7.43
  17  -2  -4    7.66    9.10
 -17   2  -4    6.22   10.37
 -17   2  -4   12.35    8.44
 -17   2  -4   -0.82    7.59
 -17   2  -4    3.04    7.30
 -17   3   4   82.38   14.37
 -17   3   4   83.59   12.71
  17  -3   4   96.61   14.26
  17   3  -4   82.08   11.05
  17  -3   4   73.36   13.40
  17  -3   4   81.98   12.83
 -17  -3  -4   60.57   13.36
 -17   3   4   77.76   14.53
 -17  -3  -4   93.09   15.51
  17   3  -4   89.31   12.85
 -17  -3   4   76.88   11.27
  17   3   4   46.83   11.01
 -17   3  -4   67.56   11.94
 -17   3  -4   78.60   13.49
 -17  -3   4   70.63   10.93
  17   3   4   82.57   13.13
  17   3   4   68.43   12.62
  17  -3  -4   67.19   14.30
  17  -3  -4   71.35   14.68
  17  -3  -4   51.52   12.91
 -17   3  -4   38.40   13.85
  17  -4   4   36.07   11.25
 -17   4   4   13.45   10.65
  17  -4   4   16.49   10.43
  17  -4   4   22.64   10.01
 -17   4   4    9.08    9.55
 -17  -4  -4   21.09   11.88
 -17   4   4   22.71   11.36
 -17  -4  -4   29.00   13.09
  17  -4  -4   21.75   12.33
 -17  -4   4   29.98    8.35
 -17   4  -4   21.14    9.41
 -17   4  -4   17.94   10.41
  17   4   4   26.28   11.09
  17  -4  -4   11.09   12.20
 -17   4  -4   34.80   14.40
  17  -4  -4   20.74   11.47
 -17  -5  -4   -8.41   11.01
  17  -5   4   -4.00    9.51
  17  -5   4    5.69    9.80
 -17   5   4   14.71   10.84
 -17   5   4   12.97   11.35
  17  -5   4   12.29   11.40
 -17   5   4   19.37   11.91
 -17  -5  -4   -0.52   10.85
 -17   5  -4   -5.90    8.35
  17  -5  -4   16.03   13.69
  17  -5  -4    7.98   12.26
 -17   5  -4    0.15   12.30
  17  -5  -4    1.31   11.63
 -17   5  -4   -1.38    9.08
  17   5   4   12.74   10.23
 -17   5  -4    2.30    9.07
  17   0  -5    9.51    8.30
  17   0  -5   10.05    7.52
 -17   0   5   10.89    9.10
 -17   0  -5    2.61    8.66
 -17   0   5    9.03    8.22
  17   0   5    5.45    9.78
  17   0   5    2.40    7.13
 -17   0   5    0.84    8.63
  17   0  -5    3.55    7.22
 -17   0  -5    5.97    8.73
 -17   0  -5    1.77    7.66
  17   0   5   -0.54    9.30
 -17   0  -5    0.39    8.74
  17   0   5   13.77    9.62
  17   0  -5    4.47    9.45
 -17  -1  -5  788.70   31.38
 -17  -1  -5  810.87   32.84
  17  -1   5  841.77   33.35
 -17   1   5  798.27   32.57
 -17  -1  -5  783.95   32.52
  17  -1   5  749.84   31.79
  17   1  -5  804.31   30.45
 -17   1   5  715.61   31.35
  17  -1   5  759.89   31.17
 -17   1   5  783.06   30.85
  17   1   5  804.63   32.10
  17   1   5  807.75   30.75
 -17   1  -5  819.21   31.05
  17  -1  -5  817.72   31.50
  17  -1  -5  773.05   30.43
 -17   1  -5  829.24   31.30
 -17   1  -5  778.71   30.88
 -17   1  -5  783.58   30.87
  17  -1  -5  788.69   32.12
 -17  -1   5  766.87   30.13
  17  -1  -5  741.34   30.53
 -17  -1   5  801.98   30.50
  17   1   5  747.01   32.05
  17   1   5  755.45   32.15
 -17   2   5   37.96    9.94
  17  -2   5   27.86   10.58
 -17   2   5   43.21   12.63
  17  -2   5   32.93   12.23
 -17  -2  -5   27.90   11.63
  17  -2   5   18.65   11.09
  17   2  -5   35.56   10.27
 -17  -2  -5   23.99   10.64
 -17   2   5   31.79   11.82
  17   2   5   37.90   12.00
 -17   2  -5   17.80    9.18
  17  -2  -5   29.21   11.12
 -17   2  -5   22.35   12.79
  17   2   5   27.55   10.14
 -17  -2   5   34.78   10.34
 -17  -2   5   49.73   10.62
  17  -2  -5   28.11   11.25
  17   2   5   34.03   11.89
  17   2   5    6.78   10.33
  17  -2  -5   24.05   10.71
 -17   2  -5   22.51    9.54
  17  -2  -5   40.16   12.01
  17   3  -5  353.39   19.60
  17  -3   5  345.45   23.33
 -17   3   5  360.78   22.22
  17  -3   5  340.70   22.87
  17  -3   5  347.42   22.37
 -17  -3  -5  340.09   25.23
 -17   3   5  347.44   25.23
 -17   3   5  353.28   24.54
 -17  -3  -5  367.16   25.77
  17  -3  -5  369.54   25.12
  17   3   5  322.24   22.22
  17   3   5  252.68   20.91
 -17   3  -5  338.62   22.82
 -17  -3   5  316.62   19.16
  17  -3  -5  317.54   24.33
  17   3   5  315.40   21.53
 -17  -3   5  311.72   19.30
 -17   3  -5  346.88   20.81
  17  -3  -5  378.06   25.96
 -17   3  -5  319.77   27.36
 -17   4   5   60.68   14.56
  17   4  -5   59.47   12.97
 -17   4   5   48.31   14.60
  17  -4   5   50.79   12.73
  17  -4   5   59.75   13.27
  17  -4   5   39.99   13.28
 -17  -4  -5   71.89   16.21
 -17  -4  -5   48.75   15.65
  17   4   5   24.78   10.55
 -17   4  -5   25.88   15.08
  17  -4  -5   61.77   15.17
  17  -4  -5   34.47   13.90
 -17   4  -5   43.44   11.94
  17  -4  -5   39.26   14.23
 -17  -4   5   54.38   10.74
 -17   4  -5   37.48   12.86
  17   0   6   -7.43    9.51
  17   0   6   -0.86   10.52
 -17   0  -6    6.72    9.04
 -17   0  -6   13.97   10.48
  17   0  -6   -2.54    9.32
  17   0   6  -13.08    9.03
  17   0  -6   -3.77    9.38
 -17   0  -6    0.96    8.99
  17   0  -6   -3.99    9.38
 -17   0   6   -9.25    9.65
 -17   0   6   -4.71    8.72
 -17   0   6   -1.66    9.15
 -17  -1  -6   26.98   11.55
 -17  -1  -6   76.03   15.30
  17  -1   6   53.54   13.55
  17  -1   6   57.24   13.20
 -17   1   6   55.27   13.35
  17   1  -6   56.64   13.63
 -17   1   6   53.60   14.42
 -17   1   6   50.91   14.35
 -17  -1  -6   62.08   13.83
  17  -1   6   55.38   13.63
  17  -1  -6   64.86   13.63
  17  -1  -6   59.96   14.24
 -17  -1   6   55.58   12.96
  17  -1  -6   57.08   13.26
 -17   1  -6   54.32   12.51
 -17   1  -6   52.52   11.85
  17  -1  -6   60.10   13.58
  17   1   6   51.25   13.28
 -17  -1   6   71.78   14.28
  17   1   6   27.57   12.70
 -17  -1   6   35.83   10.82
  17   1   6   60.83   14.47
  17   1   6   49.11   14.22
 -17  -2  -6   11.00   11.14
 -17   2   6    9.53   12.29
  17  -2   6    6.79   11.30
  17  -2   6   19.04   11.34
  17  -2   6   24.90   12.28
  17   2  -6   24.95   11.44
 -17  -2  -6   20.95   12.08
 -17   2   6    8.12   11.23
 -17   2   6   33.09   12.12
  17   2   6   27.62   12.41
  17  -2  -6   11.41   11.17
  17   2   6   -1.28   10.79
  17  -2  -6    0.44   11.12
 -17  -2   6    9.31    9.82
  17   2   6   13.81   11.31
 -17   2  -6   19.08   10.99
  17  -2  -6    8.44   10.84
  17  -2  -6   29.28   13.01
  17   2   6    6.91   10.82
 -17   2  -6   10.26   10.30
 -17  -2   6   10.47    9.84
 -17   2  -6    4.29   11.79
  17  -3   6   -1.63    9.58
 -17   3   6   -8.59   11.19
  17   3  -6    3.52    9.68
 -17  -3  -6   -9.69   10.70
 -17   3   6    0.78   11.31
  17  -3   6    1.78   11.05
 -17   3   6   -6.03    9.23
  17  -3   6   -3.02   10.71
 -17  -3  -6    5.57   12.08
  17   3   6   14.66   10.45
 -17  -3   6    7.62    9.35
  17  -3  -6   -5.01   11.24
 -17   3  -6    8.17   10.18
 -17   3  -6    1.94   10.67
  17   3   6  -16.77    9.92
  17   3   6    5.17   11.06
 -17  -3   6    0.92    9.23
  17  -3  -6   -0.40   11.60
  17  -3  -6   14.22   12.52
 -17   3  -6    2.17   12.71
  17   0   7    9.12   12.25
  17   0   7    5.85   11.78
 -17   0  -7   10.53   10.72
  17   0  -7   -3.14   10.15
 -17   0   7   21.49   13.08
  17   0   7   14.64   12.08
 -17   0   7    1.84   11.12
 -17   0   7    5.42   10.07
 -17   0  -7    7.23   10.37
 -17   1   7  299.57   25.42
  17   1  -7  317.61   24.42
 -17   1   7  340.81   25.12
  17  -1   7  279.11   26.94
 -17  -1  -7  286.98   24.25
 -17  -1  -7  345.58   26.35
 -17   1   7  300.72   25.59
  17  -1   7  323.22   26.68
 -17  -1  -7  284.60   23.52
  17  -1   7  340.76   25.72
 -17   1  -7  298.58   23.45
  17   1   7  320.21   25.93
  17  -1  -7  298.69   23.75
 -17  -1   7  344.25   24.95
 -17  -1   7  351.90   23.15
 -17  -1   7  280.39   23.89
  17   1   7  324.27   25.93
 -17   1  -7  313.15   27.91
  17  -1  -7  331.11   26.37
  17   1   7  331.93   27.54
  17  -1  -7  326.23   24.63
 -17  -2  -7   12.75   12.35
  17  -2   7   20.45   13.26
  17  -2   7   19.11   13.07
 -17   2   7   11.08   13.32
 -17   2   7   15.65   13.34
 -17   2   7   15.88   13.46
  17  -2   7   -5.64   10.26
 -17  -2  -7    1.25   12.43
  17   2  -7   20.18   12.08
 -17  -2   7   11.68   10.78
  17  -2  -7   18.85   12.95
  17  -2  -7   19.18   12.29
  17  -2  -7   -3.98   11.04
 -17  -2   7   11.92   11.15
 -17   2  -7   15.24   11.95
 -17   2  -7    8.31   13.54
  17  -2  -7   16.84   12.50
  17   2   7    1.12   12.22
  17   2   7   10.16   13.30
  17   2   7   13.66   12.79
  18   0   0  421.37   18.30
  18   0   0  437.92   19.10
  18   0   0  401.23   18.57
  18   0   0  444.04   18.93
 -18   0   0  468.02   19.98
 -18   0   0  447.29   16.90
 -18   0   0  429.26   17.53
 -18   0   0  432.07   19.98
 -18   1   0  229.09   13.68
  18  -1   0  229.09   15.10
 -18   1   0  238.20   13.77
  18  -1   0  228.15   15.16
  18   1   0  236.36   14.00
 -18  -1   0  237.51   15.34
 -18   1   0  199.09   14.95
  18  -1   0  235.38   15.05
 -18  -1   0  234.38   11.06
  18   1   0  222.30   13.55
  18   1   0  232.55   14.32
 -18   1   0  242.29   15.62
  18   1   0  232.49   14.00
 -18  -1   0  283.51   15.98
 -18  -1   0  235.70   12.97
  18  -1   0  254.91   15.37
  18  -2   0  238.82   15.49
 -18  -2   0  234.23    9.68
  18   2   0  248.83   13.08
 -18   2   0  227.87   15.91
  18   2   0  243.72   13.63
 -18  -2   0  240.54   15.55
 -18   2   0  241.39   11.92
  18  -2   0  250.12   16.57
  18   2   0  232.87   14.57
 -18   2   0  222.34   14.74
 -18   2   0  238.36   14.71
 -18   2   0  258.17   12.79
  18  -2   0  234.52   15.94
 -18  -2   0  237.81   15.49
  18  -2   0  242.85   17.03
 -18   2   0  261.49   16.61
  18   2   0  242.01   12.80
  18  -3   0   -0.52    8.00
 -18   3   0    2.42    7.11
 -18  -3   0    1.57    6.72
 -18   3   0   -4.00    6.89
 -18   3   0    5.31    5.75
 -18   3   0   -5.33    6.60
  18  -3   0   -6.65    7.18
  18  -3   0   -0.72    7.78
 -18   3   0   -3.80    5.73
 -18  -3   0    0.21    6.88
 -18   3   0    8.29    7.24
  18   3   0   -4.62    6.49
 -18   4   0   37.41    9.92
  18  -4   0   27.63   10.22
  18  -4   0   33.01   10.59
  18   4   0   54.02    9.46
 -18  -4   0   48.96    9.52
 -18  -4   0   52.30   10.19
  18   4   0   34.00    7.97
 -18   4   0   49.94   10.31
 -18   4   0   48.55   11.09
  18  -4   0   42.49   11.29
 -18   4   0   54.24   10.36
  18  -5   0   14.32   10.51
 -18  -5   0   33.19    9.69
  18   5   0   14.63    8.34
  18  -5   0   36.94   12.25
  18  -5   0   16.68   11.20
 -18   5   0   15.27    9.40
 -18   5   0   22.65    9.93
 -18   5   0   38.23   11.30
 -18   5   0   20.80   10.76
 -18  -5   0   28.39    9.37
  18   6   0   38.91   11.58
  18  -6   0   41.24   13.27
  18  -6   0   43.57   12.68
 -18   6   0   27.42   11.69
 -18   6   0   20.94   11.99
  18  -6   0   39.98   13.42
 -18   6   0   29.41   12.35
  18   0   1 1598.68   42.82
 -18   0   1 1641.70   43.19
 -18   0   1 1596.99   42.93
  18   0  -1 1632.95   42.59
  18   0   1 1607.76   42.67
  18   0  -1 1634.55   42.46
  18   0   1 1642.96   42.87
 -18   0   1 1637.89   40.72
 -18   0   1 1600.62   42.91
  18   0  -1 1564.42   42.25
  18   0  -1 1667.30   42.36
  18   0   1 1669.65   43.58
 -18   0   1 1626.66   39.93
 -18   0  -1 1642.52   40.32
 -18   0  -1 1608.46   43.54
 -18   0  -1 1613.47   43.72
 -18   0  -1 1658.98   41.75
 -18   0   1 1656.27   43.45
  18   1  -1   14.43    6.75
 -18  -1  -1   16.30    7.49
 -18  -1  -1   18.81    7.75
 -18  -1  -1   14.71    5.04
  18  -1   1    9.03    7.38
 -18   1   1   13.92    7.83
 -18   1   1   26.80    8.36
 -18   1   1   22.43    8.20
  18  -1   1   11.98    7.41
  18   1  -1   13.34    6.15
  18  -1   1   17.41    7.64
  18   1  -1   15.77    6.59
 -18   1   1   12.03    5.92
 -18  -1  -1   22.46    7.13
  18   1  -1   19.25    6.52
 -18   1   1   18.69    6.89
  18  -1   1   10.88    7.09
 -18   1   1   18.39    8.04
  18   1   1    1.38    6.52
 -18   1  -1   20.07    7.96
 -18  -1   1   12.97    4.65
  18   1   1    9.89    6.72
  18  -1  -1   10.83    7.28
  18   1   1    7.47    6.70
 -18  -1   1    7.19    6.69
 -18   1  -1    8.56    6.08
 -18   1  -1   16.46    7.87
  18  -1  -1   13.10    7.18
 -18  -1   1   10.15    7.06
 -18  -1   1   20.34    7.23
 -18  -1   1   16.11    7.09
  18   1   1   11.30    6.48
 -18   1  -1   12.62    6.43
 -18   1  -1   12.13    3.21
  18  -1  -1   13.71    7.03
 -18  -1   1   14.23    5.86
  18  -1  -1   14.71    7.58
 -18  -2  -1  714.77   26.25
  18  -2   1  670.22   25.54
 -18   2   1  705.86   26.77
 -18   2   1  691.92   26.34
 -18  -2  -1  706.67   26.05
 -18   2   1  729.59   26.40
  18  -2   1  678.68   25.83
  18  -2   1  684.34   26.12
 -18   2   1  667.51   18.15
 -18   2   1  686.60   24.34
 -18   2   1  692.26   24.91
 -18   2   1  655.71   25.65
  18   2  -1  681.92   20.95
 -18  -2  -1  706.89   19.09
  18  -2   1  659.99   24.53
  18   2  -1  730.06   22.51
  18   2  -1  688.12   21.48
  18   2  -1  679.57   23.52
 -18   2  -1  697.05   24.32
 -18   2  -1  727.86   25.05
 -18   2  -1  670.42   24.62
  18  -2  -1  733.67   26.97
  18   2   1  700.97   24.02
  18  -2  -1  718.11   26.05
 -18  -2   1  681.54   18.87
  18   2   1  694.36   24.55
 -18   2  -1  700.90   20.30
 -18   2  -1  744.63   26.32
 -18  -2   1  669.90   24.11
  18   2   1  718.50   23.80
 -18   2  -1  720.65   25.64
 -18  -2   1  699.13   24.40
  18   2   1  700.42   23.16
  18  -2  -1  737.96   26.57
  18  -2  -1  692.67   26.22
  18  -3   1   97.43   12.41
 -18   3   1   77.61   11.81
 -18   3   1   94.08   11.66
 -18   3   1   94.12   12.14
 -18  -3  -1   91.72   12.04
 -18   3   1   88.26   10.29
  18  -3   1  102.26   13.72
 -18   3   1   98.32   11.03
  18  -3   1   89.99   12.47
 -18   3   1   84.14   12.49
  18   3  -1   70.54    9.83
 -18  -3  -1   82.35   12.16
  18  -3  -1   71.53   11.73
 -18  -3   1   91.53   10.80
 -18   3  -1   77.23    9.21
  18  -3  -1   89.89   13.10
 -18   3  -1   95.34   11.90
  18   3   1   80.28    7.89
 -18  -3   1   87.93   10.90
  18   3   1   85.52   10.86
 -18   3  -1   89.84   11.56
 -18   3  -1   80.75   11.36
 -18   3  -1   70.57   10.42
  18  -3  -1   86.01   12.48
 -18   3  -1   89.34   11.94
 -18   4   1  658.89   26.36
 -18   4   1  655.21   28.73
 -18   4   1  622.02   27.02
  18  -4   1  615.77   26.27
 -18  -4  -1  621.32   25.60
 -18  -4  -1  618.72   25.65
  18  -4   1  615.22   27.34
  18  -4   1  644.98   27.55
  18   4  -1  627.04   22.02
 -18   4   1  626.02   25.49
 -18   4  -1  619.61   26.85
  18  -4  -1  616.53   27.80
  18  -4  -1  658.56   27.64
 -18  -4   1  646.55   23.87
 -18  -4   1  600.56   23.09
 -18   4  -1  593.91   27.01
 -18   4  -1  614.23   24.33
  18  -4  -1  623.44   27.90
 -18   4  -1  627.74   25.09
  18   4   1  635.49   23.89
  18   4   1  575.87   21.74
 -18   5   1   87.12   13.96
 -18  -5  -1  112.67   14.60
  18  -5   1  153.49   18.64
 -18   5   1   96.79   14.44
 -18   5   1   96.21   14.68
  18  -5   1  116.02   15.85
 -18  -5  -1  114.99   14.51
  18  -5   1  136.26   16.27
  18   5   1   99.00   12.62
  18  -5  -1  130.98   16.31
  18  -5  -1   92.29   15.63
 -18   5  -1   87.78   16.04
 -18   5  -1   82.69   13.86
 -18   5  -1   84.56   13.39
  18  -5  -1   92.52   15.54
 -18   5  -1  113.26   14.64
 -18  -5   1  121.06   13.52
  18   5   1  135.71   13.74
 -18  -6  -1  357.53   22.39
 -18   6   1  431.52   26.47
  18  -6   1  429.45   26.77
 -18   6   1  424.19   24.68
  18  -6   1  405.19   24.18
 -18   6   1  398.44   26.11
  18  -6  -1  420.62   27.29
  18   6   1  425.66   20.49
 -18   6  -1  350.48   27.74
  18  -6  -1  467.29   28.36
  18  -6  -1  362.16   25.63
 -18   6  -1  390.52   25.84
 -18   6  -1  372.67   22.28
 -18   6  -1  426.52   25.94
  18   0   2  239.73   16.15
  18   0  -2  243.52   15.27
  18   0   2  216.76   15.99
  18   0  -2  221.14   14.70
 -18   0   2  210.04   14.97
 -18   0  -2  231.45   13.39
  18   0   2  215.40   14.62
  18   0  -2  222.48   14.36
 -18   0  -2  224.26   14.77
 -18   0   2  243.50   15.45
  18   0   2  224.73   15.40
 -18   0  -2  239.08   16.07
  18   0  -2  239.71   14.32
 -18   0  -2  241.11   16.08
 -18   0   2  229.19   13.53
  18  -1   2    2.28    7.20
  18   1  -2    8.32    5.70
  18   1  -2    6.89    6.06
 -18   1   2    4.10    7.16
 -18  -1  -2    7.70    5.33
 -18  -1  -2   14.92    7.47
 -18   1   2    3.29    7.35
  18   1  -2    6.10    6.62
  18  -1   2    1.03    6.47
 -18  -1  -2    2.08    7.49
 -18   1   2   13.96    6.45
  18   1  -2   11.66    6.55
 -18  -1  -2    6.52    8.02
  18  -1   2    5.71    7.53
  18  -1   2   12.12    7.78
 -18   1  -2    3.65    7.08
  18  -1  -2   24.38    8.23
 -18   1  -2   -0.58    7.20
  18  -1  -2   14.14    7.96
  18   1   2   15.05    7.25
 -18  -1   2    7.01    5.62
  18  -1  -2    9.57    7.32
  18   1   2    4.76    7.09
 -18  -1   2    6.00    7.10
  18   1   2    0.37    6.92
  18   1   2    9.22    7.18
 -18  -1   2    7.69    6.75
  18  -1  -2    9.49    7.44
 -18   1  -2    9.21    6.99
 -18   1  -2    9.61    6.43
  18  -2   2  160.71   15.82
 -18   2   2  163.57   15.79
 -18  -2  -2  153.49    9.51
 -18  -2  -2  165.85   14.82
 -18  -2  -2  167.16   15.71
  18  -2   2  174.28   15.98
 -18   2   2  158.85   13.41
  18  -2   2  167.91   14.32
  18   2  -2  170.85   14.52
 -18  -2  -2  153.39   16.26
 -18   2   2  162.60   15.69
  18   2  -2  153.45   11.12
  18   2  -2  169.85   14.00
 -18   2   2  169.82   14.62
  18  -2   2  170.83   13.60
  18   2   2  167.26   14.70
  18  -2  -2  178.13   16.25
  18   2   2  172.61   13.58
 -18   2  -2  163.88   15.92
 -18  -2   2  153.57   13.19
  18  -2  -2  151.72   15.59
  18   2   2  160.57   13.70
 -18   2  -2  158.37   13.42
  18  -2  -2  166.74   15.72
 -18   2  -2  164.64   14.99
 -18   2  -2  154.92    9.14
  18  -2  -2  172.86   14.83
 -18   2  -2  165.69   13.90
  18   2   2  141.41   12.59
 -18  -2   2  160.01   13.25
 -18   2  -2  171.42   14.27
  18   3  -2  136.05   12.89
 -18  -3  -2  101.93   13.79
  18  -3   2  113.36   14.04
 -18   3   2  118.62   14.54
 -18  -3  -2  142.99   15.42
  18  -3   2  139.19   15.25
 -18   3   2  106.50   12.98
 -18   3   2  120.66   13.24
  18  -3   2  123.83   13.96
 -18   3   2  133.12   15.08
 -18   3   2  133.17   15.61
 -18  -3   2  119.18   12.25
 -18   3  -2  102.70   10.27
 -18   3  -2  118.50   15.21
 -18   3  -2  130.24   14.64
  18  -3  -2  123.83   14.71
 -18   3  -2  122.39   12.89
  18   3   2  115.26   13.07
  18   3   2  115.44   12.73
  18  -3  -2  131.34   21.42
  18  -3  -2  123.40   15.25
 -18  -3   2  132.14   12.64
 -18  -3   2  137.61   13.02
  18   3   2  137.06   12.79
  18  -3  -2  138.14   16.10
 -18   3  -2  129.54   13.83
  18  -4   2   66.86   12.13
 -18  -4  -2   91.72   14.08
 -18   4   2   84.00   13.02
 -18   4   2   83.76   13.70
 -18   4   2   89.89   13.53
  18   4  -2   81.97   10.56
 -18   4   2   72.74   12.40
 -18   4   2   77.02   13.37
  18  -4   2   83.19   13.40
 -18  -4  -2   86.64   13.85
  18  -4   2   74.38   13.20
 -18   4  -2   77.23   11.92
 -18  -4   2   77.34   10.25
 -18   4  -2   85.24   11.74
  18  -4  -2   61.74   13.47
 -18  -4   2   85.63   10.96
  18   4   2   75.87   11.88
 -18   4  -2   86.58   13.22
  18  -4  -2   59.35   13.02
 -18   4  -2   85.03   14.26
  18  -4  -2  104.69   15.33
 -18   5   2   11.07    9.59
 -18   5   2    6.64    9.84
  18  -5   2    5.74    9.27
  18  -5   2    5.38    9.66
 -18  -5  -2   -5.47    8.82
  18  -5   2    8.47    9.99
 -18  -5  -2    1.81    9.84
 -18   5   2   -4.85    9.06
 -18   5  -2   10.50    8.91
  18  -5  -2  -19.23    9.84
 -18   5  -2    1.02   10.97
  18   5   2    8.42    8.62
 -18   5  -2    6.01    8.62
  18  -5  -2    6.54   10.40
  18  -5  -2   22.30   11.94
 -18   5  -2  -11.29    8.47
  18   0   3 1283.41   38.52
 -18   0   3 1247.98   37.66
  18   0  -3 1234.31   37.36
  18   0  -3 1345.76   37.13
 -18   0   3 1242.11   34.88
  18   0   3 1280.45   37.28
 -18   0  -3 1285.37   37.33
 -18   0  -3 1266.01   38.54
  18   0  -3 1263.12   36.68
  18   0  -3 1259.73   36.82
  18   0   3 1267.01   39.08
 -18   0  -3 1320.65   39.59
 -18   0  -3 1268.70   36.10
 -18   0   3 1276.37   37.94
  18   0   3 1285.90   38.84
  18   1  -3  140.30   12.25
 -18  -1  -3  117.77   11.10
  18   1  -3  136.75   12.42
  18  -1   3   87.53   12.29
 -18   1   3   99.02   12.82
  18  -1   3  100.45   11.75
 -18  -1  -3  130.04   13.22
  18   1  -3  105.52   12.26
 -18  -1  -3  109.30   14.18
  18  -1   3  113.25   13.97
  18   1  -3  101.49   11.05
 -18   1   3  112.81   11.53
 -18  -1  -3  108.36   13.56
  18  -1   3  112.79   14.07
 -18   1   3  121.83   14.61
  18   1   3   97.78   13.33
  18  -1  -3  125.20   13.82
  18   1   3  144.98   15.14
 -18   1  -3  107.17   13.00
  18   1   3  132.82   14.14
 -18   1  -3  119.22   13.78
  18  -1  -3  113.48   13.74
 -18  -1   3  108.68   12.35
  18   1   3   97.86   12.54
 -18   1  -3  124.15   12.86
 -18  -1   3  100.12   12.25
  18  -1  -3  110.33   13.15
  18  -1  -3  119.69   13.92
 -18   1  -3  146.94   14.33
  18  -2   3 1246.58   39.48
  18   2  -3 1227.83   35.58
 -18   2   3 1247.11   39.97
 -18   2   3 1280.28   37.09
 -18  -2  -3 1245.31   40.01
 -18  -2  -3 1316.58   40.90
 -18   2   3 1271.22   40.20
  18  -2   3 1228.12   39.57
  18  -2   3 1273.20   38.89
  18   2   3 1236.23   37.52
  18  -2  -3 1311.91   39.87
  18  -2  -3 1294.54   40.44
 -18   2  -3 1144.64   41.27
 -18   2  -3 1260.66   37.64
 -18   2  -3 1255.15   38.30
 -18   2  -3 1309.30   38.13
 -18   2  -3 1295.10   37.91
  18   2   3 1229.50   37.71
 -18  -2   3 1240.14   36.43
 -18  -2   3 1296.43   36.66
  18   2   3 1268.97   38.08
  18   2   3 1239.88   37.83
  18  -2  -3 1286.10   39.82
  18  -2  -3 1294.66   39.75
  18  -3   3    5.09    8.82
 -18   3   3   27.78   10.51
  18   3  -3   24.04    8.24
 -18   3   3   12.21    8.53
  18  -3   3    3.98    8.63
 -18  -3  -3   19.05   10.20
 -18  -3  -3   14.52    9.47
 -18   3   3   11.95    8.78
  18  -3   3   15.29    9.10
 -18   3   3   11.89    9.45
 -18   3  -3   15.20    6.16
 -18  -3   3    9.95    7.16
  18  -3  -3   10.79   13.68
  18  -3  -3   14.39    9.91
  18   3   3   20.45    8.52
 -18   3  -3    6.89    8.23
 -18   3  -3   17.04    8.68
 -18   3  -3   17.94    9.92
  18  -3  -3   21.84   10.45
  18   3   3   18.88    9.48
 -18  -3   3   23.60    8.09
  18   3   3   17.18    8.16
  18  -3  -3   17.67    9.98
 -18  -4  -3  688.77   30.63
 -18   4   3  664.51   27.90
  18  -4   3  657.30   27.78
 -18   4   3  604.73   28.63
  18  -4   3  636.54   28.60
 -18  -4  -3  604.63   29.11
  18  -4   3  614.39   28.63
 -18   4   3  616.67   28.47
  18   4   3  613.06   26.77
 -18   4  -3  620.25   27.99
 -18   4  -3  624.58   31.60
 -18  -4   3  650.69   23.81
  18  -4  -3  634.93   30.15
 -18  -4   3  583.73   22.84
 -18   4  -3  605.25   25.81
 -18  -4   3  606.14   23.04
  18  -4  -3  608.86   29.41
 -18   4  -3  660.35   25.68
  18  -4  -3  616.41   29.74
  18  -5   3   38.88   11.88
 -18   5   3   39.80   12.82
 -18   5   3   30.34   11.45
 -18  -5  -3   60.31   14.15
  18  -5   3   45.82   11.67
 -18  -5  -3   35.04   12.34
  18  -5   3   18.68   11.16
 -18   5   3    7.09   11.44
  18  -5  -3   22.24   12.52
 -18   5  -3   19.63    9.95
 -18   5  -3   38.58   14.26
 -18   5  -3   39.69   10.64
  18  -5  -3   17.23   12.50
  18   5   3   39.91   11.21
  18  -5  -3   44.43   14.20
 -18   5  -3   25.79   11.65
  18   0   4  145.28   16.46
 -18   0  -4  140.81   16.07
  18   0   4  138.17   16.12
  18   0  -4  156.86   15.57
  18   0  -4  151.38   14.81
  18   0   4  152.32   14.77
 -18   0   4  158.31   15.90
 -18   0   4  148.05   16.13
 -18   0  -4  127.03   13.21
  18   0  -4  153.65   16.52
 -18   0  -4  144.08   16.61
  18   0  -4  128.69   13.84
 -18   0  -4  141.90   15.29
  18   0   4  182.34   18.38
  18  -1   4   16.98    9.70
  18  -1   4   26.87   10.25
  18   1  -4   31.06    8.25
 -18   1   4   12.34    9.71
  18  -1   4   26.19   10.31
 -18  -1  -4   29.02   10.63
 -18   1   4   20.40    7.93
 -18  -1  -4   15.85    8.22
 -18   1   4   38.12   11.02
 -18  -1  -4   20.16   10.18
  18   1  -4   30.92    9.52
  18  -1   4   38.99   11.05
  18   1  -4   26.66    8.10
 -18  -1  -4   29.27    8.44
  18   1   4   37.81   11.21
 -18  -1   4   29.85    9.85
 -18  -1   4   38.27    9.70
  18  -1  -4   28.39    9.98
 -18   1  -4   22.08   10.12
 -18   1  -4   37.65    9.41
  18  -1  -4   28.78    9.97
  18   1   4   23.20    8.61
  18   1   4   42.46   11.10
  18  -1  -4   32.26    9.95
 -18   1  -4   15.18    9.41
  18  -1  -4   32.99   10.05
 -18   1  -4   32.84    9.88
  18   1   4   42.22   11.07
 -18   2   4   80.83   14.08
  18  -2   4   52.97   12.01
 -18  -2  -4   58.57   12.93
 -18  -2  -4   72.19   13.67
 -18   2   4   57.76   10.99
  18   2  -4   51.76   10.75
  18  -2   4  104.05   14.68
 -18   2   4   63.69   13.32
  18  -2   4   62.21   12.50
  18   2   4   68.38   12.63
  18   2   4   47.65   11.73
 -18   2  -4   43.24   13.52
 -18   2  -4   64.76   12.14
 -18   2  -4   69.47   11.90
  18   2   4   79.31   12.38
  18  -2  -4   68.66   13.14
 -18  -2   4   61.84   11.15
  18   2   4   75.39   12.98
  18  -2  -4   47.17   11.64
 -18  -2   4   80.30   11.57
 -18   2  -4   66.11   11.58
  18  -2  -4   68.50   13.10
  18  -2  -4   63.47   13.63
 -18  -3  -4   -9.25    8.50
  18  -3   4   -7.69    8.37
 -18   3   4    5.59    9.75
  18  -3   4   -2.10    9.00
  18   3  -4    3.90    7.18
 -18   3   4    2.54    8.18
 -18  -3  -4   15.00   10.53
  18  -3   4   -4.02    8.47
 -18   3   4   -2.54    9.42
 -18  -3   4   -1.53    6.87
  18   3   4    8.17    8.50
 -18   3  -4   -4.88    8.21
  18   3   4    1.08    8.33
 -18   3  -4   -7.41    7.69
  18  -3  -4   -3.40    9.69
  18   3   4   -9.49    7.78
 -18  -3   4   -6.51    6.99
 -18   3  -4    4.05   10.50
  18  -3  -4   -0.51    9.44
  18  -3  -4    7.79   10.29
  18  -4   4   28.93   11.76
  18  -4   4   29.46   11.63
 -18   4   4   56.06   13.82
 -18  -4  -4   50.86   14.62
 -18   4   4   22.37   11.23
 -18   4   4   38.39   13.05
  18  -4   4   56.59   13.34
 -18  -4  -4   45.65   14.08
 -18  -4   4   44.93   10.28
  18   4   4   47.03   12.85
  18  -4  -4   72.14   16.18
 -18   4  -4   41.61   15.45
  18  -4  -4   32.64   13.59
  18  -4  -4   40.28   13.28
 -18   4  -4   41.79   12.38
 -18   4  -4   54.52   12.22
  18  -5   4   41.58   13.37
 -18  -5  -4   58.89   16.01
 -18   5   4   61.22   14.38
 -18   5   4   35.40   12.69
 -18   5   4   68.26   14.83
  18  -5   4   60.00   13.93
 -18  -5  -4   51.94   14.63
  18  -5   4   67.93   13.47
  18  -5  -4   68.91   17.95
  18  -5  -4   34.98   14.61
  18   5   4   43.24   12.51
 -18   5  -4   73.14   14.79
 -18   5  -4   50.58   16.71
 -18   5  -4   41.32   11.47
  18  -5  -4   41.99   15.82
  18   0   5  273.45   20.42
  18   0  -5  291.28   18.47
  18   0  -5  241.96   18.54
 -18   0  -5  289.94   20.64
  18   0  -5  266.02   20.04
 -18   0  -5  276.72   18.50
  18   0  -5  262.47   18.08
  18   0   5  259.57   20.62
 -18   0  -5  287.70   19.87
 -18   0  -5  275.05   20.29
 -18   0   5  264.48   20.33
  18   0   5  258.79   20.58
 -18   0   5  300.38   21.06
  18   0   5  264.20   18.47
 -18  -1  -5   33.68   10.67
  18  -1   5   12.31    9.69
  18  -1   5   29.16   11.79
 -18  -1  -5   27.03   10.78
 -18   1   5   48.44   12.05
  18  -1   5   36.15   11.37
  18   1  -5   22.56   10.14
 -18   1   5   19.68   10.80
 -18  -1  -5   46.38   12.69
  18  -1  -5   16.17    9.66
 -18   1  -5   34.80   10.54
  18   1   5   50.09   12.23
  18   1   5   16.72   11.23
  18  -1  -5   22.45   11.13
 -18  -1   5   50.41   11.26
 -18   1  -5   24.57   10.32
  18   1   5   30.10   11.36
 -18   1  -5   14.98    9.51
  18  -1  -5   21.41    9.98
  18  -1  -5   26.72   10.08
  18   1   5   29.23   11.57
 -18  -1   5   37.25   10.70
 -18   1  -5   38.17   10.94
 -18  -2  -5  529.55   28.61
  18   2  -5  514.61   24.58
  18  -2   5  543.32   28.20
  18  -2   5  520.17   27.42
  18  -2   5  545.62   27.06
 -18   2   5  513.85   25.11
 -18  -2  -5  547.72   29.00
 -18   2   5  583.86   29.81
 -18   2   5  589.13   29.30
  18   2   5  573.23   28.53
  18  -2  -5  557.52   28.53
 -18   2  -5  591.45   26.29
  18  -2  -5  534.97   28.20
  18  -2  -5  582.43   28.67
 -18  -2   5  610.52   25.79
  18   2   5  570.24   27.85
  18   2   5  550.49   27.67
 -18  -2   5  552.50   25.11
  18   2   5  524.24   26.30
 -18   2  -5  536.51   32.36
  18  -2  -5  529.60   28.13
 -18   2  -5  563.78   27.05
 -18  -3  -5   38.58   13.58
  18   3  -5   63.69   11.82
 -18   3   5   51.23   14.36
 -18  -3  -5   60.27   15.20
 -18   3   5   42.63   11.69
  18  -3   5   46.18   12.13
  18  -3   5   60.79   14.17
  18  -3   5   47.65   13.26
 -18   3   5   44.64   13.85
  18  -3  -5   58.96   14.75
  18   3   5   50.15   13.12
 -18  -3   5   47.27   10.84
 -18   3  -5   62.15   12.81
  18  -3  -5   69.55   15.19
  18   3   5   20.47   10.42
  18  -3  -5   52.81   14.05
 -18   3  -5   49.55   12.88
 -18   3  -5   39.88   15.42
 -18  -3   5   37.33   10.68
  18   3   5   22.18   11.03
  18  -4   5  376.11   24.51
  18  -4   5  348.90   23.01
  18  -4   5  329.35   24.87
 -18   4   5  320.79   23.68
 -18   4   5  313.71   26.15
 -18  -4  -5  336.61   26.89
 -18  -4  -5  291.31   25.38
 -18   4  -5  292.87   29.99
  18   4   5  303.50   22.66
 -18   4  -5  273.03   23.14
 -18   4  -5  323.65   21.55
 -18  -4   5  307.03   19.54
  18  -4  -5  343.00   26.89
  18  -4  -5  327.65   26.96
  18  -4  -5  360.46   28.01
  18   0   6  102.76   16.98
 -18   0   6  100.74   15.85
  18   0   6  105.81   16.90
 -18   0   6  105.06   15.21
 -18   0  -6   90.71   15.72
  18   0   6  116.61   18.07
  18   0  -6  104.44   16.97
 -18   0  -6   93.92   15.70
 -18   0  -6   92.78   14.92
 -18   0   6   91.91   16.11
  18  -1   6   24.39   13.20
 -18   1   6   23.71   11.00
 -18  -1  -6   45.70   12.22
 -18   1   6   39.42   13.70
 -18   1   6   42.15   14.03
 -18  -1  -6   32.36   12.05
 -18  -1  -6   28.05   12.07
  18   1  -6   26.57   11.52
  18  -1   6   44.66   13.49
  18  -1   6   48.41   12.77
  18   1   6   26.16   11.91
  18  -1  -6   35.80   11.61
 -18  -1   6   24.14   11.86
  18   1   6   26.27   12.82
 -18  -1   6   16.75   11.49
  18   1   6   11.26   11.60
  18  -1  -6   29.51   11.44
 -18   1  -6   14.43   10.82
 -18   1  -6   49.26   12.18
  18  -1  -6    6.04   10.58
  18   1   6   33.11   12.82
  18  -1  -6   25.96   11.37
 -18  -2  -6   61.61   15.12
 -18  -2  -6   64.86   15.39
 -18   2   6   81.53   16.62
 -18   2   6   78.40   17.13
  18   2  -6   54.65   13.38
  18  -2   6   55.88   14.64
  18  -2   6   55.94   15.38
  18  -2   6   56.72   14.16
  18   2   6   78.72   16.10
  18  -2  -6   71.99   15.43
  18  -2  -6   68.23   15.81
  18   2   6   70.45   15.15
  18  -2  -6   71.33   15.48
 -18   2  -6   70.68   14.39
 -18  -2   6   61.97   13.47
 -18   2  -6   83.93   14.81
  18   2   6   78.95   16.06
 -18  -2   6   62.03   13.46
  18  -2  -6   59.94   15.21
 -18   2  -6   40.19   15.30
  18   2   6   54.29   14.91
 -18  -3  -6   17.55   13.30
  18  -3   6   21.18   12.06
 -18   3   6   42.28   15.43
  18  -3   6    6.73   11.88
 -18   3   6   22.47   12.08
  18  -3   6   36.41   12.95
 -18   3   6   13.39   13.06
  18   3  -6   38.28   11.83
 -18  -3  -6   25.02   14.52
  18  -3  -6   33.06   13.99
 -18   3  -6   35.25   13.16
 -18   3  -6   11.40   13.99
 -18  -3   6   20.74   10.28
  18  -3  -6   39.50   14.81
  18  -3  -6   31.64   14.24
  18   3   6   10.88   10.86
  18   3   6   25.46   12.93
  18   3   6   47.07   13.97
 -18   3  -6   24.43   11.04
 -18  -3   6   24.52   10.74
  18   0   7  300.71   26.45
  18   0   7  276.97   26.79
 -18   0  -7  286.57   23.94
 -18   0   7  300.08   27.38
 -18   0  -7  262.32   22.76
  18   0   7  296.14   25.06
  18   0  -7  317.59   25.27
 -18   0   7  260.68   22.05
 -18   0   7  303.18   25.19
  18  -1   7    8.11   12.64
 -18   1   7   23.03   14.06
 -18  -1  -7   -8.92   10.53
 -18  -1  -7    6.81   11.45
  18   1  -7    9.54   11.59
  18  -1   7   14.92   12.69
 -18   1   7   15.88   11.26
 -18  -1  -7   40.50   13.60
 -18   1   7   23.46   13.88
  18  -1   7    7.24   11.92
  18   1   7   20.16   12.58
 -18   1  -7   42.77   15.77
 -18  -1   7   10.53   11.57
  18  -1  -7   16.26   12.81
  18  -1  -7   -1.17   11.63
  18   1   7    6.11   13.30
 -18   1  -7    2.49   10.34
  18   1   7   22.29   14.22
 -18  -1   7   12.66   11.83
  18  -1  -7   22.40   13.24
  19   0   0    2.47    6.25
  19   0   0    7.38    6.74
 -19   0   0    8.16    7.40
 -19   0   0    5.02    5.08
 -19   0   0    3.17    5.77
 -19   0   0   12.51    7.92
  19   0   0    4.66    6.71
  19   0   0    5.91    6.53
 -19  -1   0  607.30   23.40
 -19  -1   0  611.41   23.40
  19   1   0  589.66   21.82
 -19  -1   0  596.39   18.71
  19   1   0  605.25   22.46
  19  -1   0  571.34   23.15
 -19   1   0  593.19   21.55
 -19   1   0  579.68   23.98
  19  -1   0  575.63   23.50
  19  -1   0  616.76   23.37
 -19   1   0  566.89   23.53
 -19  -1   0  568.47   20.63
  19   1   0  577.14   22.38
  19   1   0  575.02   21.80
 -19   1   0  606.38   22.09
  19  -1   0  590.39   23.52
  19  -2   0   43.93   10.23
  19   2   0   37.77    7.63
 -19   2   0   48.94    7.49
 -19  -2   0   60.11   10.77
  19  -2   0   55.48   10.18
  19   2   0   53.64    8.80
 -19   2   0   67.92   10.23
  19   2   0   53.49    9.33
  19  -2   0   48.68   10.86
 -19   2   0   48.15   10.25
  19   2   0   69.98    8.89
 -19  -2   0   69.16    6.44
 -19   2   0   56.81    7.33
  19  -2   0   54.91   10.07
 -19   2   0   58.85   10.74
 -19   2   0   58.50    9.58
 -19  -2   0   66.72   10.73
 -19   3   0  297.76   15.47
  19   3   0  297.97   16.63
  19  -3   0  307.31   19.98
 -19   3   0  298.97   17.84
 -19  -3   0  287.15   17.14
 -19  -3   0  281.78   17.06
 -19   3   0  306.02   17.55
 -19   3   0  293.33   18.14
 -19   3   0  320.68   18.28
  19  -3   0  254.42   18.35
 -19   3   0  302.42   15.55
  19  -3   0  271.80   18.24
  19  -4   0   59.84   12.20
  19  -4   0   48.17   12.71
 -19   4   0   53.41   10.68
 -19  -4   0   60.30   11.09
 -19   4   0   64.96   11.91
  19   4   0   65.18   10.60
 -19  -4   0   65.07   11.43
 -19   4   0   51.79   10.99
 -19   4   0   95.98   12.13
  19  -4   0   52.95   12.62
 -19  -5   0  121.69   14.04
  19   5   0  134.61   13.44
  19  -5   0  109.97   16.59
 -19   5   0  125.11   15.71
 -19   5   0  112.51   15.96
  19   5   0  136.92   14.89
 -19   5   0  123.89   15.54
  19  -5   0  147.32   17.72
 -19  -5   0  148.66   15.59
  19  -5   0  132.75   17.55
 -19   0   1    6.48    5.48
  19   0   1    1.30    6.89
 -19   0  -1    9.22    7.59
  19   0  -1   10.10    6.61
 -19   0   1    3.72    7.04
 -19   0   1   10.21    7.91
 -19   0  -1   -4.34    6.87
  19   0   1   11.58    7.36
 -19   0   1    1.84    6.64
  19   0  -1   10.16    6.85
 -19   0  -1    7.37    6.71
  19   0   1    2.35    6.56
  19   0  -1    6.02    6.62
  19   0   1   12.02    6.75
  19   0  -1   -2.49    6.65
 -19   0   1   10.78    7.44
 -19   0   1    8.71    6.27
 -19   0  -1   10.61    5.72
 -19   1   1 1204.18   34.26
 -19  -1  -1 1235.74   34.35
  19  -1   1 1185.57   36.43
 -19  -1  -1 1217.32   36.63
 -19   1   1 1244.47   36.96
 -19   1   1 1200.77   36.38
  19  -1   1 1193.17   35.78
 -19   1   1 1220.81   34.35
  19  -1   1 1268.22   36.99
  19   1  -1 1252.08   34.25
  19   1  -1 1280.78   34.40
  19   1  -1 1234.91   34.96
  19   1  -1 1229.11   33.81
 -19   1   1 1231.35   36.83
 -19  -1  -1 1228.81   36.71
 -19  -1  -1 1196.87   31.40
  19  -1   1 1163.79   35.20
 -19   1   1 1220.57   36.72
 -19  -1   1 1222.79   35.81
 -19   1  -1 1375.43   38.20
 -19  -1   1 1222.38   35.62
 -19   1  -1 1220.39   26.67
 -19  -1   1 1191.91   32.45
  19   1   1 1176.67   34.81
 -19  -1   1 1214.89   35.59
  19  -1  -1 1165.11   35.74
 -19  -1   1 1240.24   31.30
 -19  -1   1 1222.43   35.66
  19  -1  -1 1224.24   36.79
  19   1   1 1180.40   34.88
 -19   1  -1 1196.39   34.49
  19  -1  -1 1204.65   35.89
  19  -1  -1 1251.89   36.90
  19   1   1 1151.09   34.86
 -19   1  -1 1217.54   36.50
 -19   1  -1 1211.23   34.22
  19   1   1 1160.34   34.71
  19  -2   1   33.84    9.33
 -19   2   1   26.50    7.89
 -19   2   1   14.65    8.48
  19  -2   1    6.34    7.08
 -19  -2  -1   20.23    8.42
  19   2  -1   15.42    6.41
 -19   2   1   37.63    8.62
  19  -2   1   24.00    9.06
 -19   2   1   20.43    8.54
 -19   2   1   16.98    8.31
 -19  -2  -1   10.27    4.56
  19  -2   1   29.24    9.32
 -19  -2  -1    8.66    7.87
  19   2  -1   13.45    7.66
  19   2  -1   23.24    6.67
 -19  -2   1   19.84    8.12
 -19   2  -1   18.85    8.35
 -19   2  -1   17.30    7.18
  19   2   1   20.35    7.12
 -19  -2   1   30.85    8.85
  19   2   1    9.67    6.93
  19  -2  -1    8.25    8.09
 -19   2  -1   13.27    8.23
 -19   2  -1   14.83    7.29
  19   2   1   19.19    7.97
  19  -2  -1   31.99    9.39
 -19   2  -1   16.31    4.67
  19   2   1   27.98    7.63
 -19   2  -1   13.79    7.60
 -19  -2   1   27.29    5.03
  19  -2  -1   26.46    8.23
  19  -2  -1   12.42    7.90
  19  -3   1  861.61   31.39
 -19   3   1  872.17   29.51
  19  -3   1  832.37   30.29
 -19   3   1  847.19   30.90
 -19  -3  -1  847.56   29.85
  19   3  -1  848.31   27.39
  19  -3   1  833.45   30.94
 -19  -3  -1  868.62   30.59
 -19   3   1  843.71   30.55
 -19   3   1  857.35   30.72
 -19   3   1  869.07   27.77
 -19  -3   1  863.06   28.14
 -19   3  -1  824.49   29.35
  19  -3  -1  856.18   31.60
  19  -3  -1  850.16   31.26
  19  -3  -1  824.88   31.03
  19   3   1  849.13   23.44
  19   3   1  836.95   28.19
 -19   3  -1  836.74   28.90
 -19   3  -1  830.39   30.12
 -19   3  -1  839.30   28.86
 -19  -3   1  815.19   27.86
 -19   3  -1  881.30   29.70
 -19   3  -1  857.22   26.35
  19  -4   1   49.14   12.59
  19  -4   1   31.83   10.35
 -19  -4  -1   35.50   10.64
 -19   4   1   51.42   13.56
 -19   4   1   57.67   10.99
 -19   4   1   30.81   10.31
  19   4  -1   43.96    9.46
 -19   4   1   42.22   10.71
  19  -4   1   70.44   12.82
 -19  -4  -1   34.18   10.24
  19   4   1   56.64   10.48
  19  -4  -1   36.65   11.63
  19   4   1   54.82    9.07
 -19   4  -1   72.47   12.52
 -19  -4   1   41.04    9.76
  19  -4  -1   43.53   11.92
 -19   4  -1   49.26    9.59
 -19   4  -1   50.82   10.76
  19  -4  -1   37.24   11.44
 -19   4  -1   23.16   10.39
 -19  -4   1   46.43    9.97
  19  -5   1  217.38   21.53
  19  -5   1  207.25   19.49
 -19   5   1  183.28   18.79
 -19  -5  -1  230.76   20.12
 -19   5   1  164.49   18.41
  19  -5   1  199.44   20.56
 -19   5   1  216.91   19.84
 -19  -5  -1  209.37   18.72
 -19   5  -1  214.87   17.65
  19  -5  -1  205.41   20.81
  19  -5  -1  180.67   20.21
 -19   5  -1  212.45   21.81
 -19   5  -1  226.50   20.56
  19   5   1  212.22   16.28
 -19   5  -1  202.33   17.31
 -19  -5   1  181.82   15.54
  19  -5  -1  239.39   22.63
 -19   0   2   -0.24    7.08
  19   0  -2    4.88    6.89
  19   0   2    2.54    7.19
  19   0   2    7.57    7.30
  19   0  -2    7.35    6.93
  19   0  -2   -1.86    6.74
 -19   0  -2   -2.61    7.54
 -19   0   2    9.33    7.83
 -19   0   2    8.86    6.55
  19   0   2    3.75    6.33
 -19   0  -2   -3.29    7.30
  19   0  -2   -1.71    6.08
  19   0   2   -5.05    6.89
 -19   0  -2    5.47    5.85
 -19   0  -2   -5.13    6.40
  19  -1   2  169.04   15.06
  19  -1   2  211.87   15.20
 -19   1   2  177.66   15.47
 -19  -1  -2  178.95   14.07
 -19   1   2  180.74   13.72
 -19   1   2  196.62   15.92
 -19  -1  -2  177.16   15.66
 -19  -1  -2  188.63   11.75
  19   1  -2  181.10   12.53
  19   1  -2  185.77   13.22
  19  -1   2  203.97   16.63
 -19  -1  -2  184.44   16.61
  19   1  -2  173.71   13.72
 -19   1   2  194.33   13.86
  19  -1   2  178.44   15.47
  19   1  -2  188.45   13.05
  19  -1  -2  169.61   14.61
  19   1   2  206.29   15.38
  19  -1  -2  193.65   15.36
  19   1   2  177.86   14.33
 -19  -1   2  177.94   14.42
  19  -1  -2  182.03   15.01
 -19   1  -2  169.16   14.05
  19   1   2  178.29   14.37
  19   1   2  166.71   14.03
  19  -1  -2  174.83   14.95
 -19   1  -2  194.76   15.20
 -19  -1   2  194.33   14.96
 -19   1  -2  179.83   15.49
 -19   1  -2  189.32   13.61
 -19   2   2   26.39    8.20
  19  -2   2   28.02    9.37
  19   2  -2   30.29    8.06
 -19  -2  -2   38.50    6.40
 -19   2   2   34.60   10.30
  19  -2   2   17.54    7.85
  19   2  -2   43.49   12.54
  19  -2   2   26.51    9.19
 -19   2   2   14.07    7.48
 -19  -2  -2   35.45    9.71
  19  -2   2   21.49    9.04
 -19  -2  -2   30.26    9.65
 -19   2   2   18.05    9.11
 -19   2  -2   31.85    5.35
 -19   2  -2   23.14    8.34
 -19  -2   2   29.95    8.52
 -19  -2   2   23.04    5.46
  19   2   2   29.95    8.51
 -19   2  -2   17.17    8.97
 -19   2  -2   20.93    8.79
  19  -2  -2   23.83    9.56
 -19   2  -2   32.64    9.26
  19   2   2   32.63    8.75
  19  -2  -2   24.30    9.10
  19   2   2   17.92    8.08
  19  -2  -2   52.22   11.07
  19  -2  -2   26.77    9.21
 -19   2  -2   40.52    8.96
 -19  -2   2   31.45    8.55
  19   2   2   26.81    8.31
 -19   3   2  103.16   14.37
 -19   3   2  111.72   14.46
  19  -3   2  130.91   15.03
 -19   3   2  110.34   13.80
 -19   3   2   92.95   13.48
 -19  -3  -2  111.88   14.84
  19  -3   2  108.71   13.89
  19   3  -2  126.12   12.80
 -19  -3  -2  118.04   14.99
  19  -3   2  105.91   14.33
 -19   3   2  106.03   13.67
 -19   3  -2  119.88   10.92
 -19   3  -2   98.41   13.52
 -19  -3   2  100.94   12.06
  19  -3  -2  128.49   16.11
 -19  -3   2  127.38   13.01
 -19   3  -2  117.88   15.32
 -19  -3   2  102.88   12.33
 -19   3  -2  128.84   14.11
  19  -3  -2  117.91   15.42
  19   3   2   99.88   13.20
  19   3   2  108.53   13.86
  19  -3  -2  124.82   15.71
  19   3   2  122.91   13.10
 -19   3  -2  115.60   13.72
 -19   4   2    6.15    9.18
  19  -4   2   28.85   10.51
 -19   4   2    1.80    8.50
  19  -4   2   -2.04    8.51
 -19  -4  -2   25.11   10.60
  19  -4   2   17.36   10.16
 -19   4   2   21.78   10.67
 -19   4   2    9.09    9.72
 -19   4   2    7.85    9.26
 -19  -4  -2    9.23    9.56
 -19   4  -2   10.19    8.70
  19   4   2   14.95    8.64
 -19   4  -2   19.21    9.97
 -19  -4   2   15.19    7.92
  19  -4  -2   13.84   10.95
  19  -4  -2   10.32   10.12
  19  -4  -2   10.88   10.36
 -19   4  -2   16.48    8.04
 -19  -4   2   10.65    7.61
 -19   4  -2   18.24    9.57
 -19  -5  -2   68.52   14.07
  19  -5   2   89.62   14.64
  19  -5   2   89.05   14.96
 -19   5   2   84.05   15.40
 -19   5   2   84.55   14.69
 -19  -5  -2   76.24   14.05
 -19   5   2   85.35   14.15
  19  -5   2   92.54   15.02
 -19   5  -2   58.79   12.05
 -19   5  -2   64.85   15.39
  19  -5  -2   97.60   16.35
  19  -5  -2   63.38   15.17
 -19   5  -2   71.54   12.77
  19   5   2  122.54   15.36
 -19   5  -2   71.04   14.61
  19  -5  -2   81.58   15.91
 -19   0  -3   17.81    9.19
  19   0  -3    8.98    7.16
 -19   0   3   -0.10    6.18
 -19   0  -3    4.70    6.91
  19   0   3    4.73    8.59
  19   0   3    2.67    7.06
 -19   0   3   14.30    8.35
  19   0  -3   -1.85    7.24
  19   0  -3    6.49    7.01
 -19   0  -3   -1.61    7.75
  19   0   3   10.49    8.00
 -19   0   3   14.33    7.90
  19   0   3   -2.59    7.37
 -19   0  -3   -1.30    5.97
  19   0  -3    3.50    6.87
 -19   1   3 1250.52   35.85
 -19  -1  -3 1198.35   39.40
  19   1  -3 1209.78   36.24
  19  -1   3 1241.67   39.05
 -19   1   3 1226.88   38.71
  19   1  -3 1190.01   34.72
  19   1  -3 1160.97   33.80
 -19  -1  -3 1214.43   34.39
 -19  -1  -3 1212.56   39.21
  19  -1   3 1241.06   38.46
  19  -1   3 1277.14   39.44
 -19  -1  -3 1233.97   37.02
  19   1  -3 1212.57   34.91
  19  -1   3 1212.90   36.45
 -19   1   3 1241.40   39.00
  19  -1  -3 1185.57   37.92
  19  -1  -3 1245.69   37.98
 -19   1  -3 1186.79   37.43
  19   1   3 1190.17   37.92
  19  -1  -3 1303.68   38.46
 -19  -1   3 1181.32   36.44
 -19   1  -3 1285.54   37.23
  19   1   3 1194.06   37.10
 -19   1  -3 1256.31   37.45
  19   1   3 1191.49   37.43
  19  -1  -3 1239.13   38.65
 -19   1  -3 1215.40   38.21
 -19  -1   3 1208.99   36.94
  19   1   3 1223.79   38.37
 -19   2   3   28.97   10.34
  19  -2   3   34.25   10.19
 -19   2   3   54.05   10.71
 -19  -2  -3   29.64   10.49
  19  -2   3   53.97   11.71
 -19  -2  -3   30.79   10.29
  19  -2   3   23.89   10.11
 -19   2   3   41.42   11.06
  19   2  -3   50.07    9.68
 -19   2  -3   48.48   10.48
  19  -2  -3   28.14   10.22
 -19  -2   3   46.01    9.56
  19   2   3   40.14   10.45
 -19   2  -3   32.36    9.58
  19  -2  -3   51.20   11.29
  19  -2  -3   62.42   12.20
  19  -2  -3   44.76   11.56
 -19   2  -3   32.58   11.60
 -19  -2   3   47.72    9.84
  19   2   3   35.59    9.81
 -19   2  -3   36.51    9.54
  19   2   3   39.21    9.89
  19   2   3   40.35    9.88
 -19   2  -3   22.44    8.76
 -19  -3  -3  480.58   25.47
 -19  -3  -3  501.03   25.89
  19  -3   3  520.38   25.88
 -19   3   3  517.55   23.98
 -19   3   3  473.64   25.64
  19  -3   3  522.83   25.66
 -19   3   3  514.95   24.83
  19  -3   3  513.70   25.06
 -19   3   3  467.83   25.26
  19   3  -3  513.87   21.66
  19  -3  -3  490.89   25.89
 -19   3  -3  521.73   23.63
  19   3   3  512.82   23.88
 -19   3  -3  498.28   27.30
  19   3   3  502.71   23.01
 -19  -3   3  523.45   22.05
  19   3   3  533.94   23.55
 -19   3  -3  538.17   25.03
 -19  -3   3  522.15   22.19
 -19   3  -3  514.84   23.08
  19  -3  -3  506.14   26.80
  19  -3  -3  529.83   26.38
  19  -4   3   44.07   11.64
 -19   4   3   59.96   13.96
 -19   4   3   52.61   12.73
 -19  -4  -3   45.25   12.61
  19  -4   3   47.16   12.47
 -19  -4  -3   56.43   13.98
  19   4  -3   47.48    9.57
  19  -4   3   45.14   12.61
 -19   4   3   43.15   11.91
  19  -4  -3   78.95   14.82
 -19  -4   3   50.82    9.62
 -19  -4   3   45.10    9.78
 -19  -4   3   42.05    9.40
 -19   4  -3   50.33   13.59
 -19   4  -3   37.06    9.22
  19  -4  -3   59.51   14.56
  19  -4  -3   44.34   13.09
 -19   4  -3   64.67   12.45
  19   4   3   59.65   12.00
 -19   4  -3   39.37   10.67
 -19  -5  -3  257.97   24.23
  19  -5   3  223.86   20.65
 -19  -5  -3  245.25   23.29
 -19   5   3  240.51   22.92
 -19   5   3  254.03   22.26
  19  -5   3  269.52   23.85
  19  -5   3  235.60   22.32
 -19   5   3  240.65   20.55
 -19   5  -3  228.73   19.06
  19  -5  -3  262.91   25.24
  19   5   3  225.38   18.98
  19  -5  -3  265.59   26.44
 -19   5  -3  238.59   25.93
  19  -5  -3  246.90   24.29
 -19   5  -3  251.34   22.79
 -19   5  -3  238.78   19.02
 -19   0  -4   -3.72    8.39
  19   0  -4  -10.27    6.11
  19   0  -4    5.59    8.24
  19   0   4   -3.60    8.25
 -19   0  -4    6.75    7.41
 -19   0   4    0.70    8.49
 -19   0  -4   -2.98    8.49
 -19   0  -4   -1.52    7.90
  19   0   4    3.23    7.53
  19   0  -4   -1.98    6.56
  19   0  -4   -5.95    6.61
  19   0   4   -2.86    8.98
  19   0   4    3.54    8.46
 -19   0   4    6.15    8.59
 -19  -1  -4  135.35   16.49
 -19   1   4  106.79   15.06
 -19  -1  -4  126.31   12.95
  19   1  -4  137.26   13.92
  19  -1   4  118.69   15.44
 -19   1   4  112.68   15.41
  19   1  -4  120.43   14.44
 -19   1   4  133.54   13.94
 -19  -1  -4  154.64   17.27
  19   1  -4  154.25   14.49
  19  -1   4  134.07   15.85
  19  -1   4  140.96   16.95
 -19  -1  -4  121.37   15.94
  19   1   4  112.28   13.90
  19   1   4  142.09   16.63
  19  -1  -4  121.84   15.49
 -19   1  -4  142.47   15.95
  19  -1  -4  163.46   17.07
  19   1   4  124.72   16.02
 -19   1  -4  136.67   14.44
 -19  -1   4  118.59   14.66
 -19   1  -4  134.82   15.62
  19  -1  -4  150.91   16.66
  19  -1  -4  109.87   14.17
 -19   1  -4  150.51   16.62
 -19  -1   4  108.72   13.88
  19   1   4  128.38   15.73
 -19  -2  -4   -2.37    8.76
 -19   2   4    7.06   10.15
  19  -2   4   -4.51    8.22
 -19   2   4    7.29    8.85
 -19   2   4    4.64    9.35
 -19  -2  -4   12.21   10.06
  19  -2   4   18.67   10.77
  19   2  -4   10.70    8.30
  19  -2   4   13.31   10.37
  19  -2  -4   19.50   10.61
 -19  -2   4  -11.00    6.97
  19   2   4    6.60    8.71
 -19   2  -4    0.00    7.76
 -19  -2   4    6.70    7.84
 -19   2  -4    7.62    8.55
  19  -2  -4    5.81    9.10
  19  -2  -4    7.69    9.20
 -19   2  -4   -4.90    9.88
 -19   2  -4    8.64    8.07
  19   2   4   11.85    9.42
  19  -2  -4    0.70    9.59
  19   2   4    0.96    7.74
  19   2   4    4.81    8.26
  19  -3   4  125.29   17.13
 -19   3   4  151.70   18.56
 -19   3   4  151.53   17.61
  19  -3   4  155.81   18.39
  19   3  -4  146.33   15.00
 -19  -3  -4  112.93   16.79
 -19  -3  -4  142.71   18.64
  19  -3   4  120.41   15.95
 -19   3   4  143.37   18.37
 -19   3  -4  146.83   20.95
  19  -3  -4  186.70   19.93
 -19   3  -4  129.83   15.46
 -19  -3   4  157.54   15.05
 -19   3  -4  136.53   16.63
  19  -3  -4  152.70   18.93
  19   3   4  142.33   16.67
  19  -3  -4  141.68   18.38
  19   3   4  144.69   16.71
 -19  -3   4  146.28   15.44
  19   3   4  121.03   15.37
 -19   4   4   13.54   11.34
  19  -4   4    6.15   10.33
 -19   4   4   17.31   11.30
 -19  -4  -4   19.99   12.09
  19  -4   4   26.00   11.61
 -19   4   4   14.62   11.26
  19  -4   4   10.44   10.44
 -19  -4  -4   17.88   12.86
 -19   4  -4   32.96   11.11
 -19   4  -4   11.28   12.69
  19  -4  -4   11.51   12.53
 -19   4  -4   26.00   11.39
  19  -4  -4   22.13   11.95
  19  -4  -4   19.38   12.70
  19   4   4   19.20   10.99
 -19  -4   4   12.31    8.51
  19   0  -5   -5.39    8.53
  19   0   5   15.28   10.69
  19   0   5   10.49   10.56
  19   0   5   -3.12    7.77
 -19   0  -5    7.95    8.50
  19   0  -5    1.47    8.18
 -19   0  -5   14.53   10.30
 -19   0  -5   -1.18    9.10
 -19   0  -5    0.58    8.70
  19   0  -5   -7.17    7.25
 -19   0   5   -2.72    8.37
 -19   0   5    1.91    8.52
  19   0   5    5.49    9.45
 -19   1   5  515.30   27.47
  19  -1   5  531.19   27.78
 -19   1   5  536.47   28.25
  19  -1   5  536.73   27.21
 -19  -1  -5  533.66   26.36
 -19  -1  -5  560.18   28.09
  19   1  -5  512.63   25.82
 -19  -1  -5  485.06   27.02
  19  -1   5  512.68   27.83
 -19  -1   5  529.27   25.53
  19  -1  -5  523.05   26.65
  19   1   5  556.35   27.90
  19  -1  -5  525.58   27.46
  19   1   5  504.84   27.02
  19   1   5  556.68   28.05
  19  -1  -5  534.62   26.74
  19   1   5  524.09   25.53
 -19   1  -5  523.37   25.63
  19  -1  -5  565.88   26.19
 -19   1  -5  448.82   24.73
 -19   1  -5  521.17   26.12
 -19  -1   5  511.01   25.51
 -19   1  -5  523.03   25.62
  19   2  -5    5.96    9.06
 -19  -2  -5    3.47   10.52
 -19  -2  -5   18.98   11.42
 -19   2   5   13.67   11.38
 -19   2   5    7.49    8.93
  19  -2   5   -0.79   10.39
  19  -2   5   25.18   10.88
 -19   2   5    5.77   11.43
  19  -2   5   22.57   11.77
  19  -2  -5    9.98   10.27
  19   2   5   18.16   11.34
 -19   2  -5   23.79   10.06
 -19  -2   5   13.26    9.30
  19  -2  -5   20.24   11.27
  19   2   5    4.69   10.14
 -19   2  -5   26.28   10.97
  19  -2  -5   10.45   10.90
  19   2   5    6.13    9.68
  19   2   5   17.07    9.69
  19  -2  -5   14.04   10.85
 -19  -2   5   16.00    9.53
 -19   2  -5   26.43   13.91
  19  -3   5  208.17   21.23
  19  -3   5  205.82   22.19
 -19   3   5  197.48   22.39
 -19   3   5  173.88   18.47
  19   3  -5  206.40   18.33
 -19  -3  -5  233.16   24.07
 -19   3   5  207.06   22.84
 -19  -3  -5  209.53   23.35
  19  -3   5  225.20   22.60
  19  -3  -5  217.22   22.57
 -19  -3   5  218.21   19.21
 -19   3  -5  202.53   21.30
  19  -3  -5  198.24   23.02
  19  -3  -5  233.89   24.30
 -19   3  -5  221.34   20.91
  19   3   5  217.38   21.89
 -19   3  -5  166.60   23.73
  19   3   5  220.61   20.96
 -19  -3   5  191.16   17.15
  19   3   5  191.26   21.07
  19  -4   5   33.82   13.68
 -19  -4  -5   47.43   16.10
  19  -4   5   35.96   12.52
  19   4  -5   51.74   11.90
 -19   4   5   59.04   15.88
  19  -4   5   43.58   13.36
 -19   4   5   49.21   13.98
 -19  -4  -5   42.26   15.56
 -19  -4   5   68.94   11.83
 -19   4  -5   77.58   14.43
  19  -4  -5   61.75   17.02
 -19   4  -5   65.61   14.93
  19  -4  -5   57.36   16.66
  19   4   5   63.63   13.74
 -19   4  -5   37.90   16.10
  19  -4  -5   69.53   17.71
  19   0   6    4.89   10.36
  19   0   6    7.52   11.56
 -19   0   6  -15.64   10.26
 -19   0   6   -8.73   10.04
  19   0  -6   -0.72   10.57
  19   0   6    5.86   10.41
 -19   0  -6   -1.84    9.33
 -19   0  -6   -8.07    9.24
 -19   0  -6   -9.79    8.19
  19   1  -6  180.43   20.34
 -19   1   6  182.50   20.88
 -19  -1  -6  166.72   20.01
 -19  -1  -6  181.51   21.24
  19  -1   6  173.06   20.33
 -19  -1  -6  160.92   18.69
 -19   1   6  192.50   21.88
  19  -1   6  168.77   21.75
  19  -1   6  155.77   19.79
  19  -1  -6  208.89   21.85
 -19   1  -6  189.59   19.91
 -19   1  -6  147.48   18.23
 -19  -1   6  168.93   19.59
  19   1   6  173.07   20.44
  19   1   6  186.97   21.88
  19  -1  -6  135.51   19.20
  19   1   6  198.73   22.54
 -19  -1   6  178.52   20.41
  19  -1  -6  214.69   22.39
  19   1   6  207.01   22.42
  19  -1  -6  204.26   22.14
 -19   2   6   24.56   13.02
 -19  -2  -6   31.19   13.06
  19  -2   6   17.20   12.09
  19   2  -6   32.76   12.38
 -19  -2  -6   27.49   12.63
  19  -2   6   26.36   13.26
  19  -2   6   -3.56   11.19
 -19   2   6    4.88   12.90
  19  -2  -6   20.56   11.83
  19   2   6   16.49   12.03
  19  -2  -6   40.64   14.04
 -19   2  -6   41.06   13.40
 -19   2  -6   23.34   13.65
 -19  -2   6   -1.81    9.75
  19  -2  -6   33.90   13.47
  19   2   6   14.56   11.97
  19   2   6   25.79   11.89
  19  -2  -6   25.45   12.95
  19   2   6   37.85   14.12
 -19  -2   6   31.91   11.74
 -19   2  -6   25.40   11.92
  19  -3   6   79.67   16.23
  19  -3   6   58.22   13.77
  19   3  -6   65.95   13.91
 -19   3   6   94.24   18.55
 -19  -3  -6   84.47   17.92
 -19  -3  -6   76.02   16.97
  19  -3   6   61.37   16.00
 -19   3   6   95.93   19.04
 -19  -3   6  112.19   15.93
  19   3   6   54.32   14.12
  19   3   6  110.86   18.17
 -19   3  -6   72.95   15.34
  19  -3  -6   77.16   16.82
  19  -3  -6  109.29   19.86
 -19   3  -6   85.26   20.84
 -19   3  -6   83.95   16.92
  19   3   6   79.86   16.88
 -19  -3   6   97.99   15.16
  19  -3  -6  108.05   19.18
  19   0  -7   10.43   12.11
 -19   0  -7   10.43   11.82
 -19   0   7    9.87   12.25
 -19   0  -7    0.66   10.93
  19   0   7   -4.56   12.95
  19   0   7    3.85   11.29
  19   0   7   20.01   13.17
 -19   0   7  -16.76   11.27
 -19   1   7  351.39   28.43
 -19   1   7  327.64   29.46
  19  -1   7  299.28   25.60
 -19  -1  -7  284.31   24.93
 -19  -1  -7  302.67   25.82
  19  -1   7  306.96   27.29
 -19  -1  -7  300.34   25.77
  19  -1   7  310.48   26.80
  19   1  -7  315.89   25.16
  19  -1  -7  319.72   26.46
  19   1   7  331.19   26.78
 -19  -1   7  320.56   25.93
 -19   1  -7  314.15   29.25
  19   1   7  336.33   30.76
 -19   1  -7  338.98   24.98
  19   1   7  316.59   26.85
 -19  -1   7  368.05   26.15
 -20   0   0  518.35   22.58
  20   0   0  516.53   21.83
 -20   0   0  547.56   20.69
 -20   0   0  510.21   19.41
  20   0   0  505.45   21.70
  20   0   0  533.97   21.77
  20   0   0  502.98   21.56
 -20   0   0  511.94   22.53
  20  -1   0   62.32   11.00
 -20  -1   0   67.03   11.10
  20  -1   0   26.09    8.99
 -20   1   0   47.12    8.47
  20  -1   0   70.00   10.79
  20   1   0   70.13   10.34
 -20   1   0   57.72   10.76
  20  -1   0   59.86   10.64
 -20   1   0   61.81   10.90
 -20  -1   0   58.95    9.21
 -20   1   0   72.20    9.94
 -20   1   0   49.29    7.57
  20   1   0   67.44   10.06
  20   1   0   59.80   10.38
  20   1   0   52.46    9.36
 -20  -1   0   72.31    7.94
 -20  -1   0   51.24    9.88
 -20   2   0  383.47   16.02
  20  -2   0  397.53   21.05
 -20   2   0  406.10   19.73
  20   2   0  414.19   17.63
 -20   2   0  425.78   20.87
 -20  -2   0  382.18   20.06
 -20   2   0  403.10   19.30
  20  -2   0  419.43   20.78
  20   2   0  414.80   18.07
  20   2   0  373.95   18.83
  20  -2   0  386.99   20.85
 -20   2   0  424.06   21.23
 -20  -2   0  390.35   20.10
 -20  -2   0  389.97   13.56
 -20   2   0  381.12   15.11
  20  -2   0  391.48   20.02
  20   2   0  414.47   17.08
  20   3   0   81.27   11.20
  20  -3   0   76.94   12.78
 -20   3   0   63.45   12.02
 -20   3   0   75.24    9.60
 -20   3   0   75.71   12.45
 -20  -3   0   59.84   10.83
 -20   3   0   43.87   10.52
 -20   3   0   65.49   11.95
 -20   3   0   78.61   10.21
 -20  -3   0   67.55   11.01
  20  -3   0   67.48   12.31
  20  -3   0   57.67   12.50
  20   4   0  134.78   13.97
 -20   4   0  111.56   13.20
  20  -4   0  130.80   16.69
 -20  -4   0  122.46   14.18
 -20   4   0  131.40   15.57
 -20   4   0  128.54   15.30
  20  -4   0  126.97   16.59
  20  -4   0  136.65   16.68
 -20  -4   0  120.82   14.39
 -20  -5   0   75.70   12.28
  20   5   0   57.79   10.62
 -20   5   0   51.60   12.47
  20  -5   0   49.50   13.71
 -20   5   0   54.21   12.85
  20  -5   0   42.37   13.18
 -20  -5   0   60.34   11.97
  20  -5   0   64.25   13.96
 -20   5   0   84.45   13.88
  20   0   1 1574.36   43.07
 -20   0  -1 1517.45   39.99
  20   0   1 1583.15   43.57
 -20   0   1 1594.38   43.99
 -20   0  -1 1536.37   43.88
 -20   0   1 1617.36   43.93
 -20   0   1 1605.09   44.15
  20   0  -1 1575.01   43.03
 -20   0  -1 1578.04   44.04
 -20   0   1 1566.96   40.69
  20   0  -1 1521.50   42.61
 -20   0  -1 1565.62   41.78
  20   0  -1 1516.06   42.12
 -20   0   1 1527.17   39.94
  20   0  -1 1576.91   42.54
  20   0   1 1603.95   43.84
  20   0   1 1588.45   43.19
 -20   0   1 1603.79   43.92
 -20   1   1   39.77    9.85
 -20   1   1   39.96   10.14
  20  -1   1   46.49   10.19
  20  -1   1   45.64   10.24
 -20   1   1   50.26   10.46
  20  -1   1   64.31   10.64
 -20   1   1   38.97    8.44
 -20  -1  -1   41.97    7.10
  20   1  -1   49.49    9.10
  20   1  -1   50.48    8.92
  20  -1   1   35.96    9.58
 -20   1   1   54.21    8.88
 -20  -1  -1   38.08    8.61
 -20  -1  -1   38.72    9.62
 -20   1   1   30.59    9.58
  20   1  -1   51.99    9.07
 -20  -1  -1   43.80    9.85
  20   1  -1   72.09   11.03
  20   1   1   66.55   10.39
 -20   1  -1   42.02    9.97
  20   1   1   51.98   10.08
  20  -1  -1   52.92   10.61
 -20  -1   1   44.60    8.06
 -20   1  -1   47.18    4.39
 -20   1  -1   40.63    8.25
 -20   1  -1   47.53    8.91
 -20   1  -1   53.00   10.34
 -20  -1   1   40.01    9.40
  20  -1  -1   42.13   10.08
 -20  -1   1   34.36    6.57
 -20  -1   1   40.50    9.84
  20  -1  -1   45.55    9.65
  20   1   1   33.48    8.47
  20  -1  -1   53.09   10.98
  20   1   1   37.74    9.42
  20   2  -1  817.14   27.57
 -20   2   1  879.86   31.07
 -20   2   1  827.69   30.53
  20   2  -1  831.90   25.71
  20  -2   1  811.90   28.67
 -20   2   1  835.57   28.50
  20  -2   1  820.17   30.06
 -20   2   1  842.37   29.00
 -20  -2  -1  822.79   22.65
 -20  -2  -1  843.95   30.21
  20  -2   1  836.85   30.24
  20   2  -1  858.05   26.40
 -20  -2  -1  855.37   29.89
  20  -2   1  799.49   29.33
 -20   2   1  793.52   30.14
  20   2   1  813.52   28.47
  20  -2  -1  820.00   30.06
  20  -2  -1  843.65   30.63
 -20  -2   1  813.55   28.56
 -20   2  -1  860.86   28.82
 -20   2  -1  827.41   29.72
  20  -2  -1  802.89   30.59
 -20   2  -1  864.89   29.91
 -20   2  -1  864.42   23.19
 -20   2  -1  819.65   27.97
 -20   2  -1  843.50   29.08
  20   2   1  818.90   26.94
 -20  -2   1  833.37   22.55
 -20  -2   1  809.41   28.16
  20   2   1  848.41   27.64
  20  -2  -1  871.64   30.15
  20   2   1  829.73   27.68
  20  -3   1   30.03   10.24
 -20   3   1   34.69    9.66
 -20   3   1   25.90    8.99
 -20   3   1   26.86   10.21
 -20   3   1   18.05    9.72
 -20  -3  -1   19.28    9.98
 -20  -3  -1   25.31    9.53
 -20   3   1   36.71    8.29
  20  -3   1   40.03   10.51
  20  -3   1   24.54   10.10
  20   3  -1   43.50    9.45
  20  -3  -1   45.21   11.38
 -20   3  -1   46.77   10.11
 -20   3  -1   40.00    9.89
 -20  -3   1   28.72    8.98
 -20   3  -1   39.45    9.81
 -20  -3   1   34.43    9.29
  20  -3  -1   24.23    9.86
 -20   3  -1   36.21    9.56
 -20   3  -1   27.17    9.14
  20  -3  -1   29.87    9.91
  20   3   1   50.93   10.04
 -20   3  -1   41.36    7.47
  20   4  -1  437.07   20.03
 -20   4   1  458.21   24.21
 -20   4   1  434.89   22.69
  20  -4   1  433.73   24.74
 -20  -4  -1  409.08   22.52
  20  -4   1  432.46   24.09
 -20   4   1  450.83   22.38
  20  -4   1  421.41   23.30
 -20  -4  -1  402.00   22.27
  20  -4  -1  442.24   24.92
 -20   4  -1  461.93   23.63
 -20   4  -1  418.10   21.82
 -20  -4   1  412.12   20.73
  20  -4  -1  411.44   23.73
 -20   4  -1  415.32   23.54
  20   4   1  424.78   20.91
 -20   4  -1  447.63   20.79
  20  -4  -1  409.40   24.56
 -20  -4   1  444.86   20.87
 -20   5   1   26.22   10.67
 -20  -5  -1   40.49   12.08
  20  -5   1   29.92   11.71
  20  -5   1   36.16   11.64
  20  -5   1   20.08   11.82
 -20   5   1   36.31   11.61
 -20  -5  -1   24.88   10.61
 -20   5   1   15.83    9.89
 -20   5  -1   19.58   10.35
  20  -5  -1   32.91   13.06
 -20   5  -1   -0.80   10.12
  20  -5  -1   22.07   11.58
 -20   5  -1   23.83   10.50
  20   5   1   20.13    9.26
 -20   5  -1   22.05    9.36
 -20  -5   1   21.85    9.81
  20  -5  -1   14.99   11.37
 -20   0  -2  387.80   20.94
 -20   0   2  406.09   20.61
 -20   0   2  440.68   18.31
  20   0   2  439.59   21.34
  20   0   2  432.59   21.49
 -20   0  -2  429.40   18.74
  20   0  -2  395.67   19.96
 -20   0  -2  424.57   21.50
 -20   0  -2  413.01   19.89
 -20   0   2  403.22   20.91
  20   0  -2  406.62   19.80
  20   0  -2  405.02   19.76
  20   0   2  441.15   21.81
  20   0   2  431.21   20.45
  20   0  -2  421.89   20.07
 -20   0   2  433.25   18.51
 -20   1   2   11.16    7.49
  20  -1   2   10.56    8.46
  20   1  -2   17.78    7.21
  20  -1   2   11.18    8.16
 -20  -1  -2    9.13    8.56
 -20  -1  -2   -2.30    6.55
  20   1  -2    7.05    7.24
 -20   1   2   10.14    8.79
 -20   1   2    8.13    8.65
  20  -1   2    9.27    8.59
  20  -1   2   12.98    7.60
  20   1  -2   -2.62    5.75
 -20   1   2   11.65    6.85
 -20  -1  -2    9.80    5.96
 -20  -1  -2   13.19    8.66
  20   1  -2    8.51    6.09
  20  -1  -2   12.76    8.03
 -20  -1   2   10.39    7.75
  20   1   2   19.27    7.98
 -20   1  -2    8.42    6.82
  20   1   2   -0.27    7.19
  20  -1  -2   16.21    8.16
  20  -1  -2   18.40    7.98
 -20   1  -2   -9.01    7.01
 -20   1  -2   -0.46    6.15
 -20  -1   2   12.96    5.91
  20   1   2   17.33    8.03
  20   1   2    8.82    7.44
 -20  -1   2   18.41    8.58
  20  -1  -2    4.80    7.65
 -20   1  -2    8.42    8.14
 -20  -2  -2  273.47   18.58
 -20   2   2  254.69   16.46
  20   2  -2  253.68   16.14
 -20   2   2  241.88   16.81
  20  -2   2  243.06   17.75
  20  -2   2  288.40   18.15
  20  -2   2  292.93   18.82
 -20  -2  -2  246.06   17.60
 -20  -2  -2  260.11   12.46
 -20   2   2  268.68   19.24
 -20   2   2  257.88   18.77
 -20   2  -2  271.38   17.06
  20  -2  -2  252.64   18.31
 -20  -2   2  262.59   16.91
  20   2   2  255.62   16.12
 -20   2  -2  252.16   17.39
 -20  -2   2  249.96   12.23
 -20  -2   2  263.33   16.77
  20  -2  -2  273.09   18.72
  20  -2  -2  271.98   18.47
 -20   2  -2  260.05   17.17
  20   2   2  272.57   16.80
 -20  -2   2  288.91   17.48
  20   2   2  271.30   16.78
 -20   2  -2  210.61   16.80
  20  -2  -2  250.03   17.97
 -20   2  -2  247.72   17.77
  20   2   2  265.43   17.40
 -20   3   2   72.94   13.15
  20  -3   2   67.08   12.38
  20  -3   2   80.58   13.19
 -20  -3  -2   73.71   12.82
  20   3  -2   72.78   11.23
  20  -3   2   84.14   13.60
 -20   3   2   77.12   13.51
 -20   3   2   50.14   11.10
 -20  -3  -2   74.75   13.39
 -20   3   2   82.72   12.84
 -20   3   2   63.42   12.71
  20  -3  -2   66.70   12.84
 -20   3  -2   71.58    8.79
 -20  -3   2   68.39   11.24
 -20   3  -2   55.10   11.30
 -20  -3   2   59.10   10.41
 -20   3  -2   80.57   13.96
  20  -3  -2   47.37   12.28
 -20   3  -2   69.45   11.55
  20  -3  -2   79.51   13.79
  20   3   2   85.29   13.02
 -20   3  -2   74.86   11.56
  20  -4   2  142.22   16.34
 -20   4   2  153.74   17.30
 -20  -4  -2  134.74   16.79
 -20  -4  -2  109.82   15.46
  20   4  -2  143.70   14.01
  20  -4   2  140.42   17.24
  20  -4   2  153.09   17.61
 -20   4   2  133.82   15.86
 -20   4   2  101.75   15.32
 -20   4   2  147.34   17.63
 -20   4   2  108.47   15.91
  20  -4  -2  124.94   17.69
 -20  -4   2  123.29   13.03
  20   4   2  121.96   15.08
  20  -4  -2  130.23   17.24
 -20   4  -2  124.06   15.59
 -20  -4   2  148.03   14.27
  20  -4  -2  118.97   16.14
 -20   4  -2  106.26   12.25
 -20   4  -2  142.89   15.95
 -20   4  -2  135.68   17.72
 -20  -5  -2   19.38   11.51
 -20   5   2    9.70   11.01
  20  -5   2   43.27   13.11
 -20   5   2   16.87   10.88
 -20   5   2   24.21   11.55
 -20  -5  -2   25.09   11.63
  20  -5   2   35.65   12.01
  20  -5   2    9.47   10.12
 -20   5  -2    8.66    9.00
 -20   5  -2    3.63   10.31
 -20   5  -2   24.13   12.45
  20  -5  -2    6.60   11.30
  20   5   2   16.31    9.91
 -20   5  -2   14.70   10.16
  20  -5  -2   37.86   14.23
  20  -5  -2   17.76   12.90
  20   0   3  527.30   24.76
  20   0  -3  535.29   23.09
  20   0  -3  567.49   23.42
 -20   0  -3  558.65   23.96
  20   0  -3  534.22   24.08
 -20   0   3  565.57   23.17
 -20   0   3  564.64   24.86
 -20   0  -3  579.32   26.13
 -20   0  -3  556.50   22.34
  20   0  -3  596.54   24.24
 -20   0   3  543.97   24.65
  20   0   3  560.74   25.88
  20   0   3  526.17   23.40
 -20   0  -3  575.54   25.24
  20   0   3  573.77   25.47
  20  -1   3   27.92    9.29
 -20  -1  -3   30.41   10.49
  20   1  -3   53.11    9.55
  20  -1   3   43.99   10.69
 -20   1   3   41.34   10.32
  20   1  -3   28.86    8.09
  20   1  -3   48.22    9.96
  20  -1   3   42.83   11.21
 -20   1   3   29.74    8.68
 -20  -1  -3   64.26   11.16
 -20  -1  -3   32.30    7.81
  20  -1   3   15.59    9.43
 -20  -1  -3   47.15   11.66
  20   1  -3   24.02    8.12
 -20   1   3   35.07   10.42
  20   1   3   37.53   10.04
 -20   1  -3   51.26   10.82
  20   1   3   23.50   10.11
  20   1   3   48.84   11.21
 -20   1  -3   47.11   10.99
  20   1   3   48.50   11.70
  20  -1  -3   35.10   10.05
  20  -1  -3   34.03   10.17
  20  -1  -3   45.02   10.90
 -20   1  -3   40.81    9.55
 -20   1  -3   33.45    9.72
 -20  -1   3   31.03    9.38
 -20  -1   3   31.85    9.52
  20  -1  -3   49.35   10.67
 -20   2   3  554.77   26.06
 -20  -2  -3  503.94   25.81
  20  -2   3  492.18   24.80
 -20  -2  -3  496.13   25.72
  20  -2   3  495.99   24.38
 -20   2   3  557.15   23.16
  20  -2   3  506.85   25.18
 -20   2   3  498.34   25.41
  20   2  -3  461.48   21.60
 -20   2  -3  491.20   23.35
  20  -2  -3  472.56   24.81
 -20   2  -3  508.49   23.62
 -20  -2   3  515.67   22.58
  20  -2  -3  530.99   25.85
  20   2   3  557.42   24.29
  20  -2  -3  516.33   25.05
  20  -2  -3  472.73   24.52
  20   2   3  526.76   24.10
 -20   2  -3  472.04   23.01
  20   2   3  540.07   24.15
 -20   2  -3  492.55   26.58
  20   2   3  540.77   23.86
 -20  -2   3  533.83   22.91
 -20   2  -3  511.39   23.28
 -20  -3  -3   40.18   11.89
 -20  -3  -3   40.88   11.77
  20  -3   3   53.81   12.08
 -20   3   3   19.04    9.23
 -20   3   3   37.07   11.82
 -20   3   3   57.79   13.51
 -20   3   3   52.70   11.11
  20  -3   3   48.34   11.95
  20   3  -3   52.80   10.49
  20  -3   3   23.30   10.78
 -20  -3   3   46.05   10.14
 -20   3  -3   10.22   10.27
  20  -3  -3   48.99   13.04
  20  -3  -3   27.65   11.81
 -20   3  -3   42.78   11.00
  20   3   3   44.38   11.08
 -20  -3   3   51.78   10.24
  20   3   3   34.13    9.72
  20  -3  -3   41.54   12.49
  20   3   3   39.57   11.09
 -20   3  -3   48.89   11.14
  20  -4   3  272.20   21.51
 -20  -4  -3  317.78   23.23
 -20   4   3  321.25   21.17
 -20  -4  -3  345.39   23.47
  20  -4   3  276.73   20.98
 -20   4   3  293.61   22.18
  20   4  -3  309.14   17.54
  20  -4   3  293.34   21.84
 -20   4   3  308.15   21.84
  20   4   3  270.95   19.54
  20  -4  -3  308.07   23.87
 -20  -4   3  282.98   17.62
 -20   4  -3  308.62   20.09
 -20   4  -3  313.66   23.79
  20  -4  -3  314.15   23.42
 -20   4  -3  306.18   21.54
 -20  -4   3  270.86   17.25
  20  -4  -3  289.11   23.34
 -20  -5  -3   51.08   13.55
  20  -5   3   25.77   12.27
  20  -5   3   37.27   12.05
 -20   5   3   37.98   12.95
  20  -5   3   14.45   12.28
 -20  -5  -3   43.35   14.13
 -20   5   3   41.91   13.91
 -20   5   3   24.75   12.03
  20  -5  -3   33.98   14.20
  20  -5  -3   20.09   13.23
  20   5   3   25.95   11.37
  20  -5  -3   38.39   14.37
 -20   5  -3   19.53   11.25
 -20   5  -3    8.67   12.57
 -20   5  -3   35.93   12.18
 -20   0  -4  245.02   19.70
  20   0  -4  246.55   18.90
 -20   0  -4  232.40   19.15
 -20   0  -4  285.74   19.01
  20   0  -4  280.40   18.09
  20   0   4  283.00   19.57
 -20   0   4  256.85   18.87
  20   0  -4  266.40   17.96
  20   0   4  277.15   18.81
  20   0   4  284.68   20.73
  20   0  -4  244.79   18.35
 -20   0  -4  265.91   17.38
 -20   0   4  278.44   19.20
  20   0   4  269.40   20.12
 -20  -1  -4    0.23    8.20
 -20  -1  -4   15.14    7.41
 -20   1   4   15.64    7.90
  20  -1   4    1.50    9.02
  20  -1   4   13.08    9.95
 -20   1   4   17.15    9.61
 -20   1   4   20.20   10.51
 -20  -1  -4    7.28    9.89
  20   1  -4    7.36    8.37
 -20  -1  -4   24.72   11.55
  20  -1   4   12.39   10.29
  20  -1  -4   17.92    9.22
 -20   1  -4   20.91    9.60
 -20   1  -4    4.49    7.84
  20  -1  -4   26.93    9.98
  20  -1  -4   12.86    9.50
 -20   1  -4   20.57   10.03
  20   1   4    3.47    9.37
  20   1   4   22.58   10.72
  20   1   4    8.68    9.46
  20   1   4   25.90   10.45
  20  -1  -4    9.88    9.69
 -20  -1   4   -2.02    7.88
 -20  -1   4   22.45    9.74
 -20   1  -4   20.82    9.93
  20  -2   4  220.74   20.93
 -20  -2  -4  206.95   20.85
  20  -2   4  205.60   19.94
 -20   2   4  213.84   16.79
 -20   2   4  199.65   20.68
 -20  -2  -4  220.88   21.54
  20   2  -4  206.86   18.28
  20  -2   4  242.43   21.72
 -20   2   4  205.03   20.68
 -20   2  -4  187.89   17.90
  20  -2  -4  229.21   19.34
 -20   2  -4  173.17   21.52
  20  -2  -4  215.11   20.79
 -20  -2   4  214.70   18.65
 -20   2  -4  203.20   17.11
  20   2   4  205.13   18.03
  20  -2  -4  204.56   21.47
 -20  -2   4  215.32   16.97
  20   2   4  224.09   20.32
 -20   2  -4  203.09   17.57
  20   2   4  206.32   19.46
  20  -2  -4  199.75   19.93
  20   2   4  227.36   21.13
 -20   3   4   21.19   11.10
 -20   3   4   30.36   12.94
  20   3  -4   19.38    9.44
 -20  -3  -4   14.35   10.92
  20  -3   4   24.30   10.97
  20  -3   4   23.52   11.27
 -20  -3  -4   19.63   11.80
 -20   3   4   14.65   11.18
  20  -3   4   23.08   11.41
 -20   3  -4   24.26   11.01
  20   3   4   31.79   11.32
  20   3   4   16.38   10.09
 -20   3  -4   12.84   11.69
 -20   3  -4   20.94   10.44
  20  -3  -4   17.23   11.80
 -20  -3   4   16.70    9.23
  20   3   4   16.58   10.23
 -20  -3   4    9.25    8.55
  20  -3  -4    8.75   11.31
  20  -3  -4   24.63   12.60
  20  -4   4  102.99   16.87
  20   4  -4   93.65   12.75
 -20   4   4  123.00   17.81
  20  -4   4  119.01   16.65
 -20  -4  -4  100.07   17.89
 -20   4   4   89.02   16.05
  20  -4   4  116.19   17.23
 -20   4   4   66.72   15.28
 -20  -4  -4  109.45   18.50
  20  -4  -4  133.34   20.24
 -20  -4   4   98.03   13.44
 -20   4  -4  130.06   20.79
  20   4   4  104.19   16.18
  20  -4  -4   97.95   17.83
 -20   4  -4  111.07   15.66
 -20   4  -4   92.86   16.26
  20  -4  -4  112.51   18.89
 -20   0   5  450.27   24.57
 -20   0  -5  375.24   24.04
  20   0  -5  404.07   24.62
  20   0  -5  377.50   22.35
 -20   0  -5  431.38   24.83
 -20   0  -5  442.83   23.32
  20   0   5  404.57   25.25
  20   0  -5  394.05   21.89
  20   0   5  437.47   26.59
  20   0   5  468.72   25.96
  20   0   5  450.09   27.28
 -20   0  -5  392.46   23.48
 -20   0   5  481.23   25.73
 -20   1   5   12.44   10.62
  20  -1   5   32.95   12.71
  20  -1   5   14.64   11.01
  20  -1   5   10.89   11.13
  20   1  -5    4.40    9.21
 -20   1   5   -1.47   10.22
 -20  -1  -5   -1.78    8.95
 -20  -1  -5    5.54   10.24
 -20  -1  -5   18.87   10.81
  20   1   5   24.74   10.90
 -20  -1   5   14.88   10.26
 -20   1  -5    8.55    9.43
  20  -1  -5   14.01    9.47
  20  -1  -5   -5.34    9.56
  20   1   5   -1.23    8.05
 -20   1  -5   26.86   10.48
  20   1   5   19.82   11.24
  20  -1  -5   21.26   10.42
 -20   1  -5    2.92    9.29
 -20  -1   5   17.96   10.64
 -20   1  -5    5.19    9.24
  20   1   5   21.23   11.41
  20  -1  -5    8.08    9.74
  20  -2   5  427.70   26.78
 -20   2   5  440.64   27.58
 -20  -2  -5  433.03   26.96
 -20   2   5  393.66   24.49
  20   2  -5  397.93   22.89
 -20  -2  -5  413.75   26.25
  20  -2   5  437.65   25.33
  20  -2   5  382.48   25.64
 -20   2   5  411.47   26.71
 -20  -2   5  420.56   23.05
 -20   2  -5  418.27   24.82
  20  -2  -5  418.69   25.91
 -20   2  -5  431.31   24.28
  20  -2  -5  429.60   26.68
  20   2   5  416.16   25.96
  20   2   5  427.86   24.55
  20  -2  -5  443.77   27.45
  20   2   5  395.38   25.15
 -20  -2   5  415.94   23.65
 -20   2  -5  387.18   29.28
  20   2   5  385.36   24.60
  20  -2  -5  388.17   25.35
  20   3  -5   10.15    9.50
  20  -3   5    8.80   10.94
 -20  -3  -5    9.36   11.84
 -20  -3  -5    1.48   11.40
  20  -3   5   27.15   12.85
 -20   3   5   13.68   12.91
 -20   3   5   22.27   10.62
  20  -3   5   24.09   11.74
 -20   3   5   27.00   13.70
  20   3   5    7.74   10.55
  20   3   5    3.92    9.88
 -20   3  -5   17.29   10.83
  20   3   5   11.10   10.37
  20  -3  -5   11.10   11.72
 -20  -3   5   17.57   10.24
  20  -3  -5   22.36   13.34
 -20   3  -5    2.24   12.87
 -20   3  -5   34.36   12.14
 -20  -3   5   -4.16    8.35
  20  -3  -5   -9.02   11.25
  20  -4   5  301.40   25.57
 -20   4   5  264.44   24.60
  20  -4   5  297.40   24.24
 -20  -4  -5  303.59   26.05
  20  -4   5  263.94   22.08
 -20   4   5  294.92   22.85
 -20  -4  -5  291.67   28.13
 -20   4   5  305.47   28.95
  20  -4  -5  325.96   29.73
 -20   4  -5  290.65   31.45
  20  -4  -5  351.53   28.41
 -20   4  -5  273.03   21.47
  20  -4  -5  303.55   29.02
 -20   4  -5  312.77   26.67
  20   4   5  276.98   25.13
 -20  -4   5  273.92   19.47
 -20   0  -6  108.67   16.50
 -20   0   6  116.81   17.71
  20   0  -6  132.27   19.78
  20   0   6  117.02   18.49
  20   0   6  112.45   18.29
 -20   0  -6   89.65   16.20
 -20   0  -6   86.02   15.82
  20   0   6  124.56   19.20
 -20   0   6  107.76   16.93
 -20   1   6    2.39   10.57
 -20  -1  -6   -2.81    9.59
 -20  -1  -6   37.22   12.86
  20   1  -6    3.73   10.40
 -20   1   6    0.50   11.39
 -20  -1  -6   10.48   11.35
  20  -1   6    4.24   11.45
  20  -1   6   13.83   12.36
  20  -1   6    6.11   12.00
  20   1   6  -21.40    9.96
  20   1   6   10.07   16.65
 -20   1  -6    1.59    9.36
  20   1   6    8.89   11.12
  20  -1  -6   23.00   11.14
 -20  -1   6    3.38    9.73
 -20  -1   6   -0.69   10.40
  20  -1  -6  -18.03    8.97
 -20   1  -6   10.18   11.53
  20  -1  -6    3.97   10.91
  20   1   6    2.31   11.21
 -20   1  -6   10.72   10.78
  20  -2   6  125.22   19.17
  20   2  -6  126.02   17.15
 -20  -2  -6  110.48   18.39
 -20  -2  -6   85.91   17.62
  20  -2   6   95.91   17.12
 -20   2   6  143.60   20.55
  20  -2   6  126.72   19.98
 -20   2   6   98.86   18.79
  20   2   6  107.83   18.40
  20   2   6  121.54   19.25
  20   2   6  102.70   16.46
 -20  -2   6  107.11   16.18
 -20   2  -6   99.87   16.10
 -20  -2   6  123.68   17.04
  20  -2  -6   91.71   16.25
 -20   2  -6   99.09   17.22
  20  -2  -6  132.73   19.70
  20  -2  -6  123.82   19.02
  20  -2  -6  148.88   22.54
 -20   2  -6   91.89   20.10
  20   2   6   80.11   16.82
 -21   0   0   12.93    7.06
  21   0   0    7.22    7.17
 -21   0   0    2.97    5.51
  21   0   0   10.27    7.58
 -21   0   0   -1.48    7.72
  21   0   0    8.10    7.37
 -21   0   0   -4.22    7.54
  21   0   0    4.54    7.24
 -21  -1   0   63.17   10.91
 -21  -1   0   74.52    8.27
  21  -1   0   69.71   11.84
 -21   1   0   94.24   12.14
  21  -1   0   72.18   11.77
  21   1   0   77.43   10.58
  21  -1   0   66.72   10.45
  21   1   0   67.00   11.05
 -21  -1   0   60.81   11.28
 -21   1   0   49.32   10.97
  21   1   0   66.90   10.36
 -21   1   0   65.04    9.81
 -21   1   0   82.31    8.86
 -21   1   0   74.06   11.85
  21  -1   0   78.35   12.00
  21   1   0   79.18   11.57
 -21  -1   0   74.86   10.09
 -21   2   0  196.37   11.14
  21  -2   0  211.77   17.02
 -21   2   0  193.27   16.46
 -21   2   0  196.33   16.60
  21  -2   0  212.75   18.91
 -21   2   0  162.79   11.50
  21  -2   0  186.29   16.59
 -21   2   0  210.60   15.55
  21   2   0  184.69   13.37
 -21  -2   0  183.10   16.31
  21  -2   0  209.93   16.37
 -21   2   0  169.23   14.33
 -21  -2   0  182.95    9.80
  21   2   0  184.83   13.73
 -21  -2   0  197.30   16.09
  21   2   0  180.01   14.83
  21   2   0  184.87   12.96
 -21   3   0  296.62   16.31
 -21   3   0  294.96   19.07
 -21   3   0  287.89   15.30
 -21   3   0  296.70   19.24
 -21  -3   0  279.00   18.15
  21  -3   0  265.53   19.16
  21   3   0  313.41   18.10
 -21   3   0  319.61   19.07
 -21  -3   0  292.02   18.41
  21  -3   0  291.00   20.35
 -21   3   0  301.02   19.73
  21  -3   0  292.31   20.44
 -21   4   0   30.68    8.97
 -21  -4   0   42.82   10.88
  21   4   0   41.86   10.41
  21  -4   0   42.33   12.66
 -21  -4   0   47.48   10.79
  21  -4   0   50.36   12.66
  21  -4   0   30.26   11.48
 -21   4   0   42.83   11.17
 -21   4   0   44.14   11.72
  21  -5   0  226.00   23.51
  21   5   0  190.55   16.02
  21  -5   0  182.95   21.06
  21  -5   0  216.43   21.88
 -21   5   0  180.16   18.30
 -21  -5   0  193.00   18.04
 -21   5   0  189.36   19.36
 -21   5   0  197.67   19.84
 -21  -5   0  212.00   18.62
 -21   0  -1    8.63    6.91
  21   0  -1   15.92    7.70
  21   0  -1    7.60    7.76
  21   0   1    4.74    7.79
 -21   0   1   -4.42    7.36
 -21   0   1   -3.32    5.40
 -21   0  -1   14.08    8.45
 -21   0   1   17.47    8.59
 -21   0  -1   10.90    8.34
  21   0   1    1.55    6.71
 -21   0   1    3.43    7.52
 -21   0   1    3.83    5.86
  21   0   1   16.99    8.10
  21   0   1   10.40    7.49
  21   0  -1    0.23    6.91
  21   0  -1   14.50    7.82
 -21   0  -1    5.61    5.89
 -21   1   1  723.62   28.15
  21   1  -1  684.49   25.03
  21  -1   1  670.31   26.85
 -21   1   1  691.79   27.69
 -21  -1  -1  686.91   27.33
 -21  -1  -1  711.75   25.29
  21  -1   1  700.84   27.05
 -21  -1  -1  670.25   26.94
 -21   1   1  709.11   25.17
 -21  -1  -1  717.36   22.72
 -21   1   1  684.89   27.37
 -21   1   1  722.45   25.50
  21  -1   1  699.59   27.14
  21   1  -1  690.76   24.88
  21   1  -1  638.09   25.51
  21   1  -1  694.88   24.49
  21  -1   1  728.47   26.83
  21   1   1  678.69   25.76
  21   1   1  713.53   26.37
 -21   1  -1  711.51   27.71
  21  -1  -1  693.38   27.10
 -21  -1   1  711.95   22.16
 -21   1  -1  678.58   25.26
  21  -1  -1  680.54   27.41
 -21  -1   1  722.95   27.11
 -21   1  -1  679.56   27.39
 -21  -1   1  711.73   26.88
  21  -1  -1  689.38   27.47
  21  -1  -1  702.94   27.03
  21   1   1  683.20   26.03
 -21   1  -1  702.21   25.16
  21   1   1  730.61   26.88
  21  -2   1    7.17    8.41
 -21   2   1   12.14    9.32
  21   2  -1   16.20    8.38
  21   2  -1   19.24    7.09
 -21  -2  -1   12.59    8.60
 -21  -2  -1   17.72    9.17
  21  -2   1   17.55    8.49
  21   2  -1   13.25    6.72
  21  -2   1   11.86    8.13
 -21   2   1   14.52    8.28
 -21   2   1    4.53    7.14
  21  -2   1   16.43    8.83
 -21  -2  -1   16.10    5.33
 -21   2   1   22.53    9.22
 -21   2  -1   11.17    7.46
  21  -2  -1   24.58    9.34
 -21   2  -1   19.15    8.21
  21   2   1    6.93    7.39
  21  -2  -1   19.84    9.98
 -21   2  -1   15.81    9.06
  21  -2  -1   11.00    8.38
 -21  -2   1    8.24    7.81
  21   2   1    4.11    7.19
  21   2   1   10.80    7.41
  21   2   1    3.86    7.73
 -21  -2   1   20.05    5.36
 -21  -2   1    9.81    8.32
 -21   2  -1   13.65    7.90
 -21   2  -1    9.08    4.36
 -21   2  -1   17.27    8.93
  21  -2  -1   13.51    9.24
 -21  -3  -1  622.52   26.74
 -21  -3  -1  602.55   26.99
 -21   3   1  659.69   26.71
 -21   3   1  621.32   26.80
 -21   3   1  636.88   28.10
 -21   3   1  633.90   24.07
  21  -3   1  617.24   27.50
 -21   3   1  649.87   27.58
  21  -3   1  633.88   27.18
  21   3  -1  643.14   24.66
  21  -3   1  654.60   28.74
 -21  -3   1  652.10   25.73
  21   3   1  647.91   25.51
 -21   3  -1  634.30   26.60
  21  -3  -1  640.66   28.95
 -21   3  -1  648.10   26.11
 -21   3  -1  668.02   26.06
 -21   3  -1  643.63   26.10
 -21   3  -1  657.12   27.08
  21  -3  -1  631.78   27.94
  21  -3  -1  629.04   28.68
 -21   3  -1  633.67   22.14
 -21  -3   1  672.90   25.83
  21  -4   1   31.01   11.26
  21   4  -1   29.23    9.43
 -21   4   1   17.71   10.03
 -21   4   1   44.53   10.33
  21  -4   1   25.65   11.22
  21  -4   1   18.33   10.81
 -21   4   1   40.85   11.03
 -21  -4  -1   26.98   10.57
 -21  -4  -1   31.90   11.02
 -21   4  -1   37.11   10.85
  21  -4  -1   25.28   11.72
  21  -4  -1   24.62   11.69
 -21  -4   1   24.46    9.66
 -21  -4   1   12.96    8.97
  21   4   1   35.27   10.56
 -21   4  -1   29.17   10.73
  21  -4  -1   36.05   11.50
 -21   4  -1   42.71    9.42
 -21   4  -1    5.47    8.80
 -21   5   1  260.99   20.66
 -21  -5  -1  254.39   20.27
  21  -5   1  260.79   22.93
  21  -5   1  265.23   22.53
 -21   5   1  268.04   20.35
 -21   5   1  296.26   22.43
  21  -5   1  241.83   22.33
 -21  -5  -1  274.21   21.00
  21  -5  -1  302.71   27.12
 -21   5  -1  242.90   22.23
  21  -5  -1  258.63   24.99
 -21  -5   1  234.58   18.43
  21   5   1  267.44   18.33
 -21   5  -1  275.78   19.60
  21  -5  -1  267.53   23.09
 -21   5  -1  241.12   19.25
  21   0   2   -4.95    7.74
 -21   0   2    2.98    7.84
  21   0   2   15.37    8.56
 -21   0  -2  -14.71    7.17
 -21   0   2    5.49    8.11
 -21   0   2    5.79    6.39
  21   0  -2    6.72    7.45
 -21   0  -2    8.77    6.52
  21   0  -2   -1.06    6.67
 -21   0   2   -0.56    5.67
  21   0  -2   -5.23    6.73
 -21   0  -2    5.22    8.44
  21   0   2    7.41    8.07
 -21   0  -2   10.69    7.76
  21   0   2   -7.24    7.53
  21   0  -2   -1.68    7.04
  21  -1   2  395.02   21.77
 -21  -1  -2  441.46   20.35
  21   1  -2  391.61   18.54
 -21   1   2  381.71   19.14
  21  -1   2  417.11   22.11
 -21  -1  -2  412.39   22.05
 -21   1   2  413.65   19.56
  21   1  -2  404.64   18.16
  21   1  -2  402.43   19.12
  21   1  -2  383.48   19.85
 -21  -1  -2  407.48   17.23
 -21   1   2  374.55   21.29
 -21  -1  -2  397.64   21.55
  21  -1   2  377.86   21.33
 -21   1   2  367.43   21.16
  21  -1   2  384.15   20.43
 -21   1  -2  399.82   19.35
  21  -1  -2  407.95   21.23
  21   1   2  382.80   20.72
 -21  -1   2  379.57   19.89
  21   1   2  391.84   20.83
  21  -1  -2  374.39   20.96
  21  -1  -2  418.08   21.62
 -21  -1   2  347.56   20.30
  21   1   2  357.16   19.90
  21  -1  -2  437.92   21.63
 -21  -1   2  380.93   16.53
 -21   1  -2  395.23   21.43
 -21   1  -2  403.72   21.28
 -21   1  -2  445.05   20.68
  21   1   2  419.80   21.07
  21  -2   2   43.62   11.29
  21  -2   2   27.71   10.26
 -21  -2  -2   39.38    6.95
 -21   2   2   31.95   11.09
 -21   2   2   47.16    9.85
 -21   2   2   51.66   10.15
 -21   2   2   37.79   11.08
  21  -2   2   30.79    9.85
 -21  -2  -2   28.94   10.27
  21   2  -2   29.63    9.31
 -21  -2  -2   54.67   11.93
 -21   2   2   51.06   11.63
 -21   2  -2   28.09    9.03
 -21  -2   2   34.32    9.42
  21  -2  -2   29.06   11.09
  21   2   2   47.73   10.31
 -21  -2   2   55.56    7.49
  21   2   2   47.93   10.99
 -21   2  -2   42.68   10.90
  21   2   2   51.39   10.94
 -21   2  -2   41.53   10.74
 -21   2  -2   37.78   10.16
  21  -2  -2   48.00   11.34
 -21  -2   2   40.97    9.75
  21   2   2   23.13    9.11
 -21  -2   2   50.57   10.44
  21  -2  -2   35.52   10.62
 -21  -2   2   39.74    9.65
 -21   2  -2   39.45   10.18
  21  -2  -2   24.82   10.17
  21   3  -2  422.51   20.49
 -21   3   2  445.80   22.77
 -21   3   2  481.36   25.49
  21  -3   2  475.51   24.79
  21  -3   2  433.32   24.04
 -21  -3  -2  435.90   23.97
  21  -3   2  437.66   23.55
 -21   3   2  444.37   24.82
 -21   3   2  456.82   24.66
 -21   3   2  472.25   23.91
 -21  -3  -2  464.34   24.42
 -21   3   2  454.64   24.53
  21   3   2  464.30   22.79
 -21  -3   2  472.42   21.73
  21  -3  -2  418.31   24.34
 -21  -3   2  423.88   21.06
 -21   3  -2  451.03   22.38
  21  -3  -2  464.16   25.37
 -21   3  -2  423.10   22.70
 -21   3  -2  439.10   24.25
  21  -3  -2  446.76   24.98
 -21   3  -2  423.95   21.48
  21   4  -2   27.73    9.42
 -21  -4  -2    5.73   10.12
  21  -4   2   30.90   11.45
  21  -4   2   41.50   12.33
  21  -4   2   24.45   11.13
 -21   4   2   30.41   11.86
 -21   4   2   29.21   10.45
 -21   4   2   34.85   10.84
 -21   4   2   25.68   10.91
 -21  -4  -2   26.58   11.40
 -21  -4   2   21.64    8.60
  21  -4  -2   13.20   11.56
  21  -4  -2   18.96   11.21
 -21   4  -2   26.08   11.55
 -21   4  -2   22.21   10.23
 -21   4  -2   23.17    8.33
  21   4   2   21.15    9.47
  21  -4  -2   26.56   11.98
 -21   4  -2   42.28   11.48
 -21  -4   2   41.40   10.14
 -21  -5  -2  192.85   20.39
  21  -5   2  233.49   23.25
 -21  -5  -2  185.26   20.95
 -21   5   2  184.70   20.14
  21  -5   2  244.88   21.92
 -21   5   2  195.47   21.01
  21  -5   2  208.19   21.48
 -21   5   2  205.44   20.99
 -21   5  -2  174.44   19.84
  21  -5  -2  210.09   22.27
 -21   5  -2  205.18   22.57
 -21   5  -2  201.20   17.27
  21  -5  -2  215.68   23.38
 -21   5  -2  227.97   20.75
  21  -5  -2  214.68   22.40
  21   5   2  225.83   19.88
 -21  -5   2  207.04   18.09
 -21   0  -3   -5.47    6.41
 -21   0   3    0.38    7.71
  21   0  -3    1.65    6.91
 -21   0  -3   -9.43    7.38
  21   0   3   -4.35    7.93
  21   0  -3   -6.49    7.02
 -21   0  -3   -0.48    8.07
  21   0  -3   -5.46    6.60
  21   0   3   -3.16    8.07
 -21   0   3  -12.86    7.24
  21   0   3    5.50    8.95
  21   0  -3   -9.28    6.72
  21   0   3    6.99    7.65
 -21   0  -3    3.71    9.01
 -21   1   3  392.55   22.54
 -21   1   3  392.09   22.34
  21   1  -3  371.80   20.33
  21   1  -3  364.59   19.19
 -21  -1  -3  403.96   21.11
 -21  -1  -3  384.65   22.37
  21   1  -3  390.07   19.02
  21  -1   3  372.71   22.39
  21  -1   3  374.36   22.61
 -21  -1  -3  378.84   22.87
 -21  -1  -3  399.58   18.60
 -21   1   3  408.84   20.24
  21  -1   3  407.12   20.93
  21  -1   3  396.46   22.38
 -21   1  -3  381.96   20.21
 -21  -1   3  396.58   21.33
  21  -1  -3  405.00   21.50
 -21   1  -3  382.48   21.64
  21  -1  -3  444.16   22.57
  21   1   3  419.85   22.63
 -21   1  -3  394.55   20.96
  21  -1  -3  406.12   22.32
  21  -1  -3  426.78   22.35
 -21   1  -3  430.79   22.51
  21   1   3  389.44   21.13
  21   1   3  398.77   22.41
 -21  -1   3  383.86   20.95
  21   1   3  435.86   22.63
  21   2  -3    9.99    8.45
  21  -2   3    6.35    9.53
 -21   2   3   29.18   11.51
 -21   2   3   10.28    8.71
 -21   2   3   25.08    9.18
 -21  -2  -3   12.22   10.47
 -21  -2  -3   14.11    6.58
  21  -2   3   26.44   11.14
 -21  -2  -3   16.85   10.29
  21  -2   3    5.20    9.05
 -21   2   3   19.36   10.75
  21  -2  -3   16.77   10.29
  21   2   3   20.33    9.24
  21  -2  -3   24.43   10.95
  21   2   3   25.88   10.22
 -21   2  -3   38.02   10.33
 -21   2  -3    1.42    9.59
  21   2   3   30.10    9.51
 -21   2  -3   18.41    8.94
 -21  -2   3   12.85    8.87
  21  -2  -3   15.13    9.69
 -21  -2   3   24.88    9.32
 -21   2  -3   24.14    9.93
  21   2   3    9.69    9.09
  21  -2  -3   16.38    9.76
 -21   2  -3   11.78    8.68
 -21   3   3  346.96   20.58
  21   3  -3  363.73   19.29
 -21  -3  -3  325.78   22.48
  21  -3   3  327.53   22.64
 -21   3   3  314.70   22.63
  21  -3   3  300.90   21.65
 -21   3   3  308.57   21.15
 -21   3   3  331.98   22.95
 -21  -3  -3  332.31   23.04
  21  -3   3  350.01   22.17
 -21   3  -3  340.47   23.63
 -21   3  -3  351.94   21.11
 -21  -3   3  341.76   19.18
 -21  -3   3  330.94   19.15
  21  -3  -3  364.30   24.02
  21  -3  -3  355.95   24.18
 -21  -3   3  328.88   19.44
 -21   3  -3  319.69   21.12
  21  -3  -3  316.61   23.00
  21   3   3  338.61   21.08
 -21  -4  -3   22.88   12.02
  21   4  -3   26.88    9.54
  21  -4   3   17.88   11.56
 -21   4   3    6.13   10.54
  21  -4   3   32.57   11.72
 -21  -4  -3    6.74   11.79
 -21   4   3   40.66   13.04
  21  -4   3   28.70   12.37
 -21   4   3   14.40   10.32
 -21   4  -3   30.46   12.37
 -21  -4   3    3.69    7.90
 -21   4  -3    9.57    9.94
 -21   4  -3   28.25   11.17
  21  -4  -3   13.41   12.30
  21   4   3   10.50    9.96
 -21  -4   3   17.65    8.69
  21  -4  -3   35.22   13.20
  21  -4  -3   43.90   13.67
 -21   5   3  224.49   23.11
 -21  -5  -3  229.84   24.13
  21  -5   3  219.93   22.87
 -21   5   3  199.80   22.03
 -21   5   3  225.96   23.00
 -21  -5  -3  235.58   24.18
  21  -5   3  190.17   20.21
  21  -5   3  230.54   23.15
  21  -5  -3  218.13   24.32
  21  -5  -3  203.57   24.20
 -21   5  -3  191.51   23.52
 -21   5  -3  240.56   22.81
 -21   5  -3  224.28   21.10
  21  -5  -3  211.40   24.80
  21   5   3  227.46   19.89
 -21   0  -4    3.18    7.47
 -21   0   4    1.19    8.98
 -21   0   4   16.85    9.63
 -21   0  -4    3.99   10.19
  21   0   4   -0.47    9.24
  21   0  -4   11.32    8.43
  21   0  -4    1.75    8.11
  21   0   4    5.35    8.36
  21   0   4   -1.90    9.22
  21   0  -4    1.29    7.82
  21   0  -4    9.29    8.41
 -21   0  -4    3.22    8.34
 -21   0  -4   -2.01    8.96
  21   0   4   16.88    9.69
 -21  -1  -4  287.23   21.48
  21  -1   4  278.94   21.86
  21  -1   4  244.36   20.20
  21  -1   4  287.52   21.77
 -21  -1  -4  328.39   20.79
 -21  -1  -4  306.47   17.79
 -21   1   4  313.64   21.77
 -21  -1  -4  266.92   20.71
  21   1  -4  267.48   19.42
 -21   1   4  277.92   20.72
 -21   1  -4  318.45   21.30
 -21   1  -4  297.09   20.55
 -21   1  -4  291.03   19.96
  21  -1  -4  308.55   21.12
  21   1   4  304.60   20.11
  21   1   4  313.23   22.18
 -21  -1   4  282.77   19.89
 -21   1  -4  314.36   19.52
  21   1   4  264.39   20.91
  21  -1  -4  281.66   21.02
 -21  -1   4  288.20   19.70
  21  -1  -4  304.81   19.72
  21   1   4  270.94   20.50
  21  -1  -4  266.48   19.97
  21   2  -4   23.84    9.85
 -21   2   4   15.34   11.15
  21  -2   4   32.13   11.49
 -21  -2  -4   27.05   11.79
 -21   2   4    2.01   10.43
  21  -2   4   34.07   11.75
  21  -2   4   19.15   11.20
 -21   2   4   23.30    9.39
 -21  -2  -4   30.90   11.49
  21   2   4   15.36    9.65
  21  -2  -4   10.35   11.53
 -21  -2   4   20.80    9.81
  21   2   4    7.18    9.36
 -21  -2   4   21.86    9.86
  21  -2  -4   15.04   10.48
 -21   2  -4   28.17   10.02
 -21   2  -4   16.72   10.00
 -21   2  -4   21.90   10.15
 -21   2  -4   23.37   12.92
  21   2   4   30.70   10.54
  21  -2  -4   34.73   11.83
  21  -2  -4   15.30   10.64
  21   2   4   21.44   10.10
  21  -3   4  204.08   21.05
 -21   3   4  194.95   19.46
 -21   3   4  209.16   21.83
 -21  -3  -4  223.66   22.82
  21   3  -4  191.27   16.92
 -21   3   4  208.96   22.49
  21  -3   4  233.95   20.68
 -21  -3  -4  206.88   22.18
  21  -3   4  182.55   20.85
 -21   3   4  239.72   21.70
  21  -3  -4  219.85   22.39
 -21  -3   4  196.21   17.99
 -21   3  -4  160.69   18.61
  21   3   4  212.99   20.84
 -21  -3   4  204.87   17.35
 -21   3  -4  224.14   25.07
  21  -3  -4  210.69   22.01
 -21   3  -4  181.08   18.86
  21   3   4  217.57   18.91
  21  -3  -4  192.52   22.13
  21   3   4  195.65   21.25
 -21   4   4   43.75   13.66
  21  -4   4   82.63   15.70
 -21  -4  -4   52.87   14.54
  21   4  -4   82.74   13.23
  21  -4   4   64.82   14.28
  21  -4   4   65.72   15.67
 -21   4   4   61.66   15.54
 -21  -4  -4   59.37   15.36
 -21   4   4   72.45   14.79
 -21  -4   4   62.78   12.30
 -21   4  -4   72.69   17.84
  21  -4  -4   56.18   15.60
  21  -4  -4  104.23   18.52
  21   4   4   83.34   15.04
  21  -4  -4   94.57   17.56
 -21   4  -4   81.78   14.21
 -21   4  -4   95.33   16.42
  21   0   5  -12.46    9.69
 -21   0  -5    0.65    9.50
  21   0  -5  -12.13    7.20
  21   0   5    5.16   10.01
  21   0  -5   10.21   10.00
 -21   0  -5    5.28   10.21
  21   0  -5   -6.74    8.69
 -21   0   5    8.62    9.56
 -21   0  -5   -1.38    8.07
 -21   0  -5    8.85    9.43
  21   0   5   -5.23    9.73
 -21   0   5    2.48   10.06
 -21   1   5  457.94   26.82
 -21  -1  -5  415.54   26.73
  21  -1   5  481.10   28.00
  21  -1   5  471.72   27.41
 -21  -1  -5  448.13   27.38
  21  -1   5  420.70   25.48
  21   1  -5  459.59   25.06
 -21   1   5  477.81   27.39
 -21  -1  -5  449.45   25.26
 -21   1  -5  445.32   24.80
 -21   1  -5  414.57   24.79
  21  -1  -5  384.84   25.54
  21  -1  -5  418.22   24.76
 -21   1  -5  439.59   24.65
 -21  -1   5  389.62   24.10
  21   1   5  452.64   26.50
  21   1   5  451.97   24.89
  21   1   5  473.90   27.50
 -21   1  -5  465.16   25.42
 -21  -1   5  452.03   25.27
  21  -1  -5  445.69   25.46
  21  -1  -5  429.66   24.64
  21   1   5  476.66   27.24
 -21  -2  -5  -23.42    9.81
 -21   2   5   20.26   12.68
  21  -2   5   11.26   11.85
  21   2  -5   -7.65    8.81
 -21  -2  -5   18.07   12.15
 -21   2   5   20.37   12.36
  21  -2   5   10.94   11.48
  21  -2   5   26.64   11.88
 -21  -2   5    7.36    9.68
  21   2   5    8.73   10.08
  21  -2  -5    1.60   11.04
  21   2   5    8.44   11.34
 -21   2  -5   24.73   14.54
  21  -2  -5   15.61   12.11
 -21  -2   5    7.42    9.47
  21   2   5    1.83   10.37
 -21   2  -5   -6.67    9.71
  21  -2  -5   19.36   11.36
  21   2   5    1.78    9.90
  21  -2  -5   13.18   10.34
 -21   2  -5    7.05    9.91
  21   3  -5  264.43   19.59
 -21  -3  -5  261.24   26.59
  21  -3   5  276.49   24.61
  21  -3   5  257.09   22.97
  21  -3   5  266.91   23.83
 -21  -3  -5  270.51   23.87
 -21   3   5  252.66   20.93
 -21   3   5  279.29   26.30
 -21   3   5  270.56   26.19
 -21   3  -5  231.73   20.47
  21   3   5  264.14   21.87
 -21  -3   5  277.28   21.06
  21   3   5  264.05   25.89
 -21   3  -5  288.35   22.99
 -21   3  -5  226.18   27.48
 -21  -3   5  254.84   19.75
  21  -3  -5  295.63   27.95
  21  -3  -5  300.99   27.32
  21   3   5  312.77   29.17
  21  -3  -5  269.26   26.57
  21   0   6   10.96   12.31
 -21   0  -6   11.38   10.56
  21   0  -6    7.36   11.31
 -21   0  -6    5.03   10.66
 -21   0   6    5.02   11.51
 -21   0  -6    1.05   10.19
 -21   0   6   -0.96   10.44
  21   0   6    6.02   10.77
  21   0   6   -3.40   11.43
 -21  -1  -6  105.29   17.24
 -21   1   6  134.31   19.49
  21  -1   6  126.62   19.94
 -21   1   6  118.51   18.74
  21  -1   6   97.84   18.18
 -21  -1  -6   89.77   17.16
  21  -1   6  155.12   20.79
  21   1  -6  144.74   19.17
 -21  -1  -6  119.17   18.62
 -21   1  -6  111.98   16.76
  21  -1  -6  150.97   20.14
  21  -1  -6  129.94   19.09
  21   1   6  118.85   19.13
  21   1   6  139.79   20.48
  21  -1  -6  129.64   19.19
  21   1   6  104.00   19.07
 -21  -1   6  112.56   17.14
 -21   1  -6  108.77   17.02
 -21  -1   6  137.11   18.84
 -21   1  -6  128.66   19.77
 -21  -2  -6   30.51   13.52
  21  -2   6   23.68   12.58
 -21  -2  -6   11.34   12.75
 -21   2   6    8.63   13.76
 -21   2   6   -1.40   11.29
  21   2  -6   21.04   11.87
  21  -2   6    0.84   11.71
  21  -2   6   13.13   12.37
  21  -2  -6   12.41   12.33
 -21   2  -6   23.91   11.63
  21   2   6   10.46   12.22
  21   2   6   14.99   11.76
 -21   2  -6   10.80   14.03
  21  -2  -6   16.46   11.57
  21   2   6   15.74   11.28
 -21   2  -6   13.37   10.31
  21  -2  -6   20.60   12.66
  21  -2  -6    3.13   11.67
  21   2   6   25.27   13.14
 -21  -2   6  -13.21    9.43
 -21  -2   6    6.77   10.72
 -22   0   0  598.88   25.56
  22   0   0  616.62   25.01
 -22   0   0  644.45   22.44
  22   0   0  623.13   24.99
  22   0   0  638.43   24.98
 -22   0   0  605.54   26.20
 -22   0   0  654.47   23.87
  22   0   0  616.60   24.75
 -22   1   0  101.87    9.77
 -22  -1   0   82.25   12.67
 -22   1   0   90.48   11.48
  22   1   0   90.97   11.69
  22  -1   0   99.84   13.58
 -22   1   0  106.81   13.82
 -22  -1   0   90.63   12.98
 -22  -1   0   98.16   11.56
  22   1   0   86.22   11.93
  22  -1   0  121.63   14.60
  22   1   0  117.37   14.64
 -22  -1   0  100.18    9.72
 -22   1   0   97.11   13.16
  22   1   0  115.90   13.18
  22  -1   0   96.68   13.32
  22  -1   0   75.13   11.81
 -22   1   0   98.67   11.77
 -22   2   0  228.96   11.95
 -22  -2   0  221.48   17.31
  22  -2   0  227.89   18.09
 -22   2   0  199.25   15.91
 -22  -2   0  241.95   11.25
  22  -2   0  238.98   18.21
 -22   2   0  238.04   17.63
  22   2   0  239.83   15.10
  22   2   0  218.64   16.33
 -22   2   0  211.34   12.45
 -22   2   0  228.48   16.47
  22  -2   0  218.23   17.18
  22   2   0  212.52   14.96
 -22   2   0  246.63   18.19
 -22  -2   0  215.77   17.29
  22  -2   0  219.43   17.71
 -22  -3   0  105.68   13.96
 -22   3   0  125.59   15.24
  22  -3   0  143.75   17.70
 -22   3   0  107.88   11.38
  22  -3   0   94.19   15.06
 -22  -3   0  111.87   14.46
  22   3   0  117.34   13.74
 -22   3   0  126.92   15.44
  22  -3   0  119.09   15.45
 -22   3   0  130.93   15.67
 -22   3   0   99.45   13.49
  22  -4   0  144.68   18.32
  22  -4   0  106.86   16.13
 -22  -4   0  116.32   15.44
 -22   4   0  137.46   14.57
  22  -4   0  122.74   17.70
 -22  -4   0  147.73   16.03
 -22   4   0  138.29   16.53
  22   4   0  135.49   14.77
 -22   4   0  133.22   16.32
  22  -5   0   77.45   15.57
  22  -5   0   77.94   17.25
  22  -5   0   79.47   15.95
  22   5   0   93.25   13.07
 -22  -5   0   78.46   13.76
 -22  -5   0   79.44   13.96
 -22   5   0   78.65   13.35
 -22   5   0   90.08   15.48
 -22   5   0   88.84   15.38
  22   0   1  672.37   26.99
  22   0   1  700.84   27.03
 -22   0  -1  650.90   27.63
  22   0   1  707.99   27.43
 -22   0   1  712.38   24.80
 -22   0   1  671.75   27.25
 -22   0  -1  679.38   23.96
 -22   0   1  692.89   23.57
 -22   0  -1  678.24   27.85
  22   0  -1  641.36   25.17
  22   0   1  653.31   26.18
 -22   0   1  691.32   27.82
  22   0  -1  636.55   25.93
  22   0  -1  678.11   26.24
  22   0  -1  666.52   26.10
 -22   0  -1  701.72   25.81
 -22  -1  -1   49.22    9.66
 -22   1   1   58.20   11.83
  22   1  -1   48.08    9.97
 -22   1   1   49.94    9.73
  22  -1   1   62.95   11.43
  22   1  -1   53.86    9.97
 -22  -1  -1   46.49   10.62
  22   1  -1   46.86    9.45
 -22   1   1   48.96   11.30
  22  -1   1   62.91   11.35
  22  -1   1   49.99   10.94
 -22  -1  -1   39.55   10.48
  22   1  -1   56.90   10.23
  22  -1   1   52.88   10.72
 -22  -1  -1   52.80    7.92
 -22   1   1   38.71    8.91
 -22   1  -1   98.75   13.43
  22  -1  -1   60.15   11.25
 -22   1  -1   44.43    9.13
 -22  -1   1   39.58    7.16
  22   1   1   33.52    9.82
  22   1   1   52.33   10.68
  22  -1  -1   51.02   10.36
  22   1   1   43.38   10.09
 -22   1  -1   46.90   11.16
  22  -1  -1   35.32   10.53
 -22   1  -1   44.36    9.25
 -22  -1   1   61.79   11.71
 -22  -1   1   63.31   11.40
  22  -1  -1   49.85   11.03
  22   1   1   51.69   10.73
 -22   2   1  345.77   19.62
 -22   2   1  348.62   19.54
 -22  -2  -1  386.73   21.46
  22   2  -1  358.88   19.05
 -22   2   1  374.20   22.23
  22  -2   1  380.39   20.61
 -22  -2  -1  364.84   14.46
  22  -2   1  359.50   20.98
 -22   2   1  402.24   22.52
  22  -2   1  352.95   21.19
  22  -2   1  388.57   21.33
 -22  -2  -1  391.79   21.69
  22   2  -1  339.71   17.82
  22   2  -1  367.12   20.26
 -22  -2   1  375.61   20.18
 -22  -2   1  372.30   14.32
 -22   2  -1  351.66   19.62
 -22  -2   1  374.47   20.26
 -22   2  -1  366.00   19.70
  22   2   1  360.16   18.81
  22  -2  -1  387.58   21.45
  22   2   1  362.88   19.51
  22   2   1  372.04   18.85
 -22   2  -1  373.67   18.81
  22  -2  -1  383.21   22.07
  22  -2  -1  341.48   21.46
 -22   2  -1  386.47   21.26
  22  -2  -1  351.95   20.78
  22   2   1  340.97   19.70
 -22   2  -1  365.64   20.89
  22  -3   1   26.55   10.66
  22  -3   1   67.62   12.95
 -22  -3  -1   20.34   10.40
 -22   3   1   42.65   10.87
 -22  -3  -1   34.39   11.22
 -22   3   1   26.10    9.92
 -22   3   1   47.70   11.99
  22   3  -1   37.82   10.25
 -22   3   1   46.84    9.46
 -22   3   1   46.91   12.01
  22  -3   1   37.97   11.56
  22   3   1   26.31    9.73
 -22   3  -1   44.09   11.02
 -22   3  -1   44.21   10.65
 -22   3  -1   33.83    9.67
 -22   3  -1   40.26   10.96
 -22   3  -1   30.87   10.84
 -22  -3   1   36.74   10.37
 -22  -3   1   38.50   10.24
 -22   3  -1   34.92    7.28
  22  -3  -1   37.15   11.17
  22  -3  -1   65.82   13.28
  22  -3  -1   64.40   13.11
 -22   4   1  258.23   20.25
  22   4  -1  195.40   16.07
  22  -4   1  235.71   20.77
 -22  -4  -1  214.51   20.06
  22  -4   1  236.63   21.24
 -22  -4  -1  206.29   19.91
 -22   4   1  215.64   18.60
  22  -4   1  230.61   20.59
 -22   4   1  223.64   17.48
  22  -4  -1  233.97   22.63
  22   4   1  226.49   17.68
 -22   4  -1  230.40   19.50
 -22  -4   1  203.72   18.16
 -22   4  -1  210.15   17.93
 -22  -4   1  215.39   17.48
  22  -4  -1  250.10   23.50
 -22   4  -1  193.40   17.74
 -22   4  -1  204.91   15.28
  22  -4  -1  255.32   23.74
 -22   5   1   19.29   11.57
 -22   5   1    3.46   10.02
 -22  -5  -1    5.25    9.89
  22  -5   1   13.44   11.04
  22   5  -1   13.85    8.70
 -22   5   1   -7.96    8.39
  22  -5   1    9.00   11.48
  22  -5   1    0.85   10.64
 -22  -5  -1    0.46   10.70
  22  -5  -1    4.48   11.66
 -22   5  -1   13.41    8.88
 -22   5  -1    9.52    9.82
  22   5   1    1.72    8.95
  22  -5  -1    3.62   11.21
  22  -5  -1   12.49   11.58
 -22  -5   1    2.07    9.06
 -22   5  -1   -1.44    9.66
  22   0  -2  825.39   29.76
  22   0  -2  833.08   29.50
  22   0  -2  776.98   30.05
 -22   0  -2  773.60   31.11
  22   0   2  860.26   31.79
  22   0   2  891.73   30.98
  22   0  -2  851.28   30.10
 -22   0   2  817.78   27.78
  22   0   2  868.70   31.37
 -22   0  -2  849.58   31.90
 -22   0  -2  818.21   27.74
 -22   0   2  874.85   31.75
 -22   0   2  819.72   27.60
  22   0   2  846.99   31.02
 -22   0  -2  818.71   29.49
 -22   0   2  841.66   30.87
 -22   1   2   23.16   10.20
 -22  -1  -2   25.64    9.98
  22  -1   2   25.46    9.67
  22   1  -2   16.72    7.97
  22   1  -2    5.58    6.89
  22   1  -2   19.99    8.25
 -22   1   2    9.14    7.60
  22  -1   2   24.29   10.27
 -22  -1  -2    8.63    6.19
 -22  -1  -2   26.40   10.90
 -22   1   2   19.30    8.19
  22   1  -2   15.23    7.66
 -22   1   2   25.22   10.13
  22  -1   2    8.30    9.19
 -22  -1  -2   30.21    9.14
  22  -1   2   16.42    8.64
  22  -1  -2   16.08    8.42
 -22  -1   2   10.40    8.59
 -22  -1   2   22.86    8.97
  22   1   2   13.71    8.55
 -22   1  -2    5.27    7.59
 -22  -1   2    3.50    8.23
 -22   1  -2   15.54    9.79
 -22   1  -2    5.73    8.65
  22  -1  -2   17.93    9.60
  22   1   2    9.52    8.34
 -22   1  -2   15.17    7.92
  22  -1  -2   -2.00    7.33
  22   1   2   26.03    9.47
  22  -1  -2    8.98    8.73
 -22  -1   2   17.57    6.49
  22   1   2   20.71    8.82
 -22   2   2  539.59   26.27
 -22   2   2  521.97   23.54
  22  -2   2  524.66   25.50
 -22  -2  -2  503.75   25.26
  22  -2   2  506.06   25.12
 -22  -2  -2  499.98   18.60
 -22  -2  -2  542.82   26.18
 -22   2   2  548.53   26.39
 -22   2   2  525.13   24.06
  22  -2   2  460.72   24.79
  22   2  -2  531.79   23.20
 -22   2   2  484.14   25.73
 -22   2  -2  511.05   23.90
 -22   2  -2  522.79   24.68
 -22   2  -2  563.17   24.81
 -22  -2   2  522.65   23.58
  22  -2  -2  542.49   25.96
  22  -2  -2  549.86   26.21
  22   2   2  523.63   23.35
 -22  -2   2  522.25   24.29
  22   2   2  546.67   23.73
 -22  -2   2  532.22   23.72
 -22   2  -2  541.09   25.00
 -22  -2   2  548.02   24.02
 -22  -2   2  517.28   18.33
 -22   2  -2  496.75   24.46
  22  -2  -2  524.61   25.72
  22   2   2  531.13   23.93
  22  -2  -2  520.69   26.20
  22   2   2  528.92   24.19
 -22   3   2   15.85   10.91
  22  -3   2   29.36   11.14
 -22   3   2   24.79   11.45
  22   3  -2   14.99    8.55
 -22  -3  -2    8.69   10.16
  22  -3   2   28.21   10.92
 -22   3   2   15.71   10.74
 -22   3   2   14.56    9.21
  22  -3   2   23.81   10.83
 -22  -3  -2   23.23   10.82
 -22   3   2    8.74    9.28
 -22   3   2   22.49   10.85
  22  -3  -2   16.48   10.55
 -22   3  -2   -5.53    8.98
  22   3   2   21.25    9.90
 -22   3  -2   14.52    9.26
 -22   3  -2   11.78    8.87
 -22  -3   2    9.43    8.44
  22  -3  -2   20.39   10.74
 -22  -3   2   20.88    9.28
 -22   3  -2    8.96    8.77
  22  -3  -2   11.02    9.78
 -22  -4  -2  191.18   19.84
 -22   4   2  205.79   20.00
 -22   4   2  200.82   21.39
  22  -4   2  188.52   19.89
 -22   4   2  211.75   19.02
  22  -4   2  191.19   19.17
 -22  -4  -2  152.45   18.40
  22   4  -2  177.97   15.70
  22  -4   2  171.46   19.44
 -22   4   2  150.23   18.51
 -22   4  -2  163.25   16.79
  22  -4  -2  181.83   20.69
  22   4   2  210.18   19.53
  22  -4  -2  181.21   20.72
  22  -4  -2  189.48   20.07
 -22  -4   2  175.94   16.73
 -22  -4   2  179.46   16.04
 -22   4  -2  185.63   20.19
 -22   4  -2  189.79   19.30
 -22  -5  -2   98.10   17.00
  22  -5   2   98.41   17.40
  22  -5   2   91.35   16.84
 -22  -5  -2   79.54   15.50
 -22   5   2   89.79   15.82
  22  -5   2  108.76   16.48
 -22   5   2   91.12   16.65
 -22   5   2   71.09   15.35
  22  -5  -2  101.01   18.28
 -22   5  -2   86.54   17.01
 -22   5  -2   79.87   15.96
 -22  -5   2   76.47   13.16
  22  -5  -2  114.95   19.19
 -22   5  -2   93.06   14.86
  22   5   2  109.31   15.49
  22  -5  -2   70.75   16.42
 -22   0  -3  522.71   25.53
  22   0  -3  521.90   23.88
  22   0   3  446.98   24.28
 -22   0  -3  499.97   24.08
 -22   0  -3  541.38   26.03
  22   0   3  509.88   25.59
  22   0  -3  468.76   22.61
  22   0   3  522.33   25.58
  22   0  -3  559.63   25.12
 -22   0  -3  502.87   22.31
 -22   0   3  464.39   23.96
 -22   0   3  496.86   24.45
  22   0   3  490.60   23.77
  22   0  -3  565.28   24.12
  22   1  -3    0.09    6.95
  22  -1   3   10.90    9.63
 -22   1   3    5.95    9.08
 -22   1   3    8.44    9.99
  22   1  -3    7.60    8.18
 -22  -1  -3   16.47   10.37
  22  -1   3   12.88    9.68
  22  -1   3   -2.09    8.86
 -22   1   3    8.83    8.06
  22  -1   3   -2.45    6.96
 -22  -1  -3    3.44    7.78
  22   1  -3    1.18    6.69
 -22  -1  -3   11.64    9.91
 -22  -1  -3   10.20    7.32
  22   1   3   14.40    9.48
 -22  -1   3    0.17    8.01
  22  -1  -3    7.63    8.76
 -22   1  -3    5.98    8.16
  22   1   3   18.69    9.48
  22   1   3    7.38    9.03
 -22  -1   3   14.69    8.73
  22  -1  -3    8.17    8.94
  22  -1  -3    9.37    8.88
  22  -1  -3   11.40    8.90
 -22   1  -3    8.14    8.25
  22   1   3    9.16    9.12
 -22   1  -3   14.29    9.77
 -22   1  -3   23.78    9.98
 -22   2   3  455.02   25.34
 -22  -2  -3  406.60   17.81
  22  -2   3  420.70   24.23
 -22  -2  -3  389.98   24.21
 -22   2   3  425.81   24.59
  22  -2   3  388.81   23.22
  22  -2   3  417.04   24.10
 -22  -2  -3  444.39   25.49
 -22   2   3  393.71   21.95
 -22   2   3  442.66   22.11
  22   2  -3  397.27   21.43
 -22   2  -3  391.66   22.66
  22   2   3  428.81   23.04
 -22  -2   3  402.94   21.62
  22  -2  -3  444.62   25.05
  22  -2  -3  413.67   24.57
  22  -2  -3  423.61   23.87
  22   2   3  392.73   22.24
 -22   2  -3  422.61   22.60
  22  -2  -3  398.86   24.01
 -22  -2   3  435.56   22.67
 -22   2  -3  425.72   23.02
  22   2   3  428.99   22.78
 -22   2  -3  386.40   24.56
  22   2   3  443.09   22.62
 -22   2  -3  445.84   22.98
 -22   3   3   33.09   10.96
  22  -3   3   53.42   13.50
 -22  -3  -3   45.19   13.68
  22  -3   3   36.83   11.73
 -22   3   3   43.61   11.85
 -22   3   3   46.06   13.64
 -22   3   3   38.86   12.46
 -22  -3  -3   45.96   12.90
  22  -3   3   46.02   12.96
  22   3  -3   51.71   11.55
 -22   3  -3   46.58   11.49
 -22  -3   3   51.63   11.40
  22  -3  -3   35.33   12.16
  22   3   3   56.05   12.80
 -22   3  -3   38.43   11.42
 -22  -3   3   51.42   11.23
 -22  -3   3   39.37   10.70
 -22  -3   3   48.09   11.11
  22  -3  -3   48.90   13.56
 -22   3  -3   67.98   15.13
  22  -3  -3   44.66   13.16
  22  -4   3  263.03   22.96
  22  -4   3  256.01   23.50
 -22   4   3  246.19   22.87
 -22  -4  -3  258.18   22.58
 -22   4   3  263.67   23.09
  22  -4   3  263.64   22.42
 -22  -4  -3  244.16   24.15
 -22   4   3  250.72   20.88
  22   4  -3  244.47   17.83
 -22   4   3  230.92   22.86
  22  -4  -3  287.24   25.90
 -22   4  -3  231.97   24.09
  22  -4  -3  288.59   26.53
 -22   4  -3  258.82   20.10
 -22  -4   3  227.13   17.66
 -22  -4   3  232.23   17.24
  22   4   3  225.17   19.75
  22  -4  -3  266.39   23.72
 -22   4  -3  230.49   21.97
 -22   0  -4  273.12   21.62
  22   0   4  288.89   20.08
  22   0  -4  290.67   18.99
 -22   0  -4  301.53   20.61
  22   0   4  264.86   21.25
  22   0  -4  271.45   19.07
  22   0  -4  284.12   20.97
 -22   0   4  303.52   21.07
 -22   0  -4  309.98   22.02
 -22   0  -4  280.52   18.61
 -22   0   4  277.09   20.45
  22   0   4  340.53   22.09
  22   0  -4  282.14   19.50
  22   0   4  333.91   23.30
  22  -1   4    3.91   10.68
 -22  -1  -4   11.90    7.55
 -22   1   4   13.86   10.69
  22  -1   4   17.17   10.43
  22  -1   4    7.12   10.09
 -22  -1  -4    1.36   10.03
 -22   1   4    6.38   10.33
 -22  -1  -4    4.84    8.93
  22   1  -4    6.86    8.81
 -22  -1  -4   -8.53    9.66
 -22   1  -4    9.31    9.85
  22  -1  -4    4.83   10.74
 -22   1  -4   13.17   10.26
  22  -1  -4   18.01   10.11
  22   1   4   22.13   11.17
 -22  -1   4   13.36    9.40
 -22   1  -4    6.18    8.40
  22  -1  -4    9.99    9.58
  22   1   4    4.60    9.61
  22   1   4   23.93   10.10
 -22   1  -4   -0.36    9.14
  22  -1  -4   -0.81    8.53
  22   1   4   12.62   10.67
 -22  -1   4   12.83    9.32
 -22  -2  -4  302.50   23.16
  22  -2   4  380.62   24.43
  22   2  -4  336.94   20.65
 -22   2   4  352.27   24.16
  22  -2   4  342.49   23.73
  22  -2   4  344.08   23.83
 -22   2   4  367.34   24.55
 -22   2   4  353.07   21.02
 -22  -2  -4  363.62   24.64
  22  -2  -4  368.17   24.20
  22  -2  -4  399.50   25.23
 -22   2  -4  363.35   22.28
 -22   2  -4  345.37   26.95
 -22   2  -4  363.45   22.76
  22  -2  -4  398.44   24.78
  22   2   4  331.12   21.82
  22   2   4  347.88   22.32
  22   2   4  351.89   22.53
  22   2   4  316.55   22.06
 -22  -2   4  350.91   21.75
 -22   2  -4  336.45   22.41
  22  -2  -4  376.57   24.99
 -22  -2   4  361.48   21.06
 -22   3   4   31.90   12.70
 -22   3   4   35.23   12.43
 -22  -3  -4   36.69   13.86
  22  -3   4   30.17   12.31
  22  -3   4   33.96   13.32
 -22   3   4   38.06   13.98
 -22  -3  -4   40.31   13.52
 -22   3   4   44.22   12.51
  22   3  -4   50.91   11.98
  22  -3   4   43.40   14.10
  22   3   4   38.44   12.17
 -22  -3   4   46.79   11.67
 -22   3  -4   31.81   11.23
  22  -3  -4   57.57   14.90
 -22   3  -4   45.33   14.91
  22  -3  -4   27.40   13.46
  22  -3  -4   36.30   13.84
 -22   3  -4   37.13   12.23
 -22  -3   4   58.61   12.06
  22  -4   4  167.57   20.47
 -22  -4  -4  159.04   21.63
 -22   4   4  149.30   18.43
  22  -4   4  153.48   19.78
 -22   4   4  158.15   20.19
 -22   4   4  186.95   22.19
  22  -4   4  186.04   21.08
  22   4  -4  176.23   16.89
 -22  -4  -4  151.50   21.17
 -22  -4   4  194.49   17.86
  22  -4  -4  166.84   22.64
 -22  -4   4  190.32   18.19
 -22   4  -4  137.07   21.21
 -22   4  -4  151.59   18.42
  22  -4  -4  168.59   22.55
 -22   4  -4  135.49   19.01
  22   4   4  186.95   20.39
  22  -4  -4  208.54   24.16
  22   0  -5  226.14   19.13
  22   0   5  247.72   23.47
 -22   0  -5  212.65   20.78
  22   0   5  242.75   23.15
 -22   0  -5  228.04   22.51
  22   0   5  261.28   22.33
 -22   0   5  244.93   21.65
 -22   0   5  264.48   23.34
  22   0  -5  277.06   22.06
 -22   0  -5  237.96   22.71
 -22   0  -5  244.08   19.07
  22   0  -5  228.83   19.25
 -22  -1  -5    6.01    9.62
  22  -1   5   11.26   10.88
 -22   1   5   -0.01   11.02
 -22  -1  -5   -6.43   10.05
  22  -1   5   -6.33   10.63
  22   1  -5   -1.67   10.01
  22  -1   5  -10.71   10.96
 -22   1   5   18.15   12.02
 -22  -1  -5    4.62   10.63
  22   1   5   17.23   10.27
 -22  -1   5   12.53   10.72
  22  -1  -5   10.70    9.84
 -22   1  -5    4.44   10.09
 -22  -1   5   15.45   10.51
  22  -1  -5    5.31    9.61
  22   1   5    1.03   10.52
  22   1   5  -10.00    9.30
 -22   1  -5   14.08   10.03
 -22   1  -5    4.20   10.08
  22   1   5    2.41   10.15
 -22   1  -5    5.71    9.69
  22  -1  -5    8.15   10.52
  22  -1  -5    1.99    9.89
 -22   2   5  290.59   26.45
  22  -2   5  281.58   24.10
  22   2  -5  223.53   19.76
 -22   2   5  270.70   25.21
  22  -2   5  260.52   23.82
 -22  -2  -5  267.82   25.14
 -22  -2  -5  249.44   24.29
  22  -2   5  255.59   24.50
  22   2   5  268.42   25.20
  22   2   5  254.80   21.17
 -22   2  -5  280.96   29.25
  22   2   5  243.27   21.73
 -22  -2   5  247.67   20.45
  22  -2  -5  255.02   24.94
 -22  -2   5  281.75   23.43
 -22   2  -5  252.68   21.61
  22   2   5  282.53   25.49
  22  -2  -5  256.51   24.85
 -22   2  -5  221.22   21.14
  22  -2  -5  309.93   24.09
  22  -2  -5  276.92   23.95
  22   3  -5   11.98    9.98
  22  -3   5   15.74   11.91
 -22   3   5   18.41   11.39
 -22  -3  -5   21.07   13.21
 -22  -3  -5    6.21   12.57
 -22   3   5   17.92   12.97
  22  -3   5   27.00   12.83
 -22   3   5   17.94   13.31
  22  -3   5   20.80   12.90
  22  -3  -5    2.14   12.01
 -22   3  -5    3.75   13.26
  22  -3  -5    2.86   12.70
 -22   3  -5    6.07   11.79
 -22   3  -5    5.70   10.36
 -22  -3   5   12.60   10.58
  22   3   5    6.96   10.57
  22  -3  -5    7.58   12.59
 -22  -3   5   10.46    9.59
  22   0   6  188.92   21.65
 -22   0   6  175.30   21.39
  22   0  -6  192.84   21.94
 -22   0   6  204.42   23.11
 -22   0  -6  202.09   21.93
  22   0   6  189.85   23.10
  22   0   6  155.38   21.54
 -22   0  -6  177.09   21.48
 -22   0  -6  201.92   22.83
  22  -1   6   62.08   15.89
  22   1  -6   44.57   13.84
  22  -1   6   68.34   16.80
 -22  -1  -6   37.95   14.22
 -22   1   6   64.56   16.45
 -22  -1  -6   66.45   16.11
  22  -1   6   17.83   13.48
 -22   1   6   92.00   17.83
  22  -1  -6   65.52   15.74
  22   1   6   84.65   16.93
 -22   1  -6   47.87   14.57
  22   1   6   62.53   15.59
 -22  -1   6   43.90   14.15
  22  -1  -6   80.94   15.92
 -22   1  -6   40.74   13.30
  22  -1  -6   47.55   14.32
 -22   1  -6   64.13   14.59
 -22  -1   6   68.45   15.25
  22   1   6   67.77   16.49
  22  -2   6  148.08   21.35
 -22   2   6  169.26   22.56
 -22  -2  -6  166.48   22.39
 -22   2   6  184.78   23.71
  22   2  -6  187.69   21.43
  22  -2   6  153.19   20.46
  22  -2   6  147.46   21.32
 -22  -2  -6  138.13   21.31
  22  -2  -6  122.33   19.55
  22  -2  -6  170.79   22.18
  22  -2  -6  155.64   21.87
  22   2   6  168.07   22.09
 -22  -2   6  177.64   20.63
 -22   2  -6  134.54   18.63
 -22  -2   6  125.08   18.18
 -22   2  -6  141.39   23.18
  22   2   6  172.20   21.74
  22   2   6  165.46   20.29
  22   2   6  157.62   22.28
 -22   2  -6  161.39   20.63
  22  -2  -6  161.72   22.12
 -23   0   0   14.80    6.57
 -23   0   0   19.44    7.63
  23   0   0   -5.01    7.18
 -23   0   0    3.55    8.53
  23   0   0   17.03    8.50
  23   0   0   12.30    8.28
  23   0   0   15.40    8.70
 -23   0   0   16.24    8.99
  23   1   0  841.42   29.24
  23  -1   0  834.21   31.18
  23   1   0  795.98   29.83
  23   1   0  827.30   29.13
 -23   1   0  817.08   24.79
 -23  -1   0  840.40   30.92
 -23   1   0  864.61   29.08
  23   1   0  843.88   29.45
 -23  -1   0  850.41   25.67
 -23  -1   0  831.27   30.91
 -23   1   0  855.74   31.68
  23  -1   0  830.21   31.13
  23  -1   0  849.51   31.10
  23  -1   0  867.55   30.67
 -23   1   0  859.62   29.30
 -23   1   0  807.61   31.21
 -23  -2   0   72.42   12.61
 -23   2   0   85.43   14.08
 -23   2   0   64.67   11.15
  23  -2   0   89.72   13.73
  23  -2   0   75.56   13.13
 -23   2   0   83.56   13.82
  23   2   0   78.58   11.60
 -23   2   0   90.62   12.23
 -23  -2   0   91.22   11.61
  23   2   0   75.62   12.20
 -23  -2   0   87.44   13.50
  23  -2   0   80.01   14.21
  23  -2   0   80.60   12.55
 -23   2   0   94.14    8.90
  23   2   0   83.85   11.41
  23  -3   0  430.71   24.96
 -23   3   0  457.79   23.60
 -23   3   0  510.43   24.73
 -23  -3   0  461.64   23.91
  23  -3   0  430.45   24.45
  23  -3   0  477.25   26.53
  23   3   0  476.47   22.62
 -23   3   0  435.64   23.06
 -23   3   0  461.44   19.20
 -23  -3   0  426.72   22.99
 -23   3   0  474.30   24.41
 -23   4   0   23.08   10.85
 -23   4   0  -14.08    9.07
  23  -4   0   -5.73    9.18
  23  -4   0  -13.72    8.97
 -23   4   0   -0.24    7.37
  23   4   0   -1.53    8.34
  23  -4   0   13.37   10.62
 -23  -4   0   -3.58    9.22
 -23  -4   0    8.67    8.81
 -23   5   0  171.44   17.85
 -23   5   0  176.04   19.89
  23   5   0  178.58   17.26
  23  -5   0  193.40   22.94
 -23  -5   0  182.92   19.17
  23  -5   0  160.82   21.59
  23  -5   0  183.18   20.82
 -23   5   0  213.24   21.50
 -23  -5   0  203.89   19.75
  23   0  -1   -1.99    7.12
  23   0   1    3.03    8.00
  23   0  -1   11.40    7.99
 -23   0  -1   10.12    8.78
 -23   0   1    9.09    8.63
 -23   0  -1    8.56    8.58
 -23   0   1   -2.58    7.13
 -23   0  -1    7.07    6.39
  23   0   1    4.23    7.95
  23   0   1   15.49    8.65
 -23   0   1    9.58    8.87
  23   0  -1   -0.12    7.62
  23   0  -1   -1.57    7.45
  23   0   1   11.05    8.94
 -23   0   1    7.61    6.59
 -23   0  -1   10.24    7.44
 -23   1   1  164.19   15.17
 -23  -1  -1  190.41   18.09
  23  -1   1  157.84   16.50
  23  -1   1  190.90   18.01
  23  -1   1  173.38   17.55
 -23   1   1  184.61   17.87
  23   1  -1  190.29   16.16
 -23   1   1  199.63   14.79
  23   1  -1  165.81   15.32
  23   1  -1  135.45   15.24
 -23  -1  -1  138.31   15.67
  23   1  -1  175.68   15.81
  23  -1   1  203.73   18.19
 -23  -1  -1  201.59   15.56
 -23   1   1  177.71   17.66
 -23  -1  -1  157.89   11.77
  23   1   1  191.05   16.90
  23   1   1  193.05   17.98
  23  -1  -1  148.86   16.01
 -23  -1   1  168.45   11.82
 -23  -1   1  185.80   17.17
 -23  -1   1  149.78   15.92
  23  -1  -1  159.03   16.51
  23  -1  -1  185.76   18.31
 -23   1  -1  183.32   14.97
  23   1   1  191.66   16.21
  23  -1  -1  166.53   16.19
 -23   1  -1  164.68   16.72
 -23   1  -1  188.93   18.29
 -23   1  -1  180.36   15.49
  23   1   1  167.75   14.81
 -23   2   1    3.41    7.25
  23  -2   1    7.31    9.37
 -23   2   1   -0.33    8.91
 -23  -2  -1    1.98    6.87
  23   2  -1    5.41    8.19
  23  -2   1    6.21    8.64
 -23   2   1   -8.41    6.83
 -23  -2  -1   -7.57    8.05
 -23  -2  -1   -3.67    8.35
 -23   2   1    9.79    9.43
  23  -2   1    6.61    8.95
  23  -2   1    6.26    8.88
 -23   2  -1    1.65    8.59
  23  -2  -1   13.91    9.29
  23  -2  -1   -7.68    8.66
 -23  -2   1   13.22    8.98
 -23   2  -1    7.64    8.74
 -23  -2   1   -4.91    5.24
 -23   2  -1   -2.40    6.70
  23  -2  -1   -4.16    7.88
 -23   2  -1    4.63    8.19
  23   2   1    0.34    7.34
 -23   2  -1   -3.56    6.80
  23   2   1    4.71    7.77
  23   2   1    1.11    7.13
  23  -2  -1    4.10    8.84
  23   2   1   -4.70    7.21
 -23  -2   1    4.52    8.51
 -23  -3  -1  371.72   23.17
  23  -3   1  327.83   21.64
 -23   3   1  364.48   21.71
  23  -3   1  364.04   22.55
 -23   3   1  405.31   23.77
  23  -3   1  380.19   23.32
 -23   3   1  372.12   21.96
 -23   3   1  355.30   18.64
 -23   3   1  378.83   23.43
  23   3  -1  343.70   20.03
 -23  -3  -1  411.16   23.06
  23  -3  -1  383.85   23.63
 -23   3  -1  366.70   21.49
  23   3   1  342.03   20.59
 -23   3  -1  412.53   20.56
 -23   3  -1  416.26   29.66
 -23   3  -1  389.89   22.07
  23  -3  -1  368.50   23.74
 -23  -3   1  361.41   20.72
 -23   3  -1  380.10   22.64
 -23  -3   1  386.68   21.30
  23  -3  -1  396.28   24.73
  23  -4   1   -0.92   10.03
  23   4  -1   13.72    9.12
 -23   4   1    9.73    8.61
 -23  -4  -1    9.47    9.60
 -23   4   1   12.06   10.76
  23  -4   1   -4.07    9.92
  23  -4   1   -6.44   10.25
 -23   4   1   -1.09    9.60
 -23  -4  -1    3.11    9.89
 -23   4  -1   12.54   10.37
 -23  -4   1   16.98    9.84
 -23  -4   1    6.04    9.29
  23  -4  -1    4.79   10.92
  23  -4  -1   22.09   11.57
  23   4   1   10.60    9.61
 -23   4  -1   16.70    8.47
 -23   4  -1    1.44    9.19
  23  -4  -1    3.07   10.99
 -23   5   1  178.92   20.07
  23  -5   1  222.76   23.60
  23  -5   1  223.91   23.62
 -23  -5  -1  208.47   20.32
 -23  -5  -1  209.93   21.62
 -23   5   1  202.32   21.53
  23  -5   1  194.72   21.55
 -23   5   1  215.72   20.54
 -23   5  -1  155.83   18.68
 -23   5  -1  175.11   20.69
  23  -5  -1  163.65   20.87
  23  -5  -1  177.63   22.37
  23  -5  -1  205.28   23.63
  23   5   1  220.32   19.28
 -23   5  -1  178.78   18.53
 -23  -5   1  189.91   19.00
  23   0  -2   -0.43    7.40
 -23   0   2    5.43    8.97
 -23   0  -2    9.12    8.13
 -23   0   2    3.39    8.60
 -23   0   2   14.35    9.15
  23   0   2    9.15    8.13
 -23   0   2    5.46    7.12
  23   0   2   10.38    8.83
  23   0  -2    6.22    7.72
 -23   0  -2    6.05    9.29
 -23   0  -2    7.87    7.00
 -23   0  -2   -1.50    9.05
  23   0  -2    2.46    8.08
  23   0  -2   -3.41    6.64
  23   0   2    6.23    8.60
  23   0   2    9.83    9.41
 -23   0   2   -7.90    5.68
 -23  -1  -2  424.08   18.59
 -23  -1  -2  407.01   23.82
  23  -1   2  445.45   23.76
  23  -1   2  417.78   22.31
 -23   1   2  449.98   21.50
  23   1  -2  424.95   19.57
 -23  -1  -2  439.34   24.00
  23   1  -2  414.12   20.17
  23   1  -2  398.88   21.33
 -23   1   2  428.34   23.99
  23   1  -2  423.31   20.74
 -23   1   2  411.23   20.77
 -23   1   2  440.73   24.00
 -23   1   2  460.80   24.49
 -23  -1  -2  470.03   22.32
  23  -1   2  428.64   24.07
  23  -1   2  424.58   23.44
  23  -1  -2  432.48   23.23
  23  -1  -2  409.91   22.98
  23  -1  -2  429.39   23.07
  23   1   2  433.11   22.45
  23   1   2  415.86   21.98
 -23  -1   2  435.73   18.44
 -23  -1   2  420.40   22.43
 -23   1  -2  461.78   22.52
  23  -1  -2  427.17   23.34
 -23   1  -2  420.24   23.15
 -23  -1   2  412.46   22.28
 -23   1  -2  463.08   21.75
 -23  -1   2  456.11   23.09
 -23  -1   2  397.26   22.35
  23   1   2  431.75   22.95
 -23   1  -2  431.06   23.45
  23   1   2  420.01   22.25
 -23   2   2   19.23   11.11
  23  -2   2   31.70   11.02
  23  -2   2   39.92   11.44
 -23   2   2   40.44   10.08
 -23   2   2   40.15   11.23
 -23   2   2   49.38   12.73
 -23   2   2   36.47   11.75
 -23  -2  -2   38.34   11.29
  23   2  -2   36.27    9.94
  23  -2   2    5.61    9.90
 -23  -2  -2   34.67    8.36
 -23  -2  -2   43.35   11.59
 -23   2   2   42.57   12.36
 -23   2  -2   44.06   11.01
  23  -2  -2   38.61   11.89
 -23   2  -2   37.38   10.18
 -23   2  -2   41.93   10.81
  23  -2  -2   28.33   10.28
 -23  -2   2   39.90   10.64
  23  -2  -2   39.20   12.03
  23  -2  -2   37.10   11.49
  23   2   2   42.19   10.62
  23   2   2   28.79   10.62
  23   2   2   35.44    9.91
 -23   2  -2   29.48   10.37
  23   2   2   36.33   10.78
 -23   2  -2   39.80   11.42
 -23  -2   2   34.80    7.19
 -23  -2   2   25.53    9.91
 -23  -2   2   29.80   10.17
  23  -3   2  344.77   23.26
 -23   3   2  329.41   21.93
 -23   3   2  322.43   23.21
 -23   3   2  396.03   24.30
  23  -3   2  346.24   22.92
  23   3  -2  346.97   19.85
 -23  -3  -2  333.26   22.83
 -23   3   2  340.21   23.08
 -23   3   2  378.64   22.26
 -23  -3  -2  342.71   23.18
  23  -3   2  324.58   22.13
 -23   3  -2  339.59   21.72
  23  -3  -2  338.21   23.40
 -23  -3   2  364.80   20.63
  23  -3  -2  338.81   23.57
 -23   3  -2  309.64   20.43
 -23   3  -2  310.10   21.50
 -23  -3   2  361.25   20.25
  23  -3  -2  322.18   23.84
  23   3   2  351.12   21.70
 -23   3  -2  358.33   21.26
 -23   4   2   94.32   14.60
  23  -4   2   80.84   15.02
 -23   4   2   86.10   14.88
  23  -4   2  105.56   16.88
  23   4  -2  102.51   13.60
  23  -4   2   72.56   15.10
 -23  -4  -2  100.95   16.93
 -23   4   2   60.72   14.82
 -23  -4  -2   85.22   15.75
 -23   4   2   60.77   13.21
  23   4   2  102.88   14.93
  23  -4  -2   84.88   16.43
 -23   4  -2   88.39   15.26
 -23  -4   2   96.66   13.78
 -23   4  -2  113.09   15.50
 -23   4  -2  104.08   16.16
 -23  -4   2  103.11   14.13
  23  -4  -2  107.61   17.16
  23  -4  -2   89.57   17.11
 -23  -5  -2  165.36   20.46
 -23  -5  -2  180.32   20.94
  23  -5   2  162.42   20.44
 -23   5   2  167.71   19.66
  23  -5   2  148.14   19.24
 -23   5   2  168.85   20.76
 -23   5   2  166.86   20.60
  23  -5   2  132.53   18.99
  23  -5  -2  177.90   21.00
 -23  -5   2  169.70   16.84
 -23   5  -2  145.32   18.99
  23   5   2  178.97   18.43
  23  -5  -2  183.15   23.37
  23  -5  -2  179.01   22.27
 -23   5  -2  144.07   17.31
  23   0  -3    1.78    7.69
  23   0   3    0.61    9.72
  23   0   3   -9.62    8.46
 -23   0  -3   -2.99    8.97
  23   0  -3    1.99    7.93
  23   0   3    9.69    9.80
  23   0  -3   -1.95    7.95
  23   0  -3    4.92    8.44
 -23   0   3   -4.64    8.62
 -23   0  -3    4.99    8.16
 -23   0  -3   13.32    7.66
  23   0   3   10.68    9.01
 -23   0  -3    1.92    9.66
 -23   0   3   -2.92    8.54
 -23   1   3  291.40   21.33
 -23  -1  -3  340.19   23.17
 -23  -1  -3  274.24   16.50
  23  -1   3  277.65   20.72
  23  -1   3  313.98   19.91
 -23   1   3  314.30   19.25
 -23  -1  -3  307.94   21.73
 -23  -1  -3  316.65   20.10
  23  -1   3  251.28   20.60
  23   1  -3  292.58   17.89
 -23   1   3  261.35   20.60
  23   1  -3  288.61   18.42
  23  -1   3  298.04   21.98
 -23   1   3  305.12   19.00
  23   1  -3  291.57   19.67
  23   1   3  302.10   20.56
  23  -1  -3  318.01   21.70
  23  -1  -3  299.77   20.30
  23  -1  -3  314.25   20.99
 -23   1  -3  318.76   21.66
  23   1   3  305.40   20.45
 -23   1  -3  287.51   19.74
 -23   1  -3  295.97   18.90
  23  -1  -3  299.58   20.39
 -23  -1   3  313.12   20.57
  23   1   3  266.02   20.41
 -23  -1   3  308.85   20.45
 -23   1  -3  287.25   20.20
  23   1   3  308.70   20.83
 -23  -2  -3    7.08    6.27
 -23  -2  -3   10.46   10.47
 -23   2   3   28.02    9.95
 -23  -2  -3    3.86    9.99
  23  -2   3   16.96   10.65
  23   2  -3    9.60    8.36
 -23   2   3   -0.82    9.94
 -23   2   3   22.49    9.55
  23  -2   3   20.78   10.60
  23  -2   3    4.51    9.89
 -23   2   3    7.41   10.77
  23  -2  -3   27.50   11.65
  23  -2  -3   16.07   10.70
 -23   2  -3   -1.43    9.13
 -23   2  -3    2.56    8.82
 -23   2  -3    3.97   10.17
 -23   2  -3   11.57    9.63
 -23  -2   3   -1.04    5.78
 -23  -2   3   -6.32    7.87
  23  -2  -3   -9.06    8.43
 -23  -2   3    5.15    9.00
  23   2   3   10.43    9.77
  23   2   3   -1.91    8.37
  23   2   3    0.15    8.46
 -23   2  -3   11.83    8.87
  23  -2  -3   26.17   11.15
  23   2   3   -9.00    7.88
  23  -3   3  253.08   21.31
  23  -3   3  272.07   21.78
 -23  -3  -3  287.44   23.20
 -23  -3  -3  282.26   23.31
 -23   3   3  286.20   23.08
 -23   3   3  253.69   22.60
 -23   3   3  329.55   21.36
  23   3  -3  307.46   19.74
 -23   3   3  323.07   22.12
  23  -3   3  314.22   22.87
 -23   3  -3  318.32   21.30
  23  -3  -3  329.08   23.41
 -23   3  -3  273.64   20.72
 -23  -3   3  307.58   19.94
  23   3   3  299.82   21.52
  23  -3  -3  306.24   23.36
 -23  -3   3  278.13   19.35
 -23  -3   3  276.33   19.01
 -23  -3   3  294.50   20.31
 -23   3  -3  290.12   23.07
  23  -3  -3  341.81   24.72
 -23   4   3   37.55   12.65
  23  -4   3   25.24   11.47
  23  -4   3   24.98   12.76
 -23  -4  -3   28.30   12.67
 -23   4   3   23.62   13.18
 -23   4   3   26.63   13.36
  23   4  -3   27.24   11.07
 -23   4   3   22.60   12.10
 -23  -4  -3   27.11   13.21
  23  -4   3   11.07   11.13
  23  -4  -3   16.13   13.22
  23  -4  -3   14.74   11.87
 -23   4  -3   22.07   11.43
  23  -4  -3   24.56   13.26
 -23   4  -3   14.94   11.81
 -23   4  -3   35.81   11.57
  23   4   3   15.26   10.72
 -23  -4   3   22.47   10.88
 -23  -4   3   45.41   10.80
  23   0   4   -1.15    9.05
  23   0  -4   -4.76    7.49
 -23   0  -4   -4.66    9.40
  23   0   4    4.31    9.08
  23   0   4   -8.23    9.06
 -23   0  -4   -8.21    9.81
  23   0   4    1.65   10.45
  23   0  -4    5.94    8.68
 -23   0  -4   14.95   10.31
 -23   0   4    8.35   10.00
 -23   0   4   -1.03    9.35
  23   0  -4   -1.55    9.68
 -23   0  -4    8.86    8.53
  23   0  -4    2.49    8.12
 -23  -1  -4  344.26   24.84
 -23  -1  -4  384.29   22.98
  23  -1   4  377.97   24.58
  23  -1   4  360.56   25.26
 -23  -1  -4  356.77   25.01
 -23   1   4  363.88   23.85
  23   1  -4  374.04   22.48
  23  -1   4  352.51   23.87
 -23   1   4  359.13   23.68
 -23  -1  -4  330.89   19.37
 -23   1  -4  357.39   23.29
  23   1   4  362.74   23.07
 -23  -1   4  352.62   22.15
  23  -1  -4  357.10   23.36
  23  -1  -4  371.85   23.19
  23   1   4  363.02   23.78
 -23   1  -4  344.19   22.80
 -23   1  -4  376.63   22.09
  23  -1  -4  323.46   22.10
 -23  -1   4  386.66   22.88
 -23   1  -4  363.47   22.65
  23   1   4  352.59   23.51
  23   1   4  375.90   23.88
  23  -1  -4  380.17   24.12
  23  -2   4   12.50   10.48
  23  -2   4   14.15   11.00
  23   2  -4   -3.73    8.57
 -23   2   4   21.96   11.78
 -23  -2  -4    4.82   10.44
  23  -2   4   39.97   13.05
 -23   2   4   -0.02    8.49
 -23   2   4   -2.18   11.44
 -23  -2  -4    4.71   11.13
 -23  -2   4    4.86    9.36
  23   2   4    5.99    9.69
  23   2   4   14.51   10.17
  23  -2  -4   15.50   11.01
 -23   2  -4    7.32   10.47
  23  -2  -4    1.78   10.49
  23   2   4    0.82    9.83
 -23   2  -4    9.66   10.02
 -23   2  -4    4.17    9.07
  23  -2  -4   24.35   11.85
  23  -2  -4    9.03   11.30
 -23  -2   4   14.74    9.73
 -23   2  -4    0.04   11.81
  23   2   4   14.22   10.55
  23   3  -4  156.87   17.52
 -23   3   4  151.79   20.81
  23  -3   4  158.08   19.76
 -23  -3  -4  147.36   20.79
  23  -3   4  124.44   17.82
 -23  -3  -4  160.14   21.45
 -23   3   4  177.89   19.87
  23  -3   4  183.44   21.03
 -23   3   4  175.08   21.53
 -23   3   4  148.93   18.49
  23  -3  -4  168.60   22.90
 -23  -3   4  155.57   17.36
  23   3   4  156.05   19.30
 -23   3  -4  129.98   20.48
  23  -3  -4  157.23   21.04
 -23  -3   4  166.45   17.83
 -23   3  -4  120.59   16.62
  23  -3  -4  142.18   20.22
 -23   3  -4  140.42   18.06
  23  -4   4   84.63   16.73
 -23   4   4   52.45   15.50
  23   4  -4   58.28   11.92
 -23   4   4   57.80   14.83
 -23  -4  -4   57.46   15.73
 -23   4   4   74.36   15.48
 -23  -4  -4   63.24   17.01
  23  -4   4   57.40   14.81
  23  -4   4   76.36   16.69
  23  -4  -4   66.21   16.99
 -23   4  -4   71.21   14.16
  23  -4  -4   75.65   17.48
 -23  -4   4   72.39   13.35
 -23   4  -4   30.57   14.29
  23   4   4   53.69   14.35
  23  -4  -4   54.09   16.57
 -23  -4   4   61.55   12.59
 -23   4  -4   54.41   15.23
  23   0  -5   -1.24   11.51
 -23   0  -5    2.92   10.57
 -23   0  -5   16.99   10.68
  23   0   5   21.51   12.37
 -23   0  -5  -10.06    9.96
  23   0   5   18.37   12.51
  23   0  -5    8.67   12.59
 -23   0   5   13.11   11.13
 -23   0  -5   -6.32    8.33
 -23   0   5   14.27   11.37
  23   0  -5    1.43    9.93
  23   0   5   -8.78    9.85
 -23  -1  -5  172.72   23.25
 -23  -1  -5  174.46   21.89
 -23   1   5  196.33   21.86
 -23   1   5  181.74   20.96
  23   1  -5  200.81   21.79
  23  -1   5  159.20   21.05
  23  -1   5  192.92   21.84
 -23  -1  -5  168.46   20.92
  23  -1   5  158.38   20.86
 -23  -1   5  201.58   20.59
  23  -1  -5  200.24   20.89
 -23  -1   5  179.61   19.56
  23   1   5  186.49   21.78
 -23   1  -5  192.44   19.61
  23  -1  -5  217.80   22.01
 -23   1  -5  172.19   19.65
  23   1   5  177.96   21.33
  23  -1  -5  182.85   21.06
  23  -1  -5  193.48   21.58
  23   1   5  214.52   22.48
  23   1   5  213.62   22.91
 -23   1  -5  170.97   19.60
 -23   1  -5  177.57   19.42
 -23   2   5   10.08   11.79
  23  -2   5   12.27   12.50
 -23   2   5   -4.79   11.47
  23  -2   5   -3.30   11.46
  23  -2   5    1.77    9.92
 -23  -2  -5   -3.07   11.05
  23   2  -5   -1.65    9.80
 -23  -2  -5   19.34   12.45
  23   2   5   -6.99   10.29
  23  -2  -5   11.83   11.61
 -23   2  -5    4.36    9.68
 -23  -2   5    3.15    9.99
 -23   2  -5   -2.31    9.94
  23  -2  -5   15.55   12.29
 -23   2  -5   -4.55   12.45
  23   2   5   -0.28    9.55
  23  -2  -5   -6.92   11.60
  23  -2  -5   -0.82   10.15
  23   2   5  -14.22   10.13
 -23  -2   5    7.65   10.61
  23   2   5   -2.78   10.01
  23   3  -5   92.99   15.50
 -23   3   5  103.87   17.43
 -23   3   5  128.23   20.83
 -23  -3  -5   67.27   17.34
  23  -3   5  101.32   18.46
  23  -3   5  110.51   18.36
 -23  -3  -5  101.62   18.86
 -23   3   5  101.19   19.69
  23  -3   5  123.26   19.08
  23   3   5   97.76   17.17
 -23   3  -5  108.65   17.32
  23  -3  -5  123.52   20.41
 -23   3  -5  130.96   19.02
 -23  -3   5   89.17   15.12
  23  -3  -5   98.84   19.74
 -23   3  -5   88.28   20.03
 -23  -3   5   99.49   15.52
  23  -3  -5  109.12   19.53
  23   0   6   -9.54   10.84
 -23   0   6    9.02   12.10
  23   0   6    8.65   10.93
 -23   0  -6  -12.36   10.09
 -23   0  -6    2.50   11.04
  23   0  -6   20.60   12.68
  23   0   6    2.43   12.26
 -23   0  -6    5.32   11.46
 -23   0   6   -2.51   11.49
  23  -1   6  232.16   26.05
 -23   1   6  283.08   26.75
 -23   1   6  267.43   26.97
 -23  -1  -6  221.58   25.31
  23  -1   6  230.57   25.25
  23  -1   6  279.29   27.81
  23   1  -6  259.22   25.73
 -23  -1  -6  235.04   24.79
 -23  -1   6  250.94   24.50
  23  -1  -6  231.33   25.19
  23   1   6  279.09   27.34
 -23   1  -6  235.42   23.51
 -23   1  -6  232.14   24.04
 -23  -1   6  271.07   25.22
  23  -1  -6  230.82   24.30
  23  -1  -6  314.12   27.68
  23   1   6  231.66   24.53
 -23   1  -6  242.39   24.80
  23   1   6  260.98   26.74
 -24   0   0  899.03   29.33
  24   0   0  924.74   33.22
  24   0   0  955.17   32.92
 -24   0   0  961.15   34.59
 -24   0   0  989.44   31.49
  24   0   0  972.33   33.82
  24   0   0 1011.83   33.61
 -24   0   0  942.36   34.16
 -24  -1   0   66.65   12.66
 -24   1   0  115.17   14.95
  24  -1   0  106.11   14.07
  24   1   0  105.01   13.45
 -24   1   0   94.22   13.19
  24  -1   0   75.43   12.70
  24  -1   0   95.02   14.08
 -24  -1   0  111.57   10.64
  24   1   0  118.35   15.07
  24   1   0   99.23   13.04
  24   1   0  110.12   13.17
  24  -1   0   92.29   13.92
 -24  -1   0  107.47   14.51
 -24   1   0   81.81   13.47
 -24   1   0  100.77   12.15
  24   2   0  860.74   30.11
  24   2   0  846.00   29.56
 -24   2   0  921.59   34.23
  24  -2   0  864.56   34.08
  24  -2   0  840.89   33.42
 -24  -2   0  883.26   33.09
  24  -2   0  897.37   32.59
 -24   2   0  878.80   31.63
  24   2   0  871.84   31.32
 -24   2   0  872.88   31.54
 -24  -2   0  900.75   33.05
  24  -2   0  821.29   32.78
 -24   2   0  882.76   33.83
 -24   3   0   22.74   10.82
  24  -3   0   43.72   13.20
 -24   3   0   32.19   11.33
  24  -3   0   36.36   11.94
 -24   3   0   41.68   11.16
 -24   3   0   44.11   12.18
 -24  -3   0   17.17   10.47
 -24  -3   0   21.88   10.29
 -24   3   0   34.80    8.17
  24  -3   0   26.25   11.63
  24   3   0   45.18   11.50
  24  -4   0  428.78   27.23
 -24  -4   0  375.32   23.51
 -24   4   0  387.26   23.94
 -24   4   0  443.11   25.65
 -24   4   0  410.94   21.09
  24   4   0  383.40   21.85
  24  -4   0  407.00   26.63
 -24  -4   0  389.77   23.28
  24  -4   0  413.02   25.50
  24  -5   0   43.20   14.10
 -24   5   0   21.32   11.96
 -24   5   0   41.51   13.11
  24  -5   0   63.90   15.89
  24  -5   0   77.36   17.46
 -24  -5   0   66.46   13.83
 -24  -5   0   55.26   13.44
  24   5   0   62.36   12.41
 -24   5   0   50.75   12.21
  24   0   1  607.66   26.55
  24   0   1  596.95   27.04
 -24   0   1  609.01   23.39
  24   0  -1  653.26   25.97
 -24   0  -1  668.20   28.24
 -24   0   1  667.27   25.17
 -24   0   1  620.57   27.60
 -24   0  -1  643.88   24.18
  24   0  -1  643.33   26.45
 -24   0  -1  617.30   27.84
 -24   0  -1  666.47   25.98
  24   0   1  666.62   27.27
 -24   0   1  621.74   27.63
  24   0   1  661.91   27.68
  24   0  -1  626.65   27.04
  24   0  -1  653.03   26.51
 -24  -1  -1    8.15    9.29
 -24   1   1   -2.75    9.27
  24   1  -1    3.93    8.07
  24  -1   1   -3.97    8.10
 -24   1   1   -3.58    6.60
  24   1  -1    6.38    7.54
 -24   1   1    0.06    8.83
 -24  -1  -1    1.34    5.63
 -24   1   1   -2.00    7.38
  24  -1   1   -2.20    8.13
  24  -1   1   -0.39    8.21
  24   1  -1   -1.90    7.06
  24  -1   1  -11.72    8.36
 -24  -1  -1   -1.10    8.59
  24   1  -1    3.44    6.99
 -24   1  -1   -2.12    8.60
 -24  -1   1    3.41    5.83
 -24   1  -1   -3.25    6.58
  24  -1  -1    3.09    9.23
  24   1   1   -7.20    6.96
 -24  -1   1   -3.75    8.12
  24   1   1    4.83    8.46
  24  -1  -1   -0.88    8.15
  24   1   1   -6.64    7.84
 -24  -1   1    4.23    9.26
  24  -1  -1    9.63    9.32
  24  -1  -1    2.29    8.47
 -24   1  -1   -9.25    8.37
  24   1   1    8.41    8.57
 -24   1  -1   -1.87    6.96
 -24  -2  -1  231.82   19.24
  24  -2   1  271.90   20.66
  24  -2   1  251.60   19.74
 -24  -2  -1  234.71   18.92
 -24   2   1  279.47   21.11
  24  -2   1  245.52   19.09
  24  -2   1  329.98   28.63
 -24   2   1  254.68   18.15
 -24   2   1  253.01   17.91
 -24   2   1  266.40   21.23
  24   2  -1  259.48   18.13
 -24   2  -1  248.29   16.52
  24  -2  -1  262.86   20.15
  24  -2  -1  219.60   19.58
  24   2   1  237.88   17.29
 -24   2  -1  230.14   19.61
 -24   2  -1  253.94   19.50
  24   2   1  246.53   17.36
  24  -2  -1  260.42   21.08
 -24  -2   1  269.08   19.32
  24   2   1  243.83   18.19
 -24  -2   1  282.84   19.02
  24  -2  -1  246.68   19.40
 -24   2  -1  237.96   17.65
 -24   2  -1  255.40   18.31
  24   3  -1    4.98    8.72
 -24   3   1    9.33    7.12
 -24  -3  -1   22.01   10.95
 -24   3   1  -12.72    7.74
 -24   3   1   20.34   10.93
 -24  -3  -1   -3.53    9.68
 -24   3   1   -0.48    8.58
  24  -3   1    2.77    9.79
 -24   3   1    2.66    9.51
  24  -3   1    0.01    8.93
  24  -3   1   19.30   10.50
 -24   3  -1   -2.36    9.13
 -24   3  -1   -5.69    8.12
  24  -3  -1  -20.72    7.35
 -24  -3   1   -1.59    8.57
  24   3   1   13.14    9.51
 -24  -3   1    9.62    9.57
 -24   3  -1    4.54    8.96
  24  -3  -1    0.29    9.53
 -24   3  -1    8.10    9.02
  24  -3  -1   -1.53    9.47
 -24   4   1   53.25   11.29
 -24  -4  -1   58.48   13.87
 -24  -4  -1   61.46   13.71
  24  -4   1   61.73   14.69
 -24   4   1   67.39   14.18
  24   4  -1   80.65   13.29
  24  -4   1   69.04   14.92
  24  -4   1   59.31   15.12
 -24   4   1   40.74   13.23
 -24  -4   1   46.39   11.93
  24   4   1   71.91   13.24
 -24   4  -1   50.43   13.40
  24  -4  -1   42.44   13.83
  24  -4  -1   42.18   15.11
  24  -4  -1   83.77   15.92
 -24  -4   1   49.04   12.30
 -24   4  -1   72.05   13.42
  24  -5   1   -3.21   11.63
  24  -5   1    1.69   11.02
 -24   5   1    3.26   11.18
  24   5  -1    1.87    8.97
 -24   5   1    9.62   11.04
 -24  -5  -1   18.81   12.52
 -24   5   1    5.01    9.92
 -24  -5  -1   -5.78   10.59
  24  -5   1    7.20   12.80
  24  -5  -1  -10.16   11.10
  24   5   1   -9.18    9.48
 -24   5  -1  -12.53    9.08
  24  -5  -1    3.51   11.25
 -24   5  -1   16.91   10.89
  24  -5  -1   17.24   13.12
 -24  -5   1   -1.81    9.91
  24   0  -2  438.18   21.80
 -24   0  -2  382.20   23.11
  24   0   2  406.60   23.24
  24   0  -2  388.99   21.65
  24   0  -2  386.25   22.21
 -24   0   2  410.12   23.27
 -24   0  -2  363.29   19.53
 -24   0   2  418.21   23.13
 -24   0   2  418.61   23.18
  24   0   2  457.91   23.41
  24   0  -2  411.11   22.39
 -24   0   2  420.48   19.69
 -24   0  -2  409.94   23.77
 -24   0   2  385.85   22.83
  24   0   2  407.87   22.52
  24   0   2  426.64   23.53
 -24   0  -2  424.51   21.97
  24  -1   2    9.93    8.90
 -24   1   2   32.64   11.30
 -24   1   2   33.56   10.87
 -24  -1  -2   54.00   13.37
 -24   1   2   24.51    9.32
  24   1  -2   26.98    9.14
 -24   1   2   23.39   10.72
  24  -1   2   21.22   10.73
  24   1  -2   29.86   10.36
  24   1  -2   42.28   12.36
  24   1  -2   21.05    8.51
 -24   1   2   24.41   10.74
 -24  -1  -2   19.30    7.39
  24  -1   2   10.65    9.88
  24  -1   2   19.20   10.14
 -24  -1  -2   42.80   11.85
 -24   1   2   29.28    9.28
 -24  -1  -2   27.39    9.99
 -24   1  -2   28.67    9.16
 -24  -1   2   26.11    7.49
  24  -1  -2   31.00   10.67
  24   1   2   19.49    9.67
  24   1   2   13.06    8.90
  24   1   2   40.90   11.26
 -24  -1   2   17.85    9.76
 -24  -1   2    9.68    9.13
  24  -1  -2   27.48   10.62
 -24  -1   2   21.69    9.61
  24  -1  -2   33.41   11.22
 -24   1  -2   25.59    9.63
 -24  -1   2   12.80    9.45
 -24   1  -2   20.65   10.64
  24   1   2   36.06   10.61
 -24   1  -2   -4.71    9.20
  24  -1  -2   19.83    9.96
 -24   2   2  320.75   22.30
  24  -2   2  337.41   22.04
 -24   2   2  331.80   20.58
 -24   2   2  298.01   20.15
  24  -2   2  327.61   22.68
 -24  -2  -2  295.80   21.95
 -24  -2  -2  338.14   21.95
 -24   2   2  333.21   22.89
 -24   2   2  325.32   22.84
  24   2  -2  337.95   20.24
  24  -2   2  291.83   21.35
 -24   2   2  348.08   23.71
 -24   2  -2  332.21   20.54
  24  -2  -2  326.36   22.70
  24  -2  -2  368.60   22.56
 -24  -2   2  324.35   20.44
 -24   2  -2  340.64   21.14
 -24   2  -2  367.58   21.47
  24   2   2  320.78   19.35
 -24  -2   2  340.38   20.90
  24  -2  -2  341.07   23.29
 -24   2  -2  367.28   22.30
  24  -2  -2  260.10   21.41
  24   2   2  355.56   21.00
  24   2   2  300.90   19.98
 -24   2  -2  309.69   21.69
  24   2   2  338.38   21.20
  24  -3   2   23.54   11.30
 -24   3   2   27.26   12.04
  24   3  -2   40.39   10.77
 -24   3   2   17.72   10.96
 -24   3   2   38.33   12.95
 -24  -3  -2   26.08   11.75
 -24  -3  -2   40.20   12.84
  24  -3   2   12.68   10.15
  24  -3   2   23.60   11.35
 -24   3   2    8.35    9.83
 -24   3   2   22.05   10.65
  24  -3  -2   22.89   11.71
 -24   3  -2   13.74   10.09
  24   3   2   32.34   11.48
 -24   3  -2   26.27   11.18
  24  -3  -2   42.47   13.49
 -24  -3   2   34.66   10.50
 -24  -3   2   32.27   10.77
 -24   3  -2   30.41   10.57
 -24   3  -2   35.96   11.33
  24  -3  -2   27.95   12.64
  24   4  -2  204.26   17.75
 -24   4   2  276.27   31.32
 -24   4   2  210.13   21.40
 -24   4   2  204.77   19.37
  24  -4   2  239.69   23.42
  24  -4   2  214.26   21.52
 -24   4   2  214.04   22.11
 -24  -4  -2  225.34   23.12
 -24  -4  -2  193.10   21.25
  24  -4   2  220.42   22.42
 -24   4  -2  208.48   19.96
  24  -4  -2  230.07   24.13
 -24  -4   2  200.27   18.72
 -24   4  -2  220.56   20.30
  24  -4  -2  241.85   24.72
 -24   4  -2  244.99   22.43
  24   4   2  227.83   19.63
 -24  -4   2  224.09   18.52
  24  -4  -2  247.39   24.15
 -24   0  -3  245.57   16.88
  24   0   3  292.12   21.80
 -24   0   3  263.69   20.24
  24   0   3  248.56   20.53
  24   0   3  271.64   19.82
 -24   0  -3  223.11   19.97
 -24   0   3  274.29   17.31
 -24   0   3  253.44   19.83
  24   0  -3  257.86   18.68
 -24   0  -3  249.73   19.40
  24   0   3  301.59   21.73
  24   0  -3  264.22   19.16
  24   0  -3  239.51   19.22
  24   0  -3  248.95   20.01
 -24   0  -3  260.17   20.93
  24   1  -3    0.89   10.39
  24  -1   3    7.94   10.26
  24   1  -3    6.33    9.46
 -24   1   3    5.18    8.14
  24  -1   3    3.05   10.06
 -24   1   3    2.65    8.44
 -24   1   3    2.36    9.50
 -24   1   3   -9.31    8.91
 -24  -1  -3   10.31   10.43
 -24  -1  -3    7.10    7.37
 -24  -1  -3    8.75    9.30
 -24  -1  -3   -9.00    9.45
  24  -1   3    0.02    8.82
  24   1  -3    0.97    8.44
  24  -1   3    7.35    8.28
 -24  -1   3   -6.02    8.70
 -24  -1   3   -3.90    6.37
  24   1   3   -3.80    9.40
  24  -1  -3    5.61    9.86
 -24   1  -3   27.73   10.68
  24   1   3   -4.60    7.96
 -24   1  -3   16.78   10.13
 -24  -1   3    6.85    9.47
 -24   1  -3    3.15    8.02
 -24   1  -3  -13.72    8.03
  24   1   3  -13.38    8.48
  24   1   3    1.30    9.18
  24  -1  -3   -4.67    8.82
  24  -1  -3   -1.17    9.33
  24  -1  -3   -0.86    8.93
 -24   2   3  185.89   19.70
 -24  -2  -3  139.29   18.31
 -24   2   3  172.54   17.43
  24  -2   3  181.90   20.09
 -24   2   3  203.86   21.43
  24  -2   3  206.12   21.62
 -24  -2  -3  208.69   22.04
  24   2  -3  166.44   17.32
 -24   2   3  168.53   17.98
  24  -2   3  219.80   21.47
 -24   2  -3  167.78   18.29
 -24  -2   3  188.37   18.45
  24   2   3  166.44   18.03
  24  -2  -3  179.71   19.91
 -24   2  -3  171.61   18.44
  24   2   3  165.11   18.33
 -24   2  -3  174.09   17.83
 -24   2  -3  203.90   19.99
  24  -2  -3  186.05   20.73
  24   2   3  204.64   19.78
  24  -2  -3  214.46   21.90
 -24  -2   3  201.16   18.76
  24  -2  -3  180.84   19.25
  24   2   3  165.34   18.28
 -24   2  -3  191.37   20.40
 -24   3   3   -2.03   10.62
 -24   3   3   12.87   10.21
 -24   3   3  -20.52    9.54
  24  -3   3    9.20   10.89
  24  -3   3   20.15   11.08
 -24  -3  -3    9.66   12.45
 -24   3   3   15.10   11.32
  24   3  -3   -9.46    8.96
  24  -3   3    9.72   10.96
 -24   3   3   29.71   12.49
 -24  -3  -3    0.47   10.88
  24  -3  -3    6.93   11.11
 -24   3  -3    0.19    9.37
 -24   3  -3   14.14   10.21
 -24  -3   3   16.77    9.74
 -24  -3   3   12.88    9.69
  24  -3  -3   -6.91   10.93
  24  -3  -3   27.65   12.80
  24   3   3   41.83   13.28
 -24   3  -3   12.37   11.84
 -24  -3   3    7.03    9.57
  24  -4   3   72.45   15.74
 -24  -4  -3   49.48   15.53
 -24   4   3   96.62   17.31
 -24  -4  -3   54.20   15.58
  24   4  -3   95.67   14.35
 -24   4   3   90.93   18.08
 -24   4   3   78.73   15.36
  24  -4   3   68.69   15.78
  24  -4   3   84.50   16.69
 -24   4   3   51.87   15.35
 -24  -4   3   59.86   12.12
 -24   4  -3   63.64   13.88
  24  -4  -3   80.81   17.83
 -24   4  -3   69.61   14.21
  24  -4  -3   78.49   17.87
 -24   4  -3   64.30   14.81
 -24  -4   3   46.73   12.43
  24   4   3   92.19   15.19
  24  -4  -3   54.27   15.57
  24   0  -4  344.66   23.02
 -24   0   4  328.67   23.36
 -24   0  -4  326.98   22.27
  24   0   4  352.01   25.07
 -24   0   4  364.93   23.59
 -24   0  -4  346.94   24.24
 -24   0  -4  370.49   21.71
  24   0   4  326.54   21.96
  24   0  -4  359.94   22.14
 -24   0  -4  330.40   24.13
  24   0  -4  326.21   21.29
  24   0   4  371.79   24.48
  24   0   4  341.58   24.66
 -24  -1  -4   15.06   11.60
  24   1  -4    7.26    9.67
 -24   1   4    4.87   10.82
  24  -1   4   21.84   11.44
 -24  -1  -4    8.25   12.82
 -24  -1  -4   -1.79   11.18
  24  -1   4   -4.49   10.53
  24  -1   4   17.98   11.20
 -24   1   4   15.04   11.25
 -24  -1  -4    3.64    7.62
 -24   1  -4   10.46    9.75
  24  -1  -4   15.30   10.46
 -24  -1   4    8.20   10.06
 -24   1  -4    3.55   10.17
  24  -1  -4   -7.13    8.38
  24   1   4   -4.25    9.70
  24  -1  -4   21.85   11.64
  24   1   4   13.70   10.20
 -24  -1   4   15.68   10.47
 -24   1  -4    6.04   10.22
  24   1   4   -1.01    9.70
 -24   1  -4    2.76    9.19
  24  -1  -4   14.43   10.23
  24   1   4    5.28   10.36
 -24  -2  -4  352.49   26.16
 -24   2   4  316.55   24.79
 -24   2   4  340.99   25.69
 -24   2   4  339.11   22.67
  24  -2   4  344.06   24.38
  24   2  -4  360.98   22.44
  24  -2   4  354.51   25.55
 -24   2   4  297.55   20.95
  24  -2   4  276.67   23.35
 -24  -2  -4  340.34   25.97
  24   2   4  350.96   23.14
 -24  -2   4  347.51   22.48
  24  -2  -4  316.70   23.90
 -24   2  -4  337.55   23.28
 -24   2  -4  379.32   26.98
  24  -2  -4  376.74   24.99
 -24   2  -4  284.59   22.37
  24   2   4  363.45   24.30
  24   2   4  335.28   22.79
 -24   2  -4  326.15   22.78
  24  -2  -4  354.99   24.91
 -24  -2   4  312.98   21.77
  24   2   4  296.01   22.12
  24  -2  -4  338.35   25.31
  24  -3   4   32.57   13.82
 -24  -3  -4    4.40   11.65
 -24  -3  -4   63.71   16.37
  24  -3   4   23.94   13.39
 -24   3   4   27.57   13.67
 -24   3   4   23.03   13.67
 -24   3   4   37.79   12.76
  24   3  -4   43.35   12.61
  24  -3   4   30.35   13.27
 -24   3   4   36.87   12.55
  24   3   4   35.94   13.16
 -24   3  -4   24.56   11.40
 -24  -3   4   37.77   11.84
 -24  -3   4   25.41   11.41
  24  -3  -4   37.30   14.52
  24  -3  -4   38.80   14.41
 -24   3  -4   42.30   13.03
 -24   3  -4   26.57   13.78
  24  -3  -4   60.62   15.30
 -24   0  -5  138.56   17.22
  24   0   5  137.16   19.88
 -24   0   5  158.07   19.46
 -24   0  -5  159.32   20.38
 -24   0  -5  154.15   20.29
 -24   0  -5  143.37   19.87
  24   0   5  138.09   20.32
 -24   0   5  150.26   19.73
  24   0   5  143.21   20.28
  24   0  -5  175.85   21.86
 -24   1   5    8.27   12.48
 -24  -1  -5    2.46   11.75
 -24   1   5    9.45   12.41
  24   1  -5   30.42   12.47
 -24  -1  -5    7.65   11.77
  24  -1   5   -0.74   10.94
  24  -1   5   -9.45   11.45
  24  -1   5   17.26   12.87
 -24   1  -5   11.04   10.79
 -24  -1   5    5.61   10.94
 -24   1  -5    5.76   10.90
  24   1   5   12.24   11.93
  24   1   5   17.42   12.24
 -24   1  -5    0.16   10.05
 -24   1  -5   -1.67   10.21
  24  -1  -5   10.48   11.72
  24  -1  -5   25.89   11.76
  24   1   5    2.76   10.97
  24  -1  -5   12.53   10.11
  24  -1  -5    1.96   10.80
 -24  -1   5   15.71   11.67
  24   1   5    4.52   10.55
 -24   2   5  156.71   21.85
 -24  -2  -5  144.96   20.84
  24  -2   5  144.79   20.73
  24  -2   5  147.51   21.43
  24  -2   5  152.30   20.13
 -24  -2  -5  142.43   21.31
 -24   2   5  163.81   21.88
  24   2  -5  165.94   19.55
 -24   2  -5  154.93   19.24
  24  -2  -5  139.77   20.10
  24  -2  -5  135.51   20.09
  24   2   5  184.39   21.36
  24  -2  -5  124.98   19.75
 -24  -2   5  163.99   19.71
  24   2   5  175.11   22.21
 -24   2  -5  160.54   19.78
 -24   2  -5  136.68   22.64
 -24  -2   5  147.60   18.18
  24  -2  -5  152.93   20.01
  24   2   5  183.00   22.29
  24   2   5  159.58   20.62
  24  -3   5   15.20   13.58
  24  -3   5    9.34   12.64
 -24   3   5    3.90   12.72
 -24   3   5   -9.89   13.07
 -24  -3  -5    2.87   12.50
  24  -3   5   30.69   12.81
 -24  -3  -5    5.56   12.37
  24   3  -5  -10.49   10.24
 -24   3   5   -2.47   10.99
 -24   3  -5    5.75   11.36
  24  -3  -5   13.06   13.47
 -24  -3   5   -9.82    9.27
  24  -3  -5   18.07   13.56
  24  -3  -5    1.66   12.44
 -24   3  -5   -0.63   12.80
  24   3   5   -6.97   11.13
 -24   3  -5   -8.82    9.42
 -24  -3   5   -3.44    9.87
 -24   0  -6  312.90   24.95
 -24   0  -6  320.98   25.70
 -24   0  -6  289.39   25.27
 -24   0   6  401.50   28.48
  24   0   6  304.09   26.28
  24   0   6  304.39   26.87
  24   0   6  356.86   27.29
  24   0  -6  354.28   27.27
 -24   0   6  361.89   27.80
 -24   1   6   45.90   15.23
 -24  -1  -6   18.64   13.26
 -24  -1  -6   25.79   13.55
  24  -1   6   23.53   14.21
  24  -1   6   30.40   14.08
  24  -1   6   43.97   16.13
 -24   1   6   49.70   16.79
  24   1  -6   30.33   14.30
 -24   1  -6   21.87   12.61
  24  -1  -6   34.70   15.39
 -24  -1   6   37.41   14.21
  24  -1  -6   25.35   14.27
  24   1   6   34.79   15.54
  24  -1  -6   25.33   14.18
 -24   1  -6   37.20   17.45
 -24  -1   6   37.74   13.98
  24   1   6   25.56   13.67
  24   1   6   37.98   15.44
 -24   1  -6   48.30   14.77
 -25   0   0   12.49   10.20
  25   0   0   25.09    9.68
  25   0   0   14.93    8.52
 -25   0   0    8.31    6.59
  25   0   0    9.46    8.97
 -25   0   0    3.29    9.16
  25   0   0    0.37    8.18
 -25   0   0    4.44    7.35
 -25   1   0  962.60   35.29
 -25  -1   0  982.06   35.41
  25  -1   0  924.53   33.97
  25   1   0  959.87   33.08
  25  -1   0  934.11   35.12
 -25   1   0  944.58   31.86
  25   1   0  883.10   33.11
  25   1   0  914.64   32.22
 -25   1   0  976.51   35.30
  25  -1   0 1008.60   35.08
 -25  -1   0  940.84   28.39
  25   1   0  894.01   32.15
 -25   1   0  908.21   32.24
 -25  -1   0  887.21   34.41
  25  -1   0  950.27   34.03
 -25   2   0   87.41   14.91
 -25   2   0   86.60   13.08
  25  -2   0   87.11   14.44
 -25   2   0   62.41   11.88
 -25  -2   0   95.20   14.43
  25  -2   0   83.26   13.30
  25  -2   0   80.64   14.24
  25  -2   0   73.77   14.41
  25   2   0   95.13   17.47
 -25   2   0   78.62   14.62
  25   2   0   79.18   13.13
  25   2   0   79.23   13.34
 -25  -2   0   86.68   13.67
 -25  -3   0  276.37   20.61
  25  -3   0  270.94   21.72
 -25   3   0  259.80   20.66
 -25   3   0  324.79   21.17
  25   3   0  270.06   19.65
 -25   3   0  297.25   21.89
  25  -3   0  275.92   21.60
  25  -3   0  297.65   23.22
 -25   3   0  291.08   20.41
 -25  -3   0  283.39   20.76
  25   4   0   35.23   11.22
 -25   4   0   29.56   12.02
 -25  -4   0   46.22   12.44
  25  -4   0   34.01   13.50
  25  -4   0   20.68   12.51
 -25   4   0   14.21   11.55
 -25  -4   0   17.01   11.37
  25  -4   0   34.67   13.75
  25  -5   0  256.22   26.79
 -25   0  -1   10.88    9.64
  25   0  -1   13.66    8.97
 -25   0   1   22.92   10.32
  25   0  -1   10.77    8.51
 -25   0   1    0.48    6.50
 -25   0   1    5.53    9.81
  25   0  -1   11.60    8.48
 -25   0   1    4.10    7.92
  25   0  -1    4.37    8.39
  25   0   1    4.88    8.70
  25   0   1   27.00    9.98
  25   0   1    9.16    8.98
 -25   0  -1    1.69    7.49
 -25   0  -1    9.72    9.37
  25   0   1    4.99    9.14
 -25   0  -1    4.76    6.92
 -25  -1  -1  153.27   17.21
  25   1  -1  193.53   16.20
 -25   1   1  222.46   20.76
  25  -1   1  219.20   19.78
  25   1  -1  208.06   16.02
 -25   1   1  204.89   17.98
 -25   1   1  208.02   19.71
  25  -1   1  220.58   20.41
  25   1  -1  188.31   17.73
  25  -1   1  227.46   18.13
  25   1  -1  196.44   15.80
  25  -1   1  181.74   18.56
 -25  -1  -1  173.67   18.21
 -25   1   1  179.38   16.19
 -25  -1  -1  176.19   13.35
  25  -1  -1  193.47   19.03
 -25  -1   1  217.04   17.81
  25   1   1  232.29   20.38
 -25  -1   1  195.98   18.93
 -25   1  -1  206.08   19.42
  25   1   1  205.03   19.04
  25  -1  -1  202.82   19.62
 -25  -1   1  210.18   13.73
  25  -1  -1  208.95   19.89
 -25   1  -1  207.39   20.08
  25   1   1  204.31   18.63
  25  -1  -1  196.44   19.47
 -25   1  -1  207.74   16.14
 -25   1  -1  185.35   16.37
  25   1   1  202.07   18.60
  25   2  -1   -6.32    8.12
 -25  -2  -1    8.51   10.47
 -25   2   1   20.78    9.42
  25  -2   1    9.97    9.90
 -25   2   1   10.37   10.31
  25  -2   1   16.02    9.92
 -25   2   1   12.90    9.26
 -25   2   1   18.83   10.70
 -25  -2  -1   12.16   10.32
  25  -2   1   -0.37    9.00
  25  -2  -1   23.07   11.21
  25   2   1   -0.82    8.51
  25  -2  -1   11.19    9.88
 -25   2  -1   14.98    9.41
  25   2   1   11.28    8.83
 -25   2  -1    5.41    7.82
 -25  -2   1   10.21    9.48
 -25  -2   1   24.22   10.07
 -25   2  -1    8.08    9.80
 -25   2  -1    7.98    9.82
  25  -2  -1   32.36   11.56
  25  -2  -1    6.40    9.28
  25   2   1   13.84    8.97
 -25   2  -1   23.31    9.01
  25  -3   1  163.60   18.97
 -25   3   1  167.52   19.80
 -25   3   1  148.58   17.72
 -25   3   1  131.42   17.54
  25   3  -1  155.00   16.81
 -25   3   1  156.55   13.60
 -25  -3  -1  165.45   18.32
 -25   3   1  151.91   16.78
  25  -3   1  150.15   18.68
 -25  -3  -1  139.85   17.68
  25  -3   1  139.33   17.61
  25  -3  -1  167.30   20.08
 -25  -3   1  163.13   17.72
  25  -3  -1  186.01   21.05
  25  -3  -1  150.61   18.49
  25   3   1  169.34   18.07
 -25   3  -1  151.61   17.05
 -25   3  -1  175.45   18.76
 -25   3  -1  177.06   18.89
 -25  -3   1  174.84   17.88
 -25  -4  -1    3.60   10.71
 -25  -4  -1    1.30   10.37
  25  -4   1    0.13    9.99
 -25   4   1    2.96   10.71
  25  -4   1   10.39   11.43
 -25   4   1   -3.72   10.10
 -25   4   1    6.36    8.32
  25  -4   1   13.38   11.43
  25   4  -1   -3.57    8.97
 -25  -4   1   -2.44    9.71
 -25  -4   1   12.39   10.17
  25   4   1    9.99    9.74
 -25   4  -1   -7.79    9.40
  25  -4  -1    9.34   11.69
  25  -4  -1    1.37   11.39
  25  -4  -1    5.17   11.01
 -25   4  -1    4.46   10.98
 -25   0   2    2.16    6.86
  25   0   2   -3.28    8.18
 -25   0  -2   -1.36    6.87
  25   0   2   -0.53    9.28
  25   0   2    9.60    9.55
  25   0  -2   12.17    8.76
 -25   0  -2    0.23    9.64
  25   0  -2   -2.59    8.37
 -25   0   2   -4.94    8.83
  25   0  -2    9.31    9.85
 -25   0  -2   11.39    8.68
 -25   0  -2   -2.03    9.51
 -25   0   2    1.44    9.12
  25   0  -2   18.59    9.54
 -25   0   2   13.82   10.01
  25   0   2   25.64   10.66
 -25   0   2    4.21    9.52
 -25   1   2  571.79   28.32
  25  -1   2  593.40   28.76
  25   1  -2  615.89   25.77
 -25   1   2  572.20   28.42
 -25  -1  -2  586.97   28.74
 -25   1   2  555.80   25.28
 -25   1   2  602.17   28.43
  25  -1   2  623.24   29.28
  25  -1   2  592.88   28.16
 -25   1   2  623.26   28.97
  25   1  -2  576.75   24.51
 -25  -1  -2  553.93   22.42
 -25  -1  -2  572.82   29.17
  25   1  -2  600.22   26.96
  25  -1   2  595.62   27.47
 -25   1   2  575.59   25.46
 -25   1  -2  589.00   26.78
  25   1   2  598.94   27.10
 -25  -1   2  593.01   22.61
  25   1   2  611.24   27.49
  25   1   2  579.55   27.63
 -25  -1   2  597.62   27.93
  25  -1  -2  632.81   28.85
  25  -1  -2  619.96   28.52
 -25  -1   2  617.11   28.06
  25  -1  -2  550.72   27.54
 -25   1  -2  572.70   25.45
 -25   1  -2  587.71   28.21
  25  -1  -2  600.40   28.22
  25   1   2  572.76   27.09
 -25  -1   2  569.98   27.50
 -25   1  -2  621.82   28.89
 -25  -1   2  562.10   27.40
 -25  -2  -2   14.66   11.18
 -25   2   2   27.59   12.13
 -25   2   2   24.38   10.47
 -25   2   2   50.65   13.21
  25   2  -2   26.24   10.25
 -25   2   2   16.09   11.25
 -25  -2  -2   32.02   12.09
  25  -2   2   22.56   11.09
 -25   2   2   23.84   10.15
  25  -2   2   26.24   11.59
 -25   2   2   34.67   12.60
  25  -2   2   31.99   12.11
  25  -2  -2   37.87   12.43
 -25   2  -2   33.96   11.73
  25   2   2   36.69   11.54
 -25   2  -2   27.46   10.53
  25  -2  -2   31.56   12.28
  25  -2  -2   38.28   12.24
  25   2   2   23.72    9.85
 -25  -2   2   44.08   12.07
 -25   2  -2   36.07   10.91
 -25   2  -2   35.01   11.74
 -25   2  -2   32.04   10.58
  25   2   2   13.33   10.01
 -25  -2   2   45.85   11.85
  25  -2  -2   45.01   12.89
 -25   3   2  277.11   23.70
  25  -3   2  293.31   22.48
 -25   3   2  329.66   22.16
 -25  -3  -2  307.40   23.13
 -25  -3  -2  315.37   23.70
  25  -3   2  266.72   22.98
  25   3  -2  307.87   20.43
 -25   3   2  286.28   21.27
  25  -3   2  289.55   22.32
 -25   3   2  257.77   22.42
  25  -3  -2  272.21   23.22
 -25   3  -2  290.08   20.89
 -25   3  -2  273.29   20.78
  25  -3  -2  305.24   23.69
  25   3   2  294.09   21.11
 -25  -3   2  305.09   20.80
 -25   3  -2  291.00   24.36
  25  -3  -2  297.08   24.44
 -25   3  -2  320.93   22.29
 -25  -3   2  303.38   20.04
 -25  -4  -2   67.61   15.24
  25  -4   2   58.06   14.63
  25  -4   2   60.66   15.30
  25  -4   2   58.69   14.88
 -25   4   2   63.19   12.98
 -25   4   2   51.59   13.43
 -25   4   2   58.78   13.68
  25   4  -2   57.68   12.37
 -25  -4  -2   64.34   15.66
 -25  -4   2   61.89   13.74
 -25   4  -2   78.28   14.11
  25  -4  -2   80.71   16.57
  25  -4  -2   48.45   14.75
 -25   4  -2   70.49   14.83
  25  -4  -2   47.60   15.58
  25   4   2   59.89   13.88
 -25  -4   2   57.09   12.93
  25   0  -3   13.38    9.65
 -25   0   3   12.78    9.92
 -25   0  -3    2.65   10.11
 -25   0   3   -5.07    9.47
  25   0   3    9.08   10.57
  25   0   3   -2.61   10.06
  25   0  -3    3.83    8.18
  25   0   3   -5.21    8.41
 -25   0  -3    5.11    8.96
 -25   0  -3   -0.41    8.08
  25   0   3   -2.02    9.79
 -25   0  -3    6.06   10.15
  25   0  -3   -1.03    8.22
 -25   0   3   15.48    8.38
  25   0  -3   -2.26    9.63
  25  -1   3  106.03   16.74
  25  -1   3   68.30   14.29
 -25   1   3   95.39   13.91
 -25  -1  -3   79.38   15.71
 -25   1   3   94.47   15.69
 -25  -1  -3   93.34   12.02
  25  -1   3  103.37   23.14
  25   1  -3   73.73   13.59
 -25   1   3   85.88   15.72
  25  -1   3  104.90   17.03
 -25  -1  -3   80.78   15.96
  25   1   3   96.04   15.85
  25   1   3  100.07   15.83
 -25  -1   3   91.40   14.73
  25  -1  -3   65.35   14.08
 -25   1  -3   95.60   13.55
  25  -1  -3   78.98   15.34
 -25   1  -3   83.58   14.68
  25   1   3  110.09   16.25
  25  -1  -3   71.68   14.34
 -25   1  -3   93.37   14.23
  25  -1  -3  117.61   16.68
 -25  -1   3   86.01   11.36
  25   1   3   97.72   16.17
 -25  -1   3   70.63   13.85
 -25   1  -3  118.30   16.82
 -25  -2  -3   14.94   11.81
  25  -2   3    6.59   10.17
 -25   2   3   12.01   10.33
 -25   2   3    6.03   11.24
 -25   2   3    2.49    9.01
 -25   2   3   24.30   12.52
 -25  -2  -3   13.92   11.54
  25  -2   3   12.17   11.50
  25  -2   3   17.44   11.17
  25   2  -3    3.19    9.21
  25   2   3   11.85   10.15
  25   2   3   -0.40    8.63
 -25  -2   3    9.62   10.12
 -25   2  -3   -2.34    8.84
 -25   2  -3   -0.18    9.80
  25  -2  -3    4.88    9.22
 -25   2  -3    7.06    9.25
  25  -2  -3    5.97   11.50
 -25  -2   3   12.05    9.78
  25  -2  -3    4.28   10.42
 -25   2  -3   19.96   10.88
 -25   2  -3    9.58    9.89
  25   2   3   -1.33    8.73
 -25  -2   3    3.44    8.95
  25   2   3   13.73   10.90
 -25  -2   3    3.49    9.05
  25  -2  -3   17.37   12.01
 -25   3   3   64.56   15.79
 -25  -3  -3   66.92   15.84
 -25   3   3   92.32   17.62
 -25   3   3   84.58   16.57
  25  -3   3   79.44   15.41
 -25  -3  -3   95.06   18.19
 -25   3   3   77.83   14.54
 -25   3   3   79.17   14.38
  25  -3   3   50.84   14.53
  25  -3   3   70.74   15.05
  25   3  -3   96.07   14.44
 -25   3   3   77.15   16.15
 -25  -3   3   71.11   13.53
  25  -3  -3  101.21   18.25
 -25  -3   3   60.14   13.22
 -25   3  -3   49.60   13.27
 -25   3  -3   60.51   13.88
  25   3   3   69.97   14.59
  25  -3  -3   94.53   17.14
 -25   3  -3   77.82   15.88
  25  -3  -3   51.06   15.76
  25  -4   3    3.89   11.74
 -25   4   3  -10.02   11.98
  25  -4   3  -21.74   10.13
 -25  -4  -3   10.84   13.36
  25  -4   3    3.42   11.68
  25   4  -3   -5.10    9.63
 -25   4   3  -16.23   10.10
 -25   4   3   -7.23   10.38
 -25  -4  -3    2.39   11.82
 -25   4   3  -24.24   10.75
 -25   4   3    4.36    9.98
 -25  -4   3  -16.87    8.65
 -25  -4   3   14.37    9.82
  25   4   3   24.62   11.25
  25  -4  -3   11.26   12.45
  25  -4  -3  -10.67   12.28
 -25   4  -3    6.49   11.27
 -25   4  -3  -19.83    8.92
 -25   4  -3   -2.70   10.81
  25  -4  -3   -2.55   12.25
  25   0  -4   11.11    9.26
  25   0   4   -0.32    9.42
  25   0   4   10.29   10.34
  25   0  -4    6.12    9.47
 -25   0  -4   14.33   12.07
 -25   0  -4  -10.63    7.88
 -25   0  -4   19.77   12.09
  25   0   4   11.39   11.95
 -25   0   4   21.66   11.72
  25   0   4    4.64   11.34
  25   0  -4    2.16    9.92
 -25   0   4   20.27   12.20
 -25   0  -4    2.56    9.85
  25  -1   4  445.30   27.29
  25  -1   4  411.25   26.66
  25   1  -4  454.02   25.61
 -25  -1  -4  392.87   27.49
 -25  -1  -4  412.87   21.99
 -25   1   4  440.44   27.31
 -25  -1  -4  381.09   26.50
 -25   1   4  405.44   26.62
  25  -1   4  461.71   28.63
 -25  -1   4  410.94   25.23
  25  -1  -4  499.37   27.75
 -25   1  -4  430.17   25.35
  25   1   4  439.24   26.09
 -25   1  -4  432.25   26.65
 -25   1  -4  437.06   24.51
  25   1   4  425.36   26.08
  25   1   4  390.36   25.55
  25  -1  -4  429.85   25.76
 -25  -1   4  410.80   25.37
 -25   1  -4  480.25   26.88
  25  -1  -4  427.45   26.48
  25   1   4  424.61   26.32
  25  -1  -4  459.29   26.52
  25   2  -4   24.78   11.42
  25  -2   4   23.57   13.51
 -25   2   4   30.79   11.61
 -25  -2  -4   18.34   12.58
  25  -2   4   27.40   13.12
 -25   2   4   13.24   12.38
 -25   2   4   19.75   13.45
 -25  -2  -4   14.73   12.84
  25  -2   4   13.32   11.58
  25  -2  -4   17.46   11.63
 -25  -2   4   35.69   11.96
  25   2   4   17.32   11.76
 -25   2  -4    7.63   11.99
  25  -2  -4    7.20   10.62
  25   2   4   19.76   12.06
  25  -2  -4   35.35   13.12
  25  -2  -4   31.92   12.92
 -25   2  -4   -3.83    9.64
  25   2   4   15.55   11.14
 -25   2  -4   31.74   12.80
 -25   2  -4   21.46   11.60
  25   2   4   15.97   10.99
 -25  -2   4    4.55   11.02
  25  -3   4  291.71   24.83
 -25  -3  -4  306.08   26.16
  25   3  -4  260.85   20.82
 -25   3   4  293.63   26.93
  25  -3   4  256.62   24.68
 -25   3   4  288.96   22.48
 -25   3   4  305.78   27.88
 -25  -3  -4  303.33   28.92
  25  -3   4  307.67   25.02
 -25   3   4  264.66   24.32
  25  -3  -4  324.03   29.13
  25  -3  -4  287.32   27.45
 -25  -3   4  295.66   21.58
 -25   3  -4  287.17   28.53
  25   3   4  291.61   23.26
 -25   3  -4  316.44   23.37
 -25   3  -4  272.96   24.33
 -25  -3   4  261.79   21.56
 -25  -3   4  270.25   21.31
  25  -3  -4  293.66   27.95
  25   0   5   -7.20   11.42
 -25   0   5  -22.33    9.78
 -25   0  -5    8.54   11.51
 -25   0  -5   26.49   11.31
 -25   0  -5    4.36   10.36
  25   0  -5    0.04   11.32
 -25   0   5    4.07   10.97
  25   0   5   -3.23   11.36
  25   0   5   -7.82   10.79
 -25   0  -5   29.02   12.85
 -25  -1  -5  118.01   19.13
  25  -1   5  112.68   18.92
 -25  -1  -5   99.78   18.66
 -25   1   5  131.28   19.90
  25  -1   5  136.05   20.54
 -25   1   5  121.38   19.13
  25   1  -5  126.58   18.60
  25  -1   5  129.73   20.70
 -25   1  -5  104.02   16.28
 -25   1  -5  107.37   24.27
  25  -1  -5  118.43   18.26
 -25   1  -5   73.14   15.67
  25  -1  -5  159.49   22.86
 -25  -1   5  138.40   19.12
  25   1   5  112.02   18.01
 -25   1  -5  100.00   16.04
  25   1   5  147.92   20.87
 -25  -1   5   97.44   16.78
  25   1   5  139.59   19.99
  25   1   5  134.09   19.61
  25  -1  -5  117.39   18.09
 -25  -2  -5    9.42   12.53
  25  -2   5   12.88   13.06
 -25   2   5   15.67   14.31
  25   2  -5    6.06   10.26
 -25   2   5   29.31   14.68
 -25  -2  -5   -0.42   11.96
  25  -2   5   21.01   14.24
  25  -2   5   12.54   12.44
  25  -2  -5   -0.80   12.04
  25  -2  -5   -4.93   10.91
 -25   2  -5    6.51   13.53
 -25  -2   5   14.65   11.62
  25   2   5   -1.19   11.16
 -25  -2   5    7.71   11.74
  25  -2  -5    7.82   11.93
  25  -2  -5    4.89   11.61
  25   2   5    9.54   14.38
 -25   2  -5   10.96   11.08
  25   2   5   11.09   11.05
 -25   2  -5   -6.76   10.98
  25   2   5   19.78   12.02
 -25   0  -6    2.18   11.42
 -25   0   6   23.47   14.49
 -25   0  -6   -3.49   11.02
  25   0  -6   -6.12   12.30
  25   0   6   -2.05   11.84
  25   0   6    8.50   13.01
 -25   0  -6   -0.35   11.22
  26   0   0   96.35   15.17
 -26   0   0   83.13   11.46
  26   0   0   72.42   13.38
 -26   0   0   88.52   14.97
  26   0   0   88.82   13.70
  26   0   0   74.05   13.18
 -26   0   0   61.24   10.82
 -26   0   0   54.04   12.97
 -26   1   0   21.56    9.23
 -26  -1   0   19.36   10.69
 -26  -1   0   29.15   11.25
  26  -1   0   37.28   10.95
  26   1   0   41.59   11.39
  26  -1   0   30.51   10.85
  26  -1   0   51.44   13.24
  26  -1   0   26.25   10.72
 -26   1   0    6.33   10.73
 -26  -1   0   28.06    7.67
  26   1   0   27.53    9.58
 -26   1   0   38.39   11.93
 -26   1   0   40.54    9.71
  26   1   0   27.25    9.70
  26   1   0   36.51   10.56
 -26   2   0  481.95   24.48
 -26  -2   0  494.89   25.89
  26  -2   0  459.45   25.28
 -26   2   0  500.72   27.26
  26  -2   0  502.27   26.06
 -26  -2   0  477.64   25.94
 -26   2   0  482.68   24.11
  26   2   0  459.77   23.89
  26  -2   0  461.65   26.30
 -26   2   0  451.09   25.81
  26  -2   0  436.61   25.80
  26  -3   0   59.48   15.01
  26  -3   0   43.81   13.40
 -26  -3   0   50.05   13.02
 -26   3   0   61.28   13.73
 -26   3   0   65.03   13.29
 -26  -3   0   70.08   14.03
  26   3   0   50.18   12.39
 -26   3   0   56.76   13.09
 -26   3   0   45.05   13.11
  26  -3   0   60.31   14.14
  26  -4   0  410.69   26.62
 -26  -4   0  381.60   24.32
  26  -4   0  426.80   27.30
 -26  -4   0  414.05   25.44
 -26   4   0  375.18   25.55
 -26   4   0  431.94   25.56
  26   4   0  374.47   23.08
  26  -4   0  397.05   27.62
  26   0  -1  166.79   18.27
  26   0   1  152.05   17.74
  26   0  -1  143.40   16.88
 -26   0   1  137.92   17.36
 -26   0   1  135.73   16.97
  26   0  -1  164.21   17.19
 -26   0  -1  140.87   15.70
 -26   0  -1  136.04   13.69
 -26   0  -1  166.17   18.47
  26   0   1  133.12   16.96
 -26   0   1  136.72   13.85
  26   0   1  126.17   16.24
 -26   0  -1  163.58   18.42
  26   0  -1  195.04   18.73
  26   0   1  125.82   15.86
  26   1  -1   16.38    9.26
  26   1  -1    6.88   10.17
 -26   1   1    4.14    7.87
 -26   1   1   14.85   11.39
 -26  -1  -1    5.67    9.44
 -26   1   1    3.53    9.54
  26  -1   1   16.03   10.18
  26  -1   1    9.59   10.20
 -26   1   1    3.93    9.73
  26  -1   1   10.72   10.22
 -26  -1  -1   22.07    7.76
  26   1  -1    4.90    8.30
 -26  -1  -1   19.81   10.46
  26  -1   1   13.19   10.31
  26   1  -1   16.01    8.97
 -26  -1   1   24.62    7.52
  26  -1  -1    6.29    9.93
  26   1   1    9.29    9.21
  26   1   1    6.53    8.75
  26  -1  -1    4.08    9.78
  26   1   1    6.00    9.68
 -26   1  -1    2.32    8.12
  26   1   1   21.22    9.82
  26  -1  -1   18.50   10.27
 -26  -1   1   14.10   10.34
 -26   1  -1    4.29    9.95
 -26  -1   1   25.52   10.55
 -26   1  -1    5.91    8.78
 -26   1  -1   10.79   10.54
  26  -1  -1   10.71    9.92
  26  -2   1  131.04   17.06
 -26  -2  -1  137.08   17.89
  26  -2   1  134.30   17.94
  26   2  -1  174.73   18.31
 -26   2   1  119.18   15.66
 -26   2   1  148.75   18.60
  26  -2   1  103.12   15.77
 -26   2   1  116.92   17.44
 -26   2   1  134.23   15.82
 -26  -2  -1  105.70   16.50
  26  -2  -1  131.74   18.78
  26   2   1  130.32   15.27
  26  -2  -1   99.23   16.47
 -26   2  -1  163.22   18.25
  26   2   1  146.38   16.33
 -26   2  -1  118.27   16.44
  26  -2  -1  116.10   17.34
 -26  -2   1  125.97   15.84
 -26  -2   1  132.27   16.60
  26   2   1  123.06   15.78
 -26   2  -1  115.46   14.88
 -26   2  -1  137.65   17.17
  26  -2  -1  156.82   19.01
 -26  -3  -1    7.48   10.70
 -26   3   1   10.82   11.19
 -26   3   1   -7.88    6.18
  26   3  -1   -1.99    8.52
  26  -3   1   -0.12   10.42
 -26   3   1    0.52    9.26
  26  -3   1    3.07   10.74
 -26   3   1   -5.77   10.01
 -26   3   1   12.21   10.42
  26  -3   1   -0.19   10.20
 -26  -3  -1    7.12   10.56
  26  -3  -1   -2.30   10.27
 -26  -3   1   11.02   10.21
 -26   3  -1    5.38   10.12
  26  -3  -1  -11.63    9.49
 -26   3  -1   12.03   10.29
 -26  -3   1    7.98   10.00
  26  -3  -1   -2.91   11.79
 -26   3  -1   14.44    9.91
  26   3   1    9.98    9.87
 -26  -4  -1   63.19   14.71
  26  -4   1   59.92   16.32
 -26   4   1   57.30   15.10
  26  -4   1   58.52   14.52
 -26   4   1   81.76   15.25
 -26  -4  -1   61.67   14.13
  26   4  -1   71.21   13.48
  26  -4   1   52.72   14.55
 -26   4   1   47.77   11.58
 -26  -4   1   68.94   14.02
  26  -4  -1   54.06   15.20
 -26  -4   1   53.56   13.38
  26  -4  -1   85.35   16.66
 -26   4  -1   64.16   14.61
  26   4   1   70.94   14.26
  26  -4  -1   46.51   15.91
 -26   4  -1   67.75   14.53
  26   0  -2  455.57   23.23
 -26   0  -2  427.84   25.42
  26   0   2  425.50   24.74
  26   0   2  447.53   25.44
 -26   0  -2  382.77   23.12
 -26   0   2  397.66   24.89
  26   0  -2  476.21   24.99
 -26   0   2  413.38   25.23
 -26   0  -2  472.56   21.99
  26   0   2  408.12   23.60
 -26   0   2  453.81   21.80
 -26   0   2  410.05   24.61
 -26   0  -2  449.27   26.33
  26   0  -2  467.68   25.39
  26   0   2  446.28   25.26
 -26   0   2  440.21   24.89
  26   0  -2  442.24   24.34
 -26   1   2    3.58   10.67
 -26   1   2   22.33    9.64
 -26   1   2   18.30    9.14
 -26   1   2   19.21   11.10
  26  -1   2   17.55   10.35
  26  -1   2   20.28   10.67
  26  -1   2   13.68    9.27
  26   1  -2   12.61    8.44
  26   1  -2   21.84    9.50
 -26   1   2   41.30   12.78
 -26  -1  -2   16.73   11.05
  26  -1   2   31.11   11.56
 -26  -1  -2   17.08   10.54
 -26   1   2   24.31   12.06
 -26  -1  -2   15.55    7.55
  26   1  -2    6.08    9.40
  26   1   2   21.22   10.44
  26  -1  -2   18.91   10.49
 -26   1  -2   29.97   10.50
 -26   1  -2   11.27    8.25
  26   1   2   13.17   10.01
 -26  -1   2   18.63   10.63
 -26  -1   2   21.61   10.41
 -26   1  -2   -2.81    9.72
  26   1   2   18.94    9.76
  26   1   2   26.82   10.83
  26  -1  -2   22.30   11.40
  26  -1  -2   -0.64    9.19
  26  -1  -2   20.31   10.99
 -26  -1   2   17.39    7.43
 -26   1  -2   10.81   10.84
 -26   2   2  503.01   25.56
 -26   2   2  495.17   25.39
 -26  -2  -2  493.32   27.97
 -26   2   2  497.20   28.05
  26   2  -2  496.27   24.91
  26  -2   2  489.42   27.06
  26  -2   2  477.28   26.75
 -26   2   2  533.74   28.62
 -26   2   2  498.78   28.89
 -26  -2  -2  484.12   27.30
  26  -2   2  534.11   27.76
  26  -2  -2  492.44   27.97
 -26   2  -2  498.42   26.13
 -26   2  -2  499.99   25.68
  26   2   2  502.07   26.06
  26  -2  -2  472.40   26.69
 -26   2  -2  481.54   26.29
 -26  -2   2  469.59   25.59
  26   2   2  453.16   24.55
  26  -2  -2  520.74   28.43
 -26  -2   2  446.66   25.09
  26   2   2  475.90   24.72
 -26   2  -2  515.05   27.16
  26  -2  -2  531.56   28.86
 -26   2  -2  453.61   24.36
 -26   3   2   60.31   14.98
  26   3  -2   39.54   12.01
  26  -3   2   41.63   13.70
 -26   3   2   57.25   12.87
 -26   3   2   40.97   12.87
 -26   3   2   62.47   15.08
 -26  -3  -2   46.18   13.85
  26  -3   2   60.13   14.45
 -26  -3  -2   42.04   13.39
  26  -3   2   49.20   12.94
 -26   3  -2   42.01   12.63
  26  -3  -2   58.51   15.51
  26  -3  -2   56.23   15.12
  26  -3  -2   68.60   15.69
 -26  -3   2   50.65   12.15
  26   3   2   52.90   13.21
 -26   3  -2   44.73   12.19
 -26  -3   2   37.07   12.10
 -26   3  -2   42.73   12.91
  26   4  -2  479.64   24.63
 -26   4   2  516.00   26.32
  26  -4   2  480.42   28.94
  26  -4   2  539.58   30.46
  26  -4   2  544.26   30.82
 -26  -4  -2  489.61   30.50
 -26   4   2  503.70   28.90
 -26   4   2  502.17   29.69
 -26  -4  -2  472.41   29.80
  26  -4  -2  494.25   31.36
  26  -4  -2  535.07   31.53
 -26   4  -2  523.33   28.07
  26  -4  -2  523.41   33.00
 -26  -4   2  489.25   25.90
 -26   4  -2  522.85   29.27
 -26  -4   2  458.42   26.16
  26   4   2  518.61   27.54
  26   0   3  104.22   15.44
 -26   0   3  137.91   17.67
  26   0  -3  147.61   16.87
 -26   0   3  114.40   16.76
 -26   0  -3  124.46   14.81
  26   0  -3  157.63   17.40
 -26   0  -3  148.60   18.71
  26   0   3   99.97   16.78
 -26   0  -3  135.41   18.56
 -26   0   3  137.07   14.66
  26   0   3  115.81   17.43
 -26   0  -3  178.86   19.31
  26   0  -3  105.34   15.90
  26   0   3  131.82   18.40
  26   0  -3  145.93   17.24
 -26  -1  -3    7.53    7.87
  26   1  -3    5.03    9.56
 -26  -1  -3   29.27   12.38
  26  -1   3    2.08   10.34
  26  -1   3   16.84   11.16
 -26   1   3    4.52   11.22
 -26  -1  -3   -3.82   10.45
  26  -1   3   22.34   11.74
 -26   1   3  -17.07    9.93
 -26   1   3    9.50    9.13
 -26  -1   3   -0.74    7.00
  26   1   3   10.35    9.94
  26   1   3    4.45   10.76
  26  -1  -3   25.04   11.54
  26  -1  -3    9.23   10.50
 -26  -1   3    3.39   10.10
 -26   1  -3    9.49   10.37
 -26   1  -3   18.07   11.03
  26   1   3    6.08   10.43
 -26  -1   3    3.93   10.11
 -26   1  -3   14.75    9.52
  26  -1  -3   13.58   10.59
  26   1   3   11.30   10.71
 -26   1  -3   12.24   10.79
  26  -1  -3    9.93   10.22
 -26  -2  -3   52.79   14.80
  26  -2   3   65.89   14.90
  26   2  -3   69.61   13.70
 -26  -2  -3   40.28   14.26
 -26   2   3   54.23   13.32
  26  -2   3   63.08   14.83
 -26   2   3   53.78   15.08
 -26   2   3   62.93   13.41
 -26   2   3   78.81   16.94
  26  -2   3   70.02   15.23
 -26   2   3   76.08   15.84
 -26   2  -3   61.75   13.29
  26   2   3   65.61   14.47
 -26   2  -3   71.91   14.74
 -26   2  -3   81.50   14.96
  26  -2  -3   61.69   15.60
 -26   2  -3   67.08   14.05
 -26  -2   3   63.32   13.21
  26   2   3   57.64   13.82
 -26  -2   3   45.32   12.53
  26  -2  -3   85.30   17.91
  26   2   3   60.86   13.73
 -26  -2   3   60.32   13.69
  26  -2  -3   60.16   14.89
  26  -2  -3   62.91   16.01
 -26  -2   3   66.92   13.78
 -26   2  -3   43.54   12.48
 -26  -3  -3   45.41   14.88
 -26   3   3    3.64   11.91
 -26   3   3   19.26   11.40
 -26   3   3   12.32   12.57
 -26  -3  -3    4.40   12.78
 -26   3   3    9.86   12.96
  26  -3   3   22.61   12.02
 -26   3   3   13.58   14.06
  26  -3   3    5.78   10.92
  26   3  -3   -3.20    9.26
 -26   3   3   16.14   11.81
  26  -3   3    5.77   11.62
  26  -3  -3   22.64   12.99
 -26   3  -3   13.78   10.74
  26   3   3   10.84   11.43
 -26   3  -3   29.17   11.50
  26  -3  -3   10.60   13.18
 -26  -3   3   26.90   11.58
 -26  -3   3   -4.90    9.42
  26  -3  -3   -0.51   11.55
 -26   3  -3   24.38   12.44
 -26   4   3   43.82   20.68
 -26   4   3   82.23   16.77
  26  -4   3   53.26   15.69
 -26   4   3   68.17   15.40
 -26  -4  -3   47.92   16.04
 -26   4   3   33.93   20.44
  26   4  -3   44.01   12.48
  26  -4   3   44.78   14.93
 -26  -4  -3   74.63   16.99
  26  -4   3   65.18   15.54
 -26   4   3   97.08   15.66
 -26  -4   3   70.33   14.59
  26   4   3   66.44   15.06
 -26   4  -3   39.98   13.12
 -26  -4   3   63.00   13.27
  26  -4  -3   67.99   18.57
 -26   4  -3   59.93   15.12
 -26   4  -3   26.91   13.72
  26  -4  -3   46.73   15.88
  26  -4  -3   48.78   16.30
 -26   0   4  340.03   24.41
 -26   0   4  377.32   26.12
 -26   0  -4  375.90   24.71
  26   0   4  322.21   25.57
  26   0  -4  375.69   24.90
 -26   0  -4  310.53   24.56
  26   0   4  347.11   26.18
  26   0   4  333.16   24.83
  26   0   4  358.36   23.87
 -26   0  -4  324.93   21.12
 -26   0  -4  316.57   24.85
  26   0  -4  352.17   22.85
  26   0  -4  318.06   22.94
 -26  -1  -4   12.47   12.65
  26  -1   4    7.72   12.13
  26   1  -4   13.92   11.04
 -26   1   4    7.50    9.60
  26  -1   4   10.28   11.90
  26  -1   4   13.87   11.90
 -26  -1  -4   -2.44   11.69
 -26   1   4   16.63   12.69
 -26  -1  -4   20.24    9.17
 -26   1   4   11.90   13.03
  26  -1  -4    4.30   10.79
  26  -1  -4   28.21   12.04
 -26   1  -4    1.36   11.33
  26   1   4   12.99   12.19
  26  -1  -4    7.03   11.08
 -26   1  -4    8.16   10.85
  26   1   4   18.33   12.25
  26   1   4   17.75   12.47
 -26  -1   4   15.44   11.32
  26  -1  -4   24.81   12.06
  26   1   4   23.83   12.47
 -26  -1   4   26.45   12.14
 -26   1  -4   22.26   11.02
 -26   1  -4   22.08   10.55
 -26   2   4  349.98   23.56
 -26  -2  -4  342.69   26.26
  26   2  -4  307.52   22.89
 -26   2   4  349.91   26.95
  26  -2   4  326.94   26.42
 -26  -2  -4  334.94   26.82
  26  -2   4  289.61   24.54
  26  -2   4  298.58   25.06
 -26   2   4  321.90   26.00
  26  -2  -4  290.52   24.53
 -26   2  -4  326.61   26.33
  26  -2  -4  336.66   25.46
 -26  -2   4  293.15   22.54
 -26   2  -4  331.53   23.86
  26   2   4  347.45   24.32
 -26   2  -4  326.60   24.48
  26  -2  -4  355.76   26.14
  26   2   4  335.09   24.26
  26  -2  -4  328.15   24.94
  26   2   4  294.19   23.43
 -26   2  -4  338.61   24.47
 -26  -2   4  290.46   23.23
 -26  -3  -4   71.74   17.48
 -26   3   4   44.57   14.59
 -26   3   4   55.48   16.31
 -26   3   4   40.88   13.62
  26  -3   4   47.61   15.03
 -26   3   4   42.67   15.87
  26  -3   4   25.39   13.40
 -26  -3  -4   53.64   15.91
  26   3  -4   32.43   12.93
  26  -3   4   38.71   14.41
 -26   3  -4   63.12   14.37
  26  -3  -4   31.10   15.11
 -26  -3   4   39.88   13.14
  26  -3  -4   77.46   18.13
 -26  -3   4   37.60   13.14
 -26   3  -4   29.88   14.71
 -26  -3   4   41.15   13.30
 -26  -3   4   39.35   12.76
 -26   3  -4   46.75   13.82
  26  -3  -4   46.24   15.85
  26   3   4   49.09   15.10
 -26   0   5   72.12   16.23
 -26   0  -5   81.65   14.84
  26   0   5   77.00   17.41
  26   0   5  110.18   18.71
 -26   0  -5   81.71   17.11
 -26   0  -5   90.01   17.68
 -26   0  -5   91.91   17.72
  26   0   5   75.01   17.26
  26   0  -5   74.44   16.58
 -26   0   5   60.79   15.35
  26  -1   5    4.37   12.69
 -26  -1  -5    4.59   12.13
  26  -1   5    2.74   12.98
  26   1  -5   19.30   12.68
 -26   1   5   10.48   12.44
 -26  -1  -5    5.46   12.05
 -26   1   5   11.89   13.30
  26  -1   5   13.32   13.07
  26   1   5   -0.18   10.71
  26  -1  -5   14.62   12.92
  26  -1  -5   26.77   12.94
 -26  -1   5   10.79   11.95
 -26  -1   5   -5.36   10.86
 -26   1  -5   19.43   11.89
  26  -1  -5  -10.81   10.36
 -26   1  -5   11.51   11.31
  26   1   5    2.06   11.68
  26   1   5   -2.52   10.59
 -26   1  -5    8.41   11.43
  26   1   5    5.75   12.21
 -26   2   5   92.66   19.05
  26  -2   5   68.17   17.70
 -26  -2  -5   64.46   17.86
  26   2  -5   85.33   16.21
  26  -2   5   62.61   16.11
 -26   2   5  103.69   19.73
  26  -2   5   55.37   16.42
 -26  -2  -5   76.29   18.35
  26  -2  -5   59.48   15.81
  26  -2  -5   42.14   16.15
 -26   2  -5   54.47   15.83
 -26   2  -5   72.80   15.71
  26  -2  -5   48.91   15.54
 -26  -2   5   73.28   15.96
  26   2   5   74.51   16.89
  26   2   5   76.42   16.37
  26   2   5   77.84   15.78
  26  -2  -5   71.98   16.90
 -26   2  -5   67.29   17.56
 -26  -2   5   69.53   15.83
 -27   0   0  -11.69    9.08
  27   0   0   15.89   10.58
 -27   0   0    0.06    7.52
 -27   0   0    2.74    7.03
  27   0   0    5.10    8.58
 -27   0   0    4.94   10.11
  27   0   0   -9.00    8.06
  27   0   0   -7.64    8.20
  27   1   0  603.90   27.06
  27  -1   0  594.65   28.40
  27  -1   0  639.54   29.29
  27  -1   0  620.01   28.97
 -27   1   0  608.97   26.08
  27   1   0  663.12   27.54
 -27   1   0  599.68   29.63
  27  -1   0  598.80   28.54
 -27  -1   0  604.26   29.07
  27   1   0  539.86   26.69
 -27   1   0  593.20   29.06
 -27   1   0  651.14   27.43
  27   1   0  566.15   26.56
 -27  -1   0  602.42   28.75
 -27  -1   0  600.89   22.45
  27  -2   0   37.23   12.43
 -27  -2   0   56.51   12.83
 -27  -2   0   34.65   11.87
 -27   2   0   38.05   12.70
 -27   2   0   48.35   11.73
  27  -2   0   31.51   12.37
  27  -2   0   52.53   13.35
 -27   2   0   39.06   11.14
  27   2   0   27.74   10.55
 -27   2   0   41.83   13.07
 -27  -3   0  223.49   21.30
  27  -3   0  238.41   24.09
 -27   3   0  190.22   19.92
 -27   3   0  215.45   23.62
  27  -3   0  203.91   22.65
  27   3   0  215.33   20.39
 -27  -3   0  220.16   21.62
  27  -3   0  203.37   21.76
 -27   3   0  171.32   18.81
 -27   3   0  243.76   23.60
 -27   4   0   46.75   14.19
  27   4   0   50.00   13.11
  27  -4   0   47.90   14.99
 -27  -4   0   34.57   12.76
 -27  -4   0   59.16   14.24
  27  -4   0   64.01   16.17
 -27   4   0   30.53   12.21
  27  -4   0   47.63   14.86
 -27   0   1   -4.10    7.11
  27   0   1    7.67    9.51
  27   0   1    2.34    9.15
 -27   0   1    6.84    9.82
 -27   0  -1    8.65    8.69
  27   0  -1    4.04    8.81
  27   0  -1   -5.03    8.13
  27   0   1   -4.00    9.52
 -27   0  -1    4.82   10.06
 -27   0   1   19.96   10.78
 -27   0  -1   13.24    7.74
 -27   0  -1  -11.86    9.02
  27   0  -1    9.72    9.05
  27   0   1   -2.79    9.19
  27   0  -1    1.40    8.79
  27  -1   1   27.45   11.34
  27  -1   1   49.66   13.04
  27   1  -1   37.23   11.62
  27  -1   1   49.21   12.87
 -27   1   1   53.40   11.68
 -27   1   1   41.87   13.29
 -27  -1  -1   48.09   12.79
  27   1  -1   58.92   12.10
 -27   1   1   47.74   10.85
 -27  -1  -1   51.84    9.52
 -27   1   1   34.35   12.33
 -27  -1  -1   39.30   12.39
  27   1  -1   32.66   17.13
  27   1  -1   36.66   10.85
  27  -1   1   56.02   13.13
 -27  -1   1   31.20   12.32
 -27  -1   1   38.76    8.63
 -27   1  -1   30.88   12.57
  27  -1  -1   40.16   12.84
  27  -1  -1   47.51   12.49
 -27  -1   1   60.26   13.42
  27   1   1   46.32   11.83
  27  -1  -1   43.38   12.70
  27   1   1   36.67   12.82
  27   1   1   49.30   11.80
  27   1   1   51.30   12.59
 -27   1  -1   58.97   13.87
  27  -1  -1   52.49   13.13
 -27   1  -1   39.05   11.15
 -27   1  -1   16.67    9.49
  27  -2   1  -10.16    9.59
 -27   2   1    2.48   10.51
  27  -2   1   -6.54    9.57
 -27   2   1   14.51    9.49
  27   2  -1    8.34   10.06
 -27  -2  -1    1.73   10.20
 -27   2   1    5.39   11.24
  27  -2   1    4.19   10.07
 -27   2   1   -6.75    8.80
 -27  -2  -1   -8.00    9.59
 -27  -2   1   -2.33    9.57
 -27   2  -1  -11.39    9.45
  27   2   1   -3.82    8.86
 -27   2  -1   -0.73    8.81
 -27   2  -1    7.26   10.98
  27  -2  -1    5.04    9.60
  27   2   1   20.92   10.94
  27  -2  -1   15.79   11.64
  27   2   1    7.47   10.07
  27  -2  -1    0.38   10.98
  27  -2  -1    1.41   10.88
 -27  -2   1   -7.75    8.94
 -27   2  -1   -3.24    8.35
 -27  -3  -1   25.35   11.75
 -27   3   1   12.14   10.12
 -27   3   1   12.25   11.48
 -27  -3  -1   -3.93   11.04
 -27   3   1   18.73   12.09
 -27   3   1   24.67   11.87
  27  -3   1   18.84   11.98
  27  -3   1   -0.56   10.16
  27   3  -1   18.93   10.56
  27  -3   1   25.96   12.57
 -27  -3   1    7.03   10.40
  27   3   1    3.42   10.32
 -27   3  -1   15.62   10.44
  27  -3  -1   44.37   14.45
 -27  -3   1   26.10   11.58
 -27   3  -1   11.01   11.65
 -27   3  -1   37.28   12.77
  27  -3  -1   21.51   12.63
  27  -3  -1    2.19   11.65
 -27  -4  -1   -9.39   10.46
 -27   4   1   28.79   13.77
  27   4  -1   21.17   10.96
  27  -4   1   30.92   14.04
  27  -4   1   17.17   12.08
  27  -4   1    7.88   11.56
 -27   4   1    1.40   11.10
 -27  -4  -1    4.57   11.32
  27  -4  -1   16.07   13.10
  27   4   1   -7.53    9.95
  27  -4  -1   -9.74   12.34
 -27  -4   1   10.76   11.45
 -27   4  -1    4.45   11.29
  27  -4  -1   36.57   14.82
 -27   4  -1    7.63   10.73
 -27  -4   1    4.52   11.00
 -27   0  -2    6.69    9.26
  27   0  -2   -7.46    9.17
 -27   0  -2    5.68    7.33
  27   0   2    0.63   10.30
  27   0  -2    1.73    8.71
  27   0  -2   14.56    9.51
  27   0   2    5.50    9.77
  27   0   2   17.85   10.67
 -27   0  -2   13.17   11.31
 -27   0   2   15.00    8.38
 -27   0   2    3.43    9.96
  27   0  -2   -5.85    8.22
  27   0   2   13.19   10.44
 -27   0   2    4.07   10.08
 -27   0   2    4.96   10.69
 -27   0  -2  -12.94    9.76
  27  -1   2  777.21   32.45
 -27   1   2  745.53   34.07
 -27  -1  -2  714.93   26.70
 -27  -1  -2  739.92   33.31
  27  -1   2  769.71   33.72
  27   1  -2  716.53   29.34
 -27  -1  -2  754.87   34.39
 -27   1   2  724.07   33.55
  27  -1   2  754.54   33.33
  27   1  -2  701.30   31.38
 -27   1   2  714.46   33.65
 -27   1   2  805.81   30.70
 -27   1   2  763.27   30.64
  27   1  -2  689.58   28.62
  27  -1   2  781.83   33.53
  27  -1  -2  755.94   32.31
 -27   1  -2  752.68   32.94
  27  -1  -2  780.89   33.00
  27   1   2  713.65   31.50
 -27   1  -2  795.84   32.13
  27  -1  -2  709.62   32.07
 -27  -1   2  764.65   32.81
  27   1   2  762.54   32.08
  27   1   2  784.85   32.77
 -27  -1   2  737.55   32.58
 -27  -1   2  730.70   26.50
  27   1   2  769.30   32.40
 -27   1  -2  769.90   30.58
  27  -1  -2  761.94   32.73
 -27   1  -2  773.61   33.57
  27  -2   2   44.75   13.66
 -27   2   2   22.32   12.78
 -27   2   2   35.06   14.11
  27   2  -2   35.11   11.73
  27  -2   2   32.16   12.35
 -27   2   2   37.68   11.47
  27  -2   2   49.42   14.04
 -27  -2  -2   23.09   11.32
 -27  -2  -2   23.14   12.11
 -27   2   2   22.82   11.05
 -27   2  -2   13.68   10.93
 -27   2  -2   33.65   10.86
 -27  -2   2   24.60   11.72
 -27   2  -2   33.46   12.59
  27   2   2   38.94   11.46
 -27  -2   2   33.66   11.59
 -27   2  -2   26.06   11.85
  27  -2  -2   44.18   13.06
  27   2   2   33.01   11.04
  27  -2  -2   21.50   13.02
  27  -2  -2   21.37   12.09
  27  -2  -2   53.91   13.85
  27   2   2   20.44   11.32
 -27   2  -2   29.04   11.02
 -27   3   2  347.80   25.37
  27  -3   2  307.42   25.14
  27  -3   2  336.20   24.74
 -27   3   2  352.94   25.57
 -27  -3  -2  306.77   25.23
 -27   3   2  347.18   23.84
  27  -3   2  310.86   24.62
 -27  -3  -2  328.64   25.31
 -27   3   2  312.48   23.23
  27   3  -2  334.62   22.33
 -27   3  -2  319.43   23.37
 -27   3  -2  331.04   23.56
  27  -3  -2  319.91   26.06
 -27  -3   2  341.44   22.72
 -27  -3   2  346.84   22.59
  27   3   2  342.51   23.70
  27  -3  -2  299.27   26.45
  27  -3  -2  321.72   26.00
  27   4  -2   27.20   11.43
  27  -4   2   36.14   14.25
 -27  -4  -2   25.01   14.06
  27  -4   2   23.44   13.36
  27  -4   2   56.51   15.79
 -27  -4  -2   42.14   15.30
 -27   4   2   54.49   12.18
 -27   4   2   24.82   12.93
 -27   4   2   74.28   16.80
 -27  -4   2   47.63   13.30
 -27  -4   2   30.01   12.02
  27  -4  -2   51.42   16.15
 -27   4  -2   21.10   12.13
  27   4   2   45.21   13.23
  27  -4  -2   25.88   15.51
 -27   4  -2   33.34   13.22
  27  -4  -2   16.93   12.77
  27   0  -3    3.48    9.42
  27   0  -3    1.70    9.34
  27   0  -3    6.40   11.28
 -27   0   3    2.24   10.72
 -27   0   3   10.91   10.74
  27   0   3    1.29    9.37
  27   0   3   -2.68   10.68
 -27   0  -3    1.07    9.93
  27   0  -3   -5.73    8.03
 -27   0  -3    2.28   10.76
  27   0   3   -4.55   10.27
  27   0   3   -2.01   10.44
 -27   0   3    4.40    7.94
 -27   0  -3    6.13    8.25
 -27   0  -3   12.60   11.64
 -27   0   3   11.40   11.24
 -27   1   3   73.67   13.50
 -27  -1  -3   71.82   15.54
 -27  -1  -3   78.59   11.84
  27  -1   3   93.63   16.73
  27  -1   3  102.59   16.66
 -27  -1  -3   78.25   17.06
 -27   1   3   98.80   16.97
  27  -1   3   85.39   16.27
  27   1  -3   71.93   14.75
 -27   1   3   80.50   15.93
 -27   1   3   77.14   16.61
 -27   1  -3   68.91   13.33
 -27   1  -3   47.76   13.12
  27   1   3   74.39   15.62
 -27  -1   3   68.79   14.83
  27  -1  -3   67.38   15.10
  27   1   3   74.55   14.43
 -27  -1   3   68.49   14.66
 -27  -1   3   96.08   16.41
  27   1   3   95.34   15.96
 -27   1  -3   53.03   14.43
 -27  -1   3   73.61   11.62
  27   1   3   73.77   15.55
 -27  -1   3   72.93   15.21
 -27   1  -3   90.92   15.01
  27  -1  -3   71.59   15.01
  27  -1  -3   88.61   17.06
  27  -1  -3   73.03   15.39
  27  -2   3    6.42   11.82
 -27   2   3  -11.14   10.45
 -27   2   3   22.88   13.15
 -27   2   3    0.51    9.80
 -27   2   3    5.46   12.27
 -27   2   3    1.42   10.07
 -27   2   3  -11.03   10.59
  27  -2   3   -6.07   10.81
 -27  -2  -3   -9.75   10.96
  27  -2   3    6.92   10.93
 -27  -2  -3   17.49   12.73
  27   2  -3   14.15   10.88
 -27  -2   3   20.42   11.80
 -27  -2   3   -3.09   10.43
 -27   2  -3    3.94   16.33
 -27   2  -3    5.62   10.44
  27   2   3   -2.96   10.08
  27   2   3   17.36   11.30
  27  -2  -3    9.89   11.71
  27  -2  -3    9.16   11.31
  27   2   3   12.48   10.20
 -27  -2   3    4.82   10.26
 -27   2  -3   -1.15    9.60
 -27   2  -3   -2.45    9.46
  27  -2  -3  -12.49   10.13
 -27   2  -3    2.67   10.36
  27  -2  -3   -1.73   11.14
 -27  -2   3   13.88   11.02
 -27   3   3  111.25   18.69
 -27   3   3  105.79   18.36
 -27  -3  -3  101.72   18.28
 -27   3   3   61.33   16.92
 -27   3   3   59.30   17.00
  27  -3   3   61.83   15.59
 -27  -3  -3   89.28   18.32
  27   3  -3   81.04   15.01
 -27   3   3   79.12   16.15
  27  -3   3   71.29   16.12
 -27   3   3   66.84   14.77
  27  -3   3   66.03   15.90
 -27  -3   3   45.13   13.51
 -27   3  -3   73.29   15.00
 -27  -3   3   93.01   15.84
  27  -3  -3   84.55   17.92
  27   3   3   90.53   16.80
  27  -3  -3   97.14   18.58
  27  -3  -3   51.93   15.36
 -27   3  -3   73.71   14.92
 -27   3  -3   69.54   16.13
  27   0  -4    5.02   10.50
 -27   0  -4   -4.14   11.57
  27   0  -4   -5.75    9.18
  27   0   4   -0.38   10.88
  27   0   4    4.12   11.36
 -27   0  -4    1.98   11.49
  27   0   4   -2.16   11.70
 -27   0   4    9.33   12.15
 -27   0  -4    7.66    9.29
  27   0  -4    6.48   11.18
 -27   0   4   -5.42   10.37
 -27   0   4    9.65    9.25
  27   0   4    9.74   12.26
 -27   0  -4   -4.74   10.31
  27  -1   4  385.88   27.07
 -27  -1  -4  406.35   28.86
 -27  -1  -4  395.51   27.72
  27  -1   4  346.08   27.19
 -27   1   4  359.19   27.62
  27  -1   4  400.22   27.90
 -27   1   4  342.77   22.81
 -27  -1  -4  398.46   22.39
  27   1  -4  366.46   25.60
 -27   1   4  373.52   26.98
  27   1   4  348.45   25.89
  27   1   4  360.36   25.71
  27   1   4  350.01   26.29
 -27  -1   4  344.78   25.54
 -27   1  -4  400.77   24.05
 -27   1  -4  396.71   26.42
  27   1   4  386.10   25.75
 -27  -1   4  353.17   25.37
  27  -1  -4  324.26   24.54
  27  -1  -4  370.17   26.45
  27  -1  -4  401.67   25.75
 -27  -1   4  381.71   21.21
 -27   1  -4  386.63   26.68
  27  -1  -4  364.45   25.97
 -27   1  -4  380.24   25.12
  27  -2   4   17.78   12.76
 -27   2   4   20.01   11.22
  27  -2   4   14.12   13.53
 -27  -2  -4    7.49   13.20
 -27   2   4   30.00   14.31
  27   2  -4   -7.57    9.88
 -27   2   4    3.46   12.67
 -27  -2  -4   29.56   13.90
  27  -2   4   11.77   13.05
 -27   2  -4   -2.45   10.22
  27   2   4   -2.09   10.69
  27  -2  -4   21.31   13.24
 -27  -2   4    8.92   10.45
  27   2   4    5.20   11.79
  27  -2  -4   10.10   12.62
 -27   2  -4   -5.50   10.97
 -27   2  -4   12.58   11.44
  27   2   4   11.03   11.15
  27  -2  -4   13.52   12.16
 -27  -2   4    7.99   11.30
  27  -2  -4    6.36   11.96
 -27   2  -4   30.44   13.86
 -27   3   4  270.84   24.89
 -27  -3  -4  216.54   25.82
 -27   3   4  319.33   30.63
 -27   3   4  280.33   24.84
  27  -3   4  270.66   26.52
 -27   3   4  278.23   27.91
 -27  -3  -4  210.10   25.22
  27  -3   4  318.02   28.77
  27  -3   4  266.41   26.49
  27   3  -4  271.70   22.18
 -27   3   4  277.00   27.89
  27  -3  -4  278.88   28.97
 -27   3  -4  223.46   22.89
 -27   3  -4  286.98   23.94
 -27  -3   4  257.42   22.02
  27  -3  -4  282.53   28.75
 -27  -3   4  265.28   22.37
 -27  -3   4  259.99   22.52
  27  -3  -4  320.02   29.56
 -27   3  -4  252.92   26.72
  27   3   4  295.50   26.30
 -27  -3   4  291.77   24.42
 -27   0  -5   -9.87    8.97
  27   0  -5    5.32   12.32
 -27   0   5  -12.71   11.78
 -27   0  -5   -8.13   12.24
  27   0   5   -2.04   11.64
 -27   0   5   -9.06   10.57
  27   0   5    8.50   12.75
 -27   0  -5   -6.64   11.31
  27   0   5   -6.33   11.83
 -27   0  -5   -3.41   10.78
 -27   1   5   22.81   14.04
 -27  -1  -5   20.36   14.17
  27  -1   5   24.20   13.51
  27   1  -5    1.64   11.03
  27  -1   5   -6.42   13.11
 -27  -1  -5   -5.64   11.62
 -27   1   5   -3.27   12.94
  27  -1   5    0.51   12.93
  27   1   5   14.67   12.80
  27   1   5   10.20   12.49
  27  -1  -5  -11.56   10.42
  27   1   5   -5.86   10.13
  27  -1  -5   13.85   12.51
 -27   1  -5    9.71   12.00
 -27   1  -5   -9.52   10.53
  27   1   5   -3.00   11.48
 -27  -1   5    7.49   12.03
  27  -1  -5    9.57   11.92
 -27  -1   5   32.68   13.37
 -27   1  -5    4.47   11.38
  28   0   0  478.29   25.40
 -28   0   0  536.86   23.19
  28   0   0  475.84   26.07
  28   0   0  537.20   26.85
 -28   0   0  467.42   27.30
 -28   0   0  491.91   27.29
  28   0   0  501.73   25.91
 -28   1   0   14.81   11.63
 -28   1   0   37.34   11.22
  28   1   0   13.54    9.55
  28   1   0   19.12   10.12
  28  -1   0   16.43   10.38
  28  -1   0    8.97    9.47
 -28   1   0   11.03    9.01
 -28  -1   0   13.23    7.42
 -28  -1   0    6.52   10.50
  28  -1   0   33.07   11.58
  28   1   0   16.27   10.11
  28   1   0   12.29    9.59
 -28   1   0   10.81   10.91
 -28  -1   0   15.68   11.35
  28  -1   0   19.95   11.13
  28  -2   0  520.90   28.54
  28  -2   0  488.45   28.11
 -28   2   0  559.09   29.60
 -28  -2   0  531.68   27.78
  28  -2   0  579.96   29.63
 -28   2   0  535.64   26.93
  28   2   0  524.55   26.85
 -28   2   0  514.73   28.97
 -28  -2   0  510.71   27.53
 -28   2   0  581.20   28.00
 -28   3   0   16.60   11.80
  28  -3   0   19.22   11.85
 -28  -3   0    3.25   10.68
 -28   3   0   23.93   12.21
  28  -3   0   -1.08   11.25
  28  -3   0    4.02   11.16
 -28  -3   0   15.99   11.70
  28   3   0   22.05   10.66
 -28   3   0    3.85    9.83
 -28   4   0  283.74   24.13
 -28   4   0  287.81   23.61
  28  -4   0  342.96   27.45
 -28  -4   0  311.80   23.78
 -28  -4   0  334.26   24.96
  28  -4   0  312.94   25.93
  28  -4   0  315.22   27.01
  28   4   0  307.81   22.33
  28   0   1   20.70   10.07
  28   0  -1   10.67    9.57
  28   0  -1   22.14   11.53
 -28   0  -1   27.34   11.90
 -28   0  -1    0.39    8.60
  28   0   1   45.41   12.84
  28   0   1    7.61   10.25
 -28   0  -1   20.04    8.62
  28   0  -1   20.62   10.70
  28   0   1   44.58   12.20
 -28   0  -1   22.26   11.68
 -28   0   1   32.22   11.97
  28   0  -1   27.05   11.30
 -28   0   1   11.26    8.38
 -28   0   1   20.77   12.17
 -28  -1  -1   13.95   11.75
  28   1  -1    8.38    8.76
  28  -1   1    4.11   10.20
 -28   1   1    1.17    8.59
 -28  -1  -1   -0.43    6.80
  28  -1   1   -0.20   10.07
 -28   1   1   -0.62    9.92
  28  -1   1  -10.23    9.24
  28   1  -1    1.58    9.26
  28   1  -1   10.46    9.71
  28  -1   1    5.18    9.63
 -28  -1  -1   16.61   10.83
 -28   1   1    4.08   11.46
 -28   1   1    9.62    8.92
  28  -1  -1    1.51    9.47
 -28  -1   1    7.28    9.36
 -28   1  -1  -20.93    8.91
  28   1   1   -2.32    8.60
  28   1   1   -5.07    9.56
  28  -1  -1   -4.12    8.62
 -28  -1   1   -0.64    6.38
  28   1   1    2.11    8.60
  28   1   1    7.96    9.58
  28  -1  -1   27.77   11.45
 -28  -1   1    3.59    9.99
  28  -1  -1   -4.60    9.63
 -28   1  -1    2.51    8.78
 -28   1  -1   24.99   11.32
 -28   1  -1  -12.30    9.18
  28   2  -1   31.76   12.00
 -28   2   1   18.31   10.86
  28  -2   1   14.01   11.24
 -28   2   1   39.10   13.36
  28  -2   1   39.11   13.85
  28  -2   1   35.85   12.56
 -28  -2  -1   16.55   11.84
 -28   2   1   40.46   13.69
 -28   2   1   23.26   10.91
 -28  -2  -1   25.93   12.61
 -28   2  -1   33.82   11.41
  28  -2  -1   26.00   11.52
 -28   2  -1   13.53   10.02
  28  -2  -1   12.85   11.95
 -28  -2   1   42.86   12.66
  28  -2  -1   45.31   13.99
 -28  -2   1   15.43   10.63
 -28   2  -1   11.95   11.26
  28   2   1   17.70   10.73
 -28   2  -1   29.94   12.46
  28  -2  -1   35.86   13.57
 -28  -3  -1   -4.80   11.13
 -28   3   1   28.50   13.13
 -28  -3  -1  -10.16   10.86
 -28   3   1  -10.73    9.46
  28   3  -1   -7.33    9.36
 -28   3   1   19.22   11.75
 -28   3   1   12.02   12.20
  28  -3   1    6.47   11.50
  28  -3   1   -2.07   10.39
  28  -3   1    1.16   11.51
 -28   3  -1    7.14   11.23
 -28  -3   1   -4.35   10.63
  28  -3  -1   -6.06   10.86
 -28   3  -1   -6.58    9.90
 -28   3  -1   14.47   11.19
 -28  -3   1    7.67   10.70
  28   3   1    3.99   10.51
  28  -3  -1   -4.47   10.78
  28  -3  -1    2.22   11.46
 -28   4   1   59.53   14.95
 -28   4   1   56.02   15.57
 -28  -4  -1   20.79   13.23
  28   4  -1   38.00   12.67
  28  -4   1   29.61   13.57
  28  -4   1   65.70   15.48
 -28  -4  -1   22.80   13.63
  28  -4   1   46.71   15.00
  28  -4  -1   48.37   16.03
 -28   4  -1   36.06   12.96
  28  -4  -1   45.38   16.02
  28   4   1   45.41   13.79
  28  -4  -1   41.82   14.93
 -28  -4   1   19.99   12.31
 -28   4  -1   26.32   13.22
 -28  -4   1   35.20   12.82
 -28   0  -2  448.80   24.92
 -28   0   2  427.95   26.21
  28   0   2  448.98   26.57
 -28   0   2  473.48   22.78
 -28   0  -2  445.16   22.59
 -28   0  -2  414.30   27.16
 -28   0  -2  495.55   27.68
  28   0   2  443.01   25.22
  28   0  -2  414.63   25.63
  28   0  -2  419.47   23.52
  28   0  -2  427.50   24.60
  28   0   2  429.10   26.03
  28   0   2  434.98   26.45
 -28   0   2  483.98   27.29
  28   0  -2  453.22   25.46
 -28   1   2   19.69   12.69
 -28   1   2   18.45   12.62
 -28  -1  -2   28.19   12.59
 -28  -1  -2   18.13   11.67
  28  -1   2   19.10   11.52
 -28  -1  -2   25.53    8.87
  28   1  -2   23.65   11.43
  28  -1   2   25.11   11.17
  28  -1   2   12.38   11.50
  28  -1   2   27.30   12.17
 -28   1   2   28.75    9.82
  28  -1  -2   23.84   11.78
  28   1   2   39.99   12.34
  28  -1  -2   28.76   11.97
  28   1   2    4.41   10.22
 -28   1  -2   19.72   10.33
 -28   1  -2   14.24    9.44
  28   1   2   47.88   12.10
 -28  -1   2   32.52    8.59
  28  -1  -2   19.87   11.61
 -28   1  -2   27.72   12.44
  28   1   2   30.55   10.98
  28  -1  -2   34.30   12.78
 -28  -1   2   13.20   10.48
 -28  -1   2    6.55   10.56
 -28   1  -2   15.05   12.09
 -28  -2  -2  401.59   26.87
 -28   2   2  440.43   25.27
  28  -2   2  408.97   26.42
  28  -2   2  392.34   26.45
 -28  -2  -2  402.08   26.34
 -28   2   2  416.49   27.31
  28  -2   2  405.83   26.52
  28   2  -2  380.16   23.92
 -28   2   2  447.41   28.91
 -28   2   2  402.60   24.47
  28   2   2  417.53   24.48
 -28   2  -2  381.43   24.94
  28  -2  -2  410.09   27.18
 -28  -2   2  433.18   25.84
 -28   2  -2  418.51   26.49
  28  -2  -2  433.24   27.58
 -28   2  -2  415.88   24.80
  28  -2  -2  389.34   26.09
  28   2   2  392.11   24.08
 -28   2  -2  394.00   24.92
  28  -2  -2  415.60   27.42
 -28   2  -2  417.53   27.44
  28   2   2  422.41   25.65
 -28  -2   2  379.20   24.48
  28   3  -2   50.53   13.55
  28  -3   2   48.95   14.15
 -28  -3  -2   48.13   15.62
 -28   3   2   20.11   13.75
 -28   3   2   53.81   16.19
 -28  -3  -2   47.85   15.20
  28  -3   2   46.13   15.20
 -28   3   2   44.91   12.64
  28  -3   2   30.27   13.34
 -28   3   2   49.48   14.77
  28  -3  -2   39.39   15.89
  28  -3  -2   68.81   15.96
  28   3   2   48.76   13.51
 -28   3  -2   71.35   14.99
 -28  -3   2   42.51   13.00
  28  -3  -2   26.59   13.63
 -28   3  -2   33.17   12.42
 -28  -3   2   31.19   12.11
 -28   0   3    7.63   11.64
 -28   0  -3   31.84   12.95
 -28   0  -3    1.53    8.33
  28   0   3   14.55   12.04
 -28   0   3    1.43    8.30
  28   0  -3    6.45   10.96
  28   0   3   18.59   12.40
  28   0  -3  -13.51    8.94
 -28   0  -3    4.49   11.43
 -28   0   3   -1.33   10.35
 -28   0   3   -2.70   10.74
  28   0   3   -1.15   10.93
  28   0   3   -1.33    9.33
  28   0  -3   15.33   10.98
 -28   0   3  -22.11    9.17
 -28   0  -3    9.50   10.10
 -28   1   3    0.91   11.73
 -28   1   3   18.29   12.83
 -28  -1  -3   13.30   12.52
  28  -1   3   -1.01   10.65
 -28   1   3    0.94   11.69
  28  -1   3   36.16   12.88
 -28   1   3   20.64   12.98
 -28  -1  -3   10.75    8.39
  28  -1   3   24.50   13.49
 -28  -1  -3   26.02   12.82
  28   1  -3   28.02   13.08
 -28   1   3    9.34    9.68
 -28  -1   3   13.50   11.28
 -28  -1   3    6.53   10.89
 -28  -1   3    8.85    8.08
 -28  -1   3   13.01   10.57
  28   1   3   -7.87    9.64
 -28  -1   3   25.86   11.95
  28   1   3   -0.46   11.25
  28  -1  -3   11.86   11.56
  28  -1  -3   23.54   12.15
 -28   1  -3   19.80   11.30
 -28   1  -3   15.62   11.89
  28  -1  -3   13.52   11.78
  28   1   3   16.89   10.27
 -28   1  -3   -4.83    8.70
 -28   1  -3   17.40   12.74
  28  -1  -3    8.44   10.82
  28   1   3   14.13   12.33
 -28   2   3   12.08   13.07
 -28   2   3   32.30   12.22
 -28   2   3   19.55   13.20
  28  -2   3    3.72   10.84
  28  -2   3    7.53   11.73
 -28  -2  -3   24.60   13.51
  28   2  -3   17.88   11.53
 -28   2   3    3.02   12.54
 -28  -2  -3    4.42   12.83
  28  -2   3    7.91   12.45
 -28   2   3   10.03   11.21
 -28   2   3    3.36   13.54
  28  -2  -3   -6.51    9.79
  28   2   3   27.11   12.17
  28  -2  -3    6.87   12.32
  28   2   3   18.15   11.65
  28  -2  -3   10.23   12.08
 -28   2  -3    8.73   10.95
 -28  -2   3   22.24   11.85
 -28   2  -3   12.73   10.68
 -28   2  -3   16.35   12.59
  28   2   3    3.75   10.86
 -28  -2   3    8.99   11.70
  28  -2  -3    1.52   11.65
 -28   2  -3   21.72   11.83
 -28  -2   3   11.97   11.09
  28  -3   3   -8.28   11.78
  28  -3   3   14.21   12.32
 -28  -3  -3   -7.14   12.11
 -28   3   3   14.85   14.21
 -28   3   3   14.00   11.83
 -28   3   3   16.70   12.03
 -28   3   3   12.22   13.07
 -28  -3  -3   -5.87   12.89
  28  -3   3   -0.50   10.99
  28   3  -3    9.14   11.01
 -28   3   3    3.33   13.25
  28  -3  -3   16.06   14.18
 -28   3  -3   16.78   11.80
 -28  -3   3   -8.04    9.62
 -28   3  -3    0.59   11.41
 -28  -3   3    6.82   11.22
 -28   3  -3   26.89   12.23
  28  -3  -3    0.67   12.70
  28  -3  -3   17.50   13.44
  28   3   3   -0.37   11.53
 -28   0  -4  353.33   26.81
  28   0   4  351.53   25.91
  28   0   4  356.73   27.78
 -28   0  -4  338.20   25.35
 -28   0  -4  287.95   25.81
 -28   0   4  329.01   26.20
 -28   0   4  375.72   22.30
 -28   0   4  366.71   27.44
 -28   0  -4  367.35   22.72
  28   0   4  405.28   28.43
  28   0  -4  425.36   27.59
 -28  -1  -4   36.97   14.88
 -28   1   4   26.48   11.89
 -28   1   4   23.96   13.62
 -28   1   4   25.45   14.54
 -28  -1  -4   11.26    9.20
  28  -1   4   26.51   14.30
 -28  -1  -4   52.86   15.66
  28  -1   4   32.08   13.89
  28   1  -4   39.31   14.59
  28  -1   4   35.78   14.07
  28  -1  -4   19.39   12.62
 -28  -1   4   32.61   13.82
  28   1   4   39.86   13.53
  28   1   4   26.58   13.16
 -28   1  -4   22.44   12.61
 -28   1  -4   39.22   12.35
 -28  -1   4   43.20   11.04
  28  -1  -4   51.43   14.02
  28  -1  -4   13.87   11.71
 -28   1  -4   41.38   14.19
 -28  -1   4   15.40   12.22
  28   1   4   20.39   12.78
 -28   1  -4   27.17   12.54
  28   1   4   30.19   13.00
  28  -1  -4   17.56   12.74
  28   2  -4  299.76   23.35
  28  -2   4  301.86   28.32
 -28  -2  -4  314.39   27.75
 -28   2   4  337.31   27.44
 -28  -2  -4  299.03   26.37
  28  -2   4  300.25   28.58
 -28   2   4  298.59   27.94
 -28   2   4  328.38   24.75
  28  -2   4  296.60   27.94
 -28   2  -4  341.13   24.80
  28  -2  -4  329.74   27.69
 -28  -2   4  310.54   24.97
  28   2   4  282.21   24.73
  28   2   4  357.25   25.47
 -28   2  -4  311.81   25.24
  28  -2  -4  311.32   26.51
 -28   2  -4  349.13   25.78
  28  -2  -4  336.90   26.82
 -28  -2   4  312.03   24.41
  28   2   4  338.20   25.31
  28  -2  -4  360.68   28.27
 -28  -2   4  283.86   23.88
 -28  -2   4  289.69   23.84
 -28   0  -5   17.10   12.37
 -28   0  -5    7.45   10.43
 -28   0  -5  -20.42   11.10
  28   0   5    9.59   13.19
 -28   0   5   29.53   14.05
  28   0   5   12.68   13.79
  28   0  -5   16.97   12.51
 -28   0   5    9.78   13.74
 -28   0  -5    3.05   12.93
  28   0   5   22.77   14.41
  28  -1   5  -22.80   11.72
 -28  -1  -5    7.16   13.30
 -28  -1  -5   19.04   14.55
  28  -1   5  -18.03   11.38
 -28   1   5   -5.69   13.02
  28  -1   5   -3.88   13.85
 -28   1   5    1.48   13.63
 -28   1   5    2.22   10.16
  28   1  -5   -2.86   12.20
  28   1   5   -3.17   11.59
  28  -1  -5   19.18   12.14
  28  -1  -5   -8.19   10.53
  28   1   5    1.22   11.92
 -28   1  -5   22.43   12.96
 -28   1  -5    2.77   11.09
  28   1   5   -1.01   12.35
  28  -1  -5    4.14   13.55
 -28  -1   5    7.80   12.81
  28   1   5   -2.48   11.95
 -28  -1   5   15.78   13.65
 -28   1  -5   10.31   12.80
 -29   0   0    9.41    8.16
  29   0   0    5.25    9.51
 -29   0   0   32.14   12.69
  29   0   0   29.22   11.15
 -29   0   0   20.81   11.93
  29   0   0   -2.27    9.35
  29   0   0   16.02   11.11
  29  -1   0  631.95   30.61
  29  -1   0  649.29   30.95
 -29   1   0  652.12   31.88
  29   1   0  607.40   28.61
 -29   1   0  606.87   28.27
  29  -1   0  617.38   30.30
 -29  -1   0  651.88   25.03
 -29   1   0  612.06   31.07
  29  -1   0  672.53   31.47
  29   1   0  595.43   29.40
  29   1   0  626.73   28.77
 -29  -1   0  595.84   30.83
 -29  -1   0  599.06   30.80
 -29   1   0  634.06   27.80
  29   1   0  632.65   42.38
  29  -2   0   17.41   11.78
 -29   2   0   16.74   10.59
 -29  -2   0   32.60   12.66
 -29   2   0   30.99   10.90
  29  -2   0   21.43   12.04
 -29   2   0   22.13   12.44
 -29   2   0   33.66   13.50
  29  -2   0   12.78   11.72
 -29  -2   0   27.48   12.24
  29   2   0   35.98   11.92
  29  -3   0  352.26   27.37
  29   3   0  371.24   24.23
 -29   3   0  381.61   25.10
  29  -3   0  393.18   28.28
 -29   3   0  382.11   26.53
  29  -3   0  370.43   26.94
 -29  -3   0  375.95   25.64
 -29  -3   0  378.92   25.80
 -29   3   0  355.04   24.29
 -29   4   0   45.62   13.79
 -29  -4   0   54.11   15.44
  29  -4   0   47.47   16.10
 -29  -4   0   52.16   15.54
  29   4   0   39.09   13.04
  29  -4   0   18.11   13.97
  29  -4   0   47.32   16.25
 -29   4   0   35.30   13.55
  29   0   1    5.99    9.81
  29   0  -1   -1.14   10.16
  29   0   1    9.18   10.25
 -29   0   1   -3.64    7.93
 -29   0  -1   -3.13    7.96
  29   0  -1  -11.20    9.00
  29   0   1   -5.87    9.37
  29   0  -1    1.31    9.31
  29   0   1    1.58   10.06
 -29   0   1    5.52   10.66
 -29   0   1    1.22   10.66
  29   0  -1   18.05   11.02
 -29   0  -1  -18.55    9.70
 -29   0  -1    3.38   10.11
 -29   1   1   48.01   12.22
  29  -1   1   58.20   14.23
  29  -1   1   55.82   13.84
 -29   1   1   70.46   15.52
 -29  -1  -1   51.58   14.72
  29   1  -1   52.42   13.91
  29  -1   1   76.06   15.33
 -29   1   1   54.87   14.84
 -29   1   1   82.81   13.71
  29   1  -1   51.94   12.56
 -29  -1  -1   45.20    9.55
  29  -1   1   64.76   14.69
 -29  -1  -1   45.37   13.75
  29   1  -1   73.27   13.21
  29  -1  -1   63.12   14.84
  29  -1  -1   58.05   14.13
 -29  -1   1   44.81   13.88
 -29   1  -1   56.30   12.59
  29   1   1   70.42   14.22
 -29   1  -1   62.60   14.83
  29   1   1   58.24   15.07
  29   1   1   65.95   13.75
  29  -1  -1   63.36   13.99
 -29   1  -1   78.28   13.57
 -29   1  -1   63.31   14.92
  29  -1  -1   66.32   13.94
 -29  -1   1   70.62   10.68
  29   1   1   42.19   12.85
 -29  -1   1   51.16   13.64
  29  -2   1  -10.81    9.63
 -29   2   1    3.95   11.99
  29   2  -1   16.28   11.18
  29  -2   1  -10.57   10.37
 -29  -2  -1   10.53   11.75
 -29  -2  -1   10.23   11.44
 -29   2   1   13.26   10.76
  29  -2   1    2.20   11.32
 -29   2   1  -12.25    8.17
 -29   2   1    9.52   11.89
  29  -2  -1   18.85   12.03
 -29   2  -1   15.30   12.13
  29   2   1   -2.68    9.35
 -29   2  -1    0.87    9.62
  29  -2  -1   -8.58   10.56
 -29  -2   1    8.45   11.22
 -29   2  -1   13.90    9.92
 -29  -2   1    2.09   10.62
  29  -2  -1   17.90   12.19
 -29   2  -1    6.69   11.73
 -29  -3  -1   -6.73   11.46
  29   3  -1   23.74   11.82
 -29  -3  -1    7.15   11.31
  29  -3   1    0.39   11.52
 -29   3   1   33.41   13.82
 -29   3   1    6.37   10.42
 -29   3   1   -1.88   11.32
  29  -3   1    9.37   11.62
 -29   3   1   14.28   12.14
  29  -3   1  -10.85   10.55
  29  -3  -1   21.48   13.88
 -29  -3   1   17.43   11.60
  29  -3  -1    2.04   12.24
 -29  -3   1    1.16   10.90
  29  -3  -1   34.34   14.00
 -29   3  -1    8.38   11.93
 -29   3  -1  -10.10   10.49
 -29   3  -1   -7.73    8.98
  29   3   1   11.11   11.01
 -29   0   2   -2.61   10.58
 -29   0  -2    2.70   11.33
  29   0   2    5.06   10.37
  29   0   2    0.17    9.64
  29   0  -2   -3.49    9.43
  29   0   2   12.97   11.48
 -29   0  -2   23.90   12.71
 -29   0  -2   -4.74    8.91
  29   0  -2   -6.32    8.25
  29   0  -2    2.65   11.30
 -29   0  -2    6.08    8.28
 -29   0   2   15.31   12.39
 -29   0   2   17.35    9.32
  29   0  -2   10.39   10.09
  29   0   2    2.79   10.22
  29  -1   2  400.89   26.03
 -29  -1  -2  466.12   28.14
 -29   1   2  509.79   30.25
 -29  -1  -2  487.14   29.70
 -29   1   2  483.84   28.57
  29  -1   2  461.61   27.72
 -29  -1  -2  454.84   21.91
  29  -1   2  411.49   26.44
  29  -1   2  449.53   28.56
 -29   1   2  465.76   24.70
  29   1  -2  445.00   26.31
 -29  -1   2  469.10   27.82
 -29  -1   2  431.32   26.62
 -29   1  -2  476.29   25.50
  29   1   2  471.97   27.02
  29   1   2  459.82   27.15
  29  -1  -2  478.55   27.76
  29  -1  -2  488.13   28.70
  29   1   2  454.14   26.80
 -29  -1   2  510.86   22.66
 -29   1  -2  525.46   29.83
  29   1   2  450.62   26.26
 -29   1  -2  481.69   28.99
  29  -1  -2  485.28   27.84
 -29   1  -2  467.98   26.04
  29  -1  -2  447.34   27.68
 -29   2   2   30.24   14.47
 -29   2   2   17.95   10.79
 -29   2   2   37.24   13.00
  29   2  -2   27.08   11.84
 -29  -2  -2   38.46   13.53
 -29  -2  -2   17.75   12.94
  29  -2   2   27.49   12.79
  29  -2   2   31.82   13.53
 -29   2   2   25.99   13.21
  29  -2   2   52.88   14.97
 -29   2  -2   28.53   12.57
  29  -2  -2   46.58   16.02
 -29  -2   2   46.22   13.24
 -29   2  -2   33.60   12.48
  29   2   2   14.84   11.73
 -29   2  -2   13.29   11.52
  29  -2  -2   16.34   11.73
  29  -2  -2   33.15   13.92
 -29   2  -2   12.81   10.57
  29  -2  -2   39.72   14.06
 -29  -2   2   24.83   12.31
  29  -3   2  234.28   24.13
  29  -3   2  220.84   24.27
 -29   3   2  218.53   24.46
 -29   3   2  220.10   24.50
 -29   3   2  250.98   24.24
  29  -3   2  216.27   23.89
 -29  -3  -2  198.24   23.50
 -29  -3  -2  242.79   25.06
 -29   3   2  198.01   21.38
  29   3  -2  246.99   22.76
  29  -3  -2  235.70   25.37
 -29   3  -2  229.90   23.38
  29  -3  -2  217.05   25.16
 -29  -3   2  219.53   22.02
  29  -3  -2  270.33   27.76
  29   3   2  245.05   23.02
 -29   3  -2  190.32   21.10
 -29  -3   2  196.77   21.10
  29   0  -3  -10.45   10.25
 -29   0   3   10.23   12.20
  29   0   3    2.04   10.82
 -29   0   3   10.84    9.30
 -29   0  -3    2.78   11.66
 -29   0  -3   -3.42    8.33
  29   0   3   -4.94   11.01
  29   0  -3    5.90   10.66
  29   0   3    4.35   11.34
  29   0  -3   -0.76    9.67
 -29   0   3    9.20   11.51
 -29   0  -3  -11.22    9.99
 -29   0   3    0.46   11.52
  29   0   3   -6.34    9.46
 -29   0  -3  -16.79    9.99
 -29   0   3   22.72   12.72
 -29   1   3  -18.47   11.12
  29  -1   3    6.69   11.91
 -29   1   3   -4.08   11.68
 -29   1   3   26.19   13.70
  29   1  -3   -3.60    9.89
  29  -1   3    9.13   12.38
 -29   1   3   -6.38    9.27
 -29   1   3   -8.04   11.64
 -29  -1  -3    2.66    7.59
 -29  -1  -3    8.79   12.66
 -29  -1  -3  -11.76   10.89
  29  -1   3    9.39   12.48
  29  -1  -3    4.69   11.76
 -29  -1   3  -10.16   11.07
 -29  -1   3    3.18   11.68
  29  -1  -3    3.71   11.11
 -29  -1   3    5.82   11.56
  29  -1  -3   17.60   12.18
 -29   1  -3   15.86   12.09
 -29   1  -3    0.64    9.15
  29   1   3    6.49   10.83
  29   1   3    8.41   11.26
 -29   1  -3   -5.67   10.36
 -29   1  -3    2.97   11.30
  29   1   3    3.94   10.76
 -29  -1   3    0.38    7.95
  29   1   3    5.25   11.64
  29  -1  -3   -0.68   11.48
 -29  -1   3   -0.73   10.93
 -29  -2  -3   11.81   13.11
 -29   2   3   29.75   11.82
  29  -2   3   -9.79   10.78
 -29   2   3   10.91   14.09
 -29   2   3    4.87   12.86
 -29   2   3   -2.28   12.99
 -29  -2  -3    5.21   12.98
 -29   2   3   -9.22   11.42
  29  -2   3    2.83   12.43
  29  -2   3   -7.68   10.73
  29   2  -3   13.45   11.44
 -29   2  -3    1.49   10.54
 -29   2  -3   14.53   12.17
  29  -2  -3  -14.14   10.72
 -29   2  -3   14.10   10.79
  29  -2  -3   -9.60   11.03
 -29  -2   3    7.78   11.12
  29  -2  -3   -4.52   11.78
  29   2   3    9.38   10.92
  29   2   3   19.44   12.19
  29  -2  -3    2.79   11.88
 -29   2  -3    3.63    9.43
  29   2   3   15.90   11.62
 -29  -2   3   -7.82   10.66
  29  -3   3   -3.27   12.10
 -29  -3  -3   -3.90   11.99
 -29   3   3   19.03   12.33
 -29   3   3    7.00   11.62
 -29   3   3    2.89   14.02
 -29  -3  -3   -8.03   12.28
  29  -3   3  -13.19   10.97
  29  -3   3   12.80   13.35
 -29   3   3    6.28   14.69
  29   3  -3   -2.55   10.18
 -29   3   3    6.23   13.35
  29  -3  -3   27.77   15.93
 -29  -3   3    2.45   10.95
 -29  -3   3   -3.74   10.57
 -29   3  -3   28.57   12.54
  29  -3  -3    3.74   13.53
 -29   3  -3    5.33   10.82
  29  -3  -3  -21.17   11.53
  29   3   3   10.34   12.07
  29   0   4   -0.79   11.79
 -29   0  -4    3.30    9.65
 -29   0  -4   11.33   12.70
  29   0   4    6.85   11.55
 -29   0  -4   11.36   13.17
 -29   0   4   -7.31    8.78
 -29   0   4   -4.38   11.99
 -29   0  -4   28.54   13.67
  29   0  -4   14.60   12.24
 -29   0   4    7.03   12.61
  29   0   4   21.12   13.07
  29  -1   4  334.56   29.63
  29   1  -4  293.59   24.90
 -29  -1  -4  246.48   19.98
  29  -1   4  310.08   29.27
 -29   1   4  334.38   23.23
 -29  -1  -4  273.60   27.05
  29  -1   4  309.71   28.72
 -29   1   4  342.41   27.05
 -29   1   4  320.56   27.96
 -29  -1  -4  320.50   27.68
 -29  -1   4  311.68   25.70
  29  -1  -4  285.65   25.55
 -29   1  -4  300.90   27.61
  29  -1  -4  301.38   25.53
  29   1   4  298.79   25.95
 -29   1  -4  329.92   25.01
  29   1   4  307.05   24.97
 -29   1  -4  311.17   25.53
  29  -1  -4  376.76   41.37
 -29  -1   4  340.38   26.73
 -29   1  -4  317.23   23.12
  29   1   4  294.36   27.09
 -29  -1   4  306.22   20.17
  29  -1  -4  313.23   26.64
  29   1   4  340.73   26.52
 -29   2   4   23.23   13.97
  29   2  -4   11.65   12.05
 -29  -2  -4    2.10   13.08
  29  -2   4   33.83   15.05
 -29   2   4   17.24   11.80
 -29   2   4    3.01   14.10
 -29   2   4   33.81   15.82
  29  -2   4    6.17   13.54
 -29  -2  -4    5.57   13.47
  29  -2   4   21.02   14.24
 -29  -2   4   16.51   12.88
 -29  -2   4   14.06   11.95
  29  -2  -4   11.40   13.09
 -29   2  -4   27.29   12.83
  29   2   4   20.72   13.25
  29   2   4   23.18   13.00
  29  -2  -4   30.31   15.05
  29  -2  -4   19.29   13.79
 -29   2  -4   24.39   13.67
  29  -2  -4   13.86   13.19
 -29  -2   4   23.14   12.68
 -29  -2   4   23.12   12.57
  29   2   4    0.98   11.94
 -29   2  -4    2.46   11.51
  30   0   0  541.09   28.37
 -30   0   0  560.21   24.76
 -30   0   0  525.23   29.35
  30   0   0  536.88   28.77
  30   0   0  544.35   28.39
  30   0   0  584.43   29.03
 -30   0   0  552.09   30.53
 -30   1   0   24.10   10.82
 -30   1   0    6.43   11.44
 -30   1   0   15.38    9.76
  30   1   0   24.90   11.50
  30  -1   0   19.51   12.23
  30  -1   0   33.38   12.66
  30   1   0   21.65   11.11
 -30  -1   0   14.09    7.86
 -30  -1   0   35.76   12.23
 -30   1   0   39.10   14.33
  30  -1   0   51.95   13.65
  30  -1   0   26.48   11.30
 -30  -1   0   15.17   12.34
  30   1   0   13.48   11.38
 -30   2   0  400.64   24.83
 -30   2   0  406.86   27.36
  30  -2   0  424.49   27.16
  30  -2   0  418.13   27.48
 -30  -2   0  389.03   26.16
  30  -2   0  375.18   26.55
 -30   2   0  380.35   24.19
 -30   2   0  374.66   27.24
 -30  -2   0  385.45   26.16
  30   2   0  410.92   25.23
 -30   3   0    6.79   11.28
 -30   3   0    0.63   12.06
  30   3   0   12.77   11.09
  30  -3   0   21.75   13.23
  30  -3   0   18.91   13.53
  30  -3   0   22.67   13.53
 -30   3   0    9.89   11.01
 -30  -3   0   30.04   13.94
 -30  -3   0   -1.89   11.63
 -30   0  -1   40.29   10.74
  30   0  -1   45.95   12.95
  30   0  -1   48.77   13.91
 -30   0  -1   38.04   13.15
 -30   0  -1   45.02   13.92
  30   0   1   36.45   12.98
  30   0   1   40.38   13.15
 -30   0   1   22.81   12.01
  30   0  -1   52.87   13.25
 -30   0   1   28.24    9.90
  30   0  -1   34.83   13.06
 -30   0   1   31.32   13.32
  30   0   1   44.69   13.70
  30   0   1   47.81   13.27
  30   1  -1   30.38   10.56
  30  -1   1   41.95   13.94
 -30  -1  -1   41.74    9.85
 -30  -1  -1   53.93   14.77
  30  -1   1   46.14   14.25
 -30   1   1   44.10   14.29
  30  -1   1   22.95   11.61
 -30   1   1   13.77   12.22
  30   1  -1   30.41   11.85
 -30  -1  -1   47.46   14.49
  30   1  -1   30.15   12.74
 -30   1   1   13.46   10.16
  30  -1   1   15.30   11.78
 -30  -1   1   33.85    9.03
 -30  -1   1   45.09   14.03
  30  -1  -1   28.26   12.00
  30   1   1   29.52   12.80
 -30   1  -1   17.95   12.04
 -30   1  -1   19.30   11.07
  30  -1  -1   44.31   13.96
  30   1   1   24.31   11.60
 -30  -1   1   22.53   12.21
 -30   1  -1   16.66    9.91
  30   1   1   39.05   12.75
  30  -1  -1    0.30   10.38
  30   1   1   23.39   11.84
  30  -1  -1   31.59   12.74
 -30   1  -1   14.47   12.59
  30   2  -1    1.13   10.10
 -30   2   1   -5.94   10.19
  30  -2   1   14.41   11.90
  30  -2   1    9.61   12.06
 -30   2   1   16.89   12.59
 -30  -2  -1    3.32   11.15
 -30   2   1   16.09   10.70
 -30  -2  -1   17.21   12.50
  30  -2   1    9.06   11.66
 -30   2   1    8.42   11.97
 -30   2  -1   19.48   12.51
 -30  -2   1   13.60   12.97
  30  -2  -1   -5.78   12.02
  30  -2  -1   -4.73   10.78
 -30   2  -1   -1.84    9.81
 -30   2  -1   -2.39   11.86
  30  -2  -1   -6.81   11.60
  30   2   1    4.69   10.76
 -30   2  -1    3.38    9.97
 -30  -2   1   14.33   12.21
 -30   3   1    7.57   17.11
 -30   3   1   38.70   14.44
  30  -3   1   29.72   14.00
  30  -3   1   28.21   13.70
  30   3  -1   20.91   12.06
 -30   3   1   23.47   11.92
 -30  -3  -1   23.78   12.67
  30  -3   1   18.33   13.26
 -30   3   1   -2.60   11.77
 -30  -3  -1   39.33   14.71
  30  -3  -1   13.15   13.67
  30  -3  -1   17.58   13.97
 -30   3  -1    6.53   11.02
 -30   3  -1    0.00   12.34
  30   3   1   10.24   12.08
 -30  -3   1   14.54   12.83
 -30   3  -1   10.56   12.40
  30  -3  -1    5.45   12.37
 -30  -3   1  -10.01   10.88
  30   0  -2  361.07   23.89
 -30   0  -2  351.05   20.72
 -30   0   2  352.15   20.97
 -30   0  -2  311.96   25.73
 -30   0  -2  371.87   26.95
 -30   0   2  292.84   24.41
  30   0  -2  362.00   24.32
  30   0   2  326.36   24.10
  30   0   2  347.31   25.16
  30   0  -2  344.23   25.13
  30   0   2  323.51   23.78
  30   0   2  373.99   25.49
 -30   0   2  335.82   25.44
  30   0  -2  381.25   24.36
  30   1  -2   31.00   12.13
 -30  -1  -2   11.33   11.64
  30  -1   2   17.77   12.60
 -30  -1  -2    9.30   12.83
  30  -1   2   18.93   12.88
 -30   1   2   -0.65    9.11
 -30   1   2   22.63   13.12
 -30   1   2   -9.58   11.35
 -30  -1  -2   13.09    8.63
  30  -1   2   16.76   12.13
  30   1   2    3.28   10.06
 -30   1  -2   25.25   13.46
 -30   1  -2   23.58   12.05
  30  -1  -2   17.85   12.24
 -30   1  -2   24.78   13.32
  30  -1  -2   28.35   13.12
  30  -1  -2   15.88   11.46
 -30   1  -2    8.72   10.30
  30   1   2   24.13   12.04
 -30  -1   2   16.55    8.46
  30   1   2    8.79   11.10
 -30  -1   2   28.52   12.98
  30  -1  -2   27.16   11.99
 -30  -1   2   15.91   11.82
  30   1   2   37.13   12.72
 -30   2   2  451.17   29.39
 -30   2   2  401.93   28.90
 -30  -2  -2  434.90   29.51
 -30  -2  -2  377.29   26.92
 -30   2   2  417.66   26.42
  30  -2   2  387.91   27.79
  30  -2   2  462.15   29.76
  30   2  -2  433.79   26.15
  30  -2   2  404.68   28.52
 -30   2   2  471.15   26.56
  30  -2  -2  488.42   30.52
 -30  -2   2  456.17   27.81
 -30   2  -2  458.43   28.33
 -30   2  -2  439.98   26.83
  30  -2  -2  417.21   28.21
  30  -2  -2  482.55   30.41
 -30   2  -2  476.60   26.61
  30   2   2  436.19   27.11
 -30  -2   2  428.99   26.82
 -30   2  -2  374.61   26.86
  30  -3   2   18.33   13.12
  30   3  -2    0.84   10.99
  30  -3   2   23.00   14.28
 -30  -3  -2   10.93   12.99
 -30   3   2   33.52   13.40
 -30   3   2   12.93   13.12
 -30  -3  -2    8.21   12.35
 -30   3   2   16.31   12.85
  30  -3   2    8.10   13.35
 -30   3   2   15.60   11.88
  30  -3  -2   39.64   15.63
 -30   3  -2    9.47   12.09
 -30  -3   2    3.28   11.28
 -30   3  -2   21.87   12.67
  30  -3  -2   34.45   16.13
 -30  -3   2    4.63   11.20
  30  -3  -2   22.35   15.00
  30   3   2   15.83   12.18
 -30   0  -3   30.24   13.62
 -30   0   3   18.63   13.61
  30   0   3   19.16   12.68
  30   0  -3    2.56   11.20
  30   0  -3   23.18   14.44
 -30   0   3   -2.39   12.06
 -30   0  -3    6.31    9.89
 -30   0  -3   21.45   13.42
 -30   0   3    4.18   11.97
  30   0   3   19.31   13.08
 -30   0   3   44.89   15.61
  30   0   3   17.87   12.93
  30   0  -3    7.55   11.03
  30   0   3   39.40   14.66
 -30   0   3   11.45    9.29
 -30  -1  -3   -5.85   12.03
 -30   1   3    2.22   12.16
 -30  -1  -3    9.52   13.38
  30  -1   3  -14.28   10.94
 -30   1   3    5.04   10.37
  30  -1   3   23.79   13.61
 -30   1   3    2.08   12.62
 -30   1   3    3.66   13.31
 -30   1   3   -3.80   12.16
 -30  -1  -3   -3.05    8.05
  30  -1   3    1.18   11.72
  30   1  -3   -9.94   10.26
  30  -1  -3   -2.54   11.51
 -30   1  -3    7.99   11.21
  30  -1  -3    7.02   11.95
  30  -1  -3  -12.16   10.24
 -30  -1   3   18.12   13.20
  30   1   3   19.89   12.11
 -30  -1   3   14.97   13.25
 -30  -1   3    2.78    8.13
  30   1   3    7.24   11.78
  30   1   3    4.89   12.50
 -30   1  -3    6.16   11.87
  30  -1  -3    2.42   11.00
 -30   1  -3   -0.35   12.04
 -30  -1   3    1.05   11.93
 -30   1  -3   -3.87    8.67
  30   1   3   -0.84   10.66
 -30  -1   3  -12.09   10.36
 -30   2   3   25.43   15.13
 -30   2   3    5.21   13.88
 -30   2   3   16.24   11.62
 -30  -2  -3   17.07   13.61
  30  -2   3   -9.22   11.65
  30  -2   3    6.99   12.57
 -30   2   3   11.09   13.64
 -30  -2  -3   -0.57   13.06
  30   2  -3   16.58   11.43
  30  -2   3   38.06   14.84
 -30   2  -3    0.56   11.07
 -30   2  -3    4.28   10.59
 -30   2  -3   27.78   13.47
  30  -2  -3    0.70   12.41
  30  -2  -3   -2.81   12.33
  30  -2  -3   20.54   13.43
  30   2   3   -3.90   10.80
  30  -2  -3    6.78   13.27
 -30  -2   3    9.83   12.16
 -30  -2   3   12.86   11.98
 -30   2  -3    6.53   11.25
 -30   0   4  462.61   30.17
 -30   0   4  510.98   31.77
  30   0   4  387.10   28.47
  30   0   4  467.02   31.24
 -30   0  -4  432.23   26.02
  30   0   4  404.17   30.47
 -30   0  -4  471.32   30.87
 -30   0   4  450.97   30.42
 -30   0  -4  453.48   30.93
 -30   0   4  492.76   26.07
  30   0  -4  434.38   29.61
  30  -1   4   11.73   13.49
  30   1  -4   14.93   12.79
 -30   1   4   20.29   14.07
 -30   1   4   -0.66   12.65
 -30  -1  -4   22.84   13.67
 -30  -1  -4    6.34   13.37
  30  -1   4   32.94   15.19
 -30   1   4   24.63   14.89
  30  -1   4   14.83   14.09
 -30  -1  -4   -2.14   13.37
 -30   1   4    9.74   11.18
  30   1   4   12.89   13.05
  30   1   4   -1.65   12.30
 -30   1  -4    5.97   10.77
 -30   1  -4   16.95   12.07
  30  -1  -4   -2.18   12.05
 -30   1  -4   19.88   13.42
  30  -1  -4    8.93   12.77
 -30   1  -4   18.73   13.11
 -30  -1   4   10.58   13.46
  30  -1  -4   18.03   13.73
 -30  -1   4   43.76   14.33
  30   1   4   14.38   13.21
 -30  -1   4   39.45   14.62
 -30  -1   4    8.63    9.99
  30   1   4   19.80   13.48
 -30  -1   4   24.55   13.70
 -31   0   0   17.09   11.87
 -31   0   0    4.65   11.74
 -31   0   0    8.18    8.53
  31   0   0   21.62   11.91
  31   0   0   22.43   11.87
  31   0   0    6.77   10.18
  31   0   0   27.19   11.70
 -31  -1   0  315.85   25.08
 -31  -1   0  328.00   25.70
  31  -1   0  350.60   25.07
  31  -1   0  296.23   23.77
 -31   1   0  337.10   22.80
  31  -1   0  300.37   23.50
  31   1   0  271.23   21.83
 -31   1   0  368.66   27.06
 -31   1   0  345.41   22.66
  31   1   0  310.39   23.54
 -31  -1   0  315.73   22.35
  31  -1   0  348.81   26.07
  31   1   0  306.25   22.67
 -31   1   0  290.09   24.91
 -31  -2   0   26.46   12.84
  31   2   0    8.30   10.58
  31  -2   0    7.20   11.80
 -31  -2   0   10.79   12.31
 -31   2   0   14.48   12.66
 -31   2   0   -2.15    9.67
  31  -2   0   11.73   12.42
 -31   2   0   10.09   10.94
 -31   2   0   24.13   13.23
  31  -2   0   12.20   13.07
 -31   3   0  227.88   23.10
  31  -3   0  277.26   27.29
 -31  -3   0  220.99   23.32
 -31   3   0  243.35   24.98
  31   3   0  270.51   22.70
  31  -3   0  279.71   28.70
  31  -3   0  269.46   26.81
 -31  -3   0  256.31   24.85
 -31   3   0  230.16   22.55
  31   0  -1    4.21   10.39
 -31   0   1    9.05   12.19
 -31   0  -1   -6.16   10.66
  31   0   1   -4.31   10.36
  31   0   1   -1.53    9.31
 -31   0  -1  -21.07   10.43
  31   0  -1   -3.52   10.33
 -31   0   1   -1.68    7.72
  31   0   1    9.96   11.21
 -31   0  -1    7.34    9.16
 -31   0   1  -13.02   10.41
  31   0  -1    2.19   10.48
  31   0   1   -1.29   10.62
  31   0  -1   20.30   11.25
  31  -1   1   27.06   13.07
 -31  -1  -1    9.85   10.85
  31  -1   1   -4.71   11.56
 -31   1   1   16.86   12.66
 -31   1   1   27.40   13.47
  31  -1   1   19.81   11.69
 -31  -1  -1   12.82   11.97
  31   1  -1   14.16   11.47
 -31  -1  -1    2.14   11.72
  31  -1   1   10.99   11.72
 -31   1   1    6.59    9.35
 -31   1  -1   19.80   13.21
  31   1   1   15.36   11.40
  31  -1  -1   20.24   11.75
  31   1   1   33.04   12.30
 -31  -1   1   23.16   13.30
 -31  -1   1    1.26   11.42
  31  -1  -1    3.62   11.62
  31   1   1   21.11   12.10
 -31   1  -1    3.54   11.13
 -31  -1   1   24.02   10.59
 -31   1  -1   13.36   13.20
 -31   1  -1    4.61    9.08
  31  -1  -1   29.23   12.68
  31  -1  -1    3.07   11.20
 -31   2   1    4.32   12.30
 -31  -2  -1   -3.35   11.94
 -31  -2  -1   11.88   12.12
  31  -2   1    0.16   11.60
  31  -2   1    4.79   12.81
  31   2  -1   13.14   11.37
 -31   2   1    1.39   12.44
 -31   2   1   -2.47   11.31
  31  -2   1   14.52   12.75
 -31   2   1    6.95    9.97
 -31   2  -1    1.73   10.42
  31  -2  -1   13.43   12.44
 -31   2  -1  -12.98   11.23
 -31  -2   1  -10.02   10.92
 -31   2  -1   -9.54    8.83
  31  -2  -1   13.79   12.34
 -31  -2   1  -17.53   10.71
 -31   2  -1   14.02   12.82
  31  -2  -1    8.10   13.23
  31   2   1   16.43   11.64
 -31   3   1   13.10   11.71
  31  -3   1   12.02   13.24
 -31   3   1    2.96   12.31
 -31  -3  -1   20.29   14.20
  31   3  -1   19.06   12.06
  31  -3   1   -6.51   12.35
 -31   3   1   33.94   13.30
  31  -3   1   -4.67   11.29
 -31  -3  -1    3.46   11.66
 -31  -3   1   -2.90   11.41
  31  -3  -1   17.72   13.90
 -31   3  -1   -3.36   10.35
  31  -3  -1    6.61   13.48
  31  -3  -1   29.98   15.63
  31   3   1    6.57   11.19
 -31  -3   1    3.98   12.01
 -31   3  -1   11.36   11.77
  31   0   2  -16.66   10.26
  31   0  -2   36.63   11.81
  31   0  -2   17.67   11.83
 -31   0   2   18.31   12.59
  31   0   2   -1.91   10.01
  31   0   2   23.34   12.26
 -31   0   2    5.73   11.87
 -31   0  -2   11.48   12.63
  31   0   2    0.16   11.18
 -31   0  -2   -3.69    8.37
 -31   0  -2    2.12   11.60
 -31   0   2    9.76    8.95
  31   0  -2    1.53   10.60
 -31  -1  -2  301.24   26.13
 -31   1   2  306.22   25.51
  31  -1   2  276.86   26.49
 -31  -1  -2  280.39   24.90
  31  -1   2  318.05   28.34
  31  -1   2  293.41   25.02
  31   1  -2  263.32   24.70
 -31   1   2  279.82   20.93
 -31   1   2  262.16   25.80
  31   1   2  275.00   23.47
  31   1   2  273.37   23.04
 -31   1  -2  264.97   25.97
 -31   1  -2  270.08   20.93
 -31  -1   2  287.83   24.16
  31  -1  -2  278.32   26.58
  31  -1  -2  289.44   23.02
 -31  -1   2  254.13   24.77
  31   1   2  261.68   22.91
 -31   1  -2  272.85   26.24
  31   1   2  270.06   23.23
 -31  -1   2  285.43   27.69
  31  -1  -2  276.55   24.07
  31  -1  -2  283.36   24.02
 -31   1  -2  260.42   23.77
  31  -2   2   44.15   15.45
  31  -2   2   71.93   16.22
 -31   2   2   52.00   16.94
 -31  -2  -2   48.69   15.34
  31   2  -2   64.23   15.60
 -31   2   2   73.47   14.86
 -31  -2  -2   49.75   15.94
  31  -2   2   54.10   16.17
 -31   2   2   49.12   16.71
 -31   2  -2   49.86   15.27
 -31  -2   2   58.85   14.88
 -31   2  -2   59.92   15.33
 -31   2  -2   58.52   15.59
  31   2   2   30.20   13.45
  31  -2  -2   55.22   15.70
  31  -2  -2   79.01   17.58
 -31   2  -2   57.56   14.67
  31  -2  -2   81.40   17.26
 -31  -2   2   49.89   14.73
  31   3  -2  284.12   25.63
  31  -3   2  255.26   26.31
  31  -3  -2  286.88   28.61
  31  -3  -2  243.93   28.65
 -31   0  -3   -4.24    8.83
  31   0   3  -14.26   10.17
  31   0   3    9.67   13.26
  31   0  -3   33.13   16.94
  31   0   3   -0.11   11.77
 -31   0   3   -0.34   12.63
  31   0  -3   -4.32   11.20
  31   0  -3  -10.11   11.24
 -31   0  -3    3.16   12.00
 -31   0   3  -10.57   11.12
 -31   0   3   -7.22   12.51
 -31   0  -3    6.33   12.53
 -31   0   3  -11.44    8.87
  31   0   3   13.78   11.68
  31   1  -3   -7.05   11.30
  31  -1   3   16.08   13.83
 -31  -1  -3   17.34   13.88
  31  -1   3    8.83   13.55
 -31   1   3    6.67    9.64
 -31   1   3    0.89   13.00
 -31   1   3   21.68   15.03
 -31   1   3   13.33   14.07
  31  -1   3   15.84   13.18
 -31  -1  -3   -4.83   11.57
 -31   1  -3   -4.08    9.53
 -31   1  -3   17.24   11.85
  31   1   3   -0.92   11.57
  31   1   3    7.00   11.14
  31  -1  -3    8.23   12.51
 -31   1  -3   20.22   12.89
  31  -1  -3   30.35   15.46
  31  -1  -3   10.83   12.72
 -31   1  -3    1.27   11.44
  31  -1  -3   15.81   13.05
 -31  -1   3   14.70   13.34
  31   1   3    2.71   12.05
 -31  -1   3   -4.71   10.56
  31   1   3    5.98   11.88
 -31  -2  -3   -3.76   12.75
 -31  -2  -3  -11.13   11.85
  31   2  -3   10.66   12.05
  31  -2   3    9.26   13.40
 -31   2   3    6.10   14.68
  31  -2   3   16.98   14.16
  31  -2   3    6.14   12.57
 -31   2   3    4.18   11.29
 -31   2   3   -3.93   13.33
 -31   2  -3    4.18   12.06
  31  -2  -3   -0.64   12.77
  31  -2  -3   -8.41   12.74
 -31  -2   3  -12.01   10.91
 -31  -2   3   -9.79   11.00
  31   2   3    3.14   12.00
  31  -2  -3    5.10   12.87
 -31   2  -3    5.23   10.85
 -31   2  -3    5.33   11.16
 -31   0  -4    6.61   13.30
 -31   0  -4   -1.02   10.39
 -31   0   4   -3.69   12.36
  31   0   4   23.68   13.37
  31   0   4   14.21   13.63
 -31   0   4   -6.86   12.48
  31   0  -4    0.50   12.62
 -31   0  -4   11.41   13.71
 -31   0   4    8.22   13.04
 -31   0   4   -4.32   12.82
  31   0   4   18.45   14.61
 -31   0   4    2.19    9.86
 -32   0   0  383.87   28.03
  32   0   0  388.88   26.18
  32   0   0  403.79   25.55
  32   0   0  411.97   26.81
 -32   0   0  329.45   26.26
  32   0   0  399.96   26.46
 -32   0   0  381.68   22.12
 -32  -1   0    9.24   12.25
  32   1   0   22.63   11.48
  32  -1   0    9.19   11.48
  32   1   0   10.26   11.22
  32   1   0   35.71   12.78
 -32  -1   0   10.84   13.13
  32  -1   0  -14.32   10.85
 -32   1   0   21.84   12.82
  32  -1   0   25.30   13.30
 -32   1   0    9.33   13.49
 -32   1   0   11.65    9.73
  32  -1   0   23.24   11.84
 -32   2   0  270.59   26.59
  32  -2   0  306.50   27.55
 -32   2   0  292.47   22.73
 -32   2   0  337.18   24.75
 -32   2   0  320.09   29.11
  32  -2   0  313.44   29.12
  32   2   0  261.39   22.82
 -32  -2   0  306.74   25.57
  32  -2   0  306.31   28.87
 -32  -2   0  291.06   25.17
  32   3   0   -9.69   10.90
  32  -3   0   15.87   14.18
 -32  -3   0    7.72   13.20
 -32   3   0   31.34   12.40
 -32   3   0   42.24   13.82
  32  -3   0   35.43   14.95
 -32  -3   0   22.88   13.88
  32  -3   0   12.23   13.18
 -32   3   0   -2.57   11.99
  32   0  -1   12.39   11.70
 -32   0  -1   40.12   14.60
 -32   0   1   50.11   15.01
 -32   0  -1   37.92   11.43
  32   0  -1   45.93   13.99
  32   0  -1   45.59   14.29
  32   0  -1   73.47   15.55
  32   0   1   38.63   13.97
 -32   0   1   30.62   10.03
  32   0   1   47.79   14.23
 -32   0  -1   34.26   14.43
 -32   0   1   26.76   13.57
  32   0   1   35.54   13.72
  32   0   1   71.32   15.08
  32  -1   1    3.76   11.19
 -32   1   1   24.09   13.50
 -32   1   1   33.34   11.70
 -32   1   1   15.18   13.62
  32  -1   1   20.99   13.09
 -32  -1  -1   -4.04   12.22
  32  -1   1   27.18   13.54
  32  -1   1   33.75   14.22
  32   1  -1   36.77   13.35
 -32  -1  -1   15.71   13.32
 -32  -1   1   43.99   14.56
  32   1   1   29.19   12.24
  32  -1  -1   25.81   12.84
  32  -1  -1   17.81   12.42
 -32  -1   1   39.00   15.41
  32  -1  -1    8.35   11.99
 -32   1  -1   21.01   12.32
 -32   1  -1   23.42   13.21
  32   1   1   16.45   12.00
  32  -1  -1   32.51   14.41
  32   1   1   12.20   11.35
 -32   1  -1    5.82    9.75
 -32   1  -1   16.67   13.52
 -32   2   1   37.92   15.24
 -32   2   1   24.95   13.70
 -32  -2  -1   31.98   15.47
  32  -2   1   42.17   14.68
  32  -2   1   32.03   14.77
 -32   2   1   13.58   10.76
 -32   2   1    8.72   11.93
 -32  -2  -1   11.89   13.33
  32  -2   1   32.27   14.84
  32   2  -1   17.24   12.38
  32   2   1   50.64   14.27
 -32   2  -1   35.12   14.94
 -32  -2   1   31.22   13.56
  32  -2  -1   40.88   15.06
 -32   2  -1   25.66   12.10
 -32  -2   1   13.83   13.45
  32  -2  -1   42.77   15.78
  32  -2  -1   30.40   15.09
 -32   2  -1   14.27   11.02
 -32   2  -1   24.36   14.41
 -32   0  -2  267.78   26.57
  32   0   2  283.19   26.92
 -32   0   2  252.52   25.88
 -32   0  -2  232.04   25.02
 -32   0  -2  226.18   20.06
  32   0   2  258.76   25.51
  32   0  -2  258.22   24.60
 -32   0   2  274.47   26.89
  32   0  -2  259.52   25.07
  32   0   2  268.96   26.27
  32   0  -2  267.56   23.62
 -32   0   2  297.25   20.82
  32   0   2  244.36   25.54
  32  -1   2   35.14   14.11
  32   1  -2   21.72   12.98
  32  -1   2   46.82   14.71
 -32   1   2   42.55   12.24
 -32   1   2   73.54   17.54
  32  -1   2   59.03   15.57
 -32  -1  -2   51.76   15.48
 -32  -1  -2   37.09   15.37
 -32   1   2   22.84   14.25
  32  -1  -2   -3.10   11.51
  32  -1  -2   11.24   12.31
  32  -1  -2   34.96   13.49
 -32   1  -2   40.64   12.44
  32   1   2   54.62   15.15
  32   1   2   57.97   15.44
 -32   1  -2   46.90   15.04
 -32  -1   2   50.64   14.95
  32   1   2   55.84   15.76
  32  -1  -2   57.26   15.63
 -32   1  -2   17.01   12.87
 -32   1  -2   44.96   13.54
 -32  -1   2   38.01   14.00
  32  -2   2  352.13   30.50
 -32   2   2  365.65   28.76
 -32   2   2  325.12   27.00
 -32  -2  -2  331.63   26.77
  32  -2   2  353.61   27.64
 -32   2   2  323.27   24.03
  32  -2   2  351.25   28.17
  32   2  -2  312.07   25.13
 -32  -2  -2  309.75   27.56
 -32  -2   2  328.79   25.95
  32  -2  -2  325.95   30.17
 -32   2  -2  348.61   26.40
  32   2   2  344.24   26.47
  32  -2  -2  325.50   27.59
 -32   2  -2  364.52   39.78
  32  -2  -2  372.93   29.13
 -32   2  -2  338.24   24.45
 -32  -2   2  302.76   25.54
 -32   2  -2  361.45   26.87
  32   0   3   20.66   13.79
 -32   0  -3    2.86   12.73
  32   0   3   22.72   13.59
  32   0  -3   24.87   14.02
  32   0   3   24.22   13.18
 -32   0   3   28.44   15.60
  32   0   3   16.05   13.43
 -32   0   3   25.96   11.49
 -32   0  -3   10.27   13.33
 -32   0  -3   13.49   10.52
 -32   0   3   26.58   14.42
  32  -1   3   -7.70   12.01
  32   1  -3   -8.93   11.23
  32  -1   3   22.30   13.75
 -32   1   3   -4.72   13.55
 -32  -1  -3   12.72   14.37
 -32   1   3   -7.07    9.36
 -32  -1  -3   -0.16   12.56
  32  -1   3   10.81   13.17
 -32   1   3  -21.44   12.04
  32  -1  -3   21.33   13.96
  32  -1  -3  -16.48   11.05
  32  -1  -3  -15.70   10.74
 -32   1  -3    3.38   12.51
  32   1   3   10.63   18.05
 -32  -1   3    7.02   13.41
  32   1   3    1.95   10.95
 -32   1  -3    0.06   10.47
 -32  -1   3    1.01   11.28
  32   1   3   -5.81   11.30
 -32   1  -3  -12.37   10.16
 -32   1  -3    8.89   12.72
  32   1   3   -7.00   11.31
  32  -1  -3  -14.70   12.06
  33   0   0   10.88   12.32
  33   0   0   15.63   11.94
  33   0   0   17.92   12.01
 -33   0   0    7.62    9.44
 -33   0   0    9.92   12.61
 -33   0   0   -3.74   12.52
  33   0   0   23.70   12.54
 -33   1   0  248.81   20.35
 -33  -1   0  270.90   26.03
 -33   1   0  280.45   27.61
  33  -1   0  223.72   23.77
  33  -1   0  253.96   25.72
  33  -1   0  261.24   25.53
  33  -1   0  281.31   27.35
 -33   1   0  237.38   25.78
 -33  -1   0  226.82   24.39
  33   1   0  262.96   23.26
  33  -2   0   -4.36   12.31
 -33   2   0   -4.49    9.91
 -33  -2   0    8.10   12.68
 -33   2   0   -9.18   12.76
  33  -2   0    3.11   11.94
  33  -2   0   -6.50   12.23
 -33   2   0   10.38   12.00
 -33   2   0    8.96   13.16
  33   2   0   -0.96   11.30
 -33  -2   0   15.22   13.23
  33   0   1  -27.64    8.77
 -33   0  -1    5.42   12.32
  33   0  -1   12.25   12.28
  33   0  -1   15.71   12.57
 -33   0  -1   -1.04   12.46
  33   0   1  -10.02   11.16
 -33   0  -1   -2.95    9.12
  33   0   1    5.34   11.54
  33   0  -1  -11.22   10.14
 -33   0   1   14.29   13.21
 -33   0   1   18.95    9.57
 -33   0   1   14.71   13.38
  33   0   1    2.21   10.71
  33  -1   1  113.82   19.81
  33   1  -1   71.61   17.20
 -33   1   1   90.40   18.82
 -33  -1  -1   65.18   17.05
 -33   1   1   96.08   14.96
  33  -1   1  104.20   18.12
  33  -1   1   72.89   17.56
 -33   1   1   64.92   17.06
 -33  -1  -1   73.71   17.72
  33   1   1   88.19   16.21
 -33  -1   1   78.69   17.73
 -33   1  -1   81.07   14.30
 -33   1  -1   84.49   18.03
 -33   1  -1   60.38   16.33
  33   1   1   73.55   16.19
  33   1   1   87.58   17.23
  33  -1  -1   84.74   17.98
  33  -1  -1   94.82   19.05
 -33  -1   1   67.13   16.42
  33  -1  -1   75.53   16.85
  33  -1  -1   71.40   16.20
  33   2  -1   19.89   12.50
 -33  -2  -1   11.10   14.35
  33  -2   1   -3.49   12.02
 -33  -2  -1    2.89   12.06
 -33   2   1   14.86   13.76
 -33   2   1    3.31   10.45
  33  -2   1   13.65   13.44
  33  -2   1    8.30   13.04
 -33   2   1   -2.66   13.52
 -33   2  -1  -10.10   12.15
 -33  -2   1   10.69   13.09
 -33  -2   1    2.57   12.85
  33   2   1   11.00   11.94
 -33   2  -1   -4.65   12.60
  33  -2  -1  -11.86   12.05
 -33   2  -1    7.36   10.70
  33  -2  -1   -7.58   12.52
 -33   2  -1   13.79   11.47
  33  -2  -1   -3.41   12.23
  33   0  -2    1.22   11.63
 -33   0  -2   -1.46    8.87
  33   0  -2    8.60   11.35
 -33   0   2  -14.39   11.41
  33   0   2   23.27   13.84
  33   0   2   11.40   11.36
 -33   0  -2   17.54   13.92
  33   0   2   19.56   12.60
  33   0   2    3.89   12.30
 -33   0  -2   11.52   13.56
 -33   0   2   12.55   13.04
 -33   0   2   -1.56    9.63
  33   0  -2   11.78   11.62
 -33  -1  -2  205.02   25.32
 -33   1   2  264.65   27.44
 -33   1   2  227.18   26.06
 -33   1   2  243.84   22.62
  33  -1   2  246.48   26.51
  33  -1   2  235.88   26.36
  33  -1   2  219.79   24.18
  33   1  -2  245.49   25.82
 -33  -1  -2  256.37   26.92
  33   1   2  282.53   27.37
  33  -1  -2  258.64   27.81
 -33   1  -2  251.12   23.16
  33   1   2  274.38   26.05
 -33   1  -2  233.02   25.23
  33  -1  -2  225.19   24.60
  33  -1  -2  282.87   27.09
 -33   1  -2  259.81   27.78
 -33   1  -2  208.59   24.34
  33   1   2  260.74   27.63
 -33  -1   2  231.23   25.14
 -33  -1   2  239.00   24.94
  33  -1  -2  277.68   26.76
  33  -2   2   -2.98   12.30
  33   2  -2    5.37   11.92
  33  -2  -2    2.71   13.35
  33  -2  -2    5.71   12.71
 -33   0  -3    2.40   10.31
  33   0   3    1.45   12.69
  33   0  -3  -11.48   12.01
 -33   0  -3    1.99   13.25
 -33   0   3    8.76   13.33
 -33   0   3   -1.95    9.88
 -33   0  -3   -4.61   12.62
  33   0   3   14.30   13.59
  33   0   3   -2.51   12.52
 -33   0   3    1.37   13.61
 -34   0   0  235.15   19.67
  34   0   0  251.40   25.17
 -34   0   0  262.24   25.91
  34   0   0  266.34   25.38
 -34   0   0  215.63   25.01
  34   0   0  196.53   22.66
  34   0   0  206.85   23.55
  34  -1   0   13.48   12.18
 -34   1   0   -6.78   12.46
 -34  -1   0   12.53   13.66
 -34  -1   0  -11.94   12.54
  34  -1   0   27.65   13.87
  34  -1   0   14.16   12.09
 -34   1   0    3.55   13.18
 -34   1   0   -4.91    9.66
  34   1   0    5.67   11.24
  34  -1   0   -6.16   12.01
 -34   2   0  182.93   21.55
  34  -2   0  232.48   26.43
  34  -2   0  177.82   23.73
 -34   2   0  185.85   20.45
  34   2   0  142.22   19.82
  34  -2   0  204.73   24.92
  34   0   1   61.54   15.83
  34   0   1   46.46   15.21
 -34   0   1   59.55   12.95
 -34   0   1   56.87   17.24
 -34   0  -1   31.17   14.82
  34   0  -1   68.95   15.63
  34   0   1   23.71   13.35
  34   0   1   59.67   15.18
 -34   0  -1   52.30   16.85
  34   0  -1   69.08   15.59
  34   0  -1   80.55   16.53
 -34   0  -1   52.38   12.53
 -34   0   1   33.31   15.38
  34  -1   1   35.58   14.71
 -34   1   1   40.77   15.97
 -34   1   1   14.80   11.53
 -34  -1  -1   20.95   14.76
 -34  -1  -1   24.84   15.13
  34   1  -1   19.76   14.23
 -34   1   1   20.05   14.24
  34  -1   1    1.07   12.42
  34  -1   1    4.60   12.22
 -34   1  -1   24.42   12.17
 -34   1  -1    7.21   13.99
  34  -1  -1   40.46   15.22
  34  -1  -1   33.83   14.06
 -34  -1   1   12.68   13.76
  34  -1  -1   34.56   13.78
  34   1   1   32.88   14.06
 -34   1  -1   32.13   15.10
  34   1   1    6.92   13.58
  34   1   1   -2.64   15.94
 -34  -1   1   32.28   15.76
  34  -1  -1   15.50   12.00
 -34   0   2  288.88   28.43
 -34   0  -2  332.36   27.99
  34   0   2  309.98   28.80
  34   0   2  300.43   27.41
  34   0   2  292.38   25.31
  34   0   2  302.96   26.08
 -34   0   2  271.61   21.54
 -34   0   2  256.90   27.46
  34   0  -2  288.34   33.86
  34   0  -2  316.58   26.57
 -34   0  -2  314.27   21.50
 -34   0  -2  312.24   27.31
 -34   1   2   18.10   11.46
  34   1  -2   14.40   12.76
 -34  -1  -2   12.32   12.82
 -34  -1  -2   22.18   14.55
  34  -1   2   26.70   14.78
  34  -1   2   13.18   13.15
 -34   1   2    7.66   13.69
  34  -1   2   12.05   13.31
 -34   1   2   16.83   14.04
  34  -1  -2    5.29   11.61
 -34   1  -2   13.59   11.20
 -34   1  -2    7.46   13.52
  34  -1  -2   30.59   14.67
 -34  -1   2   30.52   13.82
 -34  -1   2    6.21   13.41
  34  -1  -2   -9.57   13.01
  34   1   2   25.57   13.92
  34  -1  -2   22.49   13.35
  34   1   2   16.67   12.76
 -34   1  -2   26.92   14.80
  34   1   2   -1.54   12.03
 -35   0   0   20.39   14.91
  35   0   0    4.81   11.80
  35   0   0    7.49   12.56
 -35   0   0   -0.02   13.03
 -35   0   0    5.84    9.90
  35   0   0    4.77   12.37
 -35   1   0  129.92   17.91
  35  -1   0  165.81   22.75
  35   1   0  166.20   21.46
 -35   1   0  175.19   23.76
  35  -1   0  187.86   23.93
 -35   1   0  165.93   23.29
 -35  -1   0  163.57   22.71
 -35  -1   0  194.78   24.68
  35  -1   0  160.02   22.18
  35   0   1   -5.62   10.98
  35   0   1    2.22   12.66
  35   0   1  -19.98   10.00
  35   0   1  -24.60   10.00
 -35   0  -1   12.28    9.64
 -35   0  -1   -2.18   13.13
  35   0  -1   -0.14   11.40
  35   0  -1    6.98   12.15
  35   0  -1    4.44   11.91
 -35   0   1    6.42   13.82
 -35   0   1   -1.16    9.33
 -35   0   1   -5.73   13.13
 -35   0  -1  -18.33   12.14
   0   0   0    0.00    0.00

_computing_structure_solution     'SHELXT 2018/2 (Sheldrick, 2018)'
;
_olex2_submission_special_instructions 'No special instructions were received'
loop_
_space_group_symop_operation_xyz
'x, y, z'
'-x, -y, z+1/2'
'x+1/2, -y, z'
'-x+1/2, y, z+1/2'
loop_
_atom_site_label
_atom_site_type_symbol
_atom_site_fract_x
_atom_site_fract_y
_atom_site_fract_z
_atom_site_U_iso_or_equiv
_atom_site_adp_type
_atom_site_occupancy
_atom_site_site_symmetry_order
_atom_site_calc_flag
_atom_site_refinement_flags_posn
_atom_site_refinement_flags_adp
_atom_site_refinement_flags_occupancy
_atom_site_disorder_assembly
_atom_site_disorder_group
Ag1 Ag 0.23297(2) -0.23613(8) 0.5392(2) 0.01667(10) Uani 1 1 d . . . . .
O1 O 0.28784(19) 0.0806(10) 0.4632(8) 0.0172(10) Uani 1 1 d . . . . .
N1 N 0.3166(2) 0.4285(11) 0.1424(9) 0.0136(10) Uani 1 1 d . . . . .
H1A H 0.295094 0.301143 0.207655 0.016 Uiso 1 1 calc R . . . .
H1B H 0.331379 0.352542 0.016818 0.016 Uiso 1 1 calc R . . . .
C2 C 0.3592(3) 0.4935(14) 0.2972(11) 0.0120(11) Uani 1 1 d . . . . .
O2 O 0.3356(2) 0.0433(10) 0.7793(8) 0.0166(9) Uani 1 1 d . . . . .
C7 C 0.3276(2) 0.1445(13) 0.5902(9) 0.0129(12) Uani 1 1 d . U . . .
C1 C 0.3646(2) 0.3629(12) 0.5040(10) 0.0112(11) Uani 1 1 d . U . . .
C5 C 0.4419(3) 0.6384(15) 0.5808(9) 0.0163(14) Uani 1 1 d . . . . .
C6 C 0.4074(3) 0.4374(15) 0.6456(11) 0.0165(13) Uani 1 1 d . . . . .
H6 H 0.412470 0.348072 0.786222 0.020 Uiso 1 1 calc R . . . .
C4 C 0.4375(3) 0.7705(16) 0.3742(13) 0.0224(14) Uani 1 1 d . . . . .
H4 H 0.462109 0.908541 0.331301 0.027 Uiso 1 1 calc R . . . .
F1 F 0.4827(2) 0.7108(11) 0.7189(10) 0.0381(13) Uani 1 1 d . . . . .
C3 C 0.3956(3) 0.6922(14) 0.2331(12) 0.0178(13) Uani 1 1 d . . . . .
H3 H 0.391782 0.776687 0.089766 0.021 Uiso 1 1 calc R . . . .
loop_
_atom_site_aniso_label
_atom_site_aniso_U_11
_atom_site_aniso_U_22
_atom_site_aniso_U_33
_atom_site_aniso_U_23
_atom_site_aniso_U_13
_atom_site_aniso_U_12
Ag1 0.02232(18) 0.01259(17) 0.01511(16) 0.0015(4) 0.0043(3) -0.00376(16)
O1 0.018(2) 0.020(2) 0.014(2) 0.0046(18) -0.0030(17) -0.0072(19)
N1 0.022(3) 0.015(3) 0.004(2) -0.001(2) -0.002(2) 0.001(2)
C2 0.012(2) 0.013(3) 0.010(3) 0.000(2) 0.000(2) 0.000(2)
O2 0.020(2) 0.018(2) 0.011(2) 0.0034(19) 0.0022(18) -0.002(2)
C7 0.0139(15) 0.0133(16) 0.0116(17) -0.0005(12) 0.0002(11) 0.0000(12)
C1 0.0112(11) 0.0112(11) 0.0112(11) 0.00000(14) 0.00000(14) 0.00000(14)
C5 0.016(3) 0.026(3) 0.008(3) -0.001(2) -0.004(2) -0.004(2)
C6 0.017(3) 0.020(3) 0.013(3) 0.001(3) -0.001(2) 0.000(3)
C4 0.021(3) 0.018(3) 0.029(4) 0.003(3) 0.001(3) -0.004(3)
F1 0.031(3) 0.036(3) 0.047(3) 0.004(3) -0.020(2) -0.014(2)
C3 0.021(3) 0.013(3) 0.019(3) 0.004(2) 0.002(3) -0.001(2)
loop_
_atom_type_symbol
_atom_type_description
_atom_type_scat_dispersion_real
_atom_type_scat_dispersion_imag
_atom_type_scat_source
C C 0.0033 0.0016 'International Tables Vol C Tables 4.2.6.8 and 6.1.1.4'
H H 0.0000 0.0000 'International Tables Vol C Tables 4.2.6.8 and 6.1.1.4'
Ag Ag -0.8971 1.1015 'International Tables Vol C Tables 4.2.6.8 and 6.1.1.4'
F F 0.0171 0.0103 'International Tables Vol C Tables 4.2.6.8 and 6.1.1.4'
N N 0.0061 0.0033 'International Tables Vol C Tables 4.2.6.8 and 6.1.1.4'
O O 0.0106 0.0060 'International Tables Vol C Tables 4.2.6.8 and 6.1.1.4'
loop_
_geom_angle_atom_site_label_1
_geom_angle_atom_site_label_2
_geom_angle_atom_site_label_3
_geom_angle
_geom_angle_site_symmetry_1
_geom_angle_site_symmetry_3
Ag1 Ag1 Ag1 148.10(3) 4 4_554
O1 Ag1 Ag1 91.56(13) . 4
O1 Ag1 Ag1 67.64(14) . 4_554
O1 Ag1 N1 173.9(2) . 4_545
N1 Ag1 Ag1 83.34(14) 4_545 4
N1 Ag1 Ag1 115.50(14) 4_545 4_554
C7 O1 Ag1 123.5(4) . .
C2 N1 Ag1 115.6(4) . 4_564
C1 C2 N1 122.0(6) . .
C3 C2 N1 117.6(6) . .
C3 C2 C1 120.4(6) . .
C7 O2 Ag1 128.5(4) . 4
O1 C7 C1 116.6(5) . .
O2 C7 O1 123.7(6) . .
O2 C7 C1 119.7(6) . .
C2 C1 C7 124.9(5) . .
C2 C1 C6 118.5(6) . .
C6 C1 C7 116.6(5) . .
C6 C5 C4 122.6(6) . .
F1 C5 C6 119.5(6) . .
F1 C5 C4 117.9(6) . .
C5 C6 C1 119.9(6) . .
C3 C4 C5 117.2(6) . .
C2 C3 C4 121.4(6) . .
loop_
_geom_bond_atom_site_label_1
_geom_bond_atom_site_label_2
_geom_bond_distance
_geom_bond_site_symmetry_2
Ag1 Ag1 3.0783(6) 4_554
Ag1 Ag1 3.0783(6) 4
Ag1 O1 2.121(5) .
Ag1 N1 2.150(6) 4_545
O1 C7 1.280(7) .
N1 C2 1.436(8) .
C2 C1 1.389(8) .
C2 C3 1.386(9) .
O2 C7 1.242(7) .
C7 C1 1.505(8) .
C1 C6 1.405(9) .
C5 C6 1.364(9) .
C5 C4 1.390(10) .
C5 F1 1.350(7) .
C4 C3 1.389(10) .
loop_
_geom_torsion_atom_site_label_1
_geom_torsion_atom_site_label_2
_geom_torsion_atom_site_label_3
_geom_torsion_atom_site_label_4
_geom_torsion
_geom_torsion_site_symmetry_1
_geom_torsion_site_symmetry_2
_geom_torsion_site_symmetry_3
_geom_torsion_site_symmetry_4
Ag1 O1 C7 O2 -6.2(9) . . . .
Ag1 O1 C7 C1 176.3(4) . . . .
Ag1 N1 C2 C1 124.5(6) 4_564 . . .
Ag1 N1 C2 C3 -55.9(7) 4_564 . . .
Ag1 O2 C7 O1 -16.3(9) 4 . . .
Ag1 O2 C7 C1 161.2(4) 4 . . .
O1 C7 C1 C2 -1.4(9) . . . .
O1 C7 C1 C6 178.6(6) . . . .
N1 C2 C1 C7 -0.3(10) . . . .
N1 C2 C1 C6 179.8(6) . . . .
N1 C2 C3 C4 179.0(6) . . . .
C2 C1 C6 C5 1.5(10) . . . .
O2 C7 C1 C2 -179.0(6) . . . .
O2 C7 C1 C6 0.9(9) . . . .
C7 C1 C6 C5 -178.5(6) . . . .
C1 C2 C3 C4 -1.4(10) . . . .
C5 C4 C3 C2 0.9(11) . . . .
C6 C5 C4 C3 0.8(11) . . . .
C4 C5 C6 C1 -2.0(11) . . . .
F1 C5 C6 C1 179.3(6) . . . .
F1 C5 C4 C3 179.5(7) . . . .
C3 C2 C1 C7 -179.9(6) . . . .
C3 C2 C1 C6 0.2(9) . . . .
loop_
_twin_individual_id
_twin_individual_mass_fraction_refined
1 0.96(8)
2 0.04(8)
