#------------------------------------------------------------------------------
#$Date: 2022-03-06 06:37:54 +0200 (Sun, 06 Mar 2022) $
#$Revision: 273468 $
#$URL: file:///home/coder/svn-repositories/cod/cif/1/56/59/1565967.cif $
#------------------------------------------------------------------------------
#
# This file is available in the Crystallography Open Database (COD),
# http://www.crystallography.net/
#
# All data on this site have been placed in the public domain by the
# contributors.
#
data_1565967
loop_
_publ_author_name
'Wildner, Manfred'
'Zakharov, Boris A.'
'Bogdanov, Nikita E.'
'Talla, Dominik'
'Boldyreva, Elena V.'
'Miletich, Ronald'
_publ_section_title
;
 Crystallography relevant to Mars and Galilean icy moons: crystal behavior
 of kieserite-type monohydrate sulfates at extraterrestrial conditions
 down to 15 K
;
_journal_issue                   2
_journal_name_full               IUCrJ
_journal_page_first              194
_journal_page_last               203
_journal_paper_doi               10.1107/S2052252521012720
_journal_volume                  9
_journal_year                    2022
_chemical_formula_sum            'H2 Ni O5 S'
_chemical_formula_weight         172.79
_space_group_crystal_system      monoclinic
_space_group_IT_number           15
_space_group_name_Hall           '-C 2yc'
_space_group_name_H-M_alt        'C 1 2/c 1'
_atom_sites_solution_hydrogens   difmap
_audit_creation_method           SHELXL-2017/1
_cell_angle_alpha                90
_cell_angle_beta                 117.776(10)
_cell_angle_gamma                90
_cell_formula_units_Z            4
_cell_length_a                   6.8332(10)
_cell_length_b                   7.6026(10)
_cell_length_c                   7.4669(10)
_cell_measurement_temperature    313(2)
_cell_volume                     343.21(9)
_computing_structure_refinement  'SHELXL-2017/1 (Sheldrick, 2017)'
_diffrn_ambient_temperature      313(2)
_diffrn_measured_fraction_theta_full 1.000
_diffrn_measured_fraction_theta_max 1.000
_diffrn_radiation_type           MoK\a
_diffrn_radiation_wavelength     0.71073
_diffrn_reflns_av_R_equivalents  0.0247
_diffrn_reflns_av_unetI/netI     0.0115
_diffrn_reflns_Laue_measured_fraction_full 1.000
_diffrn_reflns_Laue_measured_fraction_max 1.000
_diffrn_reflns_limit_h_max       12
_diffrn_reflns_limit_h_min       -12
_diffrn_reflns_limit_k_max       13
_diffrn_reflns_limit_k_min       -13
_diffrn_reflns_limit_l_max       13
_diffrn_reflns_limit_l_min       -13
_diffrn_reflns_number            10700
_diffrn_reflns_point_group_measured_fraction_full 1.000
_diffrn_reflns_point_group_measured_fraction_max 1.000
_diffrn_reflns_theta_full        25.242
_diffrn_reflns_theta_max         39.987
_diffrn_reflns_theta_min         4.286
_exptl_absorpt_coefficient_mu    6.137
_exptl_absorpt_correction_T_max  0.7482
_exptl_absorpt_correction_T_min  0.6299
_exptl_absorpt_correction_type   multi-scan
_exptl_absorpt_process_details
;
 SADABS 2016/2: Krause, L., Herbst-Irmer, R., Sheldrick G.M. & Stalke D.,
 J. Appl. Cryst. 48 (2015) 3-10
;
_exptl_crystal_density_diffrn    3.344
_exptl_crystal_F_000             344
_refine_diff_density_max         0.709
_refine_diff_density_min         -0.611
_refine_diff_density_rms         0.113
_refine_ls_extinction_coef       0.0267(14)
_refine_ls_extinction_expression Fc^*^=kFc[1+0.001xFc^2^\l^3^/sin(2\q)]^-1/4^
_refine_ls_extinction_method     'SHELXL-2017/1 (Sheldrick 2017)'
_refine_ls_goodness_of_fit_ref   1.133
_refine_ls_hydrogen_treatment    refall
_refine_ls_matrix_type           full
_refine_ls_number_parameters     40
_refine_ls_number_reflns         1068
_refine_ls_number_restraints     0
_refine_ls_restrained_S_all      1.133
_refine_ls_R_factor_all          0.0166
_refine_ls_R_factor_gt           0.0159
_refine_ls_shift/su_max          0.000
_refine_ls_shift/su_mean         0.000
_refine_ls_structure_factor_coef Fsqd
_refine_ls_weighting_details
'w=1/[\s^2^(Fo^2^)+(0.0210P)^2^+0.3300P] where P=(Fo^2^+2Fc^2^)/3'
_refine_ls_weighting_scheme      calc
_refine_ls_wR_factor_gt          0.0416
_refine_ls_wR_factor_ref         0.0419
_reflns_Friedel_coverage         0.000
_reflns_number_gt                1034
_reflns_number_total             1068
_reflns_threshold_expression     'I > 2\s(I)'
_cod_data_source_file            lt5044.cif
_cod_data_source_block           NiSO4H2O_N2_313K
_cod_depositor_comments
'Adding full bibliography for 1565934--1565967.cif.'
_cod_original_sg_symbol_H-M      'C 2/c'
_cod_database_code               1565967
_shelx_shelxl_version_number     2017/1
_shelx_space_group_comment
;
The symmetry employed for this shelxl refinement is uniquely defined
by the following loop, which should always be used as a source of
symmetry information in preference to the above space-group names.
They are only intended as comments.
;
_shelx_res_file
;
TITL 1991nikies 313K Apex in C2/c kieserite cell
    latt_corr_for_Nonius20C_nikies313K_0m.res
    created by SHELXL-2017/1 at 09:38:22 on 01-Dec-2018
REM meas. mon  6.8214(1) 7.5909(1) 7.3945(1) 90.0 116.9153(5) 90.0
REM trans. cryscomp 6.8214 7.5909 7.4528 90.0  117.785 90.0
REM meas.trcl 6.8214(1) 7.5909(1) 7.3945(1) 90.0020(5) 116.9153(5) 89.9951(5)
REM trans. cryscomp 6.8214 7.5909 7.4528 90.003 117.785 89.995
REM CELL 0.71073   6.8214 7.5909 7.4528 90.0  117.785 90.0
REM latt corr for Nonius20C +.0118 +.0117 +.0141     -.0088
CELL 0.71073   6.8332 7.6026 7.4669 90.0 117.776  90.0
ZERR    4.00   0.001   0.001   0.001   0.00   0.01   0.00
LATT  7
SYMM -X, Y, .5-Z
SFAC O H S NI
UNIT 20 8 4 4
SHEL 20 0.55285
REM DAMP 10000
L.S. 10
CONN 12 1.8 $O
EQIV $9 -x+1/2, y+1/2, -z+1/2
BOND $H
FMAP 2
PLAN 20
ACTA
HTAB O3 O2_$9
HTAB
WGHT    0.021000    0.330000
EXTI    0.026681
FVAR       0.74991
NI    4    0.000000    0.500000    0.000000    10.50000    0.00586    0.00709 =
         0.00627    0.00029    0.00251   -0.00018
S     3    0.000000    0.156514    0.250000    10.50000    0.00440    0.00604 =
         0.00675    0.00000    0.00215    0.00000
O1    1    0.172900    0.046253    0.403174    11.00000    0.00726    0.01485 =
         0.01439    0.00719    0.00413    0.00359
O2    1    0.102761    0.269754    0.154482    11.00000    0.01000    0.00957 =
         0.01406    0.00425    0.00752    0.00137
O3    1    0.000000    0.631318    0.250000    10.50000    0.00852    0.01028 =
         0.00873    0.00000    0.00426    0.00000
H     2    0.106532    0.695752    0.293886    11.00000    0.02292
HKLF 4 1  -1 0 0 0 -1 0 1 0 1




REM  1991nikies 313K Apex in C2/c kieserite cell
REM R1 =  0.0159 for    1034 Fo > 4sig(Fo)  and  0.0166 for all    1068 data
REM     40 parameters refined using      0 restraints

END

WGHT      0.0206      0.3464

REM Instructions for potential hydrogen bonds
EQIV $5 x+1/2, y+1/2, z
HTAB O3 S_$5
HTAB O3 O2_$9

REM Highest difference peak  0.709,  deepest hole -0.611,  1-sigma level  0.113
Q1    1  -0.0678  0.5595  0.0009  11.00000  0.05    0.71
Q2    1   0.0623  0.5704  0.0005  11.00000  0.05    0.62
Q3    1  -0.1270  0.6290  0.0033  11.00000  0.05    0.59
Q4    1   0.3259  0.1718  0.4951  11.00000  0.05    0.58
Q5    1   0.2500  0.7500  0.5000  10.50000  0.05    0.55
Q6    1   0.2500  0.2500  0.5000  10.50000  0.05    0.48
Q7    1   0.0695  0.4940  0.0875  11.00000  0.05    0.46
Q8    1   0.0636  0.2347  0.2284  11.00000  0.05    0.45
Q9    1   0.0939  0.1070  0.3607  11.00000  0.05    0.44
Q10   1   0.2440  0.3911  0.2486  11.00000  0.05    0.40
Q11   1   0.1594  0.3202  0.2464  11.00000  0.05    0.40
Q12   1   0.0492  0.2029  0.1526  11.00000  0.05    0.37
Q13   1   0.1420  0.0262  0.2560  11.00000  0.05    0.31
Q14   1  -0.0879  0.0775  0.2261  11.00000  0.05    0.31
Q15   1   0.1988 -0.0399  0.2520  11.00000  0.05    0.30
Q16   1   0.0251  0.5746  0.2141  11.00000  0.05    0.30
Q17   1   0.0000  0.4699  0.2500  10.50000  0.05    0.29
Q18   1   0.0460  0.3408  0.1439  11.00000  0.05    0.27
Q19   1   0.1650  0.5360  0.1053  11.00000  0.05    0.18
Q20   1   0.2769  0.1486  0.3884  11.00000  0.05    0.17
;
_shelx_res_checksum              75033
_shelx_hkl_file
;
   2   0   0 75.2955 3.33256  10
   2   0   0 77.3174 3.04997  12
  -2   0   0 82.2314 3.84504  11
  -2   0   0 73.0430 3.20937  16
   2   0   0 74.9972 3.04264   4
  -2   0   0 74.5629 3.02741   5
  -2   0   0 76.5078 3.38921  10
  -2   0   0 75.9861 3.13292   1
  -4   0   0 9328.36 268.625   8
  -4   0   0 9999.99 267.238   1
  -4   0   0 9762.85 263.826   5
  -4   0   0 9695.91 272.646  16
   4   0   0 9879.15 266.240  14
   4   0   0 9602.46 259.249   2
   4   0   0 9770.22 268.118  12
   4   0   0 9508.87 260.286   4
   4   0   0 9486.07 268.345  10
  -4   0   0 9894.91 271.152  11
   6   0   0 11.1692 2.29001   4
  -6   0   0 9.19148 3.01995  11
   6   0   0 13.2954 2.55133  12
  -6   0   0 10.9408 2.46029   1
   6   0   0 8.06031 2.54205  10
  -6   0   0 11.9681 2.47927  16
   6   0   0 19.2471 3.40191  14
  -6   0   0 11.4549 1.91568   5
  -6   0   0 14.1358 2.66463   8
   8   0   0 1634.16 47.6042   4
   8   0   0 1536.26 48.5029  10
   8   0   0 1528.38 49.1219  14
  -8   0   0 1665.18 48.5687   1
  -8   0   0 1600.74 53.3545  11
  -8   0   0 1607.46 48.8632   8
   8   0   0 1554.84 48.0385  12
  10   0   0 13.5483 4.24319  14
 -10   0   0 10.6777 4.57889   1
 -10   0   0 18.4731 7.20619  11
  10   0   0 8.82188 3.61072  12
  10   0   0 12.9118 4.22731   4
  -1  -1   0 1693.79 44.9737  16
  -1  -1   0 1668.70 46.3087  10
   1  -1   0 1662.82 44.7231  10
  -1   1   0 1620.16 45.9261  16
   1   1   0 1707.56 44.7026  14
   1   1   0 1741.25 46.3848  10
  -1   1   0 1584.51 44.6691  10
  -1   1   0 1579.89 45.4436  13
  -3  -1   0 7.84883 1.92077  11
  -3  -1   0 8.70705 1.38506   5
  -3  -1   0 8.51667 1.69912  16
  -3  -1   0 5.59670 1.08431  10
   3  -1   0 6.79235 1.42212  10
   3  -1   0 8.54608 1.34906  12
   3  -1   0 8.79617 1.09121   2
   3  -1   0 5.94423 1.08751   4
  -3  -1   0 12.2634 1.59254   1
   3   1   0 12.2243 1.52962  12
  -3   1   0 7.05897 0.94396   5
   3   1   0 8.27331 1.42445  10
  -3   1   0 6.87074 1.37460   1
   3   1   0 7.68580 1.38403   4
  -3   1   0 7.74835 1.17430  16
  -3   1   0 9.77784 1.55560  10
   3   1   0 9.51191 1.61822  14
   5  -1   0 973.086 27.0482   2
  -5  -1   0 971.131 29.4096   8
   5  -1   0 961.776 28.8244  12
  -5  -1   0 988.432 30.1263  16
  -5  -1   0 938.593 28.8338   1
   5  -1   0 940.946 29.5061  14
   5  -1   0 1003.12 30.1231  10
  -5  -1   0 984.951 31.9042  11
   5  -1   0 967.747 28.6387   4
  -5  -1   0 959.056 28.2787   5
   5   1   0 959.188 28.5058   4
  -5   1   0 965.525 27.5458   5
   5   1   0 981.915 29.2612  10
   5   1   0 967.888 28.9072  12
  -5   1   0 982.406 28.8053  16
  -5   1   0 957.990 31.5427  11
  -5   1   0 949.878 29.0167   1
   5   1   0 977.895 30.1023  14
  -5   1   0 952.897 29.2029   8
   7  -1   0 22.6238 3.67974  10
  -7  -1   0 21.3824 3.81943   1
  -7  -1   0 31.4319 5.98380  11
  -7  -1   0 29.8083 4.26915   8
   7  -1   0 25.4889 3.64768  12
  -7  -1   0 21.5870 2.99852   5
   7  -1   0 24.3356 3.95777  14
   7  -1   0 26.5089 3.88233   4
  -7  -1   0 24.0303 3.84158  16
   7   1   0 21.5194 3.46023  12
  -7   1   0 26.2147 5.43328  11
   7   1   0 23.8639 3.45196  10
  -7   1   0 26.9082 4.07349   1
   7   1   0 26.2452 3.49992   4
  -7   1   0 27.0981 3.96294   8
   7   1   0 22.9153 3.89151  14
   9  -1   0 107.767 8.09543   4
  -9  -1   0 108.849 11.8692  11
  -9  -1   0 96.5712 8.11147   1
   9  -1   0 80.8606 7.75627  14
   9  -1   0 94.1647 7.64003  12
  -9   1   0 92.3196 10.7179  11
  -9   1   0 100.753 8.38142   8
   9   1   0 95.2527 7.70697   4
  -9   1   0 104.365 8.86634   1
   9   1   0 99.3747 7.92792  12
   9   1   0 101.181 8.71736  14
  11  -1   0 49.5786 6.50708   4
 -11  -1   0 61.4705 6.88462   1
 -11  -1   0 70.1212 11.5613  11
 -11   1   0 61.1131 10.4181  11
 -11   1   0 62.0875 8.07393   1
  11   1   0 54.0198 6.75197   4
   0  -2   0 2247.62 60.2016   2
   0  -2   0 2249.05 62.3810  10
   0   2   0 2233.96 61.3645  13
   0   2   0 2253.35 60.2035   3
   0   2   0 2273.14 61.6925  14
  -2  -2   0 766.591 21.9991   1
   2  -2   0 792.689 22.1977  12
  -2  -2   0 816.812 22.2560   5
  -2  -2   0 819.503 23.3399  11
   2  -2   0 782.202 22.7931  10
   2  -2   0 778.642 22.0818   2
  -2  -2   0 797.884 23.2901  16
  -2  -2   0 808.964 21.6994  10
  -2   2   0 754.238 22.0652  13
  -2   2   0 786.723 22.7633  10
   2   2   0 789.009 22.7681  14
  -2   2   0 759.545 21.9648   8
  -2   2   0 739.991 21.7980   3
  -2   2   0 767.491 21.9771   7
   2   2   0 774.559 22.0729  12
   2   2   0 773.295 21.6761   4
   2   2   0 788.132 21.5713  10
  -2   2   0 761.804 21.3525  16
   4  -2   0 2135.96 60.1050  12
  -4  -2   0 2186.07 60.1189   5
  -4  -2   0 2204.36 60.8158   8
  -4  -2   0 2202.01 62.8406  11
  -4  -2   0 2169.91 61.8796  16
   4  -2   0 2232.52 60.1088   4
   4  -2   0 2182.90 59.3999   2
  -4  -2   0 2087.05 60.0600   1
   4  -2   0 2237.84 61.5281  10
  -4   2   0 2214.94 60.4675   1
  -4   2   0 2205.58 60.1865  13
   4   2   0 2243.71 60.0947  10
   4   2   0 2140.74 60.1273  12
  -4   2   0 2179.24 60.3353   8
   4   2   0 2187.64 59.7859   4
  -4   2   0 2196.24 59.3628  16
   4   2   0 2252.94 61.5123  14
  -4   2   0 2013.52 58.7860   5
   6  -2   0 1465.83 44.6946  14
  -6  -2   0 1523.13 44.1059   1
   6  -2   0 1507.34 45.5987  10
  -6  -2   0 1522.20 44.8656   8
  -6  -2   0 1499.00 45.9925  16
  -6  -2   0 1488.45 47.6401  11
  -6  -2   0 1469.07 43.4174   5
   6  -2   0 1552.30 43.9317   4
   6  -2   0 1474.96 44.0361  12
  -6   2   0 1550.30 47.8687  11
   6   2   0 1470.75 43.7524  10
   6   2   0 1558.87 43.6195   4
  -6   2   0 1525.01 44.4509   1
  -6   2   0 1506.99 44.3778   8
   6   2   0 1473.50 45.4877  14
   6   2   0 1511.30 44.1326  12
   8  -2   0 758.427 26.7827  12
   8  -2   0 804.017 26.4439   4
   8  -2   0 759.475 27.6409  14
  -8  -2   0 794.194 25.8037   5
  -8  -2   0 793.843 31.8682  11
  -8  -2   0 792.047 26.8714   1
   8   2   0 781.581 28.3984  14
  -8   2   0 813.960 32.0046  11
   8   2   0 807.765 26.2475   4
  -8   2   0 797.316 27.1989   1
   8   2   0 775.064 27.0651  12
  -8   2   0 812.338 27.3818   8
 -10  -2   0 680.731 25.4407   1
  10  -2   0 667.217 24.7083   4
  10  -2   0 534.738 25.9918  12
 -10  -2   0 711.947 32.0321  11
 -10   2   0 724.120 32.2659  11
  10   2   0 693.324 24.4496   4
  10   2   0 660.694 25.5414  12
 -10   2   0 720.890 26.6755   1
   1  -3   0 145.027 5.30451  12
  -1  -3   0 143.536 4.95278   2
   1  -3   0 146.009 5.43433   2
   1  -3   0 143.867 4.81780   6
  -1  -3   0 146.008 5.25952   5
  -1  -3   0 132.799 5.55246  11
   1  -3   0 151.251 5.47221  10
  -1  -3   0 137.169 5.93500  16
   1   3   0 139.613 4.51764   4
  -1   3   0 138.404 5.15610   3
   1   3   0 136.378 5.16521   3
  -1   3   0 153.090 5.37047  10
  -1   3   0 169.554 5.45322  13
  -1   3   0 140.716 4.90569   8
   1   3   0 137.666 5.44537  14
   1   3   0 143.026 5.15188  13
   1   3   0 143.226 5.28030  12
  -1   3   0 137.529 4.81035   7
   3  -3   0 1004.71 29.1233   2
   3  -3   0 1014.08 29.3732  12
  -3  -3   0 1033.70 29.3832   5
  -3  -3   0 1061.43 31.1324  16
  -3  -3   0 1026.55 29.1450   1
  -3  -3   0 1074.54 30.9978  11
   3  -3   0 1045.35 30.4053  10
  -3   3   0 992.385 28.9950   7
   3   3   0 1018.25 28.5597   4
   3   3   0 1021.09 29.3895  12
  -3   3   0 990.741 29.2188  13
   3   3   0 1066.07 30.3846  14
  -3   3   0 973.782 29.3038   1
  -3   3   0 996.779 28.8623   3
  -3   3   0 1001.58 27.9530  16
  -3   3   0 1001.04 29.0636   8
   5  -3   0 28.9030 3.21267   4
  -5  -3   0 22.2456 4.14972  11
  -5  -3   0 23.3234 3.01201   5
   5  -3   0 19.6975 3.14275  10
   5  -3   0 23.8626 2.63954   2
   5  -3   0 19.0932 2.83425  12
  -5  -3   0 24.4925 3.02509   1
  -5  -3   0 24.2454 3.71986  16
   5   3   0 24.5821 2.86516   4
   5   3   0 22.7537 2.22953  10
   5   3   0 19.9588 2.83469  12
  -5   3   0 24.2226 2.91765   8
  -5   3   0 21.4012 3.13706   1
   5   3   0 26.4262 3.91907  14
   7  -3   0 122.792 8.84727  10
  -7  -3   0 142.755 10.9312  11
   7  -3   0 141.954 7.68929   4
   7  -3   0 127.187 8.01673  14
  -7  -3   0 126.025 7.84250   1
  -7  -3   0 130.727 7.64037   5
   7  -3   0 132.371 7.95313  12
   7   3   0 129.721 7.76098  12
  -7   3   0 147.565 8.81584   1
   7   3   0 137.635 7.20616   4
  -7   3   0 135.500 10.5773  11
   7   3   0 140.283 9.29583  14
  -7   3   0 128.667 7.81549   8
  -9  -3   0 -0.2437 2.24983   1
  -9  -3   0 1.13207 3.35739  11
   9  -3   0 6.04423 3.31209   4
  -9  -3   0 -0.1587 2.03235   5
   9  -3   0 0.82861 2.57447  12
   9  -3   0 -0.6476 2.22916  14
   9   3   0 -3.6938 2.82312  14
  -9   3   0 1.44481 4.57179  11
  -9   3   0 -0.5592 3.49253   1
   9   3   0 1.33619 3.08276   4
  -9   3   0 1.91896 2.87674   8
   9   3   0 -1.5031 2.29163  12
  11  -3   0 -2.8560 2.99139   4
 -11  -3   0 1.52693 4.30481  11
 -11   3   0 1.43251 4.46794   1
 -11   3   0 3.25218 3.98019  11
  11   3   0 1.87858 3.55170   4
   0  -4   0 3329.66 90.5984  12
   0  -4   0 3417.87 90.6662   2
   0  -4   0 3347.37 90.4467   6
   0  -4   0 3402.09 93.5962  10
   0   4   0 3367.75 90.4751  13
   0   4   0 3317.47 90.5869   3
   0   4   0 3323.70 90.0346   7
   0   4   0 3415.01 90.7519  12
   0   4   0 3385.23 90.7524  14
  -2  -4   0 6997.32 197.276  11
  -2  -4   0 6732.34 187.513   2
   2  -4   0 6875.76 188.831   6
  -2  -4   0 6557.49 186.430   5
   2  -4   0 6784.84 189.190  12
  -2  -4   0 6962.52 193.989  16
  -2  -4   0 6861.34 188.982  10
   2  -4   0 7079.86 194.500  10
   2  -4   0 7204.96 192.777   2
  -2   4   0 7314.84 190.798   7
  -2   4   0 7007.30 190.995   3
  -2   4   0 7023.70 191.773  13
   2   4   0 7069.08 189.557   4
   2   4   0 6919.28 194.049  12
   2   4   0 7252.87 192.054   3
   2   4   0 7295.50 191.937  14
  -2   4   0 7060.99 191.894   8
  -4  -4   0 808.011 23.9221   5
  -4  -4   0 802.301 23.5702   1
  -4  -4   0 807.264 26.0659  16
   4  -4   0 733.072 23.1911   2
  -4  -4   0 812.396 25.8097  11
   4  -4   0 769.706 25.0197  10
   4  -4   0 754.432 23.0055   4
   4  -4   0 779.535 23.8811  12
  -4   4   0 742.979 23.7982   1
  -4   4   0 724.671 23.3844  13
  -4   4   0 731.768 23.1172   8
   4   4   0 747.742 23.6544  12
   4   4   0 773.911 23.6549   3
  -4   4   0 769.863 23.2838   7
   4   4   0 751.210 22.5082   4
   4   4   0 780.787 24.8522  14
  -6  -4   0 1735.06 51.4627   6
   6  -4   0 1835.50 52.9390  12
  -6  -4   0 1860.68 52.7310   5
   6  -4   0 1789.46 51.1081   2
  -6  -4   0 1765.26 52.0252   1
   6  -4   0 1776.50 54.2282  10
   6  -4   0 1843.61 52.0522   4
  -6  -4   0 1778.78 55.9065  11
  -6   4   0 1873.72 56.3870  11
   6   4   0 1813.19 54.4016  14
  -6   4   0 1815.36 52.3759   8
  -6   4   0 1764.81 52.7230   1
   6   4   0 1772.19 52.7737  12
   6   4   0 1827.13 51.3909   4
   8  -4   0 38.2256 5.27326   4
   8  -4   0 39.8135 5.21580  12
  -8  -4   0 36.5261 4.76042   5
  -8  -4   0 34.9441 5.10532   1
   8  -4   0 27.2054 4.34830  14
  -8  -4   0 27.0428 6.77281  11
   8   4   0 35.7843 4.66776   4
  -8   4   0 29.3522 4.48942   8
   8   4   0 28.9704 4.85395  12
   8   4   0 41.1590 6.26279  14
  -8   4   0 29.5281 6.71028  11
  -8   4   0 27.3579 5.42305   1
 -10  -4   0 434.970 18.9864   1
 -10  -4   0 442.906 24.1794  11
  10  -4   0 429.272 18.3920   4
 -10   4   0 455.702 24.4851  11
 -10   4   0 426.408 19.9667   1
  10   4   0 431.004 17.4742   4
  -1  -5   0 71.9477 2.93389  10
  -1  -5   0 70.2421 3.81519   2
   1  -5   0 65.9069 3.71038  10
  -1  -5   0 72.4504 3.85317   5
   1  -5   0 71.3546 3.46565   6
   1  -5   0 69.9592 3.97778  12
   1  -5   0 73.1019 4.34474   2
  -1  -5   0 69.3305 4.02115   6
  -1  -5   0 68.9743 4.28354  11
   1   5   0 75.5868 4.14862   3
  -1   5   0 68.7978 3.78754  13
   1   5   0 69.0236 3.71517  13
   1   5   0 72.1965 4.14953  14
   1   5   0 72.9046 4.08235  12
  -1   5   0 71.3074 4.01392   3
  -1   5   0 67.0823 3.83864  12
  -1   5   0 76.6891 3.52012   8
  -1   5   0 70.7567 3.41916   7
  -1   5   0 71.4831 3.58216  10
  -3  -5   0 129.871 4.56531  10
  -3  -5   0 132.469 6.41912   5
   3  -5   0 126.601 4.73256   6
   3  -5   0 140.744 7.01074  10
   3  -5   0 139.800 6.66287   2
   3  -5   0 139.700 6.61281  12
  -3  -5   0 141.286 5.47105   2
  -3  -5   0 126.112 7.06603  11
   3   5   0 127.844 6.37610   3
  -3   5   0 137.543 5.74080   7
   3   5   0 139.352 7.06895  14
  -3   5   0 135.276 6.51398  13
  -3   5   0 159.089 6.07415   8
   3   5   0 134.747 5.22861   4
  -3   5   0 123.302 5.99596   3
   3   5   0 128.174 6.43882  12
  -5  -5   0 14.2945 2.86921   6
   5  -5   0 11.7215 2.30626   2
   5  -5   0 11.0633 2.45871   4
  -5  -5   0 10.3265 2.52106   1
  -5  -5   0 15.1537 2.77992   5
   5  -5   0 10.6258 2.99804  10
   5  -5   0 9.06823 2.58840  12
  -5  -5   0 9.87693 2.88891  11
  -5   5   0 10.2136 2.22641   8
  -5   5   0 10.9932 2.84848   1
  -5   5   0 27.2664 3.23489  13
   5   5   0 16.9575 3.80037  14
   5   5   0 10.2580 2.55717  12
   5   5   0 7.85077 1.88280   4
   5   5   0 13.7338 2.80866   3
  -5   5   0 13.3684 2.34736   7
   7  -5   0 120.307 7.62258   4
  -7  -5   0 130.580 7.53000   6
  -7  -5   0 112.399 7.80841   1
   7  -5   0 111.350 7.82897  12
  -7  -5   0 128.765 8.20601   5
  -7  -5   0 110.303 9.65547  11
   7  -5   0 123.662 7.03956   2
  -7   5   0 128.283 8.89230   1
   7   5   0 123.973 7.20620   4
   7   5   0 121.463 9.36835  14
   7   5   0 107.359 7.41569  12
  -7   5   0 125.209 7.67768   8
  -7   5   0 143.670 11.0665  11
   7   5   0 127.432 8.04250   3
  -9  -5   0 23.1551 6.22323  11
  -9  -5   0 21.2038 4.34819   5
  -9  -5   0 25.4013 5.03910   1
   9  -5   0 18.6351 4.21832   4
   9   5   0 24.4378 5.14795  14
  -9   5   0 33.4157 5.53833   1
   9   5   0 20.8848 4.11191   4
   9   5   0 20.5487 4.27282   3
   9   5   0 21.3883 4.02251  12
  -9   5   0 20.0024 5.69691  11
   0  -6   0 2636.13 72.6706  10
   0  -6   0 3069.12 76.1361  12
   0  -6   0 2640.97 73.3912   6
   0  -6   0 2652.23 73.7343   2
   0   6   0 2651.95 73.9073  14
   0   6   0 2659.86 72.8130   7
   0   6   0 2501.80 73.7015  12
   0   6   0 2645.63 73.7136   3
   0   6   0 2667.56 73.5350  13
  -2  -6   0 171.103 7.72839   5
   2  -6   0 185.234 6.85625   6
   2  -6   0 179.439 7.92569  12
   2  -6   0 188.376 8.11898  10
  -2  -6   0 182.245 8.09548   6
  -2  -6   0 186.353 8.67051  11
  -2  -6   0 171.070 5.50585  10
  -2  -6   0 180.986 5.58132  10
   2  -6   0 175.277 8.12748   2
  -2  -6   0 192.384 7.21552   2
   2   6   0 180.882 8.47971  14
  -2   6   0 185.466 6.98643   7
  -2   6   0 184.771 7.83863   3
  -2   6   0 212.343 7.32975   8
   2   6   0 174.295 7.96774  12
  -2   6   0 190.943 7.92748  13
   2   6   0 182.559 7.56220  13
   2   6   0 190.276 8.10708   3
   2   6   0 175.772 6.22497   4
   4  -6   0 2228.99 62.3002   2
   4  -6   0 2183.39 63.4676  10
   4  -6   0 2118.70 60.9133   4
  -4  -6   0 2152.25 64.3340  11
   4  -6   0 2198.82 62.6862  12
  -4  -6   0 2228.51 62.5424   5
  -4  -6   0 2232.95 62.4763   6
  -4   6   0 2257.00 61.4024   7
  -4   6   0 2165.20 61.1872   8
   4   6   0 2147.92 62.1863   3
  -4   6   0 2229.01 62.6804   1
   4   6   0 2165.91 62.6900  12
  -4   6   0 2265.23 61.7903   3
  -4   6   0 2229.80 62.2299  13
   4   6   0 2174.34 63.6951  14
   4   6   0 2154.13 60.3075   4
   6  -6   0 214.936 10.2347   2
  -6  -6   0 235.800 13.3192  11
  -6  -6   0 254.319 11.4600   5
   6  -6   0 198.141 11.4555  10
  -6  -6   0 232.463 10.6273   6
   6  -6   0 221.477 10.9823  12
   6  -6   0 206.627 9.61056   4
  -6   6   0 197.163 10.3679  13
   6   6   0 217.405 10.9315  12
  -6   6   0 227.144 11.4535   1
   6   6   0 205.832 11.9514  14
   6   6   0 227.748 10.7690   3
   6   6   0 210.588 9.11102   4
   8  -6   0 1167.67 37.3408   4
  -8  -6   0 1133.15 42.5421  11
  -8  -6   0 1180.21 38.1586   5
   8   6   0 1187.70 37.9002   3
   8   6   0 1152.36 40.4614  14
   8   6   0 1164.54 36.0003   4
  -8   6   0 1202.53 43.5631  11
  -8   6   0 1197.24 39.5061   1
   8   6   0 1138.29 38.5286  12
 -10  -6   0 125.307 13.4167  11
  10  -6   0 142.557 9.53463   4
  10   6   0 99.8871 10.0031   3
 -10   6   0 125.345 10.0645   1
 -10   6   0 134.165 13.5560  11
  -1  -7   0 460.581 13.9801  10
   1  -7   0 469.368 16.2283   2
   1  -7   0 477.490 15.4533   6
  -1  -7   0 494.507 16.1446   6
  -1  -7   0 470.604 15.6783   2
   1  -7   0 478.810 15.6136  10
   1   7   0 461.500 16.1393   3
  -1   7   0 470.619 16.0613   3
   1   7   0 456.570 16.2427  12
  -1   7   0 448.044 14.9454   8
  -1   7   0 489.830 15.9748  13
  -1   7   0 463.313 14.8790   7
   1   7   0 464.331 15.1535   7
   1   7   0 468.346 16.4673  14
   1   7   0 453.888 15.6250  13
  -3  -7   0 687.251 24.0637  11
  -3  -7   0 702.766 22.9485   6
   3  -7   0 684.119 22.9065  12
   3  -7   0 713.163 23.0265   2
  -3  -7   0 695.895 22.6214   5
  -3  -7   0 696.143 21.9945   2
   3  -7   0 703.702 23.4650  10
  -3   7   0 724.240 22.4676   3
  -3   7   0 711.029 22.6461  13
   3   7   0 682.942 22.1606  13
   3   7   0 672.199 22.9629  12
   3   7   0 682.249 22.7473   3
   3   7   0 673.880 23.6221  14
  -3   7   0 723.318 21.5962   7
  -5  -7   0 98.7231 7.18514   5
  -5  -7   0 105.801 6.85155   6
   5  -7   0 91.7734 6.91480  12
  -5  -7   0 94.6009 8.25850  11
   5  -7   0 105.223 6.16430   4
   5  -7   0 108.037 7.32203   2
   5  -7   0 101.131 7.67558  10
   5   7   0 102.074 7.11719  12
  -5   7   0 108.726 6.06555   7
  -5   7   0 115.518 7.58977   1
   5   7   0 116.242 6.81588  13
  -5   7   0 103.606 6.60394  13
   5   7   0 101.910 8.10341  14
   5   7   0 108.236 7.25635   3
  -7  -7   0 285.204 16.3896  11
  -7  -7   0 288.631 13.4264   5
  -7  -7   0 253.379 12.1098   6
   7  -7   0 266.511 12.5315   2
   7  -7   0 261.555 11.8159   4
  -7   7   0 268.493 13.9498   1
   7   7   0 270.808 14.5221  14
   7   7   0 285.880 13.3381   3
  -7   7   0 251.608 15.5416  11
   7   7   0 263.376 13.3764  12
   9  -7   0 29.6849 4.36861   4
  -9  -7   0 27.7691 7.39944  11
  -9   7   0 27.6406 7.19348  11
   9   7   0 36.3422 5.16307   3
  -9   7   0 42.2229 7.12629   1
   0  -8   0 1308.57 38.8891   2
   0  -8   0 1358.31 38.6720   6
   0   8   0 1292.01 37.5548   7
   0   8   0 1279.13 39.0547  14
   0   8   0 1322.74 39.0865   3
   0   8   0 1286.56 38.5315  13
   2  -8   0 1329.59 40.1413  10
  -2  -8   0 1383.97 40.6104   6
   2  -8   0 1356.87 40.5523   2
   2  -8   0 1363.51 38.8197   6
   2   8   0 1330.30 40.2879   3
   2   8   0 1326.81 39.6896  13
  -2   8   0 1382.38 40.2337   3
   2   8   0 1323.73 40.9978  14
  -2   8   0 1338.68 39.9366  13
   2   8   0 1307.53 40.6028  12
   2   8   0 1347.68 39.3311   7
   4  -8   0 768.921 25.4763   2
  -4  -8   0 796.338 25.7994   6
  -4  -8   0 739.585 26.7594  11
  -4  -8   0 760.296 25.4202   5
   4  -8   0 738.730 25.7471  10
   4   8   0 703.891 26.1515  14
   4   8   0 709.326 25.4009  12
   4   8   0 766.934 25.3456   3
   4   8   0 721.594 24.3244  13
  -4   8   0 726.260 24.5550  13
  -4   8   0 775.449 24.8825   3
   6  -8   0 461.891 18.0073   2
  -6  -8   0 455.360 17.8666   6
  -6  -8   0 439.032 20.3357  11
   6   8   0 436.290 17.5055   3
  -6   8   0 432.259 17.2704  13
   6   8   0 416.306 18.8827  14
   6   8   0 427.407 16.8734  13
   6   8   0 398.398 17.6701  12
  -6   8   0 436.783 18.1559   1
   8  -8   0 233.274 12.9333   4
  -8  -8   0 247.076 12.4025   6
  -8  -8   0 262.964 16.6779  11
   8  -8   0 226.719 12.5223   2
  -8   8   0 228.412 14.2687   1
  -8   8   0 257.285 17.2109  11
   8   8   0 259.939 13.3599   3
  -1  -9   0 103.662 6.95531   6
   1  -9   0 106.597 6.18454   6
  -1  -9   0 102.776 6.48234   2
   1  -9   0 90.8674 6.31497   2
   1   9   0 89.9957 6.77114  14
   1   9   0 90.3767 6.03568  13
   1   9   0 92.4393 6.39929   3
  -1   9   0 92.7579 6.76326   3
  -1   9   0 99.6859 6.33572  13
   3  -9   0 29.3877 4.81687   2
  -3  -9   0 24.9264 4.41184  11
  -3  -9   0 36.9112 4.74917   6
   3   9   0 27.9218 3.52180  13
   3   9   0 26.6647 4.16779  12
   3   9   0 25.7222 3.61520   7
   3   9   0 25.6050 4.42342   3
  -3   9   0 29.6779 4.25544  13
   3   9   0 27.3820 4.43395  14
  -3   9   0 30.3744 4.11923   3
  -5  -9   0 76.8271 8.18112  11
  -5  -9   0 70.7575 7.09408   6
   5  -9   0 78.2435 7.62455   2
   5   9   0 76.4065 7.18836   3
  -5   9   0 69.3156 6.24234  13
   5   9   0 58.9731 5.52657  13
   5   9   0 69.2617 6.80787  12
   5   9   0 64.8018 6.74986  14
  -5   9   0 64.8579 6.50116   3
  -5   9   0 88.9910 7.89548   1
   7  -9   0 0.95496 3.53397   2
  -7  -9   0 4.99203 3.49076   6
  -7   9   0 4.73798 3.58678   1
   7   9   0 4.22164 3.75598   3
   0 -10   0 24.9583 4.06657   6
   0 -10   0 7.88597 3.10023   2
   0  10   0 3.58551 1.80513  13
   0  10   0 7.94929 2.81912   3
  -2 -10   0 1749.35 51.2582   6
  -2 -10   0 1692.16 49.4117   2
   2 -10   0 1712.57 51.1439   2
  -2  10   0 1699.94 50.6511   3
  -2  10   0 1694.42 50.3461  13
   2  10   0 1602.57 49.8096  13
   2  10   0 1731.50 51.2786   3
   2  10   0 1627.14 51.4606  14
  -4 -10   0 8.99699 3.08531   6
   4 -10   0 14.1138 3.69343   2
  -4  10   0 9.56710 3.17061  13
  -4  10   0 12.2071 4.04431   3
   4  10   0 11.0039 3.22664   3
   4  10   0 6.27555 3.78428  14
  -6 -10   0 1024.13 35.1907   6
   6 -10   0 981.091 33.8964   2
   6  10   0 1006.02 34.3527   3
  -6  10   0 1002.53 35.2512   1
  -8 -10   0 24.2659 5.22656   6
   8 -10   0 26.5269 5.04421   2
   8  10   0 22.2135 5.04355   3
   1 -11   0 202.286 10.2377   6
  -1 -11   0 205.115 10.5813   2
  -1 -11   0 192.360 10.8435   6
   1 -11   0 214.264 11.5735   2
   1  11   0 207.166 11.4584   3
  -1  11   0 211.574 11.4777   3
   1  11   0 193.926 10.1268  13
  -1  11   0 189.805 10.1288  13
  -3 -11   0 153.547 10.5107   6
   3 -11   0 141.841 9.44126   2
   3  11   0 125.071 9.65717  14
  -3  11   0 150.307 9.81709   3
   3  11   0 119.323 8.65370   3
  -3  11   0 131.823 8.21715  13
   5 -11   0 164.472 11.3471   2
  -5 -11   0 159.364 10.4265   6
  -5  11   0 171.035 11.9608   1
  -5  11   0 154.682 10.4351   3
   5  11   0 162.437 10.4021   3
  -7 -11   0 55.6476 6.42464   6
   7 -11   0 52.2520 7.33017   2
   7  11   0 64.5249 7.43880   3
   0 -12   0 411.963 17.4305   2
   0 -12   0 416.547 17.2654   6
   0  12   0 411.310 17.8116   3
  -2 -12   0 324.773 15.1755   6
   2 -12   0 297.899 14.4251   2
   2  12   0 252.416 14.4233  14
  -2  12   0 245.140 13.4986  13
  -2  12   0 322.421 15.0538   3
   2  12   0 308.176 14.8820   3
   4 -12   0 332.945 16.5053   2
  -4 -12   0 340.411 16.7558   6
  -4  12   0 324.959 15.9145   3
   4  12   0 336.115 16.4137   3
  -4  12   0 359.460 17.3805   1
   6  12   0 195.851 14.0452   3
   1 -13   0 4.90854 3.35150   2
  -1 -13   0 4.28257 3.88341   6
   1  13   0 2.56120 4.01180   3
  -1  13   0 8.41384 4.48486   3
  -3 -13   0 7.47126 3.83566   6
   3 -13   0 10.7609 4.18366   2
   3  13   0 8.72131 4.58843   3
  -3  13   0 8.31161 3.51884   3
   0  14   0 259.747 14.8972   3
  10   0  -1 1.70756 2.61413   4
  10   0  -1 0.19068 2.76134  14
 -10   0   1 3.78350 3.75869   8
 -10   0   1 4.01751 4.33149  11
 -10   0   1 -1.3839 3.21160   1
   8   0  -1 1.04670 2.52208   4
   8   0  -1 -0.8341 1.49120  14
  -8   0   1 3.53695 2.89521   8
  -8   0   1 2.89803 4.03872  11
  -8   0   1 -1.8780 2.23145   1
   8   0  -1 0.87785 1.59725  12
  -8   0   1 10.6615 2.99985   5
   8   0  -1 7.28659 2.35261  10
  -8   0   1 13.3714 3.90423  16
  -6   0   1 0.42209 2.39318  11
  -6   0   1 0.12514 1.34758   1
   6   0  -1 -0.0905 1.09882  14
   6   0  -1 -0.5465 1.15263   4
   6   0  -1 -0.0204 1.38832  12
   6   0  -1 0.49982 1.23069  10
  -6   0   1 0.35754 1.77547   8
  -6   0   1 1.15194 1.54707  16
  -6   0   1 0.42476 0.89380   5
  -4   0   1 0.02894 1.25090  11
   4   0  -1 0.64457 0.93771  12
   4   0  -1 5.78590 1.49310  14
  -4   0   1 0.59839 0.82356  16
  -4   0   1 0.68409 1.07496   8
  -4   0   1 -0.3644 0.80629   5
  -4   0   1 -0.2837 0.78809   1
   4   0  -1 -1.0126 0.92608   4
   4   0  -1 2.05573 1.02817  10
  -2   0   1 17.7092 1.34580   5
   2   0  -1 24.9559 1.53790   4
  -2   0   1 19.5762 1.59408  16
   2   0  -1 22.2261 1.48600  14
  -2   0   1 19.8305 1.47490   8
  -4   0  -1 -0.3354 1.13114  11
  -4   0  -1 1.02879 0.97782   1
   4   0   1 5.35906 1.79766  10
   4   0   1 0.17278 1.32438  14
   4   0   1 1.10760 0.98925   4
   4   0   1 1.18726 0.53805   2
  -4   0  -1 5.47177 1.47466  16
  -4   0  -1 3.06247 1.00083   5
   4   0   1 0.77783 0.94417  12
  -4   0  -1 1.51236 1.39529   8
   6   0   1 1.18879 1.53222  14
  -6   0  -1 2.39733 2.96158  11
   6   0   1 -0.0740 1.42939  12
  -6   0  -1 1.53138 1.51766   8
   6   0   1 0.80485 1.39766   4
  -6   0  -1 6.44133 1.70332   5
   6   0   1 1.88234 1.60971  10
  -6   0  -1 -1.4712 1.88851   1
  -8   0  -1 0.46386 3.96624  11
   8   0   1 0.56230 2.79185   4
  -8   0  -1 1.32879 2.46845   1
   8   0   1 -0.7937 2.47633  14
   8   0   1 1.08231 2.28725  12
 -10   0  -1 2.11483 4.43166   1
  10   0   1 4.70163 3.40025  12
  10   0   1 2.53766 2.87723   4
 -10   0  -1 0.18346 3.52863  11
  11  -1  -1 242.397 13.2257   4
 -11  -1   1 257.032 18.0691  11
  11   1  -1 280.669 13.9894   4
 -11   1   1 259.876 14.2040   1
 -11   1   1 270.769 19.3598  11
  -9  -1   1 400.828 16.7683   1
  -9  -1   1 407.940 20.9145  11
   9  -1  -1 382.510 16.8916  12
   9  -1  -1 419.822 16.3488   4
   9  -1  -1 409.530 17.5119  14
  -9  -1   1 406.472 17.3971   8
   9   1  -1 395.923 16.9574  12
  -9   1   1 432.825 17.4873   1
   9   1  -1 424.829 16.3749   4
  -9   1   1 399.229 17.2395   8
  -9   1   1 430.578 21.4487  11
   9   1  -1 405.690 18.1023  14
   7  -1  -1 1300.56 37.8762   4
   7  -1  -1 1249.55 38.3612  12
   7  -1  -1 1259.30 39.3211  10
   7  -1  -1 1252.45 38.9295  14
  -7  -1   1 1238.66 37.1615   5
  -7  -1   1 1321.40 37.9692   1
  -7  -1   1 1265.31 42.0425  11
  -7  -1   1 1271.01 39.6118  16
  -7  -1   1 1272.25 38.9335   8
  -7   1   1 1302.34 42.1611  11
   7   1  -1 1289.20 37.6895   4
   7   1  -1 1224.57 39.1384  14
  -7   1   1 1269.15 38.4374  16
  -7   1   1 1208.85 37.7420   1
  -7   1   1 1297.72 38.8306   8
   7   1  -1 1214.02 38.3214  10
   7   1  -1 1224.02 38.1408  12
   5  -1  -1 1530.84 44.2397  12
   5  -1  -1 1572.32 45.2324  10
  -5  -1   1 1541.79 43.6865   5
   5  -1  -1 1555.73 43.8976   4
  -5  -1   1 1545.57 45.4892  16
   5  -1  -1 1530.20 42.4942   2
  -5  -1   1 1551.87 43.7713   1
  -5  -1   1 1539.91 44.5623   8
  -5  -1   1 1592.43 46.6656  11
   5  -1  -1 1524.79 44.4667  14
   5   1  -1 1578.08 44.5493  10
  -5   1   1 1542.28 44.4676   8
   5   1  -1 1570.51 44.3608  12
  -5   1   1 1550.56 46.4973  11
  -5   1   1 1616.57 44.6490  16
   5   1  -1 1530.36 43.7575   4
   5   1  -1 1549.48 45.0596  14
  -5   1   1 1541.81 43.9259   1
  -5   1   1 1564.27 43.1331   5
   5   1  -1 1527.80 42.6267   9
   3  -1  -1 5337.32 145.351   4
  -3  -1   1 5190.14 148.651  16
  -3  -1   1 5287.54 145.219   5
  -3  -1   1 5221.69 146.165   8
   3  -1  -1 5437.30 148.298  10
   3  -1  -1 5379.84 146.369   2
   3  -1  -1 5434.55 145.792  12
  -3  -1   1 5235.33 147.723  11
  -3  -1   1 5432.76 148.135  10
  -3  -1   1 5658.16 147.302   1
   3   1  -1 5267.14 144.966   4
   3   1  -1 5376.95 149.552  14
  -3   1   1 5554.58 146.788   1
   3   1  -1 5494.80 147.834  12
  -3   1   1 5340.38 151.617  16
   3   1  -1 5448.15 146.241   9
  -3   1   1 5311.40 147.019  10
  -3   1   1 5335.91 146.221   5
  -3   1   1 5439.81 147.540  13
  -3   1   1 5478.61 146.402   8
   3   1  -1 5562.04 150.452  10
  -1  -1   1 2699.87 77.2203  16
   1  -1  -1 2712.59 76.6279  10
  -1   1   1 2618.90 75.3594  10
  -1   1   1 2755.13 74.5871  13
   1   1  -1 2861.07 76.9063  14
  -1  -1  -1 7982.03 222.319   6
   1  -1   1 8159.39 222.317   2
  -1  -1  -1 9412.78 224.976   1
  -1  -1  -1 8534.30 223.308  10
  -1  -1  -1 7831.51 222.785   5
   1  -1   1 7882.21 221.383  12
   1  -1   1 7631.00 226.533  10
  -1  -1  -1 9213.50 230.367  11
   1   1   1 8277.07 223.006  10
   1   1   1 8951.30 227.034  14
   1   1   1 8238.25 223.394   4
  -1   1  -1 8193.03 223.503   1
  -1   1  -1 8512.12 224.369   7
  -1   1  -1 7783.10 226.091  11
  -1   1  -1 7282.58 225.625  10
  -3  -1  -1 775.574 23.1459   8
   3  -1   1 792.929 22.6819   4
   3  -1   1 835.619 23.8139  10
  -3  -1  -1 788.582 22.9465  10
  -3  -1  -1 785.090 23.6496  16
  -3  -1  -1 783.479 24.9300  11
  -3  -1  -1 745.826 22.9691   1
  -3  -1  -1 796.032 22.5149   5
   3  -1   1 789.389 22.3923  12
  -3  -1  -1 747.889 21.9123   6
   3  -1   1 789.430 21.9766   2
  -3   1  -1 775.081 21.5803   5
  -3   1  -1 745.917 22.7894   8
   3   1   1 775.496 22.5246   4
   3   1   1 802.990 22.9218  10
   3   1   1 815.816 22.3712  12
  -3   1  -1 760.415 24.4789  11
  -3   1  -1 774.189 23.0584   7
   3   1   1 777.733 23.6344  14
  -3   1  -1 769.245 23.0835   1
  -5  -1  -1 2978.99 81.7311   1
  -5  -1  -1 2880.97 81.9319   8
  -5  -1  -1 3003.76 85.3517  11
  -5  -1  -1 2781.91 79.3628   6
   5  -1   1 2978.11 82.4680  10
   5  -1   1 2967.58 81.0310  12
  -5  -1  -1 2899.81 80.4733   5
   5  -1   1 3052.27 81.3430   4
   5   1   1 3007.01 81.0503   4
   5   1   1 2855.50 80.8748  12
  -5   1  -1 2961.99 81.7737   1
   5   1   1 2982.55 82.8630  14
   5   1   1 2944.36 81.4946  10
  -5   1  -1 3014.65 84.9626  11
  -5   1  -1 2892.83 81.5964   8
   7  -1   1 171.752 9.13284   4
  -7  -1  -1 191.050 12.4314  11
  -7  -1  -1 163.654 7.80951   5
  -7  -1  -1 177.789 9.77988   1
   7  -1   1 168.087 8.83700  12
   7  -1   1 155.354 9.24033  10
   7  -1   1 178.290 10.0699  14
   7   1   1 183.676 10.4025  14
  -7   1  -1 164.286 9.18748   1
  -7   1  -1 177.280 12.2095  11
  -7   1  -1 159.263 8.87660   8
   7   1   1 168.071 8.76120  10
   7   1   1 168.052 8.87050  12
   7   1   1 182.349 8.69719   4
   9  -1   1 748.638 26.6334   4
   9  -1   1 764.652 27.3839  12
  -9  -1  -1 761.082 32.8829  11
   9  -1   1 777.805 28.7089  14
  -9  -1  -1 767.109 27.8641   1
   9   1   1 732.570 25.9957   4
   9   1   1 745.529 28.9550  14
  -9   1  -1 789.864 28.4989   1
  -9   1  -1 776.313 33.4202  11
   9   1   1 748.298 27.2667  12
  10  -2  -1 119.612 8.16659   4
 -10  -2   1 117.055 11.6601  11
 -10  -2   1 111.614 8.76183   1
 -10   2   1 118.411 11.6609  11
  10   2  -1 115.108 8.06096   4
  10   2  -1 105.999 9.61236  14
 -10   2   1 116.824 9.36731   8
 -10   2   1 114.307 8.79860   1
   8  -2  -1 336.952 14.5507  12
  -8  -2   1 337.407 14.9402   8
   8  -2  -1 335.162 13.7420   4
  -8  -2   1 356.343 13.6700   5
  -8  -2   1 344.619 14.0721   1
  -8  -2   1 345.262 17.9999  11
   8  -2  -1 345.394 14.8943  14
  -8  -2   1 336.236 15.8623  16
   8   2  -1 343.047 15.7085  14
   8   2  -1 332.252 14.5089  12
  -8   2   1 364.126 18.4047  11
   8   2  -1 325.635 13.8626  10
  -8   2   1 320.755 14.1826   1
  -8   2   1 353.561 15.0163   8
   8   2  -1 360.689 14.1103   4
  -6  -2   1 427.629 17.6836  11
  -6  -2   1 420.451 14.7778   1
   6  -2  -1 433.530 15.0484   4
   6  -2  -1 425.391 16.2858  10
  -6  -2   1 436.636 14.9925   5
   6  -2  -1 426.102 15.3547  12
  -6  -2   1 430.312 16.7025  16
  -6  -2   1 425.656 15.6012   8
   6  -2  -1 422.469 13.6009   2
   6  -2  -1 412.593 15.2721  14
  -6   2   1 423.971 15.0915   1
   6   2  -1 432.323 14.6761   4
  -6   2   1 433.595 17.6826  11
  -6   2   1 435.829 13.6611   5
   6   2  -1 428.785 15.0860  10
  -6   2   1 434.284 15.6108   8
   6   2  -1 447.868 15.5343  12
  -6   2   1 440.694 14.9329  16
   6   2  -1 432.357 16.3593  14
  -4  -2   1 1314.71 38.5143  11
  -4  -2   1 1285.62 37.0055   8
   4  -2  -1 1294.95 36.8989  12
  -4  -2   1 1261.36 36.1265   1
   4  -2  -1 1297.20 36.3471   4
  -4  -2   1 1313.09 38.3359  16
   4  -2  -1 1342.19 37.9299  10
  -4  -2   1 1275.97 36.6676   5
   4  -2  -1 1269.26 35.9704   2
  -4   2   1 1332.25 36.5617  16
   4   2  -1 1247.09 36.8033  12
  -4   2   1 1293.83 36.5456   1
  -4   2   1 1306.96 35.5741   5
   4   2  -1 1290.14 37.5985  14
   4   2  -1 1263.90 36.2145   4
  -4   2   1 1305.32 36.9524   8
   4   2  -1 1289.11 36.5828  10
   4   2  -1 1278.92 35.1136   9
  -4   2   1 1322.56 36.6181  13
  -2  -2   1 3196.63 85.1304  11
   2  -2  -1 3048.12 85.4608   6
   2  -2  -1 3091.30 84.1658   4
  -2  -2   1 3274.31 87.3103  10
   2  -2  -1 3180.99 88.0937  10
   2  -2  -1 3032.77 84.5954   2
  -2  -2   1 3203.57 84.8018   5
  -2  -2   1 3368.02 84.2730   1
   2  -2  -1 3113.07 84.7607  12
  -2  -2   1 3162.37 85.7759  16
  -2  -2   1 3291.58 84.6641   8
   2   2  -1 3140.73 84.2829   4
  -2   2   1 3089.52 84.7665   8
   2   2  -1 3250.78 85.8679   3
  -2   2   1 3096.09 84.6685  13
  -2   2   1 3048.41 85.0415  10
  -2   2   1 3094.42 84.6046  12
   2   2  -1 3321.81 84.8527  12
   2   2  -1 3194.40 85.2509  14
  -2   2   1 3038.15 84.1973   3
   0  -2   1 3008.96 84.0674  16
   0  -2   1 3138.04 82.9506   2
   0  -2  -1 2861.22 82.8114   6
   0  -2   1 3247.68 82.9298  10
   0  -2   1 3069.02 83.4795  12
   0  -2  -1 2902.36 82.1837   2
   0  -2  -1 3101.93 84.2810  11
   0   2  -1 3033.22 82.4289   3
   0   2   1 3046.08 83.3759  13
   0   2   1 3062.70 82.7713  10
   0   2   1 3112.21 83.0220  12
   0   2  -1 3076.60 83.7758   7
   0   2  -1 2942.36 83.2332  13
   0   2   1 3099.83 81.4381   3
   0   2   1 3106.83 85.2798  14
  -2  -2  -1 3593.88 94.4710   5
  -2  -2  -1 3651.29 94.6277   1
   2  -2   1 3449.30 95.2235  10
   2  -2   1 3364.76 95.9878  12
  -2  -2  -1 3765.11 96.2982  11
  -2  -2  -1 3407.16 94.9625  15
  -2  -2  -1 3554.05 96.0631  10
  -2  -2  -1 3470.94 94.2037   6
   2  -2   1 3479.57 94.2532   2
  -2   2  -1 3569.90 94.5775   7
   2   2   1 3598.08 93.9502   4
  -2   2  -1 3445.28 94.5659   1
  -2   2  -1 3427.08 95.4482   8
   2   2   1 3607.16 95.6897  10
  -2   2  -1 3364.07 95.1214  10
  -2   2  -1 3423.60 94.3045  13
   2   2   1 3646.61 95.2199  14
   2   2   1 3534.72 95.4435  12
  -4  -2  -1 1119.38 35.9530  11
   4  -2   1 1181.66 33.0102   4
   4  -2   1 1139.23 32.1474   2
   4  -2   1 1138.40 32.7980  12
  -4  -2  -1 1098.59 33.2214   1
  -4  -2  -1 1077.68 32.1282   6
   4  -2   1 1165.26 34.4101  10
  -4  -2  -1 1144.31 32.9252   5
  -4   2  -1 1154.77 33.0869   8
   4   2   1 1122.25 34.2173  14
   4   2   1 1159.31 32.6398   4
  -4   2  -1 1136.87 33.4733   1
  -4   2  -1 1125.81 35.4843  11
  -4   2  -1 1143.21 33.4390   7
   4   2   1 1173.12 32.8070  10
   4   2   1 1146.70 32.7694  12
   6  -2   1 663.468 22.1873  12
   6  -2   1 671.199 23.4812  14
  -6  -2  -1 672.845 21.8038   5
  -6  -2  -1 628.469 22.2756   1
   6  -2   1 706.795 22.4560   4
  -6  -2  -1 688.563 26.6441  11
   6  -2   1 662.530 23.6127  10
  -6   2  -1 680.484 22.6947   8
  -6   2  -1 666.196 25.9191  11
   6   2   1 644.577 21.9359  10
   6   2   1 685.741 24.0940  14
   6   2   1 784.080 22.8413  12
  -6   2  -1 689.456 23.2146   1
   6   2   1 693.233 21.9583   4
  -8  -2  -1 406.394 21.5349  11
   8  -2   1 384.492 16.4743  12
  -8  -2  -1 404.533 16.9018   1
   8  -2   1 440.446 17.0089   4
   8  -2   1 402.809 17.7886  14
   8   2   1 405.805 16.8829  12
   8   2   1 408.788 18.4235  14
  -8   2  -1 419.511 17.1185   8
  -8   2  -1 419.068 20.8536  11
   8   2   1 421.063 15.9615   4
  -8   2  -1 415.167 17.8364   1
 -10  -2  -1 146.634 14.6082  11
  10  -2   1 131.265 9.76222  12
  10  -2   1 167.178 10.5103   4
 -10  -2  -1 150.936 11.3396   1
 -10   2  -1 136.445 11.5433   1
  10   2   1 141.685 9.15660   4
 -10   2  -1 150.953 14.7797  11
  11  -3  -1 76.3631 7.67159   4
 -11  -3   1 83.9629 11.0585  11
  11   3  -1 87.1582 8.20553   4
 -11   3   1 70.7667 8.13570   1
 -11   3   1 84.2115 8.07402   8
 -11   3   1 90.0046 12.2011  11
  -9  -3   1 1143.98 42.1488  11
   9  -3  -1 1081.65 37.2819  14
  -9  -3   1 1172.04 36.5301   5
  -9  -3   1 1146.86 36.3696   1
   9  -3  -1 1136.54 36.4477   4
  -9   3   1 1169.30 37.7650   8
  -9   3   1 1178.62 37.6819   1
  -9   3   1 1158.48 42.7390  11
   9   3  -1 1114.41 37.5815  12
   9   3  -1 1126.62 38.9478  14
   9   3  -1 1193.16 36.4406   4
  -7  -3   1 194.460 9.26789   1
  -7  -3   1 219.841 12.8590  11
   7  -3  -1 196.448 8.07495   2
  -7  -3   1 211.414 9.68840   5
  -7  -3   1 206.714 10.2860   8
   7  -3  -1 211.090 9.49621   4
   7  -3  -1 218.213 11.1045  10
   7  -3  -1 201.620 9.98900  12
   7  -3  -1 195.998 9.54644  14
  -7  -3   1 212.143 11.7226  16
   7   3  -1 212.631 10.2219  12
  -7   3   1 217.183 10.1285   8
  -7   3   1 206.612 10.1470   1
   7   3  -1 217.481 9.36872   4
  -7   3   1 205.479 12.4732  11
   7   3  -1 192.445 10.9354  14
   5  -3  -1 2699.93 75.0732  10
  -5  -3   1 2637.26 75.9728  11
  -5  -3   1 2610.90 72.8650   1
   5  -3  -1 2598.33 72.5497   2
  -5  -3   1 2635.21 75.7110  16
  -5  -3   1 2695.78 74.0238   8
  -5  -3   1 2576.04 73.3657   5
   5  -3  -1 2623.02 72.9221   4
   5  -3  -1 2648.26 73.7669  12
  -5   3   1 2682.07 73.5212   1
   5   3  -1 2720.96 72.9114   4
  -5   3   1 2686.25 72.6141  16
   5   3  -1 2679.63 74.9140  14
  -5   3   1 2710.64 73.7573   8
   5   3  -1 2578.73 73.7009  12
  -5   3   1 2681.56 73.4030  13
   3  -3  -1 1080.37 30.9461   2
  -3  -3   1 1097.03 30.5228  10
  -3  -3   1 1106.71 31.2028   5
  -3  -3   1 1130.87 30.6161   1
   3  -3  -1 1075.15 31.2115  12
  -3  -3   1 1112.48 31.0603   8
   3  -3  -1 1111.95 31.9646  10
  -3  -3   1 1081.85 29.7500   2
   3  -3  -1 1067.47 30.4183   4
  -3  -3   1 1172.11 32.2742  11
  -3  -3   1 1135.59 32.8252  16
   3  -3  -1 1043.94 29.7266   6
   3   3  -1 1113.74 31.2817  12
   3   3  -1 1133.61 32.0276  14
  -3   3   1 1044.69 30.9926   8
  -3   3   1 1032.01 30.6029  16
  -3   3   1 1071.88 30.3921   7
  -3   3   1 1089.71 31.1080  13
   3   3  -1 1108.14 30.8192   3
   3   3  -1 1089.59 30.4782   4
  -3   3   1 1036.01 30.3987   3
  -3   3   1 1093.31 30.9370  12
   1  -3  -1 3446.48 94.4630   2
   1  -3  -1 3372.20 97.5836  10
  -1  -3   1 3507.02 95.9091   5
   1  -3  -1 3426.12 94.1197   6
  -1  -3   1 3474.43 98.1006  16
  -1  -3   1 3486.27 94.4242  12
  -1  -3   1 3551.71 94.2363   2
  -1   3   1 3504.33 98.2391  10
   1   3  -1 3603.49 94.3430   3
  -1   3   1 3536.57 94.5182  13
   1   3  -1 3658.69 98.0635  14
   1   3  -1 3506.69 96.3239  13
   1   3  -1 3563.31 94.5215  12
  -1   3   1 3590.90 96.3485  12
  -1   3   1 3603.28 98.0732  14
  -1   3   1 3523.40 94.2239   3
   1   3  -1 3613.55 95.0072   4
  -1  -3  -1 2913.43 80.1643  11
  -1  -3  -1 2779.11 78.1578   2
   1  -3   1 2946.41 78.8419  12
  -1  -3  -1 2898.81 78.9555   5
   1  -3   1 2992.38 79.0769   2
   1  -3   1 2976.80 79.5050  10
  -1  -3  -1 2828.39 78.2801  15
  -1  -3  -1 2801.19 78.9188   6
  -1   3  -1 2905.00 79.2459  10
   1   3   1 2984.57 79.2848  14
  -1   3  -1 3020.77 78.9051   7
  -1   3  -1 2916.48 78.6725  13
   1   3   1 2915.20 78.9917   3
   1   3   1 2977.38 78.7828  12
   1   3   1 3119.60 78.9076   4
  -1   3  -1 2926.91 78.7987   3
  -3  -3  -1 3375.72 89.8047   1
   3  -3   1 3259.10 90.8308  10
  -3  -3  -1 3303.62 88.3708  15
  -3  -3  -1 3250.97 89.6584   5
  -3  -3  -1 3360.94 88.5630  10
  -3  -3  -1 3300.48 89.3921   6
  -3  -3  -1 3489.08 92.1520  11
   3  -3   1 3179.70 89.3188   2
   3  -3   1 3277.35 89.5369  12
   3   3   1 3298.71 91.3258  10
  -3   3  -1 3321.44 89.7643   7
   3   3   1 3305.37 88.7956   4
   3   3   1 3381.91 89.4034  12
  -3   3  -1 3201.06 89.4804  13
   3   3   1 3435.95 90.8702  14
  -3   3  -1 3202.64 89.0780   8
  -3   3  -1 3209.62 89.8349   1
   5  -3   1 1024.63 30.0081   2
  -5  -3  -1 1011.84 31.0012   5
  -5  -3  -1 985.212 34.4280  11
   5  -3   1 1050.54 31.2081  12
   5  -3   1 1078.48 31.0940   4
  -5  -3  -1 990.745 30.1472   6
  -5  -3  -1 1003.60 31.3071   1
   5  -3   1 1056.03 33.0102  10
  -5   3  -1 1033.72 31.0148   8
   5   3   1 1037.61 30.4650   4
   5   3   1 1043.73 32.8580  14
  -5   3  -1 1081.17 31.7363   7
  -5   3  -1 1043.58 31.8067   1
  -5   3  -1 1026.53 34.2848  11
   5   3   1 997.935 30.0942  10
   5   3   1 1051.10 31.1941  12
   7  -3   1 1208.03 37.8108  12
  -7  -3  -1 1176.12 37.9544   1
  -7  -3  -1 1133.23 41.9016  11
   7  -3   1 1232.90 37.5067   4
  -7  -3  -1 1253.12 37.3366   5
   7  -3   1 1191.36 38.8361  14
  -7   3  -1 1209.21 37.8261   8
   7   3   1 1255.94 36.9167   4
  -7   3  -1 1250.14 42.8872  11
   7   3   1 1233.74 39.8766  14
   7   3   1 1221.31 37.9085  12
  -7   3  -1 1228.49 38.8604   1
  -9  -3  -1 235.546 16.0575  11
   9  -3   1 227.221 12.0875   4
   9  -3   1 203.338 12.5689  14
   9  -3   1 218.512 12.2601  12
  -9  -3  -1 237.548 12.8917   1
  -9   3  -1 238.584 13.8897   1
   9   3   1 225.630 11.2247   4
   9   3   1 225.661 13.8719  14
   9   3   1 225.588 12.4044  12
  -9   3  -1 249.985 16.5682  11
  10  -4  -1 62.9488 6.51240   4
 -10  -4   1 67.9275 6.97712   5
 -10  -4   1 59.2892 8.81242  11
 -10   4   1 60.6711 6.95403   8
  10   4  -1 69.1616 6.45858   4
 -10   4   1 60.8483 6.97568   1
 -10   4   1 56.2031 9.88705  11
   8  -4  -1 304.830 12.9903   4
  -8  -4   1 291.312 13.1801   5
   8  -4  -1 287.209 13.2129  12
  -8  -4   1 283.159 12.5861   1
   8  -4  -1 285.841 13.1727  14
  -8  -4   1 275.386 13.1751   6
  -8  -4   1 284.431 16.2405  11
  -8  -4   1 301.606 15.8530  16
   8   4  -1 294.316 12.5733   4
  -8   4   1 297.116 13.2641   8
  -8   4   1 298.760 13.9711   1
  -8   4   1 299.036 16.5880  11
   8   4  -1 276.365 12.4482   3
   8   4  -1 285.563 13.3606  12
   8   4  -1 280.577 14.6674  14
  -6  -4   1 88.4899 5.44467   1
   6  -4  -1 93.0358 5.37782   2
  -6  -4   1 89.2831 7.56137  11
   6  -4  -1 86.7723 6.86269  10
  -6  -4   1 96.2043 7.79676  16
   6  -4  -1 96.5626 5.56557   4
  -6  -4   1 91.0152 6.09676   5
   6  -4  -1 92.6719 6.09199  12
  -6   4   1 94.7601 6.14364  13
  -6   4   1 92.2989 5.81999   8
   6   4  -1 79.7746 5.46313  12
   6   4  -1 87.1917 6.89159  14
  -6   4   1 91.6767 6.20900   1
   6   4  -1 90.2425 5.73587   3
   6   4  -1 94.7319 5.25205   4
   4  -4  -1 308.968 11.6818  12
   4  -4  -1 319.156 11.5548   2
   4  -4  -1 342.128 12.8937  10
  -4  -4   1 346.222 11.9505   5
   4  -4  -1 321.904 11.0308   4
  -4  -4   1 353.744 13.9278  16
  -4  -4   1 344.964 11.9430  10
  -4  -4   1 349.861 11.3881   1
   4  -4  -1 320.305 9.78076   6
  -4  -4   1 343.453 12.8906  11
   4   4  -1 340.301 12.0144  12
  -4   4   1 293.228 9.96980   5
  -4   4   1 331.907 11.7062  13
   4   4  -1 328.659 10.8801   4
  -4   4   1 311.669 10.6686  16
   4   4  -1 328.710 11.4696   3
  -4   4   1 319.825 11.0025   3
  -4   4   1 338.536 11.7555   8
   4   4  -1 334.121 12.8773  14
  -4   4   1 325.540 11.0447   7
  -2  -4   1 280.331 9.56860   5
  -2  -4   1 275.677 9.00468   2
  -2  -4   1 287.284 10.8759  16
   2  -4  -1 310.850 9.02501   6
   2  -4  -1 285.040 9.65502  12
   2  -4  -1 278.743 9.74595   2
  -2  -4   1 284.937 9.53100  12
  -2  -4   1 267.354 9.67844  11
   2  -4  -1 294.603 9.89447  10
  -2   4   1 266.920 9.36763   8
   2   4  -1 276.504 8.75795   4
  -2   4   1 295.354 9.78146  10
   2   4  -1 264.900 9.61229  12
   2   4  -1 266.239 9.39688   3
  -2   4   1 281.633 9.56972  12
  -2   4   1 276.921 9.24033   3
   2   4  -1 264.767 8.95776  13
  -2   4   1 276.084 8.57268   7
   2   4  -1 272.849 10.1562  14
  -2   4   1 291.718 9.70958  13
   0  -4  -1 0.95610 0.81513  11
   0  -4   1 1.09175 1.01695   2
   0  -4   1 1.10533 0.59699  10
   0  -4  -1 0.29584 0.62201   6
   0  -4   1 3.23607 1.04031  12
   0  -4  -1 0.91947 0.62864   2
   0   4   1 0.91951 0.62208  14
   0   4  -1 0.49973 0.63311   3
   0   4  -1 2.20630 0.90962  14
   0   4   1 1.75584 0.84151  13
   0   4   1 0.20439 0.92526   3
   0   4  -1 -0.2126 0.41245   7
   0   4  -1 0.89394 0.69369  13
   0   4   1 5.53788 1.10586  12
   2  -4   1 261.430 9.88308  10
  -2  -4  -1 251.278 7.82728   2
  -2  -4  -1 237.264 10.2732  11
  -2  -4  -1 256.046 7.93747  15
  -2  -4  -1 248.734 9.03173   6
   2  -4   1 243.810 9.06146   2
  -2  -4  -1 252.014 9.14546   5
   2  -4   1 244.074 7.56682   6
   2  -4   1 256.361 9.09288  12
   2   4   1 245.409 9.14594   3
   2   4   1 277.174 9.91167  14
   2   4   1 243.438 7.80831   4
  -2   4  -1 255.077 8.92831   7
  -2   4  -1 248.744 6.92790  16
  -2   4  -1 262.573 8.97600  13
  -2   4  -1 252.527 8.86520   3
   2   4   1 247.418 8.96416  12
  -2   4  -1 252.660 8.14556   8
   4  -4   1 3.95424 2.16882  10
  -4  -4  -1 -1.3435 1.31415   1
   4  -4   1 0.42116 1.06654   2
  -4  -4  -1 1.21583 1.59117  11
   4  -4   1 4.67789 1.47979  12
  -4  -4  -1 -0.1815 1.41317   5
  -4  -4  -1 -0.6749 1.21902   6
   4   4   1 0.13956 1.34312  14
  -4   4  -1 0.95319 1.05377  13
   4   4   1 3.48967 1.59941  12
  -4   4  -1 -0.3042 0.94158   8
  -4   4  -1 -0.1556 1.59009   1
  -4   4  -1 6.24053 1.89751   7
  -6  -4  -1 30.7270 5.82327  11
   6  -4   1 37.5690 4.36213   4
  -6  -4  -1 32.7837 3.74525   6
  -6  -4  -1 30.8104 4.30716   1
   6  -4   1 34.1720 3.63410   2
   6  -4   1 31.9022 4.60894  10
   6  -4   1 34.5971 4.28833  12
  -6  -4  -1 33.7803 4.12194   5
   6   4   1 34.0808 4.13330  12
   6   4   1 31.2315 3.44642   4
  -6   4  -1 32.3508 5.80220  11
  -6   4  -1 34.6315 4.13232   8
   6   4   1 32.3251 4.81947  14
  -6   4  -1 32.9726 4.88825   1
  -8  -4  -1 25.6956 7.00833  11
   8  -4   1 26.0547 4.66625   4
  -8  -4  -1 28.2917 5.25278   1
   8  -4   1 22.0668 4.30819  12
   8  -4   1 26.8552 4.58801  14
  -8   4  -1 27.7244 5.55342   1
   8   4   1 35.1605 4.27155   4
  -8   4  -1 23.3919 4.02336   8
   8   4   1 36.1686 6.34626  14
  -8   4  -1 34.0028 7.31318  11
   8   4   1 30.1884 4.79823  12
 -10  -4  -1 -1.9320 3.92994   1
 -10  -4  -1 0.26709 5.53417  11
  10  -4   1 -0.3660 3.10679   4
  10   4   1 3.44869 3.13253   3
 -10   4  -1 0.99721 4.69623   1
  10   4   1 0.85985 2.69611  12
  10   4   1 0.11638 3.06305   4
 -10   4  -1 6.56836 5.49832  11
 -11  -5   1 183.497 17.7306  11
  11  -5  -1 208.069 11.7146   4
   9  -5  -1 193.997 10.9464   4
  -9  -5   1 209.058 11.1870   5
  -9  -5   1 200.459 14.8406  11
   9   5  -1 226.431 11.1009   4
  -9   5   1 227.699 12.0471   8
  -9   5   1 221.477 12.9164   1
   9   5  -1 194.636 16.8819  12
  -9   5   1 219.962 15.1072  11
   9   5  -1 196.260 10.8102   3
   9   5  -1 216.117 13.5336  14
  -7  -5   1 1004.79 32.1060   5
  -7  -5   1 949.241 34.5869  11
   7  -5  -1 1006.44 31.0732   4
   7  -5  -1 990.709 32.2528  12
  -7  -5   1 1002.91 35.3889  16
   7  -5  -1 1012.90 30.7050   2
  -7  -5   1 970.645 31.0143   1
  -7   5   1 994.099 31.6732   8
  -7   5   1 1005.96 32.2812   1
   7   5  -1 1004.33 34.0496  14
   7   5  -1 934.719 32.0117  12
   7   5  -1 1011.74 30.5486   4
   7   5  -1 969.663 31.1279   3
   5  -5  -1 1116.84 33.5125   4
  -5  -5   1 1223.06 34.9273   5
  -5  -5   1 1214.50 37.8413  16
   5  -5  -1 1117.47 35.9611  10
   5  -5  -1 1158.03 34.3280   2
   5  -5  -1 1099.18 34.7005  12
  -5  -5   1 1223.72 36.7895  11
  -5   5   1 1120.82 34.4405  13
   5   5  -1 1129.76 35.9509  14
  -5   5   1 1137.13 34.7198   1
  -5   5   1 1118.37 34.2620   8
   5   5  -1 1168.15 35.0308  12
   5   5  -1 1103.26 33.2100   4
   5   5  -1 1155.54 34.2711   3
   3  -5  -1 3612.88 97.7007   4
  -3  -5   1 3516.66 99.7282  11
  -3  -5   1 3581.59 97.7412   2
   3  -5  -1 3655.39 99.7285  10
  -3  -5   1 3611.14 99.0080   5
   3  -5  -1 3648.36 99.2168   2
   3  -5  -1 3595.54 99.2860  12
  -3  -5   1 3705.31 101.371  16
   3  -5  -1 3629.78 97.4918   6
   3   5  -1 3750.07 100.279  14
  -3   5   1 3755.39 99.2509  13
   3   5  -1 3624.46 98.8317   3
   3   5  -1 3590.88 99.2896  12
   3   5  -1 3677.45 97.7975   4
  -3   5   1 3591.51 98.6995   8
  -3   5   1 3745.98 98.6225   3
  -3   5   1 3562.17 98.8026  12
  -3   5   1 3665.96 97.7538   7
   1  -5  -1 2242.49 60.2517  10
   1  -5  -1 2119.33 60.3268   6
  -1  -5   1 2301.31 60.1821  10
  -1  -5   1 2225.88 60.3566   5
  -1  -5   1 2221.78 61.8603  16
   1  -5  -1 2208.86 60.8759   2
  -1  -5   1 2174.69 60.8246  12
  -1  -5   1 2265.44 60.7101   2
   1   5  -1 2209.76 60.5153   7
   1   5  -1 2211.55 60.7697   3
  -1   5   1 2227.13 59.4474   7
  -1   5   1 2195.80 59.9360  10
  -1   5   1 2205.33 60.3313  14
  -1   5   1 2212.30 60.9132  13
   1   5  -1 2139.09 60.8659  12
   1   5  -1 2219.55 61.3957  14
   1   5  -1 2177.07 60.1437  13
  -1   5   1 2199.81 60.6771   3
  -1   5   1 2184.91 60.9000  12
   1  -5   1 3585.83 94.7562   6
   1  -5   1 3602.99 96.1340  10
   1  -5   1 3554.22 95.9207   2
  -1  -5  -1 3538.10 97.2005  11
  -1  -5  -1 3563.94 95.8374   6
   1  -5   1 3500.38 95.7631  12
  -1  -5  -1 3353.60 94.8751   2
   1   5   1 3615.32 95.9188  12
   1   5   1 3597.07 96.0416  14
   1   5   1 3476.33 95.6193  13
  -1   5  -1 3481.90 95.2670  13
   1   5   1 3540.63 95.7810   3
   1   5   1 3528.08 93.6154   4
  -1   5  -1 3520.32 95.5226   3
  -1   5  -1 3594.39 95.3268   7
  -1   5  -1 3400.44 94.1611   8
  -3  -5  -1 750.772 23.3069   6
   3  -5   1 774.872 23.4674   2
  -3  -5  -1 719.608 25.2076  11
  -3  -5  -1 746.130 23.2396   5
   3  -5   1 748.596 23.2820  12
   3  -5   1 747.100 24.3499  10
   3   5   1 731.678 23.1817  12
   3   5   1 750.701 24.2499  14
  -3   5  -1 764.128 22.9431   3
  -3   5  -1 758.739 23.5324   1
  -3   5  -1 742.430 21.9716   8
   3   5   1 715.202 21.4349   4
  -3   5  -1 740.282 22.8065   7
  -3   5  -1 777.804 23.1240  13
   3   5   1 737.778 23.3327   3
   5  -5   1 1092.72 33.3872   2
  -5  -5  -1 1161.43 33.8801   6
  -5  -5  -1 1169.08 34.2917   1
   5  -5   1 1116.99 33.4953   4
   5  -5   1 1048.89 33.9220  12
   5  -5   1 1076.85 35.8288  10
  -5  -5  -1 1151.11 37.5455  11
  -5  -5  -1 1156.96 34.3033   5
   5   5   1 1130.11 34.2697  12
  -5   5  -1 1091.66 33.8577   7
   5   5   1 1108.88 35.6560  14
  -5   5  -1 1110.96 34.7765   1
  -5   5  -1 1088.62 36.7753  11
  -5   5  -1 1075.17 33.0239   8
   5   5   1 1138.84 34.4803   3
   5   5   1 1066.65 32.2403   4
  -7  -5  -1 198.206 9.37905   6
   7  -5   1 158.795 8.99003   4
   7  -5   1 175.750 10.0739  12
  -7  -5  -1 160.929 12.8265  11
  -7  -5  -1 166.808 10.0843   1
  -7   5  -1 191.633 10.7978   1
  -7   5  -1 192.749 12.7341  11
   7   5   1 171.759 10.0039   3
   7   5   1 168.345 11.4224  14
   7   5   1 181.401 10.1768  12
   7   5   1 170.517 8.35614   4
  -9  -5  -1 334.528 21.0695  11
  -9  -5  -1 367.584 17.1329   1
   9  -5   1 359.057 16.2676   4
   9  -5   1 343.804 19.1489  12
  -9   5  -1 369.135 17.5828   1
  -9   5  -1 386.148 21.7639  11
   9   5   1 363.346 15.2279   4
   9   5   1 365.026 16.8036  12
   9   5   1 379.329 16.7599   3
 -10  -6   1 113.826 8.92114   5
  10  -6  -1 121.249 8.63720   4
 -10  -6   1 92.6015 11.8379  11
  10   6  -1 110.493 7.61901   4
 -10   6   1 108.641 12.4011  11
 -10   6   1 127.186 9.86552   1
  -8  -6   1 31.4021 5.07157   5
  -8  -6   1 36.1989 4.77346   6
   8  -6  -1 31.6224 4.13291   4
  -8  -6   1 29.3013 6.36085  11
   8  -6  -1 38.1704 4.58969   2
   8   6  -1 49.3916 5.70355   3
   8   6  -1 41.6127 4.49892   4
  -8   6   1 37.0627 7.43030  11
  -8   6   1 31.5546 5.67789   1
   8   6  -1 34.3746 4.93601  12
  -8   6   1 37.1116 4.93807   8
   8   6  -1 37.8779 6.20293  14
  -6  -6   1 309.822 12.9937   5
   6  -6  -1 280.807 11.4919   4
  -6  -6   1 313.733 14.6826  11
   6  -6  -1 284.797 12.1849   2
   6  -6  -1 288.382 13.8281  10
   6  -6  -1 282.786 14.2233  12
  -6  -6   1 302.400 15.4725  16
   6   6  -1 287.444 14.1091  14
  -6   6   1 277.359 12.0463   8
   6   6  -1 293.396 11.1084   4
   6   6  -1 292.908 12.2044   3
   6   6  -1 291.949 12.9151  12
  -6   6   1 299.804 12.9120   1
  -6   6   1 294.603 12.4485  13
   4  -6  -1 98.9124 6.44258  10
  -4  -6   1 85.9950 7.35605  16
   4  -6  -1 85.7560 5.63925  12
  -4  -6   1 89.2439 6.24296  11
   4  -6  -1 90.8883 5.95758   2
   4  -6  -1 91.0711 4.69056   4
  -4  -6   1 89.7279 5.63749   5
  -4   6   1 83.7231 5.16352   8
   4   6  -1 92.2719 5.17257  13
  -4   6   1 91.2944 5.36663   3
  -4   6   1 94.2008 4.71511   7
   4   6  -1 111.256 6.10990  12
   4   6  -1 97.6863 5.82697   3
   4   6  -1 115.612 6.95259  14
   4   6  -1 108.128 4.88438   4
  -2  -6   1 51.1083 3.82388   5
   2  -6  -1 50.0432 3.68935  10
  -2  -6   1 44.2990 3.38699   2
   2  -6  -1 51.8567 3.13260   6
  -2  -6   1 45.3493 2.67972  10
   2  -6  -1 55.3651 3.96791   2
  -2  -6   1 51.0288 3.78897  11
   2   6  -1 49.8257 3.30408  13
  -2   6   1 52.2861 2.77649   7
  -2   6   1 42.7388 3.65771   3
   2   6  -1 51.4016 4.02262   3
  -2   6   1 46.2137 3.86693  13
  -2   6   1 49.3739 3.44428   8
  -2   6   1 50.1620 3.61331  12
   2   6  -1 49.9309 3.87592  12
   2   6  -1 49.5804 4.45507  14
   0  -6  -1 247.566 9.12805   2
   0  -6   1 242.824 8.93855  10
   0  -6  -1 254.071 7.76312  10
   0  -6   1 240.774 9.32063  12
   0  -6   1 239.200 9.47124   2
   0  -6  -1 252.613 9.29654   6
   0   6   1 232.119 9.30779  12
   0   6   1 234.730 9.14585  13
   0   6  -1 237.498 8.79867  13
   0   6  -1 238.711 8.78182   7
   0   6  -1 223.024 9.12427   3
   0   6   1 243.827 8.12077   7
   0   6   1 238.848 9.17553   3
   0   6  -1 233.423 9.40636  14
   0   6   1 229.981 8.98464  14
   2  -6   1 24.0450 2.04473   6
  -2  -6  -1 20.5188 2.18829   2
   2  -6   1 21.9104 2.99070  10
  -2  -6  -1 24.8225 3.23912   6
   2  -6   1 22.4871 3.01338   2
   2  -6   1 22.4518 2.86308  12
  -2  -6  -1 18.1509 3.19789  11
   2   6   1 26.0455 3.21872  12
   2   6   1 17.2038 2.77842  14
  -2   6  -1 22.9705 2.83638  13
  -2   6  -1 30.5828 3.23937   3
   2   6   1 21.1046 2.83442  13
  -2   6  -1 24.1591 2.32908   7
   2   6   1 23.7422 3.18578   3
   4  -6   1 73.8583 5.54019  12
  -4  -6  -1 59.7369 6.47836  11
   4  -6   1 81.8720 6.05299  10
   4  -6   1 71.6919 5.59053   2
  -4  -6  -1 75.1835 5.23127   6
  -4  -6  -1 75.9511 5.42217   5
  -4   6  -1 71.7078 5.25180   3
  -4   6  -1 70.9675 4.93026  13
  -4   6  -1 74.1681 5.05422   7
   4   6   1 68.0201 5.58402   3
   4   6   1 69.0420 3.89251   4
  -4   6  -1 73.4376 5.98931   1
   4   6   1 64.8328 5.20215  12
   4   6   1 73.0106 6.45580  14
   6  -6   1 13.2551 3.26607   2
   6  -6   1 10.6834 2.60582   4
   6  -6   1 9.56524 2.97569  12
  -6  -6  -1 9.74969 2.96937   6
  -6  -6  -1 8.15619 4.57008  11
   6   6   1 9.84097 2.40962   4
   6   6   1 13.6282 3.77927   3
  -6   6  -1 9.96645 3.82630   1
   6   6   1 4.47552 2.60992  12
   6   6   1 7.76226 3.15957  14
  -6   6  -1 10.6448 4.09704  11
   8  -6   1 0.92656 2.84607  12
  -8  -6  -1 -2.9863 4.98210  11
   8  -6   1 -3.6601 2.54660   4
  -8   6  -1 -1.1696 2.63474  11
   8   6   1 0.99436 4.27574  14
   8   6   1 4.77357 3.58822   3
  -8   6  -1 -0.0875 4.21310   1
   8   6   1 3.55792 2.75686  12
  -9  -7   1 178.551 11.3016   5
   9  -7  -1 160.230 9.67193   4
  -9   7   1 176.821 12.3809   1
  -9   7   1 181.861 14.0164  11
  -7  -7   1 944.620 30.3056   5
  -7  -7   1 980.955 33.4617  11
  -7  -7   1 901.228 29.4886   6
   7  -7  -1 845.517 28.1476   4
   7  -7  -1 871.110 29.1664   2
   7   7  -1 840.275 31.6513  14
  -7   7   1 857.398 29.5474  13
   7   7  -1 876.385 27.6509   4
   7   7  -1 826.915 32.3767  12
   7   7  -1 862.105 29.2268   3
  -7   7   1 852.502 30.2597   1
   5  -7  -1 191.998 9.74044   2
   5  -7  -1 180.227 7.91717   4
  -5  -7   1 182.444 9.71548   5
  -5  -7   1 171.208 10.0311  11
  -5  -7   1 194.721 9.68754   6
   5  -7  -1 188.580 10.1458  10
   5   7  -1 177.792 9.41283  12
   5   7  -1 183.066 10.6454  14
   5   7  -1 178.559 8.31019  13
  -5   7   1 175.418 9.16022  13
   5   7  -1 183.770 9.28146   3
  -5   7   1 181.569 8.86937   3
  -5   7   1 194.299 9.62442   1
   5   7  -1 190.861 7.85015   4
  -5   7   1 177.331 8.61891   8
  -3  -7   1 1162.01 35.6737  11
   3  -7  -1 1183.90 35.4712  10
   3  -7  -1 1162.66 33.4225   6
   3  -7  -1 1204.08 35.5479   2
  -3  -7   1 1149.39 33.8096   2
  -3  -7   1 1194.94 35.0585   5
   3   7  -1 1160.93 34.2142  13
   3   7  -1 1142.70 33.0489   4
   3   7  -1 1166.89 35.0648   3
  -3   7   1 1206.50 34.7749   3
   3   7  -1 1155.30 35.5306  12
   3   7  -1 1177.14 36.3722  14
  -3   7   1 1174.51 35.1290  13
  -3   7   1 1119.97 34.2089   8
   1  -7  -1 437.405 14.0887  10
  -1  -7   1 456.534 15.1790   2
   1  -7  -1 451.091 14.8161   6
   1  -7  -1 451.011 15.3724   2
  -1  -7   1 425.971 13.9626  10
  -1  -7   1 436.937 14.4286   5
  -1  -7   1 436.705 15.0518   6
  -1   7   1 419.938 15.1288  12
   1   7  -1 440.282 15.8708  14
   1   7  -1 417.102 14.3378  13
  -1   7   1 446.954 15.2164  13
   1   7  -1 442.280 15.1785   3
  -1   7   1 421.118 15.0600   3
   1   7  -1 420.182 14.5246   7
  -1  -7  -1 1729.86 49.0630   2
   1  -7   1 1791.80 50.2910   2
  -1  -7  -1 1713.29 51.4174  11
   1  -7   1 1751.88 49.8201  10
   1  -7   1 1694.50 49.8197  12
  -1  -7  -1 1798.87 50.0255   6
   1  -7   1 1752.91 48.7000   6
  -1   7  -1 1737.03 49.6010   3
   1   7   1 1732.97 49.6977  13
  -1   7  -1 1750.96 49.3187  13
   1   7   1 1672.61 49.9984  12
   1   7   1 1746.79 50.1024  14
  -1   7  -1 1743.07 49.0297   7
   1   7   1 1725.69 49.9098   3
   1   7   1 1708.93 48.3786   7
   3  -7   1 733.097 24.3634  12
  -3  -7  -1 734.576 24.2523   6
  -3  -7  -1 716.613 26.1125  11
   3  -7   1 778.999 24.6906   2
   3  -7   1 736.918 25.0020  10
  -3   7  -1 748.472 23.3112   7
   3   7   1 720.017 24.1775   3
   3   7   1 721.656 24.3441  12
  -3   7  -1 770.030 23.9659   3
   3   7   1 724.632 24.9462  14
   3   7   1 733.976 23.9347  13
  -3   7  -1 765.125 23.8080  13
  -5  -7  -1 1349.92 41.3184   6
   5  -7   1 1323.59 41.5037  12
  -5  -7  -1 1275.84 44.1858  11
   5  -7   1 1305.76 39.9446   4
   5  -7   1 1371.25 41.1632   2
  -5   7  -1 1326.78 41.7086   1
   5   7   1 1333.53 41.4221   3
   5   7   1 1318.16 42.8323  14
  -5   7  -1 1399.10 41.2785  13
   5   7   1 1317.24 41.6211  12
  -5   7  -1 1417.37 40.8410   7
  -7  -7  -1 462.695 22.6885  11
   7  -7   1 431.348 18.5176  12
   7  -7   1 407.905 16.9810   4
   7  -7   1 435.852 17.1079   2
  -7  -7  -1 436.603 17.1724   6
   7   7   1 430.991 18.1678   3
   7   7   1 441.446 18.4822  12
  -7   7  -1 422.129 20.8652  11
   7   7   1 416.860 19.7975  14
  -7   7  -1 429.770 19.2208   1
  -9  -7  -1 394.353 22.2179  11
   9  -7   1 400.830 17.4965   4
  -9   7  -1 394.178 28.0709  11
   9   7   1 405.742 18.8181  12
   9   7   1 426.677 18.5982   3
  -9   7  -1 456.304 20.8064   1
  -8  -8   1 24.5582 4.65723   6
  -8  -8   1 16.2747 4.05574   5
   8  -8  -1 24.6000 4.65640   2
  -8   8   1 27.7548 5.98428   1
   8   8  -1 16.2301 4.19211   3
  -8   8   1 17.0075 5.59467  11
   6  -8  -1 378.005 15.9093   2
  -6  -8   1 351.029 17.0994  11
  -6  -8   1 404.066 16.2439   5
  -6  -8   1 373.516 15.7811   6
  -6   8   1 378.727 16.7385   1
   6   8  -1 350.114 15.0782   3
   6   8  -1 365.078 17.0467  14
  -6   8   1 366.417 15.3425  13
  -4  -8   1 209.756 10.7778  11
  -4  -8   1 219.812 10.7774   6
   4  -8  -1 232.813 11.1275   2
  -4  -8   1 221.305 10.6359   5
  -4   8   1 224.886 10.6496  13
   4   8  -1 206.298 9.20044  13
   4   8  -1 228.148 10.5624   3
   4   8  -1 212.506 10.6734  12
  -4   8   1 217.062 10.0340   3
   4   8  -1 214.511 11.5278  14
   2  -8  -1 347.906 12.6283   6
  -2  -8   1 361.345 13.1226   2
   2  -8  -1 369.979 14.1052   2
  -2  -8   1 353.994 13.0491   5
  -2  -8   1 365.852 13.8806   6
   2  -8  -1 337.801 12.8421  10
   2   8  -1 352.365 12.9807   7
   2   8  -1 349.758 12.7875  13
   2   8  -1 344.791 14.3539  14
  -2   8   1 342.122 12.7645   8
   2   8  -1 358.712 13.7290   3
  -2   8   1 337.358 13.3978   3
  -2   8   1 351.997 13.4701  13
   0  -8  -1 947.604 28.9753   2
   0  -8   1 908.051 28.2400  10
   0  -8   1 951.688 29.5502   2
   0  -8   1 947.445 28.6535   6
   0  -8  -1 958.138 29.1472   6
   0   8  -1 936.267 28.3708   7
   0   8   1 964.736 29.3466  13
   0   8   1 916.530 29.0534  14
   0   8   1 937.956 29.2695   3
   0   8   1 934.862 29.5791  12
   0   8  -1 924.811 29.2309   3
   0   8  -1 935.242 28.4559  13
  -2  -8  -1 231.605 10.5365   6
   2  -8   1 227.115 10.8191   2
  -2  -8  -1 228.239 11.7537  11
   2  -8   1 232.453 10.5979  10
   2  -8   1 226.568 10.4436  12
  -2  -8  -1 241.793 9.28733   2
   2   8   1 224.614 10.3516   3
   2   8   1 221.573 10.6751  12
   2   8   1 233.935 10.2201  13
   2   8   1 236.734 9.31749   7
  -2   8  -1 237.389 9.98303  13
   2   8   1 240.365 11.0597  14
  -2   8  -1 237.098 10.4546   3
   4  -8   1 687.003 24.8630  10
  -4  -8  -1 710.211 23.9960   6
   4  -8   1 696.407 23.8952   2
  -4  -8  -1 664.490 26.0630  11
   4  -8   1 641.089 23.5327  12
  -4   8  -1 699.562 22.6040   7
  -4   8  -1 695.403 23.2170  13
   4   8   1 668.032 22.9908  13
   4   8   1 645.901 23.5799   3
  -4   8  -1 703.542 23.3627   3
   4   8   1 651.157 24.5330  14
   4   8   1 665.709 23.9770  12
  -4   8  -1 680.766 23.9637   1
   6  -8   1 251.240 11.3292   4
  -6  -8  -1 257.537 12.4491   6
  -6  -8  -1 229.267 15.2056  11
   6  -8   1 257.549 12.3193   2
   6   8   1 247.686 14.1302  14
   6   8   1 245.514 11.9576  13
   6   8   1 253.258 12.9553   3
  -6   8  -1 239.545 13.4654   1
   6   8   1 244.827 12.7301  12
   8  -8   1 134.212 9.05580   4
  -8  -8  -1 143.424 13.4738  11
   8   8   1 123.983 9.58098  12
  -8   8  -1 127.251 10.4570   1
   8   8   1 127.563 9.86270   3
  -9  -9   1 393.516 17.5107   6
  -9   9   1 465.431 21.2896   1
   7  -9  -1 103.350 8.05844   2
  -7  -9   1 110.507 8.02805   6
  -7  -9   1 111.835 9.17832   5
   7   9  -1 116.080 8.08963   3
   7   9  -1 87.0327 9.54774  14
  -7   9   1 98.2706 9.39218   1
  -7   9   1 106.512 8.24436  13
  -5  -9   1 1535.77 48.3838   6
  -5  -9   1 1593.18 48.6257   5
   5  -9  -1 1655.42 48.9705   2
  -5   9   1 1594.42 48.1756  13
  -5   9   1 1552.91 47.2879   3
   5   9  -1 1528.14 49.8872  14
   5   9  -1 1566.44 48.1337   3
  -5   9   1 1614.72 49.1179   1
   3  -9  -1 327.766 13.7364   2
  -3  -9   1 292.861 11.8008   2
  -3  -9   1 287.767 13.2791   6
   3   9  -1 311.673 14.3338  14
   3   9  -1 319.785 13.3372   3
  -3   9   1 306.811 13.0633  13
  -3   9   1 318.527 13.1827   3
   3   9  -1 316.904 12.9017   7
   3   9  -1 305.665 12.0969  13
   1  -9  -1 2735.64 75.6631   6
  -1  -9   1 2672.72 75.8620   2
  -1  -9   1 2804.20 76.1021   6
   1  -9  -1 2767.03 76.4272   2
  -1   9   1 2726.06 76.2546   3
   1   9  -1 2597.44 76.7829  14
  -1   9   1 2557.17 75.0273   8
  -1   9   1 2669.30 75.9807  13
   1   9  -1 2669.52 76.0769   3
   1   9  -1 2656.57 75.0878  13
  -1  -9  -1 115.993 6.63964   2
  -1  -9  -1 107.876 6.87076   6
   1  -9   1 108.771 6.28143   6
   1  -9   1 103.090 6.99048   2
  -1   9  -1 109.360 7.21232   3
   1   9   1 104.664 7.05213  14
   1   9   1 108.664 6.86324  13
   1   9   1 106.271 7.45780   3
  -1   9  -1 108.304 6.46650  13
   1   9   1 98.9652 6.90492  12
  -1   9  -1 99.7622 5.75225   7
  -3  -9  -1 1532.02 49.0317  11
   3  -9   1 1554.39 46.8214   2
  -3  -9  -1 1641.91 47.5329   6
   3  -9   1 1474.94 46.9253  10
   3   9   1 1501.36 47.1989  14
  -3   9  -1 1548.50 46.1321   3
   3   9   1 1551.15 46.7473   3
   3   9   1 1471.97 46.8830  12
   3   9   1 1521.14 46.0435  13
  -3   9  -1 1493.38 45.5294  13
  -5  -9  -1 5.98474 4.34251  11
  -5  -9  -1 7.21448 2.90289   6
   5  -9   1 9.20041 3.93139   2
   5   9   1 8.72878 3.00339  13
  -5   9  -1 6.34795 2.19436  13
   5   9   1 28.6159 4.99117  12
   5   9   1 8.73232 4.11359  14
   5   9   1 10.3535 3.77159   3
  -5   9  -1 4.13441 2.71373   1
  -7  -9  -1 627.267 27.9650  11
   7  -9   1 593.837 23.0388   2
  -7  -9  -1 628.726 23.8695   6
   7   9   1 595.742 23.6026   3
  -7   9  -1 619.186 25.2436   1
  -8 -10   1 2.78125 3.39757   6
   8 -10  -1 8.54351 3.28184   2
   8  10  -1 2.81160 3.48484   3
  -8  10   1 7.66634 4.03242   1
  -6 -10   1 45.4195 6.42452   6
   6 -10  -1 38.9821 6.19843   2
   6  10  -1 42.8281 6.15244   3
   6  10  -1 33.5695 5.83285  14
  -6  10   1 37.5431 6.83470   1
  -6  10   1 39.4040 5.64252  13
   4 -10  -1 0.11802 2.30029   2
  -4 -10   1 2.36376 3.48574   6
   4  10  -1 -1.4939 2.26473   7
  -4  10   1 1.27214 2.44728  13
   4  10  -1 2.80392 3.12863   3
   4  10  -1 1.99566 3.23145  14
  -4  10   1 1.61274 2.24213   3
   2 -10  -1 3.52812 2.90696   2
   2 -10  -1 1.98088 2.23089   6
  -2 -10   1 1.89957 2.23190   2
  -2 -10   1 3.31801 3.00664   6
   2  10  -1 2.25457 2.27754   7
  -2  10   1 0.85178 2.80902   3
   2  10  -1 5.55624 3.24719  14
   2  10  -1 -1.3182 2.54903   3
  -2  10   1 -0.5939 2.09272  13
   0 -10   1 48.8603 5.30292   6
   0 -10   1 52.5089 5.63759   2
   0 -10  -1 56.3153 5.79359   2
   0 -10  -1 52.2582 5.68948   6
   0  10   1 49.9094 5.09596  13
   0  10   1 52.7340 6.01960   3
   0  10  -1 51.8291 5.74893   3
   0  10  -1 39.7637 4.38992  13
  -2 -10  -1 34.7514 5.14648   6
   2 -10   1 40.8977 5.73529   2
   2  10   1 42.2194 5.48332  14
   2  10   1 20.0355 6.44271  12
  -2  10  -1 35.8109 4.43183  13
   2  10   1 45.4093 5.43074   3
   2  10   1 41.6096 5.02751  13
  -2  10  -1 37.4976 5.22471   3
  -4 -10  -1 23.2519 4.79253   6
   4 -10   1 21.3670 4.35253   2
  -4 -10  -1 31.6683 6.17485  11
   4  10   1 26.1840 5.30134  14
   4  10   1 26.3629 4.57232   3
  -4  10  -1 37.0670 5.67127   1
   4  10   1 24.9609 4.26078  13
   4  10   1 17.5268 4.04164  12
  -4  10  -1 16.3596 3.20672  13
  -4  10  -1 26.2124 4.88688   3
   6 -10   1 1.27607 3.82482   2
  -6 -10  -1 2.64028 3.37630   6
   6  10   1 -3.3047 3.21768   3
  -6  10  -1 -1.9470 4.12661   1
  -7 -11   1 259.456 14.3263   6
   7 -11  -1 251.786 14.0428   2
  -7  11   1 238.212 14.2435   1
   7  11  -1 246.123 13.4942   3
  -5 -11   1 172.041 11.0067   6
   5 -11  -1 174.581 11.6827   2
   5  11  -1 165.715 10.1060   3
  -5  11   1 158.174 10.0437  13
  -5  11   1 159.880 10.4107   3
  -5  11   1 152.766 11.1758   1
   5  11  -1 152.888 12.9640  14
  -3 -11   1 188.928 11.2083   6
   3 -11  -1 198.763 11.5113   2
   3  11  -1 194.913 11.5109  14
   3  11  -1 175.986 10.8723   3
  -3  11   1 171.688 9.87414  13
  -3  11   1 188.005 10.3284   3
  -1 -11   1 305.178 13.5299   2
   1 -11  -1 321.595 14.3911   2
   1 -11  -1 302.825 13.4920   6
  -1 -11   1 329.352 14.4863   6
  -1  11   1 299.585 14.2712   3
  -1  11   1 292.946 13.5371  13
   1  11  -1 293.015 14.1544   3
   1 -11   1 269.729 13.5078   2
  -1 -11  -1 267.309 12.1030   2
  -1 -11  -1 275.104 13.1044   6
   1  11   1 278.104 13.7895   3
  -1  11  -1 226.901 12.9911  13
   1  11   1 265.795 12.3698  13
  -1  11  -1 281.187 12.9894   3
   3 -11   1 595.899 22.9528   2
  -3 -11  -1 597.200 23.0876   6
  -3  11  -1 580.667 22.2995  13
  -3  11  -1 619.162 22.9692   3
   3  11   1 596.581 23.2728   3
   3  11   1 591.906 23.3398  14
   5 -11   1 328.648 15.8286   2
  -5 -11  -1 347.272 16.6019   6
   5  11   1 320.134 16.2077   3
  -5  11  -1 308.538 16.4778   1
   6 -12  -1 7.94748 3.61349   2
  -6 -12   1 4.63917 2.98635   6
   6  12  -1 3.83196 3.74290   3
  -6  12   1 9.12286 5.39108   1
   4 -12  -1 110.921 9.58892   2
  -4 -12   1 127.773 9.76961   6
  -4  12   1 110.195 9.62091   3
   4  12  -1 119.092 9.55935   3
   2 -12  -1 121.968 9.36440   2
  -2 -12   1 117.639 9.62796   6
  -2  12   1 123.607 8.58317  13
  -2  12   1 118.150 9.53054   3
   2  12  -1 139.605 9.95319   3
   0 -12  -1 24.7083 4.60223   2
   0 -12  -1 25.5221 4.31010   6
   0 -12   1 21.5562 4.51729   6
   0 -12   1 26.7065 4.96452   2
   0  12   1 24.2417 4.25538  13
   0  12  -1 25.4860 5.10029   3
   0  12   1 26.2442 4.90324   3
   2 -12   1 236.656 12.7485   2
  -2 -12  -1 225.505 13.1574   6
   2  12   1 240.354 13.3867   3
  -2  12  -1 225.664 12.3308   3
  -4 -12  -1 26.8313 6.18874   6
   4 -12   1 21.0353 4.73248   2
   4  12   1 13.4522 3.96911   3
  -4  12  -1 20.3811 5.42233   3
  -4  12  -1 14.1238 4.08970   1
  -3 -13   1 864.521 31.2518   6
   3 -13  -1 877.148 31.6470   2
   3  13  -1 852.159 31.1903   3
  -3  13   1 872.766 31.0356   3
  -1 -13   1 144.276 9.59068   2
  -1 -13   1 153.650 9.78960   6
   1 -13  -1 154.326 10.2919   2
   1  13  -1 159.043 10.6880   3
  -1  13   1 149.147 10.9214   3
  -1 -13  -1 642.170 25.0041   6
   1 -13   1 661.068 25.2718   2
  -1  13  -1 631.285 24.8114   3
   1  13   1 659.283 25.6267   3
  -3 -13  -1 47.5202 7.11615   6
   3 -13   1 51.4192 7.20480   2
  -3  13  -1 47.2673 6.24060   3
  -3  13  -1 43.6992 6.22378   1
   3  13   1 43.0698 6.49267   3
  -2 -14   1 34.5156 6.28054   6
   2 -14  -1 21.5510 4.56047   2
   0 -14   1 3.08514 2.96541   2
   0 -14  -1 -1.3217 3.43906   6
   0  14  -1 1.49084 4.09217   3
   0  14   1 -1.8891 4.16094   3
 -12   0   2 49.1534 11.9364  11
  12   0  -2 36.5323 5.21628   4
  10   0  -2 928.497 31.8419   4
 -10   0   2 983.364 33.5131   8
 -10   0   2 961.416 31.9030   1
  10   0  -2 932.881 33.3394  14
 -10   0   2 992.516 38.2056  11
   8   0  -2 503.150 19.0510  12
  -8   0   2 520.917 19.9971  16
  -8   0   2 568.847 22.9718  11
   8   0  -2 514.506 19.6888  14
  -8   0   2 515.898 17.8010   5
  -8   0   2 530.015 18.5888   1
   8   0  -2 541.237 18.6073   4
  -8   0   2 546.829 19.8001   8
   8   0  -2 507.135 19.7213  10
  -6   0   2 4571.61 120.625   1
   6   0  -2 4215.36 121.439  12
   6   0  -2 4474.32 120.923   4
  -6   0   2 4485.37 124.083  11
   6   0  -2 4502.59 121.911  14
  -6   0   2 4558.66 122.810  16
   6   0  -2 4418.63 120.295   9
   6   0  -2 4505.78 122.291  10
  -6   0   2 4490.82 121.864   8
  -6   0   2 4406.85 120.612   5
   4   0  -2 2881.34 77.7151  10
  -4   0   2 2860.05 78.0498  16
  -4   0   2 2819.44 77.3410   8
   4   0  -2 2843.45 76.6907   4
   4   0  -2 2806.16 77.0647  14
   4   0  -2 2786.59 77.1640  12
   4   0  -2 2796.38 76.6170   9
  -4   0   2 2898.38 76.3051   1
  -4   0   2 2839.59 76.7520   5
   2   0  -2 9339.08 248.281   4
  -2   0   2 9495.84 247.462  13
  -2   0   2 8886.08 247.476  12
   2   0  -2 9222.94 248.113   6
   2   0  -2 9009.43 247.611  14
  -2   0   2 9378.45 250.821  10
  -2   0   2 9186.48 255.248  16
  -2   0   2 9342.60 250.398   5
  -2   0   2 9334.70 251.084   8
   2   0  -2 8999.52 248.966   9
   0   0  -2 165.450 5.23439   6
   0   0  -2 176.077 5.43247   7
   0   0  -2 173.877 5.87353  11
   0   0  -2 163.970 5.34007   1
   0   0  -2 164.952 5.47536   9
   0   0  -2 159.322 5.66358  15
   2   0   2 4789.53 133.453  12
  -2   0  -2 4717.25 132.992   6
   2   0   2 4886.53 133.428   2
  -2   0  -2 4901.01 133.756  11
  -2   0  -2 5054.36 132.361   1
  -2   0  -2 4893.84 134.796  15
   2   0   2 5136.95 138.311  10
  -2   0  -2 5003.07 132.260   7
  -2   0  -2 4901.54 134.621  10
   2   0   2 5133.80 133.455  12
   4   0   2 25.0076 3.00457  10
  -4   0  -2 22.9489 3.83110  11
  -4   0  -2 24.5912 3.03046   1
   4   0   2 25.1973 2.39499  12
   4   0   2 25.9450 2.82250   4
   6   0   2 2076.78 63.5198  14
   6   0   2 2201.33 61.4132  12
  -6   0  -2 2172.56 67.0406  11
   6   0   2 2116.67 62.3841  10
   6   0   2 2179.04 61.5283   4
  -6   0  -2 2207.20 62.9137   1
   8   0   2 6.21588 2.98399  12
   8   0   2 5.29130 3.55086  14
   8   0   2 8.83790 3.75492   4
  -8   0  -2 11.5313 4.49071   1
  -8   0  -2 19.5953 6.27012  11
 -10   0  -2 964.965 40.6950  11
  10   0   2 979.387 33.2659   4
 -10   0  -2 979.181 35.3107   1
  10   0   2 993.724 34.4703  12
 -11  -1   2 104.208 11.6747  11
  11  -1  -2 124.125 8.54183   4
 -11   1   2 116.402 9.86275   8
 -11   1   2 122.251 14.4871  11
  11   1  -2 118.985 9.43174   4
   9  -1  -2 2.64093 2.21406   4
  -9  -1   2 -3.5499 3.77711  11
   9  -1  -2 0.43540 1.66276  14
  -9  -1   2 2.36314 2.06646   5
  -9  -1   2 0.17039 2.21319  16
  -9  -1   2 -1.6520 2.70206   8
  -9  -1   2 -0.7829 2.47973   1
   9   1  -2 1.91258 2.64249  14
  -9   1   2 -1.8650 2.55761   1
  -9   1   2 -2.5116 3.99401  11
   9   1  -2 -0.4869 2.70693   4
  -9   1   2 0.83800 2.29725   8
  -7  -1   2 169.626 9.22069  16
  -7  -1   2 143.615 7.09276   1
   7  -1  -2 158.816 7.83503   4
   7  -1  -2 146.816 7.94833  14
   7  -1  -2 135.949 7.73888  12
   7  -1  -2 139.839 6.95622   9
   7  -1  -2 149.898 8.40713  10
  -7  -1   2 152.082 8.07401   8
  -7  -1   2 146.365 9.82050  11
  -7  -1   2 166.953 7.61015   5
  -7   1   2 146.112 8.05719  16
  -7   1   2 142.228 6.76802   5
  -7   1   2 165.824 10.0068  11
  -7   1   2 165.004 8.56791   8
  -7   1   2 145.910 7.33929   1
   7   1  -2 143.905 7.89867  12
   7   1  -2 145.994 8.16194  14
   7   1  -2 144.386 8.05552  10
   7   1  -2 160.967 7.54663   4
  -5  -1   2 206.505 7.63107   1
  -5  -1   2 217.830 9.65395  16
   5  -1  -2 212.769 8.33113  14
   5  -1  -2 217.498 7.41541   2
   5  -1  -2 224.552 9.24484  10
   5  -1  -2 210.393 7.98118   4
  -5  -1   2 213.898 9.76408  11
  -5  -1   2 204.674 8.07501   5
   5  -1  -2 204.284 8.41216  12
  -5  -1   2 207.488 8.60965   8
   5   1  -2 195.758 8.30392  12
   5   1  -2 207.488 8.57509  10
   5   1  -2 211.375 7.49979   9
  -5   1   2 216.964 7.81859   5
  -5   1   2 200.744 7.87402  13
  -5   1   2 202.253 7.77399   1
   5   1  -2 216.847 8.78059  14
  -5   1   2 223.955 8.99523  16
  -5   1   2 218.549 8.79050   8
   5   1  -2 203.856 8.05247   4
  -3  -1   2 257.714 8.74644  10
  -3  -1   2 260.986 9.45071  16
  -3  -1   2 264.652 8.63050   8
   3  -1  -2 254.282 8.14294   4
   3  -1  -2 255.106 8.20064   2
  -3  -1   2 257.654 7.86621   1
  -3  -1   2 269.555 8.45745  12
   3  -1  -2 271.406 8.04584   6
   3  -1  -2 268.296 9.11326  10
   3  -1  -2 242.801 7.94707  14
  -3  -1   2 258.729 8.58074   5
   3   1  -2 253.426 8.28923   4
  -3   1   2 254.873 8.25047   5
   3   1  -2 241.916 8.48599  12
   3   1  -2 273.538 8.84722  14
   3   1  -2 253.283 8.17206   9
  -3   1   2 261.186 9.11108  16
  -3   1   2 256.364 9.00514  10
  -3   1   2 253.464 8.37331  12
  -3   1   2 253.869 7.99581   1
  -3   1   2 268.553 8.36054  13
  -3   1   2 260.495 8.81268   8
   1  -1  -2 2187.74 60.1968   9
  -1  -1   2 2444.69 59.7693  13
  -1  -1   2 2303.54 61.1761   5
  -1  -1   2 2192.35 60.8091  12
  -1  -1   2 2246.52 62.6280  16
  -1  -1   2 2364.06 59.6678  13
   1  -1  -2 2094.40 60.3272  15
   1  -1  -2 2124.98 60.0379   6
   1   1  -2 2345.58 60.2959  14
   1   1  -2 2348.71 59.9524   4
  -1   1   2 2167.16 61.3965  12
   1   1  -2 2138.12 60.1348  15
  -1   1   2 2234.41 61.3456  13
   1   1  -2 2256.79 60.1960   7
   1   1  -2 2201.27 60.2874   9
  -1  -1  -2 236.524 7.32843   6
   1  -1   2 234.818 6.35281  12
  -1  -1  -2 235.750 7.76595   1
  -1  -1  -2 230.574 7.51931   7
  -1  -1  -2 240.029 8.71515  11
   1  -1   2 242.434 8.11094  10
  -1  -1  -2 228.270 7.03661   9
  -1  -1  -2 241.938 7.80495  15
  -1   1  -2 220.194 7.88061  15
  -1   1  -2 220.147 7.66548   7
  -1   1  -2 222.442 7.62311   1
  -1   1  -2 216.727 8.05494  11
  -1   1  -2 220.122 7.55242   9
   1   1   2 251.812 7.45663  10
  -3  -1  -2 237.741 9.26057   1
  -3  -1  -2 240.906 10.8312  11
   3  -1   2 262.871 8.27350  12
   3  -1   2 251.114 8.11931   2
   3  -1   2 258.027 9.69500  10
  -3  -1  -2 234.387 7.95221   6
   3   1   2 244.629 9.73724  14
  -3   1  -2 242.182 10.6222  11
  -3   1  -2 236.695 9.26498   7
   3   1   2 259.169 9.10799  10
  -3   1  -2 248.694 8.88031   8
  -3   1  -2 241.842 9.27635   1
   3   1   2 246.357 8.63124   4
   3   1   2 246.944 8.06213  12
   5  -1   2 271.136 10.8057   4
  -5  -1  -2 280.381 11.6526   1
   5  -1   2 273.431 10.4148  12
   5  -1   2 272.212 11.6938  10
  -5  -1  -2 286.933 14.2903  11
   5   1   2 277.172 12.0210  14
  -5   1  -2 253.930 10.9065   8
   5   1   2 276.211 10.3348  12
   5   1   2 275.474 10.4772   4
   5   1   2 260.873 10.7665  10
  -5   1  -2 270.582 11.3025   1
  -5   1  -2 276.750 13.6621  11
   7  -1   2 8.86114 3.70197  10
   7  -1   2 6.58928 2.74079  14
  -7  -1  -2 12.4535 5.08051  11
   7  -1   2 6.51627 3.11887   4
   7  -1   2 4.45329 2.36555  12
  -7  -1  -2 10.7658 3.84734   1
  -7   1  -2 14.0963 4.31851  11
   7   1   2 5.91475 3.44689  14
   7   1   2 3.83906 2.24455   4
  -7   1  -2 8.84849 3.11209   1
   7   1   2 7.03709 2.64919  12
   9  -1   2 155.962 10.3744   4
  -9  -1  -2 160.928 14.4031  11
   9  -1   2 162.050 10.3039  12
  -9  -1  -2 156.082 11.5660   1
   9   1   2 163.168 10.2688  12
   9   1   2 170.523 10.5642   4
  -9   1  -2 180.113 12.3370   1
  -9   1  -2 158.815 14.6331  11
  10  -2  -2 85.5348 7.69475   4
 -10  -2   2 71.7539 7.93255   8
 -10  -2   2 97.3342 10.5806   5
 -10  -2   2 91.2807 11.1884  11
  10   2  -2 67.8457 6.97437  14
 -10   2   2 87.9404 8.71164   8
  10   2  -2 66.9739 6.73929   4
 -10   2   2 73.8018 7.35308   1
 -10   2   2 68.6958 10.6536  11
  -8  -2   2 1069.24 33.4156   5
   8  -2  -2 1029.49 34.0125  14
  -8  -2   2 1073.48 34.9194   8
  -8  -2   2 1101.97 36.4940  16
  -8  -2   2 1120.66 33.3154   1
  -8  -2   2 1113.91 38.2179  11
   8  -2  -2 1050.24 34.5586  12
   8  -2  -2 1108.35 33.8727   4
   8  -2  -2 1057.48 35.6054  10
  -8   2   2 1134.19 35.2521   8
  -8   2   2 1108.17 34.0261   1
   8   2  -2 1081.10 35.5363  14
  -8   2   2 1095.25 38.5985  11
   8   2  -2 1097.70 33.7027   4
   8   2  -2 1026.98 34.3079  12
  -6  -2   2 71.7828 4.16491   1
   6  -2  -2 65.1882 4.34321  14
   6  -2  -2 64.0791 5.49712  10
   6  -2  -2 68.4604 3.81639   2
   6  -2  -2 74.0430 4.45462   4
  -6  -2   2 83.0120 6.48194  11
   6  -2  -2 70.6416 4.77182  12
  -6  -2   2 68.4703 4.72989   5
  -6  -2   2 78.1952 5.37133   8
  -6  -2   2 68.9075 5.62320  16
   6   2  -2 63.1182 4.44414  12
   6   2  -2 64.1476 3.42710   9
  -6   2   2 70.5165 4.40235  13
   6   2  -2 66.9399 5.29110  14
   6   2  -2 74.1818 4.85661   4
  -6   2   2 74.1171 3.97967   5
  -6   2   2 73.4057 4.90846  16
  -6   2   2 68.4894 4.89390   8
  -6   2   2 68.8995 4.51151   1
  -4  -2   2 3114.14 86.1483   8
   4  -2  -2 3277.68 87.1159  10
   4  -2  -2 3198.60 85.5588   2
   4  -2  -2 3057.83 85.3283  14
   4  -2  -2 3282.31 84.7905   6
  -4  -2   2 3106.18 86.0791   5
   4  -2  -2 3169.47 85.4587   4
  -4  -2   2 3247.59 87.2862  11
  -4  -2   2 3047.21 84.8979   1
  -4  -2   2 3197.25 87.8495  16
  -4  -2   2 2994.90 85.5678  12
   4  -2  -2 3088.72 86.1250  12
   4   2  -2 3140.45 86.2880  12
   4   2  -2 3214.70 85.0128   9
  -4   2   2 3134.21 85.2315   5
  -4   2   2 3269.25 85.8193  13
  -4   2   2 3148.98 86.3459  16
   4   2  -2 3180.30 85.6290   4
  -4   2   2 3267.95 85.6429   1
  -4   2   2 3160.91 85.7668  12
   4   2  -2 3228.02 86.7999  14
  -4   2   2 3225.11 86.4232   8
   2  -2  -2 718.701 20.7538   6
  -2  -2   2 751.584 21.0059  12
  -2  -2   2 783.277 20.7986   8
   2  -2  -2 734.589 21.1014   2
  -2  -2   2 764.588 22.1384  16
   2  -2  -2 717.016 20.2567   4
  -2  -2   2 755.224 21.1486   5
   2  -2  -2 716.678 21.3159  10
  -2   2   2 714.419 20.9503  12
  -2   2   2 716.405 21.2826  10
   2   2  -2 743.968 20.9261   9
  -2   2   2 776.391 21.1680  13
  -2   2   2 727.306 21.4219   8
  -2   2   2 725.137 20.4399   3
   2   2  -2 756.066 21.5540  14
   2   2  -2 751.811 20.5275   3
   2   2  -2 753.699 20.8232   4
   0  -2  -2 7472.69 218.781   6
   0  -2  -2 8071.87 217.896   9
   0  -2  -2 8314.09 224.254  11
   0  -2  -2 8624.03 220.981   1
   0  -2  -2 8186.09 221.572  15
   0  -2   2 7876.96 216.328  12
   0  -2  -2 7663.77 216.363   2
   0  -2   2 8024.42 219.076  16
   0   2  -2 7886.01 216.772   3
   0   2  -2 7401.17 219.026   9
   0   2  -2 8646.93 221.553   7
   0   2   2 8093.28 218.575  14
   0   2  -2 7929.36 218.428   1
   0   2   2 8194.59 215.696   3
   0   2  -2 7903.10 220.421  15
   0   2   2 8570.32 215.890  12
   0   2  -2 7853.20 215.549  13
  -2  -2  -2 3618.61 96.1904  15
   2  -2   2 3515.94 96.0438   2
   2  -2   2 3373.98 97.4171  12
  -2  -2  -2 3611.05 96.0859   6
  -2  -2  -2 3624.18 96.6776   1
  -2  -2  -2 3795.77 98.7766  11
   2  -2   2 3499.93 97.3249  10
  -2   2  -2 3421.83 96.5382   1
   2   2   2 3738.93 97.8000  12
   2   2   2 3658.79 97.8018  10
   2   2   2 3639.72 95.7606   4
   2   2   2 3822.72 97.4021  14
  -2   2  -2 3386.05 95.6652   8
  -2   2  -2 3459.72 97.5698  11
  -2   2  -2 3519.07 96.6460   7
  -4  -2  -2 3376.61 96.7692  11
   4  -2   2 3514.52 92.4704  12
   4  -2   2 3380.36 91.8948   2
   4  -2   2 3433.42 92.8423   4
   4  -2   2 3402.54 94.4261  10
  -4  -2  -2 3332.19 93.4256   1
  -4  -2  -2 3155.37 91.7856   6
  -4   2  -2 3391.34 92.8845   8
  -4   2  -2 3322.61 95.9353  11
   4   2   2 3468.52 94.7003  14
  -4   2  -2 3437.68 93.5744   7
  -4   2  -2 3464.85 93.8203   1
   4   2   2 3385.15 92.5653  10
   4   2   2 3447.21 92.4715   4
   4   2   2 3516.21 92.3880  12
   6  -2   2 1020.47 30.7756  12
   6  -2   2 953.880 32.1705  10
  -6  -2  -2 940.536 35.4198  11
   6  -2   2 984.780 30.7985   4
  -6  -2  -2 954.206 31.4460   1
   6   2   2 961.428 32.5760  14
   6   2   2 1001.03 30.5892  12
  -6   2  -2 985.860 35.1892  11
   6   2   2 995.433 30.2033   4
  -6   2  -2 1007.78 31.2699   8
  -6   2  -2 1003.43 31.8619   1
   8  -2   2 555.089 20.6663   4
  -8  -2  -2 551.801 21.3532   1
  -8  -2  -2 531.255 25.5154  11
   8  -2   2 514.748 21.8344  14
   8   2   2 546.053 22.6660  14
  -8   2  -2 543.304 26.0297  11
  -8   2  -2 570.820 22.6286   1
   8   2   2 556.767 20.0560   4
   8   2   2 547.555 20.8755  12
  10  -2   2 144.581 9.68610   4
 -10  -2  -2 150.744 11.6860   1
  10  -2   2 144.829 10.3055  12
 -10  -2  -2 159.197 15.0216  11
  10   2   2 158.399 10.3694   4
 -10   2  -2 148.802 12.1998   1
 -10   2  -2 170.953 15.3144  11
  11  -3  -2 69.0617 7.01031   4
 -11  -3   2 77.3604 11.3963  11
 -11   3   2 77.7753 11.1317  11
 -11   3   2 94.0729 9.11705   8
  11   3  -2 82.0423 7.70782   4
  -9  -3   2 0.39096 3.45183   8
  -9  -3   2 4.34285 3.12064  16
  -9  -3   2 1.13792 3.18278  11
  -9  -3   2 0.16074 1.61093   5
   9  -3  -2 2.38491 2.48253   9
   9  -3  -2 -0.6616 1.79365   4
   9   3  -2 1.43077 2.15304  14
  -9   3   2 0.99945 2.90428   8
  -9   3   2 7.33029 4.73460  11
   9   3  -2 5.26821 3.20088   4
  -9   3   2 4.42252 3.24526   1
  -7  -3   2 95.2297 5.58561   1
   7  -3  -2 96.3463 6.42757  12
   7  -3  -2 97.6058 6.04057  14
   7  -3  -2 98.8082 7.43860  10
   7  -3  -2 104.560 5.34177   2
  -7  -3   2 99.6821 6.48153   5
   7  -3  -2 108.151 6.01030   4
  -7  -3   2 100.740 8.21440  11
  -7  -3   2 87.1944 7.55781  16
  -7  -3   2 96.2947 6.84220   8
  -7   3   2 106.476 6.47050   1
   7   3  -2 95.7523 6.88322  14
   7   3  -2 83.7063 6.22700  12
   7   3  -2 90.6776 6.00443   4
  -7   3   2 105.992 6.58057   8
   5  -3  -2 207.069 7.97184   2
   5  -3  -2 208.956 9.52916  10
  -5  -3   2 211.657 8.55837   5
  -5  -3   2 197.925 7.47233   1
  -5  -3   2 203.496 8.51599   8
  -5  -3   2 198.795 9.57359  11
   5  -3  -2 205.283 7.92748   4
  -5  -3   2 230.200 10.5561  16
   5  -3  -2 197.147 8.53795  12
   5   3  -2 185.706 8.25461  12
   5   3  -2 187.965 7.67864   3
  -5   3   2 203.293 7.35422   5
  -5   3   2 201.294 8.30640   1
  -5   3   2 204.009 8.33474  16
   5   3  -2 203.356 9.34070  14
  -5   3   2 209.601 8.31306  13
  -5   3   2 213.427 8.84916   8
   5   3  -2 210.320 8.12288   4
  -3  -3   2 13.2600 1.81065   5
  -3  -3   2 14.6330 1.81147  12
  -3  -3   2 12.9281 1.69039   8
   3  -3  -2 15.2691 2.06271  10
   3  -3  -2 12.6943 1.91703  12
   3  -3  -2 11.2115 1.28727   4
   3  -3  -2 15.9819 1.41313   6
  -3  -3   2 12.0020 2.33912  16
  -3  -3   2 16.5125 2.01654  11
  -3  -3   2 16.0172 1.74624  10
   3  -3  -2 12.6492 1.70938   2
  -3   3   2 11.1883 1.63593  13
  -3   3   2 14.0257 1.79270  12
   3   3  -2 11.7820 1.38551   9
   3   3  -2 13.6004 1.84891  12
  -3   3   2 15.0492 1.93418   8
   3   3  -2 13.3306 2.18666  14
   3   3  -2 13.7967 1.57230   3
   1  -3  -2 1614.91 44.6608   6
  -1  -3   2 1673.84 45.3417  16
  -1  -3   2 1672.52 44.6730  12
  -1  -3   2 1644.93 44.7441   2
  -1  -3   2 1646.84 44.3767   5
   1  -3  -2 1634.70 44.1786  10
   1  -3  -2 1617.26 44.6981   2
   1   3  -2 1647.64 45.3068  14
  -1   3   2 1615.01 44.4202   3
   1   3  -2 1645.56 44.8858   7
  -1   3   2 1577.16 44.1323  10
  -1   3   2 1648.43 44.5429  12
   1   3  -2 1616.66 44.4075   3
  -1   3   2 1651.58 44.9041  13
  -1   3   2 1648.22 43.8687  14
   1   3  -2 1610.38 44.7354   9
   1   3  -2 1566.52 43.6701  13
   1  -3   2 144.605 6.16556  10
   1  -3   2 147.672 5.66147   2
  -1  -3  -2 144.445 5.60756   6
   1  -3   2 136.728 5.18649  12
  -1  -3  -2 138.457 4.79184   2
  -1  -3  -2 135.766 5.27045  15
  -1  -3  -2 136.060 5.68718   1
  -1  -3  -2 139.471 6.79656  11
  -1   3  -2 139.968 5.70215   7
   1   3   2 144.214 4.00101  10
   1   3   2 139.855 4.98544  12
   1   3   2 134.980 5.64573  14
   1   3   2 138.363 4.49491   4
  -1   3  -2 134.029 5.49120   1
  -1   3  -2 141.149 5.19622  13
  -1   3  -2 135.702 5.32555   3
   1   3   2 131.472 5.53176   3
  -3  -3  -2 15.4239 3.23309  11
   3  -3   2 18.1404 2.20604   2
  -3  -3  -2 17.8616 1.80765  15
  -3  -3  -2 23.8081 2.53174   6
  -3  -3  -2 17.4924 2.57602   1
   3  -3   2 19.6100 3.05373  10
   3  -3   2 16.4323 2.13312  12
   3   3   2 21.8390 1.80983  10
  -3   3  -2 14.8781 2.50226   1
   3   3   2 23.8563 1.98618   4
  -3   3  -2 33.5282 4.06194  11
   3   3   2 16.4973 2.05504  12
  -3   3  -2 16.6610 1.94271   8
   3   3   2 19.7698 3.04968  14
  -3   3  -2 18.4806 2.72412   7
   5  -3   2 5.23842 1.83218   4
   5  -3   2 4.35558 1.93750  12
  -5  -3  -2 1.50717 2.13023  11
  -5  -3  -2 4.89606 1.93779   1
   5  -3   2 1.29176 2.24993  10
  -5  -3  -2 1.61429 1.27722   6
   5  -3   2 6.42119 1.86236   2
   5   3   2 0.26490 1.55700   4
   5   3   2 4.00198 2.76748  14
  -5   3  -2 3.50326 2.36413   1
   5   3   2 2.86187 1.63308  12
  -5   3  -2 1.10106 1.39861   8
  -5   3  -2 3.54206 1.83007   7
  -5   3  -2 -1.1235 1.53546  11
   7  -3   2 64.0028 5.96043   4
  -7  -3  -2 57.0249 8.61956  11
  -7  -3  -2 57.4971 6.56426   1
   7  -3   2 61.7206 5.76911  12
   7  -3   2 52.7928 6.38391  14
   7   3   2 68.9394 7.50274  14
   7   3   2 62.9433 5.86523  12
  -7   3  -2 71.3107 7.88911  11
   7   3   2 58.9009 5.47840   4
  -7   3  -2 71.4989 6.54613   1
  -9  -3  -2 7.87010 6.56473  11
   9  -3   2 2.91071 3.61620   4
  -9  -3  -2 10.2312 4.66371   1
   9  -3   2 4.61836 3.28405  12
   9   3   2 11.6304 3.78747   4
   9   3   2 8.91500 3.49559  12
  -9   3  -2 12.7836 4.83198  11
  -9   3  -2 8.62504 5.09337   1
  10  -4  -2 47.4055 5.85368   9
 -10  -4   2 62.7409 6.54545   5
 -10  -4   2 59.3119 9.40461  11
  10  -4  -2 54.8053 6.36736   4
 -10   4   2 62.2306 7.35819   1
 -10   4   2 55.4791 6.86904   8
 -10   4   2 69.6011 9.75544  11
  10   4  -2 48.5999 7.02523  14
  10   4  -2 62.2007 6.62242   4
  -8  -4   2 2338.74 65.0112   1
  -8  -4   2 2245.50 69.8668  11
   8  -4  -2 2257.16 65.2157   4
  -8  -4   2 2219.67 69.4683  16
  -8  -4   2 2240.64 65.9126   5
   8   4  -2 2234.23 68.2391  14
  -8   4   2 2292.60 71.0685  11
  -8   4   2 2325.90 66.3783   1
   8   4  -2 2334.48 65.4237   4
   8   4  -2 2201.33 66.6855  12
  -8   4   2 2325.43 66.7958   8
  -6  -4   2 439.872 17.5285  11
  -6  -4   2 448.285 15.8923   5
   6  -4  -2 406.976 15.5796  12
   6  -4  -2 439.230 14.8873   4
  -6  -4   2 435.279 14.5605   1
  -6  -4   2 448.263 17.9555  16
   6  -4  -2 418.490 14.7846  14
   6  -4  -2 436.709 16.9059  10
   6  -4  -2 439.542 14.9495   2
  -6  -4   2 424.721 15.7100   8
   6   4  -2 431.287 14.8762   4
  -6   4   2 447.984 15.6041  13
  -6   4   2 436.267 15.9189   8
   6   4  -2 411.013 14.7141   3
   6   4  -2 424.960 16.8909  14
   6   4  -2 405.952 15.6182  12
  -6   4   2 455.939 15.6537   1
  -4  -4   2 6440.83 181.677  12
  -4  -4   2 6467.25 180.084   2
   4  -4  -2 6600.46 181.620   2
  -4  -4   2 7119.71 181.603   8
   4  -4  -2 6665.82 180.601   4
  -4  -4   2 6944.67 184.135  16
   4  -4  -2 6769.27 182.793  10
  -4  -4   2 7026.83 182.560  11
  -4  -4   2 6970.26 181.934   5
   4  -4  -2 6817.16 181.646   6
   4  -4  -2 6264.76 181.746  12
   4   4  -2 6976.57 181.039   4
   4   4  -2 6769.43 182.776   9
  -4   4   2 6893.56 180.762   3
   4   4  -2 7073.97 183.059  14
  -4   4   2 6595.71 181.630  16
   4   4  -2 6924.05 182.049  12
  -4   4   2 6504.52 181.515  12
  -4   4   2 6945.96 181.862  13
   4   4  -2 7063.37 181.206   3
  -4   4   2 6659.34 181.915   8
   2  -4  -2 648.099 18.8890  10
   2  -4  -2 631.703 18.9199   2
  -2  -4   2 629.645 18.5326   2
   2  -4  -2 622.349 18.4048   6
  -2  -4   2 633.183 18.9087  12
  -2  -4   2 610.625 18.0950  11
  -2  -4   2 626.580 19.9961  16
  -2  -4   2 618.445 18.6636   5
  -2   4   2 630.599 18.6752  10
  -2   4   2 646.176 18.9169  12
   2   4  -2 647.564 18.4013   9
   2   4  -2 601.168 18.7735  12
   2   4  -2 613.077 18.4665   3
   2   4  -2 612.005 18.1182   4
  -2   4   2 631.273 18.4482   3
   2   4  -2 607.697 17.7217  13
  -2   4   2 629.777 19.0567  13
  -2   4   2 611.201 19.0097   8
   2   4  -2 637.846 19.6680  14
   0  -4   2 5627.62 144.792   2
   0  -4  -2 5294.36 144.624   6
   0  -4   2 5425.49 153.783  10
   0  -4   2 5185.07 145.140   5
   0  -4   2 5461.33 146.956  12
   0  -4  -2 5133.91 144.074   2
   0  -4  -2 5505.61 146.403  11
   0  -4   2 5237.76 146.979  16
   0   4   2 5482.96 148.260  13
   0   4   2 5631.78 150.454  14
   0   4   2 5550.50 144.538   3
   0   4  -2 5290.24 144.317   3
   0   4  -2 5206.26 146.766  13
   0   4  -2 5485.50 147.581   7
   0   4   2 5582.17 146.591  12
   2  -4   2 84.1409 4.56569   2
  -2  -4  -2 79.4977 5.62589  11
  -2  -4  -2 82.7140 4.68167   6
  -2  -4  -2 82.5588 3.92002  15
  -2  -4  -2 83.7502 4.66466   1
   2  -4   2 86.7392 4.35982  12
   2  -4   2 90.6543 5.39312  10
   2   4   2 87.1641 4.96795  14
   2   4   2 83.9767 4.66921   3
  -2   4  -2 88.0078 4.40584  13
   2   4   2 81.9499 3.43358   4
  -2   4  -2 84.1918 4.47684   3
   2   4   2 94.5135 4.45153  12
  -2   4  -2 85.2705 4.53081   7
  -2   4  -2 85.1702 4.67383   1
  -4  -4  -2 1939.46 54.0871   6
  -4  -4  -2 1971.70 54.9323   1
   4  -4   2 1885.14 56.0352  10
   4  -4   2 1909.14 54.2118  12
  -4  -4  -2 1957.37 57.9155  11
   4  -4   2 1848.72 53.7883   2
   4   4   2 1993.08 54.1687  12
  -4   4  -2 1909.89 54.6723   7
   4   4   2 1897.99 52.9457   4
   4   4   2 1946.91 55.9489  14
  -4   4  -2 1847.09 56.7924  11
  -4   4  -2 1889.61 54.9790   1
  -4   4  -2 1845.54 53.2631   8
   6  -4   2 60.0517 5.86779   4
  -6  -4  -2 57.0048 8.28681  11
  -6  -4  -2 54.0675 5.85826   1
  -6  -4  -2 47.9619 5.74033   6
   6  -4   2 60.8620 5.39192  12
   6   4   2 76.9975 7.82364  14
   6   4   2 57.6953 5.20888  12
  -6   4  -2 54.5578 6.37595   1
   6   4   2 65.7997 5.09170   4
  -6   4  -2 56.2997 7.32132  11
   8  -4   2 751.565 26.2332   4
  -8  -4  -2 740.730 27.0689   1
  -8  -4  -2 677.030 31.7149  11
   8  -4   2 670.051 26.7553  14
   8  -4   2 737.606 26.3629  12
  -8   4  -2 754.280 27.9333   1
   8   4   2 711.836 26.2210  12
   8   4   2 735.388 24.5745   4
   8   4   2 708.022 28.4934  14
  -8   4  -2 805.878 32.3198  11
 -11  -5   2 35.1934 5.39165   5
  11  -5  -2 51.6770 6.23229   4
 -11  -5   2 45.3484 9.02530  11
 -11   5   2 46.2259 8.54429  11
  11   5  -2 43.4617 5.78848   4
 -11   5   2 39.1841 6.70108   1
 -11   5   2 40.6505 7.19625   8
   9  -5  -2 356.272 15.1851   4
  -9  -5   2 354.625 18.8394  11
  -9  -5   2 365.935 16.1301   5
  -9  -5   2 355.508 18.8382  16
  -9   5   2 370.740 16.1792   8
   9   5  -2 349.931 17.2541  14
  -9   5   2 380.326 20.0807  11
   9   5  -2 359.745 15.1344   4
  -9   5   2 354.077 16.5220   1
   7  -5  -2 310.458 12.2325   4
  -7  -5   2 284.436 14.5598  11
   7  -5  -2 332.884 12.6305   2
  -7  -5   2 298.626 15.5427  16
   7  -5  -2 298.740 14.3530  10
  -7  -5   2 312.574 13.3449   5
  -7   5   2 320.163 13.4575   8
  -7   5   2 298.542 13.1645   1
   7   5  -2 307.875 12.4225   3
  -7   5   2 301.557 12.7555  13
   7   5  -2 285.631 13.1908  12
   7   5  -2 324.649 12.4815   4
   7   5  -2 298.321 14.2126  14
  -5  -5   2 439.651 16.0436  11
  -5  -5   2 435.727 17.4333  16
   5  -5  -2 422.642 15.0021   2
   5  -5  -2 405.990 13.7782   4
  -5  -5   2 464.220 15.6132   5
   5  -5  -2 407.157 15.9985  10
  -5   5   2 420.132 15.1370  13
  -5   5   2 400.745 14.9674   8
  -5   5   2 398.672 14.2128  16
   5   5  -2 419.282 14.4715   3
   5   5  -2 409.622 15.2089  12
   5   5  -2 419.006 14.1491   4
   5   5  -2 437.913 16.4478  14
  -5   5   2 424.822 14.0550   3
  -3  -5   2 1288.84 38.6428  16
  -3  -5   2 1289.35 36.7228  12
   3  -5  -2 1288.94 36.9864   2
  -3  -5   2 1239.81 36.4659  11
  -3  -5   2 1281.06 36.7372   5
   3  -5  -2 1265.00 35.6926   6
   3  -5  -2 1247.74 34.9552   4
  -3  -5   2 1266.63 35.8473   2
   3  -5  -2 1314.04 37.2165  10
  -3   5   2 1357.73 37.0899  13
  -3   5   2 1231.19 34.7415   7
  -3   5   2 1276.47 36.8843   8
   3   5  -2 1314.52 37.9503  14
  -3   5   2 1274.59 36.6731  12
   3   5  -2 1209.43 35.3286  13
   3   5  -2 1283.32 35.7581   4
   3   5  -2 1219.09 36.8617  12
   3   5  -2 1255.79 36.2769   3
  -3   5   2 1291.27 36.0791   3
  -1  -5   2 67.9397 3.68819  10
  -1  -5   2 70.0062 3.56374   5
   1  -5  -2 72.8617 3.23201  10
  -1  -5   2 73.4962 4.07759  12
   1  -5  -2 72.7253 4.07374   2
   1  -5  -2 69.2843 3.93720   6
  -1  -5   2 74.0007 4.25637   2
  -1  -5   2 73.2843 4.43980  16
   1   5  -2 64.9206 3.24201  13
   1   5  -2 70.7731 4.38957  14
  -1   5   2 66.5366 4.23463  13
  -1   5   2 69.8219 3.99718  12
  -1   5   2 67.6200 3.40962  14
  -1   5   2 70.0981 3.11004  10
   1   5  -2 69.8027 3.96205   3
  -1   5   2 67.0677 3.75590   3
   1   5  -2 66.7450 3.92679   7
  -1  -5  -2 796.424 24.1014  15
   1  -5   2 824.886 24.8156  12
  -1  -5  -2 801.473 23.1974   9
   1  -5   2 845.287 25.2153   2
  -1  -5  -2 819.504 23.9435   2
   1  -5   2 854.074 25.6932  10
  -1  -5  -2 844.536 25.1536   6
  -1  -5  -2 832.463 26.8935  11
   1   5   2 841.366 25.1203  14
   1   5   2 839.576 24.7941  12
   1   5   2 797.292 24.8956   3
   1   5   2 846.582 25.2731  13
  -1   5  -2 846.164 24.3589  13
  -1   5  -2 858.730 24.8268   3
  -1   5  -2 827.596 24.8874   7
   3  -5   2 129.386 6.57271  12
  -3  -5  -2 153.854 7.25387   6
  -3  -5  -2 118.059 8.30935  11
  -3  -5  -2 118.619 6.75947   1
   3  -5   2 133.718 7.66088  10
   3  -5   2 128.123 6.57060   2
   3   5   2 125.607 5.11040   4
  -3   5  -2 131.259 6.73460   7
   3   5   2 133.128 6.57770  12
  -3   5  -2 131.212 7.40323  11
  -3   5  -2 138.902 6.58160  13
   3   5   2 141.073 7.69648  14
   3   5   2 131.374 6.99643   3
  -3   5  -2 133.607 7.10501   1
   5  -5   2 40.5541 4.41315   2
   5  -5   2 49.7434 4.82523   4
  -5  -5  -2 57.6021 7.24634  11
   5  -5   2 47.2361 5.02532  12
  -5  -5  -2 51.2397 5.47498   1
   5  -5   2 47.1830 5.68389  10
  -5  -5  -2 54.8002 4.63815   6
   5   5   2 48.2968 3.79072   4
   5   5   2 48.7711 5.95107  14
   5   5   2 49.4776 5.33223   3
  -5   5  -2 49.8815 6.52652  11
  -5   5  -2 43.7724 4.97115   7
  -5   5  -2 41.0316 5.06570   1
   5   5   2 37.7181 4.23338  12
   7  -5   2 141.098 8.44892   4
   7  -5   2 137.279 9.02949  12
  -7  -5  -2 122.901 9.51015   1
  -7  -5  -2 124.688 12.3197  11
  -7   5  -2 140.136 10.4196   1
   7   5   2 130.352 7.53266   4
   7   5   2 128.015 10.2985  14
   7   5   2 123.482 8.88502   3
  -7   5  -2 129.515 11.3548  11
   7   5   2 132.384 8.58364  12
   9  -5   2 1.05998 2.87030  12
  -9  -5  -2 6.65930 6.35294  11
  -9  -5  -2 0.20937 4.11575   1
   9  -5   2 1.67298 2.50036   4
   9   5   2 0.46568 2.77118  12
  -9   5  -2 3.77892 4.84958  11
  -9   5  -2 1.88441 4.50677   1
   9   5   2 3.02581 3.42391   3
 -10  -6   2 680.198 25.4987   5
  10  -6  -2 647.945 24.0442   4
 -10  -6   2 622.206 28.3173  11
 -10   6   2 721.367 26.8788   1
 -10   6   2 694.978 31.4737  11
  10   6  -2 681.600 24.3785   4
  -8  -6   2 13.4081 4.19074   5
  -8  -6   2 18.1188 4.99744  11
   8  -6  -2 15.1017 3.16907   4
   8  -6  -2 19.4434 3.79497   2
  -8  -6   2 16.2170 4.50617  16
   8   6  -2 28.3989 3.84384   4
  -8   6   2 18.2324 4.15213  13
   8   6  -2 21.3052 4.99072  14
  -8   6   2 14.5168 3.75745   8
  -8   6   2 21.9307 4.79164   1
   8   6  -2 19.4782 3.62436   3
  -6  -6   2 1677.84 47.4259   5
   6  -6  -2 1521.47 45.3695   4
   6  -6  -2 1516.20 48.4635  10
  -6  -6   2 1623.58 48.6086  11
   6  -6  -2 1548.25 46.8248   2
  -6  -6   2 1619.86 50.8425  16
   6   6  -2 1558.10 46.2997   3
  -6   6   2 1611.75 47.3615   1
  -6   6   2 1601.12 47.0942  13
   6   6  -2 1583.46 45.6818   4
   6   6  -2 1582.83 47.7850  12
   6   6  -2 1608.03 49.1421  14
  -6   6   2 1546.93 47.0079   8
   4  -6  -2 66.1335 4.91914  10
  -4  -6   2 93.5134 5.47646  11
  -4  -6   2 70.0863 3.96414   2
   4  -6  -2 69.0149 3.76746   6
  -4  -6   2 76.3012 5.36320   5
   4  -6  -2 68.6546 5.07247   2
  -4  -6   2 84.1246 6.56894  16
   4   6  -2 70.1769 4.88481   3
  -4   6   2 85.5038 5.24186   8
   4   6  -2 65.2202 3.89827  13
   4   6  -2 73.8155 4.02132   4
  -4   6   2 68.2149 4.67788  12
   4   6  -2 69.9911 4.98430  12
   4   6  -2 71.9736 5.98129  14
  -4   6   2 70.3435 4.50832   3
  -4   6   2 71.9946 5.32803  13
  -2  -6   2 3462.50 97.5709  16
  -2  -6   2 3391.59 96.0745  12
   2  -6  -2 3574.14 95.6091  10
  -2  -6   2 3482.38 95.3202  10
   2  -6  -2 3529.38 96.4006   2
  -2  -6   2 3479.94 95.7313   2
  -2  -6   2 3391.10 95.4188   5
   2  -6  -2 3541.23 95.6476   6
  -2   6   2 3566.88 95.7883   3
  -2   6   2 3520.54 96.2121   8
   2   6  -2 3552.17 96.1648   7
   2   6  -2 3431.44 94.7841  13
  -2   6   2 3577.15 96.3039  12
   2   6  -2 3601.70 95.9980   3
   2   6  -2 3603.51 97.2821  14
  -2   6   2 3593.13 96.4128  13
   0  -6   2 456.314 15.5693  12
   0  -6  -2 476.669 15.6717   6
   0  -6   2 482.014 15.9596   2
   0  -6   2 490.260 15.9000  10
   0  -6  -2 496.753 15.3530   2
   0  -6   2 443.065 13.9923   5
   0   6   2 474.533 15.8614  13
   0   6   2 453.066 15.1568  14
   0   6   2 463.393 13.8531   7
   0   6  -2 474.411 15.5875   3
   0   6  -2 458.589 14.6862  13
   0   6  -2 447.855 15.3260   7
   0   6   2 455.100 15.5463   3
   0   6   2 470.644 15.7236  12
  -2  -6  -2 3787.23 107.601  15
  -2  -6  -2 3931.70 111.367  11
   2  -6   2 3788.01 108.396  12
   2  -6   2 4082.00 108.956   2
   2  -6   2 3944.88 109.599  10
  -2  -6  -2 3997.49 108.951   6
   2   6   2 3968.33 109.142  14
   2   6   2 3986.26 108.767   3
  -2   6  -2 4045.03 108.029  13
   2   6   2 4014.87 108.599  12
  -2   6  -2 4133.54 108.583   7
  -2   6  -2 3953.33 108.304   3
   2   6   2 4009.13 108.960  13
  -4  -6  -2 352.054 16.8681  11
   4  -6   2 352.778 13.9519  12
  -4  -6  -2 350.269 13.8796   6
   4  -6   2 370.353 13.9247   2
   4  -6   2 348.570 15.1507  10
   4   6   2 345.402 14.1184   3
  -4   6  -2 360.679 14.5326   1
  -4   6  -2 355.077 13.6507   7
  -4   6  -2 352.991 13.5480  13
  -4   6  -2 344.798 15.2078  11
   4   6   2 344.212 13.7188  12
   4   6   2 340.957 14.6671  14
  -6  -6  -2 1787.44 51.8614   6
   6  -6   2 1619.23 51.9634  12
  -6  -6  -2 1812.62 52.8329   1
  -6  -6  -2 1891.58 58.7067  11
   6  -6   2 1635.30 50.8113   2
   6  -6   2 1672.54 51.3354   4
   6   6   2 1738.70 54.4217  14
  -6   6  -2 1706.97 53.4134   1
  -6   6  -2 1650.62 55.7058  11
   6   6   2 1767.73 52.6885   3
   6   6   2 1771.56 52.4954  12
  -6   6  -2 1771.29 52.5301   7
   8  -6   2 56.8730 7.42870  14
   8  -6   2 78.4762 7.42202  12
  -8  -6  -2 87.1577 11.9979  11
   8  -6   2 81.3999 7.33643   4
  -8   6  -2 75.5189 10.4089  11
   8   6   2 68.7448 7.23475  12
  -8   6  -2 81.5985 8.62158   1
   8   6   2 77.8884 8.14538   3
  -9  -7   2 48.0359 6.00642   5
  -9  -7   2 40.4891 4.97908   6
  -9   7   2 35.4064 6.78456  11
  -9   7   2 31.5302 6.03295   1
   9   7  -2 24.0694 4.26345   4
   7  -7  -2 5.08080 2.97868   2
  -7  -7   2 8.33372 3.01134   5
  -7  -7   2 11.5899 4.11810  11
  -7  -7   2 6.10866 4.08844  16
   7   7  -2 6.85213 3.07041  14
  -7   7   2 6.43990 2.37836   8
   7   7  -2 5.59779 2.90190   3
   7   7  -2 12.9317 2.83899   4
  -7   7   2 10.4113 2.89338  13
  -7   7   2 6.75364 3.67402   1
  -5  -7   2 13.4758 3.35170   5
   5  -7  -2 14.1782 2.88053  10
   5  -7  -2 11.1041 2.81082   2
  -5  -7   2 13.7492 3.72056  16
   5   7  -2 9.26609 1.94994  13
  -5   7   2 16.3856 3.44806  13
   5   7  -2 13.0604 3.08474   3
  -5   7   2 9.07165 2.60764   3
  -5   7   2 14.4167 2.97669   8
   5   7  -2 11.9530 3.69994  14
   5   7  -2 16.0646 2.51597   4
   3  -7  -2 167.500 7.15987   6
   3  -7  -2 162.714 7.70138  10
   3  -7  -2 184.324 8.44270   2
  -3  -7   2 164.446 6.66636  10
  -3  -7   2 168.937 7.29422   2
  -3  -7   2 161.547 7.63437   5
  -3  -7   2 156.162 9.43960  16
  -3   7   2 180.904 7.86717   3
   3   7  -2 164.920 9.01210  14
  -3   7   2 168.216 8.27424  13
   3   7  -2 159.398 6.84076  13
  -3   7   2 165.898 7.87151   8
   3   7  -2 163.897 7.93293   3
  -3   7   2 157.284 7.69736  12
   3   7  -2 168.856 8.15430   7
  -1  -7   2 3.83258 1.42493   5
  -1  -7   2 6.13274 2.24786   2
   1  -7  -2 5.67426 2.00714   2
  -1  -7   2 6.60569 1.88966  12
  -1  -7   2 3.06758 1.28719  10
   1  -7  -2 5.28606 1.92300   6
  -1   7   2 6.79811 1.92664  13
   1   7  -2 6.25121 1.51757  13
  -1   7   2 3.16994 1.31693  14
  -1   7   2 6.03397 2.21192   3
   1   7  -2 4.66185 1.80347   7
   1   7  -2 4.51059 2.04062   3
  -1   7   2 4.50639 1.82264  12
   1   7  -2 4.06750 2.13350  14
   1  -7   2 298.680 11.8137  12
   1  -7   2 308.685 10.5470   6
  -1  -7  -2 275.290 10.3582  15
  -1  -7  -2 294.580 10.7872   2
   1  -7   2 311.477 12.2721   2
  -1  -7  -2 285.249 13.3853  11
  -1  -7  -2 299.815 11.7419   6
   1  -7   2 305.379 12.1852  10
   1   7   2 297.262 11.9512  12
   1   7   2 292.669 11.6671  14
   1   7   2 302.992 12.0602  13
  -1   7  -2 300.774 11.5618   3
   1   7   2 285.972 11.7834   3
  -1   7  -2 304.781 11.1231  13
  -1   7  -2 304.232 11.4863   7
   3  -7   2 94.2903 7.03492  10
   3  -7   2 124.146 7.06373  12
  -3  -7  -2 91.5529 8.11040  11
  -3  -7  -2 86.7234 6.39836   6
   3  -7   2 108.046 6.75361   2
  -3   7  -2 96.7808 6.08357   7
  -3   7  -2 85.7639 5.49803  13
   3   7   2 88.2790 6.50674   3
   3   7   2 89.4326 6.91517  14
   3   7   2 98.1438 6.50673  13
  -3   7  -2 103.708 6.93430   1
  -3   7  -2 101.281 6.44616   3
   3   7   2 85.6075 6.12946  12
   5  -7   2 114.409 7.44861   2
   5  -7   2 109.393 6.79857   4
   5  -7   2 109.049 7.84880  12
  -5  -7  -2 117.245 7.88872   6
  -5  -7  -2 118.957 10.7028  11
  -5   7  -2 122.448 8.36477   1
   5   7   2 110.314 7.76805  12
   5   7   2 117.912 9.10430  14
  -5   7  -2 121.144 8.03137   7
   5   7   2 126.277 7.99879   3
  -7  -7  -2 187.908 15.0069  11
   7  -7   2 164.418 9.94646   4
   7  -7   2 152.002 9.92791  12
  -7  -7  -2 168.184 9.45510   6
   7   7   2 169.146 10.4858  12
   7   7   2 158.976 10.6641   3
  -7   7  -2 167.800 11.7882   1
 -10  -8   2 426.842 21.4339   5
 -10   8   2 500.948 24.1355   1
 -10   8   2 439.040 28.5038  11
  -8  -8   2 289.407 13.4718   6
  -8  -8   2 259.127 13.6624   5
   8  -8  -2 248.481 12.7440   2
   8   8  -2 243.746 14.8349  14
  -8   8   2 254.059 13.3003  13
  -8   8   2 255.873 14.2678   1
   8   8  -2 253.675 12.6313   3
   6  -8  -2 1210.64 37.7313   2
  -6  -8   2 1175.04 37.7059   5
  -6   8   2 1152.20 36.6037   8
   6   8  -2 1131.00 36.5422   3
   6   8  -2 1148.24 35.0086   4
   6   8  -2 1121.77 39.1337  14
  -6   8   2 1214.14 36.1481   3
  -6   8   2 1195.25 37.7030   1
  -6   8   2 1197.28 37.4226  13
  -4  -8   2 545.151 19.3785   5
   4  -8  -2 527.997 19.2586  10
   4  -8  -2 543.643 19.6264   2
   4   8  -2 520.213 18.8710   3
  -4   8   2 556.619 19.5949  13
  -4   8   2 525.065 18.6617   8
   4   8  -2 544.841 20.6601  14
   4   8  -2 526.403 19.1195   7
  -4   8   2 542.643 18.5562   3
  -2  -8   2 1618.92 46.9179   5
   2  -8  -2 1656.79 47.2701   6
   2  -8  -2 1683.71 48.2551   2
  -2  -8   2 1638.30 47.4826   2
   2   8  -2 1671.59 47.9190   3
   2   8  -2 1659.29 49.2656  14
  -2   8   2 1663.04 48.1477  13
  -2   8   2 1578.59 47.8426  12
   2   8  -2 1608.13 47.5386   7
  -2   8   2 1561.78 47.5808   8
  -2   8   2 1637.06 47.6048   3
   0  -8   2 500.740 17.4515  10
   0  -8   2 508.998 18.1637   2
   0  -8  -2 521.808 17.9632   6
   0  -8  -2 512.023 17.4058   2
   0  -8   2 502.858 16.9015   6
   0  -8   2 502.414 17.8349  12
   0   8   2 481.884 17.1131  14
   0   8   2 505.375 18.0557  12
   0   8  -2 500.248 16.6759  13
   0   8   2 501.928 18.0220  13
   0   8  -2 508.319 17.3007   7
   0   8   2 496.642 17.8829   3
   0   8  -2 495.415 17.4784   3
   2  -8   2 854.550 27.9893  12
   2  -8   2 875.089 28.7022  10
   2  -8   2 865.631 28.5327   2
  -2  -8  -2 886.429 28.3288   6
  -2  -8  -2 854.902 30.7486  11
   2   8   2 874.505 28.1786   3
  -2   8  -2 877.320 27.1863  13
  -2   8  -2 845.206 27.6809   3
   2   8   2 863.880 28.0811  13
  -2   8  -2 893.381 27.5555   7
   2   8   2 851.310 28.2982  14
   2   8   2 847.061 28.2001  12
  -4  -8  -2 260.759 12.3634   6
   4  -8   2 275.053 12.6939   2
  -4  -8  -2 253.562 14.9836  11
   4  -8   2 260.536 12.1319  12
   4   8   2 235.416 11.7901  13
   4   8   2 244.293 12.2447   3
   4   8   2 246.266 12.5553  14
   4   8   2 244.303 12.0886  12
  -4   8  -2 258.578 12.8158   1
  -4   8  -2 257.848 11.7211   7
  -4   8  -2 264.535 11.7641  13
  -6  -8  -2 334.033 19.1478  11
   6  -8   2 324.670 14.7556   2
   6  -8   2 317.175 15.1107  12
  -6  -8  -2 333.634 15.1791   6
   6  -8   2 336.488 14.2933   4
   6   8   2 318.200 14.8347  13
   6   8   2 343.285 15.6738   3
   6   8   2 292.382 14.7264  12
  -6   8  -2 334.962 16.3229   1
  -6   8  -2 327.493 14.9996   7
   6   8   2 319.590 16.5595  14
   8  -8   2 171.962 10.6031   4
  -8  -8  -2 193.298 16.3740  11
  -8   8  -2 193.062 13.6527   1
   8   8   2 176.987 11.4552  12
   8   8   2 186.152 11.8491   3
  -9  -9   2 2.73043 3.45736   5
   9  -9  -2 0.25591 3.25108   2
  -9  -9   2 1.71780 2.97729   6
  -9   9   2 9.31430 4.98804   1
  -9   9   2 5.83946 4.88605  11
   7  -9  -2 2.23898 3.41490   2
  -7  -9   2 -2.6713 3.32460   5
  -7  -9   2 0.94828 3.29123   6
  -7   9   2 1.53256 2.91418  13
   7   9  -2 -2.6629 3.58482  14
   7   9  -2 2.41924 3.08158   3
  -7   9   2 -1.1867 3.89115   1
  -5  -9   2 9.55443 3.03540   6
  -5  -9   2 10.0860 3.66738   5
   5  -9  -2 1.36991 3.27674   2
   5   9  -2 9.79624 3.43010  14
  -5   9   2 7.64255 3.13315   3
   5   9  -2 5.52747 3.02144   3
   5   9  -2 5.15210 2.55215   7
  -5   9   2 10.3615 3.23474  13
  -3  -9   2 14.7797 2.96005   2
  -3  -9   2 5.23875 2.43736   5
  -3  -9   2 1.76028 2.81150   6
   3  -9  -2 2.65457 2.62759   2
   3  -9  -2 0.23232 1.26710   6
   3   9  -2 1.83053 2.18925  14
   3   9  -2 1.12788 1.72613   7
   3   9  -2 -2.0304 2.04207   3
  -3   9   2 1.80869 1.88484   8
  -3   9   2 1.82364 1.84339  13
  -3   9   2 -0.4508 1.61792   3
  -1  -9   2 62.4842 5.71858   2
  -1  -9   2 61.1672 5.38414   6
   1  -9  -2 53.1733 4.69531   6
   1  -9  -2 59.8505 5.63837   2
   1   9  -2 63.6260 5.81372   3
  -1   9   2 52.1010 5.20839   3
  -1   9   2 60.0808 5.73955  13
  -1   9   2 49.4958 5.30462  12
   1   9  -2 57.0904 4.87938   7
   1  -9   2 5.23741 3.08338   2
  -1  -9  -2 5.74315 2.06942   2
   1  -9   2 2.10302 1.80662  10
  -1  -9  -2 0.83599 1.92488   6
   1  -9   2 4.31370 1.85752   6
  -1   9  -2 1.26844 2.41048   3
   1   9   2 8.14404 2.74927  14
   1   9   2 3.62315 2.34576  12
   1   9   2 2.98062 1.83755  13
  -1   9  -2 6.95413 2.38928   7
   1   9   2 0.39910 2.80919   3
  -1   9  -2 5.93194 2.12727  13
  -3  -9  -2 48.2285 5.48085   6
  -3  -9  -2 41.6594 6.78412  11
   3  -9   2 45.9355 6.05394  12
   3  -9   2 47.6138 5.56570   2
  -3   9  -2 50.9409 5.77544   3
   3   9   2 41.2020 5.55998   3
   3   9   2 42.8820 5.22626  13
  -3   9  -2 37.9351 4.57106   7
   3   9   2 35.4103 4.80984  14
   3   9   2 39.2264 5.13543  12
  -3   9  -2 41.4053 5.49276   1
  -3   9  -2 45.4805 4.91987  13
   5  -9   2 29.3606 4.77442   2
  -5  -9  -2 27.9479 6.69161  11
  -5  -9  -2 32.8614 5.44722   6
   5   9   2 29.8692 5.22142  14
  -5   9  -2 37.1016 5.51885   1
   5   9   2 34.8912 5.30155  12
   5   9   2 27.4196 4.79971   3
   5   9   2 25.8242 4.03128  13
   7  -9   2 6.77917 3.74725   2
  -7  -9  -2 4.16456 2.45888   6
  -7  -9  -2 -0.3986 5.28968  11
   7   9   2 -0.2210 3.62777   3
  -7   9  -2 4.64272 3.41388   1
   7   9   2 6.55895 3.48911  12
   8 -10  -2 362.601 17.0933   2
  -8 -10   2 342.037 16.5963   6
  -8  10   2 397.509 18.2507   1
  -6 -10   2 102.310 8.03366   5
   6 -10  -2 107.059 9.12321   2
  -6 -10   2 108.682 8.08600   6
   6  10  -2 83.3752 7.86722   3
   6  10  -2 96.1931 7.67743   7
   6  10  -2 94.3002 8.76066  14
  -6  10   2 100.529 8.45172   1
  -6  10   2 98.0093 8.08661  13
  -6  10   2 96.3954 7.71766   3
  -4 -10   2 842.772 28.8767   6
   4 -10  -2 838.684 29.0727   2
  -4 -10   2 837.655 28.1670   5
   4  10  -2 807.239 29.9738  14
  -4  10   2 829.277 27.7936   3
   4  10  -2 818.420 28.2583   3
   4  10  -2 835.443 28.2927   7
  -4  10   2 828.794 28.4706  13
   2 -10  -2 155.280 8.89470   2
  -2 -10   2 140.563 8.45587   2
  -2 -10   2 150.099 9.02163   6
   2 -10  -2 148.895 8.42623   6
   2  10  -2 149.526 8.49985   7
  -2  10   2 138.050 8.76670  13
   2  10  -2 159.802 9.23733   3
   2  10  -2 125.760 8.73675  14
  -2  10   2 143.243 8.87001   3
   0 -10  -2 1292.08 39.7452   6
   0 -10  -2 1280.33 39.1806   2
   0 -10   2 1262.36 38.3709   6
   0 -10   2 1280.64 39.9663   2
   0  10   2 1272.04 39.9559   3
   0  10   2 1233.13 40.1542  12
   0  10  -2 1244.24 39.6625   3
   0  10   2 1269.68 39.9376  13
   0  10  -2 1300.50 38.9316   7
  -2 -10  -2 134.978 9.21160   6
   2 -10   2 130.721 9.25182   2
   2  10   2 120.610 8.20223  12
  -2  10  -2 115.580 8.30174   3
   2  10   2 121.441 8.30311   3
  -2  10  -2 116.548 7.25010  13
   2  10   2 117.463 8.06636  13
  -4 -10  -2 1061.94 39.0513  11
  -4 -10  -2 1115.14 36.2992   6
   4 -10   2 1067.39 35.7197   2
   4  10   2 1041.77 35.5140   3
   4  10   2 1044.58 35.9688  12
  -4  10  -2 1065.56 36.1792   1
   4  10   2 1000.07 35.7814  14
  -6 -10  -2 57.5256 7.06348   6
  -6 -10  -2 42.8347 8.17938  11
   6 -10   2 56.8420 6.82788   2
   6  10   2 60.2883 7.05157   3
   6  10   2 41.4670 6.23820  12
  -6  10  -2 53.9502 7.51821   1
   7 -11  -2 89.2195 8.20223   2
  -7 -11   2 86.9036 8.46564   6
  -7  11   2 121.355 10.9065   1
   7  11  -2 94.6348 8.21330   3
   5 -11  -2 152.127 10.7389   2
  -5 -11   2 146.259 9.80587   6
  -5  11   2 143.481 9.59005   3
   5  11  -2 149.197 9.81458   3
   5  11  -2 130.492 10.9265  14
  -5  11   2 119.994 8.56803  13
   5  11  -2 139.672 9.61532   7
   3 -11  -2 139.895 9.19643   2
  -3 -11   2 132.697 8.90470   6
  -3  11   2 140.292 8.74599   3
   3  11  -2 132.697 9.55345  14
  -3  11   2 133.649 9.00340  13
   3  11  -2 135.832 9.37883   3
  -1 -11   2 196.132 10.0612   6
   1 -11  -2 200.297 10.5199   6
  -1 -11   2 178.165 10.1328   2
   1 -11  -2 212.302 11.0825   2
  -1  11   2 193.470 11.2455   3
  -1  11   2 185.415 10.6326  13
   1  11  -2 205.873 11.1535   3
  -1 -11  -2 109.446 8.74041   6
   1 -11   2 115.050 9.10669   2
   1  11   2 104.598 7.56525  13
   1  11   2 110.498 9.15662   3
  -1  11  -2 123.767 8.78953   3
   3 -11   2 159.205 10.9381   2
  -3 -11  -2 141.491 10.4512   6
  -3  11  -2 141.078 9.30787   3
   3  11   2 146.076 10.3618   3
  -3  11  -2 145.319 10.3855   1
   3  11   2 126.371 8.88154  13
   5 -11   2 61.5104 7.54572   2
  -5 -11  -2 71.5750 8.14789   6
  -5  11  -2 68.6595 7.86992   1
   5  11   2 63.5797 8.07843   3
   6 -12  -2 508.587 22.2188   2
  -6 -12   2 524.212 22.1653   6
  -6  12   2 534.931 23.0845   1
   4 -12  -2 97.5452 8.85664   2
  -4 -12   2 78.5177 7.84188   6
  -4  12   2 105.570 8.76343   3
   4  12  -2 88.5683 8.31611   3
   2 -12  -2 681.621 25.5885   2
  -2 -12   2 680.296 25.0091   6
  -2 -12   2 672.739 24.5407   2
  -2  12   2 698.213 25.3296   3
   2  12  -2 703.073 25.7008   3
   0 -12   2 140.619 9.31895   2
   0 -12  -2 130.387 9.76211   6
   0 -12  -2 133.721 8.34308   2
   0  12  -2 144.618 9.89134   3
   0  12   2 143.915 9.11343  13
   0  12   2 153.792 10.7014   3
   2 -12   2 506.549 20.6640   2
  -2 -12  -2 464.046 20.0540   6
  -2  12  -2 476.344 20.0100   3
  -2  12  -2 487.001 20.2526   1
   2  12   2 503.403 21.0082   3
   2  12   2 449.850 21.0001  13
  -4 -12  -2 142.093 9.97322   6
   4 -12   2 125.514 10.7682   2
   4  12   2 141.305 10.8547   3
  -4  12  -2 125.456 10.3840   1
   5  13  -2 46.8862 7.38011   3
   3 -13  -2 29.5917 5.30345   2
  -3 -13   2 34.3129 6.35225   6
  -3  13   2 31.2402 6.13593   3
   3  13  -2 30.2948 5.64368   3
  -1 -13   2 32.8003 5.32525   6
  -1 -13   2 29.8983 5.09104   2
   1 -13  -2 39.9296 5.58927   2
   1 -13  -2 30.6345 4.80304   6
   1  13  -2 23.5751 5.06569   3
  -1  13   2 17.2885 4.99497   3
   1 -13   2 30.5875 5.76769   2
  -1 -13  -2 29.6534 5.92804   6
  -1  13  -2 21.5535 4.86052   3
   1  13   2 22.1862 4.98676   3
   3 -13   2 19.7120 4.42518   2
  -3 -13  -2 23.8365 6.22676   6
  -3  13  -2 22.2865 5.33497   1
  -3  13  -2 21.2490 5.78409   3
   3  13   2 34.2877 6.23625   3
   0 -14  -2 89.6119 9.49411   6
   0 -14   2 81.6379 11.7017   2
 -12   0   3 5.49728 6.50151  11
 -12   0   3 2.38351 4.09531   8
  12   0  -3 3.14531 3.49651   4
  10   0  -3 10.6372 3.41323  14
 -10   0   3 5.46319 3.54204   8
 -10   0   3 -1.3153 4.88849  11
  10   0  -3 3.42815 3.13975   4
   8   0  -3 6.33311 1.92477   9
  -8   0   3 1.64457 1.99683   5
  -8   0   3 0.05405 1.73930   8
  -8   0   3 -0.2284 3.27489  11
   8   0  -3 0.27926 1.79872  14
  -8   0   3 1.29066 1.70947   1
   8   0  -3 0.54848 1.50020   4
  -8   0   3 2.13375 1.67454  16
   8   0  -3 0.11519 1.57942  10
  -6   0   3 2.44732 1.47432  16
   6   0  -3 -0.7188 1.28468   4
  -6   0   3 3.18288 1.19237   1
   6   0  -3 3.08616 1.84620  10
  -6   0   3 1.04767 1.43340   5
   6   0  -3 2.65061 1.29879   9
   6   0  -3 2.39610 1.44389  14
  -6   0   3 2.27856 1.57182   8
   6   0  -3 -0.8754 1.16475  12
  -4   0   3 0.69797 0.48355   1
  -4   0   3 0.59634 0.98553   5
  -4   0   3 0.58943 0.60464  13
   4   0  -3 0.91266 0.79164  14
  -4   0   3 0.22977 0.70989  12
  -4   0   3 2.36513 1.26689   8
  -4   0   3 1.48957 1.04946  16
   4   0  -3 3.78599 1.06564   4
   2   0  -3 9.06570 0.95566   4
   2   0  -3 4.75728 1.00647  15
   0   0  -3 3.79090 0.80009   7
   0   0  -3 0.32931 0.44625   9
   0   0  -3 1.03925 0.60059   6
   0   0  -3 2.20767 0.74886   1
   0   0  -3 3.72016 1.00634  15
   0   0  -3 1.91970 0.87867  11
  -2   0  -3 -0.0776 0.92932  11
   2   0   3 1.75098 0.25706  12
  -2   0  -3 0.37184 0.82343   7
  -2   0  -3 0.57821 0.52053   6
  -2   0  -3 0.27318 1.10711   1
  -2   0  -3 0.19147 0.72554  15
   2   0   3 0.74551 0.21952  12
   2   0   3 0.08501 0.98476  10
   4   0   3 0.40531 1.10277  10
  -4   0  -3 0.03091 1.71369   1
   4   0   3 0.41077 1.17196   4
   4   0   3 3.53462 1.20563  12
  -4   0  -3 -0.8277 1.38355  11
   6   0   3 0.60410 2.49781  14
  -6   0  -3 1.52878 2.93480   1
   6   0   3 -2.7988 2.20420   4
  -6   0  -3 16.7964 5.06507  11
   6   0   3 -1.1499 1.50785  12
   6   0   3 -0.1559 1.99231  10
  -8   0  -3 -4.0805 2.48038   1
   8   0   3 2.89195 2.53445   4
   8   0   3 -3.8349 2.95128  14
  -8   0  -3 1.71232 4.18984  11
   8   0   3 -0.3306 2.34552  12
  11  -1  -3 282.375 13.6371   4
 -11  -1   3 284.143 18.3484  11
 -11  -1   3 313.031 16.0150   8
 -11   1   3 298.516 15.6860   8
  11   1  -3 285.999 13.9007   4
 -11   1   3 295.097 19.7797  11
   9  -1  -3 661.806 22.5291   9
  -9  -1   3 658.783 22.7294   5
  -9  -1   3 672.131 25.4009  16
  -9  -1   3 703.692 24.9713   8
   9  -1  -3 666.018 23.2780   4
   9  -1  -3 628.178 23.5481  14
  -9  -1   3 706.550 28.2068  11
   9   1  -3 654.139 24.4598  14
   9   1  -3 679.348 23.1649   4
  -9   1   3 674.693 27.6251  11
  -9   1   3 666.517 22.8260   1
  -9   1   3 698.665 24.6607   8
  -7  -1   3 1385.18 42.6144  16
  -7  -1   3 1321.33 39.0462   1
   7  -1  -3 1384.09 41.9408  10
   7  -1  -3 1393.45 40.0454   4
  -7  -1   3 1363.32 40.0898   5
   7  -1  -3 1323.75 40.2831  14
  -7  -1   3 1384.91 41.2588   8
   7  -1  -3 1364.20 40.0016   9
  -7  -1   3 1356.19 43.0766  11
  -7   1   3 1368.91 41.1359   8
  -7   1   3 1292.94 39.4049   5
  -7   1   3 1394.57 39.6523   1
   7   1  -3 1343.95 39.1240   9
   7   1  -3 1416.08 40.2164   4
   7   1  -3 1376.59 41.2183  14
  -7   1   3 1380.54 41.7795  16
  -5  -1   3 1407.71 41.6213  11
  -5  -1   3 1410.10 38.8906   1
   5  -1  -3 1412.16 39.7708   4
  -5  -1   3 1404.80 39.9942  12
  -5  -1   3 1399.67 41.8839  16
  -5  -1   3 1392.07 40.1698   5
   5  -1  -3 1372.60 40.3390  12
  -5  -1   3 1417.85 40.6329   8
   5  -1  -3 1466.66 41.4342  10
   5  -1  -3 1447.45 40.3479   9
   5  -1  -3 1401.85 39.7406  14
  -5   1   3 1409.80 39.6076  13
  -5   1   3 1428.43 40.7970   8
  -5   1   3 1407.96 39.2774   1
  -5   1   3 1411.76 39.9999  12
   5   1  -3 1447.75 39.9969   4
   5   1  -3 1423.20 40.6072  14
   5   1  -3 1333.55 40.2513  12
  -5   1   3 1414.27 39.8619   5
   5   1  -3 1440.60 39.7842   9
  -5   1   3 1431.40 41.4103  16
   3  -1  -3 5553.20 146.417   6
   3  -1  -3 5394.06 145.652  14
  -3  -1   3 5256.11 145.454   5
  -3  -1   3 5279.13 151.243  16
   3  -1  -3 5165.81 147.595   9
  -3  -1   3 5195.77 142.818   8
   3  -1  -3 5356.64 145.014   4
  -3  -1   3 5334.02 146.027  10
  -3   1   3 5566.62 142.506  13
   3   1  -3 5266.08 142.582   4
  -3   1   3 5406.54 146.508  12
   3   1  -3 5425.58 147.392   9
  -3   1   3 5341.55 146.042   8
   3   1  -3 5277.69 145.664  15
  -3   1   3 5435.18 151.544  16
  -3   1   3 5453.41 143.492  10
  -3   1   3 5401.05 145.064   5
   3   1  -3 5331.57 147.294  14
   1  -1  -3 1303.43 37.4600  11
   1  -1  -3 1285.18 36.5578   6
  -1  -1   3 1466.54 36.1957   8
  -1  -1   3 1382.54 37.2661  16
   1  -1  -3 1245.55 35.9097   7
   1  -1  -3 1265.30 36.6404   9
  -1  -1   3 1399.30 36.4380   5
   1  -1  -3 1298.69 37.0523  15
   1  -1  -3 1284.75 36.1575   1
  -1  -1   3 1417.62 36.4013  12
   1   1  -3 1344.92 36.9891  15
   1   1  -3 1355.07 36.7084   7
   1   1  -3 1283.80 36.8536   9
  -1   1   3 1299.62 36.3652  13
   1  -1   3 4379.07 118.259  10
  -1  -1  -3 4704.55 119.549  11
  -1  -1  -3 4322.42 118.505   9
  -1  -1  -3 4553.39 118.262  15
  -1  -1  -3 4450.96 117.593   7
  -1  -1  -3 4584.31 117.928   1
  -1  -1  -3 4362.48 117.251   6
  -1   1  -3 4413.72 117.958   7
  -1   1  -3 4303.03 117.763   9
   1   1   3 4691.08 123.996  10
  -1   1  -3 4211.33 118.264  15
  -1   1  -3 4337.09 117.794   1
  -1   1  -3 4133.76 118.480  11
  -1   1  -3 4086.56 117.579   6
  -3  -1  -3 1311.14 38.7118   1
  -3  -1  -3 1255.53 36.7569   6
  -3  -1  -3 1266.51 40.7337  11
   3  -1   3 1351.18 36.9672   2
  -3  -1  -3 1327.71 38.3539  15
   3  -1   3 1377.71 39.0448  10
   3  -1   3 1386.18 36.6891  12
   3   1   3 1311.22 39.1573  14
   3   1   3 1376.35 38.2006  10
  -3   1  -3 1356.41 38.6083   7
   3   1   3 1315.13 36.3505  12
  -3   1  -3 1290.23 38.5694   1
   3   1   3 1346.13 37.5755   4
  -3   1  -3 1297.67 40.5067  11
  -5  -1  -3 884.452 32.3618  11
  -5  -1  -3 882.993 28.9409   1
   5  -1   3 922.653 27.9732   4
   5  -1   3 910.967 27.1535  12
   5  -1   3 885.327 29.1303  10
   5   1   3 859.915 27.9390  10
   5   1   3 874.561 29.7084  14
  -5   1  -3 903.087 29.1800   1
  -5   1  -3 919.377 32.2922  11
   5   1   3 883.474 27.0136  12
   5   1   3 911.399 27.6506   4
  -7  -1  -3 582.081 27.0093  11
  -7  -1  -3 599.556 22.9920   1
   7  -1   3 675.626 24.8502  14
   7  -1   3 612.731 22.1016   4
   7  -1   3 622.648 21.8945  12
   7   1   3 627.750 21.6961   4
  -7   1  -3 622.559 27.7350  11
   7   1   3 627.360 21.9421  12
   7   1   3 585.596 24.1594  14
  -7   1  -3 609.087 23.6573   1
   9  -1   3 219.016 11.7414   4
   9  -1   3 218.974 12.2672  12
  -9  -1  -3 208.727 15.8746  11
  -9  -1  -3 215.368 13.6385   1
   9   1   3 216.657 12.1748  12
  -9   1  -3 213.451 14.2169   1
  -9   1  -3 210.032 16.5318  11
   9   1   3 214.498 11.4830   4
  12  -2  -3 66.5527 7.10685   4
 -12  -2   3 69.3410 11.2739  11
  12   2  -3 74.7340 7.13557   4
 -12   2   3 88.7612 12.9645  11
 -12   2   3 72.6714 8.51836   8
 -10  -2   3 181.975 14.2450  11
 -10  -2   3 181.651 12.0140  16
  10  -2  -3 187.779 10.4738   4
 -10  -2   3 185.190 11.2011   8
 -10  -2   3 177.733 9.54653   5
  10   2  -3 188.240 10.7251   4
 -10   2   3 189.076 11.7042   8
 -10   2   3 164.914 10.1190   1
  10   2  -3 183.330 11.4541  14
 -10   2   3 189.598 14.1171  11
  -8  -2   3 259.423 12.5821   8
  -8  -2   3 286.371 14.9087  11
   8  -2  -3 278.989 11.6281   4
  -8  -2   3 278.649 11.6623   5
   8  -2  -3 269.005 11.8304  14
   8  -2  -3 280.005 11.7625   9
  -8  -2   3 277.599 13.8122  16
   8  -2  -3 270.753 13.0194  10
   8   2  -3 277.147 11.8743   4
  -8   2   3 268.635 12.4107  16
  -8   2   3 274.134 10.7843   5
  -8   2   3 270.480 11.5088   1
  -8   2   3 266.759 14.5423  11
  -8   2   3 275.291 12.7669   8
   8   2  -3 278.567 12.7585  14
   6  -2  -3 268.527 9.55807   2
   6  -2  -3 253.392 11.2817  10
  -6  -2   3 257.944 10.6523   8
  -6  -2   3 251.498 8.95271   1
  -6  -2   3 258.089 12.0341  16
   6  -2  -3 265.397 10.4450   9
   6  -2  -3 254.970 9.71580  14
   6  -2  -3 264.586 9.91105   4
  -6  -2   3 264.893 10.4513   5
  -6  -2   3 245.260 11.5525  11
   6   2  -3 248.312 9.09227   9
   6   2  -3 245.211 10.6984  14
  -6   2   3 260.340 9.74432   1
   6   2  -3 269.009 10.1364   4
  -6   2   3 257.176 9.55339   5
  -6   2   3 254.399 10.6672   8
  -6   2   3 265.255 10.9976  16
   6   2  -3 258.614 10.5695  12
  -6   2   3 272.839 9.96851  13
   4  -2  -3 694.366 21.5561   9
  -4  -2   3 693.657 19.6840   1
   4  -2  -3 723.698 21.1218   2
  -4  -2   3 702.571 21.3422   5
  -4  -2   3 709.196 21.2013   8
   4  -2  -3 720.983 22.1075  10
  -4  -2   3 696.083 21.0384  12
  -4  -2   3 715.637 22.8573  16
   4  -2  -3 735.008 20.6323   6
   4  -2  -3 720.762 20.5517   4
   4  -2  -3 679.963 19.9357  14
  -4  -2   3 705.443 21.7507  11
  -4   2   3 725.922 21.0315  13
   4   2  -3 709.255 20.0143  15
  -4   2   3 710.977 21.1448  12
  -4   2   3 724.806 21.0001   5
  -4   2   3 733.434 22.3156  16
   4   2  -3 795.491 22.0716  14
   4   2  -3 683.328 20.8493   4
   4   2  -3 676.672 21.1785  12
   4   2  -3 697.026 20.7750   9
  -4   2   3 711.393 21.7901   8
   4   2  -3 673.427 19.9599   3
   2  -2  -3 398.307 12.7077   2
  -2  -2   3 432.594 13.7096  16
  -2  -2   3 433.227 12.7462   5
  -2  -2   3 416.276 12.4016  12
   2  -2  -3 400.135 11.6397   4
   2  -2  -3 385.378 12.7976   9
   2  -2  -3 405.858 12.5597   6
  -2  -2   3 435.435 12.1295   8
  -2   2   3 399.790 12.2563  12
   2   2  -3 416.516 12.8730   9
   2   2  -3 429.254 12.4750   4
   2   2  -3 431.240 11.8840   3
  -2   2   3 395.030 12.7307  10
   2   2  -3 416.343 12.9422   7
   2   2  -3 448.336 13.1985  14
  -2   2   3 405.561 13.1382   8
  -2   2   3 394.959 11.8350   3
   2   2  -3 423.065 12.4989  15
  -2   2   3 401.603 12.5934  13
   0  -2   3 643.560 18.5112   5
   0  -2  -3 664.697 18.7689   7
   0  -2  -3 679.723 19.5405   1
   0  -2  -3 670.389 20.9452  11
   0  -2   3 675.309 18.3847  12
   0  -2  -3 673.185 19.8349  15
   0  -2   3 667.920 19.1532  16
   0  -2  -3 660.253 19.0560   9
   0  -2  -3 665.799 19.4486   6
   0   2  -3 674.273 19.1524   1
   0   2  -3 655.952 19.7463   9
   0   2   3 670.508 19.2600  14
   0   2  -3 667.466 19.9189  15
   0   2  -3 658.286 19.6980   7
  -2  -2  -3 668.838 19.6075   6
  -2  -2  -3 657.854 22.1522  11
  -2  -2  -3 639.525 20.2179   1
  -2  -2  -3 648.477 18.5821   9
   2  -2   3 645.407 19.5568   2
   2  -2   3 674.054 18.8066  12
   2  -2   3 660.428 20.9349  10
  -2  -2  -3 647.235 19.9855  15
   2   2   3 662.435 19.1728   4
   2   2   3 682.823 20.8266  14
   2   2   3 685.191 18.1855  12
   2   2   3 658.289 18.2143  12
   2   2   3 674.718 19.3581  10
  -2   2  -3 643.932 20.3128   7
  -2   2  -3 610.620 20.9756  11
  -2   2  -3 644.413 20.2769   1
  -4  -2  -3 238.660 8.80580   6
  -4  -2  -3 238.450 10.3611   1
   4  -2   3 253.250 10.9313  10
  -4  -2  -3 231.356 12.4896  11
   4  -2   3 250.255 9.03892   2
   4  -2   3 241.923 9.10422  12
   4   2   3 238.920 9.21309   4
  -4   2  -3 242.992 12.1956  11
   4   2   3 245.274 11.2298  14
   4   2   3 249.718 9.51359  10
  -4   2  -3 233.849 10.5083   1
  -4   2  -3 241.850 10.5338   7
   4   2   3 248.882 8.96557  12
  -6  -2  -3 265.390 15.6597  11
   6  -2   3 301.369 12.9386   4
   6  -2   3 322.328 12.6549  12
   6  -2   3 289.164 13.4944  10
  -6  -2  -3 296.278 13.7540   1
   6   2   3 276.019 13.8604  14
  -6   2  -3 304.694 14.0598   1
   6   2   3 303.559 12.2153  12
  -6   2  -3 324.462 16.8670  11
   6   2   3 298.034 12.0844   4
   8  -2   3 111.525 8.85017   4
  -8  -2  -3 104.166 8.72346   1
  -8  -2  -3 113.677 12.1581  11
   8  -2   3 120.613 8.40621  12
   8  -2   3 101.090 8.74211  14
  -8   2  -3 90.1966 9.17384   1
   8   2   3 112.046 8.20097  12
  -8   2  -3 115.466 12.0436  11
   8   2   3 105.891 9.68441  14
   8   2   3 109.316 8.24864   4
 -11  -3   3 589.071 22.3947   5
 -11  -3   3 603.393 28.3188  11
  11  -3  -3 585.472 22.6135   4
  11   3  -3 614.710 23.0232   4
 -11   3   3 628.431 29.9737  11
 -11   3   3 573.631 24.1836   8
  -9  -3   3 43.7177 5.21419   5
  -9  -3   3 61.2833 6.45284   8
  -9  -3   3 49.4629 7.61891  11
   9  -3  -3 63.6237 6.01322   4
  -9  -3   3 57.0510 6.59195  16
   9  -3  -3 39.4629 5.07677   9
  -9   3   3 51.1561 6.25238   8
   9   3  -3 55.2315 5.68471   4
  -9   3   3 53.9222 5.78328   1
   9   3  -3 50.4151 6.30560  14
  -9   3   3 59.5276 8.69373  11
   7  -3  -3 2381.74 64.2256  14
  -7  -3   3 2140.25 64.6646  16
  -7  -3   3 2167.33 62.3841   8
   7  -3  -3 2139.92 63.6343  10
  -7  -3   3 2154.00 64.3664  11
   7  -3  -3 2218.60 61.1901   4
  -7  -3   3 2219.56 63.4902   1
   7  -3  -3 2166.74 60.7235   2
  -7  -3   3 2174.10 61.9643   5
  -7   3   3 2178.81 61.5762  13
  -7   3   3 2251.81 62.9139   8
   7   3  -3 2132.56 63.3010  14
   7   3  -3 2140.33 61.3050   4
  -7   3   3 2187.50 61.3506   1
   7   3  -3 1991.86 62.1071  12
  -7   3   3 2168.79 62.3415  16
   7   3  -3 2083.66 60.3343   3
  -7   3   3 2093.23 60.2271   5
   5  -3  -3 250.362 8.39924   6
  -5  -3   3 227.494 8.01645   1
  -5  -3   3 235.050 9.19341  12
  -5  -3   3 244.588 10.2572  11
  -5  -3   3 260.585 11.5517  16
  -5  -3   3 257.668 9.77836   5
   5  -3  -3 257.894 9.36065   2
   5  -3  -3 233.483 8.33245  14
   5  -3  -3 252.431 10.6049  10
  -5  -3   3 251.420 9.57583   8
   5  -3  -3 255.047 8.85242   4
  -5   3   3 239.766 9.99087   8
  -5   3   3 250.622 9.50570  13
  -5   3   3 243.848 9.08453   1
  -5   3   3 255.037 8.91874   5
  -5   3   3 254.687 10.1806  16
   5   3  -3 231.322 9.53397  12
   5   3  -3 241.054 9.07638   4
   5   3  -3 240.734 8.44815   9
  -5   3   3 239.774 9.29498  12
   5   3  -3 239.689 10.2467  14
   5   3  -3 225.846 8.39982   3
  -3  -3   3 7056.20 185.430   5
  -3  -3   3 7253.66 187.328  11
   3  -3  -3 6874.38 184.067   6
  -3  -3   3 7056.06 186.041   8
   3  -3  -3 6440.36 185.008   2
  -3  -3   3 7050.09 193.527  16
   3  -3  -3 6863.36 189.079  10
  -3  -3   3 6531.59 181.880  12
   3  -3  -3 6508.53 183.186   4
  -3   3   3 6722.17 184.007  12
   3   3  -3 7013.14 190.206  14
   3   3  -3 6757.71 187.496   9
   3   3  -3 6412.30 182.908  15
  -3   3   3 6796.52 182.709   8
   3   3  -3 7111.59 186.071   4
   3   3  -3 7088.30 185.135   3
  -3   3   3 6604.34 184.951   3
  -3   3   3 6810.52 185.327  13
   1  -3  -3 983.597 29.5194  11
  -1  -3   3 992.962 28.2742  16
  -1  -3   3 960.801 27.4600  12
   1  -3  -3 944.956 27.6617   9
   1  -3  -3 964.423 27.9264   6
   1  -3  -3 959.312 28.2790  15
  -1  -3   3 968.849 27.3249   5
   1  -3  -3 940.546 27.7061   2
   1   3  -3 994.884 26.4273  13
  -1   3   3 993.790 27.2391  10
   1   3  -3 994.809 27.9142  15
  -1   3   3 979.901 27.2934  12
   1   3  -3 987.686 28.1882   9
   1   3  -3 988.892 28.2517   7
  -1   3   3 1017.80 28.1880  13
  -1   3   3 997.634 26.8972  14
   1   3  -3 967.427 27.3562   3
  -1   3   3 988.842 27.5067   3
   1  -3   3 6020.48 167.795  10
   1  -3   3 5763.21 163.821  16
  -1  -3  -3 6117.17 164.840  11
  -1  -3  -3 5902.42 165.097  15
  -1  -3  -3 6076.47 164.018   9
  -1  -3  -3 6011.40 162.442   6
  -1  -3  -3 6098.14 162.723   1
   1  -3   3 6296.73 165.811   2
   1  -3   3 6149.06 168.099  12
  -1   3  -3 6274.50 162.860   7
   1   3   3 6230.21 169.039  14
  -1   3  -3 5814.58 164.455  11
   1   3   3 6246.11 164.850  12
   1   3   3 5978.86 161.865   4
  -1   3  -3 6057.28 162.397   1
   1   3   3 6209.45 165.877  10
   1   3   3 6065.10 164.075  12
   3  -3   3 518.992 16.2003  12
  -3  -3  -3 513.429 16.5251  15
   3  -3   3 525.196 18.3032  10
  -3  -3  -3 520.174 16.5143   6
  -3  -3  -3 526.962 17.5098   1
  -3  -3  -3 519.710 19.8104  11
   3  -3   3 506.441 16.4892   2
   3   3   3 513.067 15.9140   4
   3   3   3 510.956 15.6299  10
  -3   3  -3 506.006 17.4558   7
   3   3   3 518.560 15.7780  12
  -3   3  -3 486.777 18.4607  11
   3   3   3 542.706 18.1056  14
  -3   3  -3 494.824 17.3953   1
  -5  -3  -3 1874.29 55.1899   1
   5  -3   3 1888.20 54.0165   4
   5  -3   3 1803.92 55.9333  10
  -5  -3  -3 1786.65 59.0220  11
   5  -3   3 1868.00 53.5682  12
   5   3   3 1882.49 53.1009   4
  -5   3  -3 1975.76 55.4971   7
  -5   3  -3 1862.84 55.4258   1
   5   3   3 1902.56 53.3907  12
  -5   3  -3 1888.15 58.2362  11
   5   3   3 1838.23 56.0902  14
   7  -3   3 88.8277 7.75496   4
   7  -3   3 96.1404 7.11349  12
  -7  -3  -3 93.6125 10.6790  11
  -7  -3  -3 84.2433 8.17231   1
   7  -3   3 85.1421 8.04954  14
   7   3   3 98.5038 9.12826  14
   7   3   3 91.8778 7.04074  12
   7   3   3 92.2054 6.94600   4
  -7   3  -3 86.6556 10.4999  11
  -7   3  -3 101.212 8.83554   1
  -9  -3  -3 392.924 23.2347  11
  -9  -3  -3 409.170 18.9248   1
   9  -3   3 404.838 18.1035   4
   9   3   3 423.019 16.8456   4
  -9   3  -3 452.392 24.3703  11
  -9   3  -3 412.049 20.2351   1
   9   3   3 410.387 18.4585  12
  10  -4  -3 177.557 10.0542   4
 -10  -4   3 171.421 13.5159  11
 -10  -4   3 170.420 10.1809   5
 -10  -4   3 162.264 11.8049  16
  10  -4  -3 168.678 10.2966   9
 -10   4   3 177.358 14.7067  11
  10   4  -3 155.325 11.2233  14
 -10   4   3 169.108 11.1833   8
 -10   4   3 179.480 10.8142   1
  10   4  -3 178.623 10.5196   4
  -8  -4   3 309.454 13.1787   5
  -8  -4   3 293.115 15.5209  16
  -8  -4   3 301.685 13.3505   8
   8  -4  -3 325.200 12.8176   4
  -8  -4   3 291.494 15.3803  11
   8  -4  -3 305.521 12.2599   2
  -8   4   3 317.074 13.2418  13
  -8   4   3 314.746 13.9325   8
  -8   4   3 312.974 13.2345   1
   8   4  -3 311.984 12.7237   4
   8   4  -3 299.836 14.6161  14
  -6  -4   3 346.308 13.0299   5
  -6  -4   3 330.358 12.6035   8
   6  -4  -3 337.710 11.8789   4
  -6  -4   3 334.512 15.0432  16
   6  -4  -3 352.205 14.2617  10
  -6  -4   3 326.987 13.8086  11
   6  -4  -3 342.294 12.4181   2
  -6   4   3 318.809 11.3294   5
  -6   4   3 327.656 12.8188  16
   6   4  -3 325.693 12.1842   4
   6   4  -3 322.845 13.5981  14
  -6   4   3 347.354 12.7098   1
   6   4  -3 318.067 11.6267   3
  -6   4   3 341.853 13.4157   8
  -6   4   3 320.023 12.5605  13
   4  -4  -3 1471.75 42.9182  10
  -4  -4   3 1543.39 42.1376  11
  -4  -4   3 1558.53 42.5107   5
  -4  -4   3 1559.69 44.5180  16
  -4  -4   3 1470.72 42.0371  12
   4  -4  -3 1420.84 41.0422   6
   4  -4  -3 1448.47 42.1503   2
  -4  -4   3 1514.20 41.5897   8
   4  -4  -3 1439.93 40.6114   4
   4   4  -3 1492.91 41.2126   3
   4   4  -3 1480.14 41.1008   9
  -4   4   3 1445.47 42.0102  12
  -4   4   3 1398.08 40.7738   3
  -4   4   3 1383.31 42.4498   8
   4   4  -3 1517.45 41.5623   4
  -4   4   3 1429.00 42.8737  16
  -4   4   3 1477.26 42.1664  13
   4   4  -3 1532.38 43.3358  14
  -2  -4   3 885.773 25.9744   5
  -2  -4   3 877.462 27.2875  16
   2  -4  -3 899.417 26.3733   2
  -2  -4   3 920.474 26.2490  12
  -2  -4   3 907.471 26.1956   2
   2  -4  -3 906.182 26.1422   6
  -2   4   3 896.691 26.1215  12
  -2   4   3 899.349 25.9338  10
   2   4  -3 900.795 27.0916  14
   2   4  -3 886.086 26.1393   9
   2   4  -3 885.104 24.4571  13
   2   4  -3 913.193 25.7679   3
   2   4  -3 913.445 26.7008   7
  -2   4   3 895.032 25.6894   3
  -2   4   3 914.531 26.5535  13
   0  -4   3 1347.56 37.8042  16
   0  -4   3 1303.21 36.9524   5
   0  -4   3 1385.20 38.7616   2
   0  -4  -3 1336.48 37.6270   9
   0  -4  -3 1332.60 37.8925   2
   0  -4  -3 1355.47 38.6522  15
   0  -4   3 1388.61 38.1863  12
   0  -4  -3 1371.65 40.6831  11
   0  -4   3 1396.23 39.2171  10
   0  -4  -3 1375.19 38.7348   6
   0   4  -3 1347.93 38.1038   3
   0   4   3 1334.76 36.4127  10
   0   4   3 1358.71 38.4067   3
   0   4   3 1360.12 38.0735  14
   0   4  -3 1352.75 37.3533  13
   0   4  -3 1344.52 38.7441   7
   0   4  -3 1348.83 38.0906   1
   0   4   3 1404.28 37.9052  12
   0   4   3 1410.93 38.9730  13
   2  -4   3 958.986 29.1724  10
  -2  -4  -3 903.918 30.5101  11
   2  -4   3 957.308 27.9121   2
   2  -4   3 1002.73 27.4740  12
  -2  -4  -3 919.323 27.8147   6
  -2  -4  -3 904.092 28.0898   1
  -2  -4  -3 907.645 27.2797  15
   2   4   3 907.334 26.0214   4
   2   4   3 939.604 26.9334  12
  -2   4  -3 931.947 28.0858   1
  -2   4  -3 906.468 28.4276  11
   2   4   3 904.560 24.9863  10
   2   4   3 958.967 28.5113  14
  -2   4  -3 919.213 28.0941   7
   4  -4   3 258.546 11.9419  10
  -4  -4  -3 286.762 14.4777  11
   4  -4   3 242.443 10.1612   2
  -4  -4  -3 261.471 11.3909   1
   4  -4   3 257.386 10.3695  12
  -4  -4  -3 260.750 10.3442   6
  -4   4  -3 246.296 11.0821   7
  -4   4  -3 257.866 11.4906   1
   4   4   3 259.253 10.0304  12
   4   4   3 246.061 9.37647   4
   4   4   3 254.148 11.9734  14
  -4   4  -3 245.822 12.4233  11
   6  -4   3 250.132 12.0553   4
   6  -4   3 252.142 11.6141  12
  -6  -4  -3 261.140 16.4085  11
  -6  -4  -3 259.538 13.0877   1
  -6   4  -3 268.623 13.0994   1
  -6   4  -3 280.304 15.5838  11
   6   4   3 253.842 13.7674  14
   6   4   3 273.270 11.8642  12
   6   4   3 269.059 10.7659   4
  -8  -4  -3 74.8850 11.7251  11
   8  -4   3 68.6581 6.76841   4
  -8  -4  -3 78.3537 8.85364   1
   8  -4   3 71.8466 7.35242  12
   8   4   3 76.2025 6.75763   4
   8   4   3 65.1505 6.95674  12
  -8   4  -3 73.0667 10.3230  11
  -8   4  -3 66.6606 7.71816   1
 -11  -5   3 235.911 12.6617   5
 -11  -5   3 162.389 14.4641  11
  11  -5  -3 228.044 11.5448   4
 -11   5   3 229.298 13.1934   8
 -11   5   3 240.782 17.8438  11
  11   5  -3 232.540 11.9545   4
   9  -5  -3 855.534 29.4256   9
   9  -5  -3 811.593 27.0264   4
  -9  -5   3 812.330 31.3272  11
  -9  -5   3 827.727 31.9336  16
  -9  -5   3 799.222 28.2281   5
  -9   5   3 842.147 29.2810   8
   9   5  -3 821.728 30.5759  14
   9   5  -3 818.789 27.4625   4
  -7  -5   3 705.057 25.5547  11
   7  -5  -3 689.485 22.6419   4
   7  -5  -3 714.676 25.8378  10
  -7  -5   3 726.468 27.3505  16
   7  -5  -3 736.672 23.7502   2
  -7  -5   3 725.552 24.3310   5
  -7   5   3 721.546 24.0988  13
   7   5  -3 707.396 25.6848  14
  -7   5   3 749.996 24.2052   1
   7   5  -3 714.201 23.3161   4
   7   5  -3 680.063 22.7187   3
  -7   5   3 732.382 24.6642   8
   5  -5  -3 1951.13 56.6736  10
   5  -5  -3 1860.74 53.6596   4
   5  -5  -3 1885.55 53.6359   6
  -5  -5   3 2034.74 58.5734  16
  -5  -5   3 2028.51 55.7975  11
  -5  -5   3 1953.20 53.6801   2
  -5  -5   3 2022.54 55.7481   5
   5  -5  -3 1946.49 55.4920   2
   5   5  -3 1954.90 54.5601   4
  -5   5   3 1955.07 55.5717  13
  -5   5   3 1911.84 53.9636   3
   5   5  -3 1977.38 54.5500   3
  -5   5   3 1862.83 55.5106  16
   5   5  -3 2054.58 57.2575  14
  -5   5   3 1862.01 55.1232  12
  -5   5   3 1894.09 55.8393   8
   3  -5  -3 992.170 28.6483   6
  -3  -5   3 978.516 30.9022  16
   3  -5  -3 1000.82 29.4734   2
   3  -5  -3 996.776 29.2927  10
  -3  -5   3 996.636 28.7847   2
  -3  -5   3 982.453 29.0893   5
  -3  -5   3 978.623 29.2547  12
  -3   5   3 979.879 28.4271   3
  -3   5   3 989.607 29.7643   8
  -3   5   3 1014.48 29.6103  13
   3   5  -3 990.314 29.5970   7
   3   5  -3 960.258 28.5681   3
  -3   5   3 1028.64 29.3539  12
   3   5  -3 915.845 27.1951  13
   3   5  -3 980.991 28.4664   4
   3   5  -3 990.484 28.5277   9
   3   5  -3 977.828 30.2263  14
  -1  -5   3 1889.41 51.5546   5
   1  -5  -3 1864.08 52.4290   2
  -1  -5   3 1873.01 52.8499  16
  -1  -5   3 1843.48 52.7978  10
  -1  -5   3 1918.45 52.7747   2
   1  -5  -3 1864.29 52.6994   6
  -1  -5   3 1853.92 52.4753  12
   1  -5  -3 1870.74 52.1856   9
  -1   5   3 1862.87 51.3762  14
   1   5  -3 1908.95 51.0490  13
  -1   5   3 1891.13 52.2952   3
   1   5  -3 1877.32 52.8946   7
   1   5  -3 1851.03 52.1387   3
  -1   5   3 1837.71 50.7900  10
  -1   5   3 1944.24 53.0402  13
  -1   5   3 1944.38 52.5266  12
  -1  -5  -3 687.220 23.7233  11
  -1  -5  -3 675.822 21.3244   6
  -1  -5  -3 653.384 19.8591   2
   1  -5   3 655.630 20.7272  12
  -1  -5  -3 638.254 20.4703  15
   1  -5   3 688.249 22.1266  10
   1  -5   3 686.344 21.3290   2
  -1   5  -3 677.239 20.2214  13
   1   5   3 701.715 20.7308  12
  -1   5  -3 663.069 20.9683   1
   1   5   3 668.851 21.5424  13
  -1   5  -3 667.453 20.7906   3
  -1   5  -3 687.746 21.3594   7
   1   5   3 693.244 21.3320   3
   1   5   3 654.226 21.0301  14
   3  -5   3 1180.55 35.0941  12
  -3  -5  -3 1174.28 35.4760   6
   3  -5   3 1192.66 37.1130  10
   3  -5   3 1205.33 35.5750   2
  -3  -5  -3 1143.61 35.9296   1
  -3  -5  -3 1184.79 39.3068  11
  -3   5  -3 1163.07 36.7954  11
  -3   5  -3 1178.22 36.1440   1
   3   5   3 1232.51 36.2112   3
   3   5   3 1179.62 34.8396  12
   3   5   3 1193.11 36.6138  14
  -3   5  -3 1196.02 35.8623   7
  -5  -5  -3 449.788 21.0410  11
   5  -5   3 399.481 15.3190   2
   5  -5   3 409.739 15.8369  12
   5  -5   3 396.103 15.5305   4
  -5  -5  -3 440.649 17.1611   1
  -5  -5  -3 406.190 15.3149   6
  -5   5  -3 408.748 18.4665  11
   5   5   3 415.637 16.2579   3
  -5   5  -3 405.038 17.1100   1
   5   5   3 422.964 17.6073  14
  -5   5  -3 410.243 16.6304   7
   5   5   3 408.514 15.5464  12
   7  -5   3 650.527 24.2235   4
  -7  -5  -3 668.179 25.5813   1
  -7  -5  -3 665.219 30.4216  11
   7  -5   3 665.982 24.5796  12
   7   5   3 674.727 25.0131   3
   7   5   3 689.975 24.4506  12
  -7   5  -3 681.377 25.7299   1
  -7   5  -3 662.603 29.0250  11
   7   5   3 648.000 26.6240  14
   9  -5   3 193.004 11.7577   4
  -9  -5  -3 165.439 14.1202   1
  -9  -5  -3 172.183 19.4949  11
   9  -5   3 182.485 11.4389  12
   9   5   3 203.569 12.5187   3
   9   5   3 170.129 11.1428  12
  10  -6  -3 63.4846 7.11082   9
 -10  -6   3 53.0184 6.72888   5
 -10   6   3 65.5282 7.03666   8
  10   6  -3 61.4204 6.54974   4
 -10   6   3 57.7537 9.01932  11
 -10   6   3 61.5001 7.34535   1
   8  -6  -3 133.066 7.75188   4
  -8  -6   3 128.832 10.3830  16
  -8  -6   3 143.284 9.19102   5
   8  -6  -3 141.811 8.49947   2
  -8   6   3 147.522 9.40859   8
  -8   6   3 142.469 9.28437   1
  -8   6   3 136.229 8.50899  13
   8   6  -3 139.789 10.2815  14
   8   6  -3 142.087 7.93845   4
   6  -6  -3 581.432 20.6525   2
  -6  -6   3 623.698 24.0326  16
  -6  -6   3 642.123 21.2025   5
   6  -6  -3 590.063 21.8327  10
  -6   6   3 571.758 20.7570   8
   6   6  -3 609.132 19.7621   4
  -6   6   3 601.018 20.8512  13
   6   6  -3 598.826 22.4186  14
  -6   6   3 576.675 20.5322   1
   6   6  -3 571.859 19.6648   3
  -4  -6   3 240.481 11.6805  16
  -4  -6   3 244.810 10.1996   5
   4  -6  -3 240.224 10.3640  10
   4  -6  -3 259.982 10.5835   2
  -4  -6   3 243.550 9.16911   2
   4  -6  -3 242.748 9.07381   6
  -4   6   3 245.774 10.4377   8
   4   6  -3 233.729 9.49459   3
   4   6  -3 240.863 11.0429  14
  -4   6   3 250.243 10.2977  13
  -4   6   3 233.079 9.14559   3
   4   6  -3 243.780 9.26266   4
  -4   6   3 226.864 9.76394  12
  -2  -6   3 1065.74 32.5237  12
  -2  -6   3 1092.83 32.3679   2
   2  -6  -3 1101.75 32.6848   2
  -2  -6   3 1064.52 33.4293  16
   2  -6  -3 1095.83 31.3762  10
   2  -6  -3 1093.89 32.3151   6
  -2  -6   3 1065.35 31.7240   5
  -2   6   3 1101.41 32.0921   3
   2   6  -3 1081.84 30.6430  13
  -2   6   3 1113.88 32.9617  13
  -2   6   3 1107.58 32.6111  12
   2   6  -3 1150.96 33.9268  14
   2   6  -3 1091.09 32.1484   3
   2   6  -3 1124.05 32.8674   7
   0  -6  -3 548.012 17.3747   2
   0  -6   3 553.213 18.3259   2
   0  -6   3 528.179 18.2514  10
   0  -6   3 509.052 17.9942   5
   0  -6  -3 530.555 17.6504  15
   0  -6  -3 527.848 16.7075   9
   0  -6  -3 567.992 20.4832  11
   0  -6   3 546.792 17.9942  12
   0  -6  -3 566.369 18.3308   6
   0   6  -3 565.182 17.9018   3
   0   6   3 546.582 17.9715  12
   0   6   3 552.621 17.4203  14
   0   6   3 574.705 18.1567   3
   0   6  -3 555.222 18.2054   7
   0   6  -3 530.130 16.6052  13
   0   6   3 550.980 18.5436  13
   2  -6   3 276.630 12.1988  10
   2  -6   3 278.970 11.2640   2
   2  -6   3 284.896 11.0495  12
  -2  -6  -3 259.135 11.0799   6
  -2  -6  -3 267.701 13.5271  11
   2   6   3 277.498 10.8922  12
  -2   6  -3 265.143 11.2110   7
   2   6   3 267.241 11.4631  14
  -2   6  -3 290.209 10.6584  13
   2   6   3 278.235 11.4943  13
  -2   6  -3 271.963 10.9724   3
  -2   6  -3 280.494 11.5105   1
   2   6   3 275.095 11.2778   3
  -4  -6  -3 444.345 16.5924   6
   4  -6   3 410.076 17.6472  10
   4  -6   3 433.519 16.4814   2
  -4  -6  -3 447.421 20.4729  11
   4  -6   3 432.314 16.4334  12
   4   6   3 426.134 16.2635  12
   4   6   3 427.576 17.6981  14
  -4   6  -3 428.932 16.5429   7
  -4   6  -3 448.794 17.3549   1
   4   6   3 452.051 17.1569   3
   6  -6   3 25.2887 4.35936  12
  -6  -6  -3 40.0452 7.92123  11
  -6  -6  -3 31.6154 5.74191   1
  -6  -6  -3 32.7896 4.54116   6
   6  -6   3 29.7711 4.71766   4
   6   6   3 28.2987 5.54257  14
   6   6   3 35.2798 4.86628  12
  -6   6  -3 35.0499 5.31139   1
  -6   6  -3 37.4451 5.72979   7
   6   6   3 31.9726 5.22268   3
   8  -6   3 79.6173 7.89638  12
   8  -6   3 105.599 8.54095   4
  -8  -6  -3 85.1345 11.1232  11
  -8   6  -3 106.004 10.2974   1
   8   6   3 84.4373 8.64890   3
   8   6   3 80.9896 7.75197  12
  -9  -7   3 448.306 18.4293   6
   9  -7  -3 456.405 18.3369   2
  -9  -7   3 486.501 19.9021   5
  -9   7   3 493.688 19.6064   1
   9   7  -3 379.000 22.5005  14
   9   7  -3 481.859 18.1187   4
  -7  -7   3 78.6002 7.04655   5
   7  -7  -3 73.7774 6.07583   2
  -7  -7   3 78.0202 8.10468  16
  -7   7   3 64.7869 6.41174  13
   7   7  -3 75.7863 5.35017   4
  -7   7   3 68.7974 6.51853   8
   7   7  -3 65.8377 5.67649   3
  -7   7   3 67.1166 6.91842   1
   7   7  -3 70.9996 7.83507  14
  -5  -7   3 1580.94 46.3729   5
   5  -7  -3 1538.34 46.9299  10
  -5  -7   3 1554.22 49.6476  16
   5  -7  -3 1533.42 46.4049   2
   5   7  -3 1549.95 45.5022   3
  -5   7   3 1595.25 46.5627  13
   5   7  -3 1527.25 47.9617  14
   5   7  -3 1528.78 44.6540   4
  -5   7   3 1558.03 44.8847   3
  -5   7   3 1585.18 46.4405   8
   3  -7  -3 452.206 15.7189  10
  -3  -7   3 449.052 15.9056   2
   3  -7  -3 462.273 15.8602   6
  -3  -7   3 462.402 18.2007  16
  -3  -7   3 443.484 16.5845  12
  -3  -7   3 465.963 16.1302   5
   3  -7  -3 511.616 17.1634   2
  -3   7   3 482.131 16.0604   3
   3   7  -3 469.266 16.8353   7
   3   7  -3 476.962 16.2884   3
  -3   7   3 457.984 16.5519  12
  -3   7   3 465.512 16.7247   8
   3   7  -3 489.035 18.0131  14
  -3   7   3 484.924 16.9863  13
  -1  -7   3 3107.53 85.4810   5
   1  -7  -3 3066.19 86.8246   2
   1  -7  -3 3175.63 87.3087   6
  -1  -7   3 3020.37 87.1178  12
  -1  -7   3 3052.85 86.9856  10
  -1  -7   3 3204.80 87.3787   2
   1   7  -3 3202.82 86.9130   3
  -1   7   3 3286.97 87.5439  12
   1   7  -3 3226.01 87.4009   7
   1   7  -3 3065.41 85.2941  13
  -1   7   3 3226.40 87.7459  13
  -1   7   3 3188.74 86.9585   3
  -1   7   3 3078.68 85.6702  14
   1  -7   3 614.074 20.6791  12
  -1  -7  -3 624.088 21.0696   6
  -1  -7  -3 595.952 19.2447   2
  -1  -7  -3 575.859 19.4441  15
   1  -7   3 607.787 21.3255  10
  -1  -7  -3 639.269 23.8346  11
   1  -7   3 611.822 20.8692   2
  -1   7  -3 657.927 20.7509   3
  -1   7  -3 627.242 19.5502  13
  -1   7  -3 622.986 20.7761   7
   1   7   3 600.956 20.3854  14
   1   7   3 630.339 20.7401  12
   1   7   3 644.538 20.9603   3
   1   7   3 599.868 21.0280  13
  -3  -7  -3 1829.31 54.5794   6
   3  -7   3 1803.71 54.1856  12
  -3  -7  -3 1846.89 58.5045  11
   3  -7   3 1787.31 55.7023  10
   3  -7   3 1863.50 54.5805   2
  -3   7  -3 1854.97 54.8158   1
   3   7   3 1908.10 55.3518  14
   3   7   3 1868.01 54.8313   3
   3   7   3 1873.88 54.9863  13
   3   7   3 1831.32 54.1375  12
  -3   7  -3 1933.37 54.6019   7
  -5  -7  -3 147.653 12.8278  11
  -5  -7  -3 145.373 8.97191   6
   5  -7   3 146.897 9.18226   2
   5  -7   3 155.506 9.31359  12
   5  -7   3 145.983 8.36193   4
   5   7   3 150.322 9.11584  12
   5   7   3 147.110 9.71951   3
   5   7   3 147.473 10.4822  14
  -5   7  -3 147.160 9.55430   7
  -5   7  -3 144.342 10.0420   1
   7  -7   3 444.010 19.0978   4
  -7  -7  -3 522.817 25.5555  11
   7  -7   3 456.554 19.9764  12
  -7   7  -3 469.178 21.5158   1
   7   7   3 497.479 20.5984   3
   7   7   3 491.929 20.0830  12
 -10  -8   3 29.0767 5.06306   5
  10  -8  -3 28.3171 6.01711   9
 -10   8   3 49.0054 9.19444  11
 -10   8   3 28.4917 5.36864   1
  -8  -8   3 80.3783 7.27670   5
   8  -8  -3 56.4203 6.40536   2
  -8   8   3 60.0591 6.46125  13
   8   8  -3 65.9814 5.48365   4
   8   8  -3 64.0708 7.99905  14
  -8   8   3 68.4048 7.63081   1
  -8   8   3 86.5568 7.72471   8
   6  -8  -3 260.978 12.5016   2
  -6  -8   3 238.040 11.8140   5
  -6  -8   3 245.032 14.7534  16
  -6   8   3 254.565 11.7093   8
  -6   8   3 238.556 10.7247   3
  -6   8   3 245.157 12.0520  13
   6   8  -3 244.284 11.3178   3
   6   8  -3 240.987 13.4971  14
   6   8  -3 240.162 10.2303   4
   4  -8  -3 22.6721 2.99423   6
  -4  -8   3 23.1776 3.76368   5
  -4  -8   3 23.4396 4.82128  16
   4  -8  -3 21.5253 3.98255   2
  -4  -8   3 21.1812 3.11988   2
  -4   8   3 22.4026 3.47530   3
   4   8  -3 19.9695 3.77238   7
  -4   8   3 19.3733 3.29379   8
   4   8  -3 24.2161 4.09837  14
   4   8  -3 20.9288 3.50351   3
  -4   8   3 17.9461 3.68900  13
   2  -8  -3 324.088 13.0156   2
  -2  -8   3 288.861 12.4334  12
   2  -8  -3 342.775 12.7343   6
  -2  -8   3 299.473 11.8484  10
  -2  -8   3 314.590 12.6685   2
  -2  -8   3 310.619 11.7619   5
   2   8  -3 326.492 12.6903   3
   2   8  -3 336.709 13.1850   7
   2   8  -3 315.620 13.8532  14
  -2   8   3 297.083 12.8343   8
  -2   8   3 297.642 12.7076  12
  -2   8   3 310.767 13.1149  13
  -2   8   3 318.509 12.6008   3
   0  -8  -3 134.281 7.44430   6
   0  -8   3 121.075 7.02536  12
   0  -8   3 118.311 6.98455  10
   0  -8  -3 123.655 6.59549  15
   0  -8   3 138.146 7.69388   2
   0  -8  -3 124.192 6.55177   2
   0   8  -3 119.809 5.99180  13
   0   8   3 122.785 7.23035   3
   0   8  -3 137.421 7.47265   3
   0   8  -3 128.066 7.05616   7
   0   8   3 124.591 6.61664  14
   0   8   3 133.048 7.83626  13
   0   8   3 120.693 7.27186  12
   2  -8   3 80.8731 6.66766  10
  -2  -8  -3 88.9241 6.81175   6
   2  -8   3 90.3714 6.67113   2
   2  -8   3 80.2705 6.28044  12
  -2  -8  -3 79.1191 8.36218  11
   2   8   3 86.7200 6.45175  12
   2   8   3 78.6624 6.81437   3
  -2   8  -3 89.8268 6.82020   1
   2   8   3 84.2524 6.23572  13
  -2   8  -3 97.1161 6.63235   3
  -2   8  -3 80.0908 5.20272  13
  -2   8  -3 84.4053 5.96298   7
   2   8   3 74.3814 6.20426  14
   4  -8   3 269.501 12.9538  12
  -4  -8  -3 263.483 12.6836   6
   4  -8   3 270.620 12.7640   2
  -4  -8  -3 261.065 16.2644  11
   4   8   3 264.338 12.6979  12
   4   8   3 274.481 12.9499   3
  -4   8  -3 280.483 12.9372   7
   4   8   3 263.367 12.7018  13
  -4   8  -3 274.697 13.7815   1
   4   8   3 256.902 13.4443  14
  -6  -8  -3 31.4543 5.06012   6
   6  -8   3 37.9982 5.21484  12
  -6  -8  -3 31.0100 7.92839  11
   6  -8   3 29.7675 4.41269   4
   6  -8   3 38.7800 5.35404   2
  -6   8  -3 37.2604 6.60363   1
   6   8   3 36.0448 5.30612   3
  -6   8  -3 39.3182 6.05906   7
   6   8   3 31.4220 4.98427  12
   6   8   3 33.3133 5.64560  13
   6   8   3 35.1074 7.45762  14
  -9  -9   3 236.682 13.2265   5
  -9  -9   3 218.263 11.9466   6
   9  -9  -3 196.538 12.1723   2
  -9   9   3 240.013 13.3129   1
   7  -9  -3 962.068 32.6475   2
  -7  -9   3 940.275 32.7434   6
  -7  -9   3 957.119 32.7448   5
  -7   9   3 1012.23 33.7337   1
  -7   9   3 951.886 32.6716  13
   7   9  -3 940.147 35.0774  14
   5  -9  -3 288.016 13.6703   2
  -5  -9   3 280.429 13.1517   5
   5   9  -3 290.381 13.6536   7
  -5   9   3 285.150 12.8216   8
  -5   9   3 276.015 13.1810  13
   5   9  -3 266.140 14.3981  14
   5   9  -3 278.289 12.6123   3
  -5   9   3 280.390 12.2193   3
  -3  -9   3 952.090 30.0085   2
  -3  -9   3 889.301 29.4563   5
   3  -9  -3 965.330 31.1808   2
   3  -9  -3 989.777 30.0445   6
  -3   9   3 943.607 30.1886   3
  -3   9   3 971.729 31.1625  13
   3   9  -3 969.257 30.9841   7
  -3   9   3 920.668 30.6755   8
   3   9  -3 936.341 30.3397   3
   3   9  -3 940.543 32.1381  14
  -1  -9   3 135.665 8.42431   2
   1  -9  -3 139.198 7.96119   2
   1  -9  -3 126.456 8.13275   6
  -1   9   3 137.652 8.16345  13
  -1   9   3 143.298 8.47771   3
  -1   9   3 143.589 8.47313  12
   1   9  -3 144.041 8.30330   3
   1   9  -3 139.881 8.14308   7
   1  -9   3 663.271 23.2896  12
   1  -9   3 620.677 23.2071  10
   1  -9   3 694.087 24.0176   2
  -1  -9  -3 676.885 22.0604   2
  -1  -9  -3 655.195 23.5149   6
   1   9   3 682.284 23.7029   3
  -1   9  -3 663.576 22.7045   7
   1   9   3 654.830 23.5068  13
  -1   9  -3 665.214 23.0328   3
   1   9   3 640.078 23.3906  12
  -3  -9  -3 98.7674 7.87666   6
  -3  -9  -3 92.3919 9.91027  11
   3  -9   3 101.242 7.68419  12
   3  -9   3 85.7502 7.97913   2
  -3   9  -3 96.2211 6.88371   7
   3   9   3 84.9044 7.42619  14
   3   9   3 89.3068 7.27815  12
  -3   9  -3 90.9367 7.36867   1
  -3   9  -3 96.9354 6.48684  13
  -3   9  -3 95.2036 7.52346   3
   3   9   3 94.6284 8.11312   3
   3   9   3 90.7773 7.43698  13
   5  -9   3 564.182 22.7260  12
  -5  -9  -3 597.753 22.9798   6
  -5  -9  -3 565.217 26.9713  11
   5  -9   3 579.784 22.0915   2
   5   9   3 581.953 23.0810   3
   5   9   3 558.420 23.1407  14
  -5   9  -3 621.162 22.7827   7
   5   9   3 532.189 22.0710  13
   5   9   3 579.541 22.9329  12
  -5   9  -3 609.105 23.6569   1
  -7  -9  -3 107.789 13.3539  11
  -7   9  -3 129.755 10.9744   1
   7   9   3 106.862 9.08319  12
   8 -10  -3 1.60075 2.48524   2
  -8 -10   3 1.98997 2.61273   6
  -8 -10   3 -1.1604 2.64995   5
   8  10  -3 -0.5172 3.63018   7
  -8  10   3 0.49730 4.32974   1
  -6 -10   3 57.9434 7.20070   6
   6 -10  -3 59.2744 6.76115   2
  -6 -10   3 61.9151 6.75432   5
  -6  10   3 59.8274 6.15866   3
   6  10  -3 60.2913 6.73476   7
   6  10  -3 54.9566 7.28251  14
  -6  10   3 60.3468 6.86871  13
  -4 -10   3 16.0897 4.30393   6
   4 -10  -3 11.1214 3.71272   2
  -4 -10   3 10.2862 3.43386   5
  -4  10   3 15.1961 3.83633  13
   4  10  -3 8.97701 3.50115   7
   4  10  -3 8.22736 3.30327   3
   4  10  -3 12.4481 3.72185  14
  -4  10   3 18.5997 3.49419   3
   2 -10  -3 89.5370 7.00266   6
  -2 -10   3 91.9922 7.24250   2
   2 -10  -3 93.2321 7.25428   2
  -2 -10   3 77.6763 6.87353   6
  -2  10   3 80.4906 6.75016   8
  -2  10   3 79.1922 7.23339   3
  -2  10   3 89.7516 7.31822  13
   2  10  -3 86.2850 7.10119   3
   2  10  -3 80.2202 6.77130   7
   0 -10   3 1.83551 1.72939   6
   0 -10  -3 3.78813 2.24246   2
   0 -10   3 5.86446 3.44034   2
   0 -10  -3 4.87734 3.24341   6
   0  10  -3 4.31571 2.91320   3
   0  10  -3 2.93519 2.72647   7
   0  10   3 6.92981 3.28811  13
   0  10   3 2.19919 3.49562   3
   0  10   3 6.58910 2.89515  12
   2 -10   3 -1.4252 3.52116   2
  -2 -10  -3 1.06943 2.28265   6
  -2  10  -3 2.23844 2.77806   7
   2  10   3 -5.1425 3.23911   3
   2  10   3 -1.8112 2.25277  13
   2  10   3 -0.0734 2.45304  12
  -2  10  -3 -1.5465 2.58656   3
  -2  10  -3 -0.2247 2.70521   1
  -4 -10  -3 53.2085 7.13923   6
   4 -10   3 36.2232 6.16167   2
  -4 -10  -3 46.3498 8.53166  11
   4  10   3 51.0201 6.58267  12
  -4  10  -3 50.7551 6.39573   1
   4  10   3 43.4661 5.98895  13
   4  10   3 52.2838 7.05177   3
  -6 -10  -3 21.1111 7.49114  11
  -6 -10  -3 29.4180 5.46256   6
   6 -10   3 27.1927 4.65552   2
   6  10   3 17.3259 5.17231   3
  -6  10  -3 20.0222 5.55055   1
   6  10   3 11.3609 3.82324  12
   7 -11  -3 56.4131 7.15967   2
  -7 -11   3 83.7535 8.87563   6
   7  11  -3 71.1335 8.09052   7
  -7  11   3 119.842 9.64957   1
   5 -11  -3 500.162 20.5572   2
  -5 -11   3 461.274 19.5546   6
   5  11  -3 480.612 19.2957   3
   5  11  -3 459.884 24.7550  14
   3 -11  -3 262.811 12.9788   2
  -3 -11   3 261.162 13.1436   6
   3 -11  -3 244.109 11.9795   6
  -3 -11   3 246.934 12.1009   2
   3  11  -3 276.535 13.2793   3
   3  11  -3 255.092 12.5607   7
  -3  11   3 276.208 13.1729  13
  -3  11   3 249.334 12.7644   3
   1 -11  -3 967.171 32.2938   6
  -1 -11   3 993.603 31.7472   6
  -1 -11   3 1000.18 33.0043   2
   1 -11  -3 1003.61 32.3434   2
   1  11  -3 982.344 32.5474   3
  -1  11   3 957.603 32.7600  13
   1  11  -3 1002.82 32.2643   7
  -1  11   3 805.845 33.1348   8
  -1  11   3 1018.82 32.9013   3
   1 -11   3 386.560 17.4642   2
  -1 -11  -3 375.949 17.3228   6
  -1  11  -3 408.518 17.0021   3
  -1  11  -3 372.510 16.7341   1
   1  11   3 395.792 17.1044  13
   1  11   3 382.650 17.1981   3
   1  11   3 366.575 16.9929  12
  -3 -11  -3 643.199 25.1607   6
   3 -11   3 651.503 24.9551   2
   3  11   3 618.735 24.9746  12
  -3  11  -3 662.345 25.4637   1
   3  11   3 670.927 25.6055   3
  -5 -11  -3 143.989 13.4977  11
   5 -11   3 162.455 10.6257   2
  -5 -11  -3 145.604 10.8328   6
   5  11   3 159.731 11.5338   3
   5  11   3 144.627 10.5884  12
  -5  11  -3 160.239 10.9907   1
   6 -12  -3 6.64112 4.66845   2
  -6 -12   3 9.22307 4.92082   6
  -6  12   3 5.16951 3.87331   3
   6  12  -3 9.65330 3.79621   3
  -6  12   3 10.9986 5.47927   1
  -4 -12   3 140.454 10.6998   6
   4 -12  -3 149.808 10.5113   2
  -4  12   3 146.287 9.34782   3
   4  12  -3 141.771 9.85545   3
   2 -12  -3 7.95814 3.81781   6
  -2 -12   3 12.0174 3.74676   2
  -2 -12   3 5.44354 3.70386   6
   2 -12  -3 13.2220 4.06222   2
  -2  12   3 8.74992 3.38609  13
  -2  12   3 9.31981 4.34499   3
   2  12  -3 13.3714 4.14753   3
   0 -12  -3 55.3316 6.97489   6
   0 -12   3 52.6933 6.72827   2
   0  12   3 53.6736 6.90004   3
   0  12  -3 73.2247 7.72739   3
   0  12   3 61.5842 7.66018  13
   2 -12   3 70.7536 7.97560   2
  -2 -12  -3 65.4805 8.23625   6
  -2  12  -3 62.9221 6.88706   3
  -2  12  -3 70.5566 7.98123   1
   2  12   3 83.3775 8.95135   3
  -4 -12  -3 -2.5214 3.31862   6
   4 -12   3 0.04039 4.16632   2
  -4  12  -3 0.24719 3.70125   1
   4  12   3 2.15182 3.10337   3
   5 -13  -3 674.640 27.0352   9
  -5  13   3 744.539 29.5752   3
  -3 -13   3 6.92175 3.43766   6
   3 -13  -3 6.61178 3.73635   2
   3  13  -3 5.92715 3.56134   3
  -3  13   3 9.28835 3.59133   3
   1 -13  -3 564.167 22.7879   6
  -1 -13   3 558.155 22.4551   2
  -1  13   3 582.524 23.1577   3
   1  13  -3 575.804 22.7940   3
   1 -13   3 2.64850 2.80150   2
  -1 -13  -3 11.2725 4.68006   6
  -1  13  -3 4.94350 3.72099   3
   1  13   3 8.83699 4.84972   3
  12   0  -4 1300.61 42.3155   4
 -12   0   4 1330.17 49.8423  11
 -12   0   4 1309.66 44.4366   8
  10   0  -4 85.4388 6.56687   4
 -10   0   4 67.9786 7.19868  16
 -10   0   4 74.4175 7.05768   8
 -10   0   4 69.9883 5.50661   5
 -10   0   4 81.2248 10.6814  11
   8   0  -4 2923.00 81.9283   4
  -8   0   4 2970.02 81.9198   5
  -8   0   4 2892.24 83.1806   8
  -8   0   4 2985.96 86.0491  11
  -8   0   4 2925.68 84.7939  16
   8   0  -4 2777.61 82.1828  14
   8   0  -4 3015.89 81.7823   9
  -6   0   4 89.7169 5.23785   5
  -6   0   4 93.5086 4.89899  12
   6   0  -4 87.0078 4.98929  14
  -6   0   4 90.1344 5.79733   8
  -6   0   4 85.0853 3.98711   1
  -6   0   4 97.9572 6.38002  16
   6   0  -4 92.0890 5.14235   4
   6   0  -4 97.4818 5.16720   9
   4   0  -4 3412.80 92.8909  15
  -4   0   4 3403.95 93.1141   8
  -4   0   4 3384.81 92.9045   5
  -4   0   4 3415.36 91.6188  13
  -4   0   4 3410.19 92.5421  12
   4   0  -4 3391.23 92.3525   4
  -4   0   4 3492.21 94.6184  16
   4   0  -4 3516.51 92.1980  14
   4   0  -4 3442.93 93.1289   9
  -2   0   4 61.8052 2.56999  13
   2   0  -4 60.0394 3.13003   6
   2   0  -4 55.6095 2.88871   7
  -2   0   4 60.7033 3.87282  16
  -2   0   4 63.1117 2.47185  12
  -2   0   4 62.7423 3.31952   8
   2   0  -4 63.6612 3.39987   9
   2   0  -4 66.4756 3.54013  15
   0   0  -4 3478.54 94.2098   9
   0   0  -4 3454.14 94.0257   7
   0   0  -4 3469.99 93.6964   6
   0   0  -4 3569.44 95.1498  11
   0   0  -4 3419.05 94.8814  15
   0   0  -4 3549.29 93.9242   1
  -2   0  -4 549.992 16.2966   6
  -2   0  -4 532.654 17.8206   1
  -2   0  -4 539.695 17.5888   7
   2   0   4 592.875 18.0274  10
  -2   0  -4 539.763 18.0888  15
  -2   0  -4 527.706 19.1291  11
  -4   0  -4 2485.12 69.9330   1
   4   0   4 2385.61 69.0975  10
   4   0   4 2517.23 66.8913  12
  -4   0  -4 2338.98 72.4040  11
   4   0   4 2473.90 68.2491   4
   6   0   4 390.233 19.8980  10
  -6   0  -4 342.716 18.2467  11
   6   0   4 337.352 16.4436  14
   6   0   4 347.976 14.0894   4
  -6   0  -4 354.683 15.9518   1
   6   0   4 340.932 13.5973  12
   8   0   4 958.057 31.6778  12
  -8   0  -4 931.253 33.7412   1
  -8   0  -4 879.931 37.5291  11
 -11  -1   4 87.0617 11.3411  11
  11  -1  -4 93.8229 7.26662   4
 -11  -1   4 82.0974 8.12734   8
  11   1  -4 98.6301 7.48559   4
 -11   1   4 92.1449 11.8964  11
 -11   1   4 89.1339 8.17717   8
  -9  -1   4 8.47471 3.46914  16
   9  -1  -4 7.34686 2.46322   4
  -9  -1   4 8.87498 4.56590  11
  -9  -1   4 9.66387 3.03114   5
  -9  -1   4 12.9863 3.42164   8
   9  -1  -4 11.1850 2.98405   9
   9   1  -4 8.81003 2.93962  14
  -9   1   4 12.7854 2.87804   5
  -9   1   4 18.2802 3.96664  16
  -9   1   4 11.8588 5.02055  11
  -9   1   4 5.54295 3.48388   8
   9   1  -4 15.1501 3.46129   4
  -7  -1   4 520.854 20.1107  16
  -7  -1   4 515.865 19.9268  11
   7  -1  -4 524.785 17.8848   9
   7  -1  -4 495.136 17.2317  14
  -7  -1   4 502.053 17.6540   5
  -7  -1   4 525.898 18.5413   8
   7  -1  -4 522.666 17.3900   4
   7   1  -4 540.618 17.7680   4
   7   1  -4 514.843 18.2490  14
  -7   1   4 523.979 16.7050   1
  -7   1   4 527.207 19.5271  16
  -7   1   4 517.584 17.5174   5
   7   1  -4 519.387 17.2575   9
  -7   1   4 532.650 18.8266   8
   5  -1  -4 0.10500 0.77962   4
   5  -1  -4 1.10282 0.77686  14
  -5  -1   4 3.06158 1.61653   8
  -5  -1   4 3.07535 1.27705   5
  -5  -1   4 0.34923 1.00505  12
  -5  -1   4 2.88286 1.96038  16
   5  -1  -4 0.49697 0.83509   9
   5   1  -4 0.53804 0.75257  15
  -5   1   4 0.20345 1.00519  12
   5   1  -4 1.35593 1.18873  14
   5   1  -4 -0.0645 0.93634   9
  -5   1   4 1.64411 1.20590  16
  -5   1   4 2.08782 1.71334   8
   5   1  -4 -0.1728 1.08481   4
  -5   1   4 0.60458 0.97208   5
  -5   1   4 0.13461 0.79619   1
  -3  -1   4 274.947 9.09978  12
  -3  -1   4 275.191 8.01776  13
   3  -1  -4 272.496 9.86426   9
   3  -1  -4 275.108 9.95256  15
  -3  -1   4 288.483 9.48805   8
   3  -1  -4 291.424 8.94533   4
  -3  -1   4 284.916 9.65446   5
  -3  -1   4 283.936 10.8159  16
   3  -1  -4 276.319 8.78857   7
   3  -1  -4 280.903 9.48874   6
   3   1  -4 287.496 9.26875   4
   3   1  -4 282.826 9.53293   7
  -3   1   4 296.754 9.12433  13
   3   1  -4 277.167 9.84004   9
   3   1  -4 285.982 9.46060  14
  -3   1   4 298.963 11.0282  16
  -3   1   4 288.061 10.0094   8
  -3   1   4 284.481 9.10757  12
   3   1  -4 282.167 9.58408  15
   1  -1  -4 345.536 11.3748   6
   1  -1  -4 329.934 10.8909   1
  -1  -1   4 386.625 12.3008  16
   1  -1  -4 359.113 11.6026   9
   1  -1  -4 345.787 10.8386   7
   1  -1  -4 350.647 12.0313  15
   1  -1  -4 331.192 12.1930  11
   1   1  -4 361.943 11.5117   7
   1   1  -4 361.119 11.1634   6
   1   1  -4 385.427 11.3234  11
   1   1  -4 369.896 10.7452   1
   1   1  -4 361.259 11.8521   9
  -1   1   4 360.675 11.2474  13
   1   1  -4 364.541 12.0434  15
  -1  -1  -4 73.9617 3.95131   7
  -1  -1  -4 73.9104 3.67692   9
  -1  -1  -4 70.9775 4.19609  15
   1  -1   4 72.7811 4.47599  10
  -1  -1  -4 74.0288 4.18304   1
  -1  -1  -4 78.8647 3.77700   6
  -1  -1  -4 77.9306 5.05516  11
  -1   1  -4 68.1541 3.22806   6
   1   1   4 80.6272 3.97428  10
  -1   1  -4 81.5114 4.25372   9
  -1   1  -4 70.7601 4.34499  15
  -1   1  -4 70.3181 4.45835  11
  -1   1  -4 66.8558 4.13025   7
  -1   1  -4 73.1465 4.14105   1
   3  -1   4 401.812 12.7210   2
  -3  -1  -4 382.008 14.1499  15
  -3  -1  -4 378.292 14.4428   1
  -3  -1  -4 361.675 12.4114   6
   3  -1   4 400.025 12.0259  12
  -3  -1  -4 361.957 16.1787  11
   3  -1   4 413.205 14.7669  10
   3   1   4 395.250 11.7626  12
  -3   1  -4 400.186 14.3091   7
  -3   1  -4 375.489 15.7984  11
  -3   1  -4 395.672 14.4578   1
   3   1   4 405.018 15.0962  14
   3   1   4 401.473 13.8488  10
   3   1   4 410.250 13.3747   4
   5  -1   4 3.53228 1.77133  12
   5  -1   4 3.01961 2.35162  10
  -5  -1  -4 -2.5721 2.62996  11
   5  -1   4 -0.1488 1.57479   4
  -5  -1  -4 2.08445 2.47440   1
   5   1   4 1.84199 1.47705  10
  -5   1  -4 0.86195 2.60037   1
  -5   1  -4 0.50510 2.99038  11
   5   1   4 0.00711 1.49822   4
   5   1   4 0.25173 1.78704  12
   5   1   4 2.48141 2.27985  14
  -7  -1  -4 37.2888 6.25852   1
   7  -1   4 43.5498 6.57446  14
  -7  -1  -4 49.4905 8.87362  11
   7  -1   4 36.0901 5.43557   4
   7  -1   4 41.9690 5.21799  12
   7   1   4 37.3901 6.62737  14
  -7   1  -4 45.1975 6.71486   1
  -7   1  -4 52.0790 8.83693  11
   7   1   4 39.7627 5.00142  12
   7   1   4 34.1114 5.04259   4
   9  -1   4 30.2137 4.88044   4
  -9  -1  -4 30.2541 6.67451   1
   9  -1   4 30.7533 5.02501  12
  -9  -1  -4 26.3042 7.47183  11
   9   1   4 34.6847 5.05452   4
  -9   1  -4 29.2345 6.60690   1
  -9   1  -4 39.6790 8.66314  11
   9   1   4 33.8460 5.61805  12
 -12  -2   4 91.7180 9.79494   8
 -12  -2   4 94.6450 10.8434  11
  12  -2  -4 98.8560 8.40963   4
  12   2  -4 108.504 9.29401   4
 -12   2   4 99.9335 8.80616   8
 -12   2   4 111.136 14.2660  11
  10  -2  -4 352.386 14.7334   4
 -10  -2   4 367.198 16.6889   8
  10  -2  -4 339.231 14.8623   9
 -10  -2   4 353.775 19.0082  11
 -10  -2   4 344.013 17.3291  16
 -10  -2   4 355.194 15.1281   5
  10   2  -4 331.090 15.0242   4
 -10   2   4 344.332 16.2307   8
 -10   2   4 354.742 20.1038  11
  10   2  -4 326.113 15.6364  14
  -8  -2   4 389.230 15.7828   8
   8  -2  -4 401.945 15.5503   9
  -8  -2   4 415.518 17.9817  11
   8  -2  -4 396.087 16.8357  10
  -8  -2   4 406.933 15.5715   5
  -8  -2   4 385.296 17.3104  16
   8  -2  -4 399.472 14.9355   4
  -8   2   4 401.450 14.5031   1
  -8   2   4 401.943 14.5498   5
   8   2  -4 420.209 15.4753   4
  -8   2   4 396.527 16.4423  16
   8   2  -4 386.404 16.0567  14
  -8   2   4 417.960 16.6702   8
   6  -2  -4 2553.34 70.8798   4
  -6  -2   4 2584.63 73.1751  11
  -6  -2   4 2595.10 74.3870  16
   6  -2  -4 2658.03 72.3549   9
  -6  -2   4 2423.78 71.1906  12
  -6  -2   4 2569.08 71.8766   5
  -6  -2   4 2534.38 71.9102   8
   6  -2  -4 2588.54 73.2915  10
  -6   2   4 2575.03 71.2161   5
  -6   2   4 2666.48 73.4414  16
  -6   2   4 2558.69 70.9947  13
  -6   2   4 2664.68 72.7581   8
   6   2  -4 2585.44 70.9932   9
  -6   2   4 2502.06 71.4031  12
   6   2  -4 2524.29 72.2304  14
  -6   2   4 2591.89 70.5414   1
   6   2  -4 2615.00 71.4471   4
  -4  -2   4 2223.80 61.6155   5
  -4  -2   4 2214.08 63.3493  16
   4  -2  -4 2269.76 61.0855   6
   4  -2  -4 2205.00 60.4545   4
  -4  -2   4 2208.35 61.2178   8
  -4  -2   4 2182.67 61.2414  12
   4  -2  -4 2193.73 61.9439   9
   4   2  -4 2167.63 61.7496  14
  -4   2   4 2298.90 61.1314  13
  -4   2   4 2277.17 63.1465  16
  -4   2   4 2193.51 59.4309   3
  -4   2   4 2289.39 61.3769  12
   4   2  -4 2205.44 61.4264   9
   4   2  -4 2175.74 61.0774   4
  -4   2   4 2308.25 62.3229   8
   4   2  -4 2254.47 60.6682  15
  -2  -2   4 8697.48 234.894  16
  -2  -2   4 8200.13 228.814  12
   2  -2  -4 8031.56 228.373   6
   2  -2  -4 8212.62 231.175  15
  -2  -2   4 8852.25 228.498   8
   2  -2  -4 8168.22 223.709   9
  -2  -2   4 8865.24 229.373   5
  -2   2   4 8497.35 226.044   3
  -2   2   4 8384.10 229.937  10
   2   2  -4 8160.93 231.724  15
   2   2  -4 8511.74 229.044   7
  -2   2   4 8522.48 224.542  14
   2   2  -4 8167.51 233.996   9
   2   2  -4 8670.13 226.873   3
  -2   2   4 8221.93 229.729  12
  -2   2   4 8406.59 231.306  13
   0  -2   4 1625.54 44.6573  16
   0  -2  -4 1576.28 44.0517   7
   0  -2  -4 1550.93 46.5735  11
   0  -2  -4 1600.68 44.4654   9
   0  -2   4 1663.48 43.1883  12
   0  -2   4 1664.96 43.1393  12
   0  -2  -4 1612.29 45.5162  15
   0  -2   4 1624.67 43.7885   5
   0  -2  -4 1591.70 44.7745   6
   0  -2  -4 1599.47 44.8683   1
   0   2  -4 1605.05 45.2597   9
   0   2  -4 1593.30 45.5449  15
   0   2  -4 1644.49 45.2864   7
   0   2  -4 1584.42 44.4819   1
   0   2  -4 1532.59 44.4042  11
   0   2   4 1660.69 44.7410  14
  -2  -2  -4 4097.57 107.618   1
  -2  -2  -4 4012.49 107.427  15
   2  -2   4 3996.58 105.146  12
  -2  -2  -4 4031.08 106.477   6
   2  -2   4 3654.87 105.241  16
   2  -2   4 3849.92 107.990  10
   2  -2   4 3955.50 106.525   2
  -2  -2  -4 4217.33 110.660  11
  -2  -2  -4 4008.65 105.566   9
   2   2   4 3965.23 105.892   4
  -2   2  -4 3573.92 108.164  11
   2   2   4 3968.81 106.262  10
  -2   2  -4 3902.94 107.469   7
  -2   2  -4 3826.09 107.320   1
   2   2   4 3926.39 105.870  12
   2   2   4 3965.24 107.775  14
   2   2   4 4000.67 105.167  12
   4  -2   4 153.434 6.87778  12
  -4  -2  -4 179.733 9.09969   1
   4  -2   4 171.871 8.89005  10
   4  -2   4 164.364 7.01878   2
  -4  -2  -4 151.717 10.3828  11
  -4   2  -4 162.268 8.71331   7
   4   2   4 166.420 7.33915   4
   4   2   4 152.733 6.60427  12
   4   2   4 173.826 9.44388  14
  -4   2  -4 157.453 10.0358  11
   4   2   4 158.529 7.55320  10
  -4   2  -4 156.925 8.69264   1
  -6  -2  -4 708.873 25.7738   1
  -6  -2  -4 691.762 29.9937  11
   6  -2   4 697.878 26.7438  14
   6  -2   4 728.430 24.4775   4
   6  -2   4 717.051 23.9078  12
   6   2   4 678.250 26.2819  14
  -6   2  -4 719.339 26.3288   1
   6   2   4 717.226 23.8920   4
  -6   2  -4 726.488 29.3455  11
   6   2   4 708.419 23.5683  12
   8  -2   4 28.6305 4.86300   4
  -8  -2  -4 29.3720 6.52654   1
  -8  -2  -4 26.4952 6.57570  11
   8  -2   4 33.8552 5.14545  12
  -8   2  -4 25.4798 6.76914  11
   8   2   4 31.4336 4.91138   4
  -8   2  -4 22.0653 6.08531   1
   8   2   4 32.5826 4.89445  12
 -11  -3   4 2.96420 3.11022   8
 -11  -3   4 0.46240 1.95664   5
  11  -3  -4 4.15277 3.12272   4
 -11  -3   4 2.51116 4.98330  11
 -11   3   4 4.47135 6.14344  11
  11   3  -4 1.04556 3.07508  14
  11   3  -4 0.65181 2.50170   4
 -11   3   4 -0.4969 2.60585   8
   9  -3  -4 68.4714 6.13241   4
  -9  -3   4 58.0647 6.16495   8
  -9  -3   4 68.6236 6.24790   5
  -9  -3   4 57.9375 7.67742  11
   9  -3  -4 64.5866 5.84044   9
  -9  -3   4 56.2409 7.15767  16
   9   3  -4 63.2699 5.83934   4
  -9   3   4 65.6235 7.11032   8
   9   3  -4 55.0111 6.48659  14
  -9   3   4 51.8670 5.31364   1
  -7  -3   4 93.4759 5.96543   8
  -7  -3   4 96.8450 6.52343   5
   7  -3  -4 83.0267 5.07753   4
   7  -3  -4 90.9317 6.32883   9
   7  -3  -4 87.7009 6.73441  10
  -7  -3   4 89.8016 6.94948  11
  -7  -3   4 93.7875 7.82707  16
  -7   3   4 89.4899 5.14055   5
  -7   3   4 97.8409 6.73747  16
   7   3  -4 86.1227 6.46207  14
  -7   3   4 84.4716 5.37290   1
   7   3  -4 97.6418 5.76827   4
  -7   3   4 102.306 6.71176   8
  -7   3   4 87.1238 5.46238  13
   5  -3  -4 49.7762 3.59609   2
   5  -3  -4 47.3592 3.23755   6
   5  -3  -4 48.7372 3.07505   4
   5  -3  -4 53.2935 4.50308  10
  -5  -3   4 55.9953 4.29764   5
  -5  -3   4 47.3324 3.51795  12
  -5  -3   4 51.8836 5.46100  16
  -5  -3   4 49.6723 3.71608   8
   5  -3  -4 55.6944 4.37826   9
  -5  -3   4 44.5163 3.69944  11
  -5   3   4 49.8580 4.50978  16
   5   3  -4 48.7578 3.68749   4
   5   3  -4 51.9824 3.40675   9
  -5   3   4 46.9444 3.49553   5
  -5   3   4 46.4073 3.57701  12
  -5   3   4 49.3173 4.49129   8
   5   3  -4 48.1348 3.25230   3
  -5   3   4 50.7741 3.58280  13
   3  -3  -4 180.136 7.48151   9
   3  -3  -4 173.621 7.23996   2
  -3  -3   4 179.514 6.30669   8
  -3  -3   4 195.309 8.57887  16
   3  -3  -4 164.090 6.78775   6
  -3  -3   4 181.496 6.91187  12
   3  -3  -4 168.847 5.70538   4
  -3  -3   4 188.930 7.19052   5
  -3   3   4 171.960 7.66428   8
   3   3  -4 174.192 6.47596  15
  -3   3   4 169.290 6.78933  12
   3   3  -4 195.295 6.17733   3
  -3   3   4 179.669 7.17347  13
  -3   3   4 164.939 5.96657   3
   3   3  -4 181.594 7.64412  14
   3   3  -4 190.659 7.30813   9
   3   3  -4 185.853 6.85150   4
   3   3  -4 195.208 7.66348   7
   1  -3  -4 347.882 12.1520  15
  -1  -3   4 338.280 11.7211  16
   1  -3  -4 358.592 13.2614  11
   1  -3  -4 344.550 11.6673   6
  -1  -3   4 346.593 10.8531   5
   1  -3  -4 339.929 11.3048   9
  -1  -3   4 358.225 10.8737  12
  -1   3   4 362.915 11.7848  13
  -1   3   4 354.269 10.4958  12
   1   3  -4 334.908 10.8002   3
   1   3  -4 339.727 11.8390   9
   1   3  -4 353.685 11.9303   7
  -1   3   4 354.535 10.5991  14
  -1   3   4 352.589 11.1328   3
   1   3  -4 341.308 11.7413  15
   1   3  -4 325.781 10.6564   1
  -1   3   4 328.342 10.7581  10
   1  -3   4 8.71973 2.23274  10
   1  -3   4 9.12439 1.42026  12
   1  -3   4 7.74917 1.64423   2
  -1  -3  -4 10.1515 1.38020   9
  -1  -3  -4 12.2782 1.99257  15
  -1  -3  -4 14.1451 2.43260   1
  -1  -3  -4 7.41498 1.53952   6
   1  -3   4 13.8124 1.31920  16
  -1  -3  -4 7.11234 2.19999  11
  -1   3  -4 13.0364 2.17677   7
  -1   3  -4 8.81719 1.89511   1
   1   3   4 9.09304 2.05861  14
   1   3   4 8.79369 0.99428  12
   1   3   4 8.77094 0.93263  12
   1   3   4 9.90900 1.26991  10
  -1   3  -4 9.96178 1.93230  11
   1   3   4 8.13107 1.23754   4
   3  -3   4 273.556 12.0919  10
   3  -3   4 281.751 10.5910   2
  -3  -3  -4 276.254 10.5256   6
   3  -3   4 278.316 10.0077  12
  -3  -3  -4 280.199 11.6267   1
  -3  -3  -4 284.517 10.9613  15
  -3  -3  -4 302.231 14.4065  11
  -3   3  -4 251.485 12.1778  11
   3   3   4 276.979 9.85290   4
   3   3   4 287.407 9.63770  12
   3   3   4 292.437 12.1485  14
  -3   3  -4 279.083 11.7449   1
  -3   3  -4 278.583 11.5796   7
  -5  -3  -4 1.38228 2.95211   1
  -5  -3  -4 4.43447 3.88859  11
   5  -3   4 2.41710 1.92438  12
   5  -3   4 2.32029 2.52834   4
   5   3   4 -0.9841 1.85982  14
   5   3   4 2.73861 2.08976  12
  -5   3  -4 -0.8857 2.80130   7
  -5   3  -4 -0.9285 2.44368  11
   5   3   4 3.84043 2.24106   4
  -5   3  -4 -1.4636 2.56058   1
   7  -3   4 16.8471 4.24817  14
  -7  -3  -4 12.2986 4.94080  11
   7  -3   4 13.3403 4.27451   4
   7  -3   4 19.8764 3.96329  12
  -7  -3  -4 14.8644 4.87082   1
   7   3   4 14.8276 4.30721  14
  -7   3  -4 19.5770 5.98971  11
   7   3   4 14.1696 3.53588  12
   7   3   4 20.0227 3.97779   4
  -7   3  -4 12.8031 4.73413   1
 -12  -4   4 146.379 9.61780   5
  12  -4  -4 152.882 9.37970   4
  12   4  -4 168.180 12.6271   4
 -12   4   4 155.399 11.3678   8
 -10  -4   4 1167.74 39.2047   8
  10  -4  -4 1145.99 37.0123   4
 -10  -4   4 1183.10 38.3001   5
  10  -4  -4 1222.06 39.1254   9
 -10  -4   4 1137.98 41.7195  16
 -10   4   4 1173.78 39.3300   8
 -10   4   4 1222.43 44.3188  11
  10   4  -4 1203.75 37.9990   4
  10   4  -4 1165.66 40.2611  14
  -8  -4   4 173.201 9.32884   8
   8  -4  -4 175.158 8.60212   4
  -8  -4   4 182.733 11.1320  11
   8  -4  -4 173.087 10.0190   9
  -8  -4   4 178.796 9.32633   5
  -8  -4   4 190.421 11.8949  16
   8   4  -4 179.183 10.4943  14
  -8   4   4 191.768 10.5759   8
   8   4  -4 172.278 9.14309   4
  -8   4   4 168.225 8.86488   1
  -8   4   4 177.354 9.00297  13
   6  -4  -4 2442.68 67.7738   2
  -6  -4   4 2467.69 68.2961   5
   6  -4  -4 2515.70 66.2831   6
  -6  -4   4 2362.69 67.5034   8
  -6  -4   4 2336.50 68.3526  11
   6  -4  -4 2360.50 69.2142  10
   6  -4  -4 2327.03 66.2777   4
  -6  -4   4 2389.46 70.7654  16
   6  -4  -4 2489.90 68.9391   9
  -6   4   4 2479.05 67.7660  13
  -6   4   4 2422.63 68.9254  16
  -6   4   4 2314.75 67.4728  12
   6   4  -4 2361.63 69.0556  14
   6   4  -4 2410.14 67.2974   4
  -6   4   4 2510.88 68.9496   8
  -6   4   4 2329.05 66.7314   5
   4  -4  -4 42.2254 3.11973   6
   4  -4  -4 39.2032 3.76104   9
  -4  -4   4 39.0985 3.25289  12
  -4  -4   4 44.4801 3.79883   5
   4  -4  -4 41.6509 3.67974  10
  -4  -4   4 41.7542 4.87114  16
   4  -4  -4 38.2748 3.45952   2
  -4  -4   4 42.8604 2.89000   8
  -4   4   4 36.5197 3.60406  13
   4   4  -4 41.8398 4.01353  14
  -4   4   4 38.3847 3.26435  12
   4   4  -4 44.0330 2.76454   3
  -4   4   4 34.2648 3.90562   8
   4   4  -4 39.7840 2.91292   9
   4   4  -4 46.7461 3.37816   4
  -4   4   4 40.9667 2.54025   3
   2  -4  -4 3366.27 92.0686   2
   2  -4  -4 3337.01 92.8111  15
  -2  -4   4 3397.92 91.6486  12
  -2  -4   4 3509.99 93.1856  16
  -2  -4   4 3397.05 91.4334   5
   2  -4  -4 3342.71 92.0320   9
   2  -4  -4 3356.77 92.0015   6
   2   4  -4 3417.78 91.1662   3
   2   4  -4 3335.38 91.4467  15
   2   4  -4 3433.52 92.5128   7
  -2   4   4 3249.46 91.2292  10
   2   4  -4 3309.79 92.1473   9
  -2   4   4 3378.04 91.0982   3
  -2   4   4 3486.00 91.4878  12
  -2   4   4 3235.79 90.6635  14
  -2   4   4 3519.69 92.2600  13
   2   4  -4 3418.52 92.8182  14
   0  -4   4 33.7231 2.45406  16
   0  -4  -4 34.9928 3.13693   6
   0  -4  -4 32.8551 2.43178   9
   0  -4   4 32.6673 3.36838   2
   0  -4  -4 33.1819 4.23426  11
   0  -4   4 32.5802 2.05527   5
   0  -4  -4 31.1013 2.79848  15
   0  -4   4 35.6282 2.88130  12
   0  -4   4 32.2360 3.10786  10
   0   4   4 33.0900 2.34267  12
   0   4  -4 29.9175 2.61563   1
   0   4  -4 33.7044 2.71499   3
   0   4  -4 32.9676 3.03761   7
   0   4   4 31.8215 3.37757  13
   0   4   4 37.3237 2.82491  14
   0   4   4 32.8216 1.82161  10
   0   4   4 34.9357 3.04923   3
   2  -4   4 3249.14 85.5762  12
  -2  -4  -4 3082.80 90.1962  11
  -2  -4  -4 3089.18 86.4299   6
   2  -4   4 3177.56 86.4279   2
  -2  -4  -4 3089.27 86.2686  15
  -2  -4  -4 3110.23 86.9924   1
   2  -4   4 3101.31 87.9369  10
  -2   4  -4 2912.18 86.8717  11
  -2   4  -4 3143.81 86.8766   1
   2   4   4 3202.73 87.2749  14
  -2   4  -4 3248.70 87.3401   7
   2   4   4 3100.16 84.4370   4
   2   4   4 3263.61 85.0376  12
   4  -4   4 155.421 7.65080  12
   4  -4   4 141.171 8.84445  10
  -4  -4  -4 160.915 7.77276   6
  -4  -4  -4 166.513 8.94168   1
   4  -4   4 152.492 7.76209   2
  -4  -4  -4 168.418 11.6960  11
  -4   4  -4 138.557 9.28517  11
   4   4   4 156.254 9.48566  14
  -4   4  -4 172.951 8.95463   7
  -4   4  -4 161.666 9.23112   1
   4   4   4 146.444 6.88359   4
   4   4   4 173.408 7.55450  12
  -6  -4  -4 1530.29 48.2360   1
  -6  -4  -4 1469.30 53.4403  11
   6  -4   4 1526.01 46.3493  12
   6  -4   4 1534.88 46.9644   4
  -6   4  -4 1611.20 49.1223   1
  -6   4  -4 1521.80 51.7760  11
   6   4   4 1578.50 46.4769  12
   6   4   4 1510.39 45.2167   4
   6   4   4 1564.56 49.6778  14
   8  -4   4 110.062 8.93099   4
   8  -4   4 108.443 8.56835  12
  -8  -4  -4 129.726 11.4491   1
  -8  -4  -4 90.5012 12.2451  11
  -8   4  -4 129.749 11.7347   1
   8   4   4 104.876 8.34166  12
 -11  -5   4 5.59943 3.58621   5
  11  -5  -4 13.5930 4.53516   9
 -11   5   4 9.32665 4.17448   8
  11   5  -4 10.4288 4.13699   4
 -11   5   4 8.02678 6.25946  11
  -9  -5   4 174.263 9.93884   5
   9  -5  -4 165.168 10.6121   9
  -9  -5   4 164.916 12.3023  16
   9  -5  -4 150.500 8.32606   4
  -9   5   4 160.031 9.67685  13
  -9   5   4 170.071 9.77694   1
  -9   5   4 170.927 10.9160   8
   9   5  -4 179.649 11.0721  14
   9   5  -4 178.567 9.92103   4
   7  -5  -4 25.9246 4.45469   9
   7  -5  -4 25.0231 3.57917   2
   7  -5  -4 22.7098 2.94227   4
  -7  -5   4 24.3289 3.80364   8
   7  -5  -4 24.9124 3.87150  10
  -7  -5   4 26.2888 5.30540  16
  -7  -5   4 26.3442 4.19488   5
  -7   5   4 27.9836 4.15912   1
  -7   5   4 29.4291 4.21191  13
   7   5  -4 23.2704 3.28099   4
   7   5  -4 29.1336 4.89433  14
  -7   5   4 25.0329 4.02788   8
   5  -5  -4 578.699 19.6009   2
  -5  -5   4 641.228 20.0471   5
   5  -5  -4 588.332 18.4228   6
   5  -5  -4 572.377 20.1603  10
  -5  -5   4 573.646 18.2822   2
  -5  -5   4 612.406 22.2411  16
  -5  -5   4 604.470 19.5219  12
  -5  -5   4 574.596 18.4950   8
   5   5  -4 587.047 18.3304   9
   5   5  -4 603.954 18.4014   3
  -5   5   4 570.050 20.2089   8
   5   5  -4 610.532 19.0039   4
  -5   5   4 553.505 19.2776  12
  -5   5   4 555.508 17.8158   3
   5   5  -4 628.938 21.1693  14
  -5   5   4 573.411 19.5919  13
  -5   5   4 569.068 20.4052  16
   3  -5  -4 323.891 11.8772   2
  -3  -5   4 309.303 12.8308  16
  -3  -5   4 323.850 11.6061   5
  -3  -5   4 335.537 11.6376   2
   3  -5  -4 324.344 11.4704   6
   3  -5  -4 313.909 12.0758   9
  -3  -5   4 321.923 11.7584  12
   3   5  -4 329.405 12.8396  14
   3   5  -4 314.138 10.9594   3
   3   5  -4 338.779 11.6905   9
   3   5  -4 315.818 12.1640   7
  -3   5   4 318.343 12.0588  13
  -3   5   4 314.625 10.7996   3
  -3   5   4 306.448 11.4426  12
  -3   5   4 340.008 12.8004   8
   1  -5  -4 375.144 13.4222  15
  -1  -5   4 367.403 12.8539  16
   1  -5  -4 384.597 12.8636   2
  -1  -5   4 366.773 11.7621   5
  -1  -5   4 371.090 13.4448  10
  -1  -5   4 382.732 12.8177  12
   1  -5  -4 380.372 13.2904   6
   1  -5  -4 354.181 12.3543   9
  -1  -5   4 384.192 13.3328   2
  -1   5   4 369.636 12.5555  12
   1   5  -4 356.165 13.2264   7
   1   5  -4 363.479 12.4323   3
  -1   5   4 364.851 12.6295   3
   1   5  -4 362.933 11.0082  13
   1   5  -4 356.193 12.0890   1
  -1   5   4 391.197 13.5834  13
  -1  -5  -4 954.303 29.1869  15
   1  -5   4 985.110 28.9512  12
   1  -5   4 965.746 30.5762  10
   1  -5   4 969.929 29.5973   2
  -1  -5  -4 972.370 29.7712   6
  -1  -5  -4 968.360 32.5617  11
   1   5   4 958.318 29.2912  14
   1   5   4 997.006 29.6360   3
   1   5   4 969.431 28.4996  12
  -1   5  -4 965.227 29.0481   3
  -1   5  -4 964.020 29.3535   1
   1   5   4 980.486 30.0581  13
  -1   5  -4 966.445 29.8044   7
   3  -5   4 146.512 7.83987   2
   3  -5   4 161.178 8.88784  10
  -3  -5  -4 140.271 7.69862   6
  -3  -5  -4 136.083 10.3953  11
   3  -5   4 162.210 7.58540  12
  -3  -5  -4 132.481 8.22605   1
   3   5   4 138.696 6.93241  12
   3   5   4 149.347 8.40853   3
  -3   5  -4 141.250 8.24319   1
  -3   5  -4 145.079 8.34353   7
   3   5   4 132.008 7.98051  14
  -5  -5  -4 491.635 23.2254  11
  -5  -5  -4 443.536 16.6419   6
   5  -5   4 423.277 16.7372  12
  -5  -5  -4 469.679 18.8062   1
   5  -5   4 404.380 16.2128   2
   5  -5   4 437.286 17.1744   4
   5   5   4 445.119 19.1644  14
   5   5   4 438.728 16.5404  12
   5   5   4 443.450 17.6446   3
  -5   5  -4 443.589 18.2355   7
  -5   5  -4 470.548 19.0755   1
  -7  -5  -4 70.5755 10.5840  11
   7  -5   4 96.1082 7.95841  12
  -7  -5  -4 95.8105 9.66022   1
   7  -5   4 89.1253 8.07458   4
  -7   5  -4 78.6084 8.64533   1
   7   5   4 101.031 7.84886  12
   7   5   4 76.1440 8.03011   3
 -10  -6   4 21.3642 4.15979   5
  10  -6  -4 16.7659 4.68000   9
  10   6  -4 18.6096 4.36347   4
 -10   6   4 16.2745 6.76535  11
 -10   6   4 17.5468 4.03743   8
 -10   6   4 22.3732 5.02312   1
   8  -6  -4 1175.98 38.8433   9
   8  -6  -4 1186.18 37.2429   2
  -8  -6   4 1134.37 37.5786   5
  -8  -6   4 1172.61 41.4517  16
   8   6  -4 1169.35 36.5366   4
  -8   6   4 1218.11 38.5369   8
  -8   6   4 1172.18 37.1434   1
  -8   6   4 1164.42 37.3602  13
   8   6  -4 1187.00 39.8445  14
   6  -6  -4 243.111 10.9649   2
  -6  -6   4 248.344 13.3979  16
   6  -6  -4 218.053 10.8369  10
  -6  -6   4 249.769 11.2759   5
   6   6  -4 233.132 9.86295   4
  -6   6   4 227.428 9.23323   5
  -6   6   4 227.500 10.7558  13
  -6   6   4 219.534 10.6214   8
  -6   6   4 232.307 9.02512   3
  -6   6   4 212.672 10.5041  16
   6   6  -4 228.965 11.8386  14
   6   6  -4 186.964 9.18860   3
   4  -6  -4 3380.05 91.9381   6
   4  -6  -4 3346.36 92.8653  10
  -4  -6   4 3285.31 92.3694   5
  -4  -6   4 3212.04 92.5647  12
  -4  -6   4 3316.38 91.9825   2
  -4  -6   4 3285.99 94.9790  16
   4  -6  -4 3390.00 93.2088   2
   4   6  -4 3246.20 91.6812   3
  -4   6   4 3469.53 93.0352  12
   4   6  -4 3476.58 93.7477   7
   4   6  -4 3436.84 91.8617   4
  -4   6   4 3398.67 93.0673  13
   4   6  -4 3392.67 91.7574   9
   4   6  -4 3315.66 94.2384  14
  -4   6   4 3337.78 91.3439   3
  -4   6   4 3407.26 93.6886   8
  -2  -6   4 624.058 20.0210   5
  -2  -6   4 641.776 21.0411  12
  -2  -6   4 634.219 21.6768  16
  -2  -6   4 652.501 21.1408   2
   2  -6  -4 662.921 21.2011   6
   2  -6  -4 645.124 21.0331   2
   2  -6  -4 630.941 20.8471   9
   2   6  -4 653.340 20.5036   3
  -2   6   4 684.216 21.1849  12
   2   6  -4 671.780 21.7670   7
  -2   6   4 704.281 20.7556   3
  -2   6   4 658.772 21.5843  13
   0  -6  -4 3522.10 96.0865   2
   0  -6   4 3515.13 96.6060  12
   0  -6   4 3623.74 97.3498   2
   0  -6   4 3544.21 97.8596  10
   0  -6  -4 3392.41 96.7344  15
   0  -6  -4 3540.10 100.345  11
   0  -6  -4 3364.46 95.1678   9
   0  -6  -4 3541.95 97.3535   6
   0   6  -4 3551.52 97.3955   7
   0   6   4 3574.86 96.7955   3
   0   6   4 3428.13 95.8313  14
   0   6  -4 3464.31 96.3534   3
   0   6   4 3689.99 97.7665  13
   0   6   4 3598.15 96.4975  12
   0   6  -4 3473.32 94.9521  13
   2  -6   4 214.998 9.24799  12
   2  -6   4 182.979 9.48135   2
  -2  -6  -4 202.955 12.3882  11
   2  -6   4 195.866 10.2996  10
  -2  -6  -4 191.037 9.54082   6
  -2   6  -4 206.962 9.76195   1
   2   6   4 192.811 9.71310   3
   2   6   4 198.543 8.98514  12
  -2   6  -4 204.232 9.81060   7
   2   6   4 210.357 9.88459  13
   2   6   4 188.713 9.50463  14
  -4  -6  -4 1314.75 46.6395  11
  -4  -6  -4 1302.88 41.1386   6
   4  -6   4 1327.95 40.9506  12
   4  -6   4 1339.18 41.0526   2
   4   6   4 1328.64 42.5711  14
   4   6   4 1346.87 40.6829  12
  -4   6  -4 1343.46 41.9462   7
   4   6   4 1379.52 42.0890   3
  -4   6  -4 1389.18 42.6648   1
   6  -6   4 11.3552 3.57949  12
  -6  -6  -4 20.9455 6.90924  11
   6  -6   4 17.8749 3.65884   4
   6   6   4 21.5252 5.43655  14
  -6   6  -4 19.8467 4.55006   7
   6   6   4 18.8384 4.20414   3
   6   6   4 21.3403 4.02004  12
  -6   6  -4 14.2342 3.95556   1
   8  -6   4 371.277 17.4395  12
   8  -6   4 404.094 19.8119   4
   8   6   4 372.961 19.5189  12
  -9  -7   4 127.749 11.9110  16
   9  -7  -4 142.626 10.9534   9
   9  -7  -4 156.322 9.37797   2
  -9  -7   4 137.820 9.36263   5
  -9   7   4 138.881 10.1080   8
   9   7  -4 130.065 8.71000   4
  -9   7   4 150.385 10.2336   1
  -9   7   4 147.132 10.0720  13
  -7  -7   4 31.6800 5.06519   5
  -7  -7   4 36.2509 6.73365  16
   7  -7  -4 30.8751 4.86964   2
   7   7  -4 25.8536 4.68678  14
  -7   7   4 33.5536 5.02445   1
  -7   7   4 21.9843 4.38098   8
  -7   7   4 22.9878 4.37525  13
   7   7  -4 22.3468 3.68830   4
   5  -7  -4 190.989 9.91153   2
   5  -7  -4 192.641 8.18543   6
  -5  -7   4 196.151 11.2978  16
   5  -7  -4 185.082 9.43691  10
  -5  -7   4 177.843 8.12405   2
  -5  -7   4 182.536 9.52768   5
  -5   7   4 195.764 9.94504  16
   5   7  -4 181.758 8.64504   3
   5   7  -4 190.880 10.2022   7
  -5   7   4 192.769 9.80656  13
  -5   7   4 192.010 9.70376   8
   5   7  -4 196.244 10.8464  14
  -5   7   4 192.997 8.33728   3
   5   7  -4 192.417 8.65220   4
  -5   7   4 194.713 9.44769  12
   3  -7  -4 43.3034 4.33143   6
   3  -7  -4 54.1655 4.48630   2
  -3  -7   4 44.0948 5.14311  16
   3  -7  -4 52.9384 4.69393   9
  -3  -7   4 44.6692 4.39273   2
  -3  -7   4 44.0157 4.31165  12
  -3  -7   4 52.0410 4.23978   5
   3   7  -4 53.9118 4.30226   3
  -3   7   4 46.1530 4.89361   8
  -3   7   4 46.8561 4.94305  13
  -3   7   4 51.7616 4.24053   3
  -3   7   4 45.1820 4.36282  12
   3   7  -4 50.6134 5.18340   7
   3   7  -4 41.6419 4.87006  14
  -1  -7   4 17.8931 2.98950  10
  -1  -7   4 26.3655 3.03467  16
   1  -7  -4 20.8121 3.40839   6
   1  -7  -4 17.7583 2.51309   9
  -1  -7   4 17.6691 2.99420  12
  -1  -7   4 17.0401 3.03145   2
   1  -7  -4 19.3620 3.03494   2
   1  -7  -4 15.9192 2.81985  15
  -1   7   4 18.5867 3.22116   3
   1   7  -4 18.1545 2.90793   3
  -1   7   4 22.2135 3.58964  13
   1   7  -4 16.1055 3.21067   7
  -1   7   4 12.1701 2.58997  12
   1  -7   4 92.6214 6.11188  12
  -1  -7  -4 102.397 6.51809   6
   1  -7   4 91.9102 6.76123  10
  -1  -7  -4 83.5170 5.28509  15
  -1  -7  -4 92.1613 8.55249  11
   1  -7   4 90.8922 6.81676   2
   1   7   4 95.2969 6.64035   3
   1   7   4 92.0004 6.05701  12
  -1   7  -4 100.888 6.28500   3
   1   7   4 98.1584 6.09422  14
  -1   7  -4 92.2998 6.19156   7
   1   7   4 97.5682 6.78176  13
  -1   7  -4 94.0632 6.00387   1
   3  -7   4 0.30213 2.16220  12
  -3  -7  -4 1.51491 2.48520   6
  -3  -7  -4 2.72816 4.11634  11
   3  -7   4 1.29670 2.25519   2
   3   7   4 9.49615 2.98688  14
   3   7   4 2.78343 2.18351  12
   3   7   4 -1.0789 2.31353  13
   3   7   4 2.17185 3.10830   3
  -3   7  -4 -0.1179 2.53836   1
  -3   7  -4 3.59587 2.39364   7
   5  -7   4 39.8999 5.44388   2
   5  -7   4 39.7558 5.34848  12
  -5  -7  -4 41.6038 7.88364  11
  -5  -7  -4 43.6928 5.70123   6
   5  -7   4 37.4331 4.72085   4
   5   7   4 35.8069 5.33528   3
   5   7   4 38.9844 5.73771  14
  -5   7  -4 42.7812 6.47964   1
  -5   7  -4 44.7236 5.89781   7
   5   7   4 45.8391 5.68543  12
   5   7   4 43.0350 5.94408  13
   7  -7   4 9.45272 3.96871   4
   7  -7   4 7.91170 3.61565  12
  -7  -7  -4 4.55565 6.32283  11
   7   7   4 6.11046 3.98787   3
   7   7   4 3.05613 2.97975  12
  -7   7  -4 5.90420 4.38932   1
 -10  -8   4 260.347 14.2923   5
  10  -8  -4 297.908 16.2082   9
 -10  -8   4 265.704 13.7034   6
 -10   8   4 299.049 15.3612   1
   8  -8  -4 520.434 20.8188   2
  -8  -8   4 515.998 24.0969  16
  -8  -8   4 543.338 21.2362   5
   8  -8  -4 489.659 21.7692   9
   8   8  -4 534.074 19.4302   4
  -8   8   4 506.717 20.3066  13
  -8   8   4 562.101 21.3985   1
   8   8  -4 491.970 22.2498  14
   6  -8  -4 349.386 14.8363   2
  -6  -8   4 318.942 16.9910  16
  -6  -8   4 304.390 13.7473   5
   6   8  -4 351.381 16.2535  14
  -6   8   4 330.103 13.0499   3
  -6   8   4 348.050 14.9405  13
   6   8  -4 327.756 13.3519   3
   6   8  -4 325.127 15.1414   7
   6   8  -4 312.571 12.6904   4
  -6   8   4 317.338 14.1349   8
   4  -8  -4 806.910 26.3682   2
  -4  -8   4 778.796 24.8735   2
   4  -8  -4 776.304 24.8417   6
  -4  -8   4 757.834 25.0506   5
  -4  -8   4 750.276 27.5864  16
   4   8  -4 781.657 25.0465   3
  -4   8   4 775.537 25.9412  12
  -4   8   4 751.455 25.9609  13
   4   8  -4 791.514 26.5278   7
  -4   8   4 771.043 26.2484   8
   4   8  -4 749.080 27.2021  14
  -4   8   4 754.901 24.5142   3
  -2  -8   4 285.997 10.9266   5
   2  -8  -4 285.696 12.2936   2
  -2  -8   4 271.799 12.4915  16
   2  -8  -4 309.573 12.6455   6
  -2  -8   4 307.365 12.6056   2
  -2  -8   4 272.777 11.8117  10
  -2  -8   4 283.285 12.2317  12
   2   8  -4 290.719 12.5432   7
  -2   8   4 292.444 11.8557   3
   2   8  -4 308.641 12.1739   3
  -2   8   4 300.893 13.0181  13
  -2   8   4 301.122 12.5970  12
   0  -8   4 866.957 29.5412  10
   0  -8  -4 867.151 28.4500  15
   0  -8  -4 942.347 29.8350   6
   0  -8  -4 913.952 28.3059   2
   0  -8   4 874.973 28.9914  12
   0  -8   4 900.129 29.6096   2
   0   8   4 929.182 29.2969   3
   0   8   4 904.087 29.2790  12
   0   8  -4 925.921 28.8979   1
   0   8   4 905.695 29.6986  13
   0   8  -4 920.702 28.9837   3
   0   8  -4 939.041 29.5880   7
   2  -8   4 246.910 12.3650   2
  -2  -8  -4 242.150 14.9032  11
   2  -8   4 234.751 11.4288  12
  -2  -8  -4 268.778 12.2349   6
  -2   8  -4 251.235 11.9630   1
   2   8   4 230.604 11.3562  12
  -2   8  -4 249.336 11.5549   3
  -2   8  -4 234.352 11.4047   7
   2   8   4 241.677 12.0225   3
   2   8   4 237.398 12.0497  13
  -4  -8  -4 715.432 26.0293   6
   4  -8   4 691.317 25.5092  12
   4  -8   4 726.483 25.9543   2
  -4  -8  -4 741.869 31.1221  11
  -4   8  -4 745.131 26.9433   1
   4   8   4 718.191 26.2089   3
   4   8   4 708.839 25.4241  12
   4   8   4 698.832 25.9594  13
  -4   8  -4 728.633 26.0323   7
   4   8   4 682.848 26.1729  14
  -6  -8  -4 170.839 14.6280  11
   6  -8   4 170.815 10.6275  12
   6  -8   4 172.356 10.6449   4
  -6   8  -4 179.308 12.0148   7
   6   8   4 176.211 10.9053  12
  -6   8  -4 191.451 12.8504   1
   6   8   4 181.838 11.8488   3
   9  -9  -4 5.99065 4.02860   2
  -9  -9   4 1.28013 3.34997   6
  -9  -9   4 0.65044 2.86892   5
   9  -9  -4 -0.0412 2.97975   9
  -9   9   4 5.72407 4.57059   1
  -7  -9   4 43.7431 5.84112   5
  -7  -9   4 38.0157 7.37227  16
   7  -9  -4 30.6621 4.95005   2
  -7   9   4 38.6890 5.48542   8
  -7   9   4 39.1081 6.07707   1
   7   9  -4 28.9235 5.11617   7
  -7   9   4 36.7888 5.70009  13
   7   9  -4 44.0521 6.41175  14
  -5  -9   4 0.07450 3.28223  16
  -5  -9   4 5.08106 3.13928   5
   5  -9  -4 -0.8005 2.74062   2
   5   9  -4 0.97632 2.24285   3
  -5   9   4 0.39415 1.92738   8
  -5   9   4 -1.1173 2.21198   3
   5   9  -4 2.24510 3.33053  14
  -5   9   4 0.34418 2.00544  13
   5   9  -4 0.98979 2.13782   7
  -3  -9   4 15.4063 2.99226   2
   3  -9  -4 12.5104 3.34768   6
   3  -9  -4 14.8111 3.00899   9
  -3  -9   4 10.4246 2.87055   5
   3  -9  -4 15.4450 3.20314   2
  -3   9   4 12.2129 2.94044   8
  -3   9   4 9.68753 3.04407  12
  -3   9   4 15.6991 3.57652   3
  -3   9   4 11.1420 3.58305  13
   3   9  -4 12.9919 3.28101   7
   3   9  -4 8.98495 3.55671  14
   3   9  -4 18.3414 3.61855   3
  -1  -9   4 9.18230 3.02758  10
  -1  -9   4 3.46570 2.27353  12
   1  -9  -4 5.32698 2.26910  15
   1  -9  -4 1.86897 1.54205   2
  -1  -9   4 0.99071 2.87235   2
   1  -9  -4 5.02562 2.91630   6
  -1   9   4 1.74309 2.85995  13
  -1   9   4 3.28730 2.45779  12
  -1   9   4 1.69354 2.14975   3
   1   9  -4 2.48214 2.78706   7
   1   9  -4 3.93951 2.59481   3
   1  -9   4 0.52766 2.30815   2
  -1  -9  -4 3.33991 3.20766   6
   1  -9   4 2.38800 2.35185  12
  -1   9  -4 2.57225 2.80547   7
  -1   9  -4 1.50486 1.88097   1
  -1   9  -4 4.22080 2.18530   3
   1   9   4 1.85182 2.42731  12
   1   9   4 4.56621 2.96168  13
   1   9   4 2.51880 2.42384   3
   3  -9   4 16.7554 3.92798  12
   3  -9   4 18.9059 4.98287   2
  -3  -9  -4 12.2914 4.07330   6
  -3  -9  -4 18.8626 6.40402  11
   3   9   4 14.3961 3.73563  12
  -3   9  -4 13.9298 4.09282   1
   3   9   4 13.8240 3.93017  13
  -3   9  -4 17.7790 4.18044   7
   3   9   4 15.7847 4.66352   3
  -5  -9  -4 5.51176 2.44647   6
   5  -9   4 5.51814 3.10808   4
   5  -9   4 10.9938 4.27287   2
  -5  -9  -4 3.24928 5.70462  11
   5  -9   4 2.28317 2.86750  12
  -5   9  -4 7.63747 3.47234   1
  -5   9  -4 2.73292 3.86280   7
   5   9   4 -0.5789 4.12016   3
   5   9   4 7.82907 3.49110  12
  -8 -10   4 31.2033 5.71952   6
  -8 -10   4 41.7236 6.55624   5
   8 -10  -4 42.4001 7.09371   9
   8 -10  -4 32.7543 5.96096   2
  -8  10   4 40.4583 6.83458   1
   8  10  -4 38.1668 6.80757   7
   6 -10  -4 989.562 33.0311   2
  -6 -10   4 915.734 31.4421   5
  -6  10   4 950.173 32.3706  13
   6  10  -4 902.327 32.1001   7
  -6  10   4 898.737 29.7524   3
   6  10  -4 875.269 33.8223  14
   4 -10  -4 139.118 9.17075   9
   4 -10  -4 125.736 9.28748   2
   4 -10  -4 139.230 8.34572   6
  -4 -10   4 138.305 8.34256   2
  -4 -10   4 128.377 7.85197   5
  -4  10   4 145.899 9.53908  13
  -4  10   4 138.412 9.06716   8
   4  10  -4 141.790 9.65820   7
  -4  10   4 140.446 8.61310   3
   4  10  -4 157.457 10.8792  14
   4  10  -4 133.837 8.58874   3
   2 -10  -4 1191.70 37.6782   6
   2 -10  -4 1173.81 37.5785   2
  -2 -10   4 1156.11 37.4987   2
  -2  10   4 1208.05 38.4264  13
   2  10  -4 1180.60 37.3496   3
  -2  10   4 1208.00 38.5927   8
  -2  10   4 1146.83 37.9187  12
   2  10  -4 1149.37 37.7601   7
  -2  10   4 1172.60 37.1948   3
   0 -10  -4 209.846 10.3290   2
   0 -10  -4 228.117 11.6175   6
   0 -10   4 213.240 11.5301   2
   0  10   4 212.648 11.5573  12
   0  10  -4 226.721 11.6845   7
   0  10   4 201.809 11.6007  13
   0  10  -4 217.258 10.9764   3
   0  10  -4 214.864 11.0536   1
   0  10   4 213.533 11.8172   3
  -2 -10  -4 726.941 27.6554   6
   2 -10   4 758.563 28.1479   2
   2 -10   4 713.105 27.0875  12
  -2  10  -4 795.150 27.5629   7
  -2  10  -4 793.820 27.9246   1
   2  10   4 791.448 28.0586   3
  -2  10  -4 778.930 27.1219   3
   2  10   4 808.607 28.1656  12
   2  10   4 767.256 27.8474  13
  -4 -10  -4 124.749 9.72627   6
   4 -10   4 120.591 9.89889   2
  -4 -10  -4 107.474 12.5247  11
   4  10   4 135.198 9.58210  12
  -4  10  -4 130.118 10.1160   1
   4  10   4 128.143 9.49995   3
  -4  10  -4 117.706 9.40093   7
   7 -11  -4 121.221 10.0906   9
  -7 -11   4 110.215 9.44924   6
   7 -11  -4 102.676 8.80721   2
  -7 -11   4 109.824 8.54957   5
   7  11  -4 109.994 9.03733   7
  -7  11   4 99.8506 9.93910   1
  -5 -11   4 105.082 9.33104   6
   5 -11  -4 121.747 8.97415   9
   5 -11  -4 131.319 9.79926   2
  -5 -11   4 124.005 8.74242   5
  -5  11   4 123.057 8.70283   3
   5  11  -4 121.336 9.68483   7
   5  11  -4 116.830 8.04921   3
  -3 -11   4 168.719 10.1527   2
   3 -11  -4 230.889 16.6774   9
  -3 -11   4 170.292 10.6300   6
   3 -11  -4 186.281 10.5478   6
   3 -11  -4 178.355 10.5714   2
  -3  11   4 169.676 10.2755   3
  -3  11   4 168.833 10.4441   8
  -3  11   4 188.621 11.1560  13
   3  11  -4 168.192 9.83584   3
   3  11  -4 177.171 10.4485   7
  -1 -11   4 158.947 10.6713   2
   1 -11  -4 162.361 10.1407   6
   1 -11  -4 172.446 9.58881   2
   1  11  -4 185.320 10.6327   3
   1  11  -4 170.454 10.0172   7
  -1  11   4 172.417 10.6591  12
  -1  11   4 184.498 11.0894  13
  -1  11   4 174.778 10.9118   8
  -1  11   4 176.166 11.0296   3
   1 -11   4 138.342 10.4143   2
  -1 -11  -4 145.672 9.76096   6
  -1  11  -4 119.637 9.19702   1
   1  11   4 126.524 9.53801  13
   1  11   4 136.971 9.61593   3
  -1  11  -4 136.376 9.45461   3
   1  11   4 139.365 9.69239  12
  -1  11  -4 128.977 9.23493   7
  -3 -11  -4 122.572 9.19272   6
   3 -11   4 113.023 9.11465   2
   3  11   4 118.593 9.30290  12
   3  11   4 117.340 10.3400   3
  -3  11  -4 131.319 10.0824   1
  -6 -12   4 91.1051 8.46764   6
   6 -12  -4 111.631 9.62799   9
   6 -12  -4 108.856 9.50120   2
   6  12  -4 132.340 9.51731   7
  -4 -12   4 529.987 21.3590   6
   4 -12  -4 485.604 20.6775   9
   4 -12  -4 497.439 21.2523   2
  -4  12   4 521.265 20.4199   3
   4  12  -4 518.331 20.5551   3
   4  12  -4 530.870 21.4815   7
  -2 -12   4 86.2541 7.30521   2
   2 -12  -4 81.9086 7.91630   6
  -2 -12   4 79.0384 7.50229   6
   2  12  -4 94.9489 8.03377   3
  -2  12   4 66.8001 6.81790   3
   0 -12   4 565.177 23.1686   2
   0 -12  -4 580.387 23.0585   6
   0  12   4 602.108 23.5176   3
   0  12  -4 550.880 22.3193   3
  -2 -12  -4 52.4435 6.90280   6
   2 -12   4 50.9720 7.50100   2
   2  12   4 45.4486 6.09871  12
  -2  12  -4 32.2330 5.82681   1
   2  12   4 42.8330 6.76458   3
   3 -13  -4 22.0770 4.27674   2
  -3 -13   4 24.0934 5.24648   6
  -3  13   4 19.7747 5.09229   3
   3  13  -4 22.8857 4.78248   3
   1 -13  -4 18.5676 5.34483   6
  -1 -13   4 21.3505 4.92162   2
  -1  13   4 17.5773 5.14079   3
   1  13  -4 19.4006 4.11206   3
  -1 -13  -4 24.2049 6.29152   6
   1 -13   4 26.8218 5.63770   2
  -1  13  -4 27.7307 5.09868   3
   1  13   4 33.4696 6.41794   3
  12   0  -5 7.02151 2.90377   4
 -12   0   5 -3.0528 5.22324  11
 -12   0   5 -0.9701 3.10787   8
  10   0  -5 -2.1221 2.49548   4
 -10   0   5 -0.3425 4.51855  11
 -10   0   5 0.68936 2.38939   5
 -10   0   5 0.72466 2.87599  16
 -10   0   5 -0.8713 3.64928   8
   8   0  -5 0.18303 1.87893   4
  -8   0   5 -1.7861 2.48894   8
   8   0  -5 0.94584 1.67437   9
  -8   0   5 0.32935 2.57004  16
  -8   0   5 1.77274 3.17020  11
  -8   0   5 -1.6625 1.92400   5
   6   0  -5 0.28383 0.92594  14
   6   0  -5 1.71544 1.42897   9
  -6   0   5 6.43360 2.12792   5
  -6   0   5 7.67895 2.38645  16
  -6   0   5 2.47189 2.07710   8
  -6   0   5 -0.2061 1.16903  12
   6   0  -5 0.10994 1.35505   4
  -6   0   5 1.18207 0.99350  13
   6   0  -5 0.57175 1.14659  15
  -4   0   5 -0.0421 0.52019  13
   4   0  -5 0.90063 0.61890  14
   4   0  -5 2.58324 1.22491  15
  -4   0   5 0.06574 1.20494   5
  -4   0   5 0.55220 0.82407  12
  -4   0   5 10.7796 1.90571   8
  -4   0   5 2.42290 1.72767  16
   4   0  -5 0.53338 0.80923   7
   4   0  -5 0.05357 0.77144   9
   2   0  -5 0.16572 0.56412   1
   2   0  -5 0.80029 1.04237   9
  -2   0   5 1.31315 0.51567  12
   2   0  -5 0.24359 0.57214   7
  -2   0   5 -0.0805 0.86219   8
   2   0  -5 2.88782 1.27162  15
  -2   0   5 6.26751 1.07206  13
   2   0  -5 0.33654 0.70989   6
  -2   0   5 2.90259 0.59093  12
  -2   0   5 3.95080 1.48662  16
   0   0  -5 0.88726 0.95505   1
   0   0  -5 -0.9569 0.97558  11
   0   0  -5 0.65842 1.04872   7
   0   0  -5 0.09310 1.11416  15
   0   0  -5 0.63865 1.02288   9
   0   0  -5 0.56094 0.88080   6
  -2   0  -5 0.16212 1.52884   7
  -2   0  -5 0.17797 1.56708  15
  -2   0  -5 -0.1525 1.05674   1
  -2   0  -5 0.02989 0.72460   6
  -2   0  -5 2.29335 1.93983  11
   2   0   5 0.75538 1.48694  10
  -4   0  -5 7.12898 2.91124   1
   4   0   5 1.19488 1.40768  12
   4   0   5 -1.1043 1.73151  10
  -4   0  -5 0.73957 1.96505  11
   4   0   5 4.73195 2.40703   4
   6   0   5 1.35176 2.14936   4
  -6   0  -5 -0.5717 3.31103   1
   6   0   5 0.53301 2.15308  12
  -6   0  -5 1.89571 3.91822  11
   6   0   5 -0.3578 3.36489  14
  -8   0  -5 -2.0566 3.93867  11
   8   0   5 2.91664 2.75929  12
   8   0   5 -1.6499 3.31625   4
  -8   0  -5 7.03354 4.86698   1
 -11  -1   5 826.230 33.8447  11
 -11  -1   5 804.180 29.8101   8
 -11  -1   5 768.071 30.7626  16
 -11  -1   5 788.023 27.7163   5
  11  -1  -5 811.527 28.3449   4
 -11   1   5 856.665 34.7882  11
  11   1  -5 816.017 28.6230   4
 -11   1   5 833.452 30.1905   8
  -9  -1   5 130.493 8.68491   8
  -9  -1   5 133.758 10.5344  11
   9  -1  -5 145.462 8.38983   9
  -9  -1   5 147.763 9.93933  16
   9  -1  -5 146.752 8.33902   4
  -9  -1   5 132.051 8.32364   5
  -9   1   5 137.636 8.02232   5
  -9   1   5 132.365 11.1214  11
   9   1  -5 135.963 8.18410   4
  -9   1   5 130.765 8.73806   8
   9   1  -5 134.247 7.95201  14
  -9   1   5 133.638 9.63192  16
  -7  -1   5 2122.75 62.4693  11
  -7  -1   5 2061.20 60.2626  12
  -7  -1   5 2125.74 60.7285   5
  -7  -1   5 2119.31 63.3130  16
  -7  -1   5 2144.30 61.2532   8
   7  -1  -5 2127.85 59.9733   4
   7  -1  -5 2209.36 61.2695   9
   7   1  -5 2188.37 60.5349   9
  -7   1   5 2102.85 60.4621  12
  -7   1   5 2179.78 61.6316   8
  -7   1   5 2133.60 59.3330  13
   7   1  -5 2138.61 60.2650   4
  -7   1   5 2102.07 60.4095   5
   7   1  -5 2070.20 59.4932  15
   7   1  -5 2055.30 60.4684  14
  -7   1   5 2172.05 63.1346  16
   5  -1  -5 573.497 18.6554  15
  -5  -1   5 583.910 20.3657  16
   5  -1  -5 568.047 17.5202   4
   5  -1  -5 557.159 18.6334   9
  -5  -1   5 563.468 18.3333   5
  -5  -1   5 564.636 18.2527   8
   5   1  -5 569.075 17.8851  15
  -5   1   5 576.052 18.3650   5
   5   1  -5 577.431 17.8725   4
   5   1  -5 563.088 18.3763   9
  -5   1   5 575.495 17.1907  13
  -5   1   5 561.760 16.3356   1
   5   1  -5 554.883 17.8687  14
  -5   1   5 569.125 20.0763  16
  -5   1   5 551.057 17.8322  12
  -5   1   5 570.327 18.8478   8
   3  -1  -5 3604.41 98.2711  15
  -3  -1   5 3608.32 97.4879   5
  -3  -1   5 3642.43 96.5301  12
   3  -1  -5 3560.21 97.3824   6
   3  -1  -5 3537.12 96.3827   4
  -3  -1   5 3529.37 97.0093  13
   3  -1  -5 3539.74 97.9510   9
  -3  -1   5 3576.98 97.1009   8
   3  -1  -5 3430.39 96.3365   7
  -3  -1   5 3645.94 99.2507  16
   3   1  -5 3582.39 97.8072  15
   3   1  -5 3518.48 96.8369   4
  -3   1   5 3766.03 99.7997  16
  -3   1   5 3677.83 97.9700   8
  -3   1   5 3684.88 96.5920  13
   3   1  -5 3563.19 98.0155   9
   3   1  -5 3484.67 97.2637   7
  -3   1   5 3827.92 96.5813  12
   1  -1  -5 1444.66 41.2630   6
   1  -1  -5 1380.54 42.4361  11
   1  -1  -5 1399.91 40.5985   7
  -1  -1   5 1598.61 42.5865  16
   1  -1  -5 1448.29 41.5871   9
   1  -1  -5 1457.58 42.3297  15
   1  -1  -5 1397.64 40.7059   1
   1   1  -5 1528.85 41.3277  11
   1   1  -5 1458.15 42.1827  15
   1   1  -5 1500.18 40.9471   6
   1   1  -5 1470.88 41.4248   7
   1   1  -5 1494.57 40.4359   1
  -1   1   5 1463.75 40.9838  13
   1   1  -5 1499.18 41.9158   9
  -1  -1  -5 2360.29 64.2385   1
   1  -1   5 2303.55 64.6871  10
  -1  -1  -5 2396.63 63.5105   6
  -1  -1  -5 2325.00 63.8088   7
  -1  -1  -5 2363.44 63.4548   9
  -1  -1  -5 2338.50 65.0164  15
  -1  -1  -5 2488.22 66.9153  11
  -1   1  -5 2285.46 64.1119   9
  -1   1  -5 2264.94 64.1489   1
  -1   1  -5 2232.76 65.0392  15
  -1   1  -5 2231.48 64.1896   7
  -1   1  -5 2121.18 62.5267   6
   1   1   5 2425.35 64.0499  10
  -1   1  -5 2109.04 64.9181  11
  -3  -1  -5 813.535 29.9416  11
  -3  -1  -5 863.851 27.6374  15
   3  -1   5 868.825 27.7718  10
   3  -1   5 860.883 25.4010   2
  -3  -1  -5 832.789 27.4883   1
   3  -1   5 881.745 24.3603  12
   3   1   5 858.751 23.9640  12
  -3   1  -5 860.284 27.7822   1
   3   1   5 835.025 27.9576  14
  -3   1  -5 894.058 27.7162   7
  -3   1  -5 806.648 29.0223  11
   3   1   5 847.886 26.6325  10
   3   1   5 859.459 25.9643   4
  -5  -1  -5 659.280 24.6027   1
   5  -1   5 665.838 25.7023  14
   5  -1   5 695.882 21.9108  12
   5  -1   5 641.763 22.6276   4
  -5  -1  -5 670.766 28.0873  11
   5   1   5 671.138 25.5669  14
  -5   1  -5 642.961 27.0455  11
  -5   1  -5 687.214 24.7662   1
   5   1   5 693.164 22.8757   4
   5   1   5 702.263 21.7373  12
  -7  -1  -5 311.523 16.0598   1
  -7  -1  -5 312.063 19.3948  11
   7  -1   5 312.154 13.8152  12
   7  -1   5 301.469 14.4696   4
   7   1   5 305.559 13.5669  12
   7   1   5 304.331 14.0739   4
  -7   1  -5 303.101 15.6884   1
  -7   1  -5 295.125 18.7136  11
 -12  -2   5 173.029 14.8907  11
 -12  -2   5 169.515 12.6518   8
  12  -2  -5 176.015 10.7020   4
 -12   2   5 182.363 16.3130  11
  12   2  -5 183.682 11.3247   4
 -12   2   5 178.282 12.4872   8
  10  -2  -5 419.251 17.5533   9
 -10  -2   5 446.110 18.8951   8
 -10  -2   5 431.279 19.9836  16
 -10  -2   5 418.428 17.3720   5
  10  -2  -5 414.056 16.9955   4
 -10  -2   5 412.106 20.2163  11
 -10   2   5 436.356 22.0883  11
  10   2  -5 434.069 17.3131   4
 -10   2   5 452.351 19.2223   8
  -8  -2   5 504.515 20.9812  16
   8  -2  -5 504.673 17.7776   4
   8  -2  -5 519.775 18.9866   9
  -8  -2   5 508.323 19.0604   8
  -8  -2   5 510.746 18.7125   5
  -8  -2   5 500.151 20.3397  11
   8   2  -5 502.988 18.7741  14
   8   2  -5 507.774 18.1745   4
  -8   2   5 528.409 20.2602  16
  -8   2   5 495.418 19.4236   8
  -8   2   5 514.754 17.9781   5
  -8   2   5 514.741 17.5217  13
   8   2  -5 493.753 17.3192   9
  -6  -2   5 880.144 26.8047  12
  -6  -2   5 897.220 27.2687   8
  -6  -2   5 879.354 29.4282  16
  -6  -2   5 886.018 27.7998  11
   6  -2  -5 872.474 26.1246   4
  -6  -2   5 886.479 27.4238   5
   6  -2  -5 909.415 27.8949   9
  -6   2   5 890.646 28.0327   8
  -6   2   5 913.868 26.3107  13
   6   2  -5 884.605 27.4326  14
   6   2  -5 744.840 26.3132  15
  -6   2   5 890.035 26.9544   5
  -6   2   5 835.337 25.3405   1
  -6   2   5 878.549 26.9390  12
   6   2  -5 876.560 26.7833   4
   6   2  -5 902.662 26.9798   9
  -6   2   5 913.092 29.1863  16
  -4  -2   5 1243.54 35.9766   5
   4  -2  -5 1231.82 35.5866   6
   4  -2  -5 1208.26 36.4071   9
  -4  -2   5 1247.79 35.4231  12
   4  -2  -5 1184.58 34.1353   7
  -4  -2   5 1246.68 37.8603  16
   4  -2  -5 1243.50 34.6167   4
   4  -2  -5 1256.18 36.7959  15
  -4  -2   5 1227.25 35.3381   8
   4   2  -5 1248.31 35.4923   4
  -4   2   5 1268.30 36.6055   8
   4   2  -5 1223.86 36.0252   7
   4   2  -5 1242.38 36.2051   9
   4   2  -5 1223.69 35.4131  15
   4   2  -5 1221.44 35.9630  14
  -4   2   5 1284.51 38.0385  16
  -4   2   5 1297.37 35.3239  13
  -4   2   5 1273.64 35.4104  12
  -2  -2   5 950.799 26.3026  12
   2  -2  -5 871.233 25.9834   7
   2  -2  -5 906.392 27.5624   6
  -2  -2   5 984.416 27.2509   5
  -2  -2   5 988.165 28.7041  16
  -2  -2   5 985.176 26.4590   8
   2  -2  -5 910.769 27.7444   9
  -2  -2   5 1004.74 25.0570  13
   2  -2  -5 907.470 28.3276  15
   2   2  -5 949.808 27.7861   7
  -2   2   5 928.904 26.0301  12
  -2   2   5 953.848 27.2847  13
  -2   2   5 922.221 25.9983  12
   2   2  -5 937.295 28.0636   9
   2   2  -5 929.877 27.8791  15
  -2   2   5 901.526 26.1662   3
   0  -2   5 1093.05 31.9461  10
   0  -2   5 1087.68 28.7153  12
   0  -2  -5 1072.31 31.9469  15
   0  -2  -5 1065.58 30.6506   9
   0  -2  -5 1090.83 31.0299   6
   0  -2   5 1051.19 29.8174   5
   0  -2  -5 1006.71 30.0452   7
   0  -2  -5 1050.28 33.1810  11
   0  -2   5 1095.14 28.7731  12
   0  -2   5 1058.41 30.8952  16
   0  -2  -5 1031.44 30.8898   1
   0   2  -5 1057.80 31.4855   9
   0   2  -5 1035.49 31.2497   7
   0   2  -5 1071.24 31.9831  15
   0   2  -5 1021.36 30.4703   1
  -2  -2  -5 460.872 16.3769  15
  -2  -2  -5 479.374 16.4795   1
   2  -2   5 459.680 16.7051  10
   2  -2   5 442.870 15.1558   2
   2  -2   5 458.191 13.6254  12
  -2  -2  -5 444.982 14.3332   9
  -2  -2  -5 473.955 18.9119  11
  -2  -2  -5 476.273 15.2775   6
  -2   2  -5 403.568 16.4549  11
   2   2   5 451.200 16.3192  14
   2   2   5 468.695 15.2176  10
  -2   2  -5 435.247 15.9675   1
   2   2   5 462.149 12.5521  12
   2   2   5 476.827 12.5485  12
  -2   2  -5 451.102 16.2939   7
  -4  -2  -5 305.692 13.5397   1
   4  -2   5 296.371 13.5629  10
  -4  -2  -5 301.790 16.2922  11
   4  -2   5 313.997 11.1610  12
  -4   2  -5 305.504 13.2274   7
   4   2   5 301.063 10.6744  12
   4   2   5 315.722 14.2000  14
  -4   2  -5 302.858 13.3652   1
   4   2   5 296.848 11.8333   4
  -4   2  -5 274.859 14.4718  11
   6  -2   5 175.916 9.17422  12
  -6  -2  -5 164.054 11.0567   1
  -6  -2  -5 168.902 13.9238  11
   6  -2   5 174.123 11.6570  14
   6  -2   5 166.513 9.52641   4
  -6   2  -5 160.026 12.4049  11
   6   2   5 167.497 8.96317   4
  -6   2  -5 175.500 11.4668   1
   6   2   5 161.083 10.8985  14
   6   2   5 170.217 8.92728  12
   8  -2   5 55.7251 6.55684  12
  -8  -2  -5 47.9335 9.04590  11
  -8  -2  -5 61.0983 7.50784   1
   8  -2   5 52.5073 6.95562   4
   8   2   5 64.4332 6.87083   4
  -8   2  -5 49.5546 8.76825  11
  -8   2  -5 59.8227 7.39702   1
   8   2   5 51.1838 5.97912  12
  11  -3  -5 156.460 9.33551   4
 -11  -3   5 162.948 9.76627   5
 -11  -3   5 156.301 13.2447  11
 -11  -3   5 159.812 10.7623   8
 -11   3   5 156.522 14.9463  11
 -11   3   5 162.553 11.7210   8
  11   3  -5 170.101 10.1939   4
  -9  -3   5 923.039 30.8486   8
  -9  -3   5 910.950 33.8252  16
   9  -3  -5 930.668 31.0349   9
   9  -3  -5 903.221 29.2596   4
  -9  -3   5 904.646 30.4270   5
  -9  -3   5 896.687 32.6297  11
   9   3  -5 946.014 30.2232   4
  -9   3   5 947.097 31.7938   8
   9   3  -5 893.313 31.3195  14
  -9   3   5 936.216 34.2275  16
   7  -3  -5 690.817 22.9158   9
   7  -3  -5 624.527 20.6428   4
  -7  -3   5 616.807 22.5912  11
  -7  -3   5 680.271 22.4206   5
  -7  -3   5 626.983 21.6749   8
  -7  -3   5 656.506 24.8097  16
   7   3  -5 654.453 21.5609   4
  -7   3   5 654.493 21.2541   5
   7   3  -5 657.488 20.9115   9
  -7   3   5 648.864 23.2508  16
  -7   3   5 660.985 21.2255  13
  -7   3   5 663.654 23.0550   8
  -7   3   5 629.802 21.4921  12
   7   3  -5 655.952 22.5885  14
  -7   3   5 640.523 20.4217   1
   5  -3  -5 2801.62 76.5078   9
   5  -3  -5 2765.96 74.9159   6
   5  -3  -5 2688.39 73.9123   4
  -5  -3   5 2700.26 75.6543   5
  -5  -3   5 2717.42 75.2638  12
  -5  -3   5 2672.59 74.9194  11
  -5  -3   5 2658.99 77.8106  16
  -5  -3   5 2723.69 74.8909   8
  -5   3   5 2765.31 75.3454  12
   5   3  -5 2730.63 76.1816  14
  -5   3   5 2832.79 75.1391  13
  -5   3   5 2795.47 76.5760   8
   5   3  -5 2604.53 74.0494  15
   5   3  -5 2720.05 75.3693   9
   5   3  -5 2692.85 75.0045   4
  -5   3   5 2776.70 77.6130  16
  -5   3   5 2674.26 75.3549   5
  -3  -3   5 1326.87 36.0031   8
  -3  -3   5 1357.80 39.0595  16
   3  -3  -5 1242.75 38.2165  15
  -3  -3   5 1326.23 37.1637   5
   3  -3  -5 1280.67 37.3513   6
   3  -3  -5 1257.33 37.7495   9
  -3  -3   5 1341.61 36.8295  12
   3   3  -5 1274.83 36.9663  15
   3   3  -5 1305.12 37.7494   9
  -3   3   5 1287.30 36.5844  12
   3   3  -5 1369.53 37.9883  14
  -3   3   5 1220.21 35.5891   3
   3   3  -5 1327.83 37.8866   7
  -3   3   5 1265.35 38.2173   8
   3   3  -5 1303.31 35.6130   3
  -3   3   5 1309.66 37.2229  13
  -1  -3   5 3189.49 86.7030   5
  -1  -3   5 3181.16 87.9303  16
   1  -3  -5 3300.41 90.4847  11
   1  -3  -5 3105.38 87.4842   9
  -1  -3   5 3304.92 86.4667  12
   1  -3  -5 3040.41 86.0457   7
   1  -3  -5 3213.11 88.8157  15
   1  -3  -5 3292.60 88.0766   6
  -1   3   5 3233.82 85.7565  12
   1   3  -5 3170.94 88.3543   9
  -1   3   5 3209.75 86.6355  14
  -1   3   5 3293.42 87.1570   3
   1   3  -5 3347.74 88.5228   7
  -1   3   5 3256.68 87.1463  12
   1   3  -5 3217.81 88.3943  15
  -1   3   5 3285.20 87.9055  13
   1   3  -5 3032.61 86.6064   1
   1  -3   5 420.103 15.3576  10
   1  -3   5 393.870 13.9751   2
  -1  -3  -5 423.459 14.6723   1
  -1  -3  -5 398.399 14.6421  15
  -1  -3  -5 388.702 16.7173  11
   1  -3   5 413.101 12.6040  12
  -1  -3  -5 387.102 12.9057   9
  -1  -3  -5 398.162 14.0094   6
  -1   3  -5 389.346 14.0679   1
   1   3   5 412.934 12.9891  10
   1   3   5 400.891 12.5431   4
   1   3   5 411.237 11.5273  12
   1   3   5 413.590 11.4627  12
   1   3   5 407.068 14.3400  14
  -1   3  -5 427.720 14.9537   7
  -3  -3  -5 1694.77 48.6800  15
  -3  -3  -5 1720.28 49.3429   1
   3  -3   5 1594.31 49.8487  10
  -3  -3  -5 1804.36 53.9105  11
   3  -3   5 1617.55 47.4380   2
   3  -3   5 1653.16 46.5665  12
  -3  -3  -5 1667.93 47.6731   6
   3   3   5 1747.89 46.1115  12
  -3   3  -5 1643.43 49.1608   7
   3   3   5 1712.22 49.9619  14
   3   3   5 1623.51 46.7092   4
  -3   3  -5 1435.14 49.4926  11
  -3   3  -5 1617.16 49.0550   1
   5  -3   5 56.4722 5.66378   4
  -5  -3  -5 70.9837 9.54833  11
  -5  -3  -5 73.4274 7.26404   1
   5  -3   5 73.7869 5.55792  12
   5   3   5 65.9502 5.10117  12
   5   3   5 69.1664 6.67943  14
   5   3   5 75.0406 5.76766   4
  -5   3  -5 63.8962 7.00119  11
  -5   3  -5 83.8094 7.62088   1
  -5   3  -5 79.3091 7.62283   7
   7  -3   5 620.491 22.8457  12
  -7  -3  -5 616.827 29.9043  11
   7  -3   5 643.912 23.7576   4
  -7  -3  -5 588.773 24.8382   1
  -7   3  -5 620.717 25.4481   1
   7   3   5 610.024 22.3761  12
 -12  -4   5 -0.0047 2.82460   5
  12   4  -5 0.75331 3.59311   4
 -12   4   5 1.59942 2.76382   8
 -12   4   5 1.58474 6.33718  11
  10  -4  -5 53.2017 6.86523   9
 -10  -4   5 44.9554 7.20389  16
 -10  -4   5 38.0242 6.01136   8
 -10  -4   5 45.1846 5.69467   5
  10  -4  -5 47.1681 5.01766   4
  10   4  -5 58.3965 6.51419   4
 -10   4   5 44.9957 6.66923   8
  10   4  -5 40.2508 5.65957  14
  -8  -4   5 2.22703 2.77506   5
   8  -4  -5 2.15590 2.68288   9
   8  -4  -5 3.82939 1.94557   4
  -8  -4   5 4.82933 3.47674  16
  -8  -4   5 7.71710 2.55095   8
  -8   4   5 1.63406 2.42937   8
   8   4  -5 2.75095 2.52835   4
  -8   4   5 6.29036 2.31772   5
  -8   4   5 2.45922 2.23240  16
   8   4  -5 4.83563 2.27014  14
  -8   4   5 3.83036 2.22523   1
  -8   4   5 5.25641 2.12441  13
  -6  -4   5 62.0115 4.96685   5
  -6  -4   5 54.4615 4.40426  12
   6  -4  -5 52.1411 3.51237   4
  -6  -4   5 54.5035 4.25401   8
   6  -4  -5 54.8602 4.01821   6
  -6  -4   5 54.4351 6.38374  16
   6  -4  -5 55.2386 5.31047   9
  -6   4   5 65.3188 5.91113   8
   6   4  -5 51.3463 4.56792   4
  -6   4   5 61.1595 5.26922  16
   6   4  -5 54.0954 4.01695   9
  -6   4   5 65.4162 4.83061  12
  -6   4   5 64.9669 4.64301  13
   6   4  -5 54.8524 5.24817  14
  -6   4   5 56.3705 4.35701   5
   4  -4  -5 127.280 6.29969   6
  -4  -4   5 132.306 5.46769   8
  -4  -4   5 131.390 6.35982  12
  -4  -4   5 142.357 6.79960   5
  -4  -4   5 136.114 8.15983  16
   4  -4  -5 132.117 7.00616   9
   4   4  -5 141.996 7.38166  14
  -4   4   5 122.941 5.06171   3
  -4   4   5 130.018 6.36323  12
   4   4  -5 132.905 5.52258  15
   4   4  -5 133.511 6.37743   9
   4   4  -5 140.281 6.38464   4
   4   4  -5 129.323 6.94333   7
  -4   4   5 134.294 7.48541   8
   4   4  -5 135.706 5.27855   3
  -4   4   5 130.036 6.40011  13
  -2  -4   5 26.2483 2.74151   5
  -2  -4   5 32.9356 3.50586  16
   2  -4  -5 28.4459 3.12151   6
   2  -4  -5 25.0207 2.93978   9
   2  -4  -5 22.4571 3.16053  15
  -2  -4   5 35.2257 2.87909  12
   2   4  -5 29.5852 3.57783   7
   2   4  -5 36.1109 3.43921   9
  -2   4   5 31.6312 3.19269  13
  -2   4   5 28.7865 2.74078   3
  -2   4   5 33.1898 2.65130  12
   2   4  -5 32.9460 2.94438  15
   2   4  -5 34.9529 2.48293   3
   0  -4   5 356.885 12.1138  16
   0  -4   5 375.002 13.3762   2
   0  -4   5 380.704 12.2400  12
   0  -4  -5 372.891 13.3941   6
   0  -4  -5 354.693 13.5015  15
   0  -4  -5 375.706 15.8429  11
   0  -4   5 365.642 14.0208  10
   0  -4  -5 349.425 12.1644   9
   0   4   5 370.175 12.6486  14
   0   4  -5 386.455 13.9438   7
   0   4   5 379.661 13.6471  13
   0   4   5 369.109 11.4091  10
   0   4  -5 362.970 12.7000   1
   0   4   5 371.127 12.9799   3
   0   4   5 393.966 11.7677  12
   2  -4   5 144.289 6.44087  12
  -2  -4  -5 140.436 7.30380   6
  -2  -4  -5 136.211 9.51095  11
  -2  -4  -5 143.270 7.94847   1
   2  -4   5 134.792 7.13617   2
   2  -4   5 150.068 8.33074  10
  -2  -4  -5 139.463 7.26343  15
   2   4   5 140.532 7.98652  14
  -2   4  -5 149.793 8.22748   7
   2   4   5 136.233 5.90724  12
  -2   4  -5 138.048 7.63377   1
  -4  -4  -5 152.148 7.82152   6
  -4  -4  -5 160.402 9.74670   1
  -4  -4  -5 156.289 12.1681  11
   4  -4   5 138.781 7.69068  12
   4  -4   5 142.748 7.84521   2
  -4   4  -5 149.163 9.33485   7
   4   4   5 146.023 7.30589  12
   4   4   5 133.404 8.88845  14
  -4   4  -5 150.094 9.27563   1
  -6  -4  -5 164.774 13.6067  11
   6  -4   5 158.308 10.2254   4
   6  -4   5 163.532 9.42911  12
  -6  -4  -5 156.613 10.8911   1
   6   4   5 151.441 11.4764  14
   6   4   5 165.548 9.72175  12
  -6   4  -5 175.254 11.5894   1
 -11  -5   5 454.631 19.5426   5
  11  -5  -5 466.752 20.2010   9
 -11   5   5 482.979 25.7708  11
 -11   5   5 481.269 21.1317   8
  11   5  -5 492.080 19.8600   4
  -9  -5   5 213.594 11.5740   8
  -9  -5   5 221.179 12.0906   5
   9  -5  -5 231.741 12.4955   9
  -9  -5   5 233.466 14.2952  16
  -9   5   5 225.127 12.3174   8
   9   5  -5 228.963 11.5300   4
  -9   5   5 216.957 11.4725  13
  -9   5   5 255.379 13.1615   1
   9   5  -5 206.253 12.1092  14
   7  -5  -5 855.558 28.6067   9
  -7  -5   5 847.406 27.7017   5
  -7  -5   5 843.047 30.6188  16
  -7  -5   5 850.373 26.7364   8
   7   5  -5 835.850 28.7382  14
  -7   5   5 811.146 28.1691  16
  -7   5   5 836.669 26.4180   1
   7   5  -5 800.282 26.4255   4
  -7   5   5 807.034 26.8333  13
  -7   5   5 805.223 25.9919   5
  -7   5   5 848.620 28.4665   8
  -5  -5   5 414.311 16.7949  16
  -5  -5   5 373.535 14.2178  12
  -5  -5   5 422.626 14.9375   5
   5  -5  -5 382.691 15.0796   9
   5  -5  -5 415.193 15.1143   2
  -5  -5   5 397.338 13.1915   8
   5  -5  -5 368.135 13.6182   6
  -5   5   5 377.927 14.2776  13
   5   5  -5 386.825 13.8526   4
   5   5  -5 408.483 15.7731  14
  -5   5   5 376.785 14.2973  12
  -5   5   5 395.660 15.3815   8
  -5   5   5 383.987 15.9250  16
   5   5  -5 393.562 13.7457   9
   5   5  -5 414.003 15.4487   7
   3  -5  -5 1588.20 45.5828   2
   3  -5  -5 1609.12 46.6906  15
  -3  -5   5 1540.76 45.0381   2
   3  -5  -5 1603.03 45.2868   6
  -3  -5   5 1584.57 44.7364   5
   3  -5  -5 1585.41 45.6555   9
  -3  -5   5 1579.41 46.8398  16
  -3  -5   5 1559.17 44.9522  12
  -3   5   5 1490.58 44.7149  12
   3   5  -5 1541.15 43.8911   3
  -3   5   5 1596.42 46.3846   8
   3   5  -5 1533.27 46.2154  14
  -3   5   5 1542.34 43.8191   3
  -3   5   5 1594.91 45.5517  13
   3   5  -5 1600.43 45.4163   9
   3   5  -5 1540.42 45.7864   7
  -1  -5   5 870.575 25.4934  12
  -1  -5   5 823.116 25.6496  16
   1  -5  -5 830.478 26.3043   6
   1  -5  -5 804.388 25.2651   9
  -1  -5   5 821.571 24.3529   5
   1  -5  -5 847.790 26.7761  15
  -1  -5   5 853.194 26.9054  10
  -1  -5   5 840.883 26.2744   2
  -1   5   5 845.476 25.4628   3
  -1   5   5 875.989 25.2509  12
   1   5  -5 851.044 25.2722   3
   1   5  -5 844.375 26.6299   7
   1   5  -5 819.631 24.9361   1
  -1   5   5 864.395 26.6701  13
   1  -5   5 1554.98 47.2794  10
  -1  -5  -5 1494.13 45.8166  15
   1  -5   5 1602.89 44.9525  12
   1  -5   5 1586.40 46.0086   2
  -1  -5  -5 1564.79 49.8576  11
  -1  -5  -5 1607.93 46.3209   6
   1   5   5 1586.55 45.7509  14
   1   5   5 1605.49 46.7071  13
  -1   5  -5 1528.07 45.6799   1
   1   5   5 1584.68 45.9233   3
  -1   5  -5 1587.50 46.5538   7
   1   5   5 1557.17 44.3768  12
  -3  -5  -5 678.081 24.5509   1
   3  -5   5 729.860 23.0700  12
  -3  -5  -5 691.399 23.6311   6
   3  -5   5 715.884 23.7403   2
  -3  -5  -5 702.288 28.6029  11
   3   5   5 680.567 24.2255   3
  -3   5  -5 700.470 24.7867   7
  -3   5  -5 727.640 24.8400   1
   3   5   5 714.032 24.8446  14
   3   5   5 714.391 22.5504  12
  -5  -5  -5 801.597 32.9004  11
   5  -5   5 747.461 25.5378  12
  -5  -5  -5 797.923 28.1291   1
   5  -5   5 686.712 25.5009   4
  -5   5  -5 735.295 27.2547   7
   5   5   5 783.326 25.2701  12
  -5   5  -5 698.955 27.2078   1
   5   5   5 749.553 26.9154   3
   5   5   5 735.896 27.9736  14
  -7  -5  -5 227.916 14.4044   1
  -7  -5  -5 215.732 17.2844  11
   7  -5   5 211.801 12.3451   4
   7  -5   5 213.255 11.9494  12
   7   5   5 215.720 13.2309   3
   7   5   5 205.304 11.7246  12
  -7   5  -5 226.121 14.0278   1
 -10  -6   5 8.09595 3.95435   5
  10  -6  -5 4.89113 4.03984   9
 -10   6   5 2.70375 3.56362   8
  10   6  -5 7.74856 3.79853   4
  -8  -6   5 36.4660 6.89180  16
  -8  -6   5 37.6378 5.11211   5
   8  -6  -5 49.7292 6.52656   9
  -8   6   5 43.3045 5.61572   8
  -8   6   5 40.5776 5.27266  13
   8   6  -5 42.5037 5.09437   4
   8   6  -5 36.9939 5.77017  14
  -8   6   5 53.5417 5.67621   1
  -6  -6   5 10.5090 2.83790   5
  -6  -6   5 8.36974 3.82351  16
   6  -6  -5 9.99974 3.15498   2
   6  -6  -5 6.70674 1.99739   6
   6  -6  -5 13.7937 3.49375   9
  -6  -6   5 13.2076 2.41125   2
   6   6  -5 6.30163 3.00790  14
  -6   6   5 2.80926 2.78475  13
  -6   6   5 14.3067 3.83905   8
   6   6  -5 12.0475 3.54069   7
   6   6  -5 7.95477 2.57266   4
  -6   6   5 7.31477 2.20849   5
  -6   6   5 16.7160 3.16459  12
  -6   6   5 12.8776 2.89730  16
  -4  -6   5 9.38715 2.42861   2
  -4  -6   5 12.1450 2.39687  12
  -4  -6   5 14.7721 3.34392  16
   4  -6  -5 21.5142 3.50580   2
   4  -6  -5 11.5829 2.55105   6
   4  -6  -5 9.03418 2.61002   9
  -4  -6   5 15.0761 2.89936   5
   4   6  -5 7.78363 2.75760   7
  -4   6   5 12.1985 2.56082  12
   4   6  -5 13.9511 2.25773   3
  -4   6   5 11.3972 2.10119   3
   4   6  -5 12.4049 2.51397   9
  -4   6   5 9.03051 2.80873  13
  -4   6   5 13.0251 2.90376   8
   4   6  -5 18.5097 3.38094  14
  -2  -6   5 226.232 9.75593  12
  -2  -6   5 235.986 10.3473  16
  -2  -6   5 247.379 9.08706   5
   2  -6  -5 233.435 10.5944  15
   2  -6  -5 234.099 10.0445   2
  -2  -6   5 231.243 10.0376   2
   2  -6  -5 243.929 10.2700   6
   2  -6  -5 230.790 9.73984   9
   2   6  -5 232.158 10.5804   7
  -2   6   5 242.248 9.55757   3
  -2   6   5 236.767 10.3338  13
   2   6  -5 234.757 9.35259   3
  -2   6   5 233.608 9.71212  12
   0  -6  -5 14.0799 2.72380  15
   0  -6   5 20.1481 3.25528  10
   0  -6  -5 22.2257 3.60852   6
   0  -6   5 21.7841 3.11338  12
   0  -6   5 18.2531 3.50354   2
   0  -6  -5 20.8280 4.30209  11
   0   6  -5 18.7109 3.24097   7
   0   6   5 18.3927 2.85850  12
   0   6  -5 17.8956 2.89384   3
   0   6   5 19.8709 3.33527  13
   0   6   5 21.2655 3.32342   3
   0   6  -5 17.7261 2.80806   1
   2  -6   5 225.574 9.89664  12
   2  -6   5 206.137 10.4616   2
   2  -6   5 211.898 11.2121  10
  -2  -6  -5 217.499 13.6689  11
  -2  -6  -5 206.189 9.70710  15
  -2  -6  -5 225.086 10.6735   6
  -2   6  -5 218.740 10.6187   1
   2   6   5 222.605 10.8424   3
   2   6   5 218.798 11.1537  13
  -2   6  -5 210.489 10.6579   7
   2   6   5 216.072 10.4674  14
   2   6   5 226.895 9.84153  12
   4  -6   5 93.8161 7.01200  12
  -4  -6  -5 96.6662 7.21661   6
   4  -6   5 105.072 7.79098   2
  -4  -6  -5 91.4075 9.97485  11
   4   6   5 93.4873 6.72700  12
   4   6   5 106.233 8.02528  14
  -4   6  -5 90.4226 8.14171   1
  -4   6  -5 91.3590 8.23226   7
   4   6   5 103.452 8.33629   3
   6  -6   5 52.4628 6.36996   4
   6  -6   5 57.5929 6.51339  12
  -6  -6  -5 68.1773 10.1433  11
   6   6   5 65.7106 6.35272  12
  -6   6  -5 56.8536 7.78036   7
   6   6   5 59.4538 7.63202   3
  -6   6  -5 55.8417 7.39492   1
 -11  -7   5 328.925 17.9280   5
  11  -7  -5 286.718 15.9592   9
 -11   7   5 307.793 15.4187   8
  11   7  -5 276.487 14.4501   4
   9  -7  -5 236.482 13.6300   9
  -9  -7   5 260.903 13.2274   5
  -9  -7   5 246.338 16.5422  16
  -9   7   5 261.578 12.8924  13
  -9   7   5 270.365 14.2120   8
  -9   7   5 272.329 13.3133   1
   9   7  -5 257.489 12.6833   4
   9   7  -5 235.391 14.4964  14
   7  -7  -5 1153.45 38.0400   9
   7  -7  -5 1139.64 36.8615   2
  -7  -7   5 1200.63 36.7955   5
  -7  -7   5 1119.77 40.0335  16
   7   7  -5 1160.69 38.5238  14
   7   7  -5 1131.70 35.3393   4
  -7   7   5 1097.52 37.0896   8
   7   7  -5 1158.74 37.7379   7
  -7   7   5 1093.62 36.2580  13
  -5  -7   5 726.357 27.4235  16
   5  -7  -5 758.365 25.5606   2
   5  -7  -5 771.175 24.1038   6
   5  -7  -5 736.425 25.8395   9
  -5  -7   5 702.811 23.5819   2
  -5  -7   5 747.379 24.8160   5
  -5   7   5 733.350 24.9436  13
  -5   7   5 740.992 25.7450   8
  -5   7   5 743.135 24.8986  12
   5   7  -5 775.577 26.1934   7
  -5   7   5 739.066 26.6437  16
   5   7  -5 737.409 26.6262  14
  -5   7   5 729.449 22.9978   3
  -3  -7   5 1626.61 50.3637  16
   3  -7  -5 1680.70 50.6123  15
  -3  -7   5 1670.49 48.9926   2
   3  -7  -5 1703.54 49.5507   2
   3  -7  -5 1749.59 49.6715   9
  -3  -7   5 1614.35 47.9600   5
  -3  -7   5 1623.44 49.0389  12
   3  -7  -5 1735.53 49.3129   6
  -3   7   5 1694.44 48.0488   3
   3   7  -5 1711.63 50.2137   7
  -3   7   5 1626.24 48.9170  12
   3   7  -5 1617.38 48.0156   3
  -3   7   5 1686.17 49.7727  13
  -3   7   5 1705.69 50.6595   8
   1  -7  -5 531.041 18.2274   9
   1  -7  -5 493.009 18.2985  15
  -1  -7   5 510.680 18.4892   2
  -1  -7   5 483.829 18.5490  10
  -1  -7   5 530.083 18.1560  12
   1  -7  -5 517.976 18.7319   6
  -1   7   5 511.846 17.7438   3
  -1   7   5 515.286 17.8485  12
   1   7  -5 510.962 18.7905   7
   1   7  -5 531.855 17.6986   3
  -1   7   5 516.961 18.8574  13
   1   7  -5 441.471 18.4318   1
   1  -7   5 892.953 29.2415   2
  -1  -7  -5 939.698 33.7150  11
  -1  -7  -5 874.322 28.2975  15
   1  -7   5 849.118 30.0415  10
  -1  -7  -5 894.706 29.6137   6
   1  -7   5 883.276 28.4572  12
   1   7   5 890.476 28.4049  12
   1   7   5 886.954 29.8037  13
  -1   7  -5 896.832 29.5952   7
   1   7   5 926.026 29.1836   3
  -3  -7  -5 98.5833 7.61736   6
  -3  -7  -5 94.0781 10.9165  11
   3  -7   5 102.034 7.37913   2
   3  -7   5 108.816 7.36938  12
   3   7   5 107.250 8.30759   3
   3   7   5 104.871 7.24308  12
  -3   7  -5 111.950 8.22740   1
   3   7   5 107.031 7.74442  13
   3   7   5 93.3307 7.75348  14
  -3   7  -5 99.0971 7.52188   7
  -5  -7  -5 380.219 16.5451   6
   5  -7   5 375.789 16.6106  12
  -5  -7  -5 394.585 22.8986  11
   5  -7   5 370.903 16.3005   2
   5  -7   5 392.324 16.4571   4
   5   7   5 380.230 17.2477   3
  -5   7  -5 402.901 18.1919   7
  -5   7  -5 411.687 18.7947   1
   5   7   5 397.536 16.6647  12
   5   7   5 356.540 17.7888  14
 -10  -8   5 65.3785 7.49945   5
  10  -8  -5 78.0827 9.51633   9
  10   8  -5 72.1528 7.25371   4
 -10   8   5 77.0680 8.27325   8
   8  -8  -5 426.796 18.2847   2
  -8  -8   5 399.949 17.5777   5
   8  -8  -5 400.203 18.3995   9
  -8  -8   5 382.531 20.1274  16
   8   8  -5 421.049 16.5734   4
  -8   8   5 384.810 16.9663  13
   8   8  -5 414.140 18.5190   7
   8   8  -5 407.724 19.4002  14
  -8   8   5 401.256 18.0386   8
  -8   8   5 406.588 17.6782   1
   6  -8  -5 285.884 14.2267   9
  -6  -8   5 278.759 12.8322   5
  -6  -8   5 277.911 15.7160  16
   6  -8  -5 295.645 14.0185   2
   6   8  -5 294.363 14.9226  14
  -6   8   5 288.946 13.9892   8
   6   8  -5 285.757 13.8289   7
  -6   8   5 281.918 13.4364  13
   4  -8  -5 251.971 11.8763   2
  -4  -8   5 236.184 10.4623   5
   4  -8  -5 257.533 11.0444   6
   4  -8  -5 246.145 11.8103   9
  -4  -8   5 230.976 12.6468  16
  -4  -8   5 254.678 11.0734   2
   4   8  -5 236.962 10.4320   3
   4   8  -5 242.365 12.7132  14
  -4   8   5 236.084 11.8564   8
  -4   8   5 234.304 10.2455   3
  -4   8   5 228.619 11.1863  12
  -4   8   5 223.882 11.5457  13
   4   8  -5 243.234 12.1440   7
  -2  -8   5 529.463 20.3344  10
  -2  -8   5 587.504 20.8235  12
   2  -8  -5 578.022 19.9798   9
   2  -8  -5 595.429 20.8451   2
  -2  -8   5 591.827 20.9673   2
   2  -8  -5 587.369 21.3395  15
   2  -8  -5 584.425 20.9054   6
  -2   8   5 578.077 21.2706  13
  -2   8   5 593.845 20.1617   3
   2   8  -5 588.679 20.0609   3
  -2   8   5 604.921 20.9256  12
   2   8  -5 589.386 21.4431   7
   0  -8   5 83.0867 6.29780  12
   0  -8  -5 84.0734 6.58272   6
   0  -8   5 89.4839 7.25211   2
   0  -8  -5 81.8765 5.92346  15
   0  -8   5 79.6791 6.30509  10
   0   8  -5 94.2695 6.52482   3
   0   8   5 75.3684 5.99275   3
   0   8  -5 92.6920 6.24537   1
   0   8   5 79.4984 6.85038  13
   0   8   5 79.8227 6.16408  12
   0   8  -5 73.9366 6.25263   7
  -2  -8  -5 236.024 15.7545  11
   2  -8   5 245.048 12.6826   2
   2  -8   5 231.097 11.5306  12
  -2  -8  -5 235.941 12.0961   6
   2   8   5 236.884 12.3679   3
  -2   8  -5 245.887 12.2015   1
  -2   8  -5 259.035 12.8649   7
   2   8   5 241.182 11.9043  12
   2   8   5 246.414 12.6643  13
   4  -8   5 97.3264 8.64478   2
   4  -8   5 95.6817 7.80339  12
  -4  -8  -5 102.203 7.71184   6
  -4  -8  -5 97.4276 12.1078  11
  -4   8  -5 104.526 8.35158   7
   4   8   5 92.1024 8.20781  13
   4   8   5 106.320 9.24166   3
   4   8   5 103.948 7.82380  12
  -4   8  -5 84.3042 8.59328   1
   6  -8   5 11.8246 3.98439  12
   6  -8   5 13.3820 3.46482   4
  -6  -8  -5 9.25760 7.24500  11
   6   8   5 10.5696 3.97002  12
  -6   8  -5 17.3542 5.55274   7
  -6   8  -5 12.4862 4.62915   1
   6   8   5 14.6931 5.51841   3
   9  -9  -5 760.586 29.7201   9
  -9  -9   5 785.936 28.5943   5
   9   9  -5 783.740 26.2930   4
   9   9  -5 768.564 29.6009   7
  -9   9   5 771.816 27.6927   1
  -9   9   5 599.728 30.0343   8
  -7  -9   5 5.93689 3.88226   5
   7  -9  -5 12.5955 4.65406   2
  -7  -9   5 2.22134 4.14433  16
   7  -9  -5 3.23646 3.53890   9
   7   9  -5 7.64153 4.11929  14
  -7   9   5 9.49872 3.78395   8
  -7   9   5 8.67313 3.98090  13
   7   9  -5 3.11607 4.04152   7
   5  -9  -5 1033.78 33.8507   9
  -5  -9   5 958.036 31.3825   2
  -5  -9   5 981.328 32.0249   5
   5  -9  -5 988.100 33.3929   2
   5  -9  -5 1042.85 31.8273   6
  -5  -9   5 954.694 35.2067  16
   5   9  -5 1060.87 34.1916   7
   5   9  -5 953.069 34.3887  14
  -5   9   5 984.911 33.1896  13
  -5   9   5 939.253 30.7399   3
  -5   9   5 1019.93 33.6534   8
  -3  -9   5 14.3990 3.18108   2
   3  -9  -5 11.7114 3.37974   2
   3  -9  -5 18.1877 3.98574  15
   3  -9  -5 11.6040 2.99220   9
   3  -9  -5 11.7971 3.04630   6
   3   9  -5 12.6546 3.97519   7
  -3   9   5 12.5036 3.19829  12
  -3   9   5 8.81757 3.56694   8
  -3   9   5 10.3585 3.10359  13
   3   9  -5 11.9613 3.14353   3
  -3   9   5 9.36823 3.13391   3
   1  -9  -5 1398.54 41.7476   2
   1  -9  -5 1404.26 42.9990   6
  -1  -9   5 1255.75 41.7429  12
  -1  -9   5 1309.02 42.3991   2
   1   9  -5 1362.63 42.8023   7
  -1   9   5 1358.81 43.0154  13
  -1   9   5 1388.42 42.0182   3
  -1   9   5 1347.90 42.3074  12
   1   9  -5 1409.92 41.8725   3
   1  -9   5 138.297 9.81866   2
  -1  -9  -5 136.355 9.42127   6
   1  -9   5 117.788 8.40464  12
   1   9   5 145.454 9.49927   3
  -1   9  -5 144.155 8.95471   3
  -1   9  -5 154.888 9.17669   1
   1   9   5 132.964 8.68931  12
  -1   9  -5 134.867 9.40411   7
   1   9   5 134.386 8.86537  13
  -3  -9  -5 1050.29 41.4284  11
   3  -9   5 1017.91 35.4215   2
   3  -9   5 1035.84 35.0582  12
  -3  -9  -5 1039.27 35.8514   6
   3   9   5 1091.75 35.4050  12
  -3   9  -5 1063.01 36.0663   1
   3   9   5 1038.52 36.0925  13
   3   9   5 1063.25 35.8621   3
  -5  -9  -5 137.018 9.83472   6
   5  -9   5 139.150 9.49993   4
   5  -9   5 135.207 9.26126   2
  -5  -9  -5 154.358 15.2193  11
   5  -9   5 140.894 10.1033  12
  -5   9  -5 150.289 11.4063   1
   5   9   5 146.322 10.0101  12
   5   9   5 151.617 11.3831   3
  -5   9  -5 143.058 10.1224   7
   8 -10  -5 27.5857 5.85347   2
   8 -10  -5 24.7956 5.48500   9
  -8 -10   5 18.0404 4.98571   5
   8  10  -5 21.6460 6.05639   7
  -8  10   5 19.1315 5.71143   1
   6 -10  -5 -0.7199 2.81629   9
   6 -10  -5 -2.0329 3.59291   2
  -6 -10   5 3.00025 3.55345   5
  -6  10   5 -0.0076 3.46321  13
  -6  10   5 0.99825 2.27699   8
   6  10  -5 0.84200 3.61803   7
   6  10  -5 -0.3297 2.10086  14
  -4 -10   5 1.89544 2.79466   2
   4 -10  -5 0.06324 2.91546   2
   4 -10  -5 0.94307 2.06850   6
   4 -10  -5 -2.0721 2.10896   9
  -4 -10   5 1.33635 2.75587   5
  -4  10   5 1.31228 2.70265   3
   4  10  -5 1.10806 2.46425   3
  -4  10   5 -0.4827 2.92001  13
  -4  10   5 4.00565 3.15727   8
   4  10  -5 0.42654 2.27011   7
   2 -10  -5 62.8013 6.21513  15
   2 -10  -5 65.0614 7.08536   6
  -2 -10   5 76.1178 6.61461   2
   2 -10  -5 60.9475 6.16153   2
  -2  10   5 61.3028 6.88521  13
   2  10  -5 59.8671 5.96580   3
   2  10  -5 79.0581 8.01509   7
  -2  10   5 67.7346 7.23761   8
  -2  10   5 68.8703 6.84670   3
  -2  10   5 57.9869 6.30454  12
   0 -10   5 7.89972 3.14005  12
   0 -10   5 1.06595 3.48025   2
   0 -10  -5 3.86354 3.65952   6
   0  10  -5 8.83644 3.25582   7
   0  10   5 6.02789 2.64569  12
   0  10  -5 8.29241 3.41850   3
   0  10   5 9.18609 3.43665   3
   0  10   5 8.29552 3.73019  13
   2 -10   5 45.8459 5.94347  12
   2 -10   5 50.4228 6.93820   2
  -2 -10  -5 51.9957 6.78616   6
   2  10   5 42.2829 7.27598  13
   2  10   5 49.7615 6.12558  12
  -2  10  -5 43.1034 5.88107   1
   2  10   5 45.6690 6.08120   3
  -2  10  -5 43.7546 6.28615   7
  -4 -10  -5 3.81638 6.10675  11
   4 -10   5 3.31280 4.21686   2
  -4 -10  -5 1.76115 3.23103   6
   4 -10   5 2.82457 2.96878  12
   4  10   5 0.55286 4.25825   3
  -4  10  -5 6.38401 3.33991   7
   4  10   5 3.59128 3.04983  12
  -4  10  -5 -0.7272 3.34997   1
  -7 -11   5 277.539 14.6875   5
  -7 -11   5 287.088 15.4310   6
   7 -11  -5 297.915 15.5361   9
   7 -11  -5 286.910 15.3734   2
   7  11  -5 302.199 15.9476   7
  -7  11   5 305.969 15.2614   1
  -5 -11   5 596.863 22.1985   5
   5 -11  -5 642.767 24.1737   2
   5 -11  -5 642.638 24.2486   9
   5  11  -5 618.917 24.2906   7
  -5  11   5 500.167 23.1712   8
   3 -11  -5 464.845 19.2571   2
  -3 -11   5 447.727 18.6630   2
   3 -11  -5 468.171 18.9692   6
   3  11  -5 439.962 18.9292   7
  -3  11   5 444.776 19.0364  13
   3  11  -5 451.127 18.1710   3
  -3  11   5 434.657 17.9731   3
  -3  11   5 427.353 19.2816   8
   1 -11  -5 384.459 17.5536   6
  -1 -11   5 382.543 17.4713   2
   1  11  -5 370.167 16.3467   3
  -1  11   5 372.150 17.0826  12
  -1  11   5 371.923 17.3894  13
  -1  11   5 377.863 16.4536   3
  -1  11   5 374.709 17.8274   8
   1 -11   5 230.660 13.6194   2
  -1 -11  -5 226.921 13.6750   6
   1  11   5 250.136 13.9476   3
  -1  11  -5 245.857 12.7852   7
   1  11   5 227.972 12.9532  12
  -1  11  -5 230.735 12.6587   3
   3 -11   5 86.9764 9.29690   2
  -3 -11  -5 77.3185 8.24689   6
   3  11   5 70.4106 8.70817   3
   3  11   5 79.1860 7.77979  12
  -6 -12   5 85.7485 9.19053   6
   6 -12  -5 84.2795 7.92829   9
   6 -12  -5 93.7509 8.35690   2
  -4 -12   5 127.774 9.85141   6
   4  12  -5 127.065 10.0207   7
  -4  12   5 131.615 9.41504   3
  -2 -12   5 17.4788 4.73943   2
   2 -12  -5 19.2742 5.03819   6
   2 -12  -5 21.0525 4.18899   2
  -2  12   5 19.4883 4.66361   8
   2  12  -5 22.2082 4.46921   7
   2  12  -5 22.5143 4.49363   3
  -2  12   5 13.5113 3.61028   3
   0 -12  -5 184.885 12.4584   6
   0 -12   5 184.281 12.2631   2
   0  12  -5 210.709 14.4148   7
   0  12   5 172.502 11.3810  12
   0  12  -5 184.984 11.2080   3
   0  12   5 191.073 12.3297   3
  -2 -12  -5 23.3321 5.48080   6
   2 -12   5 20.4618 5.71536   2
   2  12   5 18.6059 4.41016  12
   2  12   5 30.5780 6.44026   3
   3 -13  -5 365.321 17.2364   2
   3  13  -5 375.527 16.7119   3
  -1 -13   5 27.5001 5.43248   2
   1 -13  -5 22.9715 5.78381   6
  -1  13   5 31.4605 6.24272   3
   1  13  -5 24.8593 4.36744   3
 -12   0   6 3.02845 5.74197  11
 -12   0   6 6.98139 4.95742   8
  12   0  -6 8.69722 3.59872   4
 -10   0   6 1370.06 44.4495   8
  10   0  -6 1400.21 42.8304   4
 -10   0   6 1403.03 47.4349  11
 -10   0   6 1324.75 45.9276  16
  10   0  -6 1382.84 42.5941   9
  -8   0   6 120.553 7.07887  12
  -8   0   6 129.628 9.03786  16
  -8   0   6 130.235 7.82430   5
  -8   0   6 119.202 8.23159   8
   8   0  -6 116.975 6.83581  15
   8   0  -6 119.581 7.14162   4
   8   0  -6 127.258 7.65141   9
  -6   0   6 4008.51 109.324   8
   6   0  -6 3937.45 108.861  15
  -6   0   6 3996.91 111.679  16
  -6   0   6 4030.72 109.081   5
   6   0  -6 3937.46 108.037   4
   6   0  -6 3993.81 109.447   9
  -6   0   6 3887.71 108.392  12
   4   0  -6 23.9875 2.35145   7
   4   0  -6 28.9546 2.38735   4
  -4   0   6 24.6485 2.34327  12
   4   0  -6 30.0914 3.44330  15
  -4   0   6 27.8495 2.00211  13
  -4   0   6 37.7933 3.21090   5
  -4   0   6 38.6818 4.63339  16
   4   0  -6 31.4469 3.53659   9
  -4   0   6 43.7638 3.58433   8
   2   0  -6 7542.80 205.180   7
  -2   0   6 7763.24 206.467  12
  -2   0   6 7801.94 206.226  12
  -2   0   6 7715.42 207.576  13
  -2   0   6 7797.30 205.659   8
   2   0  -6 7797.67 206.917  15
   2   0  -6 7518.92 206.528   1
  -2   0   6 7817.55 213.918  16
   2   0  -6 7499.76 206.331   9
   2   0  -6 7712.42 205.680   6
   0   0  -6 182.574 8.56453  15
   0   0  -6 167.856 7.29202   1
   0   0  -6 162.616 7.42980   7
   0   0   6 179.104 7.95427  10
   0   0  -6 186.967 7.36101   6
   0   0  -6 170.237 7.70622   9
   0   0  -6 179.818 8.63629  11
   2   0   6 4436.98 121.543  10
  -2   0  -6 4537.07 122.627  15
  -2   0  -6 4216.48 123.928  11
  -2   0  -6 4520.23 121.482   7
  -2   0  -6 4418.02 121.743   1
   4   0   6 71.7844 6.01327   4
   4   0   6 62.4861 6.22486  14
  -4   0  -6 61.4654 6.48103   1
  -4   0  -6 51.2124 7.43633  11
   4   0   6 61.8639 6.71071  10
   4   0   6 67.6334 4.20490  12
   6   0   6 1086.27 33.5485  12
  -6   0  -6 1061.86 41.2553  11
  -6   0  -6 1074.24 37.0264   1
   6   0   6 1080.11 34.6654   4
   6   0   6 1005.98 37.6996  14
 -11  -1   6 13.7814 3.78930   5
 -11  -1   6 6.98151 3.24242  16
  11  -1  -6 11.2182 3.14946   4
 -11  -1   6 16.1355 6.18553  11
 -11  -1   6 14.3799 4.96979   8
 -11   1   6 12.9483 4.24456   8
  11   1  -6 6.34377 3.34666   4
 -11   1   6 19.8104 6.72802  11
 -11   1   6 7.79370 3.26031   5
  -9  -1   6 175.283 9.42904   5
   9  -1  -6 166.535 9.29908  15
  -9  -1   6 177.949 10.4541   8
  -9  -1   6 169.694 11.8846  16
   9  -1  -6 171.325 9.77201   9
  -9  -1   6 174.542 11.1516  11
   9  -1  -6 174.714 9.23087   4
  -9   1   6 188.472 9.73570   5
   9   1  -6 181.351 9.30342   9
  -9   1   6 172.730 10.8413   8
   9   1  -6 177.492 9.51653   4
  -9   1   6 177.902 11.3076  16
   7  -1  -6 324.419 13.1242   9
  -7  -1   6 314.358 13.0110   8
  -7  -1   6 315.303 14.7004  16
   7  -1  -6 321.578 12.0292   4
  -7  -1   6 307.913 12.3479  12
   7  -1  -6 326.677 13.0249  15
  -7  -1   6 313.630 12.9678   5
  -7   1   6 326.562 13.6160   8
   7   1  -6 328.332 12.3959  14
   7   1  -6 311.731 11.9131  15
  -7   1   6 321.709 14.6056  16
  -7   1   6 315.463 12.5207  12
   7   1  -6 324.263 12.3371   4
   7   1  -6 316.234 12.7635   9
  -7   1   6 310.184 12.7585   5
  -7   1   6 324.817 11.3244  13
  -5  -1   6 31.9108 3.51541   5
   5  -1  -6 31.4186 2.82179   4
  -5  -1   6 28.2019 4.29453  16
  -5  -1   6 30.5438 3.43937   8
   5  -1  -6 25.6525 2.31449   7
   5  -1  -6 29.3795 3.51243  15
   5  -1  -6 28.6310 3.44246   9
  -5   1   6 32.8815 2.99545  12
   5   1  -6 29.0127 2.87963   4
   5   1  -6 29.4583 2.70168  14
  -5   1   6 27.8779 3.97084  16
   5   1  -6 31.3570 3.56843   9
  -5   1   6 32.4601 3.71795   8
  -5   1   6 29.4679 3.49439   5
   5   1  -6 30.3287 2.97922  15
  -5   1   6 28.0066 2.41144  13
   5   1  -6 34.2147 3.50969   7
   3  -1  -6 995.684 30.5476  15
   3  -1  -6 952.521 28.2843   7
  -3  -1   6 1017.82 29.5457   5
   3  -1  -6 1005.50 29.5199   6
  -3  -1   6 988.171 28.9948   8
  -3  -1   6 1012.22 28.1798  12
  -3  -1   6 971.366 27.1107  13
  -3  -1   6 1008.94 31.2813  16
   3  -1  -6 991.460 30.0782   9
  -3   1   6 1005.06 29.9001   8
  -3   1   6 1014.51 28.0802  12
  -3   1   6 1030.07 31.9537  16
   3   1  -6 970.710 30.0331  15
  -3   1   6 1034.43 28.4897  13
   3   1  -6 1000.01 30.2339   9
   3   1  -6 948.695 29.2178   7
   1  -1  -6 48.2674 3.23514   1
   1  -1  -6 47.6607 3.59647   6
   1  -1  -6 42.5707 3.04774   7
   1  -1  -6 47.2416 3.64891   9
   1  -1  -6 40.2073 3.99599  11
   1  -1  -6 45.6894 3.96253  15
  -1  -1   6 50.1114 4.00204  16
   1   1  -6 48.4397 4.20985  15
  -1   1   6 49.3491 3.29317  13
   1   1  -6 46.1698 3.42381  11
   1   1  -6 49.6431 2.96457   1
   1   1  -6 42.7789 3.72469   9
   1   1  -6 47.6361 3.44165   7
   1   1  -6 44.4105 3.05315   6
  -1  -1  -6 240.145 9.28284   9
  -1  -1  -6 240.524 11.5278  11
  -1  -1  -6 249.118 9.28577   6
  -1  -1  -6 249.068 10.6361  15
  -1  -1  -6 230.599 9.48463   7
  -1  -1  -6 239.139 9.89192   1
   1  -1   6 225.344 10.1090  10
  -1   1  -6 201.793 10.2819  11
  -1   1  -6 235.308 10.0346   7
  -1   1  -6 236.964 9.87954   1
   1   1   6 247.838 9.84422  10
  -1   1  -6 206.894 8.28109   6
  -1   1  -6 226.819 9.76797   9
  -1   1  -6 256.676 10.9687  15
  -3  -1  -6 203.014 10.4313   1
  -3  -1  -6 212.586 10.6055  15
   3  -1   6 212.336 10.4181  10
  -3  -1  -6 190.035 12.2205  11
   3  -1   6 206.191 7.40437  12
  -3   1  -6 212.375 10.6619   1
   3   1   6 213.271 11.1780  14
  -3   1  -6 197.825 10.3700   7
   3   1   6 212.438 7.11418  12
  -3   1  -6 197.225 11.5287  11
   3   1   6 205.301 9.14235   4
   3   1   6 192.489 9.26516  10
  -5  -1  -6 6.33523 2.95040   1
  -5  -1  -6 8.81914 4.61723  11
   5  -1   6 5.88422 3.90976  14
   5  -1   6 8.18991 3.46794   4
   5  -1   6 7.04302 2.70070  12
   5   1   6 8.30708 3.33284  14
  -5   1  -6 4.52524 3.06884  11
  -5   1  -6 6.73324 3.85135   1
   5   1   6 9.02565 2.71289   4
   5   1   6 5.63393 2.36045  12
   7  -1   6 102.692 7.95033  12
   7  -1   6 88.9349 7.49103   4
  -7  -1  -6 80.8828 11.1030  11
  -7  -1  -6 82.8452 9.05339   1
   7   1   6 89.0760 7.24296  12
  -7   1  -6 91.8831 9.50206   1
  -7   1  -6 96.2638 11.2074  11
   7   1   6 92.3094 7.24277   4
 -12  -2   6 372.547 16.7712   5
 -12  -2   6 363.682 18.2833   8
  12  -2  -6 358.724 16.0911   4
 -12   2   6 381.758 18.6690   8
  12   2  -6 396.763 17.3700   4
 -12   2   6 368.626 22.3005  11
 -10  -2   6 662.875 24.6640   8
 -10  -2   6 635.784 26.8506  16
  10  -2  -6 661.124 22.9646   4
 -10  -2   6 663.174 23.8596   5
  10  -2  -6 651.833 24.0083   9
 -10   2   6 657.259 25.2395   8
 -10   2   6 635.632 27.5845  11
 -10   2   6 621.594 22.7477   5
  10   2  -6 659.823 23.6859   4
  -8  -2   6 1230.85 38.0572   5
  -8  -2   6 1232.82 41.3920  16
  -8  -2   6 1203.85 39.2461  11
  -8  -2   6 1241.67 38.1560   8
   8  -2  -6 1261.15 38.8277   9
   8  -2  -6 1235.90 36.8389   4
  -8   2   6 1243.92 37.6798   5
  -8   2   6 1203.85 36.4149  13
   8   2  -6 1185.56 37.7535  14
  -8   2   6 1244.44 39.2261   8
   8   2  -6 1218.79 37.4275   4
  -8   2   6 1200.28 40.1200  16
   8   2  -6 1248.64 37.2965   9
  -8   2   6 1218.75 37.6531  12
  -6  -2   6 1831.67 53.7950   8
  -6  -2   6 1863.55 53.8289  12
   6  -2  -6 1899.52 55.1897  15
  -6  -2   6 1902.94 54.4799   5
   6  -2  -6 1878.58 52.8730   4
  -6  -2   6 1931.81 57.1556  16
   6  -2  -6 1837.58 54.8664   9
  -6   2   6 1946.14 55.2584   8
  -6   2   6 1918.04 53.8102  12
  -6   2   6 1911.36 54.2161   5
   6   2  -6 1874.01 54.0844  14
  -6   2   6 1854.24 52.8860  13
   6   2  -6 1862.46 53.0730  15
  -6   2   6 1944.39 56.9415  16
   6   2  -6 1901.26 54.3506   9
   6   2  -6 1872.14 53.5768   4
   4  -2  -6 1535.58 45.2723  15
  -4  -2   6 1551.62 43.4055  12
  -4  -2   6 1564.90 44.2739   5
   4  -2  -6 1539.38 44.0515   6
  -4  -2   6 1545.80 46.3004  16
  -4  -2   6 1519.60 43.3371   8
   4  -2  -6 1520.43 42.5952   4
   4  -2  -6 1527.71 44.8837   9
  -4   2   6 1605.56 43.4001  13
  -4   2   6 1549.04 43.3276  12
   4   2  -6 1494.14 43.5200   4
  -4   2   6 1494.76 46.3889  16
  -4   2   6 1546.46 44.9975   8
   4   2  -6 1559.94 44.8921   9
   4   2  -6 1578.58 44.2863  15
   4   2  -6 1503.83 44.3124   7
  -2  -2   6 1509.48 40.5821   8
   2  -2  -6 1383.79 42.0968   9
   2  -2  -6 1412.56 43.0207  15
  -2  -2   6 1522.94 43.1834  16
   2  -2  -6 1481.83 42.1459   6
  -2  -2   6 1548.61 41.5693   5
   2  -2  -6 1353.16 40.2841   7
  -2   2   6 1479.87 39.8018  12
  -2   2   6 1465.91 39.8020  12
  -2   2   6 1513.32 41.5852  13
   2   2  -6 1517.60 42.3428   7
   2   2  -6 1463.13 42.7405   9
   2   2  -6 1449.51 42.6123  15
  -2   2   6 1402.74 40.3616   3
   0  -2   6 733.392 23.6887  10
   0  -2   6 708.480 22.6600  16
   0  -2   6 737.796 20.1321  12
   0  -2  -6 727.458 22.7106   6
   0  -2  -6 741.240 23.9850  15
   0  -2  -6 707.536 25.1197  11
   0  -2  -6 727.512 22.3986   9
   0  -2  -6 719.610 22.7109   1
   0  -2  -6 726.115 21.8962   7
   0  -2   6 705.563 21.3949   5
   0  -2   6 724.707 20.0039  12
   0   2  -6 736.466 24.0323  15
   0   2  -6 697.661 22.2518   1
   0   2   6 732.875 22.2980  10
   0   2  -6 744.307 23.3132   7
   0   2  -6 711.022 23.1557   9
   2  -2   6 383.128 15.7358  10
   2  -2   6 389.512 14.1976   2
  -2  -2  -6 386.981 14.1173   6
  -2  -2  -6 416.190 15.8790  15
  -2  -2  -6 400.701 15.2577   1
   2  -2   6 441.104 12.6007  12
  -2  -2  -6 465.131 18.6667  11
  -2   2  -6 362.538 15.7497  11
   2   2   6 370.807 15.1489  10
  -2   2  -6 378.572 15.2306   1
   2   2   6 403.514 11.1990  12
   2   2   6 431.680 15.9246  14
  -2   2  -6 406.640 15.7242   7
  -4  -2  -6 477.743 22.5630  11
   4  -2   6 474.322 15.9382  12
  -4  -2  -6 459.831 19.0054   1
  -4   2  -6 489.297 18.9933   7
  -4   2  -6 483.368 19.2646   1
   4   2   6 477.067 17.0152   4
  -4   2  -6 449.590 20.5894  11
   4   2   6 460.732 19.5304  14
   4   2   6 477.521 15.6135  12
  -6  -2  -6 203.006 15.8624  11
  -6  -2  -6 207.921 12.7928   1
   6  -2   6 205.884 11.7083   4
   6  -2   6 221.172 10.8133  12
  -6   2  -6 133.373 15.7415  11
   6   2   6 188.485 9.59730  12
   6   2   6 186.225 10.4353   4
  -6   2  -6 215.268 13.0292   1
 -11  -3   6 47.3276 6.31976   5
  11  -3  -6 65.0337 7.54759   9
  11  -3  -6 53.6939 5.63878   4
 -11  -3   6 56.6537 7.40501   8
  11   3  -6 61.8150 6.92329   4
 -11   3   6 72.6546 8.45246   8
 -11   3   6 67.7931 10.4275  11
  -9  -3   6 10.2231 3.03959   5
  -9  -3   6 14.1407 4.56412  16
   9  -3  -6 16.1253 2.99827   4
  -9  -3   6 10.4901 3.04210   8
   9  -3  -6 7.66725 3.00139   9
  -9   3   6 13.7746 3.16348  13
   9   3  -6 10.3491 3.26204   4
  -9   3   6 5.04513 2.60002   5
  -9   3   6 13.0447 4.39627   8
   9   3  -6 12.4121 3.40335  14
  -9   3   6 12.3443 3.72777  16
  -7  -3   6 14.5329 2.78617  12
   7  -3  -6 14.5916 3.56882   9
  -7  -3   6 12.3358 2.86647   8
   7  -3  -6 17.5242 2.53886   4
  -7  -3   6 14.4885 3.03794   5
  -7  -3   6 11.6305 3.92271  16
   7   3  -6 19.2514 3.16013   4
  -7   3   6 12.2583 2.63980  12
  -7   3   6 12.6957 2.91823   5
   7   3  -6 12.2944 2.58766   9
  -7   3   6 15.0775 2.80049  13
   7   3  -6 16.0922 2.91707  14
  -7   3   6 18.0129 3.55594   8
  -7   3   6 13.7395 3.69846  16
   5  -3  -6 306.898 11.4871   6
  -5  -3   6 306.597 11.4411  12
   5  -3  -6 283.271 9.99586   4
  -5  -3   6 305.266 12.0352   5
   5  -3  -6 306.057 12.8847  15
  -5  -3   6 315.798 13.9980  16
   5  -3  -6 308.772 12.5091   9
  -5  -3   6 294.313 10.9499   8
  -5   3   6 315.975 12.6999   8
  -5   3   6 306.146 13.7337  16
   5   3  -6 314.041 12.2884  14
   5   3  -6 303.686 12.2933   7
  -5   3   6 320.125 11.6853  12
   5   3  -6 301.534 11.9398   9
  -5   3   6 310.002 11.3039  13
   5   3  -6 311.644 11.5419   4
   5   3  -6 295.942 10.8135  15
  -3  -3   6 9.67889 2.08334   5
   3  -3  -6 23.7543 3.41240  15
  -3  -3   6 8.50312 2.55311  16
   3  -3  -6 12.4027 2.20159   9
   3  -3  -6 10.6810 2.06289   6
  -3  -3   6 10.8831 1.79121  12
  -3   3   6 12.0577 2.24540  13
   3   3  -6 9.09791 2.00245  15
   3   3  -6 22.3408 3.08007   7
   3   3  -6 10.7948 2.14024   9
  -3   3   6 12.3697 1.71109  12
  -3   3   6 13.7895 2.58058   8
   1  -3  -6 262.808 10.3316   6
   1  -3  -6 240.313 10.7095  15
  -1  -3   6 254.114 8.47018  12
   1  -3  -6 246.658 9.69395   9
  -1  -3   6 242.299 8.82979   5
   1  -3  -6 245.498 11.8963  11
  -1  -3   6 242.700 9.96568  16
   1   3  -6 267.404 10.4931   7
   1   3  -6 258.127 10.5964  15
  -1   3   6 251.338 9.33177   3
  -1   3   6 251.229 7.74943  12
  -1   3   6 250.882 7.68099  12
  -1   3   6 247.286 9.81540  13
  -1   3   6 242.280 8.95150  14
   1   3  -6 252.440 10.5655   9
  -1  -3  -6 23.4187 3.30765   1
  -1  -3  -6 26.7515 3.76531  15
   1  -3   6 24.7481 3.80633  10
  -1  -3  -6 31.3256 3.43432   6
  -1  -3  -6 24.6096 4.70197  11
   1  -3   6 31.9133 2.36745  12
   1  -3   6 29.0445 3.56153   2
  -1   3  -6 29.7700 4.05601   7
   1   3   6 24.3311 3.51613  14
   1   3   6 28.1979 1.50584  12
   1   3   6 28.2553 1.58784  12
  -1   3  -6 21.2016 3.12190   1
  -3  -3  -6 0.48265 2.49463   1
  -3  -3  -6 -0.3422 2.11266  11
   3  -3   6 0.42299 1.94659   2
  -3  -3  -6 0.49242 1.86632  15
   3  -3   6 0.30888 1.30952  12
   3  -3   6 6.97509 2.93432  10
  -3  -3  -6 1.78973 1.60182   6
  -3   3  -6 0.19229 2.17994   1
  -3   3  -6 -1.4238 1.66816   7
   3   3   6 1.73661 2.80054  14
   3   3   6 -0.9572 1.54669   4
   3   3   6 1.70544 1.32214  12
   5  -3   6 60.4241 5.39364  12
   5  -3   6 45.6858 5.84857   4
  -5  -3  -6 54.9552 6.96562   1
  -5  -3  -6 48.4574 8.44719  11
   5   3   6 57.7544 7.46483  14
   5   3   6 57.7700 5.35662  12
  -5   3  -6 58.7317 6.74042   7
  -5   3  -6 47.6979 6.70667   1
   7  -3   6 8.43562 3.57486   4
   7  -3   6 11.7792 4.06887  12
  -7  -3  -6 12.1172 5.19044  11
  -7  -3  -6 7.54198 4.69315   1
   7   3   6 17.2550 4.36905  12
  -7   3  -6 5.41666 4.46774   1
 -12  -4   6 431.460 18.6967   5
 -12   4   6 448.914 25.3232  11
  12   4  -6 438.000 18.7866   4
 -12   4   6 446.880 20.3703   8
 -10  -4   6 32.6964 4.87155   8
 -10  -4   6 38.6009 6.42500  16
 -10  -4   6 27.4177 4.88761   5
  10  -4  -6 29.6954 5.55383   9
 -10   4   6 31.9551 6.03589   8
  10   4  -6 34.7622 4.80109   4
  -8  -4   6 819.865 27.8003   8
  -8  -4   6 827.098 28.3156   5
  -8  -4   6 842.262 31.6573  16
   8  -4  -6 833.636 29.1082   9
   8   4  -6 853.130 27.8925   4
  -8   4   6 861.238 27.5206   5
  -8   4   6 869.895 30.1694  16
  -8   4   6 839.945 29.2414   8
   8   4  -6 859.466 29.2708  14
  -8   4   6 861.423 27.4588  13
   6  -4  -6 141.907 8.29543   9
  -6  -4   6 128.885 7.30369   5
  -6  -4   6 133.775 9.05440  16
  -6  -4   6 121.709 6.39926   8
   6  -4  -6 131.904 6.79617   6
  -6  -4   6 119.376 6.87571  12
  -6   4   6 133.082 7.08234   5
   6   4  -6 127.547 7.77480  14
  -6   4   6 143.578 7.38200  12
   6   4  -6 133.350 6.97194   9
   6   4  -6 130.056 7.15964   4
  -6   4   6 132.586 8.26737   8
  -6   4   6 129.727 6.78813  13
  -6   4   6 130.034 8.66179  16
   6   4  -6 117.746 7.31368   7
   4  -4  -6 2250.94 64.9978   6
  -4  -4   6 2435.71 65.1550   5
  -4  -4   6 2398.50 67.4063  16
   4  -4  -6 2288.25 65.9763   9
  -4  -4   6 2272.03 64.5399  12
   4  -4  -6 2293.21 66.7117  15
   4   4  -6 2348.26 65.5164   9
  -4   4   6 2203.55 64.6844  13
   4   4  -6 2296.47 64.1834  15
   4   4  -6 2433.85 66.1579   7
  -4   4   6 2279.10 66.3118   8
   4   4  -6 2381.36 66.0206  14
  -4   4   6 2238.22 64.5283  12
  -2  -4   6 654.851 19.9277  12
   2  -4  -6 653.016 21.1580   6
  -2  -4   6 635.481 21.3410  16
   2  -4  -6 625.614 21.7620  15
  -2  -4   6 631.361 19.8132   5
   2  -4  -6 635.580 20.7691   9
   2   4  -6 651.124 21.0750  15
   2   4  -6 650.018 21.5153   9
   2   4  -6 645.893 21.3938   7
  -2   4   6 654.715 19.5725  12
  -2   4   6 636.344 19.5603   3
  -2   4   6 653.777 20.8751  13
   0  -4  -6 2976.31 82.2326   9
   0  -4   6 2991.30 83.3666   2
   0  -4   6 3065.39 81.7310  12
   0  -4  -6 2998.98 87.2422  11
   0  -4  -6 2985.70 84.2844  15
   0  -4   6 3019.98 84.9244  10
   0  -4  -6 2936.45 83.5773   6
   0   4   6 2977.63 82.5427  14
   0   4  -6 2889.08 82.6327   1
   0   4   6 3032.23 83.9048  13
   0   4   6 3141.72 83.2460   3
   0   4   6 3008.66 80.8619  12
   0   4  -6 2948.61 83.9840   7
  -2  -4  -6 427.470 16.2291  15
  -2  -4  -6 422.317 16.6790   1
   2  -4   6 431.613 14.5003  12
   2  -4   6 424.633 15.7591   2
   2  -4   6 411.928 17.2960  10
  -2  -4  -6 427.822 19.8668  11
  -2  -4  -6 417.452 15.8021   6
   2   4   6 424.995 13.6991  12
  -2   4  -6 443.693 16.4467   1
   2   4   6 422.386 16.5388  14
  -2   4  -6 425.691 16.6765   7
  -4  -4  -6 1503.83 46.4814   1
   4  -4   6 1444.53 43.3873  12
  -4  -4  -6 1535.74 51.5825  11
  -4   4  -6 1424.42 46.1714   1
   4   4   6 1396.98 46.2990  14
   4   4   6 1524.21 42.9904  12
  -4   4  -6 1427.76 46.2210   7
   6  -4   6 73.8474 7.16530   4
  -6  -4  -6 77.9894 11.4503  11
   6  -4   6 65.1000 6.59278  12
  -6  -4  -6 65.7199 8.07114   1
   6   4   6 65.0803 6.21136  12
  -6   4  -6 55.0092 7.75110   1
  11  -5  -6 54.2679 6.90563   9
 -11  -5   6 51.7216 6.14349   5
  11   5  -6 53.0941 6.67998   4
 -11   5   6 58.8794 7.18433   8
 -11   5   6 69.7414 11.2381  11
  -9  -5   6 9.57254 3.91045   5
  -9  -5   6 6.00749 4.06138  16
  -9  -5   6 11.8162 3.57540   8
   9  -5  -6 6.88382 3.91806   9
   9   5  -6 15.3771 3.87470   4
  -9   5   6 15.0829 3.23807  13
   9   5  -6 12.6808 3.80380  14
  -9   5   6 11.3593 3.71524   8
   7  -5  -6 2.54732 1.90491   6
   7  -5  -6 5.30205 2.44607   9
  -7  -5   6 1.93242 1.87301   8
  -7   5   6 2.17405 2.02486   5
  -7   5   6 4.46898 2.26263  12
  -7   5   6 -1.5094 2.86709   8
  -7   5   6 4.92600 2.56199   1
   7   5  -6 0.44362 1.70380   4
   7   5  -6 2.05222 1.97430  14
  -7   5   6 -0.5186 2.42017  13
  -7   5   6 2.57116 2.62201  16
   5  -5  -6 105.079 6.82350   9
  -5  -5   6 122.578 7.17525   5
  -5  -5   6 110.821 6.44411  12
  -5  -5   6 106.710 7.83583  16
   5  -5  -6 99.5226 5.94395   6
  -5   5   6 113.437 8.17536  16
  -5   5   6 112.998 7.60294   8
   5   5  -6 120.031 7.41450  14
  -5   5   6 101.475 6.55364  13
   5   5  -6 117.142 7.55166   7
  -5   5   6 115.253 6.62495  12
   5   5  -6 107.990 6.08603   9
  -3  -5   6 22.8570 2.80863   5
   3  -5  -6 23.4829 3.82632  15
   3  -5  -6 27.3016 3.53156   9
  -3  -5   6 35.7823 3.67046  12
  -3  -5   6 24.3931 3.95295  16
   3  -5  -6 25.4917 3.68017   6
  -3   5   6 39.2105 4.85214   8
   3   5  -6 23.5289 3.47235   9
   3   5  -6 26.3312 2.59471   3
  -3   5   6 22.8863 3.19693  13
  -3   5   6 25.2564 2.66311   3
  -3   5   6 26.9068 3.12732  12
   3   5  -6 26.3725 3.64970   7
   1  -5  -6 99.5536 6.59825  15
  -1  -5   6 116.345 6.71589   2
  -1  -5   6 103.310 6.73078  10
  -1  -5   6 97.8696 5.43023  12
   1  -5  -6 103.855 5.54952   9
   1  -5  -6 111.577 6.45968   6
  -1   5   6 96.7739 5.09451  12
   1   5  -6 96.5666 6.38670   7
  -1   5   6 97.8405 6.21481  13
  -1   5   6 97.0981 5.61491   3
   1  -5   6 11.0447 3.06477   2
  -1  -5  -6 24.0825 3.84468   6
  -1  -5  -6 14.7765 2.94386  15
   1  -5   6 12.4750 3.24934  10
   1  -5   6 8.80446 2.17384  12
  -1  -5  -6 14.2557 4.40687  11
  -1   5  -6 13.5874 3.02509   7
   1   5   6 11.2321 2.44368  14
   1   5   6 11.7008 3.05869   3
   1   5   6 11.6493 2.20497  12
   1   5   6 19.4554 3.71824  13
  -1   5  -6 11.1694 2.61264   1
   3  -5   6 19.6683 3.58929   2
   3  -5   6 19.9075 3.29392  12
  -3  -5  -6 23.7644 6.19595  11
  -3  -5  -6 16.1972 3.32899   6
  -3  -5  -6 10.5210 3.86306   1
   3   5   6 15.7424 3.57706   3
  -3   5  -6 18.1892 3.89123   1
  -3   5  -6 25.4775 4.56198   7
   3   5   6 17.4879 4.11043  14
   3   5   6 12.9260 2.72035  12
  -5  -5  -6 92.7941 11.8289  11
   5  -5   6 72.7795 6.54257  12
   5  -5   6 70.1885 7.35336   4
  -5  -5  -6 93.0112 9.06052   1
  -5   5  -6 86.5743 8.80316   7
   5   5   6 80.2855 6.40236  12
  -5   5  -6 71.2272 7.93756   1
   5   5   6 66.8284 8.21013  14
   5   5   6 84.8325 8.46848   3
 -10  -6   6 924.412 33.2808   5
  10  -6  -6 982.190 34.6918   9
  10   6  -6 989.964 32.8408   4
 -10   6   6 973.514 34.6249   8
   8  -6  -6 232.242 12.8349   9
  -8  -6   6 204.775 13.7991  16
  -8  -6   6 205.413 10.9457   5
  -8   6   6 180.873 10.1755   1
  -8   6   6 212.875 10.6634  13
  -8   6   6 225.666 12.5740   8
   8   6  -6 211.325 12.2623  14
   8   6  -6 199.658 10.7298   4
   6  -6  -6 2116.40 62.3959   9
   6  -6  -6 2081.54 59.7163   6
  -6  -6   6 2141.75 60.9048   5
  -6  -6   6 2054.56 59.4092   2
  -6  -6   6 2147.77 64.3147  16
  -6  -6   6 2008.18 60.5646  12
  -6   6   6 2013.20 60.6867  12
  -6   6   6 1998.10 60.5067  13
  -6   6   6 2072.47 62.1729   8
   6   6  -6 2160.20 60.2147   4
   6   6  -6 2179.34 62.9838  14
  -6   6   6 2025.92 62.8546  16
   6   6  -6 2159.66 62.2822   7
   6   6  -6 2119.54 59.7371   9
  -4  -6   6 256.826 10.7379   5
  -4  -6   6 269.192 11.3493  12
   4  -6  -6 264.208 11.8077   9
   4  -6  -6 255.097 12.2341  15
   4  -6  -6 266.571 11.2933   6
  -4  -6   6 260.567 10.8233   2
  -4  -6   6 244.289 12.1309  16
  -4   6   6 229.408 11.0876  13
   4   6  -6 244.653 11.8713   7
  -4   6   6 252.655 11.9639   8
  -4   6   6 257.507 10.9669  12
   4   6  -6 257.983 11.1172   9
   2  -6  -6 1729.08 51.5331   9
  -2  -6   6 1935.04 52.8296   2
  -2  -6   6 1698.43 50.2250   5
  -2  -6   6 1764.30 51.5213  12
   2  -6  -6 1855.67 52.7764   6
   2  -6  -6 1806.28 53.3980  15
  -2  -6   6 1717.56 52.8276  10
  -2   6   6 1801.27 51.2763  12
  -2   6   6 1781.74 52.4048  13
  -2   6   6 1788.18 50.9099   3
   2   6  -6 1806.60 50.8033   3
   2   6  -6 1801.73 53.0537   7
   0  -6  -6 102.649 6.67863  15
   0  -6   6 85.9744 5.55987  12
   0  -6   6 75.6315 6.12952  10
   0  -6  -6 85.1487 6.56219   6
   0  -6  -6 89.8194 8.65529  11
   0  -6   6 90.6300 6.87933   2
   0   6   6 85.5110 5.53267  12
   0   6   6 76.0407 6.49436  13
   0   6  -6 91.1768 7.04531   7
   0   6   6 90.0624 6.32563   3
  -2  -6  -6 870.903 29.0326  15
  -2  -6  -6 921.474 34.8335  11
  -2  -6  -6 903.851 29.7982   6
   2  -6   6 885.618 28.4013  12
   2  -6   6 868.166 29.3703   2
  -2   6  -6 912.304 30.5197   7
   2   6   6 885.806 30.2519  13
   2   6   6 902.551 27.9850  12
   2   6   6 869.948 29.5940   3
  -4  -6  -6 43.4043 8.40481  11
   4  -6   6 48.2917 5.86755   2
  -4  -6  -6 38.7644 5.14277   6
   4  -6   6 42.4098 5.09995  12
  -4   6  -6 45.7074 6.61942   7
   4   6   6 47.6009 6.53414  13
   4   6   6 44.7589 5.12680  12
  -4   6  -6 47.7129 6.36405   1
   4   6   6 50.1444 6.68141   3
   4   6   6 41.1913 5.71083  14
   6  -6   6 450.288 19.1514  12
  -6  -6  -6 527.420 26.6935  11
   6   6   6 456.185 20.3882   3
  -6   6  -6 502.735 22.1152   1
   6   6   6 491.364 19.5165  12
 -11  -7   6 128.268 11.1625   5
  11   7  -6 123.885 11.0458   4
 -11   7   6 141.300 10.7414   8
  -9  -7   6 129.197 9.16094   5
   9  -7  -6 122.970 10.4055   9
   9   7  -6 116.180 9.87824   7
   9   7  -6 132.058 9.84189  14
   9   7  -6 139.248 9.17295   4
  -9   7   6 109.543 8.88975  13
  -9   7   6 142.297 10.5847   8
   7  -7  -6 193.728 11.5470   9
  -7  -7   6 194.968 13.2010  16
  -7  -7   6 194.633 10.8866   5
  -7   7   6 186.198 10.5488  13
   7   7  -6 191.489 11.7226  14
   7   7  -6 190.818 11.6227   7
   7   7  -6 187.872 9.92800   4
  -7   7   6 179.843 11.1892   8
  -7   7   6 168.447 9.03687   5
  -7   7   6 180.370 16.0744  16
  -5  -7   6 478.444 17.6104   5
  -5  -7   6 445.515 19.3906  16
  -5  -7   6 468.415 17.8397  12
   5  -7  -6 484.261 18.9951   9
  -5  -7   6 472.560 17.3771   2
   5  -7  -6 472.990 17.5528   6
   5   7  -6 487.657 17.2813   9
   5   7  -6 478.968 19.5828  14
  -5   7   6 473.563 20.3545  16
   5   7  -6 492.793 19.0480   7
  -5   7   6 469.664 19.0782   8
  -5   7   6 497.008 18.1705  12
  -5   7   6 473.065 18.1568  13
  -3  -7   6 155.793 7.57662   5
   3  -7  -6 170.968 9.24372   6
   3  -7  -6 168.985 9.84467  15
  -3  -7   6 173.389 8.81533  12
  -3  -7   6 148.818 8.97964  16
  -3  -7   6 167.275 9.04322   2
   3  -7  -6 178.088 9.09039   9
   3   7  -6 168.237 7.81784   3
  -3   7   6 169.861 9.69686   8
   3   7  -6 161.521 9.59252   7
  -3   7   6 158.116 9.26078  13
  -3   7   6 162.791 8.59139  12
  -3   7   6 165.305 7.84127   3
  -1  -7   6 429.450 16.9623   2
   1  -7  -6 431.727 17.2415  15
  -1  -7   6 417.576 17.3065  10
  -1  -7   6 446.492 16.4538  12
   1  -7  -6 436.038 17.2432   6
   1   7  -6 468.558 16.2397   3
  -1   7   6 452.476 16.3046  12
  -1   7   6 436.216 16.2345   3
  -1   7   6 445.260 17.2583  13
   1   7  -6 444.395 17.7038   7
  -1  -7  -6 158.245 12.5314  11
   1  -7   6 156.125 8.45190  12
  -1  -7  -6 166.501 9.70347   6
  -1  -7  -6 141.649 8.23378  15
   1  -7   6 151.348 9.59370   2
   1   7   6 156.177 9.74979  13
   1   7   6 148.465 8.16576  12
  -1   7  -6 138.782 8.48451   1
  -1   7  -6 144.030 9.58591   7
   1   7   6 161.231 8.88761   3
   3  -7   6 61.7279 6.74208   2
  -3  -7  -6 69.7831 10.2162  11
  -3  -7  -6 80.7227 6.70714   6
   3  -7   6 71.9911 6.43894  12
   3   7   6 86.0037 7.44899  13
  -3   7  -6 84.8992 7.69984   1
  -3   7  -6 79.9075 8.31800   7
   3   7   6 97.8356 8.36245   3
   3   7   6 76.7534 6.72891  12
  -5  -7  -6 111.348 13.8383  11
   5  -7   6 102.741 8.30215  12
   5  -7   6 113.299 8.81460   4
   5   7   6 98.1911 7.95958  12
  -5   7  -6 125.496 10.1115   1
  -5   7  -6 105.904 10.0457   7
   5   7   6 100.649 9.92575   3
 -10  -8   6 174.984 11.2071   5
  10  -8  -6 180.469 13.2567   9
  10   8  -6 181.282 12.3392   7
 -10   8   6 226.352 13.0792   8
  10   8  -6 177.953 10.4679   4
  -8  -8   6 280.246 13.5741   5
   8  -8  -6 245.816 14.3864   9
  -8  -8   6 280.039 17.0397  16
   8   8  -6 284.837 15.1692   7
  -8   8   6 252.893 14.2091   8
   8   8  -6 277.447 15.3045  14
  -8   8   6 258.130 12.6143   1
  -8   8   6 249.748 13.2621  13
  -6  -8   6 322.447 16.8941  16
  -6  -8   6 315.543 14.3093   5
   6  -8  -6 321.300 15.1540   2
   6  -8  -6 341.656 15.8208   9
   6  -8  -6 325.797 13.4892   6
  -6   8   6 313.592 15.5622  16
   6   8  -6 318.184 15.9944  14
  -6   8   6 352.646 16.0254   8
  -6   8   6 329.058 14.5804  13
   6   8  -6 321.688 15.3691   7
  -6   8   6 316.698 14.3668  12
  -4  -8   6 556.322 20.2187   2
  -4  -8   6 529.452 21.7822  16
  -4  -8   6 535.668 20.5663  10
  -4  -8   6 559.981 20.7876  12
  -4  -8   6 547.284 19.5561   5
   4  -8  -6 607.801 22.7077  15
   4  -8  -6 571.864 21.2055   9
   4  -8  -6 581.150 20.9339   6
   4   8  -6 615.871 22.3752   7
  -4   8   6 609.567 22.6045   8
  -4   8   6 559.262 20.7892  12
  -4   8   6 561.163 21.2412  13
   2  -8  -6 564.425 21.1468  15
  -2  -8   6 557.601 20.6948   2
   2  -8  -6 565.097 20.8113   6
  -2  -8   6 510.691 20.4697  10
  -2  -8   6 547.655 20.1920  12
   2   8  -6 566.446 21.1675   7
  -2   8   6 566.024 20.2765  12
  -2   8   6 555.219 20.8434  13
  -2   8   6 557.460 19.4583   3
   2   8  -6 552.238 19.4046   3
   0  -8  -6 685.506 24.2501  15
   0  -8  -6 720.709 25.4606   6
   0  -8   6 671.123 24.0075  12
   0  -8   6 690.615 24.8008   2
   0   8  -6 723.003 25.3463   7
   0   8   6 703.054 24.1178  12
   0   8   6 689.116 25.0895  13
   0   8   6 695.126 24.2805   3
   2  -8   6 500.638 20.0187   2
  -2  -8  -6 496.662 25.1015  11
  -2  -8  -6 522.991 20.7067   6
   2  -8   6 482.815 19.1898  12
   2   8   6 501.080 20.0982   3
  -2   8  -6 488.403 20.0118   1
  -2   8  -6 517.416 20.8359   7
   2   8   6 505.341 19.2547  12
   2   8   6 495.635 20.7792  13
  -4  -8  -6 349.002 16.4466   6
   4  -8   6 361.543 16.2906  12
   4  -8   6 367.069 16.7270   2
  -4  -8  -6 321.707 20.6966  11
   4   8   6 336.295 17.0248   3
  -4   8  -6 374.129 17.1969   7
   4   8   6 389.916 16.4385  12
  -4   8  -6 375.011 17.7511   1
  -9  -9   6 33.9945 6.11139   5
   9  -9  -6 44.0101 7.24346   9
   9   9  -6 42.2187 7.68219   7
  -9   9   6 32.8715 5.40756   8
  -7  -9   6 37.6000 7.04155  16
   7  -9  -6 45.9046 6.63867   9
  -7  -9   6 50.7017 5.91245   5
  -7   9   6 50.0900 6.06135  13
  -7   9   6 38.2400 6.14014   8
   7   9  -6 47.6275 7.00767  14
   7   9  -6 43.3131 6.23553   7
  -5  -9   6 25.9952 4.43545   5
   5  -9  -6 21.4846 4.45396   9
   5  -9  -6 31.4950 5.47939   2
  -5  -9   6 21.5985 4.93812  16
  -5  -9   6 20.6473 3.79362   2
   5  -9  -6 26.5191 4.60670   6
   5  -9  -6 31.3884 5.52475  15
  -5   9   6 30.9523 5.22770  13
  -5   9   6 23.0625 4.99414   8
   5   9  -6 31.0285 5.20795   7
  -5   9   6 29.4672 4.67233  12
   3  -9  -6 93.3167 7.21538   6
  -3  -9   6 94.0384 7.69851   2
   3  -9  -6 86.0856 7.69234  15
  -3  -9   6 87.3342 7.01358  12
  -3   9   6 82.4720 6.86095  12
   3   9  -6 98.5471 7.71808   7
   3   9  -6 91.0923 6.50719   3
  -3   9   6 84.4903 6.66537   3
  -3   9   6 80.2612 7.02919  13
  -3   9   6 93.2126 7.86333   8
  -1  -9   6 9.12725 3.10856  12
   1  -9  -6 17.5304 3.78511  15
   1  -9  -6 17.5455 4.57350   6
  -1  -9   6 13.1013 3.44435   2
   1   9  -6 11.9223 3.42370   7
  -1   9   6 11.6376 4.14643  13
   1   9  -6 10.8465 3.13866   3
  -1   9   6 12.0104 3.48982  12
  -1   9   6 7.29438 3.60742   3
   1  -9   6 30.2898 4.95792  12
   1  -9   6 38.2162 5.58983   2
  -1  -9  -6 35.2324 5.61986   6
   1   9   6 46.4472 6.34564   3
   1   9   6 34.9403 5.17667  13
   1   9   6 36.8121 5.17340  12
  -1   9  -6 39.5080 6.28782   7
  -3  -9  -6 11.5227 3.98670   6
  -3  -9  -6 9.57156 6.47875  11
   3  -9   6 10.3458 3.64438  12
   3  -9   6 8.40767 4.62643   2
   3   9   6 5.13305 4.44615   3
  -3   9  -6 3.38382 4.33958   7
   3   9   6 7.39009 3.58813  12
   8 -10  -6 966.039 34.9840   9
  -8 -10   6 914.706 32.9274   5
  -8  10   6 947.380 33.6117   8
   8  10  -6 911.101 34.4407   7
  -8  10   6 950.083 32.6339   1
   6 -10  -6 38.2169 6.15418   9
   6 -10  -6 20.1721 4.91931   2
  -6 -10   6 14.9496 4.25311   5
  -6 -10   6 20.8558 4.98801  16
   6  10  -6 25.9818 5.63686   7
  -6  10   6 28.9944 5.48111   8
   4 -10  -6 1379.47 43.7294   9
  -4 -10   6 1384.67 43.1188   2
   4 -10  -6 1451.80 43.7512   6
   4 -10  -6 1382.91 45.3515  15
  -4  10   6 1354.91 44.9165   8
  -4  10   6 1320.20 43.6580  12
  -4  10   6 1333.72 44.0473  13
   4  10  -6 1335.92 44.5379   7
   2 -10  -6 8.64962 4.13311   6
  -2 -10   6 6.93772 3.91986   2
   2 -10  -6 14.6975 3.71765  15
  -2  10   6 10.9293 3.89046   3
   2  10  -6 8.63121 3.04801   3
  -2  10   6 2.60051 3.54611  13
  -2  10   6 14.1459 4.44861   8
   2  10  -6 16.7199 4.81467   7
  -2  10   6 7.96048 3.35890  12
   0 -10   6 998.778 34.4952   2
   0 -10  -6 1016.83 35.1802   6
   0 -10   6 967.754 33.8351  12
   0  10   6 1013.70 33.8545   3
   0  10   6 1022.02 34.2325  12
   0  10   6 1007.14 35.0323  13
   0  10  -6 1012.54 34.7707   7
  -2 -10  -6 11.5190 4.29201   6
   2 -10   6 10.5330 3.96874   2
   2 -10   6 6.66843 3.52026  12
  -2  10  -6 11.3969 4.57614   7
   2  10   6 10.0530 4.71209   3
   2  10   6 7.57304 3.32046  12
   7 -11  -6 97.7186 8.96140   9
  -7 -11   6 91.9381 8.46192   5
   7  11  -6 71.9584 8.16039   7
   5 -11  -6 89.3334 8.82200  15
   5 -11  -6 85.8038 7.86562   9
  -5  11   6 95.9801 8.83394   8
   5  11  -6 94.2080 9.11715   7
   3 -11  -6 168.338 10.6763  15
  -3 -11   6 151.008 10.3879   2
   3 -11  -6 166.180 11.1768   6
  -3  11   6 160.073 11.5446   8
   3  11  -6 170.585 11.0660   7
  -3  11   6 166.506 10.7154  12
  -3  11   6 162.719 10.0234   3
   1 -11  -6 111.778 10.1450   6
  -1 -11   6 98.3453 9.27970   2
  -1  11   6 86.8162 9.26525   8
  -1  11   6 105.875 8.99804   3
   1  11  -6 92.8618 9.34833   7
   1  11  -6 111.231 8.22816   3
  -1  11   6 98.2024 8.43723  12
  -1 -11  -6 137.782 10.7531   6
   1 -11   6 139.772 11.2460   2
   1  11   6 160.584 10.6152  12
  -1  11  -6 134.276 10.7159   7
   1  11   6 151.531 11.2955   3
   4 -12  -6 213.724 12.3125   6
   4 -12  -6 186.708 11.9790  15
  -4 -12   6 195.350 11.8076   6
  -4 -12   6 169.576 10.9951   2
  -4  12   6 212.268 13.2957   8
   4  12  -6 204.591 12.3253   7
   2 -12  -6 263.072 14.6909   6
  -2 -12   6 241.520 13.7616   2
   2  12  -6 242.615 12.8107   3
  -2  12   6 248.926 13.3308   3
  -2  12   6 259.709 14.7711   8
   2  12  -6 250.197 14.2380   7
   0 -12   6 175.362 12.2768   2
   0 -12  -6 194.425 13.0019   6
   0  12  -6 185.860 12.1649   7
   0  12   6 187.085 11.6809  12
   0  12   6 168.878 11.8742   3
 -12   0   7 1.18868 2.89497   5
  12   0  -7 7.27415 3.28195   4
 -12   0   7 0.84130 5.25098  11
 -12   0   7 1.28444 4.61736   8
  10   0  -7 7.09580 3.15354   9
 -10   0   7 -0.4388 2.37794   8
 -10   0   7 4.20080 3.42999   5
  10   0  -7 1.35508 2.46857   4
 -10   0   7 -1.0432 3.24406  16
 -10   0   7 -2.9701 3.84037  11
  -8   0   7 3.47919 2.59597  16
  -8   0   7 -1.8914 2.32198   5
  -8   0   7 0.67293 2.94560   8
   8   0  -7 0.69676 1.68604  15
   8   0  -7 2.07496 1.94323   4
  -8   0   7 4.77583 2.22060  12
   8   0  -7 2.32481 2.36736   9
   6   0  -7 -0.9565 1.59282   9
   6   0  -7 1.06816 1.27091   7
  -6   0   7 -1.8956 1.78519   8
   6   0  -7 1.67225 1.54226   4
  -6   0   7 -0.9544 2.13546  16
  -6   0   7 1.20390 1.45410  12
  -6   0   7 1.58201 1.47441   5
   6   0  -7 -0.7896 1.37364  15
  -4   0   7 4.00649 1.93877   8
  -4   0   7 1.36861 1.01193  12
   4   0  -7 4.70852 1.44791   7
  -4   0   7 2.04470 1.88894   5
  -4   0   7 5.00885 2.19861  16
   4   0  -7 7.52851 2.28935  15
   4   0  -7 0.48387 1.14049   9
  -2   0   7 -0.0969 0.83160  13
  -2   0   7 3.09635 0.68957  12
  -2   0   7 7.38665 1.97390   8
   2   0  -7 0.21099 1.14367   7
  -2   0   7 0.98382 0.54594  12
   2   0  -7 2.60599 1.65130   6
   2   0  -7 0.79400 1.66375  15
  -2   0   7 0.27994 1.43835  16
   2   0  -7 0.45645 1.43987   9
   0   0  -7 0.41491 1.78187  15
   0   0  -7 2.39639 1.59951   9
   0   0  -7 6.36247 2.36291  11
   0   0   7 0.63039 1.06611  10
   0   0  -7 -0.0078 1.52352   7
   0   0  -7 2.73099 1.24032   6
   0   0  -7 -0.8804 1.13236   1
  -2   0  -7 3.15276 2.27428  11
  -2   0  -7 2.59607 2.31720   1
  -2   0  -7 -0.8883 2.25617  15
   2   0   7 1.84825 2.19554  10
   2   0   7 0.59733 0.51237  12
  -2   0  -7 6.84836 2.72113   7
   4   0   7 1.07257 2.68584   4
  -4   0  -7 0.94236 3.11202  11
   4   0   7 0.24272 1.62942  12
   4   0   7 3.17621 3.54260  14
  -4   0  -7 5.38177 2.72737   1
  -6   0  -7 -1.6445 2.59905   1
  -6   0  -7 1.82119 3.88545  11
   6   0   7 -0.4114 2.75222  12
   6   0   7 3.53705 2.74262   4
  11  -1  -7 226.343 11.7295   4
 -11  -1   7 210.761 14.7323  11
 -11  -1   7 211.028 14.2967  16
 -11  -1   7 236.173 12.5212   5
 -11  -1   7 221.467 13.3812   8
  11  -1  -7 224.122 12.3419   9
  11   1  -7 232.482 12.2401   4
 -11   1   7 221.648 11.9172   5
 -11   1   7 211.593 15.6501  11
 -11   1   7 211.151 13.8878  16
 -11   1   7 222.751 13.0079   8
   9  -1  -7 798.686 27.0622  15
  -9  -1   7 782.360 27.2985   8
  -9  -1   7 781.881 30.4339  16
  -9  -1   7 771.264 28.9014  11
  -9  -1   7 793.813 27.0812   5
   9  -1  -7 779.120 27.3713   9
   9  -1  -7 776.815 26.0277   4
  -9   1   7 772.887 29.7067  16
   9   1  -7 826.397 27.0329   9
  -9   1   7 779.152 27.7483   8
  -9   1   7 766.388 26.6144   5
   9   1  -7 773.788 26.2994   4
  -7  -1   7 424.656 18.3811  16
   7  -1  -7 436.007 15.0474   4
  -7  -1   7 417.536 16.2181   5
  -7  -1   7 418.379 15.5340  12
  -7  -1   7 401.011 15.7772   8
   7  -1  -7 431.619 16.6072   9
   7  -1  -7 423.941 16.2199  15
  -7   1   7 415.773 15.9145   5
  -7   1   7 421.898 15.5986  12
   7   1  -7 425.953 15.5038  15
   7   1  -7 429.251 15.3785   4
   7   1  -7 419.661 15.6895   7
  -7   1   7 432.890 16.9013   8
   7   1  -7 423.035 16.3667   9
  -7   1   7 420.831 18.3561  16
   5  -1  -7 2164.85 61.8604   6
   5  -1  -7 2188.36 63.1108   9
   5  -1  -7 2094.33 60.5543   7
  -5  -1   7 2250.44 61.4515  12
   5  -1  -7 2270.88 63.3427  15
  -5  -1   7 2239.64 65.0654  16
  -5  -1   7 2213.15 61.8686   8
   5  -1  -7 2154.44 60.7655   4
  -5  -1   7 2233.96 62.3456   5
   5   1  -7 2228.33 63.0908   9
   5   1  -7 2183.58 62.4425  15
  -5   1   7 2229.07 62.7540   8
  -5   1   7 2186.36 60.1452  13
  -5   1   7 2174.46 62.4162   5
  -5   1   7 2239.36 61.3079  12
   5   1  -7 2095.74 61.6492   7
   5   1  -7 2188.42 61.3365   4
  -5   1   7 2180.15 65.0063  16
   3  -1  -7 591.123 19.6818   9
  -3  -1   7 585.568 17.2795  12
   3  -1  -7 595.919 19.1789   6
  -3  -1   7 582.505 18.2647   8
   3  -1  -7 583.693 20.1281  15
  -3  -1   7 576.691 20.8008  16
   3  -1  -7 547.987 17.6786   7
  -3  -1   7 554.877 18.7540   5
   3   1  -7 575.485 19.6922   9
  -3   1   7 570.527 21.3187  16
   3   1  -7 578.433 19.8128  15
  -3   1   7 582.001 17.6720  13
   3   1  -7 548.319 18.5769   7
  -3   1   7 596.913 19.4520   8
  -3   1   7 587.232 17.1407  12
  -1  -1   7 3014.53 70.2511  12
  -1  -1   7 2770.22 70.3815  12
   1  -1  -7 2511.90 75.7652  11
   1  -1  -7 2484.57 72.9713   7
   1  -1  -7 2634.15 75.6412  15
   1  -1  -7 2592.67 74.2511   9
   1  -1  -7 2455.92 72.8806   1
  -1  -1   7 2803.53 75.6003  16
   1  -1  -7 2587.39 73.8275   6
   1   1  -7 2606.80 73.9527   7
   1   1  -7 2684.88 75.5028  15
  -1   1   7 2639.76 73.3185  13
   1   1  -7 2675.65 74.7091   9
  -1  -1  -7 309.978 12.2758   1
  -1  -1  -7 309.267 11.5373   6
  -1  -1  -7 310.125 14.5521  11
   1  -1   7 299.410 12.8320  10
  -1  -1  -7 289.514 13.2665  15
  -1  -1  -7 307.901 11.6049   9
  -1  -1  -7 283.742 11.8092   7
  -1   1  -7 272.445 13.0093  11
  -1   1  -7 281.507 11.9808   9
  -1   1  -7 296.461 12.2158   1
   1   1   7 297.029 11.9210  10
  -1   1  -7 294.425 12.3579   7
  -1   1  -7 313.226 13.6124  15
  -3  -1  -7 1124.18 36.3958  15
   3  -1   7 1148.16 31.6455  12
  -3  -1  -7 1058.47 39.0572  11
  -3  -1  -7 1122.54 36.1250   1
  -3   1  -7 1053.93 37.9764  11
   3   1   7 1099.27 36.6423  14
  -3   1  -7 1094.60 35.9688   1
  -3   1  -7 1104.38 35.8449   7
   3   1   7 1121.17 31.0956  12
   3   1   7 1119.68 33.8878   4
   5  -1   7 111.342 10.2544  14
   5  -1   7 107.741 6.92191  12
  -5  -1  -7 111.818 8.80272   1
  -5  -1  -7 100.165 11.0477  11
   5  -1   7 114.401 7.93403   4
   5   1   7 103.616 6.69065  12
  -5   1  -7 101.675 9.32016   1
   5   1   7 109.728 8.06338   4
   5   1   7 108.853 9.22247  14
 -12  -2   7 107.786 10.1798   8
  12  -2  -7 111.607 8.30649   4
 -12  -2   7 104.601 8.61932   5
  12   2  -7 116.670 9.16713   4
 -12   2   7 131.560 13.5185  11
 -12   2   7 119.897 10.1092   8
  10  -2  -7 220.992 11.0831   4
  10  -2  -7 237.491 12.9277   9
 -10  -2   7 227.393 12.7371   8
 -10  -2   7 230.708 12.5301   5
 -10  -2   7 223.376 14.1236  16
 -10   2   7 222.822 13.5486  16
 -10   2   7 226.841 13.5343   8
  10   2  -7 254.544 12.2359   4
 -10   2   7 226.268 11.6351   5
  -8  -2   7 291.589 12.5525   8
   8  -2  -7 293.833 13.1988  15
   8  -2  -7 285.233 13.4589   9
  -8  -2   7 263.328 12.0359  12
  -8  -2   7 281.957 15.3293  16
  -8  -2   7 280.928 12.6479   5
   8  -2  -7 281.205 11.6000   4
  -8   2   7 298.500 13.8971   8
  -8   2   7 303.202 12.6153  12
  -8   2   7 234.662 13.6046  13
  -8   2   7 277.677 14.3169  16
   8   2  -7 292.834 12.6784   9
  -8   2   7 295.024 12.8032   5
   8   2  -7 274.396 12.1213   4
  -6  -2   7 671.500 22.3604   5
   6  -2  -7 672.461 23.0218   9
  -6  -2   7 630.480 24.2903  16
  -6  -2   7 640.258 21.4493   8
   6  -2  -7 636.110 20.4285   4
  -6  -2   7 689.542 21.7204  12
   6  -2  -7 666.195 23.1371  15
   6   2  -7 681.528 22.6156   9
  -6   2   7 662.798 21.5457  12
  -6   2   7 655.774 20.5107  13
  -6   2   7 673.198 24.7303  16
   6   2  -7 638.932 21.9584   7
   6   2  -7 646.082 21.3654   4
   6   2  -7 641.700 21.4858  14
  -6   2   7 684.901 22.2740   5
   6   2  -7 664.639 21.3935  15
  -6   2   7 659.857 22.8749   8
  -4  -2   7 608.815 20.0983   5
   4  -2  -7 594.245 20.0171   6
   4  -2  -7 622.119 21.4630  15
  -4  -2   7 611.870 22.0462  16
   4  -2  -7 623.588 21.0135   9
  -4  -2   7 635.349 19.2035  12
  -4  -2   7 595.206 19.0621   8
  -4   2   7 602.071 22.4958  16
   4   2  -7 617.368 20.3231   7
   4   2  -7 620.377 20.5396  15
   4   2  -7 593.426 20.7975   9
  -4   2   7 628.288 19.0810  12
  -4   2   7 609.036 19.0485  13
  -4   2   7 626.375 21.0462   8
  -2  -2   7 816.328 23.6711   5
   2  -2  -7 729.711 24.0786   6
   2  -2  -7 757.105 24.4996   9
  -2  -2   7 775.437 21.9768  12
   2  -2  -7 778.278 25.6208  15
  -2  -2   7 820.637 25.5797  16
  -2   2   7 668.463 22.8680   3
   2   2  -7 760.024 24.3300   7
   2   2  -7 787.099 25.1163  15
  -2   2   7 761.503 21.4437  12
   2   2  -7 773.089 24.9338   9
  -2   2   7 749.587 23.4123  13
   0  -2   7 704.060 19.2043  12
   0  -2  -7 669.094 24.9650  11
   0  -2  -7 667.063 21.8341   9
   0  -2  -7 650.899 21.3317   7
   0  -2   7 706.052 23.4604  10
   0  -2  -7 706.295 22.3658   6
   0  -2   7 662.134 22.1998  16
   0  -2  -7 656.808 22.0530   1
   0  -2  -7 703.929 23.8833  15
   0   2   7 697.579 21.9502  10
   0   2  -7 638.543 21.5685   1
   0   2  -7 681.650 22.7120   7
   0   2  -7 698.324 22.9857   9
   0   2  -7 705.637 23.8407  15
   2  -2   7 418.765 12.9474  12
  -2  -2  -7 447.904 19.8478  11
  -2  -2  -7 413.060 16.3533   1
   2  -2   7 380.320 16.3911  10
   2  -2   7 423.314 15.3160   2
  -2  -2  -7 411.532 14.9277   6
  -2  -2  -7 426.250 16.9809  15
  -2   2  -7 412.814 16.3711   7
   2   2   7 408.643 11.7061  12
   2   2   7 396.577 16.2557  14
   2   2   7 412.227 14.4346   4
  -2   2  -7 384.918 16.0185   1
  -4  -2  -7 304.441 18.0938  11
   4  -2   7 318.425 12.0620  12
   4  -2   7 319.811 14.2133   4
  -4  -2  -7 297.761 14.5539   1
  -4   2  -7 303.409 15.1428   1
  -4   2  -7 320.763 15.0898   7
   4   2   7 345.372 13.4116   4
   4   2   7 289.641 15.4176  14
   4   2   7 313.938 11.5553  12
  -6  -2  -7 145.485 11.4163   1
   6  -2   7 142.939 10.4371   4
   6  -2   7 165.035 9.62897  12
  -6  -2  -7 144.075 13.0372  11
   6   2   7 157.782 8.82403  12
  -6   2  -7 154.537 11.3546   1
  11  -3  -7 794.517 27.8595   4
  11  -3  -7 864.258 30.5339   9
 -11  -3   7 821.278 29.7221   8
 -11  -3   7 800.810 29.3722   5
  11   3  -7 836.284 29.2464   4
 -11   3   7 814.155 34.0172  11
 -11   3   7 815.167 30.7994   8
  -9  -3   7 205.007 11.0119   5
   9  -3  -7 193.980 9.26202   4
  -9  -3   7 199.985 13.5020  16
  -9  -3   7 200.793 10.9276   8
   9  -3  -7 203.753 11.3887  15
   9  -3  -7 217.822 12.0454   9
  -9   3   7 203.649 10.2207   5
  -9   3   7 194.646 9.40524  13
   9   3  -7 186.490 10.2297   4
  -9   3   7 189.088 11.3622   8
  -7  -3   7 1496.32 44.7536   5
   7  -3  -7 1443.06 42.4208   4
   7  -3  -7 1520.13 46.1420  15
   7  -3  -7 1533.43 45.9908   9
  -7  -3   7 1456.97 47.8101  16
  -7  -3   7 1435.20 43.5451   8
   7   3  -7 1503.85 45.1698   7
   7   3  -7 1482.19 44.3019   9
   7   3  -7 1465.04 44.6410  14
  -7   3   7 1477.48 47.1446  16
  -7   3   7 1458.45 42.9684  13
  -7   3   7 1455.79 43.9984  12
  -7   3   7 1491.52 45.6141   8
  -7   3   7 1441.58 44.0754   5
   7   3  -7 1480.54 43.9490   4
   5  -3  -7 425.090 16.0574   9
   5  -3  -7 417.262 16.2979  15
  -5  -3   7 408.487 17.0469  16
  -5  -3   7 407.628 14.4698  12
  -5  -3   7 401.855 15.1262   5
  -5  -3   7 395.717 13.7800   8
   5  -3  -7 404.351 14.7798   6
   5   3  -7 420.415 15.6954   9
  -5   3   7 397.065 14.1426  13
   5   3  -7 419.315 14.5455  15
   5   3  -7 399.218 15.3299   7
  -5   3   7 415.869 17.5783  16
  -5   3   7 428.855 14.6992  12
  -5   3   7 398.453 15.6082   8
   3  -3  -7 1665.88 47.5795   6
  -3  -3   7 1630.95 45.7974  12
   3  -3  -7 1591.43 47.6717   9
   3  -3  -7 1669.68 49.0330  15
  -3  -3   7 1673.60 48.8567  16
  -3  -3   7 1665.77 46.6526   5
   3   3  -7 1662.95 47.7969   7
  -3   3   7 1627.42 46.6265  13
   3   3  -7 1632.51 48.0190   9
  -3   3   7 1556.29 47.9978   8
  -3   3   7 1533.08 45.2976  12
   3   3  -7 1642.12 47.6320  15
   1  -3  -7 471.831 17.5571  15
  -1  -3   7 459.279 17.5240  10
  -1  -3   7 431.389 16.0702  16
  -1  -3   7 442.617 14.7259   5
   1  -3  -7 477.288 16.6761   6
   1  -3  -7 443.276 15.9321   9
   1  -3  -7 459.593 18.8050  11
  -1  -3   7 453.741 14.1435  12
  -1   3   7 441.425 15.9944  13
  -1   3   7 455.542 15.3339   3
  -1   3   7 467.094 13.2794  12
   1   3  -7 473.545 16.8060   7
   1   3  -7 457.354 16.9889   9
   1   3  -7 464.216 17.2873  15
   1  -3   7 1131.30 30.4522  12
   1  -3   7 1065.09 32.6260   2
  -1  -3  -7 1027.32 33.8719  15
  -1  -3  -7 1060.19 36.9444  11
   1  -3   7 1053.73 34.3000  10
  -1  -3  -7 999.032 32.9652   1
  -1  -3  -7 1083.77 32.9451   6
  -1   3  -7 1085.58 33.9616   7
   1   3   7 1029.17 32.9647  14
  -1   3  -7 1010.01 32.7890   1
   1   3   7 1083.61 28.8070  12
  -3  -3  -7 343.184 18.4455  11
  -3  -3  -7 308.555 14.1237  15
  -3  -3  -7 330.180 14.9712   1
   3  -3   7 297.227 11.4270  12
   3   3   7 306.864 14.7477  14
   3   3   7 322.747 10.8495  12
  -3   3  -7 279.080 14.1574   7
  -3   3  -7 292.313 14.1717   1
  -5  -3  -7 544.352 23.0578   1
  -5  -3  -7 507.540 26.4078  11
   5  -3   7 555.686 21.1822   4
   5  -3   7 552.409 19.6609  12
  -5   3  -7 545.509 22.5456   1
   5   3   7 544.618 19.0248  12
 -12  -4   7 77.4657 8.32539   8
 -12  -4   7 97.8382 8.64316   5
  12  -4  -7 64.6313 7.89898   9
 -12   4   7 77.6167 8.36569   8
  12   4  -7 75.3333 7.93136   4
 -12   4   7 78.3744 11.9393  11
  10  -4  -7 129.875 9.43579   9
 -10  -4   7 113.310 8.90376   8
 -10  -4   7 116.596 9.18098   5
 -10  -4   7 114.704 10.4579  16
  10   4  -7 109.282 8.60132   4
 -10   4   7 138.119 10.6151   8
  -8  -4   7 60.7123 6.18583   5
  -8  -4   7 51.8909 4.79360   8
   8  -4  -7 59.8424 7.17570  15
  -8  -4   7 59.8348 7.95534  16
   8  -4  -7 65.6272 6.35514   9
   8   4  -7 59.0206 5.96065   4
  -8   4   7 59.7316 5.98112   5
  -8   4   7 54.4065 6.78141  16
   8   4  -7 54.4253 6.35855   7
  -8   4   7 43.0637 6.23672   8
  -8   4   7 49.4343 5.31601  12
  -8   4   7 63.8578 5.56060  13
   8   4  -7 48.7046 5.71670  14
  -6  -4   7 196.146 11.8620  16
   6  -4  -7 191.288 9.03794   6
   6  -4  -7 207.250 11.1226  15
  -6  -4   7 198.990 9.65398   5
  -6  -4   7 186.739 9.10577  12
   6  -4  -7 198.632 10.2751   9
  -6   4   7 193.952 10.7740   8
   6   4  -7 199.843 9.44640   9
   6   4  -7 192.253 9.23395   4
  -6   4   7 181.467 9.09989  12
  -6   4   7 197.738 11.5295  16
  -6   4   7 184.430 9.52941   5
   6   4  -7 199.633 10.0482  14
   6   4  -7 203.535 10.1848   7
  -6   4   7 199.664 9.12808  13
   4  -4  -7 35.6397 4.02490   6
  -4  -4   7 37.0132 3.87535   5
  -4  -4   7 35.7411 4.94903  16
   4  -4  -7 33.6497 4.33779   9
   4  -4  -7 30.7187 4.62338  15
  -4  -4   7 45.2520 3.73504  12
   4   4  -7 31.2503 3.31199  15
  -4   4   7 34.1786 4.66829   8
   4   4  -7 35.6283 4.24931   7
  -4   4   7 39.7057 4.08373  13
   4   4  -7 38.0721 4.46849   9
  -4   4   7 32.9478 3.31285  12
  -2  -4   7 49.1893 3.82887  12
   2  -4  -7 49.9489 4.25454   9
  -2  -4   7 45.8218 4.58514  16
   2  -4  -7 51.3424 4.83777  15
   2  -4  -7 56.0554 4.97526   6
  -2  -4   7 50.0920 3.76958   5
   2   4  -7 52.8421 5.41083   7
  -2   4   7 48.1671 3.56393   3
   2   4  -7 47.9791 5.15931   9
  -2   4   7 49.3985 4.88072  13
  -2   4   7 48.2048 3.45490  12
   2   4  -7 48.1016 4.60188  15
   0  -4  -7 77.2446 6.14215  15
   0  -4  -7 76.5024 5.84234   6
   0  -4   7 76.0574 4.41229  12
   0  -4   7 73.3997 5.43964   2
   0  -4   7 77.2054 6.10913  10
   0  -4  -7 74.7029 7.70204  11
   0   4   7 77.3683 3.87404  12
   0   4   7 75.3713 5.61397  13
   0   4  -7 74.0954 6.27045   7
   0   4   7 77.1391 5.50729   3
  -2  -4  -7 -1.0542 2.43562   1
  -2  -4  -7 3.42884 2.14987   6
  -2  -4  -7 -0.3098 1.97069  15
   2  -4   7 1.10028 2.58730   2
  -2  -4  -7 1.56536 3.67786  11
   2  -4   7 5.06355 2.16725  12
  -2   4  -7 3.86598 3.13559   7
   2   4   7 1.87544 1.45334  12
  -2   4  -7 1.15511 2.27954   1
   2   4   7 0.91979 1.84126  14
  -4  -4  -7 60.0156 7.13687   1
  -4  -4  -7 40.7770 7.51351  11
   4  -4   7 53.7350 5.19454  12
  -4   4  -7 47.0902 6.43960   1
   4   4   7 48.7247 4.76725  12
  -4   4  -7 58.5755 7.19069   7
   4   4   7 40.5606 6.12732  14
   6  -4   7 1.16856 2.96064   4
  -6  -4  -7 2.15052 5.16749  11
   6  -4   7 -1.5961 2.54979  12
  -6  -4  -7 1.23531 4.03190   1
   6   4   7 2.89495 4.26378   3
  -6   4  -7 0.00806 2.44903   1
   6   4   7 2.14595 2.99439  12
  11  -5  -7 102.834 8.92771   9
 -11  -5   7 97.3416 8.24591   5
 -11  -5   7 88.7571 8.46138   8
 -11   5   7 108.482 9.96764   8
  11   5  -7 96.4739 8.64902   4
  -9  -5   7 480.026 22.9554  16
  -9  -5   7 503.786 20.3042   5
   9  -5  -7 541.365 22.2138   9
   9   5  -7 491.420 19.2948   4
  -9   5   7 494.609 18.9370  13
   9   5  -7 488.697 20.6242  14
   9   5  -7 505.935 21.0289   7
  -9   5   7 503.903 21.3261   8
  -9   5   7 486.982 18.6586   5
   7  -5  -7 314.425 14.7727   9
   7  -5  -7 311.258 12.6823   6
  -7  -5   7 300.679 16.0319  16
  -7  -5   7 301.267 13.1231  12
   7  -5  -7 318.358 15.5495  15
  -7  -5   7 301.345 13.4992   5
  -7   5   7 327.544 15.0419   8
   7   5  -7 321.084 13.2054   4
  -7   5   7 307.685 15.3789  16
   7   5  -7 318.721 14.4166  14
  -7   5   7 293.161 12.7005  13
   7   5  -7 313.572 12.9220   9
  -7   5   7 306.744 13.3852  12
   7   5  -7 315.780 14.6171   7
  -7   5   7 305.650 13.0178   5
   5  -5  -7 1576.38 48.6354  15
  -5  -5   7 1547.37 45.9426  12
   5  -5  -7 1572.92 46.1633   6
  -5  -5   7 1596.89 46.1102   5
  -5  -5   7 1636.41 49.4515  16
   5  -5  -7 1533.30 47.3640   9
  -5   5   7 1548.48 49.7938  16
  -5   5   7 1499.87 45.7537  12
  -5   5   7 1492.58 45.8215  13
  -5   5   7 1483.45 47.6325   8
   5   5  -7 1660.06 47.6823   7
   5   5  -7 1562.73 46.3750   9
   3  -5  -7 689.047 23.2625   6
  -3  -5   7 689.550 22.1505  12
  -3  -5   7 648.558 23.7020  16
  -3  -5   7 672.352 21.8194   5
   3  -5  -7 688.709 23.1706   9
   3  -5  -7 737.702 24.9222  15
   3   5  -7 675.229 23.7542   7
  -3   5   7 692.549 21.9881  12
   3   5  -7 699.843 22.6125  15
  -3   5   7 698.691 24.6305   8
  -3   5   7 667.730 22.9284  13
   3   5  -7 698.348 23.5531   9
  -1  -5   7 1618.78 45.8851  12
  -1  -5   7 1543.02 48.4701  10
   1  -5  -7 1603.31 47.8504   6
   1  -5  -7 1574.19 48.4583  15
   1  -5  -7 1543.63 46.1829   9
  -1  -5   7 1631.44 47.5537   2
  -1   5   7 1585.78 46.1279   3
  -1   5   7 1590.86 47.5956  13
   1   5  -7 1634.93 48.4154   7
  -1   5   7 1625.73 45.3245  12
  -1  -5  -7 419.947 16.7019   6
   1  -5   7 417.025 16.4748   2
  -1  -5  -7 432.646 20.4388  11
   1  -5   7 433.776 15.2249  12
  -1  -5  -7 419.239 16.8953  15
  -1   5  -7 406.829 17.0611   7
   1   5   7 424.628 17.1970  13
  -1   5  -7 410.617 16.1008   1
   1   5   7 417.047 14.3065  12
   1   5   7 421.101 16.3999   3
  -3  -5  -7 586.682 27.4656  11
   3  -5   7 591.103 21.5538   2
  -3  -5  -7 545.435 21.2331   6
   3  -5   7 589.648 20.4692  12
  -3   5  -7 610.445 23.5049   7
   3   5   7 599.838 22.8876   3
  -3   5  -7 602.450 22.8992   1
   3   5   7 617.362 20.0971  12
   5  -5   7 123.418 8.57804  12
  -5  -5  -7 140.548 13.7410  11
   5  -5   7 122.781 8.85256   4
  -5   5  -7 129.101 9.78079   1
  -5   5  -7 106.815 10.3711   7
   5   5   7 117.231 10.3864   3
   5   5   7 135.162 8.59342  12
  10  -6  -7 31.7145 6.39423   9
 -10  -6   7 36.7416 5.46151   5
 -10   6   7 39.8379 6.73246   8
  10   6  -7 33.9043 5.11657   4
  10   6  -7 31.4250 5.50306   7
   8  -6  -7 123.982 9.89050   9
  -8  -6   7 127.133 11.3185  16
  -8  -6   7 138.072 9.46572   5
  -8   6   7 125.389 8.38841  13
   8   6  -7 127.899 9.20169   7
   8   6  -7 127.965 8.09155   4
  -8   6   7 113.209 8.79687   8
  -8   6   7 107.251 7.45661   5
  -8   6   7 114.618 9.08780  16
   8   6  -7 118.727 9.18834  14
  -6  -6   7 17.7256 4.08147  16
   6  -6  -7 10.6890 3.19816   9
  -6  -6   7 1.16855 2.10921  12
   6  -6  -7 3.70465 2.58701   6
  -6  -6   7 1.24856 1.50513   2
   6  -6  -7 4.96735 3.44820  15
  -6  -6   7 18.1325 3.98848   5
  -6   6   7 -0.2463 2.06233  12
   6   6  -7 3.70015 2.18892  14
   6   6  -7 0.28689 2.10313   9
  -6   6   7 6.68272 3.53542   8
  -6   6   7 10.7208 3.71500  16
   6   6  -7 2.09876 2.18911   7
  -6   6   7 3.71006 2.83493  13
   4  -6  -7 77.5917 6.96639  15
   4  -6  -7 71.1096 5.78939   9
  -4  -6   7 106.676 7.81875  16
   4  -6  -7 85.1174 6.64054   6
  -4  -6   7 66.2297 5.51052  12
  -4  -6   7 84.2633 6.20606   2
  -4   6   7 73.0645 6.59847  13
   4   6  -7 62.8111 5.86788   7
  -4   6   7 74.4807 5.64079  12
   4   6  -7 80.6427 6.46893   9
  -4   6   7 68.5481 7.12496   8
  -2  -6   7 16.3442 3.62349   2
  -2  -6   7 13.8114 2.95676  10
   2  -6  -7 12.5554 3.42328   6
  -2  -6   7 14.9422 2.88245  12
   2  -6  -7 21.8015 3.30041   9
   2  -6  -7 16.6388 3.74202  15
   2   6  -7 18.0388 4.01194   7
  -2   6   7 19.4154 3.05150  12
  -2   6   7 17.3882 2.93582   3
  -2   6   7 14.7543 3.58774  13
   0  -6  -7 0.80712 2.02857  15
   0  -6  -7 3.20721 2.75961   6
   0  -6   7 4.02382 3.11262   2
   0  -6   7 2.36341 1.86212  12
   0  -6  -7 -1.8498 1.88553  11
   0   6   7 1.56824 2.55761   3
   0   6   7 -0.3554 1.95513  13
   0   6   7 1.68815 1.89891  12
   0   6  -7 0.58674 2.89574   7
   2  -6   7 41.8851 5.59637   2
  -2  -6  -7 40.0856 7.54303  11
  -2  -6  -7 31.2370 4.92516   6
   2  -6   7 37.5788 4.52321  12
  -2   6  -7 35.5926 5.77249   7
   2   6   7 31.1287 5.35787   3
  -2   6  -7 31.6686 4.64758   1
   2   6   7 30.2352 3.87749  12
   2   6   7 38.1022 5.13772  13
   4  -6   7 -1.7891 2.79252  12
  -4  -6  -7 0.45145 5.19642  11
  -4   6  -7 1.61874 4.26910   7
   4   6   7 0.95004 3.92751   3
   4   6   7 1.06006 2.32067  12
  -4   6  -7 1.10194 2.31147   1
  -9  -7   7 783.338 29.3199   5
   9  -7  -7 843.945 31.4077   9
   9   7  -7 817.049 30.8719   7
   9   7  -7 812.477 28.4834   4
  -9   7   7 831.780 30.7347   8
   7  -7  -7 213.929 12.1960   9
  -7  -7   7 209.415 11.3313   5
  -7  -7   7 216.685 13.2121  16
   7  -7  -7 203.738 13.1542  15
   7  -7  -7 194.272 10.0119   6
   7   7  -7 214.007 12.3097   7
  -7   7   7 208.197 10.6363   5
  -7   7   7 185.965 10.9235  13
  -7   7   7 190.718 12.0822  16
  -7   7   7 208.595 11.0286  12
   7   7  -7 208.476 11.9325  14
  -7   7   7 215.554 12.0921   8
  -5  -7   7 790.632 27.6488  12
   5  -7  -7 867.662 30.6332  15
  -5  -7   7 784.619 29.7648  16
   5  -7  -7 829.478 29.2292   9
   5  -7  -7 890.247 28.2330   6
  -5  -7   7 822.916 27.3143   5
  -5  -7   7 845.214 27.7527   2
  -5   7   7 816.554 28.0691  13
  -5   7   7 822.700 29.6214   8
   5   7  -7 855.404 29.5222   7
   5   7  -7 827.213 27.6004   9
  -5   7   7 852.989 28.0500  12
  -3  -7   7 163.449 9.24326   2
   3  -7  -7 148.871 9.27359   6
   3  -7  -7 145.504 8.23313   9
  -3  -7   7 136.517 8.10265  12
   3  -7  -7 147.746 9.61479  15
  -3   7   7 145.684 8.22736  12
  -3   7   7 147.772 9.55904   8
  -3   7   7 142.094 9.13145  13
   3   7  -7 146.674 9.51648   7
   1  -7  -7 623.224 22.9626  15
   1  -7  -7 645.598 23.2339   6
  -1  -7   7 599.418 22.4539   2
  -1  -7   7 588.783 21.3342  12
  -1   7   7 611.984 22.8289  13
  -1   7   7 613.902 21.1816  12
   1   7  -7 654.422 23.6714   7
  -1   7   7 617.742 21.4255   3
   1  -7   7 177.987 10.7619   2
   1  -7   7 185.997 9.60578  12
  -1  -7  -7 169.088 10.4832   6
  -1  -7  -7 167.382 10.2269  15
  -1  -7  -7 182.667 13.8898  11
   1   7   7 175.770 10.2621   3
   1   7   7 175.443 10.4973  13
   1   7   7 176.323 9.13914  12
  -1   7  -7 194.020 11.5188   7
  -3  -7  -7 456.897 19.2224   6
  -3  -7  -7 421.015 24.1875  11
   3  -7   7 449.998 18.9450   2
   3  -7   7 454.936 18.1813  12
   3   7   7 478.636 19.9481   3
   3   7   7 468.363 17.8875  12
  -3   7  -7 481.339 20.6477   7
   5  -7   7 162.654 12.7500   4
  -5  -7  -7 197.755 16.2907  11
   5  -7   7 216.947 11.9113  12
   5   7   7 220.696 13.2187  12
  -5   7  -7 202.014 13.0981   1
  -5   7  -7 185.279 13.4259   7
 -10  -8   7 65.6076 7.97987   5
  10  -8  -7 47.0219 7.82763   9
 -10   8   7 63.2833 8.00692   8
  10   8  -7 59.7269 8.01362   7
   8  -8  -7 297.424 16.1564   9
  -8  -8   7 327.667 15.3758   5
   8   8  -7 312.511 15.9873   7
  -8   8   7 306.794 15.6418   8
   6  -8  -7 119.680 9.40466   9
  -6  -8   7 109.123 7.46165   2
   6  -8  -7 113.584 7.38858   6
  -6  -8   7 107.410 9.83174  16
  -6  -8   7 116.875 8.51056   5
   6  -8  -7 126.600 9.62156  15
  -6   8   7 102.295 8.29994  13
  -6   8   7 117.964 9.52927  16
   6   8  -7 107.470 9.40039   7
  -6   8   7 102.476 9.26627   8
  -6   8   7 101.020 7.68316  12
  -4  -8   7 447.553 18.0829  12
   4  -8  -7 493.524 18.9922   9
   4  -8  -7 471.626 20.1649  15
   4  -8  -7 483.306 18.9293   6
  -4  -8   7 461.255 18.0658   2
  -4   8   7 470.969 19.8543   8
  -4   8   7 456.031 18.9113  13
  -4   8   7 454.643 18.2234  12
   4   8  -7 468.304 19.4041   7
   2  -8  -7 344.034 15.5268  15
  -2  -8   7 322.282 14.6165   2
   2  -8  -7 324.405 15.1410   6
  -2  -8   7 305.464 13.7304  12
  -2   8   7 319.674 13.8273  12
  -2   8   7 335.004 15.1700  13
  -2   8   7 321.744 13.3793   3
   2   8  -7 317.869 15.2423   7
   2   8  -7 263.255 12.8328   3
   0  -8  -7 188.540 10.3198  15
   0  -8   7 197.034 11.5917   2
   0  -8   7 190.337 10.2028  12
   0  -8  -7 192.046 11.4298   6
   0   8  -7 185.458 11.0128   7
   0   8   7 199.316 10.1411  12
   0   8   7 192.511 11.0785  13
   0   8   7 186.977 10.6529   3
   2  -8   7 362.111 16.9338   2
  -2  -8  -7 360.607 21.6664  11
   2  -8   7 363.154 16.0585  12
  -2  -8  -7 352.439 16.7176   6
  -2   8  -7 356.971 17.3410   7
   2   8   7 359.565 16.6886   3
   2   8   7 369.285 15.6246  12
  -4  -8  -7 68.3857 11.6274  11
   4  -8   7 55.5606 6.61686  12
   4  -8   7 51.4378 6.92885   2
   4   8   7 61.2808 6.60503  12
  -4   8  -7 48.1047 7.49237   7
   4   8   7 51.1484 7.19191   3
  -9  -9   7 22.4078 5.47912   5
   9  -9  -7 13.2497 4.23497   9
   9   9  -7 26.1960 6.29319   7
  -7  -9   7 728.629 26.8685   5
   7  -9  -7 800.369 30.8525  15
  -7  -9   7 716.549 34.4945  16
   7  -9  -7 775.023 29.3860   9
  -7   9   7 756.670 28.8489   8
   7   9  -7 762.484 29.2215   7
  -5  -9   7 82.5979 7.26352   2
   5  -9  -7 89.5951 7.87880   6
   5  -9  -7 88.6650 8.23035  15
   5  -9  -7 100.365 8.32840   9
  -5  -9   7 97.1186 7.23973   5
  -5   9   7 101.676 9.02391   8
  -5   9   7 94.4514 8.40562  13
  -5   9   7 92.6078 7.63174  12
  -5   9   7 87.9298 8.93253  16
   5   9  -7 96.4506 9.10631   7
  -3  -9   7 1444.75 46.3336  12
   3  -9  -7 1528.83 48.4263  15
  -3  -9   7 1475.34 46.6881   2
   3  -9  -7 1488.78 47.0519   6
   3   9  -7 1501.70 48.0662   7
  -3   9   7 1557.19 49.2774   8
  -3   9   7 1474.33 47.1892  13
  -3   9   7 1491.14 46.4483  12
  -1  -9   7 112.618 8.99118   2
   1  -9  -7 110.361 7.84586  15
   1  -9  -7 96.0608 8.73570   6
  -1  -9   7 96.8135 7.54501  12
  -1   9   7 103.887 8.04214   3
  -1   9   7 103.708 8.27192  12
   1   9  -7 99.6740 8.27086   7
  -1   9   7 114.983 9.34052  13
   1  -9   7 1050.22 35.7861  12
  -1  -9  -7 1082.20 37.3332   6
   1  -9   7 1043.67 36.7162   2
   1   9   7 1111.62 35.8931  12
   1   9   7 1092.06 36.2789   3
  -1   9  -7 1124.64 37.6316   7
  -3  -9  -7 19.1388 7.42603  11
   3  -9   7 21.9923 5.60242   2
   3  -9   7 14.8247 4.32196  12
  -3  -9  -7 17.4175 4.04053   6
   3   9   7 17.1803 4.41362   3
   3   9   7 31.2902 5.11611  12
  -3   9  -7 21.1706 5.66532   7
  -8 -10   7 18.5274 5.17022   5
   8 -10  -7 17.5638 5.28236  15
   8 -10  -7 19.9673 4.53448   9
   8  10  -7 14.6483 5.36934   7
  -8  10   7 14.0531 4.17123   8
   6 -10  -7 20.8045 4.77083   9
  -6 -10   7 15.1186 4.12357   5
   6 -10  -7 19.6246 4.70873  15
  -6  10   7 24.1275 4.91426   8
   6  10  -7 22.4511 5.07790   7
  -4 -10   7 12.1183 3.87118   2
   4 -10  -7 12.4112 3.62058   6
   4 -10  -7 29.7838 5.63851  15
  -4  10   7 15.8343 4.18111   8
  -4  10   7 15.1005 3.97045  12
   4  10  -7 10.2199 4.57757   7
  -2 -10   7 -0.5376 2.34560   2
  -2 -10   7 0.76330 2.49087  12
   2 -10  -7 -0.0188 2.54938  15
   2 -10  -7 -0.0008 3.71843   6
   2  10  -7 0.80055 3.88105   7
  -2  10   7 3.67939 2.96340  12
  -2  10   7 0.19184 2.41252   8
  -2  10   7 0.82515 3.17341   3
   0 -10   7 3.36798 4.39871   2
   0 -10  -7 8.52075 4.18536   6
   0 -10   7 8.22959 3.48200  12
   0  10  -7 6.12866 4.71656   7
   0  10   7 5.51769 4.16721   3
   0  10   7 5.22001 3.06808  12
  -2 -10  -7 10.1122 4.21373   6
   2 -10   7 11.3813 3.64516  12
   2 -10   7 17.0203 4.48781   2
   2  10   7 9.73958 3.39781  12
   2  10   7 9.30477 4.96754   3
  -2  10  -7 14.9297 5.39671   7
   7 -11  -7 260.561 15.3748  15
   7 -11  -7 246.404 14.6944   9
   7  11  -7 247.234 14.7937   7
  -5 -11   7 158.167 12.0804   2
   5 -11  -7 156.495 10.5391   6
   5 -11  -7 150.151 11.3056  15
   5  11  -7 146.518 10.7523   7
  -5  11   7 164.448 11.7816   8
  -3 -11   7 206.421 12.2809   2
   3 -11  -7 198.973 12.7950  15
   3 -11  -7 216.748 13.1834   6
  -3  11   7 224.879 13.8153   8
   3  11  -7 204.252 12.4773   7
  -3  11   7 201.899 12.1137  12
   1 -11  -7 66.2708 7.65590   6
  -1 -11   7 90.3143 9.09496   2
  -1  11   7 88.2163 8.60987   8
  -1  11   7 82.6120 7.75261  12
   1  11  -7 84.2959 9.02507   7
  -1  11   7 65.4334 7.04342   3
   1 -11   7 179.958 14.0851   2
  -1 -11  -7 216.769 12.7842   6
   1  11   7 188.345 11.6522  12
  -1  11  -7 198.729 12.8734   7
  -4 -12   7 12.6767 4.48604   6
  -4 -12   7 8.08158 3.15192   2
   4 -12  -7 10.8000 3.74834   6
  -4  12   7 9.39784 4.32025   8
   4  12  -7 3.95391 3.23113   7
  -2 -12   7 49.4443 7.11661   2
   2 -12  -7 75.5750 8.92973   6
  -2  12   7 60.2679 7.58581   8
   2  12  -7 43.5854 7.00230   7
  -2  12   7 51.8227 6.99841  12
 -12   0   8 327.498 15.8623   5
  12   0  -8 358.188 15.9840   4
 -12   0   8 346.314 17.7876   8
 -10   0   8 98.3658 9.96154  16
 -10   0   8 67.7393 8.73552  11
 -10   0   8 89.0059 8.87445   8
  10   0  -8 84.9368 7.66101   9
 -10   0   8 96.5249 8.68998   5
  10   0  -8 85.7367 6.51642   4
  -8   0   8 1635.56 49.7790   8
  -8   0   8 1666.28 53.1770  16
   8   0  -8 1662.17 48.2956   4
  -8   0   8 1595.73 48.6382  12
   8   0  -8 1497.45 48.1762   7
   8   0  -8 1661.62 50.1652   9
  -8   0   8 1685.46 49.7145   5
   8   0  -8 1663.51 49.2879  15
  -6   0   8 442.508 16.5967   5
  -6   0   8 442.174 15.5865  12
  -6   0   8 442.164 19.1082  16
  -6   0   8 424.551 16.1538   8
   6   0  -8 430.478 17.0908   9
   6   0  -8 452.312 16.9734  15
   6   0  -8 416.586 15.2084   7
   6   0  -8 427.836 15.0894   4
  -4   0   8 3639.30 100.196   5
   4   0  -8 3650.34 101.048   9
   4   0  -8 3398.86 98.7800   7
  -4   0   8 3632.93 99.7441   8
  -4   0   8 3671.04 98.0630  12
   4   0  -8 3642.21 101.263  15
  -4   0   8 3680.12 103.110  16
  -2   0   8 284.566 13.1200  16
   2   0  -8 263.746 10.6938   7
   2   0  -8 268.775 10.9739   6
   2   0  -8 274.766 12.5244  15
  -2   0   8 281.438 8.47345  12
   2   0  -8 276.943 11.9358   9
   0   0  -8 2639.86 74.3352   7
   0   0  -8 2676.24 76.6452  15
   0   0  -8 2588.20 73.4365   6
   0   0   8 2613.38 75.0921  10
   0   0  -8 2574.58 76.2672  11
   0   0   8 2744.43 76.5950  16
   0   0  -8 2628.60 74.5287   9
   0   0  -8 2538.61 73.4707   1
  -2   0  -8 7.02668 3.36557  15
  -2   0  -8 21.2194 4.00955   7
  -2   0  -8 9.52902 3.18951   1
   2   0   8 6.95053 1.10017  12
  -4   0  -8 839.246 30.2198   1
   4   0   8 843.628 25.3593  12
   4   0   8 780.299 30.6090  14
   4   0   8 836.554 28.0197   4
 -11  -1   8 -2.9817 2.96921   5
 -11  -1   8 2.99942 4.17529   8
  11  -1  -8 -0.6708 1.55564   4
  11  -1  -8 2.16747 3.30556   9
 -11   1   8 2.92529 4.36135   8
 -11   1   8 -0.9151 4.58795  11
 -11   1   8 -1.2138 3.43449  16
 -11   1   8 1.83793 3.19784   5
  11   1  -8 -1.2166 2.62070   4
  -9  -1   8 174.156 12.5363  16
   9  -1  -8 187.260 9.63142   4
  -9  -1   8 181.289 10.9190   8
   9  -1  -8 192.858 10.7348  15
   9  -1  -8 204.914 11.4987   9
  -9  -1   8 182.480 10.9452   5
   9   1  -8 174.636 9.69350   7
  -9   1   8 193.494 11.7349   8
   9   1  -8 202.962 11.0229   9
   9   1  -8 202.305 10.1400   4
  -9   1   8 183.175 10.2566  12
  -9   1   8 192.168 10.8572   5
  -9   1   8 188.263 12.7816  16
  -7  -1   8 6.01617 2.37309  12
  -7  -1   8 7.42440 3.13391   5
  -7  -1   8 4.75836 2.91076  16
   7  -1  -8 9.81824 2.33638   4
  -7  -1   8 8.21224 3.06446   8
   7  -1  -8 5.72935 2.92974  15
   7  -1  -8 9.89900 2.83159   9
  -7   1   8 6.53528 2.33746  12
  -7   1   8 11.2173 2.82526   5
  -7   1   8 14.1278 3.69582  16
   7   1  -8 11.1937 2.66034   4
   7   1  -8 7.48055 2.47810  15
   7   1  -8 19.5014 3.33131   7
   7   1  -8 6.55744 2.95954   9
  -7   1   8 6.66066 3.25686   8
  -5  -1   8 115.654 6.61977   8
   5  -1  -8 124.918 7.56146   9
  -5  -1   8 133.186 6.60105  12
  -5  -1   8 114.105 8.76549  16
   5  -1  -8 125.290 7.89310  15
  -5  -1   8 115.872 7.30191   5
  -5   1   8 130.890 8.90001  16
   5   1  -8 118.781 7.66674   9
   5   1  -8 120.440 7.26017  15
  -5   1   8 117.979 7.34722   8
  -5   1   8 117.515 7.38780   5
   5   1  -8 109.369 6.41226   7
  -5   1   8 134.768 6.37584  12
  -3  -1   8 224.132 9.69516   5
   3  -1  -8 223.729 10.3779   9
  -3  -1   8 224.853 7.92268  12
   3  -1  -8 223.266 9.81659   6
   3  -1  -8 219.104 10.8862  15
  -3  -1   8 218.494 9.06103   8
  -3  -1   8 218.923 11.3978  16
   3   1  -8 200.870 9.20083   7
   3   1  -8 218.910 10.6630  15
  -3   1   8 217.926 11.7649  16
  -3   1   8 216.952 7.73509  12
   3   1  -8 243.499 10.8870   9
  -3   1   8 200.793 8.33144  13
  -3   1   8 220.080 9.99897   8
  -1  -1   8 7.94112 0.87286  12
   1  -1  -8 6.34620 1.99859   9
  -1  -1   8 5.96283 2.56288  16
   1  -1  -8 5.19852 2.23321  15
   1  -1  -8 6.03156 1.91770   7
   1  -1  -8 5.17036 1.79315   1
   1  -1  -8 7.29068 2.72420  11
  -1  -1   8 7.65576 2.70618  10
  -1  -1   8 6.63108 1.99738   5
  -1   1   8 16.3275 2.66175  13
   1   1  -8 16.6137 3.57877  15
   1   1  -8 24.6959 3.71124   9
   1   1  -8 8.69643 2.16787   7
  -1  -1  -8 250.500 10.5737   6
  -1  -1  -8 253.410 13.5163  11
   1  -1   8 238.002 11.7580  10
  -1  -1  -8 252.343 11.3925   1
   1  -1   8 249.683 7.43545  12
  -1  -1  -8 256.100 11.0356   7
  -1  -1  -8 272.369 12.8673  15
  -1  -1  -8 254.530 10.7721   9
  -1   1  -8 231.439 11.0004   1
  -1   1  -8 247.086 11.4758   7
  -1   1  -8 240.843 12.5498  15
  -3  -1  -8 12.8818 4.01859   1
  -3  -1  -8 23.8411 5.73547  11
   3  -1   8 14.3466 2.20440  12
   3   1   8 15.4080 3.56831   4
   3   1   8 15.5624 3.79391  14
   3   1   8 20.7356 2.31269  12
  -3   1  -8 14.7499 4.20184   7
  -3   1  -8 21.5222 4.31363   1
  -5  -1  -8 29.1258 6.88186  11
   5  -1   8 21.9623 5.00526   4
   5  -1   8 30.5755 4.13553  12
  -5  -1  -8 29.1908 5.87110   1
   5   1   8 31.6509 4.18698  12
  -5   1  -8 28.1096 5.44741   1
 -12  -2   8 131.436 9.24190   5
 -12  -2   8 121.030 9.66301   8
 -12   2   8 134.484 11.5189   8
 -12   2   8 126.372 13.3276  11
  12   2  -8 138.206 9.13562   4
  10  -2  -8 877.939 30.5611   4
 -10  -2   8 948.640 36.6838  16
 -10  -2   8 917.847 32.4309   8
  10  -2  -8 979.578 33.7718   9
  10  -2  -8 1075.01 36.8007  15
 -10  -2   8 954.070 32.7366   5
  10   2  -8 930.216 31.7056   4
 -10   2   8 963.282 32.2975   5
 -10   2   8 968.483 33.7197   8
 -10   2   8 917.993 35.2953  16
   8  -2  -8 97.4200 5.87636   4
  -8  -2   8 101.004 7.02055  12
   8  -2  -8 115.523 8.46341  15
   8  -2  -8 110.635 8.41691   9
  -8  -2   8 101.853 8.81628  16
  -8  -2   8 90.6285 7.72925   5
  -8  -2   8 98.0292 7.37988   8
  -8   2   8 102.615 8.56543   8
  -8   2   8 97.9210 6.93932  12
   8   2  -8 95.5966 6.92189   7
   8   2  -8 106.395 6.86341   4
   8   2  -8 103.411 7.54408   9
  -8   2   8 111.991 9.47520  16
  -8   2   8 108.951 7.77832   5
   6  -2  -8 995.245 30.2444   4
  -6  -2   8 1026.95 31.5657  12
  -6  -2   8 1008.91 35.1667  16
   6  -2  -8 1022.81 33.4388   9
   6  -2  -8 1079.91 34.0779  15
  -6  -2   8 1037.84 32.6822   5
  -6  -2   8 982.521 31.3021   8
   6   2  -8 1050.20 33.2856   9
   6   2  -8 985.810 32.1301   7
  -6   2   8 1041.96 32.7160   5
   6   2  -8 1033.92 32.0795  15
  -6   2   8 1043.52 33.2010   8
  -6   2   8 1031.85 31.5381  12
  -6   2   8 1026.39 35.4706  16
   4  -2  -8 179.089 9.67625  15
   4  -2  -8 190.740 9.44026   9
  -4  -2   8 186.256 8.79301   5
  -4  -2   8 178.706 7.61184  12
   4  -2  -8 179.917 8.78652   6
  -4  -2   8 183.605 10.4468  16
   4   2  -8 170.957 8.58268   7
  -4   2   8 175.487 7.40865  12
  -4   2   8 178.557 7.70675  13
  -4   2   8 167.867 10.6858  16
   4   2  -8 178.868 9.14294  15
  -4   2   8 198.231 9.72743   8
   4   2  -8 182.574 9.60555   9
   2  -2  -8 1035.91 33.2749   9
  -2  -2   8 1090.28 30.3680  12
   2  -2  -8 1061.25 34.7753  15
   2  -2  -8 1058.54 33.1913   6
  -2  -2   8 1075.43 32.1207   5
  -2  -2   8 1053.98 34.0491  16
   2   2  -8 1118.29 34.6484  15
   2   2  -8 1074.08 33.2501   7
  -2   2   8 1048.72 32.1420  13
  -2   2   8 1073.23 29.7227  12
   2   2  -8 1096.23 34.0639   9
   0  -2   8 469.501 13.6193  12
   0  -2  -8 460.406 18.3991  15
   0  -2  -8 449.409 16.3950   9
   0  -2   8 459.254 18.1115  10
   0  -2  -8 442.085 19.5404  11
   0  -2  -8 471.934 16.8729   6
   0   2   8 432.046 16.6875  14
   0   2  -8 438.799 17.1264   7
   0   2  -8 470.221 17.7182   9
   0   2   8 460.032 16.9524  13
   0   2  -8 452.509 18.4645  15
   2  -2   8 846.487 27.4316   2
   2  -2   8 849.056 24.7699  12
  -2  -2  -8 893.510 33.2776  11
  -2  -2  -8 853.735 29.8696  15
  -2  -2  -8 879.842 29.3695   1
  -2   2  -8 826.437 29.1141   7
  -2   2  -8 766.267 28.4038   1
   2   2   8 864.266 23.5732  12
   2   2   8 845.674 29.4597  14
  -4  -2  -8 400.713 21.8874  11
   4  -2   8 399.889 17.2479   4
   4  -2   8 445.443 15.1430  12
  -4  -2  -8 374.819 17.7435   1
   4   2   8 384.952 18.8778  14
  -4   2  -8 411.692 18.6475   7
   4   2   8 411.846 14.2742  12
  -4   2  -8 399.709 18.2320   1
 -11  -3   8 1.28215 2.65846   8
 -11  -3   8 -7.6360 2.98014   5
  11  -3  -8 0.60531 3.71454   9
  11   3  -8 2.00701 2.95722   4
 -11   3   8 1.73102 4.66348   8
 -11   3   8 0.79275 2.77952   5
   9  -3  -8 115.708 9.29282   9
  -9  -3   8 99.6927 7.83999   8
   9  -3  -8 118.827 9.35074  15
  -9  -3   8 118.697 10.1537  16
  -9  -3   8 114.573 8.82440   5
  -9   3   8 103.864 7.96239   5
  -9   3   8 94.7490 9.31566  16
  -9   3   8 103.931 9.24747   8
   9   3  -8 123.370 8.12213   9
   9   3  -8 109.977 8.00380   7
   9   3  -8 106.863 7.40621   4
  -7  -3   8 2.81576 2.21131   5
  -7  -3   8 2.54522 2.07599   8
   7  -3  -8 0.69370 1.93693   9
  -7  -3   8 -0.4008 3.26803  16
  -7  -3   8 0.52434 1.42076  12
   7  -3  -8 0.09214 2.60214  15
  -7   3   8 0.98128 3.27574   8
   7   3  -8 3.33272 2.45313   7
  -7   3   8 0.18878 2.77646  16
  -7   3   8 0.04917 1.87863  12
   7   3  -8 1.18302 2.32116   9
  -7   3   8 1.33298 2.03087  13
  -7   3   8 -1.8437 1.53554   5
   7   3  -8 3.82911 2.44762   4
   7   3  -8 0.48649 1.52409  14
   5  -3  -8 24.5915 4.12204  15
  -5  -3   8 27.4293 3.76806   5
   5  -3  -8 22.3122 3.76130   6
   5  -3  -8 26.1045 4.18678   9
  -5  -3   8 28.6701 4.62849  16
  -5  -3   8 25.8952 3.29364  12
   5   3  -8 25.0462 4.17904   9
   5   3  -8 28.2512 3.79347   7
  -5   3   8 20.6902 2.97775  13
  -5   3   8 27.2512 5.04591  16
  -5   3   8 26.5779 3.55051  12
  -5   3   8 24.9500 4.44162   8
   5   3  -8 20.2437 3.12149  15
   3  -3  -8 45.9016 5.50680  15
   3  -3  -8 40.0460 4.63033   6
  -3  -3   8 43.2552 3.38455  12
  -3  -3   8 37.7192 4.68981  16
  -3  -3   8 38.0844 3.93886   5
   3  -3  -8 41.6389 4.53530   9
  -3   3   8 39.7224 5.16982   8
  -3   3   8 37.5217 3.23816  12
   3   3  -8 39.7981 4.71029   9
   3   3  -8 41.4664 4.52013   7
  -3   3   8 33.8590 3.80028  13
   3   3  -8 38.8890 4.71898  15
  -1  -3   8 37.3563 3.08076  12
   1  -3  -8 40.4273 4.37433   9
   1  -3  -8 38.4717 5.20467  15
   1  -3  -8 34.5801 4.13944   6
  -1  -3   8 32.9825 4.53973  10
  -1   3   8 39.8205 4.40329  13
   1   3  -8 44.1716 5.55814  15
   1   3  -8 38.6553 4.64527   9
  -1   3   8 40.1691 2.38117  12
  -1   3   8 39.7309 4.08991   3
  -1  -3  -8 42.5552 5.61835  15
  -1  -3  -8 36.6752 6.08937  11
   1  -3   8 30.2787 4.42162   2
  -1  -3  -8 28.5116 4.52717   1
   1  -3   8 25.7348 2.81034  12
   1   3   8 35.8681 4.98858  13
   1   3   8 29.4590 2.10153  12
  -1   3  -8 27.6277 4.72141   7
  -3  -3  -8 35.3490 6.93348  11
   3  -3   8 40.8668 3.97414  12
  -3  -3  -8 32.4394 5.20624  15
  -3  -3  -8 25.2909 4.97382   1
  -3   3  -8 26.7243 5.48693   7
   3   3   8 24.8981 4.38748  14
  -3   3  -8 30.9677 5.05139   1
   3   3   8 32.9454 3.27989  12
  -5  -3  -8 1.27394 4.03734  11
  -5  -3  -8 4.36900 3.98679   1
   5  -3   8 2.43127 3.00560  12
   5  -3   8 0.11570 2.62056   4
   5   3   8 2.70144 2.46443  12
  -5   3  -8 2.55361 3.38408   1
  12  -4  -8 10.2208 5.45990   9
 -12  -4   8 -0.6921 2.39370   5
 -12  -4   8 4.23240 3.96813   8
  12   4  -8 7.49471 3.18512   7
 -12   4   8 6.50180 5.47954  11
  10  -4  -8 981.905 33.7486   9
  10  -4  -8 923.861 33.3425  15
 -10  -4   8 945.723 32.0051   5
 -10  -4   8 892.713 30.8613   8
  10   4  -8 893.130 32.4594   7
  10   4  -8 907.260 31.0214   4
 -10   4   8 926.455 32.9902   8
 -10   4   8 878.478 30.3931   5
 -10   4   8 790.547 33.2363  16
   8  -4  -8 109.006 8.63440  15
  -8  -4   8 103.984 9.44496  16
  -8  -4   8 109.415 7.50400  12
   8  -4  -8 110.806 8.42234   9
  -8  -4   8 98.4583 8.38527   5
   8   4  -8 117.136 7.76426   4
  -8   4   8 104.032 9.20993  16
  -8   4   8 110.971 7.57473  12
   8   4  -8 100.710 8.13280   7
  -8   4   8 102.840 6.86400  13
  -8   4   8 100.638 8.24360   8
  -8   4   8 121.926 8.12214   5
   6  -4  -8 2298.60 68.2267  15
  -6  -4   8 2227.04 68.7455  16
  -6  -4   8 2229.09 65.4446   5
  -6  -4   8 2219.93 64.8821  12
   6  -4  -8 2344.22 65.6450   6
   6  -4  -8 2277.29 67.2402   9
  -6   4   8 2233.81 64.3544  13
  -6   4   8 2277.51 69.3384  16
   6   4  -8 2229.15 66.3892   7
  -6   4   8 2294.34 65.0921  12
   6   4  -8 2350.11 66.4087   9
  -6   4   8 2278.00 67.2756   8
  -6   4   8 2259.42 65.8962   5
   4  -4  -8 397.952 16.8525  15
  -4  -4   8 389.229 16.9039  16
   4  -4  -8 400.732 15.8026   6
  -4  -4   8 423.911 15.0717   5
   4  -4  -8 390.100 16.0043   9
  -4  -4   8 437.679 14.7214  12
  -4   4   8 402.613 18.5843  16
  -4   4   8 407.410 16.9128   8
   4   4  -8 397.800 16.0892   9
  -4   4   8 397.062 14.8593  13
  -4   4   8 395.003 14.3865  12
   4   4  -8 401.603 15.2918  15
   4   4  -8 391.515 16.0400   7
   2  -4  -8 2167.84 62.8176   6
  -2  -4   8 2200.74 60.3968  12
   2  -4  -8 2189.35 64.2959  15
   2  -4  -8 2104.26 62.1044   9
   2   4  -8 2159.43 63.2463  15
  -2   4   8 2142.10 62.0095  13
   2   4  -8 2153.94 63.3736   9
  -2   4   8 2138.88 59.6369  12
   2   4  -8 2152.12 63.1311   7
   0  -4  -8 177.152 9.66494   6
   0  -4  -8 176.881 10.0306  15
   0  -4  -8 180.436 12.4883  11
   0  -4   8 180.877 7.77993  12
   0  -4   8 184.331 9.65379   2
   0   4   8 171.781 6.66457  12
   0   4   8 168.649 9.14542  13
   0   4  -8 172.553 10.0160   7
   0   4   8 168.625 8.94220   3
  -2  -4  -8 756.356 26.6314   6
  -2  -4  -8 789.753 27.9615  15
   2  -4   8 770.153 26.4538   2
  -2  -4  -8 770.926 32.2414  11
   2  -4   8 816.710 24.8253  12
  -2   4  -8 822.930 28.7138   7
   2   4   8 799.664 27.2510   3
   2   4   8 793.442 23.5912  12
  -2   4  -8 748.633 27.0761   1
   2   4   8 742.543 27.6135  13
  -4  -4  -8 37.2290 6.15278   1
   4  -4   8 39.2409 4.83108  12
  -4  -4  -8 38.3558 8.40075  11
   4   4   8 25.4007 5.32066   3
  -4   4  -8 37.3515 5.81412   7
   4   4   8 39.3716 4.40659  12
  -4   4  -8 37.2056 5.43242   1
  11  -5  -8 252.210 15.2255   9
 -11  -5   8 250.386 13.9176   5
  11  -5  -8 263.036 14.8925  15
  11   5  -8 249.078 13.1915   4
 -11   5   8 243.028 14.8875   8
  11   5  -8 255.275 14.3728   7
   9  -5  -8 96.9683 8.51030   9
  -9  -5   8 91.6848 10.3187  16
  -9  -5   8 81.6028 8.24796   5
   9  -5  -8 85.2423 9.23803  15
   9   5  -8 88.0652 8.42888   7
  -9   5   8 86.1403 8.60582  16
  -9   5   8 93.7632 7.39751   5
   9   5  -8 91.1180 7.92793   4
  -9   5   8 87.6162 9.07291   8
  -9   5   8 93.8127 7.42810  13
  -7  -5   8 382.245 18.6087  16
   7  -5  -8 429.517 18.8239  15
   7  -5  -8 409.928 17.7905   9
  -7  -5   8 392.142 16.4632   5
   7  -5  -8 401.647 15.6143   6
  -7  -5   8 374.557 15.4599  12
   7   5  -8 366.561 16.3719  14
  -7   5   8 386.923 15.0619  13
  -7   5   8 361.902 18.1367  16
  -7   5   8 379.778 15.7122  12
  -7   5   8 386.387 16.0373   5
   7   5  -8 386.760 15.8038   9
   7   5  -8 381.238 16.8293   7
  -7   5   8 363.492 17.1949   8
  -5  -5   8 204.267 9.84810  12
   5  -5  -8 213.652 12.1398  15
   5  -5  -8 189.535 9.97757   6
  -5  -5   8 204.499 9.85582   5
  -5  -5   8 223.769 12.4862  16
   5  -5  -8 220.251 11.0580   9
   5   5  -8 199.783 10.2943   9
  -5   5   8 196.164 12.6915  16
   5   5  -8 209.832 11.2468   7
  -5   5   8 204.248 9.75150  12
  -5   5   8 213.739 11.5285   8
  -5   5   8 201.207 9.94869  13
  -3  -5   8 110.470 6.42283   5
   3  -5  -8 114.250 7.33713   9
   3  -5  -8 128.734 7.94840   6
  -3  -5   8 126.253 6.85194  12
  -3  -5   8 109.485 7.93997  16
   3  -5  -8 126.953 8.44483  15
  -3   5   8 122.865 6.59591  12
  -3   5   8 115.899 8.87365   8
   3   5  -8 126.476 7.64178  15
   3   5  -8 111.820 8.00375   9
   3   5  -8 125.641 8.48505   7
  -3   5   8 122.174 7.34878  13
   1  -5  -8 242.261 11.8966   6
  -1  -5   8 223.421 11.0214   2
   1  -5  -8 234.662 11.9803  15
  -1  -5   8 230.631 9.85227  12
  -1   5   8 256.163 11.9879  13
  -1   5   8 225.814 10.3717   3
  -1   5   8 245.941 9.51205  12
   1   5  -8 208.874 11.5959   7
  -1  -5  -8 15.3830 5.52704  11
   1  -5   8 9.56109 2.43867  12
   1  -5   8 8.71746 3.05303   2
  -1  -5  -8 4.45702 2.70515  15
  -1  -5  -8 16.0591 3.35980   6
   1   5   8 9.88015 2.17633  12
   1   5   8 12.6972 3.77231   3
   1   5   8 9.15395 3.62357  13
  -1   5  -8 9.18866 3.09053   7
  -3  -5  -8 60.3793 9.68592  11
   3  -5   8 53.8564 5.32116  12
  -3   5  -8 49.5761 6.54098   7
   3   5   8 55.7456 4.96303  12
   3   5   8 52.1228 7.11490   3
  10  -6  -8 51.0785 8.14665  15
 -10  -6   8 52.9715 7.44968   5
  10  -6  -8 43.2442 7.21998   9
  10   6  -8 43.9124 6.21414   4
 -10   6   8 49.4085 6.77906   8
  10   6  -8 48.3543 6.61935   7
   8  -6  -8 1027.86 35.3378   9
  -8  -6   8 987.421 33.0194   5
  -8  -6   8 936.596 36.4250  16
   8  -6  -8 1041.40 36.1846  15
  -8   6   8 965.624 32.7348  12
   8   6  -8 1016.80 34.8269   7
  -8   6   8 986.766 34.7235   8
   8   6  -8 960.349 34.1883  14
  -8   6   8 980.861 32.2116  13
  -8   6   8 938.793 35.1332  16
  -8   6   8 972.373 32.3990   5
  -6  -6   8 14.8729 4.04976  16
  -6  -6   8 17.3631 4.11044   5
   6  -6  -8 19.1159 5.03582  15
  -6  -6   8 19.7915 3.81733   2
  -6  -6   8 13.8812 3.20416  12
   6  -6  -8 16.9617 4.15333   9
   6  -6  -8 19.1058 3.92435   6
  -6   6   8 14.6725 3.92510  16
   6   6  -8 8.64866 3.29566   9
  -6   6   8 18.0499 3.93505  13
  -6   6   8 17.0832 3.49819  12
  -6   6   8 25.0123 5.32701   8
   6   6  -8 17.5487 4.57571   7
   4  -6  -8 1269.00 39.4106   6
  -4  -6   8 1181.43 39.8778  16
  -4  -6   8 1220.28 38.7599   2
   4  -6  -8 1256.67 41.2260  15
  -4  -6   8 1219.70 37.4882   5
  -4  -6   8 1224.13 38.1162  12
   4  -6  -8 1237.47 39.3878   9
  -4   6   8 1240.06 40.6907   8
   4   6  -8 1273.04 40.2473   7
  -4   6   8 1222.95 37.9093  12
   4   6  -8 1280.22 39.6959   9
  -4   6   8 1257.94 38.7558  13
  -2  -6   8 25.7856 4.62243   2
   2  -6  -8 25.4481 4.47242  15
   2  -6  -8 30.5840 3.94086   9
   2  -6  -8 34.6082 5.14330   6
  -2  -6   8 25.6795 3.81044  12
  -2   6   8 25.3391 4.48634  13
  -2   6   8 29.9022 3.73029  12
   2   6  -8 24.6225 4.71200   7
   0  -6   8 1152.21 35.3197  12
   0  -6  -8 1144.24 37.8880  15
   0  -6   8 1133.48 37.0242   2
   0  -6  -8 1177.41 37.8895   6
   0   6   8 1128.20 36.0196   3
   0   6   8 1120.47 37.4491  13
   0   6  -8 1150.10 38.1699   7
   0   6   8 1181.65 34.7957  12
  -2  -6  -8 87.6961 7.61747   6
   2  -6   8 81.4393 7.77340   2
   2  -6   8 90.6435 6.88830  12
  -2  -6  -8 95.1761 12.0909  11
  -2   6  -8 84.5482 7.97135   7
   2   6   8 84.8537 5.86154  12
   2   6   8 75.6815 7.77154   3
   2   6   8 69.1064 7.14204  13
  -4  -6  -8 734.837 33.7464  11
   4  -6   8 717.820 25.3312  12
   4   6   8 702.478 24.5847  12
   4   6   8 718.688 27.5372   3
  -4   6  -8 703.776 27.6962   7
  -9  -7   8 -2.6387 2.50780   5
   9  -7  -8 -0.4380 4.38793  15
   9  -7  -8 -2.6237 3.19238   9
  -9   7   8 -3.3178 3.67257   8
   9   7  -8 3.56198 3.08901   7
  -7  -7   8 75.7023 7.29380   5
   7  -7  -8 60.9233 6.29696   6
   7  -7  -8 68.6138 8.50982  15
  -7  -7   8 70.0975 6.16900   2
  -7  -7   8 69.6094 7.83001  16
   7  -7  -8 75.0741 7.26030   9
  -7   7   8 64.9948 7.41243   8
   7   7  -8 72.3447 8.20225   7
  -7   7   8 67.6406 6.55132  12
  -7   7   8 68.3268 6.86043  13
  -7   7   8 60.8733 6.45123   5
  -7   7   8 65.6430 7.62616  16
   5  -7  -8 44.6316 6.04079   9
  -5  -7   8 35.9202 4.85777   5
   5  -7  -8 43.9536 6.27990  15
   5  -7  -8 37.2693 5.37916   6
  -5  -7   8 30.1523 4.49862  12
  -5  -7   8 33.8922 4.63347   2
  -5  -7   8 36.2417 5.84201  16
   5   7  -8 38.2135 5.49146   7
  -5   7   8 46.8713 6.34062   8
  -5   7   8 35.0151 6.35515  16
  -5   7   8 33.1020 4.83432  12
   5   7  -8 38.5236 5.21566   9
  -5   7   8 36.0646 5.36424  13
   3  -7  -8 55.4590 5.44857   9
   3  -7  -8 53.6309 6.57720   6
  -3  -7   8 48.1963 5.26176  12
   3  -7  -8 60.0751 6.94150  15
  -3  -7   8 54.4661 6.37381   2
  -3   7   8 60.3366 5.43472  12
  -3   7   8 61.6822 6.40388  13
   3   7  -8 57.7675 6.97738   7
  -3   7   8 63.6953 7.54283   8
   1  -7  -8 158.048 9.84009  15
   1  -7  -8 162.908 10.4189   6
  -1  -7   8 157.808 9.67183   2
  -1  -7   8 168.128 9.12627  12
  -1   7   8 164.255 9.02453  12
  -1   7   8 163.544 9.16144   3
  -1   7   8 163.186 9.90137  13
   1   7  -8 156.296 10.5817   7
   1  -7   8 35.7149 4.89430  12
  -1  -7  -8 40.4526 5.50561   6
   1  -7   8 30.6823 5.89797   2
  -1  -7  -8 40.7826 8.32503  11
  -1   7  -8 30.4750 5.98205   7
   1   7   8 29.0760 5.18483   3
   1   7   8 30.5345 5.56745  13
   1   7   8 31.1508 4.61983  12
   3  -7   8 120.802 9.54635   2
  -3  -7  -8 105.935 11.8975  11
   3  -7   8 122.244 8.48876  12
   3   7   8 133.493 10.3673   3
   3   7   8 126.719 8.55692  12
  -3   7  -8 131.706 10.9031   7
 -10   8   8 87.0306 10.3057   8
   8  -8  -8 557.434 25.2175  15
   8  -8  -8 604.872 25.0308   9
  -8  -8   8 636.517 23.4860   5
   8   8  -8 586.758 24.2467   7
  -8   8   8 544.081 23.9944   8
   6  -8  -8 279.128 12.9847   6
  -6  -8   8 271.637 12.9037   5
   6  -8  -8 287.704 15.9120  15
  -6  -8   8 240.867 14.7402  16
   6  -8  -8 293.439 14.8262   9
  -6  -8   8 258.929 12.6488   2
  -6   8   8 280.516 15.1947   8
  -6   8   8 228.491 12.8565  13
  -6   8   8 255.540 15.2537  16
  -6   8   8 243.386 12.6765  12
   6   8  -8 280.676 14.8653   7
   4  -8  -8 881.938 31.8565  15
   4  -8  -8 832.126 29.3650   9
  -4  -8   8 840.029 28.9473  12
  -4  -8   8 845.819 29.2991   2
   4  -8  -8 892.502 30.2139   6
  -4   8   8 856.480 31.2401   8
  -4   8   8 841.025 29.7180  13
  -4   8   8 830.087 28.8763  12
   4   8  -8 808.468 30.2812   7
   2  -8  -8 338.420 16.0418  15
  -2  -8   8 320.395 14.3933  12
   2  -8  -8 338.830 15.8380   6
  -2  -8   8 310.721 15.1367   2
   2   8  -8 331.163 16.3051   7
  -2   8   8 325.518 14.3032  12
  -2   8   8 338.462 15.8851  13
   0  -8  -8 522.173 21.5381   6
   0  -8   8 510.365 19.6662  12
   0  -8   8 506.155 21.0078   2
   0   8   8 497.010 21.2199  13
   0   8   8 519.763 20.0551   3
   0   8   8 499.647 19.3695  12
   0   8  -8 518.132 21.4967   7
   2  -8   8 174.940 10.2752  12
  -2  -8  -8 164.696 11.2002   6
   2  -8   8 161.789 10.7062   2
  -2   8  -8 183.610 11.9047   7
   2   8   8 172.823 10.3547  12
   2   8   8 173.144 11.4533   3
   9  -9  -8 10.7916 4.57982   9
  -9  -9   8 9.41293 5.43854   5
   9  -9  -8 12.7307 4.64722  15
   9   9  -8 11.0331 4.47806   7
  -9   9   8 4.91005 4.18591   8
   7  -9  -8 0.34776 3.58506  15
   7  -9  -8 0.44413 2.22105   9
  -7  -9   8 4.85662 3.67207   5
   7   9  -8 -0.6907 2.70534   7
  -7   9   8 9.47064 4.88409   8
  -5  -9   8 17.6078 4.31725   2
   5  -9  -8 13.6170 3.84220   6
   5  -9  -8 19.3958 4.37114   9
   5  -9  -8 22.9898 5.61585  15
   5   9  -8 13.8244 5.13006   7
  -5   9   8 18.1381 4.08103  12
  -5   9   8 15.8951 3.89182  13
  -5   9   8 27.0870 5.75386  16
  -5   9   8 17.4292 4.31471   8
  -3  -9   8 19.4110 4.16065  12
  -3  -9   8 25.0610 4.60156   2
   3  -9  -8 20.5656 4.49833   6
   3  -9  -8 31.6915 5.72482  15
  -3   9   8 23.4760 5.70079   8
  -3   9   8 17.2686 4.97134  13
  -3   9   8 18.8996 4.03939  12
   3   9  -8 23.0588 4.92024   7
   1  -9  -8 6.00502 3.99005   6
  -1  -9   8 7.12834 3.07194  12
  -1  -9   8 9.02783 4.65554   2
   1   9  -8 9.65802 4.79174   7
  -1   9   8 6.78790 3.10654  12
  -1  -9  -8 36.6906 6.12020   6
   1  -9   8 36.7041 6.43426   2
   1  -9   8 34.1479 5.10587  12
   1   9   8 29.2054 5.63731   3
   1   9   8 38.3599 5.10974  12
  -1   9  -8 42.0062 6.22363   7
   8 -10  -8 67.4936 8.67990   9
  -8  10   8 73.3851 9.09030   8
   6 -10  -8 495.288 23.1117  15
   6 -10  -8 489.351 21.5829   9
   6 -10  -8 506.788 20.4986   6
  -6  10   8 502.195 22.0770   8
   6  10  -8 502.092 22.4946   7
   4 -10  -8 50.6221 7.16211  15
  -4 -10   8 44.7257 6.29528   2
   4 -10  -8 51.7333 6.93064   6
  -4  10   8 54.9111 7.61378   8
   4  10  -8 62.8654 8.34694   7
   2 -10  -8 588.222 23.9891   6
  -2 -10   8 559.560 22.9218   2
  -2 -10   8 505.770 21.5195  12
   2  10  -8 554.671 23.3012   7
  -2  10   8 604.507 22.6778  12
  -2  10   8 555.978 24.5962   8
   0 -10  -8 31.7642 6.38165   6
   0 -10   8 26.8731 4.92169  12
   0 -10   8 21.0899 5.80837   2
   0  10   8 27.6941 4.91960  12
   0  10  -8 25.5524 5.81062   7
   0  10   8 28.4374 5.79151   3
  -5 -11   8 79.6665 8.00667   2
   5 -11  -8 70.7765 7.55935   6
   5 -11  -8 78.9286 8.11876  15
   5  11  -8 83.5886 9.59365   7
  -5  11   8 72.4160 8.30666   8
   3 -11  -8 53.3951 7.68566   6
  -3 -11   8 52.0773 7.15609   2
  -3  11   8 48.2701 6.72939  12
  -3  11   8 49.3068 7.59315   8
   3  11  -8 55.1372 7.90188   7
  -1 -11   8 36.2753 6.88320   2
   1 -11  -8 41.3530 8.13715   6
  -1  11   8 36.7389 5.64036  12
  -1  11   8 52.3081 8.10875   8
   1  11  -8 50.5055 6.98853   7
 -12   0   9 0.28815 3.29699   5
 -12   0   9 0.64518 2.91464   8
  12   0  -9 2.21610 2.69507   4
 -10   0   9 0.80628 2.54314   5
 -10   0   9 1.26783 3.85531   8
  10   0  -9 -1.6529 1.99331   9
 -10   0   9 -5.3510 3.21919  16
  10   0  -9 -0.5526 2.11844   4
   8   0  -9 2.95782 2.95952   9
   8   0  -9 1.27174 2.51669  15
  -8   0   9 2.03479 3.24337   8
  -8   0   9 1.31909 2.99148   5
  -8   0   9 -1.7091 3.23648  16
   8   0  -9 0.55224 1.89896   4
  -8   0   9 -0.2730 1.92782  12
  -6   0   9 -0.4570 2.08721  16
  -6   0   9 1.53270 2.80204   5
   6   0  -9 1.60560 2.65430   9
  -6   0   9 -0.1013 1.61028  12
   6   0  -9 1.53788 2.58234  15
  -6   0   9 4.03113 2.73975   8
  -4   0   9 3.30240 1.99140   5
   4   0  -9 0.01325 2.06967   9
   4   0  -9 1.68188 2.58240  15
  -4   0   9 5.39599 2.26323   8
  -4   0   9 2.32825 1.34862  12
  -4   0   9 1.82784 2.81032  16
   2   0  -9 -1.3250 1.77801   9
   2   0  -9 0.76381 1.86517   6
  -2   0   9 2.31028 2.76545  16
  -2   0   9 2.02319 0.90062  12
   2   0  -9 -0.1297 2.38409  15
   2   0  -9 0.41611 1.52281   7
  -2   0   9 0.52733 1.72883   8
   0   0  -9 0.38997 1.97478   9
   0   0  -9 -0.9060 1.99930   7
   0   0  -9 -0.0462 1.57161   6
   0   0  -9 1.12006 2.72993  15
  -2   0  -9 2.07320 2.84261   7
  -2   0  -9 1.75535 2.62788   1
   2   0   9 -0.5138 1.05901  12
   2   0   9 2.57527 3.16757  14
   4   0   9 -0.4421 1.93660  12
  -4   0  -9 0.65406 2.15036   1
   4   0   9 3.03505 3.35867   4
  11  -1  -9 279.321 13.2418   4
 -11  -1   9 268.139 14.6183   5
  11  -1  -9 298.327 15.2953   9
 -11  -1   9 278.336 15.1407   8
  11   1  -9 280.767 13.8838   4
 -11   1   9 287.203 15.6150   8
 -11   1   9 276.678 14.3909   5
  -9  -1   9 509.307 20.9377   8
   9  -1  -9 563.638 22.2357   9
  -9  -1   9 529.048 24.3295  16
   9  -1  -9 550.072 21.4714  15
  -9  -1   9 528.476 21.0914   5
   9  -1  -9 545.423 19.7157   4
  -9  -1   9 534.554 20.4664  12
  -9   1   9 537.643 21.8068   8
   9   1  -9 556.026 20.3013   4
   9   1  -9 568.201 21.9828   9
  -9   1   9 535.100 24.1023  16
  -9   1   9 531.902 20.3568  12
  -9   1   9 513.542 21.0268   5
  -7  -1   9 546.571 20.1165   8
  -7  -1   9 546.934 23.4611  16
  -7  -1   9 542.123 19.6168  12
  -7  -1   9 542.884 20.8368   5
   7  -1  -9 562.424 21.4926  15
   7  -1  -9 545.285 21.6221   9
  -7   1   9 560.181 21.0128   8
  -7   1   9 567.914 19.8388  12
   7   1  -9 551.789 21.3815   9
   7   1  -9 580.689 20.7381  15
  -7   1   9 557.881 20.9695   5
  -7   1   9 526.044 23.2839  16
  -5  -1   9 902.820 32.2986  16
   5  -1  -9 904.306 30.4448   9
  -5  -1   9 892.645 29.3416   5
   5  -1  -9 943.172 30.9798  15
  -5   1   9 889.411 29.4937   8
   5   1  -9 926.761 30.2917  15
  -5   1   9 895.638 32.3952  16
   5   1  -9 913.321 30.5382   9
   5   1  -9 849.718 28.3301   7
  -5   1   9 910.990 27.6751  12
  -5   1   9 905.672 29.7071   5
   3  -1  -9 711.716 23.6166   6
   3  -1  -9 676.461 24.1138   9
  -3  -1   9 685.203 25.5866  16
  -3  -1   9 690.711 23.1388   5
  -3  -1   9 705.025 20.8279  12
   3  -1  -9 702.382 25.1005  15
   3   1  -9 650.807 22.7023   7
   3   1  -9 700.446 24.7163  15
  -3   1   9 677.620 20.4730  12
   3   1  -9 702.374 24.5437   9
  -3   1   9 677.396 26.2485  16
  -3   1   9 711.572 23.8106   8
   1  -1  -9 638.577 22.1013   6
  -1  -1   9 671.791 25.6973  10
  -1  -1   9 682.219 21.7657   5
   1  -1  -9 586.795 21.0674   7
   1  -1  -9 655.636 24.4027  15
   1  -1  -9 613.199 22.3704   9
  -1  -1   9 672.254 23.9672  16
  -1   1   9 637.247 24.8390  16
   1   1  -9 655.114 23.1058   9
   1   1  -9 653.455 24.4673  15
  -1   1   9 609.018 22.3081  10
   1   1  -9 660.336 22.4909   7
  -1  -1  -9 511.868 19.2117   7
  -1  -1  -9 514.611 21.3342  15
  -1  -1  -9 543.142 26.3974  11
   1  -1   9 505.719 14.8183  12
   1  -1   9 493.421 18.4440   2
  -1  -1  -9 521.972 19.6216   1
  -1   1  -9 492.307 19.5848   7
  -1   1  -9 514.870 21.4671  15
  -3  -1  -9 235.230 13.1467   1
   3  -1   9 248.336 9.57444  12
   3  -1   9 254.693 12.5717   4
   3   1   9 238.438 8.87331  12
   3   1   9 241.228 14.0780  14
  -3   1  -9 270.466 13.8515   7
 -12  -2   9 93.0733 8.55119   8
  12  -2  -9 106.178 9.68025   9
 -12  -2   9 121.645 9.75058   5
 -12   2   9 90.6093 7.99993   5
 -12   2   9 80.7027 10.7868  11
 -12   2   9 99.8978 10.3380   8
  12   2  -9 106.737 8.72626   4
  10  -2  -9 94.4807 9.14582   9
 -10  -2   9 92.2634 7.64655   8
 -10  -2   9 70.4248 7.79439   5
 -10  -2   9 96.8257 9.86589  16
 -10   2   9 98.3059 7.73510   5
 -10   2   9 90.8339 9.79700  16
 -10   2   9 91.4159 8.41504   8
  10   2  -9 88.9409 8.12154   9
  10   2  -9 94.9955 7.80834   4
   8  -2  -9 157.448 10.0126  15
  -8  -2   9 145.706 9.10791   8
   8  -2  -9 174.135 10.5481   9
  -8  -2   9 171.240 9.34468  12
  -8  -2   9 163.134 11.8227  16
  -8  -2   9 155.694 10.2608   5
   8   2  -9 156.678 9.39441   7
  -8   2   9 164.422 10.7012   8
   8   2  -9 150.393 8.83201   4
  -8   2   9 160.044 9.93670   5
   8   2  -9 165.745 10.3422   9
  -8   2   9 143.309 8.83382  12
  -8   2   9 152.806 11.5980  16
  -6  -2   9 214.847 13.1279  16
   6  -2  -9 217.956 11.6880  15
  -6  -2   9 220.139 11.2496   5
  -6  -2   9 213.050 9.92057  12
   6  -2  -9 228.355 11.6240   9
   6   2  -9 217.437 10.7656  15
  -6   2   9 234.812 13.5780  16
  -6   2   9 218.005 9.88571  12
   6   2  -9 213.718 11.4859   9
  -6   2   9 208.073 11.4916   8
   6   2  -9 213.145 10.5730   7
  -6   2   9 238.862 11.5534   5
   4  -2  -9 160.687 8.72972   6
  -4  -2   9 186.588 10.9884  16
  -4  -2   9 156.560 7.28061  12
  -4  -2   9 152.567 8.57572   5
   4  -2  -9 152.895 9.27122   9
   4  -2  -9 169.032 10.2865  15
   4   2  -9 156.513 9.58082   9
  -4   2   9 161.814 9.42266   8
  -4   2   9 161.683 7.15705  12
   4   2  -9 151.072 8.45010   7
  -4   2   9 152.378 10.9282  16
   4   2  -9 156.775 9.23262  15
   2  -2  -9 254.336 12.9833  15
  -2  -2   9 235.799 12.0090  16
   2  -2  -9 244.342 11.3659   9
   2  -2  -9 248.195 11.4018   6
  -2  -2   9 252.670 10.5202   5
  -2  -2   9 255.654 8.86092  12
  -2   2   9 185.379 10.9617  13
   2   2  -9 253.017 11.4014   7
   2   2  -9 236.571 11.6120   9
  -2   2   9 249.190 12.0659   8
  -2   2   9 244.298 8.15121  12
  -2   2   9 236.389 13.7574  16
   2   2  -9 252.668 12.7317  15
   0  -2  -9 163.313 8.68294   6
   0  -2  -9 169.686 8.47413   9
   0  -2  -9 157.581 11.2120  11
   0  -2   9 156.454 6.11333  12
   0  -2  -9 165.565 10.1528  15
   0  -2  -9 126.279 9.88146   1
   0   2  -9 137.981 10.2499  15
   0   2   9 153.005 8.83611  13
   0   2  -9 163.488 9.64395   9
   0   2  -9 207.655 10.3912   7
  -2  -2  -9 127.493 9.27787  15
  -2  -2  -9 126.137 11.1859  11
  -2  -2  -9 129.849 9.09295   1
   2  -2   9 130.502 6.06413  12
   2   2   9 126.043 4.89733  12
  -2   2  -9 111.221 8.87086   7
  -4  -2  -9 94.5792 11.0825  11
   4  -2   9 111.712 8.36808   4
  -4  -2  -9 113.104 9.01355   1
   4  -2   9 112.631 6.85632  12
   4   2   9 111.550 6.37788  12
  -4   2  -9 112.225 9.14661   1
 -11  -3   9 29.6864 5.80727   5
  11  -3  -9 24.4475 5.65030   9
 -11  -3   9 21.9635 4.35312   8
 -11   3   9 26.3808 4.84400   5
  11   3  -9 19.9961 4.00745   4
 -11   3   9 33.2887 5.85324   8
  11   3  -9 18.6430 4.59620   7
  -9  -3   9 1030.96 34.5845   5
   9  -3  -9 1060.18 35.9824   9
   9  -3  -9 1021.35 35.6815  15
  -9  -3   9 971.560 38.0639  16
  -9   3   9 989.664 37.1620  16
   9   3  -9 994.785 34.4086   7
  -9   3   9 1014.22 33.9902   5
   9   3  -9 982.590 33.1867   4
  -9   3   9 1006.86 35.2759   8
   9   3  -9 1016.28 33.9280   9
   7  -3  -9 33.6030 5.64042  15
  -7  -3   9 33.7151 4.40999  12
  -7  -3   9 34.7164 4.78860   5
  -7  -3   9 34.2553 6.47465  16
   7  -3  -9 48.1743 6.11872   9
  -7   3   9 32.3305 4.34185  12
  -7   3   9 35.7632 5.91055   8
   7   3  -9 30.0430 4.49907   7
  -7   3   9 27.4682 5.28369  16
   7   3  -9 26.8048 4.80523   9
  -7   3   9 31.0239 4.77820   5
  -5  -3   9 1655.34 49.6899   5
   5  -3  -9 1707.57 50.2784   6
  -5  -3   9 1656.60 52.6670  16
   5  -3  -9 1692.14 52.3057  15
   5  -3  -9 1665.72 51.1795   9
  -5  -3   9 1672.40 48.5852  12
  -5   3   9 1684.04 51.0146   8
  -5   3   9 1670.61 48.5092  12
   5   3  -9 1666.48 51.0530   9
  -5   3   9 1649.37 53.7343  16
   5   3  -9 1639.66 50.2855   7
   5   3  -9 1684.96 50.0424  15
  -3  -3   9 132.644 6.34335  12
   3  -3  -9 130.212 9.11455  15
  -3  -3   9 135.006 7.37852   5
   3  -3  -9 114.351 7.70653   9
  -3  -3   9 124.966 8.69364  16
   3  -3  -9 121.436 8.01490   6
  -3   3   9 117.728 7.02572  13
   3   3  -9 118.634 7.92036  15
  -3   3   9 123.233 10.1837  16
  -3   3   9 122.279 6.01271  12
  -3   3   9 120.708 8.37172   8
   3   3  -9 141.407 8.36538   7
   3   3  -9 135.592 8.55831   9
   1  -3  -9 1508.50 48.0547  15
   1  -3  -9 1480.23 45.4772   9
  -1  -3   9 1512.02 42.7785  12
   1  -3  -9 1531.98 46.3524   6
  -1   3   9 1526.21 41.6670  12
   1   3  -9 1502.22 46.6563   7
  -1   3   9 1516.58 45.7422  13
   1   3  -9 1516.69 47.2192   9
   1   3  -9 1547.51 48.1375  15
   1  -3   9 143.660 9.16122   2
   1  -3   9 158.168 6.89107  12
  -1  -3  -9 157.669 11.8285  11
  -1  -3  -9 166.271 10.6244  15
  -1  -3  -9 140.856 8.38415   6
   1   3   9 147.783 5.46366  12
   1   3   9 154.720 9.60505  13
  -1   3  -9 154.057 10.2023   7
   3  -3   9 692.613 23.1867  12
  -3  -3  -9 708.495 27.3227   1
  -3  -3  -9 745.243 32.1347  11
   3   3   9 748.089 22.3132  12
  -3   3  -9 712.204 27.4903   7
 -10  -4   9 125.170 9.44772   5
  10  -4  -9 134.516 10.9862  15
  10  -4  -9 130.527 10.1674   9
  10   4  -9 137.087 9.04641   4
 -10   4   9 124.859 11.0432   8
 -10   4   9 117.433 8.44013   5
  10   4  -9 130.462 9.65085   7
  -8  -4   9 232.798 14.7230  16
   8  -4  -9 247.848 13.5364   9
  -8  -4   9 237.986 13.0608   5
   8  -4  -9 287.922 15.2116  15
  -8  -4   9 265.247 12.4471  12
   8   4  -9 256.036 12.7004   9
  -8   4   9 241.501 12.5264   5
  -8   4   9 237.137 13.2070   8
  -8   4   9 234.497 14.1892  16
   8   4  -9 248.353 12.9246   7
  -8   4   9 236.006 11.7271  12
  -6  -4   9 381.746 18.3087  16
   6  -4  -9 390.574 16.1002   6
   6  -4  -9 376.332 16.8117   9
  -6  -4   9 374.412 15.0359  12
  -6  -4   9 374.600 15.9172   5
   6  -4  -9 392.523 17.7437  15
  -6   4   9 389.457 19.0701  16
  -6   4   9 397.055 17.1488   8
   6   4  -9 385.499 16.4724   7
  -6   4   9 380.970 15.1331  12
  -6   4   9 384.734 16.4215   5
   6   4  -9 402.729 16.7622   9
  -4  -4   9 221.552 12.1580  16
   4  -4  -9 224.106 11.4685   9
  -4  -4   9 210.724 10.1547   5
   4  -4  -9 227.546 11.1713   6
   4  -4  -9 208.121 12.0737  15
  -4  -4   9 205.409 9.42648  12
  -4   4   9 225.932 13.6000  16
   4   4  -9 216.826 11.3109   7
   4   4  -9 211.410 11.1179   9
   4   4  -9 213.893 10.7700  15
  -4   4   9 214.557 9.57444  12
  -4   4   9 197.965 9.94383  13
  -4   4   9 213.711 11.9474   8
   2  -4  -9 373.338 15.1081   9
   2  -4  -9 372.194 15.8360   6
   2  -4  -9 376.690 17.0638  15
  -2  -4   9 371.728 13.3585  12
   2   4  -9 377.823 16.4904   9
  -2   4   9 369.214 12.7970  12
   2   4  -9 368.845 15.9781   7
  -2   4   9 358.909 14.8794  13
   2   4  -9 356.285 15.8820  15
   0  -4  -9 117.337 8.48423   6
   0  -4  -9 135.903 9.52733  15
   0  -4   9 143.581 6.89551  12
   0  -4   9 155.264 9.51695   2
   0  -4  -9 132.829 10.8262  11
   0   4  -9 144.474 9.21080   7
   0   4   9 137.177 5.90621  12
   0   4   9 122.753 8.57896  13
   2  -4   9 107.378 6.51271  12
  -2  -4  -9 95.5543 8.25115  15
  -2  -4  -9 96.4155 11.2288  11
   2  -4   9 81.5832 7.92357   2
  -2   4  -9 113.306 8.63843   7
   2   4   9 91.3472 8.20983  13
   2   4   9 92.9384 5.20566  12
   2   4   9 92.7675 8.60402   3
  -4  -4  -9 69.4337 9.79044  11
   4  -4   9 67.4684 7.99729   4
   4  -4   9 71.8931 6.15329  12
  -4   4  -9 69.6886 8.33861   7
   4   4   9 59.8842 7.91594   3
   4   4   9 70.5232 5.48944  12
 -11  -5   9 334.446 16.8744   5
  11  -5  -9 409.144 19.7626   9
  11  -5  -9 376.445 19.2516  15
  11   5  -9 362.806 18.1457   7
  11   5  -9 385.405 17.4279   4
 -11   5   9 388.020 19.1838   8
   9  -5  -9 355.478 17.8834  15
  -9  -5   9 338.474 16.1716   5
   9  -5  -9 380.435 18.2881   9
  -9   5   9 341.867 17.7106   8
  -9   5   9 343.569 15.6046   5
  -9   5   9 329.837 18.1488  16
   9   5  -9 369.503 17.2747   7
   7  -5  -9 847.307 29.8553   9
  -7  -5   9 775.544 27.2489  12
   7  -5  -9 816.773 30.7674  15
  -7  -5   9 787.883 27.9126   5
  -7  -5   9 785.395 30.8612  16
   7  -5  -9 766.721 27.0977   6
  -7   5   9 819.231 29.6496   8
   7   5  -9 783.158 28.9952   7
  -7   5   9 820.858 31.6053  16
  -7   5   9 806.929 27.4385  12
   7   5  -9 788.875 27.5615   9
  -7   5   9 779.691 27.9912   5
   5  -5  -9 475.877 19.1840   9
   5  -5  -9 449.905 19.9778  15
  -5  -5   9 460.838 20.0375  16
  -5  -5   9 471.549 17.3705  12
  -5  -5   9 480.410 17.7119   5
   5  -5  -9 450.847 18.3204   6
  -5   5   9 416.711 16.9779  13
  -5   5   9 462.931 19.8255   8
  -5   5   9 464.677 21.6967  16
   5   5  -9 457.130 18.4220   9
   5   5  -9 459.354 18.7917   7
  -5   5   9 431.096 16.8630  12
   3  -5  -9 817.478 27.4325   6
   3  -5  -9 751.993 26.4853   9
  -3  -5   9 778.916 26.7907   2
  -3  -5   9 763.625 24.9471  12
   3  -5  -9 793.534 28.7672  15
   3   5  -9 755.242 27.3752   7
  -3   5   9 743.752 24.4371  12
  -3   5   9 766.853 26.0992  13
  -3   5   9 749.949 28.2882   8
   3   5  -9 785.795 27.8014   9
   1  -5  -9 221.585 12.1922  15
  -1  -5   9 206.464 9.45014  12
   1  -5  -9 204.234 11.4431   6
  -1  -5   9 210.731 11.5847   2
  -1   5   9 208.212 11.4253  13
  -1   5   9 209.599 8.81967  12
   1   5  -9 198.140 11.3839   7
  -1  -5  -9 410.904 17.5873   6
  -1  -5  -9 423.646 22.2147  11
   1  -5   9 420.281 15.5434  12
  -1  -5  -9 417.077 18.3662  15
   1  -5   9 416.396 17.5630   2
   1   5   9 385.152 17.2621  13
   1   5   9 408.854 14.3803  12
  -1   5  -9 411.445 18.2165   7
   1   5   9 412.372 17.2400   3
  -3  -5  -9 118.046 12.7435  11
   3  -5   9 114.262 7.95475  12
   3   5   9 92.5577 6.30099  12
  -3   5  -9 89.3989 9.31607   7
   3   5   9 99.2640 8.26063   3
  10  -6  -9 183.334 13.6256  15
 -10  -6   9 170.003 12.0977   5
  10  -6  -9 172.625 13.0855   9
  10   6  -9 179.882 12.5182   7
 -10   6   9 178.870 13.0163   8
  -8  -6   9 164.866 10.2490   5
  -8  -6   9 165.928 12.9309  16
   8  -6  -9 171.560 12.4860  15
  -8  -6   9 150.006 8.62257   2
   8  -6  -9 168.859 11.7485   9
  -8   6   9 167.393 12.3189  16
  -8   6   9 135.788 9.32252  12
  -8   6   9 156.041 10.7517   8
   8   6  -9 141.981 10.7035   7
  -8   6   9 150.730 9.83852   5
  -6  -6   9 133.353 8.62999  12
   6  -6  -9 141.330 9.41987   6
  -6  -6   9 159.608 9.68209   5
  -6  -6   9 140.786 10.8798  16
   6  -6  -9 143.432 9.71021   9
   6  -6  -9 149.869 11.3996  15
  -6  -6   9 147.383 9.13950   2
  -6   6   9 150.346 10.4113   8
   6   6  -9 157.066 10.5832   7
  -6   6   9 150.227 8.79604  12
   6   6  -9 144.662 9.48104   9
  -6   6   9 145.030 11.5223  16
   4  -6  -9 340.915 16.5258  15
   4  -6  -9 323.899 15.0157   9
  -4  -6   9 330.990 14.2042  12
   4  -6  -9 355.692 15.7997   6
  -4  -6   9 336.767 15.0204   2
  -4   6   9 344.161 13.8806  12
   4   6  -9 354.367 16.2034   7
   4   6  -9 331.583 15.5946   9
  -4   6   9 305.678 16.3737   8
  -4   6   9 317.967 14.4917  13
   2  -6  -9 75.9100 7.69873   6
  -2  -6   9 82.7227 7.15246   2
   2  -6  -9 86.4417 7.54584  15
  -2  -6   9 86.2320 6.24983  12
  -2   6   9 85.4608 7.45556  13
   2   6  -9 87.7925 7.40814   7
  -2   6   9 83.9442 5.88492  12
   0  -6   9 132.581 9.88989   2
   0  -6   9 138.548 8.22229  12
   0  -6  -9 137.007 9.80241  15
   0  -6  -9 132.779 9.69507   6
   0   6  -9 146.347 9.95163   7
   0   6   9 149.331 7.74792  12
   0   6   9 141.507 10.0756  13
  -2  -6  -9 68.2377 10.4714  11
   2  -6   9 74.6339 7.59268   2
  -2  -6  -9 64.5452 6.90477   6
   2  -6   9 83.0759 7.12373  12
   2   6   9 75.8504 8.02329   3
   2   6   9 72.7232 5.85129  12
  -2   6  -9 71.2477 7.77606   7
   9  -7  -9 32.3240 6.37872   9
   9  -7  -9 39.0049 7.64380  15
  -9  -7   9 25.7101 5.56724   5
  -9   7   9 24.4887 5.99648   5
   9   7  -9 37.9711 5.95994   7
  -9   7   9 23.3879 5.88487   8
  -7  -7   9 597.481 22.2328   5
  -7  -7   9 620.476 22.3288   2
   7  -7  -9 602.833 25.9078  15
   7  -7  -9 576.524 24.3270   9
  -7  -7   9 578.268 25.5798  16
   7  -7  -9 593.394 22.5331   6
   7   7  -9 633.445 24.8671   7
  -7   7   9 572.779 22.4197  12
  -7   7   9 558.086 25.7586  16
  -7   7   9 597.108 23.0420   5
  -7   7   9 576.372 24.5030   8
  -5  -7   9 64.5184 6.17348  12
  -5  -7   9 57.0658 6.59234   2
   5  -7  -9 53.9277 6.71932   9
   5  -7  -9 80.8957 9.03592  15
   5  -7  -9 71.1047 7.84225   6
   5   7  -9 66.8972 6.51589   9
  -5   7   9 61.0022 8.08761   8
   5   7  -9 55.4899 6.84064   7
  -5   7   9 64.4482 8.36378  16
  -5   7   9 56.8371 6.20162  12
  -5   7   9 66.8583 6.50854  13
   3  -7  -9 907.494 31.8957   6
   3  -7  -9 925.149 33.2200  15
  -3  -7   9 893.542 30.1477  12
  -3  -7   9 895.916 31.2947   2
  -3   7   9 909.187 29.7169  12
   3   7  -9 903.305 32.2259   7
  -3   7   9 923.644 33.9197   8
  -3   7   9 907.721 31.4844  13
  -1  -7   9 177.637 9.48072  12
   1  -7  -9 176.327 11.2571   6
  -1  -7   9 153.194 10.6190   2
   1  -7  -9 155.071 10.5678  15
  -1   7   9 153.879 10.5999  13
   1   7  -9 163.536 11.1455   7
  -1   7   9 152.640 8.80751  12
   1  -7   9 727.621 27.0322   2
  -1  -7  -9 745.338 27.7350   6
   1  -7   9 741.674 25.9241  12
  -1   7  -9 752.623 28.8379   7
   1   7   9 727.381 26.6448   3
   1   7   9 746.087 25.1349  12
   8  -8  -9 49.6285 7.51359  15
   8  -8  -9 46.1286 7.28323   9
  -8  -8   9 45.3519 6.34052   5
  -8   8   9 49.9994 6.87053   8
   8   8  -9 41.9744 6.79424   7
  -8   8   9 49.5069 6.11528   5
   6  -8  -9 24.6929 4.70011   6
  -6  -8   9 31.6673 4.95585   2
  -6  -8   9 21.9227 4.41060   5
   6  -8  -9 24.5115 5.14026   9
   6  -8  -9 25.6480 5.95379  15
  -6  -8   9 31.2600 4.89086  12
   6   8  -9 24.9172 5.48230   7
  -6   8   9 27.7595 6.15516   8
  -6   8   9 23.9483 6.21995  16
  -6   8   9 30.4482 4.80548  12
   4  -8  -9 182.904 12.2792  15
  -4  -8   9 148.277 9.60256  12
  -4  -8   9 159.893 10.5381   2
   4  -8  -9 154.312 10.9697   6
  -4   8   9 157.661 11.9527   8
  -4   8   9 174.202 10.2314  12
   4   8  -9 150.893 11.1106   7
  -4   8   9 163.775 10.7864  13
   2  -8  -9 24.3410 5.26660   6
  -2  -8   9 22.8584 4.32606  12
  -2  -8   9 26.2658 5.28502   2
   2  -8  -9 16.7398 4.31034  15
  -2   8   9 19.6728 5.56200  13
  -2   8   9 17.4830 4.92566   8
  -2   8   9 25.2861 4.11011  12
   2   8  -9 18.2299 5.23316   7
   0  -8   9 111.458 8.20236  12
   0  -8  -9 105.368 9.35757   6
   0  -8   9 107.149 8.74623   2
   0   8  -9 117.017 10.4331   7
   0   8   9 119.132 8.06210  12
  -2  -8  -9 57.0109 7.70339   6
   2   8   9 41.7273 8.15579   3
   7  -9  -9 241.672 15.6663  15
   7  -9  -9 259.101 14.8267   9
   7  -9  -9 237.622 12.8893   6
  -7   9   9 254.150 14.4678  12
   7   9  -9 227.343 14.2680   7
  -7   9   9 230.322 14.1058   8
   5  -9  -9 646.762 24.7820   6
   5  -9  -9 616.148 24.6215   9
   5  -9  -9 620.529 26.2355  15
  -5  -9   9 586.228 23.4007  12
  -5  -9   9 604.785 23.5628   2
  -5   9   9 628.788 26.2066   8
   5   9  -9 612.085 25.2421   7
  -5   9   9 607.510 23.7273  12
   3  -9  -9 132.479 10.3863  15
  -3  -9   9 132.592 9.14490  12
   3  -9  -9 152.541 10.6582   6
  -3  -9   9 138.918 9.62980   2
  -3   9   9 137.167 11.6338   8
   3   9  -9 140.642 11.2213   7
  -3   9   9 151.422 9.59836  12
  -1  -9   9 329.279 15.4839  12
   1  -9  -9 358.159 17.5687   6
  -1  -9   9 326.314 16.8458   2
  -1   9   9 345.920 15.4127  12
   1   9  -9 365.378 18.1590   7
   6 -10  -9 -2.0824 3.45542   6
  -6 -10   9 -0.6880 1.90117   2
   6 -10  -9 1.01880 3.78191  15
   6  10  -9 -0.3981 2.92641   7
  -6  10   9 -0.1126 2.50720  12
  -6  10   9 -3.0999 3.83975   8
  -4 -10   9 29.0007 4.93857   2
   4 -10  -9 42.2492 7.01945   6
   4 -10  -9 37.9520 6.51205  15
  -4  10   9 51.7485 6.76152  12
   4  10  -9 30.4682 6.50097   7
  -4  10   9 33.7666 6.13665   8
  -2 -10   9 7.54684 4.39002   2
   2 -10  -9 1.50608 3.07294   6
  -2 -10   9 4.59684 3.14099  12
  -2  10   9 13.4015 3.53155  12
   2  10  -9 9.13585 4.81689   7
  -2  10   9 9.95522 3.92863   8
  12   0 -10 50.6054 6.19630   4
  10   0 -10 1408.55 44.8555   9
  10   0 -10 1344.95 42.0503   4
 -10   0  10 1263.55 43.5197   8
 -10   0  10 1327.83 43.7474   5
  -8   0  10 132.743 9.93802   5
  -8   0  10 141.962 8.56651  12
   8   0 -10 138.871 9.54318  15
   8   0 -10 128.430 10.0141   9
  -8   0  10 134.721 9.35203   8
  -8   0  10 143.839 11.3811  16
  -6   0  10 1390.26 43.9535   5
  -6   0  10 1330.76 42.9064   8
   6   0 -10 1494.32 45.5238  15
  -6   0  10 1378.09 47.4101  16
   6   0 -10 1442.21 45.4126   9
  -6   0  10 1425.18 42.3192  12
  -4   0  10 73.0608 6.76746   5
  -4   0  10 79.8155 7.68379  16
  -4   0  10 82.9348 5.09915  12
   4   0 -10 88.0334 7.44040   9
   4   0 -10 86.6760 7.80399  15
   2   0 -10 829.335 28.7035   9
   2   0 -10 824.604 30.0412  15
  -2   0  10 827.695 27.7732   5
  -2   0  10 834.470 23.7643  12
  -2   0  10 830.550 30.5590  16
   0   0 -10 43.7526 4.90407   7
   0   0 -10 43.9749 5.26882   9
   0   0 -10 40.8657 6.02588  15
   2   0  10 547.582 16.3655  12
 -11  -1  10 50.1621 7.15324   8
  11  -1 -10 50.9569 7.57317   9
 -11  -1  10 47.0481 6.71570   5
 -11   1  10 56.5529 6.74853   5
 -11   1  10 44.9189 6.92703   8
  11   1 -10 62.1103 6.74129   4
   9  -1 -10 103.878 7.00018   4
  -9  -1  10 98.7709 7.68593   8
  -9  -1  10 99.2761 7.70198  12
  -9  -1  10 100.714 8.98372   5
   9  -1 -10 116.173 9.15871   9
   9  -1 -10 105.968 8.81716  15
  -9  -1  10 105.427 10.8017  16
  -9   1  10 103.217 7.75215  12
  -9   1  10 107.792 9.03271   5
   9   1 -10 106.310 9.32789   9
  -9   1  10 89.3379 9.40483  16
  -9   1  10 114.776 9.51947   8
   7  -1 -10 9.41834 4.05952  15
  -7  -1  10 10.2705 3.98195  16
  -7  -1  10 6.06431 3.02699   8
   7  -1 -10 5.87090 3.56205   9
  -7  -1  10 5.77697 2.53814  12
  -7  -1  10 14.0631 4.22154   5
  -7   1  10 9.58867 3.78585   8
   7   1 -10 5.22099 2.96264  15
  -7   1  10 1.49949 3.39336   5
  -7   1  10 11.0170 2.94552  12
  -7   1  10 5.46255 4.28734  16
   7   1 -10 11.2083 3.45359   9
   5  -1 -10 189.193 10.9711   9
   5  -1 -10 202.071 11.5439  15
  -5  -1  10 204.848 12.9360  16
  -5  -1  10 205.066 10.8937   5
  -5   1  10 181.147 10.3725   8
  -5   1  10 205.169 9.20094  12
   5   1 -10 206.957 11.5354  15
  -5   1  10 186.186 12.6963  16
   5   1 -10 210.926 11.3900   9
  -5   1  10 199.368 10.9935   5
   3  -1 -10 19.8222 3.86794   9
   3  -1 -10 10.9951 2.80392   6
   3  -1 -10 15.1591 4.31410  15
  -3  -1  10 12.6439 3.47099   5
  -3  -1  10 22.3047 4.81555  16
  -3   1  10 12.9992 3.82482   5
  -3   1  10 9.35269 1.84432  12
   3   1 -10 12.8190 3.44588  15
   3   1 -10 15.2255 2.92293   7
  -3   1  10 12.7733 3.64771   8
  -3   1  10 13.1836 3.90114  16
   3   1 -10 15.5659 3.51561   9
   1  -1 -10 44.1754 5.00321   6
   1  -1 -10 53.8375 7.12221  15
   1  -1 -10 43.5249 5.37713   9
  -1  -1  10 44.3694 2.71772  12
   1   1 -10 44.1370 5.65204   9
   1   1 -10 40.9739 5.10345   7
  -1   1  10 42.8966 6.43900  16
  -1   1  10 40.9594 1.97385  12
   1   1 -10 44.7257 6.20247  15
  -1  -1 -10 74.0044 8.19160  15
   1  -1  10 68.4801 3.54334  12
  -1   1 -10 58.1740 6.42076   7
   3  -1  10 1.36407 3.34902   4
   3  -1  10 1.90484 1.84868  12
   3   1  10 0.20779 1.49204  12
  10  -2 -10 53.9057 7.59255   9
 -10  -2  10 53.6118 10.4286   8
 -10  -2  10 58.9869 7.35001   5
 -10   2  10 55.0387 6.79902   5
  10   2 -10 56.4900 6.06575   4
 -10   2  10 63.6323 8.10375   8
  10   2 -10 66.6116 7.05810   9
  -8  -2  10 580.103 25.9873  16
   8  -2 -10 579.510 23.9641   9
  -8  -2  10 582.951 22.6160   5
   8  -2 -10 618.692 24.2668  15
  -8  -2  10 593.323 21.7570  12
  -8   2  10 585.880 25.9390  16
  -8   2  10 579.147 22.4067   5
   8   2 -10 610.416 23.5730   9
   8   2 -10 588.584 22.4108   7
  -8   2  10 587.343 23.2496   8
  -8   2  10 574.856 21.6170  12
  -6  -2  10 184.376 9.23720  12
  -6  -2  10 193.299 10.3671   5
   6  -2 -10 185.498 11.1708   9
   6  -2 -10 198.247 11.8896  15
  -6  -2  10 185.531 12.7826  16
   6   2 -10 177.418 11.0109   9
   6   2 -10 174.300 10.2424  15
  -6   2  10 177.964 12.2019  16
  -6   2  10 177.966 8.91652  12
   6   2 -10 156.387 9.33463   7
  -6   2  10 191.292 10.6365   8
  -6   2  10 177.033 10.6566   5
  -4  -2  10 1417.24 40.4144  12
   4  -2 -10 1421.22 44.0289   9
   4  -2 -10 1374.30 45.0726  15
  -4  -2  10 1318.85 44.8958  16
  -4  -2  10 1375.62 42.1562   5
   4  -2 -10 1359.35 42.6921   6
  -4   2  10 1352.94 46.5189  16
   4   2 -10 1353.39 42.3860   7
   4   2 -10 1361.31 43.7989  15
  -4   2  10 1393.15 39.9914  12
  -4   2  10 1410.10 43.6240   8
   4   2 -10 1378.61 43.9042   9
   2  -2 -10 325.836 14.4863   9
   2  -2 -10 325.244 14.6202   6
  -2  -2  10 336.927 11.5145  12
   2  -2 -10 334.271 16.0655  15
  -2   2  10 338.311 17.3156  16
   2   2 -10 355.665 16.2047  15
  -2   2  10 327.175 10.8761  12
   2   2 -10 337.136 15.2382   9
   2   2 -10 336.574 14.3796   7
  -2   2  10 334.654 14.9178   8
   0  -2 -10 1072.14 35.9383   6
   0  -2 -10 1130.45 38.8985  15
   0  -2  10 1165.92 32.2693  12
   0  -2  10 1180.48 36.5306   2
   0   2 -10 1130.98 39.1471  15
   0   2 -10 1086.93 36.9087   7
   2  -2  10 167.601 7.43541  12
  -2  -2 -10 172.662 11.7485  15
   2   2  10 169.665 6.28376  12
  -2   2 -10 172.671 11.2585   7
 -11  -3  10 1.61716 3.74405   5
  11  -3 -10 -1.7738 2.45179   9
 -11   3  10 1.66895 3.22717   5
 -11   3  10 1.58766 3.39424   8
  11   3 -10 3.74665 2.26958   4
   9  -3 -10 9.90378 3.77209  15
  -9  -3  10 3.40525 4.28848   5
   9  -3 -10 12.5940 4.86204   9
  -9  -3  10 8.69455 4.11062  16
  -9  -3  10 7.60246 2.99756  12
  -9   3  10 15.1483 4.41694   5
  -9   3  10 11.5750 4.95022   8
   9   3 -10 11.7547 3.66511   7
  -9   3  10 9.50647 3.80055  16
  -9   3  10 6.36747 3.03729  12
   9   3 -10 5.61817 3.62469   9
  -7  -3  10 11.2288 4.27395   5
  -7  -3  10 8.01816 3.58675  16
   7  -3 -10 10.5297 3.69367  15
   7  -3 -10 10.5185 3.96783   9
  -7  -3  10 16.7102 3.47869  12
  -7   3  10 10.5300 3.38849  12
  -7   3  10 14.3790 4.24727   5
  -7   3  10 18.5285 4.40574   8
   7   3 -10 15.6924 3.43832   7
   7   3 -10 9.16883 3.19788   9
  -7   3  10 11.1372 4.04097  16
   5  -3 -10 67.2166 7.26788   9
  -5  -3  10 87.2537 8.68609  16
   5  -3 -10 74.3448 8.22565  15
  -5  -3  10 76.0742 5.68033  12
   5  -3 -10 70.0919 6.34876   6
  -5  -3  10 87.2416 7.18585   5
  -5   3  10 72.6550 7.77005   8
  -5   3  10 86.0995 7.66381   5
   5   3 -10 74.4921 6.38089  15
  -5   3  10 72.0774 7.95322  16
   5   3 -10 71.1473 6.25007   7
  -5   3  10 82.8186 5.67110  12
   5   3 -10 69.2125 6.63614   9
   3  -3 -10 -0.2019 2.61916   6
   3  -3 -10 -0.3941 2.84461  15
  -3  -3  10 1.26546 1.55551  12
   3  -3 -10 -1.9300 2.01476   9
  -3   3  10 0.28102 1.49363  12
   3   3 -10 3.36129 2.90099   9
  -3   3  10 -0.5869 2.18699   8
   3   3 -10 4.61004 3.24987  15
  -3   3  10 1.34192 3.56852  16
   3   3 -10 6.92203 2.48881   7
  -1  -3  10 24.4545 4.67543   2
  -1  -3  10 21.8724 2.88619  12
   1  -3 -10 20.5837 4.11224   6
   1  -3 -10 17.5849 4.43850  15
   1   3 -10 19.0563 3.80835   7
   1   3 -10 15.6408 4.22152   9
   1   3 -10 12.5492 4.51701  15
  -1   3  10 21.3870 2.18472  12
   1  -3  10 34.4209 4.72061   2
   1  -3  10 28.1681 3.32452  12
  -1  -3 -10 29.3970 5.73024  15
  -1   3 -10 31.8548 5.17361   7
   1   3  10 26.8701 2.38384  12
   3  -3  10 0.23673 2.01802  12
   3   3  10 0.01550 3.84446   3
  -3   3 -10 -3.0678 3.25608   7
   3   3  10 2.02294 1.68035  12
  10  -4 -10 109.484 10.5435  15
  10  -4 -10 116.888 10.8479   9
 -10  -4  10 107.719 9.04906   5
 -10   4  10 118.573 10.0489   8
  10   4 -10 108.483 9.29101   7
 -10   4  10 114.326 8.60005   5
  -8  -4  10 1267.75 41.3244   5
   8  -4 -10 1334.69 44.1588  15
  -8  -4  10 1227.82 40.4647  12
  -8  -4  10 1211.86 45.0971  16
   8  -4 -10 1315.16 43.5282   9
  -8   4  10 1289.42 40.7309  12
  -8   4  10 1286.04 41.5801   5
  -8   4  10 1208.04 44.8232  16
  -8   4  10 1294.13 42.8264   8
   8   4 -10 1305.27 41.6475   9
   8   4 -10 1304.86 42.3977   7
  -6  -4  10 62.8508 5.58790  12
   6  -4 -10 59.6694 7.26346   9
   6  -4 -10 68.9608 8.51817  15
   6  -4 -10 59.1502 6.77500   6
  -6  -4  10 62.5343 6.29129   5
  -6  -4  10 55.0590 7.72186  16
  -6   4  10 58.4535 5.81901  12
  -6   4  10 53.6319 6.57509   5
   6   4 -10 65.2835 6.97690   7
   6   4 -10 58.3132 6.71209   9
  -6   4  10 57.4232 7.81573  16
  -6   4  10 71.2515 7.60541   8
   4  -4 -10 1276.65 42.5509  15
  -4  -4  10 1290.57 38.6007   5
   4  -4 -10 1206.04 40.4050   9
   4  -4 -10 1236.09 40.1441   6
  -4  -4  10 1267.56 37.8969  12
  -4   4  10 1232.59 37.4459  12
   4   4 -10 1237.86 40.3655   7
   4   4 -10 1258.12 41.0243   9
  -4   4  10 1244.59 41.3634   8
  -4   4  10 1274.35 44.9947  16
   4   4 -10 1211.85 39.8921  15
   2  -4 -10 13.0652 3.17988   9
   2  -4 -10 10.4396 4.00106  15
  -2  -4  10 11.9290 2.74097  12
   2  -4 -10 10.1387 3.76328   6
  -2  -4  10 13.9044 4.14644   2
   2   4 -10 14.0673 4.49691  15
  -2   4  10 12.1257 4.56663   8
   2   4 -10 17.8636 4.23450   7
   2   4 -10 17.4799 3.83569   9
  -2   4  10 12.8385 2.34100  12
   0  -4 -10 717.003 26.0397   6
   0  -4 -10 683.818 27.0295  15
   0  -4  10 724.944 22.9645  12
   0  -4  10 746.532 26.1491   2
   0   4 -10 733.475 27.0571   7
   0   4  10 663.903 25.3725  13
   0   4  10 714.329 21.4587  12
  -2  -4 -10 16.2137 5.75413  11
   2  -4  10 21.1758 3.60654  12
  -2  -4 -10 19.4537 4.81716  15
  -2   4 -10 13.9449 3.96177   7
   2   4  10 19.7578 2.71582  12
   9  -5 -10 60.2346 8.00064  15
   9  -5 -10 71.1171 8.63214   9
  -9  -5  10 44.3943 6.93000   5
  -9   5  10 52.8088 7.15799   8
   9   5 -10 66.1621 8.29820   7
  -9   5  10 50.9311 6.29704   5
  -9   5  10 58.3508 6.58558  12
   7  -5 -10 270.960 14.2367   9
   7  -5 -10 248.033 14.4608  15
  -7  -5  10 240.387 12.9178   5
  -7  -5  10 234.463 15.1194  16
  -7  -5  10 230.406 11.9542  12
   7  -5 -10 227.590 12.3771   6
  -7   5  10 245.419 13.3224   5
  -7   5  10 267.498 12.5709  12
  -7   5  10 231.768 14.1210   8
   7   5 -10 225.448 13.2300   7
   7   5 -10 235.407 12.9830   9
  -7   5  10 242.611 15.5337  16
   5  -5 -10 94.6267 7.54148   6
  -5  -5  10 82.7239 7.13546   5
  -5  -5  10 81.4103 6.40404  12
   5  -5 -10 79.2732 7.58844   9
  -5  -5  10 82.8187 8.47826  16
   5  -5 -10 98.2450 9.04731  15
  -5   5  10 87.1126 6.59109  12
   5   5 -10 84.8312 7.94455   7
   5   5 -10 90.9107 8.47323   9
  -5   5  10 84.9484 8.05784   8
  -5   5  10 86.5069 9.55561  16
  -3  -5  10 279.459 13.9003   2
  -3  -5  10 277.389 12.0932  12
   3  -5 -10 263.238 13.5893   6
   3  -5 -10 293.576 15.4430  15
   3  -5 -10 268.493 13.0628   9
  -3   5  10 283.914 11.6284  12
  -3   5  10 271.976 15.3794   8
   3   5 -10 281.554 14.3381   7
   3   5 -10 279.966 14.1898   9
  -3   5  10 285.103 13.2665  13
  -1  -5  10 167.473 8.44236  12
   1  -5 -10 153.457 9.82370   6
   1  -5 -10 149.701 10.8185  15
  -1  -5  10 153.644 10.5857   2
   1   5 -10 151.944 10.7431   7
  -1   5  10 156.258 7.42054  12
  -1   5  10 143.632 9.76524  13
  -1  -5 -10 69.1710 6.93492  15
   1  -5  10 72.0668 5.74929  12
  -1  -5 -10 78.2176 7.84005   6
   1  -5  10 62.5695 6.64988   2
  -1   5 -10 76.8546 8.03836   7
   1   5  10 74.4846 4.99331  12
  10  -6 -10 409.123 20.8726   9
 -10  -6  10 410.628 19.2545   5
  10  -6 -10 431.215 21.5742  15
 -10   6  10 394.736 19.6065   8
  10   6 -10 428.363 19.9130   7
  -8  -6  10 42.6773 6.53885   5
   8  -6 -10 31.3876 6.23137   9
  -8  -6  10 27.7302 4.59346   2
   8  -6 -10 41.4175 7.65557  15
  -8   6  10 37.4005 5.53552  12
   8   6 -10 38.5109 5.82315   9
   8   6 -10 30.6027 5.84830   7
  -8   6  10 50.4891 7.88347   8
  -8   6  10 30.5168 5.33691   5
  -6  -6  10 904.605 29.8089   5
   6  -6 -10 883.457 30.8516   6
  -6  -6  10 868.215 29.6117  12
  -6  -6  10 858.534 32.6465  16
  -6  -6  10 850.267 29.9897   2
   6  -6 -10 887.795 33.6594  15
   6  -6 -10 846.276 31.6510   9
  -6   6  10 840.185 31.9907   8
   6   6 -10 910.333 31.2290   9
  -6   6  10 813.764 33.9165  16
  -6   6  10 873.793 29.6673  12
   6   6 -10 881.058 31.6750   7
   4  -6 -10 113.879 9.32955   6
   4  -6 -10 113.900 9.87562  15
  -4  -6  10 97.6481 7.47597  12
  -4  -6  10 113.027 8.13877   2
   4  -6 -10 104.009 7.86369   9
  -4   6  10 105.222 11.0966  16
   4   6 -10 101.137 9.04307   9
  -4   6  10 105.755 7.31654  12
  -4   6  10 131.023 9.95954   8
   4   6 -10 111.809 9.11043   7
  -4   6  10 114.325 7.90770  13
   2  -6 -10 1066.28 36.2166   6
  -2  -6  10 1013.61 33.0931  12
   2  -6 -10 1065.01 37.0168  15
  -2  -6  10 1013.06 35.0408   2
  -2   6  10 1047.11 37.5679   8
  -2   6  10 1085.08 32.7903  12
   2   6 -10 1034.40 36.0233   7
  -2   6  10 1020.89 34.9252  13
   0  -6 -10 105.542 8.91366  15
   0  -6  10 101.590 9.19190   2
   0  -6  10 99.9774 7.14578  12
   0  -6 -10 119.775 9.17535   6
   0   6  10 100.535 6.45416  12
   0   6 -10 116.226 9.75008   7
   9  -7 -10 23.8766 5.88589   9
  -9  -7  10 15.3842 5.15301   5
   9  -7 -10 14.8846 5.90093  15
  -9   7  10 14.0954 5.33862   8
  -9   7  10 8.32217 3.32736   5
   9   7 -10 9.08575 3.61126   7
  -7  -7  10 53.8845 6.54093  12
   7  -7 -10 49.9125 6.82242   6
   7  -7 -10 52.5975 7.15942   9
  -7  -7  10 48.5665 6.42075   5
   7  -7 -10 51.6759 8.43979  15
  -7  -7  10 45.9666 5.70323   2
  -7   7  10 41.5005 5.65281   5
   7   7 -10 64.4681 8.30412   7
  -7   7  10 43.1212 6.87534   8
  -7   7  10 43.9001 5.73881  12
   7   7 -10 50.1436 6.33505   9
   5  -7 -10 1.60061 2.07128   9
   5  -7 -10 -4.6974 2.82006  15
  -5  -7  10 0.09606 2.28704   2
   5  -7 -10 -0.3819 2.67942   6
  -5  -7  10 1.40402 2.43657  12
  -5   7  10 -0.9267 2.06839  12
  -5   7  10 0.67953 2.34979  13
  -5   7  10 1.45131 3.30210   8
   5   7 -10 3.02536 2.88978   7
  -3  -7  10 27.2765 4.44100  12
   3  -7 -10 35.5032 6.10781  15
   3  -7 -10 33.1290 5.46166   6
  -3  -7  10 25.3388 4.74516   2
  -3   7  10 33.0259 4.72850  12
   3   7 -10 30.8276 5.30474   7
  -3   7  10 32.6780 7.08399   8
  -3   7  10 23.6724 4.76848  13
  -1  -7  10 5.50040 2.67677  12
  -1  -7  10 3.85905 4.17734   2
   1  -7 -10 2.31218 2.60032   6
   1  -7 -10 3.12599 2.43951  15
   1   7 -10 2.07639 2.66139   7
  -1   7  10 2.52627 2.64921  12
   1  -7  10 2.04545 2.38335  12
  -1  -7 -10 4.37302 3.45962   6
   1  -7  10 1.62863 4.11151   2
  -1   7 -10 0.59699 3.92310   7
   1   7  10 3.70685 2.59529  12
   8  -8 -10 225.767 15.8117  15
  -8  -8  10 241.536 13.2296   5
   8  -8 -10 241.536 14.7733   9
   8   8 -10 244.824 14.6945   7
  -8   8  10 227.039 14.6206   8
  -8   8  10 218.100 12.2961   5
   6  -8 -10 446.999 20.1865   9
  -6  -8  10 407.206 18.5112   2
   6  -8 -10 467.081 22.5604  15
   6  -8 -10 449.439 19.6172   6
  -6  -8  10 449.292 18.9185  12
  -6   8  10 432.111 18.8686  12
   6   8 -10 452.484 20.8299   7
  -6   8  10 446.686 21.5458   8
  -4  -8  10 148.988 9.71138  12
  -4  -8  10 156.223 10.7613   2
   4  -8 -10 161.598 11.4921  15
   4  -8 -10 155.473 11.4107   6
   4   8 -10 152.283 11.3622   7
  -4   8  10 154.942 9.73070  12
  -4   8  10 143.091 12.4485   8
  -2  -8  10 341.963 17.0936   2
  -2  -8  10 361.477 15.8881  12
   2  -8 -10 354.396 17.6432  15
   2  -8 -10 348.557 17.5598   6
  -2   8  10 366.925 15.6526  12
  -2   8  10 364.199 18.8006   8
   2   8 -10 354.218 17.9063   7
   0  -8 -10 59.0087 7.55389   6
   0  -8  10 82.1333 8.93725   2
   0  -8  10 68.3040 6.51811  12
   0   8  10 53.8858 6.21188  12
   0   8 -10 74.6501 9.17354   7
   7  -9 -10 -1.0056 3.65773  15
   7  -9 -10 0.48966 3.80793   6
   7  -9 -10 3.69167 3.29042   9
   7   9 -10 -4.1971 3.46325   7
  -7   9  10 0.28473 4.18812   8
  -7   9  10 4.81547 2.91240  12
  -7   9  10 2.91853 2.42014   5
   5  -9 -10 11.2724 3.95630   6
  -5  -9  10 11.7531 4.14477   2
   5  -9 -10 6.36483 3.35276  15
  -5  -9  10 5.63431 3.15180  12
  -5   9  10 8.40599 4.06665   8
   5   9 -10 5.10490 4.15935   7
  -5   9  10 5.31935 3.08194  12
   3  -9 -10 7.52103 4.89508   6
  -3  -9  10 4.72951 3.09946   2
   3  -9 -10 2.15326 2.38417  15
  -3  -9  10 3.13372 2.98811  12
  -3   9  10 9.55853 3.41069  12
  -3   9  10 5.80709 3.48093   8
   3   9 -10 4.14174 3.47736   7
 -10   0  11 -2.9322 3.63197   5
 -10   0  11 -1.0573 3.48451   8
  10   0 -11 -0.1006 3.81147   9
   8   0 -11 1.04889 3.25536  15
  -8   0  11 5.31362 3.67736  16
  -8   0  11 -3.3657 2.97643   8
   8   0 -11 -0.2890 2.48017   9
  -8   0  11 2.87410 3.87565   5
  -8   0  11 4.04913 2.59187  12
   6   0 -11 2.47482 2.93379   9
   6   0 -11 1.40839 3.41168  15
  -6   0  11 -2.5114 3.74377  16
  -6   0  11 -1.1540 3.34236   5
  -4   0  11 1.23890 1.71465  12
  -4   0  11 -1.2503 3.24824  16
   4   0 -11 6.85827 3.53539   9
  -4   0  11 0.50604 2.21919   5
   4   0 -11 -0.2345 2.17891  15
   0   0 -11 2.33194 2.67515  15
 -11  -1  11 63.9358 7.21524   5
  11  -1 -11 89.8007 9.96608   9
 -11   1  11 64.0694 8.34431   8
 -11   1  11 54.7525 6.66664   5
  11   1 -11 57.6307 7.52629   9
   9  -1 -11 707.145 27.6358   9
  -9  -1  11 663.148 25.6115   5
  -9  -1  11 631.310 24.2838  12
  -9   1  11 678.007 26.0223   5
  -9   1  11 646.684 25.7955   8
  -9   1  11 648.960 24.4464  12
   9   1 -11 701.891 27.0267   9
  -7  -1  11 179.206 9.63265  12
   7  -1 -11 175.134 11.7173   9
   7  -1 -11 160.133 11.4728  15
  -7  -1  11 181.616 12.9056  16
  -7  -1  11 172.957 11.1728   5
   7   1 -11 183.854 11.2672  15
  -7   1  11 159.567 11.0379   5
  -7   1  11 184.548 9.76134  12
  -7   1  11 163.146 13.0252  16
   7   1 -11 164.767 11.4938   9
  -7   1  11 176.727 10.8103   8
  -5  -1  11 699.832 25.1000   5
  -5  -1  11 714.812 23.2646  12
   5  -1 -11 713.568 26.7877   9
  -5  -1  11 697.358 28.5658  16
   5  -1 -11 708.719 27.3731  15
  -5   1  11 689.847 24.9925   8
  -5   1  11 675.234 25.6824   5
   5   1 -11 738.633 27.0439  15
  -5   1  11 714.545 23.1512  12
  -5   1  11 697.622 29.0951  16
   5   1 -11 710.033 26.8260   9
  -3  -1  11 264.418 12.6205   5
   3  -1 -11 273.516 14.9871  15
  -3  -1  11 274.525 10.1930  12
  -3  -1  11 252.474 14.1305  16
   3  -1 -11 252.408 13.0646   9
  -3   1  11 271.152 9.92759  12
   3   1 -11 280.222 15.1339  15
  -3   1  11 261.488 13.3641   5
   3   1 -11 272.049 13.7469   9
  -3   1  11 262.798 15.6317  16
  -1  -1  11 473.569 14.3509  12
   1  -1 -11 474.551 21.2476  15
   1  -1 -11 437.103 18.3974   9
   1   1 -11 495.898 19.8891   9
  -1   1  11 452.154 13.5331  12
   1   1 -11 467.783 20.8703  15
   1  -1  11 251.936 8.85546  12
  -1  -1 -11 271.753 15.4270  15
  10  -2 -11 200.264 13.3268   9
 -10  -2  11 187.376 12.5234   5
 -10   2  11 158.497 11.1050   5
 -10   2  11 126.258 13.0959  12
 -10   2  11 173.770 12.2741   8
  -8  -2  11 288.028 13.5848  12
   8  -2 -11 304.670 16.3074   9
  -8  -2  11 286.829 14.4261   5
   8  -2 -11 332.047 16.6547  15
  -8  -2  11 257.802 16.8743  16
  -8   2  11 271.938 14.5440   5
  -8   2  11 277.093 14.8714   8
   8   2 -11 322.070 16.0544   9
  -8   2  11 270.674 17.2830  16
  -8   2  11 288.795 13.6825  12
   6  -2 -11 241.973 13.6517   9
   6  -2 -11 226.643 14.1341  15
  -6  -2  11 246.092 11.3115  12
  -6  -2  11 259.977 13.3611   5
  -6  -2  11 237.638 15.1989  16
  -6   2  11 235.542 15.5524  16
   6   2 -11 249.410 14.0103   9
  -6   2  11 255.547 13.5336   5
  -6   2  11 248.534 11.2155  12
  -6   2  11 248.260 13.3762   8
   6   2 -11 254.799 13.2439  15
   4  -2 -11 232.137 13.9304  15
  -4  -2  11 221.192 11.5294   5
  -4  -2  11 220.089 9.60590  12
  -4  -2  11 217.040 13.0616  16
   4  -2 -11 228.257 12.0079   6
   4  -2 -11 211.631 12.2575   9
  -4   2  11 225.811 12.4331   8
  -4   2  11 215.919 12.4050   5
   4   2 -11 233.445 11.6284   7
   4   2 -11 229.870 12.7751   9
   4   2 -11 220.224 13.0263  15
  -4   2  11 217.792 9.46033  12
  -4   2  11 228.671 14.4073  16
   2  -2 -11 202.323 11.1180   9
   2  -2 -11 228.121 13.5710  15
   2  -2 -11 216.146 11.2223   6
  -2  -2  11 224.538 8.60333  12
   2   2 -11 212.695 13.3072  15
  -2   2  11 187.250 13.5528  16
   2   2 -11 216.345 11.5121   7
   2   2 -11 217.710 12.1635   9
  -2   2  11 205.966 7.78060  12
   0  -2 -11 85.7766 9.03060  15
   0  -2  11 93.3834 4.99066  12
   0  -2  11 116.479 8.51834   2
   0   2 -11 91.6017 7.95610   7
   2  -2  11 95.3953 6.20509  12
  -2   2 -11 100.927 11.9853   7
   9  -3 -11 136.462 11.2577  15
   9  -3 -11 131.463 11.2379   9
  -9  -3  11 126.455 10.6848   5
  -9  -3  11 124.395 8.73509  12
   9   3 -11 137.919 10.6193   9
  -9   3  11 125.103 10.7857   8
  -9   3  11 134.626 9.19222  12
  -9   3  11 133.595 10.2129   5
  -7  -3  11 749.589 31.5030  16
  -7  -3  11 784.280 27.4052  12
   7  -3 -11 869.075 31.7830  15
   7  -3 -11 831.393 30.7576   9
  -7  -3  11 810.133 28.9175   5
  -7   3  11 820.082 29.3971   5
   7   3 -11 823.817 30.0651   9
  -7   3  11 780.626 32.6373  16
   7   3 -11 782.268 28.4817   7
  -7   3  11 795.834 27.4161  12
  -7   3  11 819.349 29.8765   8
   5  -3 -11 189.693 11.7200   9
   5  -3 -11 202.852 11.2182   6
   5  -3 -11 191.263 12.7239  15
  -5  -3  11 172.670 12.3029  16
  -5  -3  11 179.441 9.96951   5
  -5  -3  11 181.085 9.14044  12
  -5   3  11 198.425 9.29184  12
   5   3 -11 174.653 11.0360  15
  -5   3  11 175.882 10.7687   8
  -5   3  11 165.238 12.6405  16
  -5   3  11 182.612 11.7156   5
   5   3 -11 174.499 10.5290   7
   5   3 -11 175.054 11.3891   9
  -3  -3  11 999.067 30.2423  12
   3  -3 -11 934.423 33.1776   9
   3  -3 -11 1022.03 36.1898  15
   3  -3 -11 965.877 33.6229   6
   3   3 -11 1003.95 34.5011   9
   3   3 -11 975.482 34.4703  15
   3   3 -11 1013.67 33.8708   7
  -3   3  11 966.376 37.4992  16
  -3   3  11 992.233 29.6176  12
  -3   3  11 980.473 34.4868   8
   1  -3 -11 90.5502 7.33627   6
   1  -3 -11 100.115 8.75934  15
  -1  -3  11 102.112 8.62712   2
  -1  -3  11 102.639 5.75219  12
  -1   3  11 97.3110 8.89291   8
  -1   3  11 100.964 10.3307  16
  -1   3  11 91.3267 4.49173  12
   1   3 -11 115.747 8.73108   7
   1  -3  11 552.080 18.2164  12
  -1  -3 -11 538.635 23.5609  15
  -1   3 -11 557.184 22.5891   7
  10  -4 -11 3.16021 3.26204   9
 -10  -4  11 3.39176 4.54504   5
  10  -4 -11 4.49759 4.66818  15
 -10   4  11 3.81817 3.49795   5
 -10   4  11 5.21967 5.23085   8
  -8  -4  11 51.9679 6.27427  12
   8  -4 -11 61.8091 8.21232  15
   8  -4 -11 52.1620 7.20064   9
  -8  -4  11 52.6526 7.05699   5
   8   4 -11 66.4215 7.64023   7
   8   4 -11 50.9528 6.97896   9
  -8   4  11 46.8044 6.40418   5
  -8   4  11 45.8649 7.32594   8
  -8   4  11 48.0989 5.88642  12
  -6  -4  11 28.4769 6.22057  16
  -6  -4  11 28.2952 5.12186   5
   6  -4 -11 27.6951 5.36164   9
   6  -4 -11 25.0784 6.01587  15
   6  -4 -11 22.8821 5.08876   6
  -6  -4  11 24.9750 4.13289  12
  -6   4  11 24.6183 4.10446  12
   6   4 -11 27.4752 5.50393   9
  -6   4  11 22.2014 5.39050  16
  -6   4  11 20.6454 5.59155   8
   6   4 -11 28.5982 5.27109   7
  -6   4  11 26.6863 5.63001   5
  -4  -4  11 56.5353 5.30400  12
   4  -4 -11 53.7733 6.89064   6
   4  -4 -11 65.0862 8.04777  15
   4  -4 -11 61.6720 6.93730   9
  -4   4  11 52.3901 8.12553  16
  -4   4  11 59.6605 7.78416   8
   4   4 -11 49.2920 6.46538   9
  -4   4  11 55.9949 5.08542  12
   4   4 -11 51.2353 6.91198  15
   4   4 -11 54.9556 6.51532   7
   2  -4 -11 83.6115 8.73969  15
  -2  -4  11 92.4117 6.52310  12
  -2  -4  11 104.438 8.96233   2
   2  -4 -11 93.3143 8.14612   6
  -2   4  11 94.4835 9.21209   8
  -2   4  11 93.0921 5.43642  12
  -2   4  11 84.3530 9.31440  16
   2   4 -11 95.1017 8.83465   9
   2   4 -11 82.7790 8.13930   7
   0  -4  11 43.4298 4.39868  12
   0  -4 -11 34.6353 6.24950  15
   0  -4  11 36.3444 5.89462   2
   0  -4 -11 35.2839 5.36171   6
   0   4  11 33.4981 3.02039  12
   0   4 -11 35.4297 5.52017   7
  -9  -5  11 365.721 17.1861   5
   9  -5 -11 378.013 19.2027   9
   9  -5 -11 414.613 20.9900  15
  -9   5  11 359.486 16.5873  12
  -9   5  11 370.049 19.0182   8
  -9   5  11 348.978 17.0776   5
   9   5 -11 361.473 17.1387   9
   9   5 -11 363.532 17.9746   7
  -7  -5  11 159.993 10.8231   5
   7  -5 -11 189.015 12.0380   9
   7  -5 -11 180.812 13.4215  15
  -7  -5  11 171.277 10.1133  12
   7  -5 -11 163.917 10.9316   6
  -7   5  11 177.224 10.1649  12
  -7   5  11 175.655 10.9681   5
   7   5 -11 167.200 10.9211   9
   7   5 -11 144.833 10.8475   7
  -7   5  11 177.984 12.6965   8
   5  -5 -11 349.007 17.1914   9
  -5  -5  11 391.074 15.5976  12
   5  -5 -11 365.139 17.3738   6
   5  -5 -11 371.035 19.0317  15
   5   5 -11 344.489 17.4375   9
   5   5 -11 370.136 17.1185   7
  -5   5  11 338.776 17.8757   8
  -5   5  11 379.057 15.4665  12
   3  -5 -11 194.284 11.8143   6
   3  -5 -11 191.362 12.8850  15
  -3  -5  11 192.872 9.99556  12
  -3  -5  11 172.871 11.4658   2
  -3   5  11 186.757 9.32144  12
   3   5 -11 175.873 11.6838   7
  -3   5  11 197.328 13.1735   8
   3   5 -11 195.731 12.5055   9
   1  -5 -11 304.362 15.4530   6
   1  -5 -11 324.092 16.8866  15
  -1  -5  11 331.081 13.3242  12
  -1  -5  11 338.746 16.2095   2
   1   5 -11 311.799 15.8134   7
  -1   5  11 306.776 12.0609  12
  -8  -6  11 2.44622 2.73604   2
  -8  -6  11 6.79645 3.31529  12
   8  -6 -11 -3.2032 2.82200   9
   8  -6 -11 -0.0503 4.56946  15
  -8  -6  11 1.18932 4.00616   5
  -8   6  11 2.64851 2.49573   5
   8   6 -11 2.39987 2.78201   7
   8   6 -11 -1.7832 3.37752   9
  -8   6  11 -3.5791 2.06441  12
  -8   6  11 0.79381 4.72087   8
  -6  -6  11 52.5682 6.56716   2
  -6  -6  11 40.6839 5.36897  12
   6  -6 -11 48.2415 6.44051   9
   6  -6 -11 35.7738 6.59275   6
   6  -6 -11 45.6072 7.63020  15
  -6   6  11 41.1097 6.38629   5
  -6   6  11 41.7986 7.59348   8
   6   6 -11 46.3801 6.93683   7
  -6   6  11 42.8557 5.56035  12
   6   6 -11 46.9555 6.84720   9
   4  -6 -11 48.8361 6.76993   6
   4  -6 -11 61.3839 8.70041  15
  -4  -6  11 51.9123 6.57319   2
   4  -6 -11 50.1125 8.58662   9
  -4  -6  11 51.9097 5.73544  12
  -4   6  11 43.4030 5.25701  12
   4   6 -11 40.6666 6.50546   7
  -4   6  11 43.3066 6.93991   8
  -2  -6  11 21.4506 4.08986  12
   2  -6 -11 23.7302 4.78792  15
  -2  -6  11 22.2967 4.67579   2
   2  -6 -11 14.7508 4.62559   6
  -2   6  11 26.2065 6.57459   8
   2   6 -11 29.5819 5.88188   7
  -2   6  11 18.4322 3.43737  12
   0  -6 -11 99.7076 8.72779   6
   0  -6  11 84.3812 8.76751   2
   0  -6  11 86.2132 6.79988  12
   0   6  11 92.8997 6.03037  12
   0   6 -11 82.2278 8.89531   7
  -7  -7  11 218.022 12.3627  12
   7  -7 -11 228.779 13.3817   6
   7  -7 -11 230.790 15.6616  15
   7  -7 -11 224.076 13.5792   9
  -7  -7  11 249.092 12.8763   2
   7   7 -11 249.435 13.7798   9
  -7   7  11 242.586 15.4756   8
   7   7 -11 254.107 14.7097   7
  -7   7  11 224.095 12.4236  12
  -7   7  11 213.143 13.3985   5
   5  -7 -11 559.349 23.2588   6
   5  -7 -11 553.380 24.8902  15
  -5  -7  11 550.375 21.5821  12
  -5  -7  11 579.301 23.0527   2
  -5   7  11 572.855 21.5066  12
   5   7 -11 525.722 23.2419   7
  -5   7  11 549.517 24.8667   8
   3  -7 -11 224.758 14.2519  15
   3  -7 -11 269.079 14.5642   6
  -3  -7  11 233.191 11.8972  12
  -3  -7  11 204.731 13.2681   2
  -3   7  11 231.926 11.6452  12
  -3   7  11 225.419 15.0990   8
   3   7 -11 232.977 14.0835   7
   1  -7 -11 386.480 18.5577   6
  -1  -7  11 406.633 16.4996  12
  -1  -7  11 349.402 17.4808   2
  -1   7  11 375.451 19.6363   8
  -1   7  11 398.109 15.9008  12
   1   7 -11 416.388 19.4492   7
  -6  -8  11 125.997 9.77806   2
   6  -8 -11 125.023 9.76376   6
   6  -8 -11 119.697 10.5477  15
  -6  -8  11 113.295 8.80111  12
  -6   8  11 117.803 8.88220  12
   6   8 -11 128.914 10.7769   7
  -6   8  11 135.317 12.4543   8
  -4  -8  11 68.5307 7.34224   2
  -4  -8  11 78.0805 7.17848  12
   4  -8 -11 74.3152 8.28723   6
   4  -8 -11 75.6190 9.16846  15
  -4   8  11 85.0932 10.4720   8
   4   8 -11 68.0527 8.41434   7
  -4   8  11 78.5753 6.81116  12
 -10   0  12 13.7478 3.69075  12
  10   0 -12 17.0460 5.82477   9
 -10   0  12 21.8237 5.55544   5
   8   0 -12 1100.00 38.0979  15
  -8   0  12 1062.53 35.4244  12
   8   0 -12 1120.94 38.9613   9
  -8   0  12 1033.39 36.8181   5
  -6   0  12 25.4392 4.20341  12
   6   0 -12 36.3998 6.17836   9
  -6   0  12 30.7363 6.99496  16
   6   0 -12 32.4795 6.24614  15
  -6   0  12 39.0004 6.12242   5
   4   0 -12 1206.10 40.0936   9
  -4   0  12 1138.86 38.2441   5
   4   0 -12 1167.20 40.9222  15
   2   0 -12 4.69525 3.27611   9
   2   0 -12 10.4527 5.07950  15
  -2   0  12 11.2214 1.96145  12
   0   0 -12 938.512 35.1448  15
   9  -1 -12 25.0570 5.53628   9
   9  -1 -12 26.2258 5.92294  15
  -9  -1  12 30.0848 5.44895   5
  -9  -1  12 20.2401 4.13579  12
   9   1 -12 23.4723 5.75930   9
  -9   1  12 18.8640 5.16243   8
  -9   1  12 25.5498 6.22397   5
  -9   1  12 25.9106 4.49147  12
   7  -1 -12 95.2226 10.1282  15
  -7  -1  12 78.4295 6.99358  12
  -7  -1  12 77.6494 7.86638   5
   7  -1 -12 84.4248 8.16165   9
   7   1 -12 95.8887 9.87374   9
  -7   1  12 72.3203 7.63577   5
  -5  -1  12 119.461 7.19936  12
   5  -1 -12 124.105 10.8069  15
  -5  -1  12 121.327 8.64857   5
   5  -1 -12 114.606 9.54292   9
  -5  -1  12 128.425 11.3006  16
   5   1 -12 129.604 10.3778  15
   5   1 -12 132.992 10.1377   9
  -5   1  12 128.199 9.75264   5
  -5   1  12 114.049 6.98126  12
  -5   1  12 109.194 10.8035  16
  -3  -1  12 15.7464 2.60452  12
   3  -1 -12 18.2590 5.41515  15
   3  -1 -12 7.81580 3.39574   9
   3   1 -12 10.8341 4.86983  15
  -3   1  12 10.6164 3.43679   5
   3   1 -12 14.6720 4.36108   9
  -3   1  12 15.6772 2.56263  12
  -3   1  12 14.8404 5.07186  16
  -1  -1  12 123.396 8.93068   2
  -1  -1  12 108.716 5.08677  12
   1  -1 -12 102.295 9.33743  15
   1   1 -12 91.0032 9.25212  15
 -10  -2  12 287.968 15.3649   5
  10  -2 -12 306.367 16.8970   9
  10   2 -12 306.768 16.4828   9
 -10   2  12 294.825 14.6129  12
 -10   2  12 291.118 15.6306   5
 -10   2  12 273.321 15.7442   8
  -8  -2  12 482.933 20.7557   5
   8  -2 -12 478.679 22.4540  15
  -8  -2  12 492.041 19.7428  12
   8  -2 -12 538.411 23.0563   9
  -8   2  12 485.878 21.3795   5
   8   2 -12 515.789 22.5391   9
  -8   2  12 497.768 19.9630  12
  -8   2  12 480.461 21.1092   8
  -6  -2  12 498.141 18.9076  12
   6  -2 -12 528.092 22.2492   9
  -6  -2  12 498.347 20.4701   5
  -6  -2  12 436.287 25.9955  16
   6  -2 -12 556.950 23.7295  15
   6   2 -12 511.679 21.9629   9
  -6   2  12 510.994 21.2123   8
  -6   2  12 529.614 19.1336  12
  -6   2  12 525.442 21.8282   5
   6   2 -12 518.723 21.8659  15
  -4  -2  12 404.026 15.1082  12
   4  -2 -12 419.096 18.7068   9
   4  -2 -12 415.140 19.8706  15
   4   2 -12 403.430 19.3718  15
  -4   2  12 407.902 14.6486  12
   4   2 -12 420.258 19.0630   9
  -4   2  12 384.536 18.2270   5
  -2  -2  12 393.180 13.1812  12
   2  -2 -12 370.031 18.6986  15
  -2   2  12 349.780 11.9457  12
  -2   2  12 322.793 16.2670   5
   2   2 -12 356.931 16.9728   9
   2   2 -12 394.157 19.4297  15
   0  -2 -12 147.469 11.5175  15
   0  -2  12 138.869 6.37012  12
   9  -3 -12 52.5430 8.15521   9
  -9  -3  12 48.0198 5.82085  12
  -9  -3  12 47.7649 6.52362   5
   9  -3 -12 55.4694 8.40012  15
  -9   3  12 50.9073 7.95415   8
  -9   3  12 45.0982 6.03629  12
  -9   3  12 43.5153 6.67597   5
   9   3 -12 51.8764 7.50800   9
   7  -3 -12 10.8612 4.29391   9
   7  -3 -12 17.7890 6.01761  15
  -7  -3  12 13.6845 3.25891  12
  -7  -3  12 15.4892 4.10524   5
   7   3 -12 12.5252 4.82497   9
  -7   3  12 14.5148 4.34869   5
  -7   3  12 17.7628 5.51585   8
  -7   3  12 15.6673 3.84641  12
   5  -3 -12 -1.5774 1.81931   9
  -5  -3  12 3.16451 2.43328  12
  -5  -3  12 3.31879 3.42162   5
   5  -3 -12 3.93179 4.25724  15
  -5   3  12 5.10336 3.22790   8
   5   3 -12 4.62672 3.74818  15
   5   3 -12 4.77044 4.18678   9
  -5   3  12 0.61935 2.79641   5
  -5   3  12 2.66492 2.09248  12
   3  -3 -12 43.9744 5.80666   9
   3  -3 -12 44.7708 6.15362   6
   3  -3 -12 43.7273 7.16065  15
  -3  -3  12 49.1345 4.75813  12
  -3   3  12 47.1947 4.28232  12
   3   3 -12 49.2364 7.44057  15
   3   3 -12 48.5662 6.48743   7
   3   3 -12 62.1252 7.21132   9
  -1  -3  12 1.15370 1.90481  12
   1  -3 -12 4.20328 3.89344  15
  -1  -3  12 0.17470 3.60482   2
  -1   3  12 0.87101 1.15274  12
   8  -4 -12 35.6245 6.06011   9
   8  -4 -12 37.1503 6.65370  15
  -8  -4  12 38.5890 5.46704  12
  -8  -4  12 42.9851 6.06211   5
  -8   4  12 43.3100 7.34808   8
  -8   4  12 34.5411 5.68385   5
  -8   4  12 44.3856 5.84639  12
   8   4 -12 41.9832 6.91307   9
  -6  -4  12 452.509 19.1989   5
  -6  -4  12 459.564 18.4451  12
   6  -4 -12 494.404 21.6649   9
   6  -4 -12 499.875 23.1782  15
   6   4 -12 477.765 21.3499   9
  -6   4  12 461.825 20.8588   5
   6   4 -12 461.767 19.9604   7
  -6   4  12 464.861 20.7805   8
   4  -4 -12 48.6635 6.31860   9
   4  -4 -12 48.5679 6.46083   6
  -4  -4  12 58.1497 5.47068  12
   4  -4 -12 42.3109 7.24175  15
   4   4 -12 50.9301 6.94374  15
   4   4 -12 55.3372 7.12495   7
  -4   4  12 55.4517 5.05858  12
   4   4 -12 55.3337 7.28513   9
   2  -4 -12 601.747 23.5777   6
   2  -4 -12 552.726 24.6056  15
  -2  -4  12 571.237 23.1709   2
  -2  -4  12 595.034 20.1765  12
   2   4 -12 587.208 23.6556   7
  -2   4  12 589.789 24.8688   8
  -2   4  12 571.518 18.8116  12
  -7  -5  12 -1.3132 2.20653  12
   7  -5 -12 6.06016 3.97025   9
   7  -5 -12 2.75371 4.79074  15
  -7  -5  12 7.92270 4.23523   5
  -7   5  12 5.71734 4.05236   5
  -7   5  12 1.91560 2.19910  12
  -7   5  12 6.41300 3.87387   8
   7   5 -12 5.58575 4.30699   9
   7   5 -12 2.76989 5.17985   7
   5  -5 -12 -0.3330 2.60410   9
   5  -5 -12 0.02785 2.69373  15
  -5  -5  12 5.07314 3.74505   2
   5  -5 -12 1.13083 3.53557   6
  -5  -5  12 3.73501 2.47364  12
  -5   5  12 2.39233 4.14835   5
  -5   5  12 1.21128 4.41240   8
   5   5 -12 0.58006 2.93165   7
   5   5 -12 1.90988 2.93232   9
  -5   5  12 1.54685 2.26409  12
  -3  -5  12 36.5001 4.95075  12
   3  -5 -12 38.4915 6.13667   6
  -3  -5  12 43.8040 6.09024   2
   3  -5 -12 40.2641 7.11179  15
  -3   5  12 40.4358 6.40606   8
   3   5 -12 46.7829 6.57758   7
  -3   5  12 38.8939 4.51340  12
   1  -5 -12 0.09109 2.76902   6
  -8  -6  12 581.521 26.6896   5
  -8  -6  12 693.225 27.8617  12
   6  -6 -12 146.650 10.9524   9
  -6  -6  12 134.771 9.58910   2
  -6  -6  12 135.057 9.40079  12
   6  -6 -12 142.143 12.0344  15
   6  -6 -12 125.033 10.6287   6
  -6   6  12 126.332 9.95207   5
   6   6 -12 132.648 10.1666   9
  -6   6  12 134.119 11.0757   8
  -6   6  12 127.607 8.73157  12
   6   6 -12 144.345 10.8910   7
   4  -6 -12 646.608 27.3081  15
  -4  -6  12 602.699 22.4702  12
  -4  -6  12 611.021 24.5383   2
   4  -6 -12 642.225 25.5564   6
  -4   6  12 568.129 25.5896   8
   4   6 -12 588.516 24.9923   7
  -4   6  12 620.848 22.0158  12
   2  -6 -12 67.8710 9.23867  15
   5  -7 -12 55.7010 8.91327  15
  -5  -7  12 52.1654 6.73013  12
   8   0 -13 0.66776 2.79232  15
  -8   0  13 2.42471 2.48894  12
   8   0 -13 3.60838 3.33422   9
  -8   0  13 -3.2522 4.08347   5
   6   0 -13 4.00601 4.30566  15
  -6   0  13 4.52440 4.15330   5
   6   0 -13 4.57916 3.70055   9
  -6   0  13 1.83223 2.95570  12
   4   0 -13 1.65388 2.39708   9
   4   0 -13 3.97759 4.46558  15
  -4   0  13 -0.9017 1.77003  12
   2   0 -13 -3.0488 2.47001   9
   2   0 -13 1.69253 3.26141  15
  -2   0  13 0.83996 1.44390  12
  -9  -1  13 88.9772 8.64952  12
   9   1 -13 79.4479 8.67970   9
  -9   1  13 87.0014 7.42289  12
  -9   1  13 73.8176 9.26022   5
   7  -1 -13 554.901 24.3547  15
   7  -1 -13 537.275 23.6604   9
  -7  -1  13 510.053 21.7751   5
  -7  -1  13 535.572 20.2589  12
   7   1 -13 541.429 23.1385  15
   7   1 -13 528.260 23.1607   9
  -7   1  13 526.906 20.0620  12
  -7   1  13 524.161 22.1645   5
  -5  -1  13 112.201 9.17988   5
  -5  -1  13 96.1086 6.93697  12
   5  -1 -13 116.544 9.84238   9
   5  -1 -13 110.852 10.7349  15
   5   1 -13 113.735 9.63240   9
   5   1 -13 95.8414 9.25627  15
  -5   1  13 104.457 8.60710   5
   3  -1 -13 517.686 21.9281   9
   3  -1 -13 528.044 24.3599  15
  -3  -1  13 525.503 17.4592  12
   3   1 -13 545.727 22.5500   9
  -3   1  13 519.206 17.0098  12
   3   1 -13 525.322 24.0767  15
   8  -2 -13 180.511 13.2760  15
   8  -2 -13 178.982 12.2779   9
  -8  -2  13 153.751 11.7560   5
  -8  -2  13 153.539 9.85516  12
  -8   2  13 166.258 12.1188   5
   8   2 -13 153.728 12.2256   9
  -6  -2  13 123.215 9.13618   5
  -6  -2  13 129.132 8.03857  12
   6  -2 -13 127.557 10.9044  15
   6  -2 -13 135.797 10.2231   9
  -6   2  13 144.862 8.51342  12
   6   2 -13 127.724 10.5275   9
  -6   2  13 127.637 10.4540   5
   4  -2 -13 190.064 13.5906  15
   4  -2 -13 178.879 11.6679   9
  -4  -2  13 184.065 9.15074  12
  -4   2  13 160.469 10.9612   5
   4   2 -13 185.063 11.9490   9
  -4   2  13 181.459 8.54594  12
  -7  -3  13 151.584 9.51783  12
   7  -3 -13 188.712 12.6358   9
   7  -3 -13 170.697 13.3624  15
  -7   3  13 159.565 9.52172  12
  -7   3  13 143.258 10.8191   5
   7   3 -13 150.783 11.9145   9
  -7   3  13 160.978 11.9297   8
   5  -3 -13 382.875 18.4019   9
   5  -3 -13 389.638 20.5638  15
  -5  -3  13 391.924 15.8106  12
  -5   3  13 396.907 15.4043  12
  -5   3  13 392.220 18.9449   5
   5   3 -13 401.686 19.3176   9
   5   3 -13 412.937 19.4181  15
  -3  -3  13 129.003 10.3683   2
   3  -3 -13 114.088 10.0440  15
  -3  -3  13 139.694 7.74891  12
   3   3 -13 121.136 9.74409   9
  -3   3  13 117.268 6.20558  12
  -3   3  13 112.855 10.5725   5
   6  -4 -13 6.71239 3.00858   9
   6  -4 -13 1.34259 4.74213  15
  -6  -4  13 3.39396 2.43887  12
  -6   4  13 4.44290 3.38136   5
  -6   4  13 4.39507 3.48101   8
  -6   4  13 4.59329 2.73127  12
   6   4 -13 -1.0414 3.87934   9
   4  -4 -13 16.4608 4.94259  15
  -4  -4  13 20.2889 4.18854  12
  -4  -4  13 12.4017 4.74088   2
   4   4 -13 22.9274 5.21148   9
  -4   4  13 17.3534 4.61398   5
  -4   4  13 24.2044 4.12734  12
   0   0   0    0.00    0.00   0

 _exptl_absorpt_process_details
)
 SADABS 2016/2: Krause, L., Herbst-Irmer, R., Sheldrick G.M. & Stalke D.,
 J. Appl. Cryst. 48 (2015) 3-10
)
 _exptl_absorpt_correction_type   multi-scan
 _exptl_absorpt_correction_T_max  0.7482
 _exptl_absorpt_correction_T_min  0.6299
 _exptl_special_details
)
 The following wavelength and cell were deduced by SADABS from the
 direction cosines etc. They are given here for emergency use only:
 CELL 0.71074    6.821    7.593    7.395   89.994  116.922   90.002
)

;
_shelx_hkl_checksum              72373
loop_
_space_group_symop_operation_xyz
'x, y, z'
'-x, y, -z+1/2'
'x+1/2, y+1/2, z'
'-x+1/2, y+1/2, -z+1/2'
'-x, -y, -z'
'x, -y, z-1/2'
'-x+1/2, -y+1/2, -z'
'x+1/2, -y+1/2, z-1/2'
loop_
_atom_site_label
_atom_site_type_symbol
_atom_site_fract_x
_atom_site_fract_y
_atom_site_fract_z
_atom_site_U_iso_or_equiv
_atom_site_adp_type
_atom_site_occupancy
_atom_site_site_symmetry_order
_atom_site_calc_flag
_atom_site_refinement_flags_posn
_atom_site_refinement_flags_adp
_atom_site_refinement_flags_occupancy
_atom_site_disorder_assembly
_atom_site_disorder_group
Ni Ni 0.000000 0.500000 0.000000 0.00653(5) Uani 1 2 d S . P . .
S S 0.000000 0.15651(3) 0.250000 0.00591(5) Uani 1 2 d S T P . .
O1 O 0.17290(10) 0.04625(10) 0.40317(10) 0.01253(11) Uani 1 1 d . . . . .
O2 O 0.10276(10) 0.26975(8) 0.15448(10) 0.01045(10) Uani 1 1 d . . . . .
O3 O 0.000000 0.63132(12) 0.250000 0.00908(13) Uani 1 2 d S T P . .
H H 0.107(3) 0.696(3) 0.294(3) 0.023(5) Uiso 1 1 d . . . . .
loop_
_atom_site_aniso_label
_atom_site_aniso_U_11
_atom_site_aniso_U_22
_atom_site_aniso_U_33
_atom_site_aniso_U_23
_atom_site_aniso_U_13
_atom_site_aniso_U_12
Ni 0.00586(6) 0.00709(7) 0.00627(6) 0.00029(3) 0.00251(5) -0.00018(4)
S 0.00440(9) 0.00604(9) 0.00675(9) 0.000 0.00215(7) 0.000
O1 0.0073(2) 0.0148(3) 0.0144(2) 0.0072(2) 0.00413(19) 0.00359(19)
O2 0.0100(2) 0.0096(2) 0.0141(2) 0.00425(17) 0.00752(19) 0.00137(17)
O3 0.0085(3) 0.0103(3) 0.0087(3) 0.000 0.0043(2) 0.000
loop_
_atom_type_symbol
_atom_type_description
_atom_type_scat_dispersion_real
_atom_type_scat_dispersion_imag
_atom_type_scat_source
O O 0.0106 0.0060 'International Tables Vol C Tables 4.2.6.8 and 6.1.1.4'
H H 0.0000 0.0000 'International Tables Vol C Tables 4.2.6.8 and 6.1.1.4'
S S 0.1246 0.1234 'International Tables Vol C Tables 4.2.6.8 and 6.1.1.4'
Ni Ni 0.3393 1.1124 'International Tables Vol C Tables 4.2.6.8 and 6.1.1.4'
loop_
_geom_angle_atom_site_label_1
_geom_angle_atom_site_label_2
_geom_angle_atom_site_label_3
_geom_angle
_geom_angle_site_symmetry_1
_geom_angle_site_symmetry_3
_geom_angle_publ_flag
O2 Ni O2 180.0 . 5_565 ?
O2 Ni O1 94.85(3) . 8_455 ?
O2 Ni O1 85.15(3) 5_565 8_455 ?
O2 Ni O1 85.15(3) . 4 ?
O2 Ni O1 94.85(3) 5_565 4 ?
O1 Ni O1 180.00(4) 8_455 4 ?
O2 Ni O3 87.27(3) . 5_565 ?
O2 Ni O3 92.73(3) 5_565 5_565 ?
O1 Ni O3 93.25(2) 8_455 5_565 ?
O1 Ni O3 86.75(2) 4 5_565 ?
O2 Ni O3 92.73(3) . . ?
O2 Ni O3 87.27(3) 5_565 . ?
O1 Ni O3 86.75(2) 8_455 . ?
O1 Ni O3 93.25(2) 4 . ?
O3 Ni O3 180.0 5_565 . ?
O2 Ni O2 98.361(14) . 4 ?
O2 Ni O2 81.638(15) 5_565 4 ?
O1 Ni O2 136.56(2) 8_455 4 ?
O1 Ni O2 43.44(2) 4 4 ?
O3 Ni O2 128.439(16) 5_565 4 ?
O3 Ni O2 51.561(16) . 4 ?
O2 Ni O2 81.639(15) . 8_455 ?
O2 Ni O2 98.361(15) 5_565 8_455 ?
O1 Ni O2 43.44(2) 8_455 8_455 ?
O1 Ni O2 136.56(2) 4 8_455 ?
O3 Ni O2 51.561(16) 5_565 8_455 ?
O3 Ni O2 128.439(16) . 8_455 ?
O2 Ni O2 180.0 4 8_455 ?
O2 Ni O2 43.58(2) . 2 ?
O2 Ni O2 136.42(2) 5_565 2 ?
O1 Ni O2 66.74(3) 8_455 2 ?
O1 Ni O2 113.26(3) 4 2 ?
O3 Ni O2 120.25(2) 5_565 2 ?
O3 Ni O2 59.75(3) . 2 ?
O2 Ni O2 96.124(19) 4 2 ?
O2 Ni O2 83.876(19) 8_455 2 ?
O2 Ni O2 136.42(2) . 6_565 ?
O2 Ni O2 43.58(2) 5_565 6_565 ?
O1 Ni O2 113.26(3) 8_455 6_565 ?
O1 Ni O2 66.74(3) 4 6_565 ?
O3 Ni O2 59.75(3) 5_565 6_565 ?
O3 Ni O2 120.25(3) . 6_565 ?
O2 Ni O2 83.876(19) 4 6_565 ?
O2 Ni O2 96.124(19) 8_455 6_565 ?
O2 Ni O2 180.000(18) 2 6_565 ?
O1 S O1 110.21(6) . 2 ?
O1 S O2 108.45(4) . . ?
O1 S O2 110.25(4) 2 . ?
O1 S O2 110.25(4) . 2 ?
O1 S O2 108.45(4) 2 2 ?
O2 S O2 109.22(5) . 2 ?
S O1 Ni 136.82(4) . 4_545 ?
S O1 O2 36.07(2) . . ?
Ni O1 O2 100.84(3) 4_545 . ?
S O1 O1 34.89(3) . 2 ?
Ni O1 O1 140.21(5) 4_545 2 ?
O2 O1 O1 60.62(3) . 2 ?
S O1 O2 35.16(2) . 2 ?
Ni O1 O2 145.03(4) 4_545 2 ?
O2 O1 O2 60.42(3) . 2 ?
O1 O1 O2 59.51(3) 2 2 ?
S O1 O2 128.34(4) . 4_545 ?
Ni O1 O2 47.41(2) 4_545 4_545 ?
O2 O1 O2 110.21(3) . 4_545 ?
O1 O1 O2 102.91(3) 2 4_545 ?
O2 O1 O2 162.22(4) 2 4_545 ?
S O1 O3 170.20(5) . 7_556 ?
Ni O1 O3 47.838(16) 4_545 7_556 ?
O2 O1 O3 146.00(3) . 7_556 ?
O1 O1 O3 150.60(2) 2 7_556 ?
O2 O1 O3 135.17(4) 2 7_556 ?
O2 O1 O3 61.46(2) 4_545 7_556 ?
S O1 O2 114.86(4) . 8_556 ?
Ni O1 O2 42.563(19) 4_545 8_556 ?
O2 O1 O2 86.44(3) . 8_556 ?
O1 O1 O2 146.97(3) 2 8_556 ?
O2 O1 O2 103.78(3) 2 8_556 ?
O2 O1 O2 89.98(3) 4_545 8_556 ?
O3 O1 O2 61.79(3) 7_556 8_556 ?
S O1 O3 92.97(3) . 3_545 ?
Ni O1 O3 44.462(17) 4_545 3_545 ?
O2 O1 O3 57.99(2) . 3_545 ?
O1 O1 O3 102.27(4) 2 3_545 ?
O2 O1 O3 115.75(3) 2 3_545 ?
O2 O1 O3 62.57(3) 4_545 3_545 ?
O3 O1 O3 92.30(2) 7_556 3_545 ?
O2 O1 O3 56.90(2) 8_556 3_545 ?
S O1 O2 126.66(4) . 6_556 ?
Ni O1 O2 95.81(3) 4_545 6_556 ?
O2 O1 O2 162.03(4) . 6_556 ?
O1 O1 O2 101.97(3) 2 6_556 ?
O2 O1 O2 108.21(3) 2 6_556 ?
O2 O1 O2 76.48(3) 4_545 6_556 ?
O3 O1 O2 51.96(2) 7_556 6_556 ?
O2 O1 O2 110.63(3) 8_556 6_556 ?
O3 O1 O2 135.95(3) 3_545 6_556 ?
S O1 O2 112.03(4) . 7_556 ?
Ni O1 O2 78.04(3) 4_545 7_556 ?
O2 O1 O2 108.23(3) . 7_556 ?
O1 O1 O2 139.32(3) 2 7_556 ?
O2 O1 O2 80.65(3) 2 7_556 ?
O2 O1 O2 117.13(3) 4_545 7_556 ?
O3 O1 O2 58.69(2) 7_556 7_556 ?
O2 O1 O2 45.54(2) 8_556 7_556 ?
O3 O1 O2 102.22(3) 3_545 7_556 ?
O2 O1 O2 81.73(2) 6_556 7_556 ?
S O1 O1 89.01(3) . 5_556 ?
Ni O1 O1 133.29(4) 4_545 5_556 ?
O2 O1 O1 123.63(4) . 5_556 ?
O1 O1 O1 80.41(4) 2 5_556 ?
O2 O1 O1 65.15(3) 2 5_556 ?
O2 O1 O1 117.45(4) 4_545 5_556 ?
O3 O1 O1 85.47(3) 7_556 5_556 ?
O2 O1 O1 120.52(4) 8_556 5_556 ?
O3 O1 O1 177.28(4) 3_545 5_556 ?
O2 O1 O1 43.06(2) 6_556 5_556 ?
O2 O1 O1 75.28(3) 7_556 5_556 ?
S O2 Ni 130.95(4) . . ?
S O2 O1 35.48(2) . . ?
Ni O2 O1 160.43(4) . . ?
S O2 O1 34.59(2) . 2 ?
Ni O2 O1 117.96(3) . 2 ?
O1 O2 O1 59.87(4) . 2 ?
S O2 O2 35.39(3) . 2 ?
Ni O2 O2 101.09(2) . 2 ?
O1 O2 O2 60.34(3) . 2 ?
O1 O2 O2 59.24(3) 2 2 ?
S O2 O3 106.93(4) . 3_545 ?
Ni O2 O3 121.90(3) . 3_545 ?
O1 O2 O3 72.73(3) . 3_545 ?
O1 O2 O3 112.29(4) 2 3_545 ?
O2 O2 O3 129.52(4) 2 3_545 ?
S O2 O1 160.02(4) . 4 ?
Ni O2 O1 47.44(2) . 4 ?
O1 O2 O1 137.62(3) . 4 ?
O1 O2 O1 162.22(4) 2 4 ?
O2 O2 O1 127.59(2) 2 4 ?
O3 O2 O1 76.85(3) 3_545 4 ?
S O2 O3 136.01(4) . 5_565 ?
Ni O2 O3 47.58(2) . 5_565 ?
O1 O2 O3 150.00(4) . 5_565 ?
O1 O2 O3 102.04(3) 2 5_565 ?
O2 O2 O3 134.11(4) 2 5_565 ?
O3 O2 O3 95.97(2) 3_545 5_565 ?
O1 O2 O3 60.99(2) 4 5_565 ?
S O2 O1 91.52(3) . 8_455 ?
Ni O2 O1 42.583(18) . 8_455 ?
O1 O2 O1 126.92(4) . 8_455 ?
O1 O2 O1 76.22(3) 2 8_455 ?
O2 O2 O1 72.58(3) 2 8_455 ?
O3 O2 O1 157.88(3) 3_545 8_455 ?
O1 O2 O1 90.02(3) 4 8_455 ?
O3 O2 O1 61.95(2) 5_565 8_455 ?
S O2 O3 101.60(3) . . ?
Ni O2 O3 44.739(16) . . ?
O1 O2 O3 116.72(3) . . ?
O1 O2 O3 115.83(3) 2 . ?
O2 O2 O3 66.210(14) 2 . ?
O3 O2 O3 128.03(3) 3_545 . ?
O1 O2 O3 63.06(2) 4 . ?
O3 O2 O3 92.32(2) 5_565 . ?
O1 O2 O3 56.758(18) 8_455 . ?
S O2 O1 94.55(3) . 6 ?
Ni O2 O1 114.69(3) . 6 ?
O1 O2 O1 83.81(2) . 6 ?
O1 O2 O1 71.79(3) 2 6 ?
O2 O2 O1 128.88(2) 2 6 ?
O3 O2 O1 56.94(2) 3_545 6 ?
O1 O2 O1 103.52(3) 4 6 ?
O3 O2 O1 67.12(3) 5_565 6 ?
O1 O2 O1 110.63(3) 8_455 6 ?
O3 O2 O1 159.41(3) . 6 ?
S O2 O1 82.29(3) . 7_556 ?
Ni O2 O1 94.64(3) . 7_556 ?
O1 O2 O1 71.77(3) . 7_556 ?
O1 O2 O1 116.33(3) 2 7_556 ?
O2 O2 O1 61.88(3) 2 7_556 ?
O3 O2 O1 87.64(2) 3_545 7_556 ?
O1 O2 O1 78.24(2) 4 7_556 ?
O3 O2 O1 136.77(3) 5_565 7_556 ?
O1 O2 O1 107.28(3) 8_455 7_556 ?
O3 O2 O1 54.182(17) . 7_556 ?
O1 O2 O1 142.03(3) 6 7_556 ?
Ni O3 Ni 123.72(4) . 2 ?
Ni O3 O2 111.518(18) . 3_455 ?
Ni O3 O2 90.210(15) 2 3_455 ?
Ni O3 O2 90.210(16) . 4 ?
Ni O3 O2 111.519(18) 2 4 ?
O2 O3 O2 133.75(5) 3_455 4 ?
Ni O3 O1 45.408(17) . 8_455 ?
Ni O3 O1 104.80(3) 2 8_455 ?
O2 O3 O1 71.10(2) 3_455 8_455 ?
O2 O3 O1 134.09(2) 4 8_455 ?
Ni O3 O1 104.80(3) . 7_556 ?
Ni O3 O1 45.408(17) 2 7_556 ?
O2 O3 O1 134.09(2) 3_455 7_556 ?
O2 O3 O1 71.10(2) 4 7_556 ?
O1 O3 O1 123.48(5) 8_455 7_556 ?
Ni O3 O2 162.35(3) . 6_566 ?
Ni O3 O2 45.151(16) 2 6_566 ?
O2 O3 O2 84.13(2) 3_455 6_566 ?
O2 O3 O2 84.03(2) 4 6_566 ?
O1 O3 O2 141.74(2) 8_455 6_566 ?
O1 O3 O2 57.55(2) 7_556 6_566 ?
Ni O3 O2 45.151(16) . 5_565 ?
Ni O3 O2 162.35(3) 2 5_565 ?
O2 O3 O2 84.03(2) 3_455 5_565 ?
O2 O3 O2 84.13(2) 4 5_565 ?
O1 O3 O2 57.55(2) 8_455 5_565 ?
O1 O3 O2 141.74(2) 7_556 5_565 ?
O2 O3 O2 149.55(4) 6_566 5_565 ?
Ni O3 O2 42.528(19) . . ?
Ni O3 O2 82.75(3) 2 . ?
O2 O3 O2 128.03(3) 3_455 . ?
O2 O3 O2 95.896(17) 4 . ?
O1 O3 O2 61.46(2) 8_455 . ?
O1 O3 O2 67.13(3) 7_556 . ?
O2 O3 O2 121.40(3) 6_566 . ?
O2 O3 O2 87.68(2) 5_565 . ?
Ni O3 O2 82.75(3) . 2 ?
Ni O3 O2 42.528(19) 2 2 ?
O2 O3 O2 95.896(17) 3_455 2 ?
O2 O3 O2 128.03(3) 4 2 ?
O1 O3 O2 67.13(3) 8_455 2 ?
O1 O3 O2 61.46(2) 7_556 2 ?
O2 O3 O2 87.68(2) 6_566 2 ?
O2 O3 O2 121.40(3) 5_565 2 ?
O2 O3 O2 47.58(3) . 2 ?
Ni O3 O1 122.52(3) . 3_455 ?
Ni O3 O1 42.292(14) 2 3_455 ?
O2 O3 O1 49.281(19) 3_455 3_455 ?
O2 O3 O1 145.16(2) 4 3_455 ?
O1 O3 O1 80.63(2) 8_455 3_455 ?
O1 O3 O1 87.70(2) 7_556 3_455 ?
O2 O3 O1 61.15(2) 6_566 3_455 ?
O2 O3 O1 126.52(2) 5_565 3_455 ?
O2 O3 O1 100.97(3) . 3_455 ?
O2 O3 O1 54.37(2) 2 3_455 ?
Ni O3 O1 42.292(14) . 4 ?
Ni O3 O1 122.52(3) 2 4 ?
O2 O3 O1 145.16(2) 3_455 4 ?
O2 O3 O1 49.280(19) 4 4 ?
O1 O3 O1 87.70(2) 8_455 4 ?
O1 O3 O1 80.63(2) 7_556 4 ?
O2 O3 O1 126.52(2) 6_566 4 ?
O2 O3 O1 61.15(2) 5_565 4 ?
O2 O3 O1 54.37(2) . 4 ?
O2 O3 O1 100.97(3) 2 4 ?
O1 O3 O1 155.25(4) 3_455 4 ?
Ni O3 H 105.8(14) . . ?
Ni O3 H 107.3(13) 2 . ?
O2 O3 H 118.6(13) 3_455 . ?
O2 O3 H 17.4(13) 4 . ?
O1 O3 H 146.2(14) 8_455 . ?
O1 O3 H 75.1(13) 7_556 . ?
O2 O3 H 71.4(14) 6_566 . ?
O2 O3 H 90.0(14) 5_565 . ?
O2 O3 H 112.6(13) . . ?
O2 O3 H 136.3(13) 2 . ?
O1 O3 H 131.4(14) 3_455 . ?
O1 O3 H 66.3(14) 4 . ?
Ni O3 H 107.3(13) . 2 ?
Ni O3 H 105.8(14) 2 2 ?
O2 O3 H 17.4(14) 3_455 2 ?
O2 O3 H 118.6(13) 4 2 ?
O1 O3 H 75.1(13) 8_455 2 ?
O1 O3 H 146.2(14) 7_556 2 ?
O2 O3 H 90.0(14) 6_566 2 ?
O2 O3 H 71.4(14) 5_565 2 ?
O2 O3 H 136.3(13) . 2 ?
O2 O3 H 112.6(13) 2 2 ?
O1 O3 H 66.3(14) 3_455 2 ?
O1 O3 H 131.4(14) 4 2 ?
H O3 H 105(3) . 2 ?
loop_
_geom_bond_atom_site_label_1
_geom_bond_atom_site_label_2
_geom_bond_distance
_geom_bond_site_symmetry_2
_geom_bond_publ_flag
Ni O2 2.0329(6) . ?
Ni O2 2.0329(6) 5_565 ?
Ni O1 2.0338(7) 8_455 ?
Ni O1 2.0338(7) 4 ?
Ni O3 2.1169(5) 5_565 ?
Ni O3 2.1169(5) . ?
Ni O2 3.4210(7) 4 ?
Ni O2 3.4210(7) 8_455 ?
Ni O2 3.4499(7) 2 ?
Ni O2 3.4499(7) 6_565 ?
S O1 1.4653(7) . ?
S O1 1.4654(7) 2 ?
S O2 1.4865(6) . ?
S O2 1.4865(6) 2 ?
O1 O2 2.3949(9) . ?
O1 O1 2.4038(13) 2 ?
O1 O2 2.4217(9) 2 ?
O1 O2 2.7512(10) 4_545 ?
O1 O3 2.8513(8) 7_556 ?
O1 O2 2.9948(10) 8_556 ?
O1 O3 3.0174(8) 3_545 ?
O1 O2 3.2188(10) 6_556 ?
O1 O2 3.2399(11) 7_556 ?
O1 O1 3.3694(14) 5_556 ?
O2 O2 2.4237(13) 2 ?
O2 O3 2.6796(8) 3_545 ?
O2 O3 2.8642(8) 5_565 ?
O2 O3 3.0041(11) . ?
O3 H 0.809(19) . ?
O3 H 0.809(19) 2 ?
loop_
_geom_hbond_atom_site_label_D
_geom_hbond_atom_site_label_H
_geom_hbond_atom_site_label_A
_geom_hbond_distance_DH
_geom_hbond_distance_HA
_geom_hbond_distance_DA
_geom_hbond_angle_DHA
_geom_hbond_site_symmetry_A
_geom_hbond_publ_flag
O3 H O2 0.809(19) 1.923(18) 2.6796(8) 155.3(19) 4 yes
