#------------------------------------------------------------------------------
#$Date: 2021-12-06 10:59:38 +0200 (Mon, 06 Dec 2021) $
#$Revision: 271126 $
#$URL: file:///home/coder/svn-repositories/cod/cif/1/56/55/1565552.cif $
#------------------------------------------------------------------------------
#
# This file is available in the Crystallography Open Database (COD),
# http://www.crystallography.net/
#
# All data on this site have been placed in the public domain by the
# contributors.
#
data_1565552
loop_
_publ_author_name
'L\'opez Pl\'a, Jessica M.'
'Boudalis, Athanassios K.'
'Telser, Joshua'
'Raptis, Raphael G.'
_publ_section_title
;
 Chromium(III)-pyrazole complexes. X-Ray crystal structures, 1H NMR
 investigation of ligand fluxional behavior and EPR studies
;
_journal_name_full               'Inorganica Chimica Acta'
_journal_page_first              119299
_journal_paper_doi               10.1016/j.ica.2019.119299
_journal_volume                  502
_journal_year                    2020
_chemical_formula_moiety         'C9 H9 Cl3 Cr I2.98 N6'
_chemical_formula_sum            'C13 H17 Cl3 Cr I2.99 N6 O'
_chemical_formula_weight         810.47
_chemical_name_systematic        trans-Cr(4-I-pz)3Cl3
_space_group_crystal_system      triclinic
_space_group_IT_number           2
_space_group_name_Hall           '-P 1'
_space_group_name_H-M_alt        'P -1'
_atom_sites_solution_hydrogens   geom
_atom_sites_solution_primary     dual
_cell_angle_alpha                78.787(2)
_cell_angle_beta                 82.592(2)
_cell_angle_gamma                86.424(2)
_cell_formula_units_Z            2
_cell_length_a                   9.5178(8)
_cell_length_b                   10.6190(9)
_cell_length_c                   12.6128(11)
_cell_measurement_reflns_used    6543
_cell_measurement_temperature    295(2)
_cell_measurement_theta_max      28.70
_cell_measurement_theta_min      2.97
_cell_volume                     1239.09(18)
_computing_cell_refinement       'SAINT v8.37A (Bruker, 2015)'
_computing_data_reduction        'SAINT v8.37A (Bruker, 2015)'
_computing_molecular_graphics    'Olex2 (Dolomanov et al., 2009)'
_computing_publication_material  'Olex2 (Dolomanov et al., 2009)'
_computing_structure_refinement  'ShelXL (Sheldrick, 2015)'
_computing_structure_solution    'ShelXT (Sheldrick, 2015)'
_diffrn_ambient_temperature      295
_diffrn_measured_fraction_theta_full 0.996
_diffrn_measured_fraction_theta_max 0.991
_diffrn_measurement_device_type  'Bruker APEX-II CCD'
_diffrn_measurement_method       '\f and \w scans'
_diffrn_radiation_type           MoK\a
_diffrn_radiation_wavelength     0.71073
_diffrn_reflns_av_R_equivalents  0.0261
_diffrn_reflns_av_unetI/netI     0.0308
_diffrn_reflns_Laue_measured_fraction_full 0.996
_diffrn_reflns_Laue_measured_fraction_max 0.991
_diffrn_reflns_limit_h_max       12
_diffrn_reflns_limit_h_min       -12
_diffrn_reflns_limit_k_max       14
_diffrn_reflns_limit_k_min       -14
_diffrn_reflns_limit_l_max       16
_diffrn_reflns_limit_l_min       -16
_diffrn_reflns_number            17118
_diffrn_reflns_point_group_measured_fraction_full 0.996
_diffrn_reflns_point_group_measured_fraction_max 0.991
_diffrn_reflns_theta_full        25.242
_diffrn_reflns_theta_max         28.39
_diffrn_reflns_theta_min         2.88
_diffrn_standards_number         0
_exptl_absorpt_coefficient_mu    4.519
_exptl_absorpt_correction_T_max  0.8915
_exptl_absorpt_correction_T_min  0.5928
_exptl_absorpt_correction_type   multi-scan
_exptl_absorpt_process_details
'SADABS-2014/5 (Bruker,2014/5) was used for absorption correction. wR2(int) was 0.0789 before and 0.0385 after correction. The Ratio of minimum to maximum transmission is 0.6649. The \l/2 correction factor is 0.00150.'
_exptl_crystal_colour            'dark green'
_exptl_crystal_colour_modifier   dark
_exptl_crystal_colour_primary    green
_exptl_crystal_density_diffrn    2.172
_exptl_crystal_description       Needle
_exptl_crystal_F_000             756
_exptl_crystal_size_max          0.259
_exptl_crystal_size_mid          0.094
_exptl_crystal_size_min          0.073
_refine_diff_density_max         0.733
_refine_diff_density_min         -0.365
_refine_diff_density_rms         0.087
_refine_ls_extinction_coef       .
_refine_ls_extinction_method     none
_refine_ls_goodness_of_fit_ref   1.055
_refine_ls_hydrogen_treatment    constr
_refine_ls_matrix_type           full
_refine_ls_number_parameters     228
_refine_ls_number_reflns         6164
_refine_ls_number_restraints     0
_refine_ls_restrained_S_all      1.055
_refine_ls_R_factor_all          0.0555
_refine_ls_R_factor_gt           0.0363
_refine_ls_shift/su_max          0.001
_refine_ls_shift/su_mean         0.000
_refine_ls_structure_factor_coef Fsqd
_refine_ls_weighting_details
'w=1/[\s^2^(Fo^2^)+(0.0409P)^2^+0.7191P] where P=(Fo^2^+2Fc^2^)/3'
_refine_ls_weighting_scheme      calc
_refine_ls_wR_factor_gt          0.0883
_refine_ls_wR_factor_ref         0.0951
_reflns_Friedel_coverage         0.000
_reflns_Friedel_fraction_full    .
_reflns_Friedel_fraction_max     .
_reflns_number_gt                4324
_reflns_number_total             6164
_reflns_threshold_expression     'I > 2\s(I)'
_cod_data_source_file            ICA-2020-502-119299.cif
_cod_data_source_block           jlp008_f_a
_cod_database_code               1565552
_shelx_space_group_comment
;
The symmetry employed for this shelxl refinement is uniquely defined
by the following loop, which should always be used as a source of
symmetry information in preference to the above space-group names.
They are only intended as comments.
;
_shelx_estimated_absorpt_t_max   0.734
_shelx_estimated_absorpt_t_min   0.387
_olex2_refinement_description
;
1. Fixed Uiso
 At 1.2 times of:
  All C(H) groups, All N(H) groups
2. Others
 Sof(I1)=Sof(I2)=Sof(I3)=FVAR(1)
 Sof(I1A)=Sof(I2A)=Sof(I3A)=FVAR(2)
3.a Aromatic/amide H refined with riding coordinates:
 N2(H2), N4(H4), N6(H6), C1(H1), C3(H3), C4(H4A), C6(H6A), C7(H7), C9(H9)
;
_shelx_res_file
;
TITL JLP008_f_a.res in P-1
 jlp008_f_a.res created by SHELXL-2016/4 at 17:05:00 on 01-Oct-2018
CELL 0.71073 9.5178 10.619 12.6128 78.787 82.592 86.424
ZERR 2 0.0008 0.0009 0.0011 0.002 0.002 0.002
LATT 1
SFAC C H Cl Cr I N O
UNIT 26 34 6 2 5.97 12 2

L.S. 10
PLAN  5
SIZE 0.073 0.094 0.259
TEMP 295
BOND $H
more -4
fmap 2
acta
ABIN
REM <olex2.extras>
REM <HklSrc "%.\\JLP008_0m.hkl">
REM </olex2.extras>

WGHT    0.040900    0.719100
FVAR       0.39582   0.66420   0.33042
CR1   4    0.275934    0.539786    0.828815    11.00000    0.03810    0.02554 =
         0.04586   -0.00840   -0.00753   -0.00596
CL1   3    0.086687    0.414429    0.827078    11.00000    0.04325    0.03508 =
         0.05575   -0.01023   -0.00859   -0.01090
CL2   3    0.249318    0.499398    1.016718    11.00000    0.04467    0.05443 =
         0.04999   -0.01205   -0.00748   -0.01222
CL3   3    0.468101    0.665376    0.821838    11.00000    0.04276    0.03517 =
         0.06895   -0.00986   -0.01239   -0.01080
N1    6    0.300271    0.579427    0.659026    11.00000    0.03942    0.04723 =
         0.04863   -0.00507   -0.00507   -0.01160
N2    6    0.410496    0.637347    0.596170    11.00000    0.04913    0.11099 =
         0.06260   -0.00767   -0.00298   -0.03854
AFIX  43
H2    2    0.482923    0.661104    0.620521    11.00000   -1.20000
AFIX   0
N3    6    0.411128    0.380385    0.830879    11.00000    0.03930    0.03400 =
         0.05449   -0.01413   -0.00900   -0.00382
N4    6    0.526685    0.363900    0.883617    11.00000    0.03849    0.04062 =
         0.06366   -0.01961   -0.01188   -0.00409
AFIX  43
H4    2    0.560456    0.423741    0.908906    11.00000   -1.20000
AFIX   0
N5    6    0.136720    0.696533    0.830789    11.00000    0.03724    0.03380 =
         0.05740   -0.00704   -0.00675   -0.00467
N6    6    0.002177    0.685871    0.876836    11.00000    0.04601    0.03447 =
         0.06777   -0.00439   -0.00468   -0.00457
AFIX  43
H6    2   -0.039494    0.614195    0.898223    11.00000   -1.20000
AFIX   0
C1    1    0.216117    0.558559    0.589404    11.00000    0.05067    0.07374 =
         0.05157   -0.00337   -0.01235   -0.02014
AFIX  43
H1    2    0.130627    0.517514    0.609819    11.00000   -1.20000
AFIX   0
C2    1    0.268355    0.603620    0.485175    11.00000    0.05837    0.07737 =
         0.04900   -0.00054   -0.00509   -0.01671
C3    1    0.394270    0.653504    0.492100    11.00000    0.07635    0.13352 =
         0.05274    0.00516    0.00032   -0.04458
AFIX  43
H3    2    0.457391    0.691981    0.434043    11.00000   -1.20000
AFIX   0
C4    1    0.397098    0.266792    0.804700    11.00000    0.04852    0.04084 =
         0.05624   -0.02115   -0.01002   -0.00368
AFIX  43
H4A   2    0.325512    0.248411    0.766983    11.00000   -1.20000
AFIX   0
C5    1    0.501636    0.180309    0.840422    11.00000    0.05503    0.03112 =
         0.06668   -0.01502   -0.01020    0.00126
C6    1    0.583032    0.245919    0.892537    11.00000    0.04630    0.04292 =
         0.06817   -0.01429   -0.01384    0.00660
AFIX  43
H6A   2    0.661890    0.213686    0.927107    11.00000   -1.20000
AFIX   0
C7    1    0.158114    0.822168    0.809749    11.00000    0.05256    0.02873 =
         0.07223   -0.00122   -0.00407   -0.00702
AFIX  43
H7    2    0.243146    0.858778    0.777420    11.00000   -1.20000
AFIX   0
C8    1    0.038565    0.890493    0.841921    11.00000    0.05846    0.03239 =
         0.07734   -0.00878   -0.00607    0.00161
C9    1   -0.059245    0.800693    0.885386    11.00000    0.04879    0.04605 =
         0.08021   -0.00739    0.00024    0.00284
AFIX  43
H9    2   -0.151638    0.816326    0.915444    11.00000   -1.20000
AFIX   0
PART 2
I1    5    0.176858    0.591748    0.343962    21.00000    0.08427    0.09141 =
         0.04597    0.00023   -0.01833   -0.02284
I2    5    0.516391   -0.014786    0.833128    21.00000    0.08259    0.03192 =
         0.09489   -0.01870   -0.02229    0.00107
I3    5    0.026949    1.086886    0.842305    21.00000    0.08822    0.02988 =
         0.11244   -0.01444    0.00055    0.00223
PART 0
PART 3
I1A   5    0.172353    0.622028    0.354573    31.00000    0.14474    0.33512 =
         0.05228    0.01608   -0.03583   -0.10444
I2A   5    0.537433    0.000396    0.814009    31.00000    0.08849    0.04187 =
         0.19069   -0.05238   -0.02983    0.01318
I3A   5   -0.005105    1.082611    0.807926    31.00000    0.09367    0.03214 =
         0.16979   -0.01218   -0.00089    0.00840
HKLF 4




REM  JLP008_f_a.res in P-1
REM R1 =  0.0363 for    4324 Fo > 4sig(Fo)  and  0.0555 for all    6164 data
REM    228 parameters refined using      0 restraints

END

WGHT      0.0407      0.7239

REM Highest difference peak  0.733,  deepest hole -0.365,  1-sigma level  0.087
Q1    1   0.5174  0.6955  0.3523  11.00000  0.05    0.73
Q2    1  -0.0255  1.0548  0.8913  11.00000  0.05    0.66
Q3    1   0.0983  1.0675  0.8619  11.00000  0.05    0.63
Q4    1   0.0256  1.1319  0.8638  11.00000  0.05    0.62
Q5    1   0.6886  0.6395  0.8377  11.00000  0.05    0.57
;
_shelx_res_checksum              18805
_shelx_hkl_file
;
  -2   0   0 1560.21 42.4558   2
  -2   0   0 1552.02 42.3708   3
  -2   0   0 1513.02 42.3675   2
  -2   0   0 1587.67 42.1083   1
   2   0   0 1605.40 42.1471   1
   2   0   0 1542.81 42.1067   1
   2   0   0 1524.92 42.3547   3
   2   0   0 1499.49 42.4423   2
   2   0   0 1547.62 42.3773   2
  -3   0   0 900.892 24.4584   3
  -3   0   0 891.863 24.0368   1
  -3   0   0 851.925 24.4328   2
  -3   0   0 881.388 24.5677   2
   3   0   0 884.894 24.0387   1
   3   0   0 895.413 24.4596   2
   3   0   0 849.709 24.5671   2
   3   0   0 859.759 24.4135   3
   3   0   0 910.954 24.0969   1
  -4   0   0 2714.88 74.8401   2
  -4   0   0 2695.82 74.6775   3
  -4   0   0 2723.14 74.1280   1
   4   0   0 2819.15 74.2026   1
   4   0   0 2720.01 74.1344   1
   4   0   0 2717.21 74.7053   2
  -5   0   0 3.30058 1.10742   3
  -5   0   0 2.93595 1.40060   2
   5   0   0 3.35046 1.02667   2
   5   0   0 1.11452 0.50976   1
   5   0   0 2.51108 0.68666   1
  -6   0   0 241.689 8.04716   3
   6   0   0 242.598 7.14120   1
   6   0   0 245.224 8.06227   2
  -7   0   0 68.6915 3.88091   3
   7   0   0 66.3495 2.66851   1
   7   0   0 59.0157 2.42476   1
   7   0   0 62.2425 3.66057   2
  -8   0   0 25.9260 3.69089   3
   8   0   0 28.1695 3.47908   2
  -9   0   0 81.6824 5.34499   3
   9   0   0 74.0106 5.07017   2
 -10   0   0 2.60517 3.02732   3
  10   0   0 5.76182 2.75864   2
 -11   0   0 16.4833 3.99755   3
  11   0   0 20.9025 4.11523   2
 -12   0   0 1.14298 4.34367   3
  12   0   0 3.27467 4.35319   2
 -12   1   0 -8.1578 4.40408   3
  11  -1   0 45.5672 6.90824   2
 -11   1   0 47.2590 6.96086   3
  10  -1   0 14.4856 3.25578   2
 -10   1   0 9.88103 3.37974   3
   9  -1   0 5.07068 2.51705   2
  -9   1   0 6.58674 2.55166   3
   8  -1   0 15.9968 3.22545   2
  -8   1   0 18.3637 3.59074   3
   7  -1   0 158.098 6.15609   2
  -7   1   0 159.520 6.25568   3
   6  -1   0 1163.68 32.9851   2
  -6   1   0 1171.71 33.0124   3
   4  -1   0 2654.62 73.0376   2
  -4   1   0 2681.79 73.0571   3
   3  -1   0 471.320 13.4491   2
   3  -1   0 453.596 13.5496   2
   3  -1   0 469.879 13.4527   3
  -3   1   0 492.417 13.5020   3
   2  -1   0 9610.73 240.328   2
  -2   1   0 7844.02 237.280   2
   1  -1   0 613.339 17.3029   3
   1  -1   0 629.371 16.9861   1
  -1   1   0 628.006 17.3708   2
  -2  -1   0 9587.13 257.387   2
  -2  -1   0 9784.26 257.232   3
  -2  -1   0 9392.14 256.882   1
  -2  -1   0 9141.86 256.630   1
   2   1   0 9556.91 257.129   2
   2   1   0 9441.04 256.565   1
   2   1   0 9514.99 256.833   3
   2   1   0 9078.96 256.739   1
  -3  -1   0 68.5043 2.35159   1
  -3  -1   0 65.0876 2.46274   3
  -3  -1   0 64.7902 2.17290   1
  -3  -1   0 69.2869 2.69468   2
   3   1   0 65.9956 2.17450   1
   3   1   0 68.3564 2.32214   1
   3   1   0 63.6158 2.71653   2
   3   1   0 65.7236 2.50884   2
   3   1   0 66.8596 2.47633   3
  -4  -1   0 48.8990 2.60070   2
  -4  -1   0 48.3315 2.38685   3
   4   1   0 49.7573 2.42602   3
   4   1   0 49.6448 1.86269   1
   4   1   0 49.9144 2.36840   2
   4   1   0 52.9480 2.07176   1
  -5  -1   0 31.4909 2.28677   3
  -5  -1   0 30.4124 2.74302   2
   5   1   0 32.0830 1.89445   1
   5   1   0 27.8799 2.36138   2
   5   1   0 32.9833 1.55812   1
  -6  -1   0 132.491 5.35119   2
  -6  -1   0 131.463 5.08420   3
   6   1   0 132.717 4.48952   1
   6   1   0 130.329 4.25365   1
   6   1   0 134.123 5.07904   2
  -7  -1   0 0.61920 1.38943   3
  -7  -1   0 1.23280 1.60925   2
   7   1   0 0.41154 1.41140   1
   7   1   0 -2.2184 1.32191   2
   7   1   0 -0.1923 0.79688   1
  -8  -1   0 60.7054 4.55779   2
  -8  -1   0 60.2691 4.37017   3
   8   1   0 63.5686 2.81240   1
   8   1   0 61.0408 4.15307   2
  -9  -1   0 70.8320 5.15856   3
   9   1   0 73.7974 4.95114   2
   9   1   0 71.7149 3.30981   1
 -10  -1   0 6.54308 3.05169   3
  10   1   0 6.86281 2.84086   2
 -11  -1   0 34.7010 6.69028   3
  11   1   0 29.6033 5.92184   2
 -12  -1   0 10.5522 4.38887   3
  12   1   0 4.10788 4.12102   2
  12  -2   0 -5.6439 4.82069   2
 -12   2   0 4.95023 4.69924   3
  11  -2   0 59.7015 8.34420   2
 -11   2   0 37.4099 7.03670   3
  10  -2   0 22.1770 5.80706   2
   9  -2   0 7.88842 2.81553   2
  -9   2   0 3.92529 2.62078   3
   8  -2   0 108.464 5.72641   2
  -8   2   0 112.616 5.59280   3
   7  -2   0 250.491 8.67189   2
  -7   2   0 240.083 8.61978   3
   6  -2   0 0.51175 1.46106   2
  -6   2   0 2.39634 1.33757   3
   5  -2   0 27.4740 2.34059   2
  -5   2   0 28.0735 2.35904   3
   4  -2   0 681.482 19.6508   2
  -4   2   0 696.763 19.7067   3
   3  -2   0 263.304 7.68816   2
  -3   2   0 241.206 7.64543   2
   2  -2   0 212.483 5.79013   1
   2  -2   0 197.675 6.18708   3
   2  -2   0 207.154 6.25000   2
  -2   2   0 214.334 5.79912   1
  -2   2   0 199.279 6.16994   2
  -2   2   0 199.464 6.18957   3
   1  -2   0 2688.87 72.2643   3
   1  -2   0 2546.83 72.3424   2
   1  -2   0 2709.81 72.1160   1
  -1   2   0 2647.29 72.0976   1
  -1   2   0 2714.15 72.2852   3
  -1   2   0 2638.09 72.3081   2
   0  -2   0 4609.30 122.460   3
   0  -2   0 4695.75 122.264   1
   0  -2   0 4280.99 122.348   2
   0   2   0 4631.30 122.363   3
   0   2   0 4566.01 122.053   1
   0   2   0 4176.75 122.339   2
  -1  -2   0 3750.70 101.811   2
  -1  -2   0 3864.25 102.081   1
  -1  -2   0 3676.25 101.930   3
   1   2   0 3615.43 101.804   3
   1   2   0 3724.42 102.164   1
   1   2   0 3645.31 101.796   3
   1   2   0 3719.15 101.802   2
   1   2   0 4007.68 101.828   1
  -2  -2   0 26.3797 1.28359   3
  -2  -2   0 26.8372 1.37371   1
  -2  -2   0 24.3507 1.70910   2
   2   2   0 25.6991 1.35308   1
   2   2   0 27.8771 1.27692   3
   2   2   0 27.7035 1.28245   3
   2   2   0 25.3874 1.49543   2
   2   2   0 26.2643 1.18145   1
  -3  -2   0 21.4414 1.43918   1
  -3  -2   0 24.4280 1.45190   3
  -3  -2   0 23.7165 1.71863   2
   3   2   0 25.4443 1.49609   3
   3   2   0 21.1398 1.79901   2
   3   2   0 25.2950 1.23687   1
   3   2   0 23.3870 1.46935   1
  -4  -2   0 4160.60 110.612   3
  -4  -2   0 4160.93 110.584   1
  -4  -2   0 4133.46 110.909   2
   4   2   0 3905.51 110.532   3
   4   2   0 4092.86 110.701   2
   4   2   0 3988.06 110.376   1
   4   2   0 3994.60 110.469   1
  -5  -2   0 222.495 7.00166   3
  -5  -2   0 213.596 7.22950   2
   5   2   0 212.790 6.55715   1
   5   2   0 216.882 7.02506   2
  -6  -2   0 13.0635 2.46078   2
  -6  -2   0 11.4129 2.35942   3
   6   2   0 11.0752 2.09390   2
   6   2   0 9.39392 1.42849   1
  -7  -2   0 339.297 11.0831   2
  -7  -2   0 339.418 10.7407   3
   7   2   0 325.496 10.7052   2
   7   2   0 329.094 9.90745   1
  -8  -2   0 9.68275 2.26864   3
  -8  -2   0 9.06217 2.23922   2
   8   2   0 8.48381 1.61411   1
   8   2   0 9.10105 2.05480   2
  -9  -2   0 131.221 6.38730   3
  -9  -2   0 123.328 6.65402   2
   9   2   0 118.676 4.77543   1
   9   2   0 122.988 6.15252   2
 -10  -2   0 15.4649 3.30599   3
  10   2   0 20.1057 4.54399   2
 -11  -2   0 -4.3667 3.29955   3
  11   2   0 0.06847 3.11320   2
 -12  -2   0 4.21274 4.30797   3
  12   2   0 1.20667 4.06764   2
  12  -3   0 10.0172 5.34187   2
 -12   3   0 1.33001 4.84948   3
  11  -3   0 -6.2792 3.97669   2
 -11   3   0 -1.4490 3.91284   3
  10  -3   0 27.9508 6.46340   2
 -10   3   0 39.5606 6.07835   3
  -9   3   0 23.9092 4.67335   3
   8  -3   0 19.8537 3.11129   2
  -8   3   0 18.2068 3.77979   3
   7  -3   0 32.2062 3.78895   2
  -7   3   0 38.0062 3.60375   3
   6  -3   0 422.119 13.2102   2
  -6   3   0 426.477 13.2455   3
   5  -3   0 18.9049 2.37110   2
  -5   3   0 14.4958 2.31951   3
   4  -3   0 410.892 12.4047   2
   3  -3   0 13.0726 0.90442   1
   3  -3   0 12.8453 1.62888   2
  -3   3   0 13.6619 1.00982   1
  -3   3   0 10.8032 1.50091   3
   2  -3   0 3437.07 95.6099   2
   2  -3   0 3327.28 95.4593   3
   2  -3   0 3633.92 95.1766   1
  -2   3   0 3488.15 95.5319   2
  -2   3   0 3573.55 95.1465   1
  -2   3   0 3572.65 95.5282   3
   1  -3   0 5862.26 174.891   2
   1  -3   0 6556.56 175.575   1
   1  -3   0 6475.78 174.124   3
  -1   3   0 6434.60 174.966   3
  -1   3   0 6437.99 174.416   1
  -1   3   0 6754.87 174.738   2
   0  -3   0 1132.97 32.0480   2
   0  -3   0 1182.00 32.0315   1
   0  -3   0 1185.39 31.9587   3
   0   3   0 1132.42 32.0415   2
   0   3   0 1191.43 31.9980   1
   0   3   0 1163.25 31.9390   3
  -1  -3   0 109.503 3.67373   1
  -1  -3   0 116.964 3.95725   2
  -1  -3   0 109.934 3.48832   3
   1   3   0 111.112 3.53425   1
   1   3   0 108.910 3.62453   1
   1   3   0 111.950 3.47994   3
   1   3   0 108.232 3.61457   2
  -2  -3   0 3401.62 89.8689   1
  -2  -3   0 3311.12 89.8560   2
  -2  -3   0 3365.61 89.5914   3
   2   3   0 3269.09 89.5850   3
   2   3   0 3185.15 89.7599   1
   2   3   0 3339.48 89.6143   3
   2   3   0 3255.44 89.6796   1
   2   3   0 3243.97 89.8165   2
  -3  -3   0 5796.64 156.173   3
  -3  -3   0 5818.87 156.376   1
  -3  -3   0 5777.98 156.494   2
   3   3   0 5621.66 156.135   3
   3   3   0 5790.01 156.164   3
   3   3   0 5541.77 156.181   1
   3   3   0 5931.22 156.943   2
  -4  -3   0 251.052 7.50419   3
  -4  -3   0 234.881 7.54551   1
  -4  -3   0 248.131 7.85877   2
   4   3   0 236.824 7.45732   3
   4   3   0 245.360 7.35098   1
  -5  -3   0 164.337 5.73573   1
  -5  -3   0 167.878 6.06834   2
  -5  -3   0 166.129 5.70820   3
   5   3   0 166.214 5.38209   1
   5   3   0 168.918 5.78402   2
  -6  -3   0 211.707 7.49574   2
  -6  -3   0 210.893 7.09605   3
   6   3   0 206.751 7.14962   2
  -7  -3   0 -0.3386 1.71685   2
  -7  -3   0 0.20217 1.56332   3
   7   3   0 0.09015 0.93650   1
   7   3   0 -0.0634 1.35961   2
  -8  -3   0 23.3376 3.98646   2
  -8  -3   0 26.0492 3.56372   3
   8   3   0 28.6294 2.46644   1
   8   3   0 25.1872 3.35191   2
  -9  -3   0 -1.4849 2.24447   3
  -9  -3   0 -3.1452 2.43890   2
   9   3   0 1.09318 2.14401   2
   9   3   0 2.14740 1.40789   1
 -10  -3   0 6.70796 3.01811   3
 -10  -3   0 0.68048 3.00663   2
  10   3   0 4.91345 2.80838   2
 -11  -3   0 0.09023 3.57645   3
  11   3   0 1.18451 3.27394   2
 -12  -3   0 5.29989 4.70202   3
  12   3   0 0.24304 3.98154   2
  11  -4   0 3.67372 4.47252   2
 -11   4   0 4.33681 4.27979   3
  10  -4   0 3.68460 3.62128   2
 -10   4   0 9.82564 3.41836   3
   9  -4   0 3.07821 2.93411   2
  -9   4   0 2.73814 2.74267   3
   8  -4   0 267.243 10.0363   2
  -8   4   0 260.191 9.95245   3
   7  -4   0 3.90861 2.14984   2
  -7   4   0 1.11799 1.92538   3
   6  -4   0 11.4818 3.00886   2
  -6   4   0 6.16248 1.86920   3
   5  -4   0 300.484 9.73187   2
  -5   4   0 287.010 9.57670   3
   4  -4   0 185.311 6.56254   2
   4  -4   0 192.899 5.55897   1
  -4   4   0 184.948 6.40592   3
  -4   4   0 180.211 5.60436   1
   3  -4   0 1343.14 35.6950   2
   3  -4   0 1266.93 34.9217   1
  -3   4   0 1261.64 35.5167   3
  -3   4   0 1218.48 34.8730   1
   2  -4   0 19.5418 1.38364   1
  -2   4   0 19.3268 1.67009   3
  -2   4   0 19.1579 1.36213   1
   1  -4   0 561.514 17.2249   2
   1  -4   0 622.692 16.9707   1
   1  -4   0 595.216 17.0256   3
  -1   4   0 604.679 16.9028   1
  -1   4   0 619.401 17.0448   3
  -1   4   0 610.579 17.1593   2
   0  -4   0 40.1422 1.93876   1
   0  -4   0 41.2787 2.05885   2
   0  -4   0 38.7642 1.94729   3
   0   4   0 40.5428 1.88453   3
   0   4   0 41.5546 1.75999   1
   0   4   0 38.9990 1.89941   1
   0   4   0 41.1953 2.10092   2
  -1  -4   0 5191.77 143.674   3
  -1  -4   0 5468.03 143.974   1
  -1  -4   0 5461.90 143.926   2
   1   4   0 5063.21 143.802   2
   1   4   0 5279.60 143.678   3
   1   4   0 5299.56 143.798   1
  -2  -4   0 145.074 4.78333   1
  -2  -4   0 134.287 4.43673   3
  -2  -4   0 138.716 4.73863   2
   2   4   0 139.332 4.49669   3
   2   4   0 132.602 4.67714   2
   2   4   0 139.582 4.41795   3
   2   4   0 137.230 4.50471   1
  -3  -4   0 159.938 5.45574   1
  -3  -4   0 163.163 5.18300   3
  -3  -4   0 163.744 5.56091   2
   3   4   0 159.191 5.21633   3
   3   4   0 156.133 5.18414   1
   3   4   0 162.558 5.15524   3
  -4  -4   0 405.110 11.9240   3
  -4  -4   0 401.756 12.3224   2
   4   4   0 420.329 12.3014   3
   4   4   0 396.910 11.8563   3
  -5  -4   0 560.770 16.3859   1
  -5  -4   0 565.964 16.1959   3
  -5  -4   0 557.911 16.6238   2
   5   4   0 553.798 16.0610   1
   5   4   0 546.526 16.1022   3
  -6  -4   0 170.587 6.16469   3
  -6  -4   0 172.584 6.61544   2
  -6  -4   0 170.228 6.27425   1
   6   4   0 171.755 6.11855   3
   6   4   0 172.893 5.84771   1
   6   4   0 172.421 6.26381   2
  -7  -4   0 136.357 5.71331   3
  -7  -4   0 137.098 6.16418   2
   7   4   0 140.314 5.77202   2
   7   4   0 145.461 5.20790   1
  -8  -4   0 15.6997 3.82470   2
  -8  -4   0 13.4249 2.43534   3
   8   4   0 18.7052 2.47838   1
   8   4   0 14.2494 3.46856   2
  -9  -4   0 -1.0115 2.68257   2
  -9  -4   0 1.12400 2.54186   3
   9   4   0 -0.9551 1.58709   1
   9   4   0 0.82560 2.23659   2
 -10  -4   0 0.88688 3.08274   3
 -10  -4   0 3.90246 3.32015   2
  10   4   0 2.25096 1.87971   1
  10   4   0 -2.7504 2.63297   2
 -11  -4   0 1.48153 3.62242   3
 -11  -4   0 1.93013 3.83612   2
  11   4   0 0.91444 3.34025   2
 -12  -4   0 -1.0797 5.75767   3
  12   4   0 10.6478 4.24342   2
  11  -5   0 -2.5302 4.49708   2
 -11   5   0 0.83271 4.33295   3
  10  -5   0 3.15029 4.04789   2
 -10   5   0 4.68506 3.59873   3
   9  -5   0 2.62419 3.40349   2
  -9   5   0 0.28307 3.02351   3
   8  -5   0 207.980 8.95999   2
  -8   5   0 206.221 8.65483   3
   7  -5   0 22.9902 4.22046   2
  -7   5   0 25.1547 3.87088   3
   6  -5   0 10.4191 2.15547   2
  -6   5   0 7.59431 1.99722   3
   5  -5   0 199.452 5.92704   1
   5  -5   0 201.888 7.35440   2
  -5   5   0 200.172 7.12751   3
  -5   5   0 186.415 5.70875   1
  -5   5   0 176.649 6.01763   1
   4  -5   0 286.881 8.89799   1
   4  -5   0 320.763 10.0796   2
  -4   5   0 309.373 8.95267   1
  -4   5   0 296.704 8.76424   1
  -4   5   0 305.084 9.74895   3
   3  -5   0 711.723 19.4031   1
  -3   5   0 703.796 19.9441   3
  -3   5   0 653.339 19.2791   1
   2  -5   0 2.05566 0.82813   1
   2  -5   0 2.34273 1.30886   2
  -2   5   0 1.91301 1.07079   3
   1  -5   0 2158.88 63.4076   2
   1  -5   0 2363.85 63.2006   1
  -1   5   0 2403.99 63.2384   3
  -1   5   0 2291.89 63.0204   1
   0  -5   0 244.947 7.70380   2
   0  -5   0 244.337 7.58909   1
   0  -5   0 234.283 7.54336   3
   0   5   0 247.592 8.06383   2
   0   5   0 244.153 7.39866   1
   0   5   0 247.716 7.46133   3
  -1  -5   0 1136.50 31.0666   2
  -1  -5   0 1142.07 31.1217   1
  -1  -5   0 1078.07 30.7900   3
   1   5   0 1118.30 30.9045   1
   1   5   0 1045.25 31.5621   2
   1   5   0 1144.96 30.7926   3
  -2  -5   0 33.3614 2.20220   3
  -2  -5   0 31.5851 2.29705   2
   2   5   0 32.1797 1.97016   3
   2   5   0 30.6612 2.23386   3
  -3  -5   0 5205.09 141.942   1
  -3  -5   0 5262.92 141.932   2
   3   5   0 5191.11 141.700   1
   3   5   0 5354.27 141.509   3
   3   5   0 5010.26 141.488   3
  -4  -5   0 46.4928 2.77732   1
  -4  -5   0 39.9256 3.01574   2
   4   5   0 46.5545 2.44454   1
   4   5   0 42.2562 2.55986   3
  -5  -5   0 321.134 10.2952   1
  -5  -5   0 321.844 9.95753   3
  -5  -5   0 318.405 10.4363   2
   5   5   0 321.867 9.91238   1
   5   5   0 324.008 9.92336   3
  -6  -5   0 29.8337 3.02694   3
  -6  -5   0 27.0839 3.07487   1
  -6  -5   0 27.9113 3.32541   2
   6   5   0 31.9678 2.47292   1
   6   5   0 33.9199 2.88598   3
  -7  -5   0 378.205 12.4688   2
  -7  -5   0 370.853 11.7891   3
   7   5   0 366.791 11.7115   3
   7   5   0 374.239 11.5435   1
   7   5   0 370.758 11.9875   2
  -8  -5   0 1.97578 2.15208   3
  -8  -5   0 6.85106 2.59658   2
   8   5   0 3.00599 1.49800   1
   8   5   0 2.24468 1.96750   3
   8   5   0 4.11688 2.11686   2
  -9  -5   0 90.1389 5.82831   3
  -9  -5   0 78.0374 7.88690   2
   9   5   0 80.5593 5.40252   3
   9   5   0 70.9857 6.64251   2
   9   5   0 88.4735 4.60103   1
 -10  -5   0 25.4418 5.82646   3
 -10  -5   0 23.8046 5.93987   2
  10   5   0 19.3178 3.87205   1
  10   5   0 19.9922 3.51092   2
  10   5   0 26.2483 5.39659   3
 -11  -5   0 6.42760 4.36169   2
 -11  -5   0 1.72398 4.51212   3
  11   5   0 -1.9030 3.54674   2
  11   5   0 -3.7535 3.58633   3
  11  -6   0 0.66199 4.81255   2
 -11   6   0 -2.1625 4.63513   3
  10  -6   0 27.4986 7.11779   2
 -10   6   0 33.7158 7.32073   3
   9  -6   0 -2.4497 3.27387   2
  -9   6   0 -3.6882 3.13341   3
  -8   6   0 30.4876 5.30630   3
   7  -6   0 74.3784 5.65257   2
  -7   6   0 65.2424 5.41101   3
   6  -6   0 34.3984 4.36368   2
  -6   6   0 35.2489 3.98147   3
   5  -6   0 184.972 5.99089   1
   5  -6   0 195.837 7.47908   2
  -5   6   0 171.738 6.11429   1
  -5   6   0 178.962 5.69140   1
  -5   6   0 192.037 7.06299   3
   4  -6   0 220.131 6.98682   1
   4  -6   0 215.699 8.11240   2
  -4   6   0 223.218 7.80239   3
  -4   6   0 220.505 6.73381   1
   3  -6   0 1324.84 38.7858   2
   3  -6   0 1396.71 38.0758   1
  -3   6   0 1386.28 37.8955   1
  -3   6   0 1382.60 38.5657   3
   2  -6   0 4.46925 1.09416   1
  -2   6   0 2.64479 0.82742   1
  -2   6   0 0.88384 1.15219   3
   1  -6   0 2044.59 57.4271   2
   1  -6   0 2060.02 57.6103   1
  -1   6   0 2094.21 57.3767   1
  -1   6   0 2092.52 57.1108   3
   0  -6   0 47.1760 2.61231   1
   0  -6   0 47.1243 2.97016   2
   0   6   0 45.5796 2.62534   3
   0   6   0 47.8213 2.35427   1
  -1  -6   0 4782.31 130.174   2
  -1  -6   0 4782.21 130.244   1
   1   6   0 4729.82 129.986   1
   1   6   0 4786.92 129.839   3
  -2  -6   0 82.4279 3.90621   2
  -2  -6   0 89.7973 3.86097   1
   2   6   0 86.4542 3.50960   1
   2   6   0 86.7812 3.46194   3
  -3  -6   0 554.006 16.6754   1
   3   6   0 564.874 16.4086   1
   3   6   0 566.521 16.1649   3
  -4  -6   0 10.5694 1.87155   2
  -4  -6   0 8.68921 2.20182   1
   4   6   0 7.03509 1.21240   1
  -5  -6   0 905.707 26.4447   1
  -5  -6   0 925.055 26.5610   2
   5   6   0 896.630 25.8833   3
   5   6   0 927.975 26.1129   1
  -6  -6   0 23.9347 3.13069   3
  -6  -6   0 23.4135 3.27449   1
  -6  -6   0 21.5791 3.39400   2
   6   6   0 21.8142 3.14913   3
   6   6   0 26.7456 2.57164   1
  -7  -6   0 4.20763 2.26468   2
  -7  -6   0 2.64374 1.90733   3
   7   6   0 3.20661 2.00786   3
   7   6   0 1.15826 1.36061   1
   7   6   0 2.59759 1.98313   2
  -8  -6   0 67.8906 5.36944   2
  -8  -6   0 67.0032 4.82212   3
   8   6   0 64.5923 4.12405   1
   8   6   0 65.2026 4.77848   2
   8   6   0 67.9528 4.80125   3
  -9  -6   0 -3.5293 3.10776   2
  -9  -6   0 1.65315 2.86658   3
   9   6   0 2.43073 1.86908   1
   9   6   0 -3.2267 2.50477   2
   9   6   0 3.95109 2.71580   3
 -10  -6   0 3.85705 3.68464   2
  10   6   0 8.62113 3.41691   3
  10   6   0 6.90076 3.09781   2
  10   6   0 10.4247 2.59277   1
 -11  -6   0 1.74183 4.40910   2
  11   6   0 8.87016 3.79725   2
  10  -7   0 6.90649 4.78390   2
 -10   7   0 10.0398 4.67541   3
   9  -7   0 5.11488 4.17509   2
  -9   7   0 11.5534 3.83984   3
   8  -7   0 28.7502 4.45235   2
  -8   7   0 37.6778 5.90825   3
   7  -7   0 10.0477 3.36051   2
  -7   7   0 8.20799 4.92572   3
   6  -7   0 3.07630 1.69169   1
   6  -7   0 10.1268 2.87457   2
  -6   7   0 8.20042 2.47631   3
   5  -7   0 422.741 12.7523   1
   5  -7   0 429.756 14.1863   2
  -5   7   0 441.164 13.9047   3
  -5   7   0 427.107 12.5039   1
   4  -7   0 249.412 8.04787   1
   4  -7   0 259.919 9.40673   2
  -4   7   0 239.739 7.68785   1
  -4   7   0 249.266 8.82874   3
   3  -7   0 610.445 19.1589   2
   3  -7   0 641.151 18.4219   1
  -3   7   0 626.663 18.1192   1
  -3   7   0 645.183 18.7963   3
   2  -7   0 6.98976 1.41451   1
   2  -7   0 7.03666 2.02393   2
  -2   7   0 8.51184 1.64905   3
  -2   7   0 7.70525 1.67429   1
   1  -7   0 839.525 23.9534   1
   1  -7   0 843.080 24.2553   2
  -1   7   0 826.091 23.6793   1
  -1   7   0 833.679 23.8612   3
   0  -7   0 14.4720 2.24705   1
   0   7   0 7.43127 1.85450   1
  -1  -7   0 184.285 6.52211   1
   1   7   0 176.002 6.16110   3
   1   7   0 183.607 6.14869   1
  -2  -7   0 51.7669 3.14702   1
  -2  -7   0 46.8455 3.34187   2
   2   7   0 50.5799 2.87891   3
   2   7   0 52.1818 2.77216   1
  -3  -7   0 489.958 15.3083   1
  -3  -7   0 501.052 15.2697   2
   3   7   0 514.844 14.7297   3
   3   7   0 503.481 14.9860   1
  -4  -7   0 18.7658 3.20168   2
  -4  -7   0 19.4621 2.78352   1
   4   7   0 19.8499 2.26452   1
   4   7   0 12.8564 2.63901   3
  -5  -7   0 23.2145 3.15792   1
  -5  -7   0 18.3445 3.43393   2
   5   7   0 14.7093 2.69376   3
   5   7   0 20.4152 2.41949   1
  -6  -7   0 -0.4173 2.11389   2
  -6  -7   0 2.11382 2.06742   1
   6   7   0 1.93872 1.81959   3
   6   7   0 5.04509 1.54698   1
  -7  -7   0 86.0011 5.80275   2
   7   7   0 80.1021 4.69697   3
   7   7   0 77.1187 4.58704   1
  -8  -7   0 3.69964 2.51431   3
  -8  -7   0 3.81883 2.99990   2
   8   7   0 2.34553 1.85660   1
   8   7   0 3.42392 2.47117   3
   8   7   0 5.22156 2.57228   2
  -9  -7   0 4.54741 3.29758   2
   9   7   0 -0.1109 2.75477   2
   9   7   0 -2.7851 3.30070   3
 -10  -7   0 0.74069 3.86609   2
  10   7   0 1.62396 2.66064   1
  10   7   0 -0.7175 3.42869   2
 -11  -7   0 7.58925 4.80312   2
  11   7   0 11.3149 4.33733   2
  10  -8   0 42.0548 9.54617   2
   9  -8   0 -6.0581 4.32950   2
  -9   8   0 6.32314 3.91585   3
   8  -8   0 27.2061 7.09082   2
  -8   8   0 15.2525 4.11561   3
   7  -8   0 45.7520 7.52939   2
  -7   8   0 52.8562 6.09815   3
   6  -8   0 162.290 8.16240   2
  -6   8   0 156.014 7.83574   3
   5  -8   0 2.67100 1.56820   1
   5  -8   0 7.48327 2.92297   2
  -5   8   0 0.74163 2.12077   3
  -5   8   0 3.99957 1.35621   1
   4  -8   0 1.37756 2.68265   2
   4  -8   0 2.38845 1.52414   1
  -4   8   0 0.81717 1.22485   1
  -4   8   0 0.98809 2.07290   3
   3  -8   0 175.658 6.38373   1
   3  -8   0 163.141 7.43129   2
  -3   8   0 175.386 5.97739   1
  -3   8   0 172.828 6.92330   3
   2  -8   0 39.1818 4.20714   2
   2  -8   0 32.9568 3.01364   1
  -2   8   0 34.3147 3.43966   3
  -2   8   0 39.5750 2.66761   1
   1  -8   0 506.791 15.7614   2
   1  -8   0 515.086 15.4390   1
  -1   8   0 513.247 15.3299   3
  -1   8   0 501.663 15.0529   1
   0  -8   0 1.98698 1.42793   1
   0  -8   0 2.57861 1.89680   2
   0   8   0 4.23966 1.16760   1
   0   8   0 2.17576 1.49944   3
  -1  -8   0 738.526 20.9710   2
  -1  -8   0 693.233 20.8687   1
   1   8   0 717.245 20.4115   3
   1   8   0 677.697 20.5040   1
  -2  -8   0 256.817 8.93589   2
  -2  -8   0 261.161 8.96492   1
   2   8   0 253.653 8.40478   3
   2   8   0 261.957 8.55694   1
  -3  -8   0 230.776 8.26136   2
  -3  -8   0 223.107 8.19934   1
   3   8   0 220.123 8.00136   3
   3   8   0 231.857 7.79579   1
  -4  -8   0 4.54634 2.17364   2
  -4  -8   0 3.23983 1.73888   1
   4   8   0 3.64811 1.62588   3
   4   8   0 2.78778 1.34637   1
  -5  -8   0 148.056 6.70324   1
  -5  -8   0 146.402 6.64820   2
   5   8   0 140.164 5.90090   1
   5   8   0 142.954 5.78903   3
  -6  -8   0 86.3273 5.48070   2
  -6  -8   0 81.9154 5.46920   1
   6   8   0 81.1649 4.76215   3
   6   8   0 87.6402 4.64809   1
  -7  -8   0 11.2325 2.91842   1
  -7  -8   0 5.99088 2.89910   2
   7   8   0 8.66091 2.22956   1
   7   8   0 6.50642 2.55108   3
   8   8   0 71.3837 4.99534   1
  -9  -8   0 0.31691 3.52439   2
   9   8   0 0.12598 3.09713   2
   9   8   0 1.94246 2.43597   1
 -10  -8   0 17.3145 4.62850   2
  10   8   0 11.3730 4.10672   2
  10   8   0 13.4715 3.12628   1
   9  -9   0 2.82449 4.99459   2
  -9   9   0 5.55679 4.56255   3
   8  -9   0 3.98565 4.49521   2
  -8   9   0 11.3705 4.36677   3
   7  -9   0 0.48474 4.06288   2
  -7   9   0 -1.8529 3.47321   3
   6  -9   0 0.90134 3.73395   2
  -6   9   0 3.97221 2.98164   3
   5  -9   0 202.550 7.45796   1
   5  -9   0 191.350 9.40489   2
  -5   9   0 200.072 8.62661   3
  -5   9   0 200.095 6.92743   1
   4  -9   0 2.32890 2.80299   2
   4  -9   0 0.80204 1.86612   1
  -4   9   0 1.35077 1.46712   1
  -4   9   0 1.05127 2.32020   3
   3  -9   0 54.5984 3.94838   1
   3  -9   0 60.3479 5.34376   2
  -3   9   0 60.8320 4.65577   3
  -3   9   0 63.4981 3.46521   1
   2  -9   0 135.431 5.79912   1
   2  -9   0 129.116 6.68275   2
  -2   9   0 135.851 5.29876   1
  -2   9   0 133.553 6.01348   3
   1  -9   0 196.169 7.36076   1
   1  -9   0 196.550 7.95786   2
  -1   9   0 186.638 7.31469   3
  -1   9   0 192.219 6.88213   1
   0  -9   0 195.522 7.53253   1
   0  -9   0 197.498 7.80799   2
   0   9   0 196.284 7.06847   1
   0   9   0 202.562 7.29503   3
  -1  -9   0 93.7382 4.87726   1
  -1  -9   0 87.7117 5.11281   2
   1   9   0 91.5738 4.52883   3
   1   9   0 87.4513 4.21379   1
  -2  -9   0 262.351 9.24419   2
  -2  -9   0 253.735 9.22439   1
   2   9   0 253.484 8.72578   1
   2   9   0 258.977 8.61148   3
  -3  -9   0 4.95865 2.09799   1
  -3  -9   0 5.57062 2.26182   2
   3   9   0 4.07949 1.65320   1
   3   9   0 2.32540 1.71366   3
  -4  -9   0 641.582 19.7163   2
  -4  -9   0 639.829 19.7914   1
   4   9   0 629.501 18.7445   3
   4   9   0 649.863 19.3143   1
  -5  -9   0 5.35520 2.32215   1
  -5  -9   0 0.82656 2.71709   2
   5   9   0 3.99248 2.00606   3
   5   9   0 2.42988 1.68409   1
  -6  -9   0 32.4351 5.01643   1
  -6  -9   0 22.9431 4.88268   2
   6   9   0 28.7232 4.15812   3
   6   9   0 34.5138 3.96309   1
  -7  -9   0 20.5289 5.13062   2
   7   9   0 20.3953 4.08668   1
  -8  -9   0 2.28186 3.59686   2
   8   9   0 2.04137 2.36795   1
   8   9   0 4.86006 3.18649   2
  -9  -9   0 -1.2116 4.07747   2
   9   9   0 0.03576 2.71030   1
   9   9   0 2.15118 3.57130   2
   8 -10   0 3.15683 5.19930   2
  -8  10   0 -1.5773 4.60160   3
   7 -10   0 8.09081 4.73428   2
  -7  10   0 13.6213 4.33842   3
   6 -10   0 -2.6685 3.97033   2
  -6  10   0 5.82700 3.77834   3
   5 -10   0 -4.2909 3.41456   2
  -5  10   0 -0.0717 2.99622   3
   4 -10   0 54.9686 4.71384   1
   4 -10   0 53.0342 6.23425   2
  -4  10   0 43.1751 3.83873   1
  -4  10   0 50.8486 5.43436   3
   3 -10   0 21.4716 3.78840   2
   3 -10   0 25.6982 3.93302   1
  -3  10   0 22.3164 3.09423   1
  -3  10   0 21.0749 3.38440   3
   2 -10   0 217.885 8.46774   1
   2 -10   0 232.283 9.58620   2
  -2  10   0 226.984 8.75726   3
  -2  10   0 206.884 7.78907   1
   1 -10   0 60.4825 4.73784   1
   1 -10   0 64.7670 5.68293   2
  -1  10   0 72.0578 4.05966   1
  -1  10   0 69.5644 5.11102   3
   0 -10   0 348.136 11.9158   2
   0 -10   0 336.762 11.5715   1
   0  10   0 343.947 11.2694   3
   0  10   0 327.133 10.9837   1
  -1 -10   0 36.9542 4.18462   1
  -1 -10   0 42.3758 4.79007   2
   1  10   0 43.7004 3.97325   3
   1  10   0 38.8131 3.53139   1
  -2 -10   0 190.215 8.06488   1
  -2 -10   0 201.504 8.18499   2
   2  10   0 193.851 7.48085   1
   2  10   0 195.488 7.44467   3
  -3 -10   0 2.04045 2.61860   2
  -3 -10   0 0.17410 2.46023   1
   3  10   0 -1.2175 2.04716   3
   3  10   0 -0.1154 2.06672   1
  -4 -10   0 18.9523 4.87105   2
  -4 -10   0 10.2533 2.79588   1
   4  10   0 10.5943 2.43011   3
   4  10   0 17.2323 3.31526   1
  -5 -10   0 1.48395 2.64361   1
  -5 -10   0 2.09496 3.18537   2
   5  10   0 5.31469 2.08111   1
  -6 -10   0 88.6575 6.88479   2
  -6 -10   0 87.4174 6.74093   1
   6  10   0 83.5908 5.68885   1
  -7 -10   0 2.44145 3.54353   2
   7  10   0 -1.5913 2.31825   1
  -8 -10   0 7.57421 4.49553   2
   8  10   0 12.4035 3.87467   2
   8  10   0 7.60103 2.80100   1
  -9 -10   0 -1.8977 4.81091   2
   9  10   0 5.50274 3.16283   1
   9  10   0 0.88691 4.03530   2
   7 -11   0 16.9331 5.76797   2
  -7  11   0 19.5880 5.20052   3
   6 -11   0 5.53091 4.83524   2
  -6  11   0 9.04771 4.22720   3
   5 -11   0 5.91491 4.34391   2
  -5  11   0 7.66840 3.64840   3
   4 -11   0 44.0529 8.62932   2
   4 -11   0 42.8595 5.55129   1
  -4  11   0 38.5836 6.31575   3
  -4  11   0 46.5998 4.20727   1
   3 -11   0 57.1986 5.25941   1
   3 -11   0 63.4038 7.27859   2
  -3  11   0 50.9207 4.26637   1
  -3  11   0 33.6963 5.91007   3
   2 -11   0 80.7729 7.28073   2
   2 -11   0 77.7167 5.72866   1
  -2  11   0 69.3441 6.19425   3
  -2  11   0 72.9750 4.63786   1
   1 -11   0 3.63044 2.53142   1
   1 -11   0 6.03358 3.30834   2
  -1  11   0 -1.0420 2.68604   3
  -1  11   0 -1.2041 1.96055   1
   0 -11   0 214.334 9.33390   1
   0 -11   0 208.343 9.24747   2
   0  11   0 192.706 8.96774   1
   0  11   0 216.741 8.63436   3
  -1 -11   0 1.53685 2.97441   2
  -1 -11   0 1.38524 2.51677   1
   1  11   0 5.26620 2.44283   3
   1  11   0 1.22799 1.91387   1
  -2 -11   0 246.802 9.99548   2
  -2 -11   0 253.140 9.91182   1
   2  11   0 241.069 9.11180   1
   2  11   0 242.719 8.98310   3
  -3 -11   0 12.4263 3.04389   1
  -3 -11   0 5.71065 3.28030   2
   3  11   0 -0.4066 2.65415   3
   3  11   0 6.28311 2.10577   1
  -4 -11   0 300.235 11.7718   2
  -4 -11   0 292.726 11.8070   1
   4  11   0 303.392 10.7937   1
  -5 -11   0 3.02295 3.20103   1
  -5 -11   0 1.83368 3.73289   2
   5  11   0 6.20883 2.31698   1
  -6 -11   0 35.1306 6.60053   2
  -6 -11   0 45.4690 7.00786   1
   6  11   0 37.6060 5.53428   1
  -7 -11   0 -2.1515 4.06510   2
   7  11   0 1.41603 2.78239   1
  -8 -11   0 28.8560 5.70206   2
   8  11   0 25.3120 5.90673   1
   5 -12   0 18.2157 5.75872   2
  -5  12   0 29.5477 7.77156   3
   4 -12   0 56.7090 8.86777   2
  -4  12   0 31.6063 6.59246   3
   3 -12   0 5.44723 4.98672   2
   3 -12   0 0.51346 3.77759   1
  -3  12   0 2.09402 2.71683   1
  -3  12   0 -3.5198 3.46144   3
   2 -12   0 213.330 10.8693   2
   2 -12   0 232.584 9.82929   1
  -2  12   0 208.417 10.8211   3
  -2  12   0 214.609 8.54866   1
   1 -12   0 41.4939 7.01087   2
   1 -12   0 48.8630 5.95828   1
  -1  12   0 38.3002 6.34609   3
  -1  12   0 36.8194 4.43927   1
   0 -12   0 269.385 10.9305   1
   0 -12   0 261.502 11.3877   2
   0  12   0 268.424 9.89229   1
   0  12   0 265.614 10.6661   3
  -1 -12   0 9.28843 3.11090   1
  -1 -12   0 1.85393 3.66235   2
   1  12   0 3.24960 3.13584   3
   1  12   0 7.87638 2.27855   1
  -2 -12   0 247.049 10.6918   1
  -2 -12   0 236.057 10.5994   2
   2  12   0 245.399 9.47480   1
  -3 -12   0 7.61561 3.99565   2
  -3 -12   0 2.83029 3.25253   1
   3  12   0 7.61827 2.58101   1
  -4 -12   0 35.7509 7.20314   2
  -4 -12   0 45.8606 6.76590   1
   4  12   0 54.8157 5.19669   1
  -5 -12   0 3.32554 3.72243   1
  -5 -12   0 2.20804 7.62270   2
   5  12   0 1.75613 2.81959   1
   6  12   0 16.3235 3.32330   1
   3 -13   0 40.0471 7.90506   1
  -3  13   0 42.2597 7.95672   3
  -3  13   0 57.5507 6.53041   1
   2 -13   0 27.2202 4.70355   1
  -2  13   0 24.6280 4.70742   3
  -2  13   0 42.2280 5.53583   1
   1 -13   0 -0.9251 3.83378   1
  -1  13   0 3.83766 2.74506   1
  -1  13   0 5.08161 3.96622   3
   0 -13   0 55.7048 7.41716   1
   0  13   0 67.1577 5.57190   1
  -1 -13   0 -3.9427 3.44912   1
   1  13   0 2.26888 2.78599   1
  -2 -13   0 7.85349 4.04971   1
   2  13   0 11.3698 3.03254   1
  -3 -13   0 5.19745 3.94690   1
   3  13   0 7.97311 3.12273   1
  -4 -13   0 9.64131 4.37438   1
   4  13   0 3.55521 3.22993   1
   4  13  -1 4.73970 3.09157   1
  -4 -13   1 -3.5333 3.94140   1
   3  13  -1 4.19475 2.88158   1
  -3 -13   1 -0.4774 3.94329   1
   2  13  -1 5.19288 2.85848   1
  -2 -13   1 6.03093 3.90331   1
   1  13  -1 137.496 7.28311   1
  -1 -13   1 135.881 8.59342   1
   0  13  -1 9.62588 3.08352   1
   0  13  -1 7.10541 4.37636   3
   0 -13   1 14.7253 3.95492   1
  -1  13  -1 17.4161 3.35218   1
  -1  13  -1 22.6237 4.49987   3
   1 -13   1 27.2492 6.74143   1
  -2  13  -1 19.7815 4.94488   3
  -2  13  -1 26.3611 5.36111   1
   2 -13   1 35.1924 7.04607   1
  -3  13  -1 51.7355 6.00001   1
  -3  13  -1 31.3602 5.45036   3
   3 -13   1 69.7357 7.90920   1
   6  12  -1 1.35126 3.49432   1
  -6 -12   1 5.49902 4.37073   1
   5  12  -1 24.8234 5.15088   1
   4  12  -1 3.84997 2.66584   1
  -4 -12   1 4.87449 3.61692   1
   3  12  -1 126.287 6.97025   1
  -3 -12   1 134.428 8.09067   1
   2  12  -1 27.4582 4.78679   1
   2  12  -1 38.6537 5.60490   3
  -2 -12   1 39.5129 6.03479   1
   1  12  -1 2.70975 2.38127   1
   1  12  -1 4.85150 3.21399   3
  -1 -12   1 1.13179 2.90217   1
   0  12  -1 102.673 7.58657   3
   0  12  -1 84.0347 5.64757   1
   0 -12   1 77.9742 6.62840   1
  -1  12  -1 23.9142 4.39087   1
   1 -12   1 23.1250 5.58960   1
  -2  12  -1 176.836 9.21236   3
  -2  12  -1 153.786 7.38082   1
   2 -12   1 163.976 8.58280   1
  -3  12  -1 -2.5106 2.50292   1
  -3  12  -1 1.21929 3.63740   3
   3 -12   1 1.79181 3.32488   1
  -4  12  -1 71.5902 7.51114   3
  -5  12  -1 0.09933 4.31717   3
   7  11  -1 0.15742 3.14499   1
  -7 -11   1 0.26859 4.05082   1
  -6 -11   1 0.12553 3.65303   1
   5  11  -1 10.4557 2.62342   1
  -5 -11   1 10.1565 3.49989   1
  -5 -11   1 1.39695 3.88824   2
   4  11  -1 72.0350 7.37755   3
   4  11  -1 62.5397 5.04759   1
  -4 -11   1 66.0245 6.17153   1
  -4 -11   1 73.1213 6.50313   2
   3  11  -1 33.0507 4.89550   3
   3  11  -1 37.5704 4.23942   1
  -3 -11   1 31.6065 5.55318   2
  -3 -11   1 39.3285 5.11736   1
   2  11  -1 79.8336 5.89386   3
   2  11  -1 96.5993 5.23334   1
  -2 -11   1 89.7077 6.11546   1
  -2 -11   1 89.1164 6.33838   2
   1  11  -1 1.36685 2.52389   3
   1  11  -1 3.36118 1.97324   1
  -1 -11   1 -1.0863 2.94000   2
  -1 -11   1 -1.8839 2.39583   1
   0  11  -1 279.775 10.0332   1
   0  11  -1 273.513 10.2947   3
   0 -11   1 272.112 10.6163   2
   0 -11   1 277.442 10.7652   1
  -1  11  -1 32.7810 4.97350   1
  -1  11  -1 31.5537 5.22912   3
   1 -11   1 34.3875 5.98925   1
   1 -11   1 29.6694 5.38055   2
  -2  11  -1 111.851 5.58365   1
  -2  11  -1 103.868 6.89215   3
   2 -11   1 115.471 6.33788   1
   2 -11   1 109.247 7.60596   2
  -3  11  -1 2.02861 2.02445   1
  -3  11  -1 0.82452 3.23340   3
   3 -11   1 0.57008 2.60998   1
   3 -11   1 1.96633 3.84803   2
  -4  11  -1 100.877 7.81106   3
  -4  11  -1 111.327 5.69799   1
   4 -11   1 119.892 8.65457   2
   4 -11   1 101.276 6.54484   1
  -5  11  -1 -0.4732 3.62799   3
   5 -11   1 0.26729 4.06659   2
  -6  11  -1 75.9602 8.30870   3
   6 -11   1 53.7979 8.39755   2
  -7  11  -1 9.15861 4.88917   3
   7 -11   1 4.73732 5.50330   2
   8  10  -1 30.7222 6.39602   2
   8  10  -1 23.9888 5.08499   1
  -8 -10   1 26.6509 4.92734   2
   7  10  -1 0.34471 2.65612   1
  -7 -10   1 -1.2707 6.87013   2
  -7 -10   1 1.86693 3.37308   1
   6  10  -1 7.70699 2.44163   1
  -6 -10   1 4.58926 3.17443   1
  -6 -10   1 3.13747 3.39604   2
   5  10  -1 31.8843 4.73323   3
   5  10  -1 34.9956 4.09182   1
  -5 -10   1 44.3968 5.33105   1
  -5 -10   1 24.9755 5.29771   2
   4  10  -1 42.0376 4.59756   3
   4  10  -1 46.1234 4.13141   1
  -4 -10   1 57.4480 5.58854   2
  -4 -10   1 51.2824 5.08524   1
   3  10  -1 2.75182 2.22142   3
   3  10  -1 2.53351 1.73392   1
  -3 -10   1 0.74509 2.62964   2
  -3 -10   1 -0.7881 2.19688   1
   2  10  -1 357.554 11.9118   3
   2  10  -1 381.071 12.1079   1
  -2 -10   1 358.796 12.5272   1
  -2 -10   1 361.509 12.2724   2
   1  10  -1 6.95408 2.33448   3
   1  10  -1 9.37869 1.92984   1
  -1 -10   1 9.86311 2.37496   1
  -1 -10   1 9.54651 2.74359   2
   0  10  -1 386.504 12.2893   1
   0  10  -1 387.326 12.5921   3
   0 -10   1 372.000 12.7671   2
   0 -10   1 374.573 12.7078   1
  -1  10  -1 4.04231 2.40214   3
  -1  10  -1 11.4269 2.85171   1
   1 -10   1 2.47088 2.07388   1
   1 -10   1 1.71452 2.75140   2
  -2  10  -1 966.205 27.7709   3
  -2  10  -1 905.490 26.9881   1
   2 -10   1 950.918 27.8873   2
   2 -10   1 915.372 27.4562   1
  -3  10  -1 11.6390 3.10493   3
  -3  10  -1 19.0853 3.25594   1
   3 -10   1 10.0442 3.41438   2
   3 -10   1 9.12527 2.48140   1
  -4  10  -1 376.063 11.8013   1
   4 -10   1 360.125 12.1956   1
   4 -10   1 363.230 13.3548   2
  -5  10  -1 1.02254 3.06987   3
   5 -10   1 -0.2256 2.52744   1
   5 -10   1 -4.3226 3.54542   2
  -6  10  -1 126.708 8.07349   3
   6 -10   1 119.949 8.83448   2
  -7  10  -1 7.73146 4.06351   3
   7 -10   1 8.18250 4.74642   2
  -8  10  -1 15.7464 5.12138   3
   8 -10   1 19.1290 5.74630   2
   9   9  -1 41.4275 5.62348   1
   9   9  -1 45.4137 7.16007   2
  -9  -9   1 53.5393 7.97530   2
   8   9  -1 -0.5068 2.55148   1
   8   9  -1 1.20809 3.09985   2
  -8  -9   1 -0.0904 3.66400   2
   7   9  -1 1.86770 2.79166   2
   7   9  -1 7.10584 4.40401   3
   7   9  -1 3.91814 2.32531   1
  -7  -9   1 0.15498 2.86838   1
  -7  -9   1 -0.9787 3.26005   2
   6   9  -1 73.7985 5.27215   3
   6   9  -1 74.9682 4.79232   1
  -6  -9   1 59.4589 5.57311   2
  -6  -9   1 73.1804 5.80270   1
   5   9  -1 12.0990 2.47085   3
  -5  -9   1 10.3009 2.92261   2
   4   9  -1 260.108 9.07118   3
   4   9  -1 265.286 9.15764   1
  -4  -9   1 258.730 9.77270   1
  -4  -9   1 258.751 9.63265   2
   3   9  -1 29.9403 3.02972   1
   3   9  -1 23.6690 3.46512   3
  -3  -9   1 29.0258 3.94804   2
  -3  -9   1 27.2979 3.63930   1
   2   9  -1 360.375 11.5618   3
   2   9  -1 361.219 11.6816   1
  -2  -9   1 367.565 12.1958   1
  -2  -9   1 360.379 11.8605   2
   1   9  -1 51.7161 3.31085   1
   1   9  -1 49.5772 3.80036   3
  -1  -9   1 41.6444 4.10930   2
  -1  -9   1 45.6830 3.86604   1
   0   9  -1 982.599 27.9672   1
   0   9  -1 955.640 28.0134   3
   0  -9   1 969.143 28.3580   1
   0  -9   1 979.846 28.1758   2
  -1   9  -1 5.01142 2.05262   3
  -1   9  -1 4.16949 1.42192   1
   1  -9   1 4.82960 2.43240   2
   1  -9   1 5.30357 1.84387   1
  -2   9  -1 309.696 10.2152   1
  -2   9  -1 321.127 10.9607   3
   2  -9   1 327.113 10.6502   1
   2  -9   1 316.405 11.1361   2
  -3   9  -1 28.5901 4.10911   3
  -3   9  -1 26.6451 2.86267   1
   3  -9   1 23.3523 4.51007   2
   3  -9   1 20.8533 3.36099   1
  -4   9  -1 310.332 10.9511   3
  -4   9  -1 283.341 9.49664   1
   4  -9   1 295.246 11.1205   2
   4  -9   1 291.171 10.0028   1
  -5   9  -1 39.7966 3.31593   1
   5  -9   1 28.2436 6.04922   2
   5  -9   1 40.5446 4.06868   1
  -6   9  -1 36.8108 5.57454   3
   6  -9   1 46.1842 6.62392   2
  -7   9  -1 -1.2058 3.36920   3
   7  -9   1 3.67109 3.84607   2
  -8   9  -1 7.42560 4.19930   3
   8  -9   1 4.00254 4.64409   2
  -9   9  -1 4.37658 4.93653   3
   9  -9   1 0.51135 4.88887   2
  10   8  -1 -0.7024 3.77255   2
  10   8  -1 3.92169 2.92056   1
 -10  -8   1 -3.2296 4.46558   2
   9   8  -1 34.3767 4.95695   1
   9   8  -1 45.1012 6.26637   2
  -9  -8   1 42.7300 7.09567   2
   8   8  -1 22.5979 5.67943   2
   8   8  -1 20.1044 4.22796   1
   8   8  -1 16.0760 3.37129   3
  -8  -8   1 12.3154 4.29492   2
   7   8  -1 1.77768 2.40559   3
   7   8  -1 3.25000 2.41647   2
  -7  -8   1 -1.7543 2.76145   2
   6   8  -1 14.5203 3.90008   3
   6   8  -1 19.8742 3.24644   1
  -6  -8   1 20.4216 4.04716   1
  -6  -8   1 18.3248 4.11110   2
   5   8  -1 99.8722 5.05963   3
   5   8  -1 101.053 4.83887   1
  -5  -8   1 93.7258 5.41211   2
  -5  -8   1 91.6545 5.30615   1
   4   8  -1 160.456 6.24363   3
   4   8  -1 155.144 6.20471   1
  -4  -8   1 164.866 6.80854   1
  -4  -8   1 169.646 6.85129   2
   3   8  -1 59.3381 3.43460   1
   3   8  -1 52.8415 3.66758   3
  -3  -8   1 59.0593 4.02182   1
  -3  -8   1 59.5193 3.98727   2
   2   8  -1 303.552 9.62724   1
   2   8  -1 292.860 9.50808   3
  -2  -8   1 294.628 9.78956   2
  -2  -8   1 289.353 9.99975   1
   1   8  -1 28.0923 2.93983   3
   1   8  -1 29.8358 2.57041   1
  -1  -8   1 26.1528 3.02176   1
  -1  -8   1 33.7604 3.42626   2
   0   8  -1 19.4922 2.27663   1
   0   8  -1 16.5309 2.81518   3
   0  -8   1 22.8276 3.16997   2
   0  -8   1 17.0323 2.71059   1
  -1   8  -1 26.9284 2.37456   1
  -1   8  -1 22.8926 3.09490   3
   1  -8   1 25.5532 3.51637   2
   1  -8   1 24.5126 2.82868   1
  -2   8  -1 317.678 9.92168   1
  -2   8  -1 325.995 10.5536   3
   2  -8   1 307.018 10.7485   2
   2  -8   1 310.971 10.1742   1
  -3   8  -1 28.6863 3.60863   3
  -3   8  -1 29.3695 2.51434   1
   3  -8   1 27.1472 2.86940   1
   3  -8   1 24.7661 4.03040   2
  -4   8  -1 128.371 4.85517   1
  -4   8  -1 132.895 6.21987   3
   4  -8   1 124.176 5.18054   1
   4  -8   1 115.026 6.51993   2
  -5   8  -1 3.20188 2.43214   3
  -5   8  -1 4.37466 1.42033   1
   5  -8   1 3.46396 1.76145   1
   5  -8   1 4.78986 2.74330   2
   6  -8   1 96.1559 6.66165   2
  -7   8  -1 35.1968 5.88473   3
   7  -8   1 41.1388 7.58676   2
  -8   8  -1 21.0709 4.40932   3
   8  -8   1 19.7416 4.59907   2
  -9   8  -1 0.29430 4.08816   3
   9  -8   1 4.46345 4.63898   2
  10   7  -1 1.24602 3.60582   2
  10   7  -1 3.17807 2.54822   1
 -10  -7   1 -1.8948 4.08248   2
   9   7  -1 -4.4072 3.19673   3
   9   7  -1 2.76150 2.40027   1
   9   7  -1 -1.8204 2.95943   2
  -9  -7   1 0.29955 3.07322   3
  -9  -7   1 0.04208 3.24646   2
   8   7  -1 11.0533 2.86019   3
   8   7  -1 7.01746 2.14627   1
   8   7  -1 13.7289 2.70091   2
  -8  -7   1 8.85343 2.86811   3
  -8  -7   1 20.9375 4.69155   2
   7   7  -1 173.293 7.10503   2
   7   7  -1 178.653 6.71479   1
   7   7  -1 153.175 7.00330   3
  -7  -7   1 162.800 7.56554   2
  -7  -7   1 166.239 7.45572   1
   6   7  -1 3.57509 1.52503   1
   6   7  -1 2.37241 1.97821   3
  -6  -7   1 3.62627 2.03451   1
  -6  -7   1 6.75207 2.35730   2
   5   7  -1 1.45065 1.36942   1
   5   7  -1 -0.5245 1.68570   3
  -5  -7   1 0.06323 1.86524   2
  -5  -7   1 0.32155 1.67732   1
   4   7  -1 21.8730 2.38873   1
   4   7  -1 26.7646 2.83950   3
  -4  -7   1 23.4664 3.26404   2
  -4  -7   1 25.5073 2.93014   1
   3   7  -1 48.9845 3.20107   3
   3   7  -1 50.6838 2.94725   1
  -3  -7   1 42.6557 3.36966   1
  -3  -7   1 48.1099 3.36695   2
   2   7  -1 213.906 7.16220   1
   2   7  -1 210.692 7.15563   3
  -2  -7   1 216.865 7.52859   1
  -2  -7   1 209.404 7.88039   2
   1   7  -1 3.63061 0.97735   1
   1   7  -1 2.81526 1.31874   3
  -1  -7   1 3.69076 1.58383   2
  -1  -7   1 3.58524 1.35451   1
   0   7  -1 1087.98 30.9073   1
   0   7  -1 1084.57 30.9794   3
   0  -7   1 1099.92 31.1774   1
   0  -7   1 1123.44 31.0927   2
  -1   7  -1 348.850 10.7896   3
   1  -7   1 325.813 11.3435   2
   1  -7   1 353.148 10.7345   1
  -2   7  -1 170.170 6.27896   3
   2  -7   1 167.306 5.96269   1
   2  -7   1 160.859 6.46582   2
  -3   7  -1 222.338 7.99206   3
   3  -7   1 218.255 7.40685   1
   3  -7   1 228.012 8.39790   2
  -4   7  -1 182.725 7.07805   3
   4  -7   1 185.310 7.45374   2
   4  -7   1 172.345 6.19994   1
  -5   7  -1 275.372 9.68116   3
   5  -7   1 247.103 10.0239   1
   5  -7   1 264.601 9.86948   2
  -6   7  -1 32.3119 2.42272   1
  -6   7  -1 33.8210 4.35869   3
   6  -7   1 35.5490 3.26525   1
   6  -7   1 34.1703 4.96042   2
  -7   7  -1 63.4713 5.62973   3
   7  -7   1 46.4278 5.66726   2
  -8   7  -1 0.20073 3.20494   3
   8  -7   1 -1.0976 3.34431   2
  -9   7  -1 54.4798 7.10043   3
   9  -7   1 56.1008 7.83689   2
 -10   7  -1 7.33841 4.68841   3
  10  -7   1 10.8924 5.00915   2
  11   6  -1 -0.7341 3.91455   2
 -11  -6   1 -1.2349 4.51162   2
  10   6  -1 -0.9577 2.29169   1
  10   6  -1 3.46973 3.04655   2
  10   6  -1 2.44712 3.36030   3
 -10  -6   1 6.61267 3.74620   2
 -10  -6   1 1.77852 3.65147   3
   9   6  -1 0.05912 1.91120   1
   9   6  -1 1.32387 2.69116   2
   9   6  -1 0.76783 2.88121   3
  -9  -6   1 -3.5168 3.01729   2
  -9  -6   1 1.40470 2.93723   3
   8   6  -1 17.7855 3.29530   1
   8   6  -1 22.3657 4.36870   3
   8   6  -1 30.6233 4.29925   2
  -8  -6   1 24.3812 5.00859   2
  -8  -6   1 22.0992 4.33865   3
   7   6  -1 92.4208 5.12099   3
   7   6  -1 92.1837 4.92082   2
   7   6  -1 91.8487 4.42088   1
  -7  -6   1 93.7616 5.55174   2
  -7  -6   1 87.7871 5.24348   1
  -7  -6   1 84.7970 5.09683   3
   6   6  -1 120.559 5.44523   3
   6   6  -1 126.141 5.33972   2
   6   6  -1 123.022 5.08124   1
  -6  -6   1 121.720 5.41513   3
  -6  -6   1 120.657 5.57172   1
  -6  -6   1 123.507 5.83453   2
   5   6  -1 27.3833 2.36141   1
   5   6  -1 26.1201 2.92793   3
  -5  -6   1 23.4246 2.99014   1
  -5  -6   1 23.7743 3.10864   2
   4   6  -1 533.269 15.8823   1
  -4  -6   1 538.280 16.2634   1
  -4  -6   1 543.234 16.1250   2
   3   6  -1 136.956 4.99924   1
   3   6  -1 135.633 5.08406   3
  -3  -6   1 133.570 5.35278   1
  -3  -6   1 140.526 5.32733   2
   2   6  -1 3.65938 1.23113   3
   2   6  -1 1.31454 0.84406   1
  -2  -6   1 1.12136 1.06960   1
  -2  -6   1 2.36056 1.32099   2
   1   6  -1 1187.17 33.0909   3
  -1  -6   1 1195.40 33.1305   2
  -1  -6   1 1171.36 33.3244   1
   0   6  -1 4.77148 1.25876   3
   0  -6   1 5.51335 1.21531   1
   0  -6   1 5.85010 1.35499   2
  -1   6  -1 244.817 7.95765   3
   1  -6   1 248.075 7.84868   1
   1  -6   1 242.250 8.02115   2
  -2   6  -1 50.9574 3.01931   3
   2  -6   1 50.4172 3.50852   2
  -3   6  -1 1513.37 41.5018   3
   3  -6   1 1396.40 41.4925   2
   3  -6   1 1521.30 40.9643   1
  -4   6  -1 4.01939 1.74167   3
   4  -6   1 5.55526 2.01717   2
   4  -6   1 8.16382 2.00622   1
  -5   6  -1 325.120 10.9645   3
   5  -6   1 329.653 11.1349   2
   5  -6   1 324.061 9.82622   1
  -6   6  -1 9.93370 2.27891   3
   6  -6   1 13.5859 2.31083   1
   6  -6   1 14.7946 3.96130   2
  -7   6  -1 138.343 6.99083   3
   7  -6   1 142.656 6.98040   2
  -8   6  -1 31.5289 5.57956   3
   8  -6   1 32.8137 5.62255   2
  -9   6  -1 1.05694 3.28528   3
   9  -6   1 -0.7454 3.41978   2
 -10   6  -1 1.84474 4.01216   3
  10  -6   1 8.31570 4.49046   2
 -11   6  -1 1.13296 4.86747   3
  11  -6   1 -1.0379 5.11817   2
  11   5  -1 -0.5518 3.72349   2
  11   5  -1 -4.5882 3.88592   3
 -11  -5   1 1.48367 3.96453   3
 -11  -5   1 4.79914 4.11662   2
  10   5  -1 -2.0114 3.13012   3
  10   5  -1 -0.3473 2.92785   2
  10   5  -1 -3.5181 2.05887   1
 -10  -5   1 -1.8444 3.23689   3
 -10  -5   1 0.74236 3.40174   2
   9   5  -1 -0.3552 2.73462   3
   9   5  -1 5.95736 3.13428   2
   9   5  -1 4.74410 1.91042   1
  -9  -5   1 2.17818 2.68967   3
  -9  -5   1 2.32721 3.13421   2
   8   5  -1 59.6261 4.66311   3
   8   5  -1 63.0371 4.49682   2
   8   5  -1 65.8531 3.78632   1
  -8  -5   1 61.0482 5.03024   2
  -8  -5   1 55.6872 4.70068   3
   7   5  -1 21.8838 2.68146   1
   7   5  -1 22.9565 3.46161   3
   7   5  -1 21.4920 3.15532   2
  -7  -5   1 19.8150 3.40488   3
  -7  -5   1 27.3684 3.70247   2
  -7  -5   1 19.4888 3.43903   1
   6   5  -1 29.5345 3.08910   3
   6   5  -1 29.8745 2.41392   1
   6   5  -1 31.1085 2.93564   2
  -6  -5   1 31.2475 3.17900   3
  -6  -5   1 27.6234 3.42748   2
  -6  -5   1 35.6113 3.07827   1
   5   5  -1 388.322 11.8390   1
   5   5  -1 388.685 11.9587   3
  -5  -5   1 388.699 12.0318   3
  -5  -5   1 397.764 12.2390   1
  -5  -5   1 398.018 12.2929   2
   4   5  -1 203.575 6.57346   1
   4   5  -1 192.743 6.63765   3
  -4  -5   1 201.271 6.92049   1
   3   5  -1 215.361 7.33863   1
   3   5  -1 270.578 7.50270   3
  -3  -5   1 219.141 7.59240   1
  -3  -5   1 227.782 7.55553   2
   2   5  -1 13.8803 1.42402   1
  -2  -5   1 12.2606 1.71557   1
  -2  -5   1 17.7595 1.93563   2
   1   5  -1 444.507 13.2285   2
   1   5  -1 464.446 13.3014   3
  -1  -5   1 464.460 13.2911   2
   0   5  -1 562.728 16.3407   2
   0   5  -1 573.848 16.4242   3
   0  -5   1 571.620 16.3895   2
   0  -5   1 582.508 16.4988   1
  -1   5  -1 3583.17 98.8930   2
  -1   5  -1 3746.51 99.0619   3
   1  -5   1 3493.25 98.9834   2
   1  -5   1 3678.29 98.9246   1
   2  -5   1 0.72406 0.80246   1
   2  -5   1 2.81380 1.34303   2
  -3   5  -1 437.876 13.1290   3
   3  -5   1 434.801 13.2209   2
   3  -5   1 430.718 12.5504   1
  -4   5  -1 48.7826 3.09200   3
  -4   5  -1 42.8549 2.97126   1
   4  -5   1 35.4473 2.14708   1
   4  -5   1 39.9191 3.21901   2
  -5   5  -1 1040.40 31.4898   1
  -5   5  -1 1186.75 32.5396   3
   5  -5   1 1146.13 32.4769   2
   5  -5   1 1170.12 31.3899   1
  -6   5  -1 -1.2910 1.63174   3
   6  -5   1 0.42836 1.05924   1
   6  -5   1 -2.1392 1.78683   2
  -7   5  -1 243.988 9.24524   3
   7  -5   1 249.744 9.43612   2
  -8   5  -1 35.8528 5.03393   3
   8  -5   1 29.6273 5.26661   2
  -9   5  -1 108.096 6.69277   3
   9  -5   1 105.373 7.75186   2
 -10   5  -1 11.7912 4.07218   3
  10  -5   1 5.90000 4.20079   2
 -11   5  -1 -4.1592 4.27757   3
  11  -5   1 1.91184 5.07083   2
  12   4  -1 -2.4651 4.34808   2
 -12  -4   1 -1.2220 4.95819   3
  11   4  -1 -1.3528 3.79865   3
  11   4  -1 0.37541 3.55729   2
 -11  -4   1 -1.2793 3.81716   3
  10   4  -1 -0.2838 2.86871   2
  10   4  -1 -8.5167 3.15213   3
 -10  -4   1 -1.8076 3.15942   2
 -10  -4   1 1.64345 3.12344   3
   9   4  -1 4.18461 2.49970   2
   9   4  -1 4.42365 1.66308   1
   9   4  -1 1.48606 2.69670   3
  -9  -4   1 6.70888 2.76087   3
  -9  -4   1 8.58772 3.11398   2
   8   4  -1 150.804 5.68813   1
   8   4  -1 141.405 6.64804   3
   8   4  -1 151.198 6.44421   2
  -8  -4   1 151.373 6.68365   3
  -8  -4   1 151.721 6.96502   2
   7   4  -1 3.99941 1.71595   2
   7   4  -1 7.88532 1.89568   3
   7   4  -1 5.06912 1.30480   1
  -7  -4   1 3.25682 1.95573   2
  -7  -4   1 5.24018 1.92165   3
  -7  -4   1 6.64299 1.87133   1
   6   4  -1 4.84915 1.47488   2
   6   4  -1 4.69214 1.56795   3
   6   4  -1 8.75029 1.68479   1
  -6  -4   1 5.01325 1.64102   3
  -6  -4   1 6.33818 1.50081   1
  -6  -4   1 5.22523 1.72830   2
   5   4  -1 42.7276 2.81024   2
   5   4  -1 44.4383 2.36973   1
  -5  -4   1 40.2912 2.73680   1
  -5  -4   1 44.6332 3.02104   2
   4   4  -1 265.751 8.14858   1
   4   4  -1 271.098 8.12152   3
  -4  -4   1 259.665 8.30201   2
  -4  -4   1 257.784 8.13725   3
  -4  -4   1 230.642 8.63181   1
   3   4  -1 894.342 25.0159   1
   3   4  -1 871.770 25.0070   3
  -3  -4   1 878.906 25.0418   3
  -3  -4   1 912.736 25.1811   2
  -3  -4   1 907.833 25.2248   1
   2   4  -1 116.179 4.05082   2
   2   4  -1 106.867 4.09805   3
   2   4  -1 120.664 4.03823   3
  -2  -4   1 105.340 4.04944   3
  -2  -4   1 116.359 4.03602   2
  -2  -4   1 121.032 4.16709   1
   1   4  -1 1497.27 41.9219   2
   1   4  -1 1560.66 42.0369   3
  -1  -4   1 1574.22 42.1879   1
  -1  -4   1 1468.35 42.0120   3
  -1  -4   1 1539.08 41.9783   2
   0   4  -1 402.090 11.5242   3
   0   4  -1 398.942 11.4257   2
   0  -4   1 395.121 11.4416   2
   0  -4   1 390.693 11.5538   3
   0  -4   1 399.550 11.5280   1
  -1   4  -1 1685.72 44.7245   3
  -1   4  -1 1668.36 44.5883   2
  -1   4  -1 1555.78 44.4825   1
   1  -4   1 1653.22 44.5609   1
   1  -4   1 1545.26 44.6640   2
  -2   4  -1 103.721 3.59788   1
  -2   4  -1 106.636 3.86359   2
  -2   4  -1 106.531 3.97763   3
   2  -4   1 102.489 4.01890   2
   2  -4   1 114.708 3.64902   1
  -3   4  -1 6001.72 163.792   1
   3  -4   1 6168.55 163.786   1
   3  -4   1 5937.19 164.289   2
  -4   4  -1 -0.5298 1.12683   3
  -4   4  -1 0.08731 0.91555   1
   4  -4   1 -0.1269 0.65003   1
  -5   4  -1 592.164 17.8209   1
  -5   4  -1 645.227 18.8100   3
   5  -4   1 656.205 18.8235   2
   5  -4   1 648.467 17.7021   1
  -6   4  -1 17.6455 2.88183   3
   6  -4   1 20.4333 2.93614   2
  -7   4  -1 314.747 10.9930   3
   7  -4   1 326.693 10.9828   2
  -8   4  -1 120.053 6.33659   3
   8  -4   1 116.234 6.45772   2
  -9   4  -1 8.35607 3.06357   3
   9  -4   1 7.69171 3.23247   2
 -10   4  -1 1.68404 3.23780   3
  10  -4   1 -1.9588 3.40397   2
 -11   4  -1 4.69153 4.15513   3
  11  -4   1 1.99710 4.29146   2
  12   3  -1 13.7744 4.34463   2
 -12  -3   1 9.95314 5.04381   3
  11   3  -1 5.26550 3.47772   2
 -11  -3   1 10.2890 3.90456   3
  10   3  -1 4.41251 2.81069   2
 -10  -3   1 8.47301 3.27745   3
   9   3  -1 28.0184 4.18154   2
   9   3  -1 25.1463 2.91336   1
  -9  -3   1 26.3256 4.60612   3
  -9  -3   1 21.4325 4.65852   2
   8   3  -1 13.1326 2.17054   1
   8   3  -1 11.6430 2.17979   2
  -8  -3   1 12.9150 2.51930   3
  -8  -3   1 15.4513 3.85684   2
   7   3  -1 16.2257 1.90137   1
   7   3  -1 12.9799 2.72492   2
  -7  -3   1 15.2169 3.21823   2
  -7  -3   1 16.5053 3.07936   3
   6   3  -1 203.973 7.07460   2
  -6  -3   1 205.726 7.42026   2
  -6  -3   1 213.832 7.25364   3
   5   3  -1 430.092 12.8513   1
   5   3  -1 454.838 13.1770   2
  -5  -3   1 437.976 13.1336   1
  -5  -3   1 451.995 13.3703   3
  -5  -3   1 445.492 13.4011   2
   4   3  -1 34.9220 2.23691   3
   4   3  -1 34.3360 1.80084   1
   4   3  -1 27.4517 2.13216   2
  -4  -3   1 32.0821 2.30924   3
  -4  -3   1 38.5190 2.49995   2
  -4  -3   1 37.9623 2.24721   1
   3   3  -1 513.755 14.2983   3
   3   3  -1 485.547 14.1687   1
   3   3  -1 478.054 14.2721   3
   3   3  -1 488.600 14.4197   2
  -3  -3   1 512.802 14.4139   2
  -3  -3   1 506.547 14.3342   3
  -3  -3   1 503.559 14.3447   1
   2   3  -1 9.94120 1.30726   2
   2   3  -1 7.93827 1.41519   3
  -2  -3   1 11.0144 1.39814   3
  -2  -3   1 9.92939 1.23685   1
  -2  -3   1 9.28736 1.24374   2
   1   3  -1 6183.19 165.157   1
   1   3  -1 6074.79 165.299   2
   1   3  -1 5986.56 165.811   3
  -1  -3   1 5953.36 165.346   2
  -1  -3   1 6206.89 165.140   3
  -1  -3   1 6116.27 165.856   1
   0   3  -1 1801.66 48.9073   3
   0   3  -1 1774.14 48.8593   1
   0   3  -1 1810.97 48.7931   2
   0  -3   1 1787.78 48.8992   1
   0  -3   1 1747.99 48.7706   2
   0  -3   1 1802.08 48.9202   3
  -1   3  -1 4274.78 110.583   2
  -1   3  -1 4118.55 110.529   1
  -1   3  -1 4169.99 110.714   3
   1  -3   1 3627.43 110.602   2
   1  -3   1 4056.26 110.558   1
   1  -3   1 4175.42 110.708   3
  -2   3  -1 389.524 11.5732   3
  -2   3  -1 395.516 11.4367   2
  -2   3  -1 405.397 11.2798   1
   2  -3   1 400.109 11.5750   2
   2  -3   1 402.955 11.2661   1
  -3   3  -1 5.52926 1.08009   3
   3  -3   1 5.95176 1.47920   1
   3  -3   1 7.12467 1.40943   2
  -4   3  -1 0.80840 1.08342   3
  -4   3  -1 2.75419 0.80042   1
   4  -3   1 1.96226 1.02128   2
   4  -3   1 0.82643 0.52369   1
  -5   3  -1 1054.85 28.3696   1
  -5   3  -1 1017.32 29.3150   3
   5  -3   1 1020.32 29.2404   2
   5  -3   1 1040.52 28.3103   1
  -6   3  -1 158.882 6.14256   3
   6  -3   1 154.330 5.98352   2
  -7   3  -1 30.8016 3.60104   3
   7  -3   1 28.2321 3.46411   2
  -8   3  -1 2.52320 2.14977   3
   8  -3   1 2.95670 2.19348   2
  -9   3  -1 21.4485 4.44869   3
   9  -3   1 25.2871 5.34133   2
 -10   3  -1 39.7648 5.77939   3
  10  -3   1 36.0354 6.79738   2
 -11   3  -1 6.32538 3.97501   3
  11  -3   1 4.11956 4.27273   2
 -12   3  -1 24.5953 5.47715   3
  12  -3   1 8.66622 5.40129   2
  12   2  -1 2.13283 4.31102   2
 -12  -2   1 5.00805 4.61802   3
  11   2  -1 -0.2719 3.19206   2
 -11  -2   1 0.56708 3.56473   3
  10   2  -1 6.62190 2.78817   2
 -10  -2   1 10.1005 3.23357   3
   9   2  -1 33.8032 4.06688   2
   9   2  -1 32.2747 3.75321   1
  -9  -2   1 27.2338 4.54631   3
   8   2  -1 58.0327 2.97087   1
   8   2  -1 56.2241 4.07327   2
  -8  -2   1 51.8534 4.20370   3
  -8  -2   1 57.1909 4.50132   2
   7   2  -1 29.5461 2.90895   2
  -7  -2   1 27.1634 3.28185   2
   6   2  -1 60.2851 3.27342   2
   6   2  -1 55.9477 2.56380   1
  -6  -2   1 56.1134 3.10160   1
  -6  -2   1 59.4921 3.46626   3
  -6  -2   1 63.4443 3.61796   2
   5   2  -1 608.497 17.8402   2
   5   2  -1 627.283 17.3577   1
  -5  -2   1 623.603 17.5472   1
  -5  -2   1 598.322 18.0494   2
  -5  -2   1 621.879 17.8418   3
   4   2  -1 2841.85 79.1370   1
   4   2  -1 2923.51 79.3591   2
   4   2  -1 2891.18 79.0884   1
  -4  -2   1 2983.45 79.2682   1
  -4  -2   1 2920.60 79.5284   2
  -4  -2   1 2861.41 79.3957   3
   3   2  -1 440.045 12.4153   1
   3   2  -1 429.995 12.4675   1
   3   2  -1 436.497 12.7592   2
   3   2  -1 438.386 12.6430   3
   3   2  -1 438.779 12.5449   2
  -3  -2   1 451.224 12.6574   3
  -3  -2   1 438.169 12.6921   2
  -3  -2   1 441.996 12.5433   1
   2   2  -1 386.586 11.1866   2
   2   2  -1 389.354 11.1568   3
   2   2  -1 393.447 11.1885   3
   2   2  -1 390.136 11.1044   1
  -2  -2   1 394.759 11.1882   3
  -2  -2   1 386.526 11.1424   1
  -2  -2   1 397.579 11.2194   2
   1   2  -1 348.819 9.27844   3
   1   2  -1 331.775 9.28531   3
   1   2  -1 318.103 9.13865   2
   1   2  -1 318.819 9.22138   1
  -1  -2   1 306.214 9.48032   1
  -1  -2   1 326.728 9.25833   3
  -1  -2   1 322.251 9.14958   2
   0   2  -1 611.932 16.0367   2
   0   2  -1 570.715 16.1733   3
   0   2  -1 572.430 16.1209   1
   0  -2   1 577.630 16.1779   3
   0  -2   1 575.929 16.1440   1
   0  -2   1 584.448 16.0149   2
  -1   2  -1 1435.06 39.3472   1
  -1   2  -1 1470.74 39.3650   2
   1  -2   1 1454.89 39.3546   1
   1  -2   1 1456.02 39.5031   3
   1  -2   1 1395.66 39.4104   2
  -2   2  -1 590.044 16.7580   2
  -2   2  -1 612.295 16.6348   1
   2  -2   1 592.971 16.8684   2
   2  -2   1 610.085 16.5897   1
  -3   2  -1 2395.71 66.8739   2
  -3   2  -1 2447.31 66.5850   1
  -3   2  -1 2369.49 66.9884   3
   3  -2   1 2576.38 66.9666   2
   3  -2   1 2560.56 66.5200   1
   3  -2   1 2339.03 66.9567   2
  -4   2  -1 1209.89 32.2380   1
  -4   2  -1 1161.10 32.9030   3
   4  -2   1 1182.50 32.2052   1
   4  -2   1 1163.17 32.8353   2
  -5   2  -1 4.99127 1.24685   3
  -5   2  -1 5.09137 0.91180   1
   5  -2   1 7.71462 0.92542   1
   5  -2   1 9.97564 1.84127   2
  -6   2  -1 12.6412 2.44278   3
   6  -2   1 11.2399 2.38604   2
  -7   2  -1 287.268 9.76831   3
   7  -2   1 290.943 9.74902   2
  -8   2  -1 48.4633 4.29630   3
   8  -2   1 49.8637 4.30162   2
  -9   2  -1 13.8137 2.83758   3
   9  -2   1 25.6498 4.56857   2
 -10   2  -1 0.18596 2.97439   3
  10  -2   1 -1.0206 3.11488   2
 -11   2  -1 6.55482 3.68997   3
  11  -2   1 7.17817 4.04527   2
 -12   2  -1 27.2030 5.40324   3
  12  -2   1 50.1497 9.79048   2
  12   1  -1 16.9741 4.87835   2
 -12  -1   1 13.5883 4.69080   3
  11   1  -1 -0.3765 3.46255   2
 -11  -1   1 -1.9166 3.61414   3
  10   1  -1 46.5628 5.27464   2
 -10  -1   1 37.5759 6.81145   3
   9   1  -1 7.12305 2.44781   2
  -9  -1   1 4.52315 2.45730   3
   8   1  -1 202.648 6.40138   1
   8   1  -1 216.030 7.78171   2
  -8  -1   1 198.357 7.85755   3
   7   1  -1 53.2734 2.73700   1
   7   1  -1 59.6033 3.59537   2
   7   1  -1 55.2000 2.44827   1
  -7  -1   1 53.8334 3.73677   3
   6   1  -1 259.799 7.81066   1
   6   1  -1 265.192 8.56759   2
   6   1  -1 264.164 7.71647   1
  -6  -1   1 266.517 8.77090   2
  -6  -1   1 254.083 8.59529   3
   5   1  -1 352.776 10.2137   1
   5   1  -1 356.177 10.1420   1
   5   1  -1 368.708 10.8748   2
  -5  -1   1 361.892 10.3419   1
  -5  -1   1 343.389 11.4388   2
  -5  -1   1 350.897 11.3512   3
   4   1  -1 228.939 6.70027   1
   4   1  -1 227.527 6.63284   1
   4   1  -1 224.189 7.07858   2
  -4  -1   1 234.406 7.18768   3
  -4  -1   1 226.705 7.26500   2
  -4  -1   1 228.724 6.78670   1
   3   1  -1 100.428 3.22961   1
   3   1  -1 97.5710 3.67291   2
   3   1  -1 101.153 3.45378   2
   3   1  -1 100.992 3.55474   3
   3   1  -1 101.474 3.16727   1
  -3  -1   1 101.470 3.28362   1
  -3  -1   1 100.117 3.57678   2
  -3  -1   1 98.7999 3.52912   3
   2   1  -1 501.318 13.9291   2
   2   1  -1 496.149 13.9161   3
   2   1  -1 479.913 13.7294   1
   2   1  -1 505.536 13.8159   2
  -2  -1   1 479.308 13.8818   2
  -2  -1   1 512.323 14.1815   3
  -2  -1   1 474.883 13.7516   1
   1   1  -1 51.2753 1.83823   3
   1   1  -1 55.5064 1.78161   2
   1   1  -1 52.9078 1.76623   1
   1   1  -1 52.2665 1.86971   3
   1   1  -1 53.1542 1.70104   2
  -1  -1   1 52.7947 1.86713   3
  -1  -1   1 53.5351 1.76008   2
  -1  -1   1 52.5900 1.85122   3
  -1  -1   1 52.3491 1.77696   1
  -1   1  -1 247.166 6.87376   2
  -1   1  -1 248.449 6.90333   1
   1  -1   1 243.514 6.99286   3
   1  -1   1 247.711 6.90561   2
   1  -1   1 247.152 6.89224   1
   1  -1   1 237.752 6.87190   2
  -2   1  -1 4102.59 111.887   2
  -2   1  -1 4025.08 111.961   1
   2  -1   1 4112.67 112.233   2
   2  -1   1 4191.40 111.766   3
   2  -1   1 4013.41 112.096   1
   2  -1   1 4254.91 111.801   2
  -3   1  -1 390.514 10.3984   1
  -3   1  -1 370.097 10.8063   3
  -3   1  -1 359.452 10.7319   2
   3  -1   1 384.615 10.7996   2
   3  -1   1 374.016 10.4136   1
   3  -1   1 365.264 10.8963   2
   3  -1   1 369.932 10.8076   3
  -4   1  -1 16.6794 1.66341   3
  -4   1  -1 14.8670 0.92428   1
  -5   1  -1 606.695 16.8986   1
   5  -1   1 618.937 16.9648   1
   5  -1   1 612.895 17.7081   2
  -6   1  -1 2510.94 68.8272   1
  -6   1  -1 2550.48 69.8329   3
   6  -1   1 2493.50 68.8844   1
   6  -1   1 2534.27 69.8224   2
   6  -1   1 2574.64 68.9489   1
  -7   1  -1 19.5854 2.86340   3
   7  -1   1 20.9384 2.77115   2
   7  -1   1 24.2455 1.97740   1
  -8   1  -1 93.1549 5.08035   3
   8  -1   1 100.722 5.14101   2
  -9   1  -1 10.0357 2.66089   3
   9  -1   1 17.2070 3.83447   2
  10  -1   1 40.2605 5.62075   2
 -11   1  -1 17.3793 4.19598   3
  11  -1   1 28.4748 6.26850   2
 -12   1  -1 10.0194 4.58711   3
  12  -1   1 3.68052 4.60770   2
  12   0  -1 0.82999 4.68170   2
 -12   0   1 -1.8309 4.45188   3
  11   0  -1 1.08303 3.58577   2
 -11   0   1 -3.4891 3.50660   3
  10   0  -1 2.51311 2.89886   2
 -10   0   1 2.78671 3.29943   3
   9   0  -1 -0.5729 2.19821   2
  -9   0   1 -1.4114 2.47009   3
   8   0  -1 2.04191 1.81238   2
  -8   0   1 1.30593 1.91571   3
   7   0  -1 143.828 5.78863   2
   7   0  -1 138.664 4.50868   1
  -7   0   1 152.774 5.93725   3
   6   0  -1 13.5669 1.11447   1
   6   0  -1 14.6196 2.19612   2
   6   0  -1 11.8297 1.32660   1
  -6   0   1 10.4323 2.52694   3
   5   0  -1 778.627 21.5183   1
   5   0  -1 794.637 21.5490   1
   5   0  -1 777.640 22.3054   2
   4   0  -1 11.8543 0.78890   1
   4   0  -1 12.7087 0.90673   1
   4   0  -1 10.4718 1.45660   2
  -4   0   1 13.0882 1.65558   3
   3   0  -1 26.4552 1.64102   3
   3   0  -1 23.9515 0.96834   1
   3   0  -1 30.0604 1.80222   2
   3   0  -1 23.1693 1.02534   1
  -3   0   1 25.4991 1.57834   3
  -3   0   1 23.0570 1.09087   1
   2   0  -1 4699.56 128.862   2
   2   0  -1 4826.42 128.906   1
   2   0  -1 4593.03 129.731   2
   2   0  -1 4932.64 128.857   3
  -2   0   1 4625.62 128.777   2
  -2   0   1 4741.68 128.885   1
  -2   0   1 4814.53 130.435   3
   1   0  -1 71.9198 2.57859   1
  -2   0  -1 2830.60 77.7166   1
  -2   0  -1 2883.80 77.8181   2
  -2   0  -1 2847.74 77.6802   3
   2   0   1 2935.72 77.8328   2
   2   0   1 2841.00 77.6717   3
   2   0   1 2925.60 77.7329   2
   2   0   1 2753.47 77.9068   1
  -3   0  -1 399.493 11.8544   3
  -3   0  -1 409.201 11.5745   1
  -3   0  -1 437.827 12.0864   2
   3   0   1 431.534 11.6016   1
   3   0   1 398.927 11.8451   3
   3   0   1 437.704 11.9443   2
   3   0   1 406.895 12.0689   2
  -4   0  -1 6440.51 179.643   1
  -4   0  -1 6669.93 180.001   2
  -4   0  -1 6642.80 179.782   3
   4   0   1 7008.94 180.154   3
   4   0   1 6647.52 179.841   2
   4   0   1 6315.80 179.947   1
  -5   0  -1 -0.3500 0.55406   1
  -5   0  -1 0.39319 0.95023   3
  -5   0  -1 0.68088 1.23760   2
   5   0   1 -0.1770 1.08908   2
   5   0   1 0.45774 0.60333   1
   5   0   1 0.44249 0.78075   1
  -6   0  -1 21.3355 1.38057   1
  -6   0  -1 21.1153 2.39908   3
  -6   0  -1 21.6227 2.53527   2
   6   0   1 20.5943 2.30678   2
   6   0   1 22.6432 1.85729   1
   6   0   1 20.6717 1.40696   1
  -7   0  -1 131.935 5.38924   3
  -7   0  -1 133.048 5.60284   2
  -7   0  -1 118.894 4.18433   1
   7   0   1 127.544 4.53811   1
   7   0   1 134.823 5.41293   2
   7   0   1 133.466 4.23592   1
  -8   0  -1 342.449 11.1427   3
   8   0   1 332.786 11.0901   2
   8   0   1 325.855 9.74328   1
  -9   0  -1 2.37574 2.24250   3
   9   0   1 3.12535 2.01807   2
 -10   0  -1 4.05255 2.82584   3
  10   0   1 0.21213 2.61543   2
 -11   0  -1 12.8548 3.76362   3
  11   0   1 8.25367 3.39891   2
 -12   0  -1 1.81805 4.40604   3
  12   0   1 6.00307 4.42472   2
  12  -1  -1 1.12179 5.06360   2
 -12   1   1 2.06995 4.56472   3
 -11   1   1 -5.8994 3.58201   3
  10  -1  -1 0.92434 3.00446   2
 -10   1   1 0.66009 3.16063   3
   9  -1  -1 8.62768 2.70794   2
  -9   1   1 9.14146 2.71028   3
   8  -1  -1 89.4822 5.06852   2
  -8   1   1 84.7830 5.18165   3
   7  -1  -1 45.3087 3.53057   2
  -7   1   1 50.5713 3.70356   3
   6  -1  -1 16.1884 2.46151   2
  -6   1   1 23.4078 2.63538   3
   5  -1  -1 1889.63 52.8097   2
  -5   1   1 1930.69 52.8687   3
   4  -1  -1 15.4419 1.70395   2
  -4   1   1 15.0399 1.71966   3
   3  -1  -1 23.4008 1.57192   2
   3  -1  -1 25.1609 1.84837   2
   3  -1  -1 25.5125 1.75446   3
  -3   1   1 25.1657 1.66989   2
  -3   1   1 25.2019 1.59220   3
   2  -1  -1 221.489 6.48585   3
   2  -1  -1 216.411 6.49786   2
  -2   1   1 220.723 6.49962   2
   1  -1  -1 1085.28 30.9431   2
   1  -1  -1 1163.98 30.6473   1
   1  -1  -1 1150.48 30.8748   3
  -1   1   1 1084.77 30.6441   1
  -1   1   1 1152.58 30.9730   2
   1   1   1 83.1674 2.15546   3
   1   1   1 63.7805 2.32778   1
   1   1   1 80.8219 2.62627   2
  -2  -1  -1 4318.70 113.741   2
  -2  -1  -1 4087.65 113.478   3
  -2  -1  -1 4020.79 113.534   1
   2   1   1 3997.32 113.865   1
   2   1   1 4601.71 113.449   2
   2   1   1 4010.07 113.334   3
  -3  -1  -1 723.790 19.7247   2
  -3  -1  -1 690.158 19.2392   1
   3   1   1 709.600 19.2994   1
   3   1   1 684.294 19.3406   3
   3   1   1 699.134 19.3635   1
   3   1   1 675.716 19.6796   2
  -4  -1  -1 11.7959 1.39279   3
  -4  -1  -1 12.5187 1.79414   2
  -4  -1  -1 10.6344 0.96697   1
   4   1   1 11.5170 1.44667   3
   4   1   1 10.0769 1.55194   2
   4   1   1 9.21748 0.93730   1
   4   1   1 9.95846 1.30465   1
  -5  -1  -1 30.8272 1.55092   1
  -5  -1  -1 25.2164 2.65135   2
  -5  -1  -1 26.7246 2.15562   3
   5   1   1 30.7255 2.06966   2
   5   1   1 29.0928 1.51622   1
   5   1   1 30.9657 1.95186   1
  -6  -1  -1 1762.54 48.7244   3
  -6  -1  -1 1797.27 49.0507   2
  -6  -1  -1 1659.08 47.9919   1
   6   1   1 1740.58 48.1861   1
   6   1   1 1775.48 48.7788   2
   6   1   1 1791.45 48.0567   1
  -7  -1  -1 19.4936 3.06133   2
  -7  -1  -1 19.9388 2.77162   3
   7   1   1 18.6410 1.71109   1
   7   1   1 14.8495 2.55238   2
  -8  -1  -1 0.29595 1.85511   3
  -8  -1  -1 5.00922 2.06464   2
   8   1   1 0.67434 1.05635   1
   8   1   1 0.52688 1.76451   2
  -9  -1  -1 0.28390 2.38768   2
  -9  -1  -1 1.80272 2.14712   3
   9   1   1 -0.3241 1.27145   1
   9   1   1 3.62509 2.22906   2
 -10  -1  -1 150.692 7.66919   3
  10   1   1 142.121 7.18433   2
 -11  -1  -1 17.3880 3.96372   3
  11   1   1 21.3506 5.58888   2
 -12  -1  -1 1.88615 4.22266   3
  12   1   1 9.73917 4.06560   2
  12  -2  -1 12.7440 5.31871   2
 -12   2   1 13.4145 5.39945   3
  11  -2  -1 11.0235 4.43946   2
 -11   2   1 30.6936 7.01509   3
  10  -2  -1 8.63946 3.75899   2
 -10   2   1 3.69826 3.02601   3
   9  -2  -1 152.687 7.83503   2
  -9   2   1 141.147 7.29081   3
   8  -2  -1 9.15981 2.29466   2
  -8   2   1 8.54857 2.38503   3
   7  -2  -1 479.610 14.8448   2
  -7   2   1 476.495 14.8871   3
   6  -2  -1 95.3553 4.39718   2
  -6   2   1 90.5262 4.33933   3
   5  -2  -1 0.78619 1.10880   2
  -5   2   1 0.34748 1.11710   3
   4  -2  -1 803.716 22.7404   2
  -4   2   1 797.822 22.7072   3
   3  -2  -1 3618.50 97.3629   2
  -3   2   1 3518.90 97.2852   3
   2  -2  -1 369.403 10.7937   2
   2  -2  -1 367.743 10.6666   3
  -2   2   1 367.042 10.7705   2
  -2   2   1 383.117 10.7033   3
   1  -2  -1 1867.10 51.1060   3
   1  -2  -1 1891.57 50.9181   1
   1  -2  -1 1788.76 51.3383   2
   1  -2  -1 1955.28 50.9950   1
  -1   2   1 1969.15 50.9829   1
  -1   2   1 1795.07 51.2851   2
  -1   2   1 1851.92 51.1031   3
  -1   2   1 1886.44 50.9208   1
   0  -2  -1 965.392 25.7071   3
   0  -2  -1 933.272 25.7536   1
   0  -2  -1 956.339 25.8518   1
   0   2   1 945.110 25.8319   1
   0   2   1 928.873 25.6942   3
   0   2   1 922.001 25.7538   1
  -1  -2  -1 835.499 22.5488   1
  -1  -2  -1 835.526 22.2035   3
  -1  -2  -1 805.324 22.4176   1
  -1  -2  -1 796.728 22.5758   2
   1   2   1 844.932 22.2109   3
   1   2   1 811.680 22.4280   1
   1   2   1 803.888 22.5095   1
   1   2   1 810.416 22.1947   3
   1   2   1 778.224 22.5357   2
  -2  -2  -1 2339.79 63.6635   1
  -2  -2  -1 2253.71 63.8971   2
  -2  -2  -1 2379.53 63.5093   3
   2   2   1 2364.10 63.4932   3
   2   2   1 2299.91 63.9051   2
   2   2   1 2378.83 63.6888   1
   2   2   1 2352.20 63.7772   1
  -3  -2  -1 1024.13 27.2566   3
  -3  -2  -1 974.376 27.2653   1
  -3  -2  -1 988.521 27.6763   2
   3   2   1 983.446 27.4002   1
   3   2   1 1000.87 27.2223   3
   3   2   1 1014.46 27.3091   1
   3   2   1 946.500 27.6447   2
  -4  -2  -1 5774.70 152.827   2
  -4  -2  -1 5368.44 152.213   1
  -4  -2  -1 5709.23 152.337   3
   4   2   1 5527.96 152.368   1
   4   2   1 5640.65 152.304   3
   4   2   1 5641.48 152.252   1
  -5  -2  -1 529.918 15.7599   2
  -5  -2  -1 519.545 15.2537   3
   5   2   1 532.877 15.5120   2
   5   2   1 539.279 15.0625   1
  -6  -2  -1 55.3250 3.58324   3
  -6  -2  -1 59.9615 3.52025   2
   6   2   1 60.1682 2.56127   1
   6   2   1 57.1615 3.17023   2
  -7  -2  -1 27.5273 2.89570   3
  -7  -2  -1 37.6951 3.39382   2
   7   2   1 30.8252 2.16667   1
   7   2   1 41.5746 3.01007   2
  -8  -2  -1 706.172 20.8141   3
  -8  -2  -1 712.508 21.3907   2
   8   2   1 690.843 20.9481   2
  -9  -2  -1 95.6948 5.54617   3
  -9  -2  -1 98.3520 5.96335   2
   9   2   1 87.8917 3.95308   1
   9   2   1 92.1808 5.37126   2
 -10  -2  -1 1.28929 2.95539   2
 -10  -2  -1 1.11564 2.83294   3
  10   2   1 3.44002 2.68498   2
 -11  -2  -1 6.54542 3.60179   3
  11   2   1 8.56295 3.43856   2
 -12  -2  -1 -5.6237 4.22767   3
  12   2   1 6.72676 4.07874   2
  12  -3  -1 8.69000 5.49681   2
 -12   3   1 8.25598 5.12311   3
  11  -3  -1 5.17655 4.35670   2
 -11   3   1 3.05199 3.97430   3
  10  -3  -1 3.53788 3.52324   2
 -10   3   1 0.77355 3.15896   3
   9  -3  -1 48.0916 7.09859   2
   8  -3  -1 -4.5483 2.19194   2
  -8   3   1 -0.6527 2.16733   3
   7  -3  -1 34.5976 3.85811   2
  -7   3   1 38.7828 3.54765   3
   6  -3  -1 302.535 10.1265   2
  -6   3   1 309.443 10.1113   3
   5  -3  -1 476.962 14.4107   2
  -5   3   1 477.727 14.3529   3
  -4   3   1 18.9325 2.37251   3
   3  -3  -1 68.6383 3.18495   2
  -3   3   1 74.9651 2.24399   1
  -3   3   1 78.3645 3.10223   3
   2  -3  -1 4409.77 116.871   1
   2  -3  -1 4209.02 117.181   3
   2  -3  -1 4269.40 117.444   2
  -2   3   1 4261.51 117.396   2
  -2   3   1 4368.56 116.823   1
  -2   3   1 4372.66 117.221   3
  -2   3   1 4277.04 116.821   1
   1  -3  -1 5884.44 163.203   2
   1  -3  -1 5956.73 162.880   3
   1  -3  -1 6000.20 163.343   1
  -1   3   1 5893.35 163.452   3
  -1   3   1 6458.10 163.221   2
  -1   3   1 5920.12 163.213   1
  -1   3   1 5936.05 162.880   1
   0  -3  -1 1601.33 47.9332   2
   0  -3  -1 1767.77 47.7063   1
   0  -3  -1 1792.01 47.8487   1
   0  -3  -1 1783.42 47.6582   3
   0   3   1 1786.97 47.7263   1
   0   3   1 1754.90 47.6428   3
   0   3   1 1699.78 47.9310   2
   0   3   1 1805.15 47.8083   1
  -1  -3  -1 2.59948 1.05447   2
  -1  -3  -1 2.60427 0.68651   3
  -1  -3  -1 1.15787 0.70477   1
  -1  -3  -1 -0.3723 0.55338   1
   1   3   1 1.99334 0.61734   3
   1   3   1 -0.4767 0.62038   1
   1   3   1 0.87191 0.67202   1
   1   3   1 0.16206 0.69674   2
  -2  -3  -1 1750.74 50.6128   1
  -2  -3  -1 1902.24 50.8516   1
  -2  -3  -1 1854.34 50.9024   2
   2   3   1 1823.21 50.6498   1
   2   3   1 1881.61 50.3990   3
   2   3   1 1832.53 50.8563   2
   2   3   1 1923.48 50.4140   3
  -3  -3  -1 155.597 4.78340   3
  -3  -3  -1 158.260 5.20038   1
  -3  -3  -1 151.398 5.30922   2
   3   3   1 158.699 4.76433   3
   3   3   1 155.052 4.75501   3
   3   3   1 155.188 4.93770   1
  -4  -3  -1 148.022 5.38552   2
  -4  -3  -1 145.851 4.81516   3
   4   3   1 150.398 4.80460   3
   4   3   1 151.275 4.81071   1
  -5  -3  -1 62.9851 2.92890   3
  -5  -3  -1 65.6203 3.46974   2
   5   3   1 63.6861 2.66187   1
  -6  -3  -1 725.587 21.1599   2
  -6  -3  -1 706.602 20.5155   3
   6   3   1 717.031 20.8196   2
  -7  -3  -1 308.997 10.4962   2
  -7  -3  -1 312.250 9.92724   3
   7   3   1 313.630 9.48576   1
   7   3   1 304.904 10.1366   2
  -8  -3  -1 70.2690 4.40619   3
  -8  -3  -1 73.6371 4.91577   2
   8   3   1 73.2565 3.43244   1
   8   3   1 72.8189 4.44772   2
  -9  -3  -1 47.9352 5.31516   2
  -9  -3  -1 42.7427 4.49219   3
   9   3   1 55.3730 4.69354   2
   9   3   1 59.4378 3.36452   1
 -10  -3  -1 40.9549 5.64304   2
 -10  -3  -1 36.3751 5.13428   3
  10   3   1 30.7551 3.57041   1
  10   3   1 37.0195 4.83707   2
 -11  -3  -1 -1.7463 3.60279   2
  11   3   1 4.96969 3.18952   2
 -12  -3  -1 5.28241 4.43830   3
  12   3   1 3.74270 3.74540   2
  11  -4  -1 3.64310 4.87861   2
 -11   4   1 13.2241 4.47026   3
  10  -4  -1 0.55688 3.95943   2
 -10   4   1 1.15757 3.48236   3
   9  -4  -1 -0.2661 3.15994   2
  -9   4   1 -0.3099 2.81351   3
   8  -4  -1 3.22243 2.60042   2
  -8   4   1 3.47563 2.46518   3
   7  -4  -1 299.046 10.5576   2
  -7   4   1 289.609 10.3322   3
   6  -4  -1 56.6280 3.96419   2
  -6   4   1 55.3057 3.82736   3
   5  -4  -1 636.856 19.1922   2
  -5   4   1 659.580 19.1666   3
   4  -4  -1 534.789 16.0852   2
  -4   4   1 543.925 15.9090   3
   3  -4  -1 2050.36 55.3492   1
   3  -4  -1 2048.86 56.1993   2
  -3   4   1 2003.12 55.2742   1
  -3   4   1 2050.73 55.2573   1
  -3   4   1 1995.77 55.9220   3
   2  -4  -1 1409.81 41.9039   2
   2  -4  -1 1563.64 41.3921   1
  -2   4   1 1534.89 41.6913   3
  -2   4   1 1516.16 41.3062   1
  -2   4   1 1522.42 41.2625   1
   1  -4  -1 40.9294 2.46530   2
   1  -4  -1 47.9323 2.04659   1
   1  -4  -1 46.6351 2.18517   3
  -1   4   1 44.7851 2.08931   3
  -1   4   1 44.3335 2.41785   2
  -1   4   1 44.3649 1.96604   1
  -1   4   1 45.7070 1.81438   1
   0  -4  -1 720.602 19.6954   3
   0  -4  -1 700.099 20.0662   2
   0  -4  -1 746.011 19.9314   1
   0   4   1 694.049 20.0115   2
   0   4   1 668.740 19.8464   3
   0   4   1 719.672 19.7476   1
   0   4   1 708.837 19.8368   1
  -1  -4  -1 165.451 5.35101   2
  -1  -4  -1 161.017 5.25580   1
  -1  -4  -1 164.245 4.90198   3
   1   4   1 168.368 5.08649   1
   1   4   1 149.223 5.19247   2
   1   4   1 156.551 4.81901   3
  -2  -4  -1 21.2238 1.32053   3
  -2  -4  -1 15.1825 1.60554   1
  -2  -4  -1 17.1613 1.80970   2
   2   4   1 19.2824 1.35147   1
   2   4   1 19.8712 1.34200   3
   2   4   1 18.3997 1.21657   3
  -3  -4  -1 6.99853 1.73046   2
  -3  -4  -1 10.9175 1.69242   1
   3   4   1 10.1922 1.22334   1
   3   4   1 10.0617 1.44893   3
   3   4   1 11.5711 1.31456   3
  -4  -4  -1 102.160 4.90439   1
  -4  -4  -1 109.044 3.81859   3
   4   4   1 116.824 3.82085   3
   4   4   1 102.883 3.80701   3
  -5  -4  -1 422.523 13.2023   2
  -5  -4  -1 432.416 12.5772   3
   5   4   1 430.540 12.5309   3
   5   4   1 430.703 12.6312   1
  -6  -4  -1 3.73359 1.77228   2
  -6  -4  -1 3.47857 1.43643   3
   6   4   1 1.46029 1.00384   1
  -7  -4  -1 143.358 6.35687   2
  -7  -4  -1 147.412 5.78846   3
   7   4   1 143.368 5.26741   1
   7   4   1 146.667 5.92227   2
  -8  -4  -1 107.619 5.31701   3
  -8  -4  -1 106.821 5.80442   2
   8   4   1 104.714 5.29175   2
   8   4   1 103.798 4.48701   1
  -9  -4  -1 162.929 7.74444   2
  -9  -4  -1 163.767 7.19177   3
   9   4   1 160.630 6.16597   1
   9   4   1 162.488 7.16943   2
 -10  -4  -1 23.9602 5.46755   3
 -10  -4  -1 28.0908 5.54086   2
  10   4   1 28.8565 3.62774   1
  10   4   1 21.9497 4.66710   2
 -11  -4  -1 9.60268 4.16889   2
 -11  -4  -1 11.1499 4.13304   3
  11   4   1 5.84676 3.47576   2
  12   4   1 -2.1951 3.87816   2
  11  -5  -1 2.63316 4.51404   2
 -11   5   1 11.8461 4.78109   3
  10  -5  -1 -5.5031 3.67732   2
 -10   5   1 1.60403 3.71559   3
   9  -5  -1 158.099 8.74994   2
  -9   5   1 172.065 8.52560   3
   8  -5  -1 46.0410 5.36744   2
  -8   5   1 41.5942 5.58997   3
   7  -5  -1 146.395 6.99410   2
  -7   5   1 150.933 6.75774   3
   6  -5  -1 0.51475 1.88783   2
  -6   5   1 1.09421 1.72946   3
   5  -5  -1 174.592 6.85870   2
  -5   5   1 165.836 6.51106   3
   4  -5  -1 672.413 20.0893   2
   4  -5  -1 685.241 18.9451   1
  -4   5   1 684.370 19.8131   3
  -4   5   1 678.092 18.7917   1
  -4   5   1 669.983 18.8657   1
   3  -5  -1 28.1129 2.86347   2
   3  -5  -1 26.1257 1.81410   1
  -3   5   1 27.8222 1.50643   1
  -3   5   1 19.8921 2.26090   3
  -3   5   1 23.9465 1.77741   1
   2  -5  -1 1791.58 47.5136   1
   2  -5  -1 1628.12 48.0839   2
  -2   5   1 1669.86 47.3705   1
  -2   5   1 1763.24 47.3491   1
  -2   5   1 1786.67 47.7873   3
   1  -5  -1 50.8001 2.95627   2
   1  -5  -1 43.2638 2.36902   1
  -1   5   1 48.3259 2.41898   3
  -1   5   1 46.2549 2.12563   1
   0  -5  -1 172.487 5.57678   1
   0  -5  -1 167.219 5.36437   3
   0  -5  -1 165.619 5.78616   2
   0   5   1 164.471 5.28462   3
   0   5   1 167.683 5.31569   1
  -1  -5  -1 444.344 13.1999   1
  -1  -5  -1 442.739 13.2678   2
  -1  -5  -1 444.469 12.8037   3
   1   5   1 462.344 12.7677   3
   1   5   1 448.301 12.9788   1
  -2  -5  -1 570.462 18.1893   1
  -2  -5  -1 633.742 17.2787   3
  -2  -5  -1 643.695 17.9037   2
   2   5   1 631.093 17.2279   3
   2   5   1 599.276 17.2740   3
  -3  -5  -1 481.839 14.4122   2
  -3  -5  -1 469.878 14.3000   1
   3   5   1 478.478 13.7250   3
   3   5   1 511.529 13.7132   3
   3   5   1 469.516 14.0393   1
  -4  -5  -1 -0.0492 1.17398   1
  -4  -5  -1 3.01988 1.44549   2
   4   5   1 1.59017 1.18241   3
   4   5   1 4.46910 1.04232   3
   4   5   1 1.40419 0.76769   1
  -5  -5  -1 162.034 5.43137   3
  -5  -5  -1 150.943 6.11846   2
   5   5   1 150.877 5.47250   1
   5   5   1 158.040 5.36102   3
  -6  -5  -1 14.5466 2.58835   3
  -6  -5  -1 11.2464 2.84082   2
   6   5   1 14.7284 2.41248   3
  -7  -5  -1 1118.66 32.1153   2
  -7  -5  -1 1105.74 31.2362   3
   7   5   1 1104.62 31.2050   1
   7   5   1 1108.83 31.6833   2
   7   5   1 1075.71 31.1174   3
  -8  -5  -1 2.37786 2.36560   2
  -8  -5  -1 0.10618 1.92908   3
   8   5   1 -0.7685 1.49944   1
   8   5   1 0.83624 1.84966   3
   8   5   1 3.87952 2.08325   2
  -9  -5  -1 34.4415 4.52755   3
   9   5   1 45.0212 4.39790   3
   9   5   1 40.9420 3.63145   1
 -10  -5  -1 29.9234 6.17721   2
 -10  -5  -1 36.3711 5.73325   3
  10   5   1 38.4055 3.96591   1
  10   5   1 37.7780 5.20782   2
  10   5   1 39.5135 5.29867   3
 -11  -5  -1 37.4875 7.47250   2
  11   5   1 32.2334 6.01280   2
 -12  -5  -1 3.68354 5.13556   2
  12   5   1 1.61469 4.15230   2
  11  -6  -1 13.0021 5.47485   2
 -11   6   1 14.7777 5.18805   3
  10  -6  -1 13.3990 4.52417   2
 -10   6   1 11.1747 4.25194   3
   9  -6  -1 1.03622 3.48823   2
  -9   6   1 -0.2975 3.29160   3
   8  -6  -1 3.49767 3.04282   2
  -8   6   1 2.94314 2.94175   3
   7  -6  -1 33.6447 5.04315   2
  -7   6   1 40.7818 4.53331   3
   6  -6  -1 18.3848 4.20047   2
  -6   6   1 16.9456 3.64566   3
   5  -6  -1 75.9161 4.75764   2
  -5   6   1 64.2365 2.58633   1
  -5   6   1 63.9868 4.12840   3
  -5   6   1 66.7398 3.11018   1
   4  -6  -1 333.564 9.82895   1
   4  -6  -1 334.693 11.0917   2
  -4   6   1 335.866 10.6438   3
  -4   6   1 336.546 9.60527   1
  -4   6   1 309.261 9.68910   1
   3  -6  -1 11.2277 3.03718   2
   3  -6  -1 11.2921 1.97414   1
  -3   6   1 11.2752 1.54007   1
  -3   6   1 14.1577 2.45035   3
   2  -6  -1 780.925 22.9692   2
   2  -6  -1 795.463 22.2268   1
  -2   6   1 754.957 22.8610   3
  -2   6   1 806.089 22.0194   1
   1  -6  -1 55.1697 2.88678   1
  -1   6   1 62.3769 2.94358   3
  -1   6   1 52.7787 2.49464   1
   0  -6  -1 508.253 15.0367   2
   0   6   1 496.356 14.4451   3
  -1  -6  -1 461.569 14.0081   1
  -1  -6  -1 457.607 13.6018   3
  -1  -6  -1 481.087 14.1476   2
   1   6   1 488.497 13.5422   3
   1   6   1 465.072 13.7488   1
  -2  -6  -1 563.133 16.2604   1
  -2  -6  -1 542.921 15.7013   3
   2   6   1 555.079 15.9653   1
   2   6   1 523.500 15.6915   3
   2   6   1 564.368 15.5955   3
  -3  -6  -1 1251.08 34.7417   2
  -3  -6  -1 1231.27 34.6793   1
  -3  -6  -1 1204.64 33.9642   3
   3   6   1 1221.32 33.9205   3
   3   6   1 1208.74 34.0010   3
   3   6   1 1255.21 34.4042   1
  -4  -6  -1 10.0258 2.34896   1
  -4  -6  -1 13.2216 2.83365   2
   4   6   1 10.5780 2.30095   3
   4   6   1 12.6787 1.94352   3
   4   6   1 13.5602 1.79210   1
  -5  -6  -1 602.551 18.2655   2
  -5  -6  -1 606.306 18.1370   1
   5   6   1 611.919 17.7115   1
   5   6   1 591.004 17.2974   3
  -6  -6  -1 25.5111 3.46621   2
  -6  -6  -1 21.6457 3.08705   3
   6   6   1 27.5928 2.63553   1
   6   6   1 28.6305 3.10431   3
  -7  -6  -1 64.1519 4.86216   2
  -7  -6  -1 59.5286 3.83458   3
   7   6   1 57.5954 3.53087   1
   7   6   1 59.6129 3.94651   3
  -8  -6  -1 -0.8088 2.14402   3
  -8  -6  -1 -1.0208 2.58984   2
   8   6   1 0.07307 1.49236   1
   8   6   1 -1.8194 2.13526   2
   8   6   1 3.88672 2.19388   3
  -9  -6  -1 25.4737 4.95263   2
  -9  -6  -1 15.6354 2.99933   3
   9   6   1 24.8067 4.46579   3
   9   6   1 18.3839 3.47293   1
   9   6   1 22.6218 4.48887   2
 -10  -6  -1 3.43600 3.45000   2
  10   6   1 5.05766 3.22099   2
  10   6   1 4.28990 2.38210   1
 -11  -6  -1 2.44790 4.55567   2
  11   6   1 2.79707 3.72615   2
  10  -7  -1 0.66175 4.85183   2
 -10   7   1 -1.1953 4.23523   3
   9  -7  -1 21.8914 4.54059   2
  -9   7   1 30.8335 6.93871   3
   8  -7  -1 53.0326 6.23768   2
  -8   7   1 57.4377 6.17418   3
   7  -7  -1 7.02835 3.18109   2
   6  -7  -1 24.7810 4.67322   2
  -6   7   1 18.8938 4.23390   3
   5  -7  -1 3.96133 2.40291   2
  -5   7   1 3.28092 1.11908   1
  -5   7   1 0.98283 1.94006   3
   4  -7  -1 945.757 26.8326   2
   4  -7  -1 873.095 25.4805   1
  -4   7   1 877.530 25.2520   1
  -4   7   1 922.228 26.2857   3
   3  -7  -1 3.72126 2.18694   2
   3  -7  -1 2.98010 1.43173   1
  -3   7   1 2.43167 1.55775   3
  -3   7   1 4.00934 1.07695   1
   2  -7  -1 177.199 5.95717   1
   2  -7  -1 155.213 6.73773   2
  -2   7   1 170.308 5.59347   1
  -2   7   1 169.183 6.15961   3
   1  -7  -1 587.277 18.0827   2
   1  -7  -1 613.200 17.6323   1
  -1   7   1 595.728 18.0533   3
  -1   7   1 609.770 17.3343   1
   0  -7  -1 2599.69 71.3877   2
   0  -7  -1 2573.30 71.1236   1
   0   7   1 2554.43 70.7253   3
   0   7   1 2591.29 70.8517   1
  -1  -7  -1 32.1546 3.16771   2
  -1  -7  -1 39.8846 2.80677   1
   1   7   1 43.5087 2.54391   3
   1   7   1 45.1030 2.43908   1
  -2  -7  -1 16.6365 2.84412   2
  -2  -7  -1 17.0560 2.37018   1
   2   7   1 12.7662 1.82244   1
   2   7   1 12.4036 1.95993   3
  -3  -7  -1 144.296 5.72391   1
  -3  -7  -1 138.154 5.82833   2
   3   7   1 147.351 5.32052   1
   3   7   1 143.916 4.92954   3
  -4  -7  -1 28.4509 3.32932   2
  -4  -7  -1 25.0635 2.92296   1
   4   7   1 28.5921 2.37846   1
   4   7   1 28.7479 2.51277   3
  -5  -7  -1 102.804 5.45143   2
  -5  -7  -1 103.408 5.08586   1
   5   7   1 95.6892 4.27460   3
   5   7   1 103.000 4.49972   1
  -6  -7  -1 17.9062 3.76005   2
   6   7   1 25.3407 2.74703   1
  -7  -7  -1 250.880 9.66827   2
   7   7   1 244.688 8.52239   3
   7   7   1 254.175 8.76816   1
  -8  -7  -1 4.84376 3.02844   2
  -8  -7  -1 6.15589 2.46319   3
   8   7   1 3.43586 2.46839   3
   8   7   1 5.74629 2.61397   2
   8   7   1 6.80646 1.85625   1
  -9  -7  -1 -1.3620 3.22865   2
   9   7   1 1.91752 2.88330   2
 -10  -7  -1 2.01068 3.89611   2
  10   7   1 -1.3603 3.30664   2
  10   7   1 1.07135 2.46093   1
 -11  -7  -1 20.1087 5.35931   2
  11   7   1 30.7256 6.58849   2
  11   7   1 33.4286 7.49173   1
 -10   8   1 27.1016 5.54845   3
   9  -8  -1 5.40827 4.83108   2
  -9   8   1 -4.5804 3.94156   3
   8  -8  -1 54.4424 7.71148   2
  -8   8   1 67.3454 6.83689   3
   7  -8  -1 2.75549 3.16622   2
  -7   8   1 0.80771 3.00626   3
   6  -8  -1 579.052 19.1088   2
  -6   8   1 602.086 18.8987   3
   5  -8  -1 2.69320 2.63137   2
  -5   8   1 2.13372 1.30004   1
  -5   8   1 0.53465 2.16683   3
   4  -8  -1 164.089 6.21194   1
   4  -8  -1 161.757 7.73292   2
  -4   8   1 173.163 6.96973   3
  -4   8   1 176.708 5.80848   1
   3  -8  -1 164.997 6.02164   1
   3  -8  -1 146.721 7.28148   2
  -3   8   1 168.843 5.69115   1
  -3   8   1 163.221 6.53415   3
   2  -8  -1 582.244 17.1937   1
   2  -8  -1 551.633 17.9761   2
  -2   8   1 597.585 17.3599   3
  -2   8   1 585.374 16.8802   1
   1  -8  -1 20.9534 3.64091   2
   1  -8  -1 15.5008 2.55477   1
  -1   8   1 12.3811 2.01436   1
  -1   8   1 18.9693 2.67467   3
   0  -8  -1 4.82199 2.04309   2
   0  -8  -1 2.87987 1.44047   1
   0   8   1 2.44831 1.07590   1
   0   8   1 3.12369 1.48046   3
  -1  -8  -1 1195.15 34.7430   1
  -1  -8  -1 1276.07 35.0020   2
   1   8   1 1211.50 34.4206   1
   1   8   1 1204.39 34.1353   3
  -2  -8  -1 403.029 13.0058   1
  -2  -8  -1 418.986 13.1876   2
   2   8   1 402.906 12.2448   3
   2   8   1 424.282 12.6942   1
  -3  -8  -1 286.228 9.80761   1
  -3  -8  -1 282.775 9.90271   2
   3   8   1 293.479 9.39414   1
   3   8   1 281.084 8.90488   3
  -4  -8  -1 2.40855 2.06150   2
  -4  -8  -1 3.67275 1.88197   1
   4   8   1 4.20607 1.35865   1
   4   8   1 3.14675 1.51296   3
  -5  -8  -1 273.275 10.1014   1
  -5  -8  -1 280.861 10.2752   2
   5   8   1 285.464 9.51753   1
   5   8   1 282.578 8.98310   3
  -6  -8  -1 15.2000 3.01969   2
   6   8   1 23.0447 3.41864   3
   6   8   1 13.7281 2.89928   1
  -7  -8  -1 73.3202 5.69068   2
   7   8   1 78.2335 5.23795   3
   7   8   1 82.7746 4.78204   1
  -8  -8  -1 5.87858 3.44168   2
   8   8   1 4.41444 2.12636   1
   8   8   1 7.78873 2.90924   2
  -9  -8  -1 25.5096 6.66845   2
   9   8   1 37.3054 4.60660   1
   9   8   1 39.9826 5.90348   2
 -10  -8  -1 52.2647 7.55013   2
  10   8   1 48.0225 5.44017   1
  10   8   1 48.5842 6.73197   2
   9  -9  -1 1.53742 5.22458   2
  -9   9   1 3.50849 4.97234   3
   8  -9  -1 72.8834 8.60386   2
  -8   9   1 80.9635 7.85363   3
   7  -9  -1 0.35529 3.80357   2
  -7   9   1 -3.0647 3.29450   3
   6  -9  -1 27.2600 7.24684   2
  -6   9   1 25.0691 5.45501   3
   5  -9  -1 25.2882 5.70825   2
  -5   9   1 38.5188 5.00597   3
   4  -9  -1 418.672 14.6217   2
   4  -9  -1 419.788 13.1748   1
  -4   9   1 420.624 12.6864   1
  -4   9   1 422.502 13.8206   3
   3  -9  -1 3.36970 2.67747   2
   3  -9  -1 6.19253 1.96560   1
  -3   9   1 3.95816 2.14531   3
  -3   9   1 5.05905 1.49435   1
   2  -9  -1 142.400 5.90301   1
   2  -9  -1 139.544 7.10680   2
  -2   9   1 143.762 6.23429   3
  -2   9   1 139.314 5.40101   1
   1  -9  -1 478.871 14.8728   1
   1  -9  -1 481.910 15.5942   2
  -1   9   1 484.455 14.5160   1
  -1   9   1 472.153 14.6641   3
   0  -9  -1 380.448 12.7370   2
   0  -9  -1 367.920 12.2498   1
   0   9   1 385.751 11.9143   3
   0   9   1 381.118 11.8786   1
  -1  -9  -1 16.8657 3.12517   1
  -1  -9  -1 7.96384 2.43731   2
   1   9   1 14.6965 2.34406   1
   1   9   1 14.5799 2.83387   3
  -2  -9  -1 8.55641 1.93844   1
  -2  -9  -1 6.00575 2.33348   2
   2   9   1 8.88343 2.31931   1
   2   9   1 11.7116 2.65673   3
  -3  -9  -1 140.811 6.39526   1
  -3  -9  -1 140.583 6.60728   2
   3   9   1 141.967 5.77638   1
  -4  -9  -1 1.22605 2.29840   2
  -4  -9  -1 -0.2999 2.09399   1
   4   9   1 3.23881 1.54155   1
  -5  -9  -1 18.7033 4.60087   2
  -5  -9  -1 11.8731 2.77255   1
   5   9   1 12.8570 3.36378   3
   5   9   1 14.0998 2.22804   1
  -6  -9  -1 8.42078 3.09375   2
   6   9   1 9.59771 2.16966   1
  -7  -9  -1 25.7673 5.35260   2
   7   9   1 29.9829 4.01004   1
  -8  -9  -1 0.66014 3.50781   2
   8   9   1 -4.0318 2.16149   1
  -9  -9  -1 3.25687 4.13735   2
   9   9   1 2.91701 3.52722   2
   9   9   1 2.11483 2.51438   1
 -10  -9  -1 19.4441 5.08357   2
  10   9   1 11.9575 4.33137   2
  10   9   1 23.9019 5.65557   1
   8 -10  -1 26.5287 6.09924   2
  -8  10   1 30.9329 7.99296   3
   7 -10  -1 -0.5125 4.40642   2
  -7  10   1 -0.6377 3.95793   3
   6 -10  -1 235.912 11.4288   2
  -6  10   1 252.010 10.9152   3
   5 -10  -1 -0.8030 4.63953   2
  -5  10   1 0.91881 2.93292   3
   4 -10  -1 173.384 7.35358   1
   4 -10  -1 176.675 8.94713   2
  -4  10   1 173.611 6.55229   1
  -4  10   1 178.466 7.96467   3
   3 -10  -1 25.9686 4.07904   1
   3 -10  -1 34.9747 6.03655   2
  -3  10   1 36.7362 3.30150   1
  -3  10   1 36.1940 4.55328   3
   2 -10  -1 305.814 10.7809   1
   2 -10  -1 319.396 11.9803   2
  -2  10   1 304.747 10.1815   1
  -2  10   1 308.786 10.9172   3
   1 -10  -1 155.307 7.77858   2
   1 -10  -1 150.193 6.61947   1
  -1  10   1 144.608 6.52770   3
  -1  10   1 152.423 6.01457   1
   0 -10  -1 40.9923 4.03359   1
   0 -10  -1 37.3054 4.92250   2
   0  10   1 36.0388 3.95960   3
   0  10   1 38.2956 3.23378   1
  -1 -10  -1 4.36914 2.70267   2
  -1 -10  -1 4.55720 2.11868   1
   1  10   1 2.61434 1.97056   3
   1  10   1 4.27202 1.55879   1
  -2 -10  -1 42.9825 4.90153   2
  -2 -10  -1 44.7123 4.73118   1
   2  10   1 43.9121 3.73623   3
   2  10   1 40.6103 3.53192   1
  -3 -10  -1 58.4018 5.34899   2
  -3 -10  -1 57.9497 4.95548   1
   3  10   1 59.1070 3.97446   1
   3  10   1 48.8998 4.03121   3
  -4 -10  -1 -2.0129 2.70969   2
  -4 -10  -1 0.68930 2.58895   1
   4  10   1 -0.7658 2.11652   3
   4  10   1 0.80537 2.02356   1
  -5 -10  -1 22.8664 5.49371   2
  -5 -10  -1 19.5723 4.77973   1
  -6 -10  -1 0.76756 3.31843   2
   6  10   1 0.91542 2.03849   1
  -7 -10  -1 11.8240 3.77569   2
   7  10   1 8.22577 2.46178   1
  -8 -10  -1 3.14688 4.13306   2
   8  10   1 1.03416 2.64535   1
  -9 -10  -1 2.38817 4.78160   2
   9  10   1 -0.7294 2.87008   1
   9  10   1 1.77101 4.12348   2
   7 -11  -1 11.2563 5.43703   2
  -7  11   1 10.8965 4.86655   3
   6 -11  -1 15.2224 5.05028   2
  -6  11   1 17.7704 4.54092   3
   5 -11  -1 12.7194 4.57287   2
  -5  11   1 10.6782 3.74777   3
   4 -11  -1 68.4396 8.12893   2
  -4  11   1 66.6612 6.20963   3
  -4  11   1 66.5853 5.83299   1
   3 -11  -1 47.8795 5.34629   1
   3 -11  -1 56.7216 7.24923   2
  -3  11   1 41.4135 5.52408   3
  -3  11   1 50.6450 4.17860   1
   2 -11  -1 14.1116 2.94460   1
   2 -11  -1 18.2198 4.14450   2
  -2  11   1 14.1242 3.05831   3
  -2  11   1 23.1224 3.45112   1
   1 -11  -1 36.1435 4.96859   1
   1 -11  -1 42.4571 6.24797   2
  -1  11   1 29.2801 4.73367   3
  -1  11   1 45.7028 3.86320   1
   0 -11  -1 -2.7456 2.45734   1
   0 -11  -1 -2.6100 3.16896   2
   0  11   1 1.35297 1.88490   1
   0  11   1 3.04626 2.40841   3
  -1 -11  -1 6.16417 3.51409   2
   1  11   1 6.50090 2.65180   3
  -2 -11  -1 6.64278 2.93022   1
  -2 -11  -1 9.55599 3.45849   2
   2  11   1 10.5314 2.12070   1
   2  11   1 15.2815 4.07822   3
  -3 -11  -1 62.2256 6.31502   2
  -3 -11  -1 62.1748 5.75933   1
   3  11   1 67.0927 4.75479   1
  -4 -11  -1 37.7765 5.62015   1
  -4 -11  -1 40.4767 6.07992   2
   4  11   1 37.2361 4.38390   1
  -5 -11  -1 4.12214 3.74397   2
   5  11   1 0.39582 2.25821   1
  -6 -11  -1 88.5456 7.80398   2
   6  11   1 91.7548 5.78533   1
  -7 -11  -1 2.20476 4.17077   2
   7  11   1 3.11424 2.63308   1
  -8 -11  -1 60.5392 8.34033   2
   8  11   1 60.3390 6.18918   1
   6 -12  -1 15.4218 5.94307   2
  -6  12   1 18.4622 5.28274   3
   5 -12  -1 27.7257 6.03032   2
  -5  12   1 23.3404 4.77865   3
   4 -12  -1 10.3606 5.12004   2
  -4  12   1 5.76492 3.78526   3
   3 -12  -1 5.68933 3.50436   1
   3 -12  -1 3.37241 4.87290   2
  -3  12   1 1.11132 3.39145   3
  -3  12   1 0.28536 2.57455   1
   2 -12  -1 -0.7618 4.09120   1
  -2  12   1 -0.3863 2.72031   1
  -2  12   1 2.51762 3.36870   3
   1 -12  -1 87.8791 6.71614   1
   1 -12  -1 82.8646 7.79821   2
  -1  12   1 70.2927 6.30064   3
  -1  12   1 89.6045 5.35862   1
   0 -12  -1 13.7338 3.42630   1
   0  12   1 10.2979 3.25955   3
   0  12   1 21.8161 3.99830   1
  -1 -12  -1 5.43174 3.25066   1
  -1 -12  -1 5.39683 3.81198   2
   1  12   1 6.73473 2.41675   1
  -2 -12  -1 94.2354 7.16151   1
  -2 -12  -1 104.249 7.78658   2
   2  12   1 105.149 5.94778   1
  -3 -12  -1 98.6950 7.77821   2
  -3 -12  -1 98.5785 7.38060   1
   3  12   1 104.401 6.08833   1
  -4 -12  -1 39.0452 6.52482   1
  -4 -12  -1 36.0701 8.01125   2
   4  12   1 32.1502 5.04431   1
  -5 -12  -1 13.3232 4.74989   2
   5  12   1 7.72109 2.64149   1
  -6 -12  -1 0.35254 4.58782   2
   6  12   1 -1.0441 2.79921   1
  -7 -12  -1 5.60776 4.97746   2
   7  12   1 -2.6665 3.03882   1
   4 -13  -1 9.21547 6.48340   2
  -4  13   1 5.43974 4.65503   3
   3 -13  -1 184.243 12.0780   2
  -3  13   1 177.403 9.91963   3
   2 -13  -1 4.00128 4.96419   2
  -2  13   1 4.04311 3.92384   3
  -2  13   1 0.74061 2.77594   1
   1 -13  -1 84.8332 7.83912   1
   1 -13  -1 90.7027 9.29662   2
  -1  13   1 75.4366 5.91945   1
   0 -13  -1 20.6096 5.17760   2
   0 -13  -1 17.0965 4.23681   1
   0  13   1 16.6621 3.13702   1
  -1 -13  -1 161.091 9.97659   2
  -1 -13  -1 133.029 9.09760   1
   1  13   1 149.606 7.62602   1
  -2 -13  -1 1.81839 3.69463   1
  -2 -13  -1 -3.2372 4.38795   2
   2  13   1 1.22149 2.73561   1
  -3 -13  -1 11.1755 4.16752   1
  -3 -13  -1 10.7415 4.75744   2
   3  13   1 3.48181 2.81187   1
  -4 -13  -1 8.69386 6.13596   2
   4  13   1 9.71329 3.03918   1
   5  13   1 5.90585 3.21837   1
   0  14   1 -2.2634 3.10085   1
   1  14   1 7.18625 3.25458   1
   3  13  -2 12.7485 3.58436   1
  -3 -13   2 19.9917 4.77842   1
   2  13  -2 -8.0479 2.89056   1
  -2 -13   2 -4.1563 3.74717   1
   1  13  -2 106.902 13.8204   3
   1  13  -2 98.8525 6.84548   1
  -1 -13   2 104.876 8.29395   1
   0  13  -2 20.9368 4.85304   3
   0  13  -2 11.2018 3.20209   1
   0 -13   2 10.8568 3.92370   1
  -1  13  -2 43.4964 5.65589   1
  -1  13  -2 35.8418 5.49740   3
   1 -13   2 35.5400 7.32628   1
  -2  13  -2 2.40860 3.01860   1
  -2  13  -2 5.20334 4.60696   3
   2 -13   2 -3.0064 3.93362   1
   3 -13   2 137.322 9.25304   1
   5  12  -2 20.4066 5.22820   1
  -5 -12   2 37.1338 7.19151   1
   4  12  -2 -1.5900 2.71643   1
  -4 -12   2 5.72476 3.52002   1
   3  12  -2 59.9836 5.66576   1
  -3 -12   2 54.2108 6.74010   1
   2  12  -2 136.377 6.97693   1
   2  12  -2 116.279 7.70970   3
  -2 -12   2 125.937 8.14631   1
   1  12  -2 14.6324 2.82679   1
   1  12  -2 17.1937 4.63927   3
  -1 -12   2 13.7496 3.72457   1
   0  12  -2 26.5298 6.26901   3
   0  12  -2 13.4569 2.85070   1
   0 -12   2 14.9177 3.54113   1
  -1  12  -2 69.1835 5.43237   1
  -1  12  -2 57.8038 7.49869   3
   1 -12   2 62.4664 6.34515   1
  -2  12  -2 -1.0995 2.52690   1
  -2  12  -2 -3.6949 3.68449   3
   2 -12   2 3.30782 3.20460   1
  -3  12  -2 -1.6105 4.01868   3
  -3  12  -2 -0.7474 2.60768   1
   3 -12   2 -1.7574 3.27701   1
  -4  12  -2 2.19394 4.19229   3
   4 -12   2 -0.1282 3.61214   1
  -5  12  -2 15.0355 4.81566   3
  -7 -11   2 1.65906 4.39327   1
   6  11  -2 6.14284 2.69131   1
  -6 -11   2 7.30182 3.85232   1
   5  11  -2 15.5666 3.05692   1
  -5 -11   2 23.1850 6.04318   1
   4  11  -2 128.519 7.37781   3
   4  11  -2 136.632 6.85461   1
  -4 -11   2 133.882 7.78868   1
   3  11  -2 8.31414 2.40913   1
   3  11  -2 5.99311 3.06029   3
  -3 -11   2 7.25267 2.95967   1
   2  11  -2 8.42814 2.90721   3
   2  11  -2 4.00244 2.18758   1
  -2 -11   2 5.80341 2.73274   1
   1  11  -2 1.20927 1.98392   1
   1  11  -2 -1.4425 2.63509   3
  -1 -11   2 -2.4080 2.39508   1
   0  11  -2 2.04507 2.87502   3
   0  11  -2 -1.9249 1.88230   1
   0 -11   2 -4.5960 2.44533   1
  -1  11  -2 15.8618 3.67443   1
  -1  11  -2 21.2236 5.49492   3
   1 -11   2 11.0016 3.00611   1
  -2  11  -2 2.49462 3.96508   3
   2 -11   2 8.40876 5.62963   2
  -3  11  -2 52.1169 6.20993   3
  -3  11  -2 39.4445 4.57706   1
   3 -11   2 32.3760 5.23799   1
   3 -11   2 48.3161 8.08815   2
  -4  11  -2 30.8991 7.38514   3
  -4  11  -2 37.6028 4.53884   1
   4 -11   2 27.6790 5.53859   1
   4 -11   2 46.1484 9.02592   2
  -5  11  -2 1.01687 3.72570   3
  -6  11  -2 14.2461 4.64651   3
   8  10  -2 2.59936 3.15376   1
  -8 -10   2 3.84103 4.46508   1
   7  10  -2 5.04752 2.65071   1
  -7 -10   2 6.16307 3.79373   1
   6  10  -2 27.3239 6.50508   3
   6  10  -2 13.3871 2.94854   1
  -6 -10   2 16.2632 3.67315   1
   5  10  -2 30.9972 4.35576   1
   5  10  -2 33.0493 5.31928   3
  -5 -10   2 24.9737 5.25915   1
  -5 -10   2 36.1289 5.05594   2
   4  10  -2 93.1284 5.46844   1
   4  10  -2 97.9868 6.00382   3
  -4 -10   2 103.704 6.20078   2
  -4 -10   2 98.4597 6.42697   1
   3  10  -2 35.9558 3.97370   1
   3  10  -2 37.2515 4.61583   3
  -3 -10   2 45.9122 4.80291   1
  -3 -10   2 36.5101 4.70300   2
   2  10  -2 -3.3012 2.24737   3
   2  10  -2 -1.9274 1.98007   1
  -2 -10   2 5.52418 2.50177   2
  -2 -10   2 -0.8547 2.56530   1
   1  10  -2 8.12039 1.97649   1
   1  10  -2 7.72293 2.46485   3
  -1 -10   2 7.99101 2.55548   2
  -1 -10   2 3.49906 2.36945   1
   0  10  -2 65.7594 4.97395   3
   0  10  -2 62.4082 4.26991   1
   0 -10   2 59.0347 4.99839   2
   0 -10   2 52.8901 4.78767   1
  -1  10  -2 25.0032 4.60608   3
  -1  10  -2 24.9996 3.55098   1
   1 -10   2 17.8164 4.09171   1
   1 -10   2 18.4842 4.51437   2
  -2  10  -2 155.405 6.59888   1
  -2  10  -2 167.712 7.87867   3
   2 -10   2 159.428 7.59650   2
   2 -10   2 155.232 7.16679   1
  -3  10  -2 27.9361 3.61394   1
  -3  10  -2 20.4363 3.52966   3
   3 -10   2 22.6837 4.15825   1
   3 -10   2 25.4820 5.35429   2
  -4  10  -2 97.3059 5.09106   1
  -4  10  -2 102.925 7.57168   3
   4 -10   2 99.6218 7.07796   2
   4 -10   2 86.8709 5.72557   1
  -5  10  -2 3.40823 2.63541   1
  -5  10  -2 0.13517 3.30176   3
   5 -10   2 -1.7278 3.58711   2
   5 -10   2 -1.5007 2.54349   1
  -6  10  -2 119.075 8.40937   3
  -7  10  -2 1.28629 4.15420   3
   7 -10   2 -5.4236 4.47266   2
  -8  10  -2 26.3651 5.46426   3
   8 -10   2 19.2238 5.95632   2
   9   9  -2 -0.7032 3.65574   2
   9   9  -2 4.66141 3.18111   1
  -9  -9   2 0.62778 7.33982   2
   8   9  -2 3.87342 3.39276   2
   8   9  -2 3.97020 2.75431   1
  -8  -9   2 -0.8878 3.60996   1
  -8  -9   2 3.70884 3.70067   2
   7   9  -2 5.47089 3.27338   3
   7   9  -2 2.93026 2.75957   2
   7   9  -2 2.85431 2.41706   1
  -7  -9   2 2.16810 3.15637   1
  -7  -9   2 1.37338 3.17547   2
   6   9  -2 1.95477 2.92237   3
   6   9  -2 4.42750 2.14231   1
  -6  -9   2 3.88217 2.71189   1
  -6  -9   2 6.74567 3.10065   2
   5   9  -2 94.4595 5.07185   1
   5   9  -2 87.6007 5.61123   3
  -5  -9   2 89.3253 5.54227   2
  -5  -9   2 91.3172 5.89575   1
   4   9  -2 84.0129 5.26247   3
   4   9  -2 82.0195 5.12510   1
  -4  -9   2 78.1662 5.48615   1
  -4  -9   2 80.6430 5.18435   2
   3   9  -2 206.020 7.69936   1
   3   9  -2 205.154 7.75922   3
  -3  -9   2 201.292 7.85165   2
  -3  -9   2 205.395 8.29923   1
   2   9  -2 64.3131 4.46867   3
   2   9  -2 71.0532 4.14519   1
  -2  -9   2 72.6524 4.47140   2
  -2  -9   2 78.0699 4.80254   1
   1   9  -2 76.7052 4.71656   3
   1   9  -2 84.2798 4.33385   1
  -1  -9   2 82.6451 4.84137   1
  -1  -9   2 74.0417 4.63797   2
   0   9  -2 34.1147 3.23901   1
   0   9  -2 31.3245 3.87285   3
   0  -9   2 38.4975 3.74423   1
   0  -9   2 25.9814 3.86279   2
  -1   9  -2 128.674 6.01250   3
  -1   9  -2 131.322 5.40542   1
   1  -9   2 125.996 5.86967   1
   1  -9   2 126.459 5.94606   2
  -2   9  -2 100.244 5.48990   3
  -2   9  -2 90.9936 4.49807   1
   2  -9   2 97.8819 5.58011   2
   2  -9   2 94.6880 4.98227   1
  -3   9  -2 31.0649 3.10062   1
  -3   9  -2 29.5598 4.70302   3
   3  -9   2 24.3799 4.70834   2
   3  -9   2 23.8944 3.59679   1
  -4   9  -2 230.877 7.97751   1
  -4   9  -2 239.325 9.50983   3
   4  -9   2 222.670 9.30009   2
   4  -9   2 227.988 8.36505   1
  -5   9  -2 20.0376 3.21020   1
  -5   9  -2 19.2363 4.93556   3
   5  -9   2 15.1876 3.72507   1
   5  -9   2 17.9977 3.68423   2
  -6   9  -2 24.4626 5.50691   3
   6  -9   2 15.7893 4.03463   2
  -7   9  -2 4.50200 3.53325   3
   7  -9   2 7.41399 4.21579   2
  -8   9  -2 14.8756 4.52607   3
   8  -9   2 20.9326 5.05294   2
  -9   9  -2 -9.5355 4.78410   3
   9  -9   2 3.45568 5.06831   2
  10   8  -2 58.4284 7.77484   2
  10   8  -2 36.1986 6.18643   1
 -10  -8   2 56.7809 8.70318   2
   9   8  -2 11.3109 3.08135   1
   9   8  -2 12.3062 3.51236   2
  -9  -8   2 8.05798 4.20365   2
   8   8  -2 3.07103 2.32980   1
   8   8  -2 -0.8056 3.20462   3
   8   8  -2 0.27138 2.88563   2
  -8  -8   2 -0.7212 3.33891   2
  -8  -8   2 0.86743 3.30094   1
   7   8  -2 7.56549 2.78376   3
   7   8  -2 17.1153 3.68304   1
   7   8  -2 6.85500 2.58640   2
  -7  -8   2 7.56359 3.15964   2
  -7  -8   2 19.7860 4.71810   1
   6   8  -2 5.36988 2.01502   1
   6   8  -2 -0.0934 2.35880   3
   6   8  -2 6.91690 2.22119   2
  -6  -8   2 3.95920 2.36491   1
  -6  -8   2 6.22249 2.78888   2
   5   8  -2 513.435 15.6267   1
   5   8  -2 508.293 15.6328   3
  -5  -8   2 491.960 16.0465   1
  -5  -8   2 493.341 15.6405   2
   4   8  -2 45.2813 4.12738   3
   4   8  -2 45.0169 3.50225   1
  -4  -8   2 44.0116 3.94906   2
  -4  -8   2 39.8002 4.12213   1
   3   8  -2 27.0510 3.38275   3
   3   8  -2 30.3311 2.88123   1
  -3  -8   2 28.0263 3.40872   2
  -3  -8   2 28.8797 3.41609   1
   2   8  -2 2.81559 1.68840   3
   2   8  -2 1.93863 1.21233   1
  -2  -8   2 6.21010 2.01000   2
  -2  -8   2 0.02273 1.61067   1
   1   8  -2 617.957 18.2635   3
   1   8  -2 612.847 18.1665   1
  -1  -8   2 609.695 18.5300   1
   0   8  -2 239.777 8.35170   3
   0  -8   2 238.358 8.36633   1
  -1   8  -2 85.9067 4.57133   3
   1  -8   2 85.9590 4.66995   2
   1  -8   2 88.7060 4.43861   1
  -2   8  -2 141.862 6.05599   3
   2  -8   2 134.816 5.62028   1
   2  -8   2 135.619 6.01961   2
  -3   8  -2 -1.1630 1.94403   3
   3  -8   2 0.45731 2.16684   2
   3  -8   2 -0.1101 1.50437   1
  -4   8  -2 114.992 5.99108   3
   4  -8   2 110.149 5.06418   1
   4  -8   2 110.596 6.26670   2
  -5   8  -2 5.24487 2.50366   3
   5  -8   2 -1.3268 2.66604   2
   5  -8   2 -1.3891 1.64073   1
  -6   8  -2 351.705 12.7314   3
   6  -8   2 347.582 12.6660   2
   6  -8   2 349.010 11.1146   1
  -7   8  -2 -0.3341 3.03023   3
   7  -8   2 1.55506 3.42921   2
  -8   8  -2 61.1114 7.29166   3
   8  -8   2 46.6892 7.29887   2
  -9   8  -2 6.65167 4.54664   3
   9  -8   2 8.25698 4.77043   2
  10   7  -2 12.9635 3.08823   1
  10   7  -2 18.4904 4.08612   2
 -10  -7   2 23.6300 4.85534   2
   9   7  -2 9.00488 3.59116   3
   9   7  -2 7.25445 3.38713   2
   9   7  -2 12.4625 2.71475   1
  -9  -7   2 11.4693 3.76865   2
  -9  -7   2 14.3389 3.74530   3
   8   7  -2 -0.1618 2.80454   3
   8   7  -2 -0.5079 2.41144   2
   8   7  -2 1.56625 2.10111   1
  -8  -7   2 1.20396 3.01230   1
  -8  -7   2 3.46178 2.95440   2
   7   7  -2 205.357 7.69011   1
   7   7  -2 200.806 8.22609   3
   7   7  -2 196.928 7.78584   2
  -7  -7   2 202.367 8.32388   1
  -7  -7   2 203.829 8.25344   2
   6   7  -2 16.3349 2.66261   3
   6   7  -2 16.5753 3.20717   2
   6   7  -2 13.8422 2.84725   1
  -6  -7   2 17.0611 3.79526   2
  -6  -7   2 12.5665 2.57285   1
   5   7  -2 1.03351 1.33894   1
   5   7  -2 -1.7295 1.86743   3
  -5  -7   2 2.57003 1.97548   2
  -5  -7   2 -2.0206 1.69420   1
   4   7  -2 55.4412 3.43054   1
   4   7  -2 63.8568 3.97493   3
  -4  -7   2 56.4228 3.93443   2
  -4  -7   2 59.9774 4.01367   1
   3   7  -2 428.990 13.2418   3
   3   7  -2 435.739 13.2042   1
  -3  -7   2 426.379 13.5054   1
   2   7  -2 220.991 7.62980   3
  -2  -7   2 223.779 7.80848   1
  -2  -7   2 222.601 7.47326   2
   1   7  -2 2.21948 1.50905   3
  -1  -7   2 2.26225 1.33486   1
  -1  -7   2 3.39140 1.52790   2
   0   7  -2 309.656 9.46751   3
   0  -7   2 288.575 9.10594   2
   0  -7   2 268.984 9.33226   1
  -1   7  -2 358.337 11.3633   3
   1  -7   2 356.119 11.2086   1
   1  -7   2 359.489 11.1372   2
  -2   7  -2 648.110 19.4364   3
   2  -7   2 661.850 19.1673   1
  -3   7  -2 176.008 6.83465   3
   3  -7   2 165.045 6.85549   2
   3  -7   2 173.657 6.20063   1
  -4   7  -2 290.450 10.1239   3
   4  -7   2 301.227 10.2426   2
   4  -7   2 283.763 9.28336   1
  -5   7  -2 1.04442 2.07066   3
   5  -7   2 3.48923 1.56484   1
   5  -7   2 3.12881 2.32266   2
  -6   7  -2 6.33600 2.46155   3
   6  -7   2 16.9577 4.46366   2
   6  -7   2 5.41260 1.69237   1
  -7   7  -2 2.91672 2.67649   3
   7  -7   2 5.15002 3.20666   2
  -8   7  -2 34.1175 5.85165   3
   8  -7   2 31.4324 6.10275   2
  -9   7  -2 6.97557 4.12830   3
   9  -7   2 10.7580 4.15840   2
 -10   7  -2 -3.2249 4.38397   3
  10  -7   2 2.10819 4.82653   2
  11   6  -2 5.78860 5.39389   3
  11   6  -2 3.53778 4.20755   2
  10   6  -2 11.7724 4.03353   3
  10   6  -2 6.07471 3.68284   2
 -10  -6   2 10.8827 4.22641   2
 -10  -6   2 5.96752 4.05433   3
   9   6  -2 -0.9911 3.05556   2
   9   6  -2 -0.9882 3.15250   3
   9   6  -2 0.89994 2.11853   1
  -9  -6   2 -0.2524 3.03304   3
  -9  -6   2 0.41698 3.57231   2
   8   6  -2 6.30227 2.70001   3
   8   6  -2 16.0294 3.32080   1
   8   6  -2 3.57736 2.32299   2
  -8  -6   2 4.44382 2.69705   3
  -8  -6   2 4.64977 2.58990   1
  -8  -6   2 -0.6005 2.60991   2
   7   6  -2 4.93055 2.03307   2
   7   6  -2 2.51796 1.73916   1
   7   6  -2 2.03567 2.29598   3
  -7  -6   2 2.09680 1.99491   1
  -7  -6   2 2.86537 2.28062   3
  -7  -6   2 5.28505 2.36380   2
   6   6  -2 13.7293 2.45605   1
   6   6  -2 13.8435 2.84122   2
   6   6  -2 11.9443 2.18409   3
  -6  -6   2 13.9867 3.34659   2
  -6  -6   2 8.61598 2.18956   3
  -6  -6   2 8.39030 2.07301   1
   5   6  -2 519.617 15.5916   3
   5   6  -2 508.000 15.4083   1
  -5  -6   2 517.652 15.6673   2
  -5  -6   2 511.183 15.8480   1
   4   6  -2 0.92960 1.11602   1
   4   6  -2 3.68968 1.43802   3
  -4  -6   2 11.0555 2.44566   2
  -4  -6   2 -0.2380 1.39949   1
   3   6  -2 160.610 5.75504   1
   3   6  -2 167.766 5.99476   3
  -3  -6   2 158.394 6.10519   1
  -3  -6   2 167.517 5.92929   2
   2   6  -2 75.8493 3.57857   3
  -2  -6   2 72.8114 3.45471   2
  -2  -6   2 72.7454 3.63554   1
   1   6  -2 1843.76 52.1820   2
   1   6  -2 1930.24 52.5273   3
  -1  -6   2 1908.85 52.6751   1
  -1  -6   2 1907.25 52.2369   2
   0   6  -2 39.1711 2.82291   2
   0   6  -2 38.1223 2.70045   3
   0  -6   2 43.1108 2.60158   1
   0  -6   2 42.2603 2.59031   2
  -1   6  -2 86.4636 3.86135   3
   1  -6   2 83.8488 3.62961   1
   1  -6   2 82.5243 3.72264   2
  -2   6  -2 32.0866 2.84921   3
   2  -6   2 31.5789 2.35741   1
   2  -6   2 33.1417 2.92166   2
  -3   6  -2 0.73843 1.45045   3
   3  -6   2 0.92176 1.10238   1
  -4   6  -2 7.12126 1.94190   3
   4  -6   2 4.43066 2.03997   2
  -5   6  -2 4.34005 1.87467   3
   5  -6   2 1.86014 1.21165   1
  -6   6  -2 8.33651 2.23974   3
   6  -6   2 10.7489 2.63128   2
   6  -6   2 5.37865 1.44277   1
  -7   6  -2 75.1088 5.38217   3
   7  -6   2 72.0588 5.56196   2
  -8   6  -2 -0.9574 2.79031   3
   8  -6   2 -1.4874 2.79235   2
  -9   6  -2 -1.5946 3.26515   3
   9  -6   2 -0.0162 3.37103   2
 -10   6  -2 12.7422 4.38828   3
  10  -6   2 8.21617 4.24152   2
 -11   6  -2 6.58965 4.83737   3
  11  -6   2 0.74071 4.98367   2
  11   5  -2 17.5094 4.59434   3
  11   5  -2 24.8458 6.78527   2
 -11  -5   2 13.7137 4.66953   3
  10   5  -2 11.5968 3.45433   2
  10   5  -2 6.39873 3.55126   3
 -10  -5   2 4.68759 3.62614   3
 -10  -5   2 7.27820 3.74796   2
   9   5  -2 27.9286 5.78174   2
   9   5  -2 25.2875 5.19642   3
   9   5  -2 28.8385 3.51618   1
  -9  -5   2 26.9092 5.16604   3
  -9  -5   2 24.9844 5.48085   2
   8   5  -2 7.50023 2.59324   3
   8   5  -2 2.80007 2.27885   2
   8   5  -2 7.83271 1.81865   1
  -8  -5   2 5.18323 2.60164   3
  -8  -5   2 7.07466 2.74477   2
  -8  -5   2 5.28058 2.41716   1
   7   5  -2 229.282 8.05156   1
   7   5  -2 234.536 8.37379   2
   7   5  -2 234.903 8.69623   3
  -7  -5   2 247.575 8.89766   2
  -7  -5   2 234.482 8.61166   1
  -7  -5   2 245.923 8.88613   3
   6   5  -2 34.4517 2.93329   2
   6   5  -2 27.5169 2.51092   1
   6   5  -2 30.7535 3.40187   3
  -6  -5   2 30.6120 3.22957   2
  -6  -5   2 29.5479 3.35768   3
  -6  -5   2 29.6424 3.21486   1
   5   5  -2 270.551 9.07570   3
   5   5  -2 276.629 8.80495   1
   5   5  -2 276.951 8.79952   2
  -5  -5   2 272.082 9.18259   1
  -5  -5   2 278.474 9.14991   3
  -5  -5   2 278.003 9.12090   2
   4   5  -2 97.0814 4.20207   3
   4   5  -2 92.1112 3.83028   1
  -4  -5   2 96.0323 4.21312   2
  -4  -5   2 95.4665 4.20351   1
   3   5  -2 1020.76 29.5978   3
  -3  -5   2 1028.42 29.2436   1
  -3  -5   2 1046.68 28.9879   2
   2   5  -2 240.898 7.50722   2
   2   5  -2 238.342 7.71822   3
  -2  -5   2 239.936 7.79807   1
  -2  -5   2 243.177 7.49002   2
   1   5  -2 108.312 4.00647   2
   1   5  -2 112.584 4.31372   3
  -1  -5   2 118.335 4.02065   2
  -1  -5   2 116.167 4.30310   1
   0   5  -2 130.147 4.81616   3
   0   5  -2 133.527 4.55879   2
   0  -5   2 136.893 4.51633   2
  -1   5  -2 58.2457 2.69782   2
   1  -5   2 51.1184 2.67609   2
   1  -5   2 50.7547 2.56342   1
  -2   5  -2 6.33133 1.38528   3
   2  -5   2 6.50160 1.48661   2
   2  -5   2 5.90015 1.51134   1
  -3   5  -2 63.4603 3.34819   3
   3  -5   2 61.2107 3.42762   2
   3  -5   2 60.7588 2.75281   1
  -4   5  -2 2.84734 1.48677   3
   4  -5   2 4.37369 1.04624   1
   4  -5   2 6.53747 1.62887   2
  -5   5  -2 362.413 11.6915   3
   5  -5   2 358.076 10.5595   1
   5  -5   2 353.585 11.5055   2
  -6   5  -2 29.1684 3.42747   3
   6  -5   2 25.0984 2.19555   1
   6  -5   2 26.4300 3.78922   2
  -7   5  -2 45.9016 4.55365   3
   7  -5   2 49.8766 4.83049   2
   7  -5   2 42.4285 2.62488   1
  -8   5  -2 25.3483 6.38747   3
   8  -5   2 29.5312 5.02381   2
  -9   5  -2 165.601 8.80607   3
   9  -5   2 171.527 8.98389   2
 -10   5  -2 -0.8299 3.39900   3
  10  -5   2 -3.7113 3.82738   2
 -11   5  -2 8.78585 4.75740   3
  11  -5   2 11.6241 5.21429   2
  11   4  -2 -0.7272 3.95554   3
  11   4  -2 3.39465 3.72926   2
 -11  -4   2 -3.1968 3.90335   3
  10   4  -2 5.99308 3.10080   2
  10   4  -2 6.17840 3.20883   3
 -10  -4   2 6.27734 3.34955   3
   9   4  -2 88.0303 4.71309   1
   9   4  -2 93.1520 5.98059   3
   9   4  -2 98.2329 5.84854   2
  -9  -4   2 99.9698 6.38774   2
  -9  -4   2 94.9620 6.27744   3
   8   4  -2 30.2844 4.05394   3
   8   4  -2 28.7063 3.96550   2
   8   4  -2 31.5508 2.95877   1
  -8  -4   2 30.2101 3.92802   1
  -8  -4   2 33.1184 4.46337   2
  -8  -4   2 35.1259 4.24481   3
   7   4  -2 13.1722 3.15262   3
   7   4  -2 14.4765 2.17423   1
   7   4  -2 12.1644 2.99890   2
  -7  -4   2 11.6679 2.47909   2
  -7  -4   2 13.5727 3.38694   3
  -7  -4   2 18.5754 2.93892   1
   6   4  -2 1.36964 1.05247   1
   6   4  -2 2.17585 1.61619   3
   6   4  -2 0.38429 1.35588   2
  -6  -4   2 1.30693 1.41060   1
  -6  -4   2 -0.1913 1.57975   2
  -6  -4   2 0.86281 1.61933   3
   5   4  -2 10.1094 1.56470   2
   5   4  -2 14.4689 2.41253   3
   5   4  -2 14.1446 1.82437   1
  -5  -4   2 9.35831 2.25518   1
  -5  -4   2 12.6370 2.31923   2
  -5  -4   2 11.1367 2.53919   3
   4   4  -2 317.021 9.43091   2
   4   4  -2 306.031 9.41068   1
  -4  -4   2 310.954 9.67541   1
  -4  -4   2 307.899 9.64663   2
   3   4  -2 7.05915 1.86157   3
   3   4  -2 9.07364 2.04879   2
  -3  -4   2 11.0543 1.80733   2
   2   4  -2 209.832 6.53602   2
   2   4  -2 203.286 6.70097   3
  -2  -4   2 221.230 6.55183   2
  -2  -4   2 210.661 6.75578   1
   1   4  -2 460.104 13.4009   2
   1   4  -2 473.596 13.7820   3
  -1  -4   2 485.895 13.4701   2
  -1  -4   2 480.347 13.8091   1
   0   4  -2 61.2197 2.69992   3
   0   4  -2 62.6355 2.40290   2
   0  -4   2 59.1539 2.56798   1
   0  -4   2 60.2151 2.33462   2
  -1   4  -2 582.555 17.0046   3
  -1   4  -2 622.887 16.6943   2
   1  -4   2 549.945 17.1157   2
   1  -4   2 619.073 16.9026   1
  -2   4  -2 72.6579 2.93183   2
  -2   4  -2 73.3179 3.27660   3
   2  -4   2 77.1765 3.22216   2
   2  -4   2 75.6390 2.88012   1
  -3   4  -2 321.050 10.6707   3
   3  -4   2 344.035 10.2449   1
   3  -4   2 389.381 10.7339   2
  -4   4  -2 20.5387 2.15762   1
  -4   4  -2 19.2233 2.28524   3
   4  -4   2 19.5625 2.45673   2
   4  -4   2 21.4972 1.57248   1
  -5   4  -2 183.946 6.88329   3
  -5   4  -2 178.331 6.23896   1
   5  -4   2 210.114 6.90842   2
   5  -4   2 187.138 5.87668   1
  -6   4  -2 45.8900 2.70651   1
  -6   4  -2 45.6171 3.54527   3
   6  -4   2 44.1966 2.27639   1
   6  -4   2 47.1474 3.61880   2
  -7   4  -2 399.719 13.0415   3
   7  -4   2 382.717 11.2607   1
   7  -4   2 400.535 12.8977   2
  -8   4  -2 1.73339 2.50074   3
   8  -4   2 -1.5310 2.45512   2
  -9   4  -2 3.34673 2.81488   3
   9  -4   2 3.86560 4.95053   2
 -10   4  -2 0.74632 3.33628   3
  10  -4   2 -1.4434 3.44972   2
 -11   4  -2 9.63436 4.46212   3
  11  -4   2 5.96902 4.40966   2
  12   3  -2 -8.7493 4.28284   2
 -12  -3   2 -9.8472 4.66078   3
  11   3  -2 11.2289 3.86308   2
 -11  -3   2 1.30022 3.98352   3
  10   3  -2 -0.9229 2.88193   2
 -10  -3   2 2.05045 3.52783   3
   9   3  -2 62.4224 3.62408   1
   9   3  -2 60.7542 4.99494   2
  -9  -3   2 66.0064 5.61002   3
   8   3  -2 71.7188 3.48418   1
   8   3  -2 71.8296 4.64744   2
  -8  -3   2 70.6451 5.01271   3
  -8  -3   2 71.3889 5.02965   2
   7   3  -2 13.9485 1.94105   1
   7   3  -2 12.6016 2.87292   2
  -7  -3   2 12.4181 3.15653   3
  -7  -3   2 15.5105 3.26234   2
  -7  -3   2 10.9269 2.66856   1
   6   3  -2 2.49161 0.94199   1
   6   3  -2 1.03365 1.62257   3
   6   3  -2 3.92024 1.45447   2
  -6  -3   2 3.82001 1.63074   2
  -6  -3   2 0.23883 1.24373   1
  -6  -3   2 1.23228 1.49601   3
   5   3  -2 341.546 11.0258   1
   5   3  -2 370.363 11.1067   3
   5   3  -2 362.578 10.8794   2
  -5  -3   2 374.391 11.1356   2
  -5  -3   2 365.472 11.1503   3
  -5  -3   2 341.695 11.4205   1
   4   3  -2 30.5305 2.03374   2
   4   3  -2 31.3251 2.44420   3
  -4  -3   2 32.6784 2.28369   2
  -4  -3   2 33.1245 2.18541   1
  -4  -3   2 31.5345 2.45422   3
   3   3  -2 18.1704 1.82872   3
   3   3  -2 18.8238 1.53066   2
   3   3  -2 23.0194 1.99568   2
  -3  -3   2 19.8817 1.65854   1
  -3  -3   2 18.7529 1.72375   2
  -3  -3   2 16.9705 1.90218   3
   2   3  -2 4115.48 109.666   3
   2   3  -2 3822.00 109.699   3
   2   3  -2 4139.54 109.462   2
  -2  -3   2 4048.34 110.260   2
  -2  -3   2 3986.70 109.766   3
  -2  -3   2 4041.55 109.630   1
   1   3  -2 276.915 7.90176   2
   1   3  -2 279.736 8.28103   3
   1   3  -2 257.730 8.26918   3
  -1  -3   2 282.978 7.92276   2
  -1  -3   2 265.733 8.27870   3
  -1  -3   2 288.959 8.26345   1
   0   3  -2 718.545 21.5021   1
   0   3  -2 808.630 21.2935   2
   0   3  -2 784.919 21.6832   3
   0  -3   2 788.686 21.2740   2
   0  -3   2 788.009 21.6089   1
   0  -3   2 753.391 21.6561   3
  -1   3  -2 45.4972 1.95526   1
  -1   3  -2 44.3765 2.17792   3
  -1   3  -2 52.0313 1.81617   2
   1  -3   2 40.5039 2.20638   3
   1  -3   2 39.4406 1.85923   1
   1  -3   2 47.1798 1.99675   2
  -2   3  -2 1749.28 47.6962   3
  -2   3  -2 1735.58 47.3331   2
  -2   3  -2 1703.28 47.4014   1
   2  -3   2 1681.61 47.4399   2
   2  -3   2 1784.42 47.4027   1
  -3   3  -2 469.597 13.7121   2
  -3   3  -2 485.467 14.0482   3
  -3   3  -2 469.588 13.6307   1
   3  -3   2 460.456 13.8553   2
   3  -3   2 502.898 13.8613   2
   3  -3   2 484.776 13.5212   1
  -4   3  -2 556.347 15.9931   3
  -4   3  -2 520.906 15.4361   1
   4  -3   2 556.652 15.2759   1
   4  -3   2 540.657 15.7358   2
  -5   3  -2 167.708 5.38065   1
  -5   3  -2 167.848 6.16404   3
   5  -3   2 170.571 6.05480   2
   5  -3   2 171.023 5.21582   1
  -6   3  -2 38.8315 2.20450   1
  -6   3  -2 45.2815 3.30993   3
   6  -3   2 41.7026 3.17737   2
   6  -3   2 40.4227 2.00717   1
  -7   3  -2 4.61957 1.91907   3
   7  -3   2 3.02692 0.92819   1
   7  -3   2 3.84274 1.87259   2
  -8   3  -2 -0.7688 2.01852   3
   8  -3   2 1.07987 2.20462   2
  -9   3  -2 130.816 6.76297   3
   9  -3   2 139.573 7.49002   2
  10  -3   2 29.2277 6.32224   2
 -11   3  -2 -3.7861 3.71904   3
  11  -3   2 -0.5903 4.11897   2
 -12   3  -2 3.25261 4.81821   3
  12  -3   2 -5.2270 5.14569   2
  12   2  -2 4.16274 4.55976   2
 -12  -2   2 -2.7241 4.77249   3
  11   2  -2 3.11580 3.63538   2
 -11  -2   2 5.18406 3.88589   3
  10   2  -2 19.5746 5.14403   2
 -10  -2   2 3.37088 3.19539   3
   9   2  -2 161.476 7.18386   2
   9   2  -2 149.065 5.73267   1
  -9  -2   2 157.572 7.33861   3
   8   2  -2 50.6205 3.95729   2
  -8  -2   2 48.4244 4.39948   3
   7   2  -2 4.30754 1.71162   2
   7   2  -2 3.71227 1.05821   1
  -7  -2   2 4.05940 1.81820   3
  -7  -2   2 3.60229 1.50326   1
   6   2  -2 1445.60 40.2272   1
   6   2  -2 1469.27 40.8255   2
  -6  -2   2 1450.23 40.9426   3
  -6  -2   2 1484.19 41.0238   2
  -6  -2   2 1445.21 40.4526   1
   5   2  -2 96.8612 3.94053   2
   5   2  -2 94.4257 3.44910   1
  -5  -2   2 100.988 3.85108   1
  -5  -2   2 95.9502 4.16696   2
  -5  -2   2 103.060 4.21034   3
   4   2  -2 1787.43 49.3087   2
  -4  -2   2 1772.72 49.2389   1
  -4  -2   2 1844.78 49.5580   3
  -4  -2   2 1764.16 49.4487   2
   3   2  -2 5.87015 1.08658   2
   3   2  -2 6.07636 1.15376   1
   3   2  -2 9.85509 1.63636   2
  -3  -2   2 3.78677 0.79542   1
  -3  -2   2 5.69529 1.30624   2
   2   2  -2 696.498 19.9840   1
   2   2  -2 679.295 20.1455   3
   2   2  -2 733.810 19.8602   2
   2   2  -2 716.774 20.1611   3
   2   2  -2 720.677 19.9949   2
  -2  -2   2 727.053 19.9508   2
  -2  -2   2 736.229 20.2144   3
  -2  -2   2 735.636 20.0668   1
   1   2  -2 1356.41 35.6403   2
   1   2  -2 1271.65 35.8210   1
   1   2  -2 1243.88 35.9483   3
   1   2  -2 1266.75 35.9382   3
  -1  -2   2 1341.10 35.9053   1
  -1  -2   2 1367.15 35.6325   2
  -1  -2   2 1297.04 35.9516   3
   0   2  -2 4288.65 116.041   3
   0   2  -2 4326.03 115.960   1
   0  -2   2 4125.19 116.361   1
   0  -2   2 4339.63 116.047   3
  -1   2  -2 355.062 9.90753   2
  -1   2  -2 360.589 10.1650   1
  -1   2  -2 357.672 10.2974   3
   1  -2   2 355.296 9.99058   2
   1  -2   2 353.665 10.2789   3
   1  -2   2 357.836 10.1391   1
  -2   2  -2 200.459 6.10474   2
  -2   2  -2 211.624 6.45160   3
  -2   2  -2 209.857 6.22028   1
   2  -2   2 214.993 6.16857   1
   2  -2   2 219.892 6.39943   2
   2  -2   2 204.277 6.41422   3
   2  -2   2 202.871 6.21035   2
   3  -2   2 18.9116 1.41662   2
   3  -2   2 18.8553 1.19355   1
  -4   2  -2 18.7658 1.97479   3
  -4   2  -2 20.1880 1.43156   1
   4  -2   2 17.2553 1.68794   2
   4  -2   2 20.0281 1.25311   1
  -5   2  -2 153.089 5.52490   3
  -5   2  -2 151.671 4.72009   1
   5  -2   2 148.586 4.65663   1
   5  -2   2 147.913 5.32083   2
  -6   2  -2 194.396 5.90455   1
  -6   2  -2 192.782 6.95668   3
   6  -2   2 195.628 5.89267   1
   6  -2   2 196.004 6.87354   2
  -7   2  -2 534.663 16.0267   3
  -7   2  -2 497.374 14.5765   1
   7  -2   2 514.200 14.6117   1
   7  -2   2 536.093 15.8755   2
  -8   2  -2 86.0249 5.13527   3
   8  -2   2 91.6744 4.96381   2
  -9   2  -2 25.7714 4.44033   3
   9  -2   2 29.7663 4.60710   2
 -10   2  -2 -1.9163 2.75145   3
  10  -2   2 4.62865 2.98015   2
 -11   2  -2 55.4889 7.11134   3
  11  -2   2 71.6401 7.67994   2
 -12   2  -2 37.1177 8.20472   3
  12  -2   2 45.5185 9.14152   2
  12   1  -2 -5.8922 4.46259   2
 -12  -1   2 6.28205 4.64263   3
  11   1  -2 35.3364 6.95477   2
 -11  -1   2 28.2096 6.58562   3
  10   1  -2 73.3981 6.29536   2
 -10  -1   2 73.7480 6.23092   3
   9   1  -2 95.7014 5.59582   2
  -9  -1   2 75.8544 5.58501   3
   8   1  -2 123.797 5.70303   2
   8   1  -2 116.430 4.23712   1
  -8  -1   2 122.263 5.96780   3
   7   1  -2 -0.0978 1.47533   2
   7   1  -2 2.50200 0.90145   1
  -7  -1   2 2.76050 1.74394   3
   6   1  -2 10.7516 1.31869   1
   6   1  -2 15.4497 2.24716   2
   6   1  -2 16.4543 1.74406   1
  -6  -1   2 11.3087 2.55870   3
  -6  -1   2 11.2816 1.85761   1
   5   1  -2 38.7170 1.93397   1
  -5  -1   2 34.4742 2.62867   3
  -5  -1   2 34.8842 2.05150   1
   4   1  -2 1845.44 50.3394   2
   4   1  -2 1820.00 49.9682   1
  -4  -1   2 1808.32 50.4331   2
  -4  -1   2 1820.30 50.4764   3
  -4  -1   2 1852.22 50.0593   1
   3   1  -2 474.275 13.2063   2
   3   1  -2 439.690 13.3340   2
   3   1  -2 460.691 12.9941   1
   3   1  -2 489.979 14.0670   3
  -3  -1   2 463.744 13.3938   3
  -3  -1   2 468.416 13.2873   2
  -3  -1   2 440.140 13.1882   2
  -3  -1   2 471.122 13.0559   1
   2   1  -2 2370.35 68.0598   1
   2   1  -2 2502.85 68.1052   2
   2   1  -2 2618.70 68.3685   3
   2   1  -2 2518.79 68.3384   3
   2   1  -2 2440.46 68.1844   2
  -2  -1   2 2476.35 68.1519   2
  -2  -1   2 2429.40 68.0899   2
  -2  -1   2 2539.88 68.3603   3
  -2  -1   2 2633.30 68.7246   1
   1   1  -2 1442.28 39.9205   2
   1   1  -2 1463.39 40.0999   1
   1   1  -2 1434.68 40.2376   3
   1   1  -2 1502.49 39.9786   2
  -1  -1   2 1448.08 40.2176   3
  -1  -1   2 1451.24 40.1163   1
  -1  -1   2 1537.26 41.1094   3
  -1  -1   2 1469.03 39.9257   2
   0   1  -2 238.015 6.80993   3
   0   1  -2 233.780 6.72715   1
   0  -1   2 229.574 6.77773   3
  -1   1  -2 8.24154 0.87678   3
   1  -1   2 6.75004 0.66555   2
   1  -1   2 6.26672 0.87149   3
  -2   1  -2 2020.20 57.3541   1
  -2   1  -2 2166.23 57.5004   3
  -2   1  -2 2117.54 57.3195   2
  -2   1  -2 2134.98 57.4072   2
   2  -1   2 2101.35 57.4067   2
   2  -1   2 2172.19 57.4767   3
   2  -1   2 2095.62 57.3231   2
   2  -1   2 2033.35 57.3224   1
  -3   1  -2 1364.70 37.1555   3
  -3   1  -2 1393.71 37.1943   2
  -3   1  -2 1352.70 36.8738   1
  -3   1  -2 1320.57 37.0299   2
   3  -1   2 1294.38 37.0910   3
   3  -1   2 1293.77 37.1550   2
   3  -1   2 1400.19 36.9498   1
   3  -1   2 1356.51 37.0562   2
  -4   1  -2 97.7127 3.78151   3
  -4   1  -2 100.065 3.27234   1
  -4   1  -2 101.652 3.88665   2
   4  -1   2 100.142 3.71521   2
   4  -1   2 100.044 3.34095   1
  -5   1  -2 150.281 4.86252   1
  -5   1  -2 170.848 6.32771   2
  -6   1  -2 283.328 9.26956   3
  -6   1  -2 280.852 8.31933   1
   6  -1   2 292.537 9.25366   2
   6  -1   2 287.518 8.40395   1
  -7   1  -2 19.5528 1.76055   1
  -7   1  -2 25.0217 2.93803   3
   7  -1   2 22.8666 1.91793   1
   7  -1   2 26.3493 2.83148   2
  -8   1  -2 32.9990 3.74302   3
   8  -1   2 33.8942 3.70577   2
   8  -1   2 32.4634 2.30642   1
  -9   1  -2 1.85364 2.35357   3
   9  -1   2 6.16720 2.34064   2
 -10   1  -2 58.8337 6.29762   3
  10  -1   2 74.0222 6.02438   2
 -11   1  -2 24.4598 6.13412   3
  11  -1   2 12.0946 3.91863   2
 -12   1  -2 5.97293 4.58187   3
  12  -1   2 14.5039 4.55656   2
  12   0  -2 8.80556 5.09447   2
 -12   0   2 1.64467 4.58250   3
  11   0  -2 7.62430 4.03250   2
 -11   0   2 8.61290 3.90297   3
  10   0  -2 0.82112 2.87604   2
 -10   0   2 -0.5616 2.92865   3
   9   0  -2 10.2065 2.87781   2
  -9   0   2 10.2196 2.75160   3
   8   0  -2 87.5579 5.09153   2
  -8   0   2 91.2123 5.29092   3
   7   0  -2 52.1312 2.35574   1
   7   0  -2 58.9554 3.65146   2
  -7   0   2 54.8841 3.84933   3
   6   0  -2 479.603 13.5346   1
   6   0  -2 490.794 14.5594   2
  -6   0   2 481.464 14.6811   3
   5   0  -2 119.880 3.63521   1
   5   0  -2 120.709 4.49355   2
   5   0  -2 114.809 3.67601   1
  -5   0   2 117.455 3.79998   1
  -5   0   2 122.391 4.69454   3
   4   0  -2 342.486 9.47892   1
   4   0  -2 332.130 10.0496   2
  -4   0   2 338.850 9.53625   1
  -4   0   2 332.991 10.1804   3
   3   0  -2 234.436 6.63836   1
   3   0  -2 238.104 7.02952   2
   3   0  -2 225.999 7.17799   2
   3   0  -2 230.849 7.48621   3
  -3   0   2 238.861 7.19136   3
  -3   0   2 225.957 6.65280   1
  -3   0   2 238.328 7.07053   2
   2   0  -2 8154.22 211.765   3
   2   0  -2 7475.44 212.219   1
  -2   0   2 7740.11 212.232   1
  -2   0   2 8259.19 212.879   3
  -2   0   2 7423.67 212.748   2
   1   0  -2 3210.68 82.9030   3
   1   0  -2 2959.62 82.8524   1
   1   0  -2 3154.37 82.7730   2
  -1   0   2 2981.47 82.7861   1
  -1   0   2 2941.01 82.9268   2
   0   0  -2 2889.31 75.7593   3
   0   0  -2 2753.53 75.7440   3
   0   0  -2 2751.16 75.7458   2
   0   0   2 2700.56 75.9974   1
   0   0   2 2840.45 75.7693   2
   0   0   2 2797.99 75.7541   3
   0   0   2 2746.21 75.7325   3
  -1   0  -2 2367.07 65.3876   3
  -1   0  -2 2431.67 65.4045   2
  -1   0  -2 2335.71 65.4185   1
   1   0   2 2423.05 65.4397   1
   1   0   2 2416.67 65.3823   3
   1   0   2 2444.41 65.3937   2
  -2   0  -2 1.78269 0.39892   1
  -2   0  -2 0.40781 0.44533   3
  -2   0  -2 1.54076 0.56722   2
   2   0   2 1.41883 0.59685   2
   2   0   2 1.43574 0.38561   1
   2   0   2 0.45694 0.46594   3
  -3   0  -2 208.492 6.31576   2
  -3   0  -2 204.480 6.10242   3
  -3   0  -2 204.768 5.90665   1
   3   0   2 201.270 6.14334   2
   3   0   2 193.134 6.29006   2
   3   0   2 190.286 6.02925   3
   3   0   2 204.607 6.09777   1
  -4   0  -2 123.326 4.42846   2
  -4   0  -2 115.998 4.09478   3
  -4   0  -2 117.232 3.73954   1
   4   0   2 118.247 4.18198   2
   4   0   2 122.171 4.21587   3
   4   0   2 118.358 3.75730   1
  -5   0  -2 8.17319 2.13695   2
  -5   0  -2 12.3290 1.89470   3
  -5   0  -2 10.1582 1.15416   1
   5   0   2 12.7094 1.16839   1
   5   0   2 9.94847 1.91850   2
  -6   0  -2 43.7395 2.22157   1
  -6   0  -2 60.8224 3.52700   2
  -6   0  -2 49.3243 3.05628   3
   6   0   2 56.2558 2.31856   1
   6   0   2 56.8346 3.12580   2
  -7   0  -2 1.29946 1.51812   3
  -7   0  -2 -0.1555 0.98256   1
  -7   0  -2 1.85320 1.66275   2
   7   0   2 0.09552 1.63934   1
   7   0   2 0.40593 1.38453   2
   7   0   2 1.73751 0.88004   1
  -8   0  -2 244.438 8.66198   3
  -8   0  -2 241.665 8.96544   2
   8   0   2 236.933 7.40493   1
   8   0   2 240.230 8.65632   2
  -9   0  -2 2.71092 2.29858   3
   9   0   2 5.38013 1.45071   1
   9   0   2 -0.4292 2.04011   2
 -10   0  -2 58.5490 5.40687   3
  10   0   2 41.5686 4.99692   2
 -11   0  -2 14.5484 3.89319   3
  11   0   2 11.4699 3.53535   2
 -12   0  -2 39.7792 8.42059   3
  12   0   2 48.1873 7.88897   2
  12  -1  -2 -4.7757 4.92266   2
 -12   1   2 -3.5559 4.56269   3
  11  -1  -2 -6.6827 4.02139   2
 -11   1   2 -4.4202 3.68577   3
  10  -1  -2 35.3266 6.27109   2
 -10   1   2 22.0904 5.62375   3
   9  -1  -2 0.99171 2.44533   2
  -9   1   2 -1.3454 2.40594   3
   8  -1  -2 106.600 5.60077   2
  -8   1   2 104.705 5.59027   3
   7  -1  -2 57.2141 3.95359   2
  -7   1   2 58.7335 4.02890   3
   6  -1  -2 1069.60 30.6634   2
  -6   1   2 1086.90 30.7526   3
   5  -1  -2 37.4782 2.57959   2
  -5   1   2 31.8406 2.53358   3
   4  -1  -2 2268.81 63.4988   2
  -4   1   2 2357.26 63.6108   3
   3  -1  -2 192.168 6.01826   2
  -3   1   2 189.901 6.36217   2
  -3   1   2 190.124 6.04997   3
   2  -1  -2 33.9445 1.71863   3
   2  -1  -2 36.8674 1.77054   2
   2  -1  -2 40.5558 1.24958   1
  -2   1   2 34.0401 1.72258   2
  -2   1   2 33.5005 1.68733   3
   1  -1  -2 1721.27 47.4156   2
   1  -1  -2 1753.11 47.1314   1
   1  -1  -2 1737.53 47.3121   3
  -1   1   2 1749.12 47.3247   3
  -1   1   2 1687.57 47.4148   2
  -1   1   2 1759.55 47.1555   1
   0  -1  -2 351.183 9.62218   1
   0  -1  -2 324.153 9.72735   2
   0  -1  -2 359.589 9.59566   3
   0   1   2 344.005 9.61979   1
   0   1   2 348.997 9.59036   3
   0   1   2 326.435 9.72137   2
  -1  -1  -2 2412.05 64.3110   2
  -1  -1  -2 2342.21 64.0421   3
  -1  -1  -2 2390.19 64.1890   1
   1   1   2 2386.38 64.2915   2
   1   1   2 2270.89 64.1726   1
   1   1   2 2371.38 64.0417   3
  -2  -1  -2 1018.62 27.7722   3
  -2  -1  -2 1008.14 28.4250   2
  -2  -1  -2 993.755 27.8762   1
   2   1   2 1012.65 27.7633   3
   2   1   2 1037.47 28.0844   1
   2   1   2 1004.96 28.1087   2
  -3  -1  -2 1009.52 28.3967   2
  -3  -1  -2 1053.61 28.0231   1
  -3  -1  -2 1023.21 28.0108   3
   3   1   2 1020.50 28.0146   1
   3   1   2 979.520 28.3759   2
   3   1   2 1016.67 27.9966   3
  -4  -1  -2 23.7763 1.38450   1
  -4  -1  -2 31.4023 1.75426   3
  -4  -1  -2 26.3191 2.17206   2
   4   1   2 27.1608 1.40858   1
   4   1   2 20.1044 1.90537   2
   4   1   2 26.1443 1.75886   3
  -5  -1  -2 7.09785 1.21298   1
  -5  -1  -2 4.78175 1.05442   3
  -5  -1  -2 4.61362 1.39221   2
   5   1   2 5.08492 1.07043   1
   5   1   2 8.55435 1.62961   2
  -6  -1  -2 78.8721 4.02422   2
   6   1   2 79.5442 3.02483   1
   6   1   2 79.8547 3.69354   2
  -7  -1  -2 156.618 6.29472   2
  -7  -1  -2 149.323 5.77075   3
   7   1   2 146.390 4.98671   1
   7   1   2 149.737 5.85346   2
  -8  -1  -2 6.19653 1.96818   3
  -8  -1  -2 5.61920 2.24041   2
   8   1   2 3.29875 1.14472   1
   8   1   2 4.73080 1.83267   2
  -9  -1  -2 1.94429 2.58066   2
  -9  -1  -2 1.25867 2.25408   3
   9   1   2 0.07574 1.51756   1
   9   1   2 -0.1026 1.98686   2
 -10  -1  -2 394.687 13.5114   3
  10   1   2 390.401 13.5622   2
 -11  -1  -2 -1.6646 3.45385   3
  11   1   2 5.07415 2.99162   2
 -12  -1  -2 -0.0286 4.41736   3
  12   1   2 0.54606 3.68639   2
  12  -2  -2 34.4725 9.43904   2
 -12   2   2 5.28908 4.99004   3
  11  -2  -2 1.47472 4.26321   2
 -11   2   2 -2.2480 3.91435   3
  10  -2  -2 7.42709 3.46457   2
 -10   2   2 7.61980 3.61045   3
  -9   2   2 5.40117 2.79655   3
   8  -2  -2 33.0590 4.41438   2
  -8   2   2 33.3862 4.23856   3
   7  -2  -2 16.7354 3.10361   2
  -7   2   2 18.0889 3.25861   3
   6  -2  -2 11.6287 2.67718   2
  -6   2   2 13.0272 2.70007   3
   5  -2  -2 404.861 12.4910   2
  -5   2   2 413.635 12.5008   3
   4  -2  -2 26.4758 2.47066   2
  -4   2   2 23.3411 2.53953   3
   3  -2  -2 153.928 5.30652   2
  -3   2   2 160.670 5.22765   3
   2  -2  -2 1830.73 48.4416   1
   2  -2  -2 1737.08 48.8825   3
   2  -2  -2 1778.93 49.0902   2
  -2   2   2 1686.91 49.0373   2
  -2   2   2 1833.16 48.4609   1
  -2   2   2 1841.76 48.9330   3
   1  -2  -2 1163.47 31.4056   3
   1  -2  -2 1134.01 31.6777   2
   1  -2  -2 1163.65 31.2211   1
  -1   2   2 1159.29 31.4105   3
  -1   2   2 1149.10 31.2219   1
  -1   2   2 1101.00 31.6536   2
   0  -2  -2 321.337 9.34854   1
   0  -2  -2 364.163 9.73259   2
   0  -2  -2 333.467 9.27670   3
   0   2   2 339.123 9.63570   2
   0   2   2 330.791 9.27553   3
   0   2   2 316.236 9.35075   1
  -1  -2  -2 2106.54 57.1141   1
   1   2   2 2088.78 57.6568   1
  -2  -2  -2 40.7794 1.35011   3
  -2  -2  -2 38.8890 1.96570   2
  -2  -2  -2 38.8373 1.63703   1
   2   2   2 41.4676 1.34352   3
   2   2   2 43.9345 1.66905   1
   2   2   2 39.1598 1.99531   2
  -3  -2  -2 533.065 14.7789   3
  -3  -2  -2 535.054 15.3835   2
  -3  -2  -2 514.337 14.9365   1
   3   2   2 535.136 14.7676   3
   3   2   2 538.064 14.9707   1
   3   2   2 539.886 15.7292   2
  -4  -2  -2 427.305 11.5164   2
  -4  -2  -2 350.849 10.8093   1
  -4  -2  -2 365.931 10.7585   3
   4   2   2 353.990 10.7218   3
   4   2   2 377.514 11.4702   1
   4   2   2 378.225 10.8141   1
  -5  -2  -2 701.391 20.0630   2
  -5  -2  -2 674.082 19.3902   3
   5   2   2 688.526 19.3108   1
   5   2   2 683.923 19.7424   2
  -6  -2  -2 449.990 14.1981   2
  -6  -2  -2 461.249 13.6215   3
   6   2   2 468.531 13.3568   1
   6   2   2 468.399 13.9485   2
  -7  -2  -2 184.157 7.11473   2
  -7  -2  -2 182.027 6.51800   3
   7   2   2 173.450 6.32867   1
   7   2   2 185.397 6.72829   2
  -8  -2  -2 298.851 10.4577   2
  -8  -2  -2 293.798 9.85299   3
   8   2   2 294.797 9.11041   1
   8   2   2 294.700 10.0394   2
  -9  -2  -2 13.2145 3.01173   2
  -9  -2  -2 10.5569 2.56840   3
   9   2   2 14.7445 2.53357   1
   9   2   2 15.6129 3.54327   2
 -10  -2  -2 79.1423 6.05303   3
 -10  -2  -2 92.8863 6.73852   2
  10   2   2 76.3749 5.66266   2
 -11  -2  -2 -1.5930 4.23094   3
  11   2   2 1.73142 3.04881   2
 -12  -2  -2 16.9354 4.76399   3
  12   2   2 20.1271 4.25110   2
 -12   3   2 -8.3688 4.93904   3
  11  -3  -2 -4.8964 4.40706   2
 -11   3   2 3.45332 4.36844   3
  10  -3  -2 -0.6117 3.66153   2
   9  -3  -2 29.3449 5.54651   2
  -9   3   2 20.0087 4.78436   3
   8  -3  -2 4.90663 2.46292   2
  -8   3   2 8.02452 2.48529   3
   7  -3  -2 57.5913 4.34283   2
  -7   3   2 63.0526 4.38116   3
   6  -3  -2 132.928 5.71406   2
  -6   3   2 133.690 5.62911   3
   5  -3  -2 182.530 6.61734   2
  -5   3   2 175.596 6.41385   3
  -4   3   2 82.3784 3.64306   3
   3  -3  -2 1392.94 38.9469   2
  -3   3   2 1400.50 38.7062   3
   2  -3  -2 54.6750 2.78842   2
   2  -3  -2 53.6673 2.49142   3
   2  -3  -2 53.4016 1.85879   1
  -2   3   2 58.2118 2.39867   3
  -2   3   2 56.5979 1.88799   1
  -2   3   2 59.5170 2.04426   1
   1  -3  -2 3786.45 102.489   1
   1  -3  -2 3747.38 102.635   3
   1  -3  -2 3906.58 103.099   2
  -1   3   2 3775.10 102.651   3
  -1   3   2 3803.36 103.022   2
  -1   3   2 3714.68 102.493   1
  -1   3   2 3710.98 102.572   1
   0  -3  -2 459.959 13.9391   2
   0  -3  -2 497.611 13.4890   3
   0  -3  -2 486.193 13.5840   1
   0   3   2 489.301 13.7176   1
   0   3   2 491.777 13.5957   1
   0   3   2 489.637 13.4710   3
  -1  -3  -2 1818.55 50.4757   1
  -1  -3  -2 1790.83 50.7438   2
   1   3   2 1776.07 50.6758   2
   1   3   2 1939.14 50.1244   3
   1   3   2 1882.50 50.6451   1
   1   3   2 1883.50 50.5096   1
  -2  -3  -2 2316.13 60.3410   2
  -2  -3  -2 2153.05 59.9673   1
   2   3   2 2081.14 60.0982   1
   2   3   2 2269.53 60.0106   1
   2   3   2 2165.02 60.2305   2
  -3  -3  -2 4750.31 128.533   2
  -3  -3  -2 4676.42 127.763   3
   3   3   2 4702.96 128.115   1
   3   3   2 4727.28 127.800   3
  -4  -3  -2 2.15686 1.15451   2
  -4  -3  -2 3.19408 0.92398   3
   4   3   2 1.50960 0.76166   3
   4   3   2 0.65844 0.67158   1
  -5  -3  -2 1.04619 0.97834   3
  -5  -3  -2 -0.0530 1.21471   2
   5   3   2 1.63072 0.76724   1
   5   3   2 -0.2100 1.05565   3
  -6  -3  -2 2.11923 1.61578   2
  -6  -3  -2 1.50780 1.26441   3
   6   3   2 -0.5560 0.83479   1
  -7  -3  -2 -1.0774 1.41143   3
  -7  -3  -2 -0.0285 1.78624   2
   7   3   2 1.13246 1.48959   2
   7   3   2 1.25337 1.05474   1
  -8  -3  -2 18.1910 3.78223   2
  -8  -3  -2 17.9852 3.35226   3
   8   3   2 17.6315 2.36152   1
   8   3   2 18.4784 3.15819   2
  -9  -3  -2 21.9959 4.09894   3
  -9  -3  -2 18.9456 4.52182   2
   9   3   2 15.5991 3.60032   2
   9   3   2 14.8394 2.61039   1
 -10  -3  -2 85.2687 6.60662   2
 -10  -3  -2 85.9400 6.11110   3
  10   3   2 81.9287 5.70721   2
  10   3   2 81.9477 4.32925   1
 -11  -3  -2 5.85590 3.53649   3
 -11  -3  -2 14.0400 4.17824   2
  11   3   2 7.25955 3.34181   2
 -12  -3  -2 4.17458 4.47388   3
  12   3   2 6.78810 4.15785   2
  11  -4  -2 3.49224 4.87565   2
 -11   4   2 6.22983 4.29369   3
  10  -4  -2 11.6189 4.24900   2
 -10   4   2 6.28312 3.79183   3
   9  -4  -2 -0.3448 3.28028   2
  -9   4   2 6.20919 3.06129   3
   8  -4  -2 72.9207 5.89813   2
  -8   4   2 67.8603 5.38967   3
   7  -4  -2 300.610 10.6142   2
  -7   4   2 294.651 10.4152   3
   6  -4  -2 4.65033 1.89680   2
  -6   4   2 2.54851 1.64689   3
   5  -4  -2 1067.33 30.8820   2
  -5   4   2 1087.55 30.7192   3
   4  -4  -2 26.8470 2.81101   2
  -4   4   2 27.9543 2.45300   3
  -3   4   2 2759.95 74.8816   3
  -3   4   2 2725.75 74.1399   1
  -3   4   2 2701.84 74.1739   1
  -2   4   2 20.4911 1.45719   1
  -2   4   2 23.6856 1.79209   3
  -2   4   2 18.0988 1.15023   1
   1  -4  -2 3813.10 103.719   1
   1  -4  -2 3615.31 104.349   2
   1  -4  -2 3786.37 103.842   3
  -1   4   2 3888.36 103.847   1
  -1   4   2 3932.85 103.757   1
  -1   4   2 3872.50 103.863   3
   0  -4  -2 372.090 10.9308   1
   0  -4  -2 394.000 10.8800   3
   0  -4  -2 365.229 11.4015   2
   0   4   2 398.845 10.8688   3
   0   4   2 393.517 10.9917   1
   0   4   2 377.128 11.1110   1
  -1  -4  -2 3085.67 81.5757   3
  -1  -4  -2 3043.60 82.2567   2
   1   4   2 2964.29 81.5492   3
   1   4   2 2929.94 81.9174   1
  -2  -4  -2 1770.71 49.8581   2
   2   4   2 1805.08 49.0248   3
   2   4   2 1835.92 49.0493   3
   2   4   2 1807.71 49.5524   1
  -3  -4  -2 8.35348 1.84666   2
   3   4   2 10.8552 1.04341   3
   3   4   2 11.1648 1.25900   1
   3   4   2 11.2967 1.05062   3
  -4  -4  -2 650.028 19.4874   2
   4   4   2 662.767 18.4239   3
   4   4   2 674.884 19.1596   3
  -5  -4  -2 460.357 12.9968   3
  -5  -4  -2 445.633 13.8676   2
   5   4   2 454.247 13.2005   1
   5   4   2 439.861 12.9231   3
  -6  -4  -2 3.52435 1.38390   3
  -6  -4  -2 3.91337 1.79413   2
   6   4   2 5.18506 1.13446   1
  -7  -4  -2 1.94334 2.00951   2
   7   4   2 4.56541 1.81368   2
   7   4   2 1.87574 1.12993   1
  -8  -4  -2 54.7498 4.78983   2
  -8  -4  -2 59.3132 4.07593   3
   8   4   2 64.5519 3.42802   1
   8   4   2 58.6978 4.25548   2
  -9  -4  -2 48.6692 4.50256   3
  -9  -4  -2 37.3272 5.16076   2
   9   4   2 42.9901 3.40983   1
   9   4   2 44.0782 4.65929   2
 -10  -4  -2 6.48997 2.94909   3
 -10  -4  -2 3.19963 3.13864   2
  10   4   2 1.43999 1.72244   1
  10   4   2 7.06663 2.65173   2
 -11  -4  -2 8.19649 3.97217   2
 -11  -4  -2 4.87845 3.69631   3
  11   4   2 5.34656 3.16555   2
 -12  -4  -2 11.7800 5.25686   2
  12   4   2 14.3175 4.20031   2
  11  -5  -2 -3.1379 4.86526   2
 -11   5   2 -1.8653 4.71612   3
  10  -5  -2 -7.4100 3.80909   2
 -10   5   2 5.29495 3.90122   3
   9  -5  -2 116.852 7.95526   2
  -9   5   2 121.929 7.64704   3
   8  -5  -2 3.76898 5.70830   2
   7  -5  -2 143.611 7.02191   2
  -7   5   2 145.926 6.79638   3
   6  -5  -2 2.94542 2.03591   2
  -6   5   2 0.06732 1.77922   3
   5  -5  -2 1136.07 33.1847   2
  -5   5   2 1172.49 32.9611   3
   4  -5  -2 34.0383 3.33201   2
  -4   5   2 29.1596 2.88575   3
  -4   5   2 31.5418 1.77883   1
  -4   5   2 33.1962 1.78058   1
   3  -5  -2 1177.45 35.1896   2
  -3   5   2 1287.50 34.1685   1
  -3   5   2 1298.24 34.9003   3
  -3   5   2 1212.25 34.1920   1
  -2   5   2 -1.1783 0.87585   3
  -2   5   2 0.21703 0.90487   1
  -2   5   2 -1.2093 0.57440   1
   1  -5  -2 1625.51 46.1548   3
   1  -5  -2 1720.17 46.7893   2
   1  -5  -2 1678.96 46.2245   1
  -1   5   2 1667.06 46.1225   3
  -1   5   2 1693.97 46.0341   1
   0  -5  -2 67.9911 2.70826   3
   0  -5  -2 67.2916 2.99513   1
   0  -5  -2 66.3360 3.28912   2
   0   5   2 72.1943 2.66189   3
   0   5   2 69.9728 2.66262   1
  -1  -5  -2 1587.53 43.2890   1
  -1  -5  -2 1557.36 42.6911   3
  -1  -5  -2 1517.30 43.3975   2
   1   5   2 1585.50 43.0409   1
   1   5   2 1558.00 42.6447   3
  -2  -5  -2 1291.23 38.7703   1
  -2  -5  -2 1419.11 38.4578   2
  -2  -5  -2 1397.22 37.5371   3
   2   5   2 1359.16 37.5422   3
   2   5   2 1398.10 37.4982   3
   3   5   2 1070.13 30.1403   1
   3   5   2 1067.66 29.5409   3
   3   5   2 1095.67 29.5696   3
  -4  -5  -2 318.741 10.3543   2
   4   5   2 321.537 9.78495   1
   4   5   2 320.780 9.25301   3
  -5  -5  -2 8.23482 1.95277   2
  -5  -5  -2 11.0829 1.89910   3
   5   5   2 8.49074 1.80832   3
   5   5   2 7.25135 1.67604   1
   5   5   2 10.6142 1.93725   3
  -6  -5  -2 159.344 5.63666   3
  -6  -5  -2 157.857 6.53179   2
   6   5   2 165.391 5.72683   1
   6   5   2 155.907 5.49424   3
  -7  -5  -2 -0.3925 2.08653   2
   7   5   2 1.24188 2.85161   3
   7   5   2 -1.5499 1.27293   1
  -8  -5  -2 57.3990 5.02893   2
  -8  -5  -2 52.3248 3.99204   3
   8   5   2 55.9968 4.43039   2
   8   5   2 49.6016 3.47536   1
   8   5   2 46.2320 3.99371   3
  -9  -5  -2 -4.0143 2.17942   3
   9   5   2 1.69447 2.86014   2
   9   5   2 -1.2429 1.70120   1
 -10  -5  -2 -2.8279 3.07541   3
 -10  -5  -2 0.76393 3.13935   2
  10   5   2 5.57870 2.16262   1
  10   5   2 3.89878 2.80029   2
 -11  -5  -2 27.8176 4.89667   2
  11   5   2 31.2124 6.03042   2
 -12  -5  -2 8.79897 4.96061   2
  12   5   2 6.85060 4.34265   2
  11  -6  -2 1.98130 5.14135   2
 -11   6   2 5.64678 5.08842   3
  10  -6  -2 4.53304 4.36411   2
 -10   6   2 4.40901 4.25128   3
   9  -6  -2 4.33606 3.82071   2
  -9   6   2 6.73962 3.56185   3
   8  -6  -2 -1.0328 2.99154   2
  -8   6   2 -0.2702 2.71676   3
   7  -6  -2 240.590 10.0230   2
  -7   6   2 254.208 9.74137   3
   6  -6  -2 6.63389 2.61090   2
  -6   6   2 -0.0630 1.84076   3
   5  -6  -2 233.223 8.74505   2
  -5   6   2 220.648 8.22571   3
   4  -6  -2 0.52017 1.85524   2
  -4   6   2 0.36819 0.72201   1
  -4   6   2 0.60441 1.42810   3
  -4   6   2 -0.4735 1.08150   1
   3  -6  -2 1724.20 50.2634   2
  -3   6   2 1811.03 49.7683   3
  -3   6   2 1835.36 49.1097   1
   2  -6  -2 1.21565 1.66074   2
   2  -6  -2 -0.2410 1.07617   1
  -2   6   2 0.05493 0.72538   1
   1  -6  -2 1223.26 37.4258   2
   1  -6  -2 1371.63 36.9903   1
  -1   6   2 1382.83 36.8587   3
  -1   6   2 1328.05 36.7045   1
   0  -6  -2 111.828 4.12856   3
   0   6   2 112.734 3.98242   3
  -1  -6  -2 503.861 14.9915   1
  -1  -6  -2 513.256 14.4329   3
   1   6   2 500.592 14.6778   1
   1   6   2 506.439 14.3196   3
  -2  -6  -2 1148.54 31.9522   2
  -2  -6  -2 1132.46 31.7854   1
  -2  -6  -2 1138.57 30.9978   3
   2   6   2 1114.72 31.4885   3
   2   6   2 1092.86 30.9828   3
   2   6   2 1116.19 31.4511   1
  -3  -6  -2 309.460 9.82387   1
  -3  -6  -2 305.471 9.96255   2
   3   6   2 308.314 9.46553   1
   3   6   2 296.860 8.86913   3
  -4  -6  -2 24.1164 2.95675   2
   4   6   2 22.8727 2.08735   1
   4   6   2 20.9159 1.84443   3
   4   6   2 24.9895 2.05810   3
  -5  -6  -2 55.9309 4.01823   2
   5   6   2 48.9334 2.99076   1
   5   6   2 49.5235 2.88936   3
   5   6   2 53.1082 2.78692   3
  -6  -6  -2 747.333 22.3893   2
  -6  -6  -2 733.300 21.1410   3
   6   6   2 736.157 21.1176   3
   6   6   2 758.073 21.6198   1
  -7  -6  -2 2.00961 1.94380   3
  -7  -6  -2 -0.6168 2.25170   2
   7   6   2 -0.9401 1.73090   3
   7   6   2 0.20128 1.38901   1
  -8  -6  -2 28.4505 4.72246   2
  -8  -6  -2 33.3677 3.82787   3
   8   6   2 34.9775 4.19707   2
   8   6   2 38.1551 3.36900   1
   8   6   2 40.1076 3.66767   3
  -9  -6  -2 -0.2917 2.98948   2
   9   6   2 0.40906 2.52921   2
   9   6   2 -2.2226 2.36811   3
   9   6   2 -1.5218 1.77804   1
 -10  -6  -2 6.05974 3.67890   2
  10   6   2 8.55084 3.12193   2
  10   6   2 5.38077 2.37032   1
 -11  -6  -2 8.53165 4.49929   2
  11   6   2 11.6354 4.41487   1
  11   6   2 10.7609 3.76401   2
  10  -7  -2 -2.9387 4.54685   2
 -10   7   2 -1.4533 4.45258   3
   9  -7  -2 52.4359 7.48710   2
  -9   7   2 48.5134 6.68532   3
   8  -7  -2 0.68142 3.52588   2
  -8   7   2 5.16165 3.13592   3
   6  -7  -2 -2.7697 2.55450   2
  -6   7   2 2.22710 2.28657   3
   5  -7  -2 603.189 19.2318   2
  -5   7   2 635.520 18.8948   3
  -5   7   2 607.429 17.3008   1
   4  -7  -2 166.006 7.11218   2
  -4   7   2 147.396 5.12080   1
  -4   7   2 153.879 6.37909   3
   3  -7  -2 193.427 7.48930   2
  -3   7   2 179.975 6.62224   3
  -3   7   2 165.547 5.75226   1
   2  -7  -2 384.102 13.0106   2
  -2   7   2 419.247 12.3032   3
   1  -7  -2 396.688 12.8939   2
   1  -7  -2 404.200 12.2303   1
  -1   7   2 405.196 12.0838   3
  -1   7   2 395.405 11.8638   1
   0  -7  -2 1973.87 53.8963   2
   0  -7  -2 1891.79 53.4347   1
   0   7   2 1947.93 52.9672   3
   0   7   2 1886.47 53.1068   1
  -1  -7  -2 217.667 7.25694   1
  -1  -7  -2 192.556 6.72283   3
  -1  -7  -2 199.904 7.45446   2
   1   7   2 213.203 6.53192   3
   1   7   2 207.529 6.78132   1
  -2  -7  -2 1.25942 1.32063   3
  -2  -7  -2 0.81060 1.68573   2
  -2  -7  -2 3.02308 1.35298   1
   2   7   2 2.07707 1.02680   1
   2   7   2 1.18958 0.96515   3
  -3  -7  -2 1.66800 1.76274   2
  -3  -7  -2 4.81038 1.53791   1
  -3  -7  -2 2.74663 1.34050   3
   3   7   2 3.49883 1.08113   3
   3   7   2 3.41725 1.08901   1
   3   7   2 3.73535 1.36019   3
  -4  -7  -2 389.972 12.6113   2
   4   7   2 394.881 11.9763   1
   4   7   2 383.381 11.2026   3
   4   7   2 380.573 11.3277   3
  -5  -7  -2 4.62804 2.06647   2
   5   7   2 2.89119 1.63471   3
   5   7   2 1.41548 1.19002   1
   5   7   2 0.56302 1.34510   3
  -6  -7  -2 216.620 8.51073   2
   6   7   2 200.157 6.88666   3
   6   7   2 212.085 7.41724   1
  -7  -7  -2 44.0758 4.83654   2
   7   7   2 43.1797 3.73604   3
   7   7   2 44.3397 3.39561   1
  -8  -7  -2 34.1934 5.29419   2
   8   7   2 29.3210 3.53928   1
  -9  -7  -2 8.49378 3.46693   2
   9   7   2 8.82652 2.95858   2
 -10  -7  -2 4.42114 3.80148   2
  10   7   2 -0.3697 2.29483   1
  10   7   2 -3.0263 3.14069   2
 -11  -7  -2 40.2774 8.45871   2
  11   7   2 39.2839 5.70461   1
  11   7   2 28.0215 6.85143   2
   9  -8  -2 1.05601 4.64351   2
  -9   8   2 -1.1525 3.98658   3
   8  -8  -2 3.46775 4.08271   2
  -8   8   2 0.25633 3.58061   3
   7  -8  -2 58.3838 6.69868   2
  -7   8   2 57.3695 5.97859   3
   6  -8  -2 201.622 9.35608   2
  -6   8   2 194.191 8.74291   3
   5  -8  -2 18.9452 4.84554   2
  -5   8   2 12.7064 2.57487   3
  -5   8   2 17.1087 2.18967   1
   4  -8  -2 110.291 6.59109   2
  -4   8   2 111.075 5.57147   3
   3  -8  -2 157.194 7.44804   2
  -3   8   2 167.015 6.51975   3
  -3   8   2 169.169 5.76987   1
   2  -8  -2 445.994 14.8611   2
   2  -8  -2 453.754 13.8547   1
  -2   8   2 452.304 13.4602   1
  -2   8   2 464.143 13.8848   3
   1  -8  -2 40.0801 4.06764   2
   1  -8  -2 39.8952 3.18218   1
  -1   8   2 39.1601 2.52254   1
  -1   8   2 34.8626 2.94940   3
   0  -8  -2 85.6390 4.20294   1
   0  -8  -2 74.8577 4.86928   2
   0   8   2 87.2762 3.63269   1
   0   8   2 76.8011 3.83408   3
  -1  -8  -2 0.28143 1.60416   1
  -1  -8  -2 1.34898 1.97306   2
   1   8   2 1.25020 1.39240   3
   1   8   2 -1.0603 1.08356   1
  -2  -8  -2 710.550 21.3953   1
  -2  -8  -2 733.222 21.6518   2
   2   8   2 724.189 20.9858   1
   2   8   2 717.481 20.4022   3
  -3  -8  -2 25.5219 2.90058   3
  -3  -8  -2 27.1995 3.74097   2
  -3  -8  -2 26.9067 3.27448   1
   3   8   2 23.9473 3.08324   3
   3   8   2 25.7144 2.54663   1
   3   8   2 25.8954 2.37739   3
  -4  -8  -2 8.59097 2.40432   2
   4   8   2 11.4682 2.19966   3
   4   8   2 6.19563 1.43780   1
  -5  -8  -2 188.228 7.89900   2
   5   8   2 176.735 6.15006   3
   5   8   2 190.671 6.93498   1
  -6  -8  -2 325.271 11.5979   2
   6   8   2 321.435 10.6786   1
   6   8   2 312.849 9.91720   3
  -7  -8  -2 -0.4961 2.73807   2
   7   8   2 3.64972 1.79191   1
  -8  -8  -2 1.93692 3.13687   2
   8   8   2 2.88903 1.97673   1
  -9  -8  -2 14.4365 4.15490   2
   9   8   2 14.4986 3.53667   2
   9   8   2 11.3999 2.52824   1
 -10  -8  -2 4.02084 4.28554   2
  10   8   2 4.66833 3.61629   2
  10   8   2 4.66386 3.03014   1
   9  -9  -2 -8.8106 5.07492   2
  -9   9   2 -2.2868 4.68449   3
   8  -9  -2 27.9484 5.59101   2
  -8   9   2 36.6738 7.38182   3
   7  -9  -2 3.55794 3.95316   2
  -7   9   2 0.75674 3.37547   3
   6  -9  -2 13.5309 3.88361   2
  -6   9   2 12.1543 3.32157   3
   5  -9  -2 95.7764 7.39582   2
  -5   9   2 99.9034 6.32652   3
   4  -9  -2 576.202 18.7018   2
  -4   9   2 557.041 16.6021   1
  -4   9   2 573.303 17.7746   3
   3  -9  -2 -0.2849 2.59774   2
  -3   9   2 -1.1996 1.23788   1
  -3   9   2 0.66475 1.97875   3
   2  -9  -2 266.048 10.5488   2
   2  -9  -2 280.813 9.39105   1
  -2   9   2 276.133 9.31798   3
  -2   9   2 265.607 8.81823   1
   1  -9  -2 24.3258 4.70584   2
   1  -9  -2 20.2781 3.22931   1
  -1   9   2 12.9059 2.14412   3
  -1   9   2 15.8913 2.47915   1
   0  -9  -2 1062.80 30.9449   1
   0  -9  -2 1084.81 31.4864   2
   0   9   2 1061.44 30.3035   3
   0   9   2 1078.42 30.5075   1
  -1  -9  -2 -1.2888 2.15231   2
  -1  -9  -2 3.23320 1.76242   1
   1   9   2 3.30899 1.34592   1
  -2  -9  -2 381.148 12.4364   1
  -2  -9  -2 384.849 12.6923   2
   2   9   2 376.137 11.8385   1
   2   9   2 355.126 11.2618   3
  -3  -9  -2 94.0036 5.26649   1
  -3  -9  -2 94.9805 5.81273   2
   3   9   2 91.9302 4.20079   3
   3   9   2 93.5034 4.54059   1
  -4  -9  -2 785.726 23.5401   2
   4   9   2 772.711 22.7978   1
   4   9   2 757.362 21.8513   3
  -5  -9  -2 212.083 9.09826   2
   5   9   2 208.540 7.83837   1
  -6  -9  -2 -3.5775 2.74797   2
   6   9   2 -0.7130 2.76977   1
   7   9   2 2.51903 1.98836   1
  -8  -9  -2 16.8899 4.01478   2
   8   9   2 27.3562 4.13477   1
  -9  -9  -2 15.6147 4.70262   2
   9   9   2 29.0867 6.27859   2
   9   9   2 26.6265 4.82941   1
 -10  -9  -2 4.66589 4.89729   2
  10   9   2 -2.4066 3.06572   1
  10   9   2 4.25092 4.00443   2
   8 -10  -2 16.3852 5.56221   2
  -8  10   2 15.4638 4.91225   3
   7 -10  -2 -0.7387 4.56869   2
  -7  10   2 7.98290 4.03780   3
   6 -10  -2 280.575 12.6281   2
  -6  10   2 274.265 11.8432   3
   5 -10  -2 -1.4434 3.61739   2
  -5  10   2 -0.0899 3.08441   3
   4 -10  -2 223.319 10.1741   2
  -4  10   2 225.213 9.11649   3
  -4  10   2 212.749 7.67111   1
   3 -10  -2 5.68317 3.51547   2
  -3  10   2 1.52556 1.70501   1
  -3  10   2 1.97005 2.45180   3
   2 -10  -2 1568.84 46.1993   2
   2 -10  -2 1607.59 45.2291   1
  -2  10   2 1566.28 45.0595   3
  -2  10   2 1643.22 44.8195   1
   1 -10  -2 -0.3120 2.05661   1
   1 -10  -2 -1.0828 3.04450   2
  -1  10   2 -2.0237 1.87493   3
  -1  10   2 -0.6720 1.47218   1
   0 -10  -2 490.263 16.0554   2
   0 -10  -2 471.499 15.3496   1
   0  10   2 470.156 14.6406   3
   0  10   2 484.599 14.7924   1
  -1 -10  -2 -2.3850 2.57533   2
  -1 -10  -2 2.82950 2.14610   1
   1  10   2 2.41165 1.54388   1
   1  10   2 1.51197 1.74299   3
  -2 -10  -2 479.054 15.8261   1
  -2 -10  -2 493.646 16.1373   2
   2  10   2 500.744 15.2778   1
   2  10   2 484.962 14.9284   3
  -3 -10  -2 83.7989 6.19856   2
  -3 -10  -2 93.3918 5.66453   1
   3  10   2 88.4101 4.76178   1
   3  10   2 81.5963 4.45863   3
  -4 -10  -2 30.3806 5.31384   2
   4  10   2 32.0374 5.11843   1
  -5 -10  -2 111.884 7.36611   2
   5  10   2 107.899 5.59453   1
   6  10   2 60.1272 4.66064   1
  -7 -10  -2 1.82346 3.81256   2
   7  10   2 -0.8180 2.29080   1
  -8 -10  -2 -3.7882 3.90110   2
   8  10   2 2.64697 2.43306   1
  -9 -10  -2 32.3181 8.14026   2
   9  10   2 27.3611 7.50698   2
   9  10   2 17.9299 3.47188   1
   7 -11  -2 8.08113 5.53666   2
  -7  11   2 11.6989 4.64497   3
   6 -11  -2 37.7873 8.44286   2
  -6  11   2 36.1015 7.47569   3
   5 -11  -2 0.24430 4.24022   2
  -5  11   2 -3.1421 3.54066   3
   4 -11  -2 317.177 13.5306   2
  -4  11   2 303.837 12.9860   3
  -3  11   2 0.08477 2.74330   3
  -3  11   2 -1.8408 1.89695   1
   2 -11  -2 59.2330 7.39877   2
  -2  11   2 66.5585 4.31767   1
  -2  11   2 63.1395 5.24811   3
   1 -11  -2 4.67335 3.55286   2
  -1  11   2 0.58001 1.89593   1
  -1  11   2 0.76284 2.41781   3
   0 -11  -2 585.609 19.0802   2
   0 -11  -2 572.242 18.4472   1
   0  11   2 589.651 17.8350   1
   0  11   2 573.022 17.6855   3
  -1 -11  -2 0.82390 2.45673   1
  -1 -11  -2 0.86210 3.25660   2
   1  11   2 2.96525 1.92319   1
   1  11   2 1.87486 2.31436   3
  -2 -11  -2 143.274 7.97475   2
  -2 -11  -2 153.581 7.50439   1
   2  11   2 141.752 6.46354   1
  -3 -11  -2 53.2178 6.20305   2
   3  11   2 65.6705 4.56593   1
  -4 -11  -2 101.079 7.41236   2
   4  11   2 96.7805 5.44108   1
  -5 -11  -2 23.4361 5.21790   2
   5  11   2 26.2468 4.11409   1
  -6 -11  -2 -3.4719 3.92122   2
   6  11   2 -1.3619 2.15679   1
  -7 -11  -2 0.60468 4.08126   2
   7  11   2 7.01620 2.70379   1
  -8 -11  -2 -3.3246 4.46673   2
   8  11   2 1.48874 2.90211   1
   6 -12  -2 97.9647 11.0594   2
  -6  12   2 78.9756 9.29583   3
   5 -12  -2 7.41444 5.37339   2
  -5  12   2 -4.9929 4.07384   3
   4 -12  -2 51.7626 9.18843   2
  -4  12   2 45.0691 6.91508   3
   3 -12  -2 1.94934 4.82838   2
  -3  12   2 -3.7462 2.24003   1
  -3  12   2 4.18251 3.86464   3
   2 -12  -2 421.972 16.0182   2
  -2  12   2 391.125 14.9690   1
  -2  12   2 398.682 13.8610   3
   1 -12  -2 19.7053 5.54149   2
  -1  12   2 19.6490 4.06155   1
  -1  12   2 21.7033 5.15788   3
   0 -12  -2 75.2407 9.30136   2
   0  12   2 90.8300 5.49602   1
   0  12   2 79.8545 6.05175   3
  -1 -12  -2 12.1684 4.49397   2
   1  12   2 15.8354 3.73876   1
  -2 -12  -2 100.284 10.5180   2
   2  12   2 105.311 5.94854   1
  -3 -12  -2 159.413 10.5371   2
   3  12   2 175.185 7.73154   1
  -4 -12  -2 5.62236 4.30100   2
   4  12   2 7.47144 2.57088   1
  -5 -12  -2 17.8840 4.92379   2
   5  12   2 12.0865 2.77463   1
  -6 -12  -2 -1.4174 4.61866   2
   6  12   2 1.00391 2.50729   1
  -7 -12  -2 71.8688 9.26315   2
   7  12   2 86.4017 6.44019   1
   4 -13  -2 156.341 12.7630   2
  -4  13   2 134.483 10.1233   3
   3 -13  -2 76.3401 10.4114   2
  -3  13   2 71.0439 8.00787   3
   2 -13  -2 5.76807 5.43531   2
  -2  13   2 7.67545 2.94351   1
  -2  13   2 13.8458 6.06822   3
   1 -13  -2 64.7123 9.03001   2
  -1  13   2 37.1112 5.51878   1
   0 -13  -2 56.9063 8.48022   2
   0  13   2 54.1228 5.49767   1
  -1 -13  -2 154.724 9.91661   2
   1  13   2 147.196 7.54090   1
  -2 -13  -2 6.74595 4.63836   2
   2  13   2 -1.6393 2.48465   1
  -3 -13  -2 5.79058 4.90722   2
   3  13   2 10.4636 2.95855   1
  -4 -13  -2 6.14699 4.95168   2
   4  13   2 1.48014 2.70520   1
  -5 -13  -2 16.0926 5.63178   2
   5  13   2 13.5969 3.29489   1
   0 -14  -2 1.00470 5.78732   2
   0  14   2 1.86926 3.15131   1
  -1 -14  -2 1.82782 5.56911   2
   1  14   2 -0.1107 3.01260   1
  -2 -14  -2 -1.4018 5.64238   2
   2  14   2 -1.5310 3.18042   1
   2  13  -3 -6.1790 3.01823   1
  -2 -13   3 -0.6919 4.14780   1
   1  13  -3 -0.1333 4.42027   3
   1  13  -3 3.84891 3.09457   1
  -1 -13   3 2.49643 3.94368   1
   0  13  -3 70.9877 6.55462   1
   0  13  -3 97.0151 9.23535   3
   0 -13   3 77.8578 7.78831   1
  -1  13  -3 6.80641 3.24665   1
  -1  13  -3 2.02297 4.95020   3
   1 -13   3 5.91370 4.09694   1
   5  12  -3 -4.6793 3.12487   1
  -5 -12   3 4.81181 4.24389   1
   4  12  -3 8.25470 2.99414   1
  -4 -12   3 6.63912 3.81644   1
   3  12  -3 1.80544 2.74772   1
   3  12  -3 -3.3606 3.74130   3
  -3 -12   3 -0.4137 3.32693   1
   2  12  -3 283.195 10.8639   1
   2  12  -3 279.234 11.7498   3
  -2 -12   3 272.925 11.7403   1
   1  12  -3 9.72879 2.79142   1
   1  12  -3 8.85068 3.90537   3
  -1 -12   3 -0.1316 3.22240   1
   0  12  -3 34.8501 6.96103   3
   0  12  -3 43.3281 5.21694   1
   0 -12   3 34.9178 6.31347   1
  -1  12  -3 36.0973 7.21810   3
  -1  12  -3 20.3142 4.88099   1
   1 -12   3 6.83735 3.62067   1
  -2  12  -3 166.232 9.90728   3
  -2  12  -3 170.397 7.90323   1
   2 -12   3 166.116 8.91916   1
  -3  12  -3 -1.1809 4.06953   3
  -3  12  -3 -0.2160 2.71273   1
   3 -12   3 -4.0979 3.43737   1
  -4  12  -3 25.5513 5.64919   1
  -4  12  -3 9.72437 4.84301   3
   4 -12   3 3.75218 3.77734   1
   6  11  -3 20.0510 3.63148   1
  -6 -11   3 27.8918 6.99677   1
   5  11  -3 4.96623 2.73482   1
  -5 -11   3 2.86051 3.53813   1
   4  11  -3 210.043 9.68309   3
   4  11  -3 220.017 9.14067   1
  -4 -11   3 222.249 10.0702   1
   3  11  -3 3.75197 2.32111   1
   3  11  -3 1.51517 3.27839   3
  -3 -11   3 -1.4237 2.87528   1
   2  11  -3 23.3035 4.44048   1
   2  11  -3 13.0158 3.47140   3
  -2 -11   3 12.1405 3.43819   1
   1  11  -3 23.6167 4.44502   1
   1  11  -3 14.7987 3.55565   3
  -1 -11   3 14.7386 3.27141   1
   0  11  -3 216.765 11.0398   3
   0  11  -3 241.491 9.13064   1
   0 -11   3 228.966 9.86469   1
  -1  11  -3 1.51651 3.29495   3
  -1  11  -3 -0.2325 2.14200   1
   1 -11   3 0.95174 2.75455   1
  -2  11  -3 -0.2194 2.20468   1
  -2  11  -3 3.22671 3.28425   3
   2 -11   3 -3.5845 2.73303   1
  -3  11  -3 15.9060 2.87326   1
  -3  11  -3 26.5556 7.12209   3
   3 -11   3 17.0318 3.39721   1
  -4  11  -3 44.4536 7.66482   3
  -4  11  -3 27.3007 4.89934   1
   4 -11   3 29.1022 5.93049   1
  -5  11  -3 2.39587 4.02256   3
  -6  11  -3 9.60674 4.71190   3
  -8 -10   3 -7.3063 4.11703   1
   7  10  -3 -0.1992 2.80511   1
  -7 -10   3 3.67510 3.70203   1
   6  10  -3 35.9229 6.61292   3
   6  10  -3 28.1620 5.05835   1
  -6 -10   3 19.0120 4.01346   1
   5  10  -3 6.63837 3.40182   3
   5  10  -3 4.72573 2.58923   1
  -5 -10   3 5.12316 3.09699   1
   4  10  -3 2.16559 2.13293   1
   4  10  -3 0.86394 2.85956   3
  -4 -10   3 -1.2613 2.57125   1
   3  10  -3 39.8252 5.47967   3
   3  10  -3 53.5666 4.59389   1
  -3 -10   3 55.3194 5.39867   1
   2  10  -3 164.319 6.93687   1
   2  10  -3 156.890 7.40582   3
  -2 -10   3 157.528 7.50614   1
   1  10  -3 0.80518 2.62453   3
   1  10  -3 3.07432 1.90368   1
  -1 -10   3 0.70423 2.28837   1
   0  10  -3 21.6762 5.51932   1
   0  10  -3 18.1317 3.38898   3
   0 -10   3 19.6689 4.57502   1
  -1  10  -3 79.4318 5.72301   3
  -1  10  -3 81.2696 4.77926   1
   1 -10   3 73.7463 5.24163   1
  -2  10  -3 341.625 11.4278   1
  -2  10  -3 355.674 12.5600   3
   2 -10   3 341.209 13.6321   2
   2 -10   3 339.157 11.9034   1
  -3  10  -3 12.6670 2.29034   1
  -3  10  -3 11.5097 3.53457   3
   3 -10   3 16.8397 4.23099   2
   3 -10   3 9.11370 2.64220   1
  -4  10  -3 5.93897 2.20543   1
  -4  10  -3 6.01456 3.22619   3
   4 -10   3 9.79810 3.76339   2
   4 -10   3 5.97413 2.66417   1
  -5  10  -3 0.40696 2.15168   1
  -5  10  -3 2.14818 3.67750   3
   5 -10   3 1.23277 2.63442   1
   5 -10   3 -2.0457 3.56071   2
  -6  10  -3 2.24128 3.85227   3
   6 -10   3 0.63942 6.41919   2
  -7  10  -3 6.01681 4.23427   3
   8   9  -3 28.9844 5.21659   1
  -8  -9   3 22.6179 4.51006   1
   7   9  -3 3.71331 3.57616   3
   7   9  -3 1.72771 2.56134   1
  -7  -9   3 -0.2831 3.18500   1
   6   9  -3 18.3486 4.06938   2
   6   9  -3 12.6403 3.42674   3
   6   9  -3 11.4449 2.41028   1
  -6  -9   3 18.5661 3.44977   1
   5   9  -3 -0.7263 1.94254   1
   5   9  -3 -1.7433 2.84594   3
  -5  -9   3 1.34583 2.56948   1
  -5  -9   3 1.41600 2.82857   2
   4   9  -3 348.492 11.5683   1
   4   9  -3 341.501 11.7948   3
  -4  -9   3 335.955 12.2002   1
  -4  -9   3 329.008 11.2192   2
   3   9  -3 17.1180 3.27070   1
   3   9  -3 21.0403 4.10282   3
  -3  -9   3 16.7872 2.91659   1
  -3  -9   3 13.9441 2.60903   2
   2   9  -3 142.855 6.09536   1
   2   9  -3 137.917 6.57414   3
  -2  -9   3 138.999 5.99872   2
  -2  -9   3 148.635 6.57572   1
   1   9  -3 31.3702 3.86906   3
  -1  -9   3 21.2512 5.23428   2
  -1  -9   3 18.7561 3.37783   1
   0   9  -3 352.841 11.6241   3
   0  -9   3 341.492 11.5805   1
   0  -9   3 326.447 11.6581   2
  -1   9  -3 232.107 8.89950   3
   1  -9   3 235.926 8.37710   2
   1  -9   3 239.034 8.76905   1
  -2   9  -3 4.17580 2.43003   3
   2  -9   3 4.60841 2.50249   2
   2  -9   3 -0.7855 1.90233   1
  -3   9  -3 17.3946 4.65221   3
   3  -9   3 8.52609 2.43489   1
   3  -9   3 12.2396 2.89147   2
  -4   9  -3 31.8920 5.86742   3
   4  -9   3 35.5242 4.26694   1
   4  -9   3 28.0742 4.88648   2
  -5   9  -3 80.0342 6.81773   3
   5  -9   3 72.8097 5.01225   1
   5  -9   3 76.9335 6.49683   2
  -6   9  -3 1.59961 3.28765   3
   6  -9   3 1.17045 3.78708   2
  -7   9  -3 0.31538 3.63751   3
   7  -9   3 2.30585 4.68681   2
  -8   9  -3 3.03588 4.45473   3
   8  -9   3 0.85362 4.73096   2
   9   8  -3 -3.0300 4.05144   3
   9   8  -3 1.32151 3.69832   2
   9   8  -3 1.83052 3.02296   1
  -9  -8   3 5.60070 4.21645   1
  -9  -8   3 1.47259 7.73738   2
   8   8  -3 -1.5781 4.07473   3
   8   8  -3 1.68037 2.32505   1
   8   8  -3 0.32427 2.91402   2
  -8  -8   3 2.59522 3.46522   1
  -8  -8   3 -5.8750 3.33675   2
   7   8  -3 0.03073 2.16203   1
   7   8  -3 2.51991 2.44082   2
   7   8  -3 1.73737 3.05004   3
  -7  -8   3 3.29951 2.72836   1
  -7  -8   3 3.00357 3.07484   2
   6   8  -3 106.002 5.33379   2
   6   8  -3 104.889 6.46813   3
   6   8  -3 107.357 6.10684   1
  -6  -8   3 103.875 6.99843   1
  -6  -8   3 103.565 5.84648   2
   5   8  -3 14.0118 3.25664   2
   5   8  -3 6.41055 2.10313   1
  -5  -8   3 5.40927 2.52743   2
  -5  -8   3 6.28006 2.52188   1
   4   8  -3 5.25964 2.44688   3
   4   8  -3 7.49830 1.85126   1
  -4  -8   3 4.96329 2.12000   1
  -4  -8   3 4.73613 2.16032   2
   3   8  -3 22.3713 2.81254   1
   3   8  -3 21.3108 3.74090   3
  -3  -8   3 16.1603 3.21358   2
  -3  -8   3 21.9567 3.40034   1
   2   8  -3 44.4607 3.76102   3
  -2  -8   3 34.4843 3.46513   2
  -2  -8   3 34.5294 3.48760   1
   1   8  -3 680.211 20.3226   3
  -1  -8   3 691.294 20.5651   1
  -1  -8   3 680.063 19.7835   2
   0   8  -3 10.1484 2.19340   3
   0  -8   3 11.1556 2.09774   2
   0  -8   3 14.6366 2.97270   1
  -1   8  -3 -0.7471 1.85502   3
   1  -8   3 1.61790 1.60631   1
   1  -8   3 2.63165 1.84939   2
  -2   8  -3 7.45471 2.16464   3
   2  -8   3 7.32446 2.13609   2
   2  -8   3 5.36966 1.75603   1
  -3   8  -3 144.167 6.56380   3
   3  -8   3 140.987 5.90664   1
   3  -8   3 134.215 6.13770   2
  -4   8  -3 37.0406 4.71796   3
   4  -8   3 28.8040 3.40246   1
   4  -8   3 28.5952 4.48126   2
  -5   8  -3 5.18991 2.78874   3
   5  -8   3 1.99408 1.88933   1
   5  -8   3 4.67623 2.79393   2
  -6   8  -3 17.0026 3.61282   3
   6  -8   3 20.7806 3.73051   1
   6  -8   3 24.6051 5.20630   2
  -7   8  -3 15.6898 3.60928   3
   7  -8   3 18.0492 3.98870   2
  -8   8  -3 31.5751 6.74624   3
   8  -8   3 13.9385 4.44587   2
  -9   8  -3 2.60220 4.52930   3
   9  -8   3 3.70360 4.76288   2
  10   7  -3 17.0556 4.75620   3
  10   7  -3 23.0227 5.26887   1
  10   7  -3 32.0824 6.93056   2
 -10  -7   3 19.4251 5.27905   3
   9   7  -3 1.43131 2.57354   1
   9   7  -3 -0.5460 3.59597   3
   9   7  -3 -2.3166 3.34073   2
  -9  -7   3 2.32109 3.67823   1
  -9  -7   3 0.99844 3.75270   2
   8   7  -3 50.7520 4.65480   1
   8   7  -3 47.4875 5.70591   3
   8   7  -3 38.1066 5.16594   2
  -8  -7   3 54.2414 6.08435   1
  -8  -7   3 43.8128 5.80408   2
   7   7  -3 3.29027 2.89168   3
   7   7  -3 1.90327 2.31165   2
   7   7  -3 -0.2550 1.88192   1
  -7  -7   3 1.86357 2.65890   2
  -7  -7   3 -0.0033 2.44519   1
   6   7  -3 151.347 7.09317   3
   6   7  -3 157.174 6.27612   2
   6   7  -3 154.500 6.36328   1
  -6  -7   3 148.473 6.56954   2
  -6  -7   3 156.029 6.98891   1
   5   7  -3 100.876 4.82657   1
   5   7  -3 100.432 4.60527   2
   5   7  -3 93.1108 5.51957   3
  -5  -7   3 102.098 5.35422   1
  -5  -7   3 98.5805 4.96275   2
   4   7  -3 -0.2192 1.94103   3
   4   7  -3 -0.1790 1.30939   1
  -4  -7   3 3.09743 1.75880   2
  -4  -7   3 1.35806 1.57328   1
   3   7  -3 145.031 6.07212   3
  -3  -7   3 147.332 5.68379   2
  -3  -7   3 144.636 6.05847   1
   2   7  -3 4.20046 1.73330   3
  -2  -7   3 0.25060 1.54804   2
  -2  -7   3 3.35842 1.63179   1
   1   7  -3 2.55154 1.60311   3
  -1  -7   3 -0.8397 1.33497   2
  -1  -7   3 -1.1897 1.31732   1
   0   7  -3 2.48058 1.58364   3
   0  -7   3 -0.4026 1.48301   2
   0  -7   3 3.47880 1.38942   1
  -1   7  -3 1304.88 36.8362   3
   1  -7   3 1302.07 36.2650   2
   1  -7   3 1291.76 36.6599   1
  -2   7  -3 45.3741 3.72261   3
   2  -7   3 43.7955 3.11246   1
   2  -7   3 42.8487 3.44753   2
  -3   7  -3 150.145 6.24865   3
   3  -7   3 142.900 6.05016   2
   3  -7   3 139.402 5.55764   1
  -4   7  -3 1.15886 2.00021   3
   4  -7   3 6.31342 2.30741   2
   4  -7   3 0.99606 1.43425   1
  -5   7  -3 363.323 12.3497   3
   5  -7   3 364.011 12.2552   2
   5  -7   3 357.387 11.2545   1
  -6   7  -3 2.75940 2.57674   3
   6  -7   3 4.84645 2.78103   2
   6  -7   3 6.63653 1.75433   1
  -7   7  -3 36.2918 5.02093   3
   7  -7   3 27.4362 5.63106   2
  -8   7  -3 3.69762 3.24965   3
  -9   7  -3 1.16894 4.06556   3
   9  -7   3 7.35342 4.33517   2
 -10   7  -3 1.05685 4.70710   3
  10  -7   3 5.31804 4.93371   2
  10   6  -3 10.7962 4.35012   3
  10   6  -3 9.87451 3.81719   2
 -10  -6   3 12.6901 4.27066   3
   9   6  -3 26.0320 6.18132   2
   9   6  -3 29.3611 4.40862   1
  -9  -6   3 20.1497 6.05383   3
  -9  -6   3 23.9916 5.01222   2
  -9  -6   3 25.6784 5.76424   1
   8   6  -3 33.4794 5.28744   3
   8   6  -3 32.0493 4.43241   2
   8   6  -3 32.7668 3.75039   1
  -8  -6   3 32.8380 5.15924   3
  -8  -6   3 38.8193 4.89024   1
  -8  -6   3 33.1096 5.15900   2
   7   6  -3 5.13908 2.70333   3
   7   6  -3 7.11717 1.85845   1
   7   6  -3 8.45284 2.19100   2
  -7  -6   3 4.25441 2.30227   1
  -7  -6   3 1.85151 2.46935   2
  -7  -6   3 10.3786 2.76983   3
   6   6  -3 385.437 12.0921   1
   6   6  -3 371.002 12.4234   3
   6   6  -3 375.393 11.9085   2
  -6  -6   3 391.025 12.6395   1
  -6  -6   3 380.772 12.2917   2
   5   6  -3 132.842 5.89355   3
   5   6  -3 132.461 5.41318   1
   5   6  -3 133.922 5.18835   2
  -5  -6   3 135.184 5.91356   1
  -5  -6   3 130.724 5.60385   2
   4   6  -3 3.92251 1.73701   3
  -4  -6   3 1.49481 1.43320   1
   3   6  -3 889.924 25.7622   3
  -3  -6   3 892.061 25.3119   2
  -3  -6   3 905.218 25.9366   1
   2   6  -3 27.5095 2.92155   3
   2   6  -3 27.3045 2.58013   2
  -2  -6   3 28.8119 2.50042   2
  -2  -6   3 28.5867 2.69096   1
   1   6  -3 2271.54 62.5242   2
   1   6  -3 2328.40 63.1661   3
  -1  -6   3 2250.94 63.1651   1
  -1  -6   3 2285.33 62.5406   2
   0   6  -3 53.0504 3.40872   3
   0   6  -3 60.9230 3.13398   2
   0  -6   3 63.8026 2.86830   2
   0  -6   3 58.0513 3.21004   1
  -1   6  -3 504.863 15.2846   3
  -1   6  -3 504.698 14.6293   2
   1  -6   3 523.136 15.1436   1
   1  -6   3 505.311 14.7301   2
  -2   6  -3 2.55152 1.51631   3
   2  -6   3 4.22569 1.59248   2
   2  -6   3 2.91208 1.14050   1
  -3   6  -3 1748.39 48.6253   3
   3  -6   3 1686.69 48.2694   2
   3  -6   3 1767.42 48.1113   1
  -4   6  -3 18.4792 3.15337   3
   4  -6   3 19.5243 2.39127   1
   4  -6   3 15.7915 3.22532   2
  -5   6  -3 26.0805 3.71778   3
   5  -6   3 19.2344 3.74767   2
   5  -6   3 21.5844 2.52291   1
  -6   6  -3 56.8986 4.64770   3
   6  -6   3 67.8742 4.92159   2
   6  -6   3 61.7869 3.35975   1
  -7   6  -3 9.86480 2.98011   3
   7  -6   3 12.1022 3.04222   2
  -8   6  -3 1.37726 2.96212   3
   8  -6   3 2.83882 3.13263   2
  -9   6  -3 -0.0459 3.60945   3
   9  -6   3 -0.5356 3.76199   2
 -10   6  -3 7.11473 4.43571   3
  10  -6   3 1.68985 4.35418   2
  11   5  -3 9.12960 4.84664   3
  11   5  -3 6.19336 4.59105   2
 -11  -5   3 1.18214 4.69636   3
  10   5  -3 5.90025 3.78308   3
  10   5  -3 2.73717 3.20082   2
 -10  -5   3 -2.3786 3.63477   3
   9   5  -3 5.18297 3.32267   2
   9   5  -3 2.48373 2.11016   1
   9   5  -3 3.21977 3.16127   3
  -9  -5   3 -0.8163 3.28857   3
  -9  -5   3 2.03300 2.93427   1
   8   5  -3 86.0124 5.88841   3
   8   5  -3 85.2251 5.39081   2
   8   5  -3 88.6600 4.58054   1
  -8  -5   3 90.5042 6.00533   2
  -8  -5   3 86.5570 6.19476   3
  -8  -5   3 98.3598 5.54577   1
   7   5  -3 346.424 11.6952   3
   7   5  -3 334.884 10.9223   1
   7   5  -3 342.341 11.1615   2
  -7  -5   3 339.319 11.7279   3
  -7  -5   3 337.413 11.4656   1
  -7  -5   3 349.396 11.5610   2
   6   5  -3 419.317 12.8052   1
   6   5  -3 418.136 12.7793   2
   6   5  -3 414.795 13.2764   3
  -6  -5   3 414.541 13.3201   3
  -6  -5   3 411.516 13.0631   2
  -6  -5   3 416.273 13.2555   1
   5   5  -3 328.307 10.9371   3
   5   5  -3 335.825 10.3086   2
   5   5  -3 335.421 10.4592   1
  -5  -5   3 330.620 10.5671   2
  -5  -5   3 339.376 10.8158   1
  -5  -5   3 333.753 10.9252   3
   4   5  -3 5.82398 1.70877   3
   4   5  -3 6.49483 1.36609   2
  -4  -5   3 9.49692 2.26056   2
  -4  -5   3 6.31881 1.55895   1
   3   5  -3 948.405 25.1505   3
  -3  -5   3 838.079 24.6257   2
  -3  -5   3 842.985 25.1121   1
   2   5  -3 35.3004 2.70882   3
   2   5  -3 33.9408 2.37320   2
  -2  -5   3 36.0404 2.18018   2
  -2  -5   3 31.2876 2.47832   1
   1   5  -3 1354.40 37.9524   3
   1   5  -3 1330.91 37.3129   2
  -1  -5   3 1389.74 37.9794   1
   0   5  -3 130.879 4.33856   2
   0   5  -3 122.636 4.83744   3
   0  -5   3 133.833 4.78926   1
   0  -5   3 128.954 4.68289   2
  -1   5  -3 1326.07 37.1588   3
  -1   5  -3 1342.09 36.4837   2
   1  -5   3 1329.52 36.6035   2
   1  -5   3 1309.84 36.9827   1
  -2   5  -3 239.147 7.95522   3
  -2   5  -3 231.472 7.27792   2
   2  -5   3 235.706 7.59789   2
   2  -5   3 249.409 7.71977   1
  -3   5  -3 1.59076 1.36350   3
   3  -5   3 2.11154 1.48883   2
  -4   5  -3 11.6907 2.75308   3
   4  -5   3 11.0528 2.17992   1
  -5   5  -3 344.904 11.4320   3
   5  -5   3 354.529 11.2208   2
   5  -5   3 347.276 10.4733   1
  -6   5  -3 43.7485 3.93353   3
   6  -5   3 47.3730 4.27630   2
   6  -5   3 47.6739 2.81705   1
  -7   5  -3 0.82704 2.21787   3
   7  -5   3 1.83218 1.33274   1
   7  -5   3 4.41979 2.44719   2
  -8   5  -3 9.31089 4.91807   3
   8  -5   3 9.43345 3.06117   2
  -9   5  -3 1.73391 3.29678   3
   9  -5   3 2.93966 3.25199   2
 -10   5  -3 1.29741 3.57487   3
  10  -5   3 3.61027 4.02900   2
 -11   5  -3 -1.0910 4.67219   3
  11  -5   3 -0.1662 4.84870   2
  11   4  -3 10.5549 4.28641   2
  11   4  -3 5.25659 3.98079   3
 -11  -4   3 -4.0822 4.08511   3
  10   4  -3 3.25045 3.33755   3
  10   4  -3 4.27870 3.20409   2
 -10  -4   3 0.66041 3.36767   3
   9   4  -3 48.3297 3.94287   1
   9   4  -3 57.1054 5.66311   3
   9   4  -3 61.0733 5.14525   2
  -9  -4   3 55.1496 5.86729   3
   8   4  -3 207.012 8.37363   3
   8   4  -3 204.128 7.26581   1
   8   4  -3 208.820 8.06653   2
  -8  -4   3 207.484 7.92393   1
  -8  -4   3 210.398 8.52675   3
   7   4  -3 18.3768 2.39510   1
   7   4  -3 16.1772 3.57762   3
   7   4  -3 15.8552 3.26813   2
  -7  -4   3 12.0092 3.09231   1
  -7  -4   3 18.1215 3.64743   2
  -7  -4   3 14.4907 2.54965   3
   6   4  -3 40.2653 3.58235   3
   6   4  -3 39.3315 2.69710   1
   6   4  -3 39.6610 3.05756   2
  -6  -4   3 32.8623 3.29989   1
  -6  -4   3 41.9457 3.68207   3
  -6  -4   3 39.4158 3.47622   2
   5   4  -3 442.851 13.2043   1
   5   4  -3 443.113 13.1910   2
   5   4  -3 441.807 13.6531   3
  -5  -4   3 443.887 13.4086   2
  -5  -4   3 447.784 13.7097   3
  -5  -4   3 446.065 13.5128   1
   4   4  -3 404.767 12.2195   3
   4   4  -3 401.681 11.6701   2
  -4  -4   3 395.354 12.0946   1
  -4  -4   3 389.625 12.2204   3
  -4  -4   3 390.951 11.8674   2
   3   4  -3 365.547 11.3871   3
   3   4  -3 357.754 11.0370   2
   3   4  -3 376.313 10.7660   2
  -3  -4   3 374.867 11.2595   1
  -3  -4   3 376.416 10.9287   2
   2   4  -3 70.0075 2.85979   2
   2   4  -3 66.6061 3.25510   3
  -2  -4   3 71.5145 3.12286   1
  -2  -4   3 70.7378 2.80844   2
   1   4  -3 630.760 17.4573   3
   1   4  -3 621.529 16.7720   2
  -1  -4   3 558.507 16.7572   2
   0   4  -3 62.4458 2.28773   2
   0   4  -3 59.2074 2.97578   3
   0  -4   3 61.0879 2.23279   2
   0  -4   3 59.8816 2.69070   1
  -1   4  -3 1023.75 28.4209   2
  -1   4  -3 1034.04 29.1111   3
   1  -4   3 1052.65 28.9432   1
   1  -4   3 1032.43 28.5765   2
  -2   4  -3 398.655 11.4646   2
  -2   4  -3 397.039 12.6258   3
   2  -4   3 392.003 11.7378   2
   2  -4   3 420.047 11.8025   1
  -3   4  -3 1515.43 42.8243   3
   3  -4   3 1536.04 42.4784   2
   3  -4   3 1552.94 42.3663   1
  -4   4  -3 224.934 7.74464   3
   4  -4   3 225.821 7.46757   2
   4  -4   3 229.695 7.04493   1
  -5   4  -3 5.60350 1.71482   3
   5  -4   3 8.69684 1.78472   2
   5  -4   3 11.6065 1.71782   1
  -6   4  -3 109.939 5.25430   3
   6  -4   3 96.7076 4.99558   2
   6  -4   3 104.966 3.90460   1
  -7   4  -3 94.6334 5.27160   3
   7  -4   3 92.0059 5.34127   2
   7  -4   3 95.2068 3.74709   1
  -8   4  -3 49.0428 5.06697   3
   8  -4   3 41.3704 4.97592   2
  -9   4  -3 -1.7041 2.75043   3
 -10   4  -3 10.8920 3.68792   3
  10  -4   3 2.59160 3.77646   2
 -11   4  -3 3.82380 4.39040   3
  11  -4   3 -7.9301 4.23508   2
  11   3  -3 0.35715 3.97997   2
  11   3  -3 -1.3336 3.89438   3
 -11  -3   3 0.83961 4.12685   3
  10   3  -3 9.40330 3.47146   2
  10   3  -3 -4.8369 3.29692   3
 -10  -3   3 1.26665 3.37379   3
   9   3  -3 30.2483 4.65582   2
   9   3  -3 21.0230 3.70043   3
   9   3  -3 28.4023 3.22006   1
  -9  -3   3 20.5975 5.35779   3
   8   3  -3 43.5936 2.96530   1
   8   3  -3 38.5803 4.60977   3
   8   3  -3 46.6884 4.09910   2
  -8  -3   3 43.3904 4.65891   3
  -8  -3   3 35.1889 3.76406   1
   7   3  -3 373.737 11.3402   1
   7   3  -3 379.493 11.9814   2
   7   3  -3 364.870 12.2246   3
  -7  -3   3 384.446 12.4244   3
  -7  -3   3 377.066 11.7845   1
   6   3  -3 16.5420 1.91577   1
   6   3  -3 18.8709 2.62338   2
   6   3  -3 20.1162 2.89842   3
  -6  -3   3 15.4493 2.95501   3
  -6  -3   3 10.9207 2.47788   1
  -6  -3   3 17.7913 2.87504   2
   5   3  -3 0.53416 1.13152   2
   5   3  -3 0.37369 1.30494   3
  -5  -3   3 -2.4275 1.31562   3
  -5  -3   3 -1.1739 1.08937   1
  -5  -3   3 0.71296 1.32356   2
   4   3  -3 703.599 19.9833   2
   4   3  -3 700.407 20.3888   3
  -4  -3   3 709.479 20.1524   2
  -4  -3   3 713.265 20.4664   3
   3   3  -3 1220.85 34.5568   3
   3   3  -3 1235.33 34.0688   2
   3   3  -3 1208.66 34.2923   2
  -3  -3   3 1260.17 34.4517   1
  -3  -3   3 1263.74 34.6374   3
  -3  -3   3 1232.65 34.1879   2
   2   3  -3 28.3904 1.76503   2
   2   3  -3 33.5257 2.20680   3
   2   3  -3 31.0294 1.44370   2
  -2  -3   3 27.3668 1.81472   1
  -2  -3   3 29.5421 1.60875   2
   1   3  -3 2460.43 67.8934   3
   1   3  -3 2435.83 67.2657   2
  -1  -3   3 2477.72 67.8119   1
  -1  -3   3 2534.20 67.2761   2
   0   3  -3 945.546 26.5451   3
   0  -3   3 951.210 26.4391   1
  -1   3  -3 275.151 7.59327   2
  -1   3  -3 279.001 8.30087   3
   1  -3   3 269.356 8.05563   1
   1  -3   3 254.851 7.73107   2
  -2   3  -3 3238.43 85.2369   3
  -2   3  -3 3128.74 84.6447   2
   2  -3   3 3157.47 84.7300   2
   2  -3   3 2830.40 85.5043   2
   2  -3   3 3214.20 84.9336   1
  -3   3  -3 55.2647 2.41900   2
   3  -3   3 56.7833 2.37848   1
   3  -3   3 54.7837 2.50752   2
   3  -3   3 51.1049 2.64782   2
  -4   3  -3 51.2748 2.99029   3
   4  -3   3 54.5105 2.80284   2
   4  -3   3 56.2861 2.39844   1
  -5   3  -3 222.205 7.71842   3
   5  -3   3 225.384 7.46805   2
   5  -3   3 226.407 6.89970   1
  -6   3  -3 210.176 7.61493   3
   6  -3   3 206.682 7.37111   2
   6  -3   3 210.282 6.50511   1
  -7   3  -3 17.7649 3.13023   3
   7  -3   3 17.0638 3.33619   2
   7  -3   3 16.9627 1.99244   1
  -8   3  -3 6.45692 2.37955   3
   8  -3   3 6.08880 1.32075   1
   8  -3   3 7.59668 2.51561   2
  -9   3  -3 0.63233 2.65066   3
   9  -3   3 -0.4703 2.72481   2
 -10   3  -3 3.95868 3.19886   3
  10  -3   3 2.79701 3.37093   2
 -11   3  -3 3.49558 3.92440   3
  11  -3   3 5.74251 4.21914   2
 -12   3  -3 5.80515 4.88790   3
  12  -3   3 -0.8330 5.05888   2
 -12  -2   3 -0.5666 5.06659   3
  11   2  -3 5.26564 3.91108   2
 -11  -2   3 4.05991 4.24866   3
  10   2  -3 16.5278 3.74852   2
 -10  -2   3 32.5174 6.33042   3
   9   2  -3 134.528 6.87691   2
  -9  -2   3 125.425 7.11928   3
   8   2  -3 -0.0042 2.01976   2
   8   2  -3 0.00274 1.19127   1
  -8  -2   3 1.65372 2.31835   3
  -8  -2   3 2.53704 1.83759   1
   7   2  -3 33.8910 3.23471   2
  -7  -2   3 23.1192 3.50860   3
   6   2  -3 10.1398 1.66621   1
   6   2  -3 16.7275 2.42048   2
  -6  -2   3 15.2064 2.34175   1
  -6  -2   3 15.9449 2.88180   3
   5   2  -3 886.578 25.2768   2
  -5  -2   3 895.872 25.1484   1
  -5  -2   3 897.317 25.6194   3
   4   2  -3 9.73886 2.30410   3
  -4  -2   3 8.14525 1.63176   3
   3   2  -3 386.937 11.0195   2
   3   2  -3 389.186 11.4356   3
   3   2  -3 367.075 11.2040   2
  -3  -2   3 393.405 11.4835   3
  -3  -2   3 381.099 11.1625   1
  -3  -2   3 378.003 11.0912   2
   2   2  -3 2640.38 73.1524   2
   2   2  -3 2759.38 73.6546   1
   2   2  -3 2720.01 73.0462   2
   2   2  -3 2655.58 73.5156   3
  -2  -2   3 2677.20 73.0964   2
  -2  -2   3 2673.42 73.5492   3
  -2  -2   3 2680.60 73.3596   1
   1   2  -3 92.2385 2.67038   2
   1   2  -3 80.4799 3.00647   1
   1   2  -3 86.2920 3.22798   3
   1   2  -3 87.2447 2.56652   2
   1   2  -3 83.4833 3.32039   3
  -1  -2   3 84.4778 3.26492   3
  -1  -2   3 87.0074 3.06688   1
   0  -2   3 202.130 6.13644   1
  -1   2  -3 937.447 27.1252   1
  -1   2  -3 1018.94 26.7081   2
  -1   2  -3 960.768 27.2453   3
   1  -2   3 999.933 27.1594   1
   1  -2   3 1007.82 26.7513   2
   1  -2   3 948.970 27.2287   3
   1  -2   3 985.175 26.7515   2
  -2   2  -3 136.244 4.59513   3
  -2   2  -3 132.905 4.11991   2
  -2   2  -3 132.544 4.42410   1
   2  -2   3 140.368 4.36665   1
   2  -2   3 131.742 4.13092   2
   2  -2   3 135.379 4.25026   2
  -3   2  -3 10.8050 1.39059   2
  -3   2  -3 9.62608 1.59852   3
  -3   2  -3 12.6612 1.51913   1
   3  -2   3 13.2443 1.19046   1
   3  -2   3 9.32464 1.64108   2
   3  -2   3 11.1697 1.26927   2
  -4   2  -3 1453.85 41.9192   3
  -4   2  -3 1416.61 41.0353   1
   4  -2   3 1550.25 41.2266   2
   4  -2   3 1541.02 41.0023   1
  -5   2  -3 7.59741 1.72475   1
  -5   2  -3 8.08069 2.15191   3
   5  -2   3 6.00177 1.36241   1
   5  -2   3 7.61656 1.77332   2
  -6   2  -3 35.0997 3.03444   3
  -6   2  -3 33.7582 2.63713   1
   6  -2   3 34.2213 2.06952   1
   6  -2   3 30.1225 2.82489   2
  -7   2  -3 5.86504 1.87576   3
   7  -2   3 3.58961 1.71677   2
   7  -2   3 7.54696 1.77549   1
  -8   2  -3 11.5186 2.49237   3
   8  -2   3 16.6351 3.44183   2
   8  -2   3 14.7434 2.06562   1
  -9   2  -3 80.6286 5.69641   3
   9  -2   3 86.8673 5.86823   2
 -10   2  -3 8.79366 3.21074   3
  10  -2   3 11.5245 3.22169   2
 -11   2  -3 17.5008 4.22206   3
  11  -2   3 35.0941 7.31869   2
 -12   2  -3 3.56653 4.71109   3
  12  -2   3 -9.9180 4.67244   2
  12   1  -3 8.40385 5.25167   2
 -12  -1   3 -2.2896 4.78025   3
  11   1  -3 5.48486 4.15398   2
 -11  -1   3 7.94991 4.17471   3
  10   1  -3 45.5696 6.09754   2
 -10  -1   3 32.0001 5.77723   3
   9   1  -3 35.0419 5.05380   2
  -9  -1   3 45.5541 5.15441   3
   8   1  -3 4.16236 1.19951   1
   8   1  -3 4.16826 2.08370   2
  -8  -1   3 3.78818 2.21624   3
   7   1  -3 12.2771 2.90767   2
   7   1  -3 9.06851 1.57504   1
  -7  -1   3 7.90626 1.52479   1
  -7  -1   3 8.62361 2.10448   3
   6   1  -3 182.379 5.81065   1
   6   1  -3 184.621 6.64017   2
  -6  -1   3 191.569 6.97893   3
  -6  -1   3 193.618 6.17592   1
   5   1  -3 546.678 15.8818   1
   5   1  -3 576.183 16.4021   2
  -5  -1   3 569.433 16.0132   1
  -5  -1   3 558.282 16.6126   3
   4   1  -3 416.831 11.9067   1
   4   1  -3 410.120 12.1909   2
  -4  -1   3 424.078 11.9935   1
   3   1  -3 1326.19 36.4284   2
   3   1  -3 1270.42 36.5485   2
   3   1  -3 1306.61 36.3156   1
  -3  -1   3 1344.97 36.3923   1
  -3  -1   3 1397.33 36.8140   3
  -3  -1   3 1291.86 36.4386   2
   2   1  -3 182.631 5.55140   2
   1   1  -3 22.0715 1.64272   3
   1   1  -3 22.4532 1.11475   2
   1   1  -3 21.9558 1.03399   2
   1   1  -3 21.6464 1.54196   3
   1   1  -3 21.6133 1.24018   1
  -1  -1   3 24.3909 1.33201   1
  -1  -1   3 21.6523 1.03052   2
  -1  -1   3 22.3707 1.57131   3
  -1  -1   3 24.6787 1.62786   3
   0   1  -3 4138.27 110.678   3
   0   1  -3 4088.35 110.601   1
   0   1  -3 4057.20 110.661   3
   0  -1   3 4085.29 110.644   3
   0  -1   3 3972.92 110.858   1
  -1   1  -3 119.023 3.80424   3
  -1   1  -3 130.047 3.46451   2
   1  -1   3 102.888 3.41712   2
   1  -1   3 110.615 3.76783   3
  -2   1  -3 1477.71 40.8188   3
  -2   1  -3 1496.44 40.6496   2
  -2   1  -3 1440.49 40.7594   1
   2  -1   3 1433.71 40.7607   3
   2  -1   3 1525.29 40.5649   2
   2  -1   3 1528.72 40.7457   1
   2  -1   3 1489.00 40.6625   2
  -3   1  -3 1023.08 28.6371   3
  -3   1  -3 1053.69 28.6294   2
  -3   1  -3 1001.38 28.4739   1
   3  -1   3 1041.05 28.9317   3
   3  -1   3 1017.59 28.6316   2
   3  -1   3 1039.09 28.4880   1
   3  -1   3 1035.83 28.4955   2
  -4   1  -3 917.077 26.4068   1
  -4   1  -3 961.615 26.8132   2
  -4   1  -3 910.844 26.7083   3
   4  -1   3 979.618 26.4445   1
   4  -1   3 994.625 26.6743   2
  -5   1  -3 11.3189 1.62168   1
  -5   1  -3 9.32443 2.40994   2
   5  -1   3 17.2404 1.55993   1
   5  -1   3 15.2308 1.90926   2
  -6   1  -3 2044.65 58.4406   3
  -6   1  -3 2077.45 58.6318   2
  -6   1  -3 2305.59 58.8944   1
   6  -1   3 2052.48 57.8230   1
   6  -1   3 2078.16 58.4462   2
  -7   1  -3 27.0920 3.32121   2
  -7   1  -3 24.2974 3.05720   3
   7  -1   3 23.8850 2.07892   1
   7  -1   3 24.1535 2.88250   2
  -8   1  -3 25.3259 3.64375   3
   8  -1   3 27.8903 2.47194   1
   8  -1   3 30.0669 3.43663   2
  -9   1  -3 70.1733 5.38075   3
   9  -1   3 80.8126 5.09130   2
 -10   1  -3 -1.8546 2.74965   3
  10  -1   3 1.94213 2.58919   2
 -11   1  -3 24.1917 6.15142   3
  11  -1   3 29.3535 6.22247   2
 -12   1  -3 8.73256 4.61471   3
  12  -1   3 2.19182 4.40785   2
  12   0  -3 -3.7915 5.15850   2
 -12   0   3 5.21343 4.87537   3
  11   0  -3 14.8210 4.66369   2
 -11   0   3 10.0773 4.16239   3
 -10   0   3 24.2685 3.84632   3
   9   0  -3 6.56868 2.95919   2
  -9   0   3 8.73286 2.81886   3
   8   0  -3 54.7997 4.64670   2
  -8   0   3 61.8601 4.76113   3
   7   0  -3 16.4163 1.88832   1
   7   0  -3 10.5240 1.40632   1
  -7   0   3 11.8845 3.18948   3
   6   0  -3 14.0844 1.56440   1
   6   0  -3 15.1908 2.60266   2
   6   0  -3 15.2810 1.28676   1
  -6   0   3 17.9943 2.73709   3
  -6   0   3 18.7167 1.79792   1
   5   0  -3 277.909 8.66429   2
   5   0  -3 256.765 7.83497   1
  -5   0   3 278.449 7.95095   1
  -5   0   3 271.352 8.79549   3
   4   0  -3 1447.09 40.1787   2
   4   0  -3 1423.53 39.6551   1
  -4   0   3 1481.31 39.9088   1
   3   0  -3 400.158 12.4598   2
   3   0  -3 420.073 12.3082   2
   3   0  -3 433.822 12.0352   1
  -3   0   3 419.734 12.5331   3
  -3   0   3 426.553 12.3832   2
  -3   0   3 468.159 12.7072   1
   2   0  -3 6131.25 167.584   2
   2   0  -3 5920.15 167.614   1
   2   0  -3 6346.29 167.736   3
  -2   0   3 6282.73 168.901   1
  -2   0   3 6469.09 168.183   3
  -2   0   3 5906.23 167.853   2
   1   0  -3 1556.56 43.9193   1
   1   0  -3 1656.34 44.1009   3
   1   0  -3 1621.84 43.9038   2
   1   0  -3 1627.56 44.0621   3
  -1   0   3 1641.57 44.1041   3
  -1   0   3 1597.11 44.1413   1
  -1   0   3 1551.57 43.8810   2
   0   0  -3 9678.48 262.102   3
   0   0  -3 9742.71 262.066   2
   0   0  -3 9562.81 262.550   3
   0   0  -3 9076.13 262.459   1
   0   0   3 9999.99 261.946   2
   0   0   3 9712.45 262.136   3
  -1   0  -3 11.0187 0.98252   3
  -1   0  -3 9.74696 0.88877   2
  -1   0  -3 10.9933 0.97568   1
   1   0   3 11.5279 0.91902   2
   1   0   3 11.1543 0.96518   3
  -2   0  -3 9072.59 259.305   1
  -2   0  -3 9975.89 260.974   2
   2   0   3 9738.85 259.633   2
   2   0   3 9632.32 259.189   3
   2   0   3 9263.37 259.685   1
  -3   0  -3 456.531 12.8962   2
  -3   0  -3 454.683 12.6211   1
  -3   0  -3 445.397 12.6988   3
   3   0   3 429.131 12.6434   3
   3   0   3 430.294 12.8617   2
   3   0   3 444.360 12.5961   1
   3   0   3 450.513 12.7119   2
  -4   0  -3 1297.77 36.0831   1
  -4   0  -3 1309.80 36.5499   2
  -4   0  -3 1344.13 36.3327   3
   4   0   3 1320.82 36.1027   1
   4   0   3 1287.97 36.3373   2
  -5   0  -3 781.183 21.7834   1
  -5   0  -3 773.090 22.5882   2
  -5   0  -3 776.961 22.0705   3
   5   0   3 788.222 21.7451   1
   5   0   3 771.475 22.2386   2
  -6   0  -3 2.53825 1.52868   2
  -6   0  -3 4.57624 1.37700   3
   6   0   3 5.82139 1.46107   1
   6   0   3 2.84540 1.28214   2
  -7   0  -3 10.3808 2.62994   3
  -7   0  -3 18.0256 3.08973   2
   7   0   3 12.3861 1.84894   1
   7   0   3 14.5114 2.62530   2
  -8   0  -3 116.635 5.97193   2
  -8   0  -3 118.814 5.59557   3
   8   0   3 117.001 5.56915   2
   8   0   3 117.178 4.46435   1
  -9   0  -3 4.61894 2.63707   2
  -9   0  -3 0.20108 2.15216   3
   9   0   3 1.78682 2.25298   2
   9   0   3 4.21021 1.51447   1
 -10   0  -3 1.87385 2.76458   3
  10   0   3 2.57176 2.51208   2
 -11   0  -3 3.19428 3.35961   3
  11   0   3 5.10574 3.32757   2
 -12   0  -3 -0.1828 4.26225   3
  12   0   3 25.1360 6.85285   2
  12  -1  -3 -0.4390 5.11056   2
 -12   1   3 -4.5551 4.72858   3
  11  -1  -3 20.2199 4.83094   2
 -11   1   3 20.0257 4.41970   3
  10  -1  -3 -0.6411 3.47092   2
 -10   1   3 2.60184 3.21375   3
   9  -1  -3 -5.8095 3.23679   2
  -9   1   3 -1.4211 3.26742   3
   8  -1  -3 33.5792 4.60333   2
  -8   1   3 30.5686 4.01478   3
   7  -1  -3 2.02562 1.74633   2
  -7   1   3 -1.3673 1.74219   3
   6  -1  -3 933.028 27.1339   2
  -6   1   3 959.290 27.2858   3
   5  -1  -3 336.185 10.4210   2
  -5   1   3 329.829 10.4808   3
   4  -1  -3 635.632 17.4632   1
   4  -1  -3 632.614 18.2404   2
  -4   1   3 632.670 17.4637   1
   3  -1  -3 4.04300 0.85014   1
   3  -1  -3 6.48565 1.39497   2
  -3   1   3 3.86533 0.80134   1
  -3   1   3 8.66223 1.49083   3
   2  -1  -3 2136.66 56.3067   1
   2  -1  -3 2029.30 56.6537   3
   2  -1  -3 2134.53 56.7009   2
  -2   1   3 2156.31 56.7064   3
  -2   1   3 1957.86 56.6313   2
  -2   1   3 1999.46 56.3247   1
   1  -1  -3 1667.42 44.3080   2
   1  -1  -3 1653.94 43.9873   3
   1  -1  -3 1592.05 43.7912   1
  -1   1   3 1620.54 43.8382   1
  -1   1   3 1593.79 43.9790   3
  -1   1   3 1505.79 44.0232   2
   0  -1  -3 5325.13 144.427   3
   0  -1  -3 5516.35 143.955   3
   0  -1  -3 5127.49 144.654   2
   0  -1  -3 5225.08 143.959   1
   0   1   3 5407.93 144.476   3
   0   1   3 5315.11 145.126   1
   0   1   3 5237.38 144.554   2
  -1  -1  -3 20.8559 1.22219   2
  -1  -1  -3 18.8920 1.01077   3
  -1  -1  -3 20.4620 1.11092   1
   1   1   3 21.2357 1.09844   1
   1   1   3 17.0593 1.18574   2
   1   1   3 20.0507 0.99819   3
  -2  -1  -3 148.608 4.50988   3
  -3  -1  -3 416.092 11.8759   1
  -3  -1  -3 428.125 12.0430   3
  -3  -1  -3 423.264 12.2373   2
   3   1   3 410.730 11.7737   3
   3   1   3 404.165 12.2079   2
   3   1   3 422.238 11.8709   1
  -4  -1  -3 767.630 21.9919   1
  -4  -1  -3 802.120 22.0473   3
  -4  -1  -3 801.326 22.5426   2
   4   1   3 775.642 22.0166   3
   4   1   3 803.271 22.0152   1
  -5  -1  -3 520.438 15.5165   2
  -5  -1  -3 519.111 15.0326   3
   5   1   3 521.486 14.8204   1
   5   1   3 523.441 15.2661   2
  -6  -1  -3 335.322 11.1081   3
  -6  -1  -3 347.789 11.0940   2
   6   1   3 349.018 10.2119   1
   6   1   3 349.530 10.8191   2
  -7  -1  -3 157.056 5.93488   3
  -7  -1  -3 154.884 6.36829   2
   7   1   3 154.424 6.00260   2
   7   1   3 156.655 5.24541   1
  -8  -1  -3 6.38947 2.29570   2
  -8  -1  -3 2.16689 1.82761   3
   8   1   3 7.13406 2.01112   2
  -9  -1  -3 22.4195 4.07167   3
  -9  -1  -3 24.9419 4.49207   2
   9   1   3 17.2113 2.64242   1
   9   1   3 18.4712 3.70097   2
 -10  -1  -3 -1.1250 2.60924   3
 -10  -1  -3 -0.4802 3.08410   2
  10   1   3 1.90937 2.57523   2
  11   1   3 5.27433 3.15420   2
 -12  -1  -3 -0.3204 4.57595   3
  12   1   3 -6.8834 3.57466   2
 -12   2   3 4.04583 4.93204   3
  11  -2  -3 56.0807 8.13857   2
 -11   2   3 40.5902 7.43531   3
  10  -2  -3 7.09914 3.80598   2
 -10   2   3 4.14733 3.24902   3
   9  -2  -3 35.6422 5.60175   2
  -9   2   3 23.5418 3.90679   3
   8  -2  -3 4.71132 2.48774   2
  -8   2   3 6.41722 2.52065   3
   7  -2  -3 33.4918 3.83026   2
  -7   2   3 37.1891 3.90429   3
   6  -2  -3 8.37860 1.83686   2
  -6   2   3 7.53571 1.82831   3
   5  -2  -3 13.8118 2.38753   2
  -5   2   3 9.37732 2.16488   3
   4  -2  -3 1183.34 34.4467   2
  -4   2   3 1224.00 33.7752   3
   3  -2  -3 43.2372 2.41506   2
   3  -2  -3 42.3048 1.48204   1
  -3   2   3 47.1575 2.41717   3
  -3   2   3 37.7172 1.56668   1
   2  -2  -3 47.7746 2.30986   3
   2  -2  -3 46.2263 2.43943   2
   2  -2  -3 50.3535 1.74654   1
  -2   2   3 45.9972 2.51344   2
  -2   2   3 57.6533 1.85491   1
  -2   2   3 50.2740 2.27883   3
   1  -2  -3 359.865 10.1399   3
   1  -2  -3 347.660 10.4176   2
   1  -2  -3 350.398 9.94204   1
  -1   2   3 361.093 10.1792   3
  -1   2   3 339.764 10.4107   2
  -1   2   3 364.758 9.97415   1
   0  -2  -3 1055.33 29.5681   3
   0  -2  -3 1037.82 29.6436   1
   0   2   3 1237.51 30.0112   2
   0   2   3 1043.43 29.5654   3
   0   2   3 1032.78 29.6935   1
  -1  -2  -3 2.67291 0.54889   3
  -1  -2  -3 1.34544 0.45073   1
   1   2   3 3.34507 0.69753   1
  -2  -2  -3 5010.99 130.747   2
  -2  -2  -3 4840.99 130.248   3
  -2  -2  -3 4763.70 130.423   1
   2   2   3 4617.57 130.627   2
   2   2   3 4894.61 130.206   3
   2   2   3 4694.38 130.963   1
  -3  -2  -3 305.947 9.23570   1
  -3  -2  -3 317.576 9.66287   2
  -3  -2  -3 319.666 8.95935   3
   3   2   3 323.272 8.95307   3
   3   2   3 321.778 9.24961   1
  -4  -2  -3 123.826 4.09038   3
   4   2   3 113.051 4.06883   3
   4   2   3 145.603 4.28649   1
  -5  -2  -3 2117.12 58.4246   2
  -5  -2  -3 2153.83 57.7101   3
   5   2   3 2009.22 57.6356   3
   5   2   3 2141.97 57.7471   1
  -6  -2  -3 298.219 9.24815   3
  -6  -2  -3 312.906 10.0692   2
   6   2   3 296.569 9.62963   2
   6   2   3 296.295 9.16085   1
  -7  -2  -3 34.0144 3.52733   2
  -7  -2  -3 32.6269 2.94562   3
   7   2   3 41.4968 3.06205   2
   7   2   3 37.1571 2.37709   1
  -8  -2  -3 14.7915 3.62775   2
  -8  -2  -3 18.3787 3.18366   3
   8   2   3 15.3537 3.00981   2
   8   2   3 17.5220 2.32166   1
  -9  -2  -3 272.751 9.46484   3
  -9  -2  -3 263.915 10.2609   2
   9   2   3 257.201 8.52032   1
   9   2   3 261.379 9.63580   2
 -10  -2  -3 1.81472 2.98768   2
 -10  -2  -3 1.10071 2.79115   3
  10   2   3 1.11253 2.53894   2
  10   2   3 -0.3928 1.65874   1
 -11  -2  -3 -3.8738 3.24774   3
 -11  -2  -3 -0.8714 3.72769   2
  11   2   3 -1.6246 2.90245   2
 -12  -2  -3 -1.8863 4.15426   3
  12   2   3 -4.1710 3.67538   2
  11  -3  -3 -0.5655 4.64880   2
 -11   3   3 5.69313 4.27374   3
  10  -3  -3 -0.5085 3.87333   2
 -10   3   3 -1.8132 3.45057   3
   9  -3  -3 9.18228 3.48850   2
  -9   3   3 21.8439 5.45220   3
   8  -3  -3 26.3578 4.84107   2
  -8   3   3 22.0602 4.46757   3
   7  -3  -3 4.97847 2.26275   2
  -7   3   3 2.68401 2.08535   3
   6  -3  -3 92.4313 4.83715   2
  -6   3   3 91.2490 4.68977   3
   5  -3  -3 23.1562 2.85890   2
  -5   3   3 19.0163 2.59007   3
   4  -3  -3 94.1270 4.18934   2
  -4   3   3 94.9803 3.97524   3
   3  -3  -3 2.23274 1.20522   2
   3  -3  -3 3.24515 0.67021   1
  -3   3   3 2.93219 0.52630   1
  -3   3   3 2.79070 1.06084   3
  -3   3   3 3.99140 0.99744   1
   2  -3  -3 3897.25 104.833   1
   2  -3  -3 3752.80 105.574   2
   2  -3  -3 3867.30 105.558   3
  -2   3   3 3882.62 104.855   1
  -2   3   3 3923.11 105.279   3
   1  -3  -3 228.430 7.39868   2
   1  -3  -3 229.444 6.70962   1
   1  -3  -3 231.593 6.88832   3
  -1   3   3 232.763 6.88246   3
  -1   3   3 231.272 7.67936   2
  -1   3   3 236.196 6.72960   1
   0  -3  -3 894.737 24.9871   1
   0  -3  -3 887.861 25.4156   2
   0  -3  -3 932.778 24.8619   3
   0   3   3 947.171 24.8755   3
   0   3   3 916.222 25.0080   1
   0   3   3 856.569 25.3387   2
  -1  -3  -3 5081.10 138.275   1
  -1  -3  -3 5113.77 138.596   2
   1   3   3 5086.12 138.837   1
  -2  -3  -3 110.618 4.11049   2
   2   3   3 110.423 3.68052   1
  -3  -3  -3 1995.23 55.4465   2
   3   3   3 2019.54 55.0194   1
  -4  -3  -3 1025.90 28.1817   3
   4   3   3 1020.77 28.1588   3
   4   3   3 1030.77 28.5638   1
  -5  -3  -3 24.7524 2.62424   2
  -5  -3  -3 22.7150 1.85685   3
   5   3   3 20.5225 1.92662   3
  -6  -3  -3 142.134 5.15085   3
  -6  -3  -3 146.641 5.98882   2
   6   3   3 152.396 5.13392   1
  -7  -3  -3 378.928 12.4106   2
   7   3   3 370.905 11.3114   1
   7   3   3 376.625 11.9865   2
  -8  -3  -3 62.1050 4.60465   2
  -8  -3  -3 51.2128 3.87880   3
   8   3   3 52.8141 3.17472   1
   8   3   3 58.6653 3.99313   2
  -9  -3  -3 129.987 6.21735   3
  -9  -3  -3 127.571 6.91711   2
   9   3   3 130.106 5.21387   1
   9   3   3 133.191 6.29789   2
 -10  -3  -3 -1.8010 3.03046   2
 -10  -3  -3 -4.1205 2.71892   3
  10   3   3 2.10249 2.69222   2
  10   3   3 1.21605 1.84185   1
 -11  -3  -3 1.85313 3.36098   3
 -11  -3  -3 0.69508 3.70717   2
  11   3   3 3.07642 3.05901   2
 -12  -3  -3 2.95671 4.62730   2
  12   3   3 0.43739 3.89381   2
  11  -4  -3 3.76443 4.54799   2
 -11   4   3 5.88620 4.83098   3
  10  -4  -3 2.31828 3.88132   2
 -10   4   3 5.73189 3.98079   3
   9  -4  -3 -0.6294 3.04249   2
  -9   4   3 -3.2195 2.95484   3
   8  -4  -3 20.2851 4.78706   2
  -8   4   3 19.5807 4.35962   3
   7  -4  -3 18.0387 3.93871   2
  -7   4   3 25.8394 4.13914   3
   6  -4  -3 68.9857 4.59654   2
  -6   4   3 73.2780 4.43679   3
   5  -4  -3 2.08194 1.64651   2
  -5   4   3 0.29522 1.46617   3
   4  -4  -3 59.7742 3.70935   2
  -4   4   3 57.2702 3.19182   3
   3  -4  -3 1236.50 34.5525   2
   3  -4  -3 1219.40 33.4036   1
  -3   4   3 1234.20 33.5063   1
  -3   4   3 1222.68 33.4253   1
  -3   4   3 1195.98 34.6345   3
   2  -4  -3 127.272 3.94095   1
   2  -4  -3 124.509 4.92894   2
  -2   4   3 129.219 4.45798   3
  -2   4   3 124.650 3.93937   1
  -2   4   3 128.131 4.16137   1
   1  -4  -3 1404.82 38.9771   1
   1  -4  -3 1408.35 39.0885   3
   1  -4  -3 1404.82 39.7354   2
  -1   4   3 1469.66 39.1194   3
  -1   4   3 1451.96 39.0104   1
  -1   4   3 1393.72 39.1158   1
   0  -4  -3 164.544 4.96038   3
   0  -4  -3 170.782 5.70511   2
   0  -4  -3 152.657 5.04230   1
   0   4   3 170.138 5.12488   1
   0   4   3 160.686 5.32577   1
   0   4   3 166.202 4.92177   3
  -1  -4  -3 653.467 17.6340   2
  -1  -4  -3 592.969 16.6317   3
   1   4   3 581.821 16.6184   3
   1   4   3 598.680 17.1126   1
  -2  -4  -3 1.62118 1.07805   2
   2   4   3 0.73751 0.64751   1
  -3  -4  -3 499.378 15.1744   2
   3   4   3 523.480 14.7465   1
  -4  -4  -3 76.1876 2.70339   3
  -4  -4  -3 73.2470 3.85136   2
   4   4   3 78.8676 2.67399   3
   4   4   3 86.5142 3.22178   1
   4   4   3 82.3976 2.68638   3
  -5  -4  -3 192.855 7.12205   2
  -5  -4  -3 196.428 6.02785   3
   5   4   3 197.225 6.38974   1
   5   4   3 190.975 5.97504   3
  -6  -4  -3 520.571 16.3542   2
  -6  -4  -3 534.137 15.2871   3
   6   4   3 537.649 15.5553   1
  -7  -4  -3 18.6149 3.54355   2
  -7  -4  -3 24.1380 2.82680   3
   7   4   3 24.6373 2.36818   1
  -8  -4  -3 94.2812 4.71847   3
  -8  -4  -3 94.6218 5.84046   2
   8   4   3 96.5804 5.20025   2
   8   4   3 104.238 4.51033   1
  -9  -4  -3 197.396 7.66097   3
  -9  -4  -3 213.288 9.46280   2
   9   4   3 197.886 7.14965   1
   9   4   3 188.655 8.98884   2
 -10  -4  -3 9.26744 3.02780   3
 -10  -4  -3 10.5748 3.45003   2
  10   4   3 10.8389 2.91166   2
  10   4   3 20.2707 3.36167   1
 -11  -4  -3 -6.1814 3.65552   2
  11   4   3 -1.8364 3.12291   2
 -12  -4  -3 11.4984 4.94640   2
  12   4   3 2.30939 3.77213   2
  11  -5  -3 -0.2186 4.85874   2
 -11   5   3 6.97017 4.95152   3
  10  -5  -3 1.17137 4.04562   2
 -10   5   3 -5.1650 3.69296   3
   9  -5  -3 3.84981 3.41405   2
  -9   5   3 4.83830 3.29410   3
   8  -5  -3 32.1643 5.44818   2
  -8   5   3 33.3476 5.33534   3
   7  -5  -3 39.0257 4.70114   2
  -7   5   3 40.7378 4.64897   3
   6  -5  -3 77.8994 5.15724   2
  -6   5   3 83.9588 4.85665   3
   5  -5  -3 368.332 12.2794   2
  -5   5   3 373.378 11.9164   3
   4  -5  -3 33.1720 3.42821   2
  -4   5   3 34.9027 2.86502   3
  -4   5   3 27.0489 1.73725   1
  -4   5   3 31.1480 1.64088   1
   3  -5  -3 222.441 7.76392   2
  -3   5   3 208.488 6.54022   1
  -3   5   3 221.763 7.13238   3
  -3   5   3 208.647 6.37313   1
   2  -5  -3 24.3902 1.54234   1
   2  -5  -3 20.6589 2.79398   2
  -2   5   3 27.5197 2.03127   1
  -2   5   3 25.6347 2.08838   3
  -2   5   3 24.3855 1.48402   1
   1  -5  -3 2257.53 65.4345   3
  -1   5   3 2474.94 65.5123   3
  -1   5   3 2449.80 65.4281   1
   0  -5  -3 2.25015 0.86884   3
   0   5   3 2.63251 0.77010   3
   0   5   3 2.37249 0.70352   1
  -1  -5  -3 2075.65 58.9199   2
  -1  -5  -3 2160.64 57.9741   3
   1   5   3 2138.20 57.9431   3
   1   5   3 2145.23 58.4312   1
  -3  -5  -3 1820.44 49.2639   2
   3   5   3 1706.60 48.6424   1
  -4  -5  -3 331.139 10.6806   2
   4   5   3 328.461 10.0583   1
  -5  -5  -3 1293.85 35.5851   3
  -5  -5  -3 1269.24 36.5033   2
   5   5   3 1318.22 35.8766   1
   5   5   3 1239.75 35.1062   3
  -6  -5  -3 137.415 4.76238   3
  -6  -5  -3 130.176 5.99863   2
   6   5   3 123.243 4.70896   3
   6   5   3 133.706 4.69508   3
   6   5   3 136.501 5.03414   1
  -7  -5  -3 566.910 17.7759   2
  -7  -5  -3 565.258 16.4609   3
   7   5   3 561.150 16.7514   1
  -8  -5  -3 303.748 11.3014   2
  -8  -5  -3 302.998 9.89357   3
   8   5   3 305.442 9.90403   1
   8   5   3 303.353 10.6611   2
  -9  -5  -3 1.30835 3.00251   2
  -9  -5  -3 2.15949 2.36811   3
   9   5   3 2.31120 1.77119   1
   9   5   3 2.70892 2.42514   2
 -10  -5  -3 -1.1032 3.25014   2
  10   5   3 -0.8041 1.95406   1
  10   5   3 -0.9955 2.73948   2
 -11  -5  -3 9.34418 4.17322   2
  11   5   3 9.21102 3.56854   2
 -12  -5  -3 54.2041 9.22317   2
  12   5   3 44.3147 7.53113   2
  10  -6  -3 7.08820 4.63342   2
 -10   6   3 11.1437 4.49030   3
   9  -6  -3 14.5080 4.38240   2
  -9   6   3 14.6768 4.06563   3
   8  -6  -3 -1.6227 3.07786   2
  -8   6   3 1.43906 2.92770   3
   7  -6  -3 25.1166 4.90336   2
  -7   6   3 25.8821 4.45236   3
   6  -6  -3 3.07880 2.57235   2
  -6   6   3 1.37843 2.06811   3
   5  -6  -3 129.817 6.40894   2
  -5   6   3 132.607 5.85331   3
   4  -6  -3 7.97960 2.26948   2
  -4   6   3 9.00493 1.93666   1
  -4   6   3 6.66745 0.92250   1
  -4   6   3 11.2441 2.56428   3
   3  -6  -3 1385.54 40.3319   2
  -3   6   3 1464.92 39.7690   3
  -3   6   3 1405.54 39.0286   1
   2  -6  -3 14.7907 2.97064   2
  -2   6   3 12.4371 2.47885   3
  -2   6   3 11.4429 1.39703   1
   1  -6  -3 779.230 23.8980   2
  -1   6   3 837.293 23.0778   3
  -1   6   3 838.400 23.0122   1
   0  -6  -3 44.5598 2.44680   3
   0  -6  -3 39.7709 3.26106   2
   0   6   3 42.0426 2.16686   3
  -1  -6  -3 4183.37 117.504   2
  -1  -6  -3 4291.87 116.468   3
   1   6   3 4388.73 116.968   1
  -2  -6  -3 11.7164 1.41373   3
  -2  -6  -3 8.72669 1.77761   2
   2   6   3 9.42673 1.38689   3
   2   6   3 6.41783 1.15688   1
   2   6   3 11.8037 1.15372   3
  -3  -6  -3 1738.40 48.6330   2
   3   6   3 1730.64 48.0701   1
  -4  -6  -3 30.1584 3.31573   2
   4   6   3 36.0766 2.32351   1
  -5  -6  -3 203.501 7.77071   2
   5   6   3 201.488 6.86595   1
   5   6   3 195.536 6.09408   3
  -6  -6  -3 571.288 17.7935   2
  -6  -6  -3 551.776 16.1869   3
   6   6   3 564.489 16.1857   3
   6   6   3 578.244 16.7516   3
   6   6   3 574.349 16.9432   1
  -7  -6  -3 13.4557 2.91504   3
  -7  -6  -3 15.9203 3.82256   2
   7   6   3 15.0283 2.61701   1
   7   6   3 12.8853 2.79185   3
  -8  -6  -3 98.5660 6.26778   2
   8   6   3 100.113 4.88629   1
  -9  -6  -3 3.45525 3.16926   2
   9   6   3 6.25477 2.62081   2
   9   6   3 8.09898 2.12067   1
 -10  -6  -3 26.4317 6.00362   2
  10   6   3 19.7975 5.11773   2
  10   6   3 23.7981 4.02385   1
 -11  -6  -3 5.38407 4.16335   2
  11   6   3 -3.6498 2.56345   1
  11   6   3 -0.1103 3.44513   2
  10  -7  -3 5.56623 4.94509   2
 -10   7   3 0.95849 4.57850   3
   9  -7  -3 3.32710 4.20612   2
  -9   7   3 7.54824 4.05147   3
   8  -7  -3 16.0536 4.11781   2
  -8   7   3 25.0489 5.91894   3
   7  -7  -3 29.5522 5.78475   2
  -7   7   3 17.2970 3.75527   3
   6  -7  -3 52.5914 5.68610   2
  -6   7   3 51.9682 4.87933   3
   5  -7  -3 207.652 8.58611   2
  -5   7   3 180.379 6.03810   1
  -5   7   3 206.705 7.83252   3
  -4   7   3 29.5615 3.65273   3
  -4   7   3 29.4996 2.10339   1
   3  -7  -3 343.968 11.7413   2
  -3   7   3 336.526 10.7903   3
  -3   7   3 333.864 10.0411   1
   2  -7  -3 71.1592 4.59817   2
  -2   7   3 72.5533 3.64443   3
   1  -7  -3 1449.27 42.9492   2
  -1   7   3 1550.82 42.0106   1
  -1   7   3 1543.52 42.0348   3
   0  -7  -3 22.3507 3.25766   2
   0   7   3 26.2441 2.13464   3
   0   7   3 15.8072 2.06201   1
  -1  -7  -3 13.4454 2.19981   3
  -1  -7  -3 11.3541 2.09474   2
   1   7   3 17.5381 1.76702   3
   1   7   3 11.6002 1.77130   1
  -2  -7  -3 59.2560 2.79080   3
  -2  -7  -3 64.4749 3.99811   2
   2   7   3 68.4030 3.11915   1
  -3  -7  -3 266.991 9.37403   2
   3   7   3 278.293 8.66800   1
   3   7   3 255.407 7.75967   3
  -4  -7  -3 38.1705 3.72043   2
   4   7   3 35.3899 2.59309   1
   4   7   3 32.4782 1.97653   3
  -5  -7  -3 232.146 8.75198   2
   5   7   3 218.681 7.59668   1
   5   7   3 219.935 6.98559   3
  -6  -7  -3 90.7999 5.75535   2
   6   7   3 95.1436 3.86632   3
   6   7   3 97.1697 4.53045   1
  -7  -7  -3 18.9619 3.35704   2
   7   7   3 21.0976 2.93577   1
   8   7   3 198.513 7.57338   1
  -9  -7  -3 4.84386 3.52412   2
   9   7   3 5.91890 2.97213   2
 -10  -7  -3 28.0535 6.75203   2
  10   7   3 29.3827 5.97959   2
  10   7   3 27.4801 4.57728   1
 -11  -7  -3 3.37644 4.62430   2
  11   7   3 4.89551 3.94447   2
  11   7   3 -2.9206 2.92391   1
   9  -8  -3 3.71581 4.76179   2
  -9   8   3 1.54637 4.37675   3
   8  -8  -3 46.1294 8.20615   2
  -8   8   3 42.9610 6.91274   3
   7  -8  -3 9.82762 3.91688   2
  -7   8   3 11.8958 3.22303   3
  -6   8   3 86.8596 6.27401   3
   5  -8  -3 7.45958 3.06859   2
  -5   8   3 7.09699 2.39916   3
   4  -8  -3 37.1447 5.03483   2
  -4   8   3 43.8731 4.18312   3
  -4   8   3 32.2295 3.40164   1
   3  -8  -3 148.193 7.34854   2
  -3   8   3 159.674 5.45989   1
  -3   8   3 165.412 6.44755   3
   2  -8  -3 58.3809 4.88131   2
  -2   8   3 58.0345 3.59605   3
  -2   8   3 54.2773 3.06848   1
   1  -8  -3 172.515 7.61431   2
  -1   8   3 180.057 6.19293   1
  -1   8   3 185.674 6.35582   3
   0  -8  -3 2.51488 2.04957   2
   0   8   3 0.94297 1.02215   1
   0   8   3 0.03055 1.27895   3
  -1  -8  -3 1611.97 45.7820   2
   1   8   3 1620.85 45.0235   1
   1   8   3 1609.79 44.4909   3
  -2  -8  -3 191.588 6.68694   3
  -2  -8  -3 218.842 8.16773   2
   2   8   3 214.431 7.18899   1
   2   8   3 200.953 6.42579   3
  -3  -8  -3 175.994 7.29889   2
   3   8   3 168.679 5.65471   3
   3   8   3 175.484 6.30883   1
   3   8   3 169.581 5.49114   3
  -4  -8  -3 53.4401 4.60412   2
   4   8   3 54.2862 3.29981   1
  -5  -8  -3 95.5678 5.81606   2
   5   8   3 98.8731 4.66436   3
   5   8   3 92.5510 4.56417   1
  -6  -8  -3 252.376 10.1370   2
   6   8   3 247.968 8.74110   1
  -7  -8  -3 45.4794 5.56606   2
   7   8   3 46.2634 3.82877   1
  -8  -8  -3 -2.1482 3.00743   2
   8   8   3 3.13436 2.04689   1
  -9  -8  -3 6.59550 4.04129   2
   9   8   3 0.46335 2.28666   1
   9   8   3 4.38141 3.35450   2
 -10  -8  -3 161.125 10.3919   2
  10   8   3 152.481 7.49679   1
  10   8   3 147.606 8.78989   2
   9  -9  -3 -1.3418 5.29757   2
  -9   9   3 10.8361 5.11415   3
   8  -9  -3 1.62907 4.77343   2
  -8   9   3 -0.0616 3.87577   3
   7  -9  -3 0.30229 4.04446   2
  -7   9   3 -8.9798 3.42693   3
   6  -9  -3 3.41580 3.55515   2
  -6   9   3 1.71760 3.07111   3
   5  -9  -3 101.609 10.3667   2
  -5   9   3 100.516 6.35445   3
   4  -9  -3 3.16880 3.04140   2
  -4   9   3 1.01719 2.49013   3
   3  -9  -3 70.3525 5.93906   2
  -3   9   3 73.6164 3.58352   1
  -3   9   3 76.1135 4.83966   3
   2  -9  -3 2.23007 3.06593   2
  -2   9   3 -2.4761 1.25506   1
  -2   9   3 2.19708 1.84852   3
   1  -9  -3 339.847 12.2693   2
  -1   9   3 339.632 10.7964   3
  -1   9   3 342.708 10.7298   1
   0  -9  -3 449.579 14.8881   2
   0   9   3 457.147 13.6191   1
   0   9   3 425.225 13.7754   3
  -1  -9  -3 10.8271 2.83185   2
   1   9   3 10.7084 2.39170   1
   1   9   3 13.4584 2.63538   3
  -2  -9  -3 156.355 7.28163   2
   2   9   3 148.175 5.36006   3
   2   9   3 147.493 5.85542   1
  -3  -9  -3 125.812 6.55950   2
   3   9   3 119.318 4.55694   3
   3   9   3 121.992 5.26125   1
  -4  -9  -3 696.610 21.4448   2
   4   9   3 679.915 20.5226   1
  -5  -9  -3 4.36580 2.76668   2
   5   9   3 0.92403 1.58028   1
  -6  -9  -3 24.5638 5.63971   2
   6   9   3 25.3409 4.43960   1
  -7  -9  -3 -0.4094 3.01159   2
   7   9   3 2.39410 2.09345   1
  -8  -9  -3 34.5490 6.25304   2
   8   9   3 38.2131 4.38874   1
  -9  -9  -3 41.1594 7.27713   2
   9   9   3 26.3866 4.77935   1
 -10  -9  -3 36.6797 8.60347   2
  10   9   3 35.6566 7.39952   2
  10   9   3 44.1840 5.51275   1
   8 -10  -3 3.67370 5.33120   2
  -8  10   3 3.27487 4.70902   3
   7 -10  -3 -2.6587 4.62713   2
  -7  10   3 3.79957 4.21037   3
   6 -10  -3 4.54331 4.19725   2
  -6  10   3 2.11398 3.65308   3
   5 -10  -3 -1.4701 3.65484   2
  -5  10   3 2.77437 3.62532   3
  -4  10   3 8.74212 2.94794   3
  -4  10   3 6.56750 1.92610   1
   3 -10  -3 6.85135 3.62679   2
  -3  10   3 8.57190 2.62142   3
  -3  10   3 8.38975 1.80139   1
   2 -10  -3 367.268 13.8591   2
  -2  10   3 360.076 11.6480   1
  -2  10   3 365.933 12.0711   3
   1 -10  -3 66.9105 6.31106   2
  -1  10   3 74.3684 4.53468   3
  -1  10   3 72.5211 4.07383   1
   0 -10  -3 114.340 6.94006   2
   0  10   3 107.200 4.98727   1
   0  10   3 102.524 4.88212   3
  -1 -10  -3 -2.8085 2.53987   2
   1  10   3 1.66995 1.55805   1
  -2 -10  -3 575.264 18.5076   2
   2  10   3 579.048 17.3281   1
   2  10   3 548.007 16.5030   3
  -3 -10  -3 6.96173 2.95877   2
   3  10   3 6.38033 1.89363   1
  -4 -10  -3 9.36914 3.20928   2
  -5 -10  -3 5.63183 3.28798   2
   5  10   3 7.80931 2.03616   1
  -6 -10  -3 146.944 8.64544   2
   6  10   3 140.623 6.51359   1
  -7 -10  -3 11.6724 4.03398   2
   7  10   3 13.4589 2.64701   1
  -8 -10  -3 7.50971 4.06689   2
   8  10   3 6.48577 2.75773   1
  -9 -10  -3 25.0107 5.16946   2
   9  10   3 21.8185 5.13225   1
   7 -11  -3 23.3927 6.06058   2
  -7  11   3 26.9406 5.47075   3
   6 -11  -3 3.68839 4.60694   2
  -6  11   3 8.57160 4.24619   3
   5 -11  -3 29.4967 7.99404   2
  -5  11   3 18.3930 4.08916   3
   4 -11  -3 54.0327 8.38079   2
   3 -11  -3 43.1995 7.47759   2
  -3  11   3 35.9191 5.31260   3
  -3  11   3 33.7738 3.71428   1
   2 -11  -3 30.2397 8.30296   2
  -2  11   3 24.8038 3.64037   1
  -2  11   3 29.7689 4.61792   3
   1 -11  -3 5.15597 3.97032   2
  -1  11   3 5.13519 1.89002   1
  -1  11   3 6.02117 2.50898   3
   0 -11  -3 584.475 19.1132   2
   0  11   3 574.465 17.5703   1
   0  11   3 554.898 17.2310   3
  -1 -11  -3 -4.4297 2.93525   2
   1  11   3 2.09813 2.62842   3
   1  11   3 2.77813 1.79895   1
  -2 -11  -3 98.4476 7.18746   2
   2  11   3 99.8327 5.48132   1
  -3 -11  -3 21.8168 6.00922   2
   3  11   3 11.0880 2.34606   1
   4  11   3 554.351 17.4475   1
  -5 -11  -3 2.46787 3.79515   2
   5  11   3 0.90309 2.13659   1
  -6 -11  -3 57.1421 7.78064   2
   6  11   3 54.8928 4.96725   1
  -7 -11  -3 -3.1537 4.20246   2
   7  11   3 -0.7794 2.70116   1
  -8 -11  -3 52.7416 7.80843   2
   8  11   3 47.0396 6.01068   1
  -6  12   3 5.07677 5.07756   3
   5 -12  -3 15.6535 5.83974   2
  -5  12   3 28.8016 7.66025   3
   4 -12  -3 42.9446 9.23110   2
  -4  12   3 33.1613 7.03602   3
   3 -12  -3 9.41995 5.10785   2
  -3  12   3 5.00031 2.41296   1
  -3  12   3 0.43251 4.07638   3
   2 -12  -3 289.034 13.4904   2
  -2  12   3 287.342 10.2436   1
  -2  12   3 288.222 11.1061   3
   1 -12  -3 4.03081 4.32065   2
  -1  12   3 9.60798 3.10856   3
  -1  12   3 4.39855 2.51509   1
   0 -12  -3 119.096 8.63450   2
   0  12   3 116.012 6.07198   1
  -1 -12  -3 4.16605 3.98610   2
   1  12   3 -1.0710 2.06474   1
  -2 -12  -3 525.779 18.4559   2
   2  12   3 534.793 16.9813   1
  -3 -12  -3 8.87931 4.28105   2
   3  12   3 8.48155 2.52827   1
  -4 -12  -3 5.64185 4.15922   2
   4  12   3 4.09454 2.50657   1
  -5 -12  -3 7.71846 4.71908   2
   5  12   3 13.2495 2.79282   1
  -6 -12  -3 31.7653 8.64231   2
   6  12   3 49.5014 5.55321   1
  -7 -12  -3 42.8665 8.80099   2
   7  12   3 35.2684 5.92880   1
   4 -13  -3 91.4243 12.0543   2
  -4  13   3 92.5454 9.34299   3
   3 -13  -3 59.3964 10.3441   2
  -3  13   3 38.1856 7.89727   3
   2 -13  -3 27.8158 6.03400   2
  -2  13   3 30.3059 4.95692   1
   1 -13  -3 11.3033 5.09860   2
  -1  13   3 5.66599 2.76762   1
   0 -13  -3 125.583 10.1523   2
   0  13   3 137.788 7.07164   1
  -1 -13  -3 5.32935 5.04466   2
   1  13   3 4.72871 2.58326   1
  -2 -13  -3 -2.6484 4.77163   2
   2  13   3 2.03126 2.55546   1
  -3 -13  -3 -3.0883 4.73836   2
   3  13   3 -0.5097 2.61594   1
  -4 -13  -3 68.7628 9.41914   2
   4  13   3 61.6340 5.90330   1
  -5 -13  -3 13.3825 5.71835   2
   5  13   3 6.14289 2.92745   1
   1 -14  -3 -7.4981 5.82961   2
  -1  14   3 3.24007 3.16724   1
   0 -14  -3 1.50560 6.00294   2
   0  14   3 3.94461 3.10893   1
  -1 -14  -3 4.22205 5.63722   2
   1  14   3 2.46284 3.01880   1
  -2 -14  -3 104.482 10.8419   2
   2  14   3 94.0011 7.09285   1
   4  12  -4 3.00729 3.35272   1
  -4 -12   4 -2.2407 3.92445   1
   3  12  -4 37.5312 7.86576   3
   3  12  -4 57.5434 6.30994   1
  -3 -12   4 51.7610 7.33739   1
   2  12  -4 8.36465 2.97038   1
   2  12  -4 12.0220 4.23108   3
  -2 -12   4 2.64532 3.78919   1
   1  12  -4 -11.271 4.02538   3
   1  12  -4 -3.0516 2.82310   1
  -1 -12   4 -2.0234 3.60778   1
   0  12  -4 14.1829 3.29231   1
   0  12  -4 11.4429 4.16163   3
   0 -12   4 7.70637 3.74273   1
  -1  12  -4 -0.1724 4.11277   3
  -1  12  -4 0.12515 2.77480   1
   1 -12   4 0.45734 3.38930   1
  -2  12  -4 123.084 7.35475   1
  -2  12  -4 131.635 9.71461   3
   2 -12   4 113.084 8.13723   1
  -3  12  -4 -3.6188 3.04711   1
  -3  12  -4 4.23086 4.77876   3
   3 -12   4 4.53345 3.72027   1
  -4  12  -4 5.14027 3.31716   1
  -4  12  -4 10.2951 4.89115   3
   4 -12   4 2.81121 3.89798   1
   6  11  -4 1.51241 3.26356   1
  -6 -11   4 -2.7000 4.05398   1
   5  11  -4 29.9282 7.61968   3
   5  11  -4 17.8842 3.54056   1
  -5 -11   4 25.0124 6.51107   1
   4  11  -4 33.6978 5.06528   1
   4  11  -4 21.2164 4.43769   3
  -4 -11   4 26.2317 6.21007   1
   3  11  -4 40.0558 5.18559   1
   3  11  -4 25.1010 6.27207   3
  -3 -11   4 34.9143 6.08182   1
   2  11  -4 44.1589 6.49469   3
   2  11  -4 44.9688 4.98879   1
  -2 -11   4 41.7032 5.85477   1
   1  11  -4 1.91271 3.36344   3
   1  11  -4 3.47432 2.51464   1
  -1 -11   4 -1.2876 2.86475   1
   0  11  -4 109.680 6.13293   1
   0  11  -4 85.3980 7.45421   3
   0 -11   4 105.191 6.98312   1
  -1  11  -4 4.95120 2.45271   1
  -1  11  -4 3.78746 3.32800   3
   1 -11   4 5.17823 2.97566   1
  -2  11  -4 10.6542 3.73035   3
  -2  11  -4 3.30759 2.42794   1
   2 -11   4 2.13548 2.95117   1
  -3  11  -4 -3.5956 3.83245   3
  -3  11  -4 1.19428 2.62184   1
   3 -11   4 5.81716 3.14551   1
  -4  11  -4 107.705 6.35526   1
  -4  11  -4 91.7311 8.50928   3
   4 -11   4 114.952 7.20102   1
  -5  11  -4 9.43535 4.81320   3
  -6  11  -4 0.75512 5.02551   3
   7  10  -4 -2.6453 3.10620   1
   7  10  -4 -6.1387 6.66672   3
  -7 -10   4 7.88585 4.01879   1
   6  10  -4 28.4108 5.21089   1
   6  10  -4 34.8002 7.28906   3
  -6 -10   4 34.5911 6.75928   1
   5  10  -4 54.7776 5.37402   1
   5  10  -4 47.5620 7.66878   3
  -5 -10   4 42.2743 6.28767   1
   4  10  -4 5.97646 2.45719   1
   4  10  -4 2.75230 3.45883   3
  -4 -10   4 2.12228 2.94945   1
   3  10  -4 22.3560 5.60665   3
   3  10  -4 23.3634 4.10749   1
  -3 -10   4 16.9796 3.21216   1
   2  10  -4 134.075 6.35338   1
   2  10  -4 126.732 7.19228   3
  -2 -10   4 133.676 6.92503   1
   1  10  -4 7.56487 2.87289   3
  -1 -10   4 2.08587 2.41805   1
   0  10  -4 139.728 7.29098   3
   0 -10   4 125.736 6.86240   1
  -1  10  -4 1.50833 4.37521   3
   1 -10   4 -1.5549 2.55213   1
  -2  10  -4 544.902 17.9038   3
  -3  10  -4 0.93920 3.11628   3
   3 -10   4 2.82198 2.76544   1
  -4  10  -4 75.5529 7.42805   3
   4 -10   4 49.0468 5.62216   1
  -5  10  -4 2.32250 3.66720   3
   5 -10   4 -4.1555 2.85191   1
  -6  10  -4 128.183 9.54708   3
  -7  10  -4 13.9500 4.76435   3
   8   9  -4 15.7142 4.76962   3
   8   9  -4 12.3690 3.48710   1
  -8  -9   4 29.2570 7.25680   1
   7   9  -4 5.28922 4.01616   3
   7   9  -4 4.75211 2.74394   1
  -7  -9   4 0.17351 3.59758   1
   6   9  -4 -1.5354 3.95954   3
   6   9  -4 1.50540 2.39775   1
  -6  -9   4 5.00126 3.14861   1
   5   9  -4 19.9596 3.73569   3
   5   9  -4 24.1493 4.12077   1
  -5  -9   4 20.7375 5.05347   1
   4   9  -4 293.561 10.9817   3
   4   9  -4 292.296 10.4039   1
  -4  -9   4 279.573 10.9515   1
   3   9  -4 164.557 6.85770   1
   3   9  -4 150.947 7.32928   3
  -3  -9   4 149.562 7.31465   1
   2   9  -4 119.983 6.62540   3
   1   9  -4 4.52168 2.41413   3
  -1  -9   4 5.49715 2.22434   1
   0   9  -4 486.014 15.5260   3
   0  -9   4 477.272 15.4598   1
  -1   9  -4 -2.1141 2.40085   3
   1  -9   4 0.59981 1.93858   1
  -2   9  -4 99.9259 5.94604   3
   2  -9   4 103.010 5.67997   1
  -3   9  -4 7.32235 2.95824   3
   3  -9   4 4.68894 3.04535   2
   3  -9   4 -0.1880 2.18878   1
  -4   9  -4 236.107 10.1851   3
   4  -9   4 238.654 9.48580   2
   4  -9   4 225.883 8.87477   1
  -5   9  -4 68.6008 6.55253   3
   5  -9   4 62.8216 6.13227   2
   5  -9   4 60.6873 5.06584   1
  -6   9  -4 -1.7171 3.42774   3
   6  -9   4 0.22003 3.65017   1
   6  -9   4 -0.7494 4.18642   2
  -7   9  -4 -0.6627 3.63847   3
  -8   9  -4 10.0036 4.57544   3
   9   8  -4 3.73443 3.27609   1
   9   8  -4 -0.3298 4.55384   3
  -9  -8   4 -6.3438 4.24352   1
   8   8  -4 -0.8189 2.69969   1
   8   8  -4 1.10921 3.68152   3
  -8  -8   4 1.74928 3.56806   1
   7   8  -4 26.5364 4.43583   1
  -7  -8   4 29.0924 5.69350   1
   6   8  -4 136.903 6.17483   2
   6   8  -4 141.353 7.66894   3
   6   8  -4 153.622 6.70572   1
  -6  -8   4 143.261 7.43889   1
   5   8  -4 79.3045 5.82089   3
   5   8  -4 72.0044 6.18901   1
   5   8  -4 67.9284 4.20182   2
  -5  -8   4 73.7707 5.33792   2
  -5  -8   4 69.2908 7.01931   1
   4   8  -4 5.84246 2.07873   1
   4   8  -4 9.67821 1.94071   2
   4   8  -4 8.33023 2.65856   3
  -4  -8   4 8.17207 2.28861   1
  -4  -8   4 7.31549 2.17511   2
   3   8  -4 3.76518 2.28817   3
  -3  -8   4 5.03760 2.00700   2
  -3  -8   4 -0.2169 1.95082   1
   2   8  -4 413.838 13.3540   3
  -2  -8   4 408.085 13.3774   1
  -2  -8   4 400.355 12.3128   2
   1   8  -4 32.9854 4.15100   3
  -1  -8   4 35.3280 3.75791   1
  -1  -8   4 33.4805 3.08821   2
   0   8  -4 2.86627 1.96124   3
   0  -8   4 0.54704 1.70085   1
   0  -8   4 1.55696 1.66036   2
  -1   8  -4 14.6847 3.61993   3
   1  -8   4 11.3540 2.02973   2
   1  -8   4 16.8135 3.00064   1
  -2   8  -4 71.9893 4.88074   3
   2  -8   4 64.4843 4.18913   1
   2  -8   4 65.2188 4.27138   2
  -3   8  -4 75.8762 5.43120   3
   3  -8   4 84.5453 4.68426   2
   3  -8   4 75.1842 4.53507   1
  -4   8  -4 12.9136 2.95337   3
   4  -8   4 8.33984 2.17470   1
   4  -8   4 12.6996 2.89782   2
  -5   8  -4 18.4871 4.63533   3
   5  -8   4 18.1541 3.56920   1
   5  -8   4 17.7880 3.21499   2
  -6   8  -4 117.970 7.67832   3
   6  -8   4 110.287 6.99842   2
   6  -8   4 115.720 5.66268   1
  -7   8  -4 49.8302 6.60835   3
   7  -8   4 59.0065 6.90580   2
  -8   8  -4 0.53553 3.92185   3
   8  -8   4 -4.1771 4.02344   2
  -9   8  -4 7.83103 4.63660   3
   9  -8   4 1.98812 4.84470   2
   9   7  -4 5.87215 4.07645   3
   9   7  -4 9.44597 3.63064   2
   9   7  -4 21.5772 5.11177   1
  -9  -7   4 11.3007 4.01271   1
   8   7  -4 13.6197 2.78094   1
   8   7  -4 12.0199 3.71229   3
   8   7  -4 16.9311 3.28729   2
  -8  -7   4 14.8588 3.65782   2
  -8  -7   4 21.2384 5.55686   1
   7   7  -4 10.4004 3.20206   3
   7   7  -4 10.1972 2.56655   2
  -7  -7   4 10.5140 3.07407   2
   6   7  -4 38.8756 3.76690   2
   6   7  -4 42.1323 3.94009   1
   6   7  -4 34.8067 4.99143   3
  -6  -7   4 32.0873 4.68493   1
  -6  -7   4 34.4235 4.19766   2
   5   7  -4 6.89276 2.57837   3
   5   7  -4 7.41488 1.83997   1
   5   7  -4 8.24967 1.89033   2
  -5  -7   4 6.99797 2.18046   1
  -5  -7   4 13.0001 3.37122   2
   4   7  -4 235.433 8.66767   3
  -4  -7   4 223.933 8.62401   1
   3   7  -4 6.72895 2.18651   3
  -3  -7   4 2.90104 1.75341   1
  -3  -7   4 5.82236 1.75797   2
   2   7  -4 70.9215 4.45450   3
  -2  -7   4 72.0324 3.54553   2
  -2  -7   4 70.1222 4.25341   1
   1   7  -4 44.7694 3.26382   2
   1   7  -4 52.2616 3.80727   3
  -1  -7   4 53.9601 3.55566   1
  -1  -7   4 46.9916 2.99073   2
   0   7  -4 678.064 19.5064   3
   0   7  -4 636.527 18.3712   2
   0  -7   4 635.068 18.4188   2
   0  -7   4 650.961 19.3704   1
  -1   7  -4 20.6319 3.19013   3
  -1   7  -4 19.4524 2.46641   2
   1  -7   4 23.4278 2.92198   1
   1  -7   4 24.9546 2.62391   2
  -2   7  -4 70.1872 4.49466   3
   2  -7   4 76.1161 4.14387   1
   2  -7   4 75.8898 3.89362   2
  -3   7  -4 41.5457 3.91191   3
   3  -7   4 43.5166 3.81573   2
   3  -7   4 40.4564 3.26178   1
  -4   7  -4 80.9809 5.11059   3
   4  -7   4 82.8633 4.93228   2
   4  -7   4 76.3695 4.24007   1
  -5   7  -4 410.751 13.8675   3
   5  -7   4 395.225 13.2557   2
   5  -7   4 411.652 12.6476   1
  -6   7  -4 5.61052 3.78971   3
   6  -7   4 12.2464 3.08434   2
   6  -7   4 8.87961 2.02434   1
  -7   7  -4 5.85369 3.04484   3
   7  -7   4 1.54983 3.26010   2
  -8   7  -4 23.7914 6.18043   3
   8  -7   4 17.9157 4.87755   2
  -9   7  -4 64.5191 8.14904   3
   9  -7   4 53.9198 8.04135   2
 -10   7  -4 1.94444 5.01750   3
  10  -7   4 6.15784 5.14882   2
  10   6  -4 0.85080 4.09832   2
  10   6  -4 -0.8691 4.24302   3
 -10  -6   4 -4.3137 4.22423   3
   9   6  -4 4.18743 4.47762   1
   9   6  -4 -3.1604 3.62574   3
   9   6  -4 2.88281 3.45125   2
  -9  -6   4 -3.0862 5.88683   1
  -9  -6   4 1.83153 3.49662   3
   8   6  -4 -0.2710 2.51344   2
   8   6  -4 1.21971 2.08584   1
   8   6  -4 -3.0711 3.27447   3
  -8  -6   4 5.57357 3.77230   3
  -8  -6   4 -1.8343 2.74503   1
   7   6  -4 1.91795 1.89115   1
   7   6  -4 -1.6706 2.71073   3
   7   6  -4 -2.9765 2.11117   2
  -7  -6   4 -1.6255 2.66659   3
  -7  -6   4 3.65292 2.54276   1
  -7  -6   4 0.05291 2.45984   2
   6   6  -4 235.067 9.03477   3
   6   6  -4 235.149 8.20877   2
   6   6  -4 243.665 8.49672   1
  -6  -6   4 233.391 8.52429   2
  -6  -6   4 242.211 9.01328   1
   5   6  -4 33.8839 4.12480   3
   5   6  -4 29.5772 2.85564   2
  -5  -6   4 34.9544 3.24518   2
  -5  -6   4 28.9881 3.54947   1
   4   6  -4 36.6873 2.70297   2
   4   6  -4 40.8784 3.71467   3
  -4  -6   4 37.0744 3.45783   1
  -4  -6   4 34.8180 3.06192   2
   3   6  -4 -0.1515 1.68666   3
   3   6  -4 -0.4543 1.18828   2
  -3  -6   4 0.37994 1.37409   2
  -3  -6   4 -0.5543 1.41612   1
   2   6  -4 706.911 20.3533   3
   2   6  -4 648.940 19.3784   2
  -2  -6   4 706.741 19.4348   2
  -2  -6   4 690.578 20.3098   1
   1   6  -4 219.012 6.74368   2
   1   6  -4 216.914 7.66524   3
  -1  -6   4 212.964 7.52724   1
  -1  -6   4 218.566 7.17175   2
   0   6  -4 184.815 6.71787   3
   0   6  -4 175.513 5.63883   2
   0  -6   4 181.336 6.50669   1
  -1   6  -4 407.759 11.9957   2
  -1   6  -4 408.607 13.0211   3
   1  -6   4 441.256 12.9233   1
   1  -6   4 420.949 12.1528   2
  -2   6  -4 73.7280 3.32582   2
  -2   6  -4 83.5989 4.25658   3
   2  -6   4 79.4223 3.85081   1
   2  -6   4 77.9953 3.65175   2
  -3   6  -4 542.944 16.6704   3
   3  -6   4 551.711 16.1228   1
   3  -6   4 536.327 16.0792   2
  -4   6  -4 25.2936 3.54394   3
   4  -6   4 19.6513 3.27867   2
   4  -6   4 20.6491 2.53384   1
  -5   6  -4 45.8789 4.22706   3
   5  -6   4 48.4158 4.20214   2
   5  -6   4 38.9425 3.07674   1
  -6   6  -4 16.9628 4.18093   3
   6  -6   4 22.6710 4.12647   2
   6  -6   4 12.8620 2.75090   1
  -7   6  -4 122.137 8.27102   3
   7  -6   4 130.181 5.41373   1
   7  -6   4 137.751 6.96954   2
  -8   6  -4 7.39394 3.32251   3
   8  -6   4 14.8122 3.59594   2
  -9   6  -4 7.75387 3.95713   3
   9  -6   4 3.97531 3.86357   2
 -10   6  -4 -5.8191 4.29995   3
  10  -6   4 3.60921 4.59192   2
  10   5  -4 1.48268 3.82738   2
  10   5  -4 1.81885 3.91556   3
 -10  -5   4 -1.5094 3.99098   3
   9   5  -4 2.69457 3.65467   2
   9   5  -4 -2.9446 3.09797   3
   9   5  -4 0.37273 2.13299   1
  -9  -5   4 -1.8398 3.06066   1
  -9  -5   4 -2.3057 3.21294   3
   8   5  -4 7.67622 2.59555   2
   8   5  -4 6.00568 2.05006   1
   8   5  -4 9.79222 3.11661   3
  -8  -5   4 3.74911 2.83999   3
  -8  -5   4 2.42901 2.53289   1
   7   5  -4 13.7269 2.91858   1
   7   5  -4 9.00585 2.31158   2
   7   5  -4 4.78956 2.57015   3
  -7  -5   4 4.32641 2.67753   3
  -7  -5   4 6.20279 2.44885   1
  -7  -5   4 7.48396 2.42996   2
   6   5  -4 54.3642 3.61294   1
   6   5  -4 52.9281 4.60679   3
   6   5  -4 55.9192 3.68249   2
  -6  -5   4 55.9150 4.18935   1
  -6  -5   4 60.2098 4.62952   3
  -6  -5   4 56.8125 4.05589   2
   5   5  -4 16.9262 2.48375   2
   5   5  -4 16.4907 3.36262   3
  -5  -5   4 19.3014 2.77722   2
  -5  -5   4 15.0087 2.96828   1
  -5  -5   4 18.8942 3.44616   3
   4   5  -4 49.2683 3.64910   3
   4   5  -4 54.8914 2.79774   2
  -4  -5   4 55.5581 3.54750   1
  -4  -5   4 51.2678 3.08388   2
   3   5  -4 674.902 19.7761   3
   3   5  -4 684.421 18.9390   2
   3   5  -4 646.418 19.1847   2
  -3  -5   4 676.803 19.0683   2
  -3  -5   4 684.456 19.7934   1
   2   5  -4 1328.44 37.8120   2
   2   5  -4 1367.63 38.6831   3
  -2  -5   4 1406.90 38.6886   1
  -2  -5   4 1401.41 37.8976   2
   1   5  -4 195.384 7.01964   3
  -1  -5   4 207.204 6.93449   1
   0   5  -4 172.660 6.21620   3
   0  -5   4 170.777 6.02508   1
  -1   5  -4 630.403 17.6552   2
  -1   5  -4 640.065 18.6956   3
   1  -5   4 639.823 17.7831   2
   1  -5   4 635.986 18.4678   1
  -2   5  -4 39.7429 2.24250   2
  -2   5  -4 39.4804 3.02400   3
   2  -5   4 37.3810 2.43128   2
   2  -5   4 40.8657 2.56720   2
   2  -5   4 40.9883 2.56371   1
  -3   5  -4 274.440 9.24471   3
   3  -5   4 274.886 8.81806   2
   3  -5   4 281.555 8.77744   1
  -4   5  -4 11.7457 2.73821   3
   4  -5   4 1.22978 1.12101   1
   4  -5   4 3.44156 1.68963   2
  -5   5  -4 401.593 12.9905   3
   5  -5   4 388.647 12.4689   2
   5  -5   4 401.640 11.9441   1
  -6   5  -4 17.3278 3.79786   3
   6  -5   4 15.8745 2.43554   1
   6  -5   4 17.6127 3.68001   2
  -7   5  -4 30.0853 4.55325   3
   7  -5   4 27.7639 2.84180   1
   7  -5   4 31.2944 4.40153   2
  -8   5  -4 1.39661 2.84827   3
   8  -5   4 0.91265 2.77595   2
  -9   5  -4 130.013 8.19536   3
   9  -5   4 125.839 7.65629   2
 -10   5  -4 -1.8495 3.97850   3
 -11   5  -4 5.63278 4.76168   3
  11  -5   4 -1.9818 4.88711   2
  11   4  -4 -1.8740 4.53705   3
  11   4  -4 0.39358 4.55246   2
 -11  -4   4 -4.5367 4.45130   3
  10   4  -4 6.60645 3.56253   2
  10   4  -4 -0.1322 3.66740   3
 -10  -4   4 -2.7253 3.73136   3
   9   4  -4 2.66682 3.12803   3
   9   4  -4 8.32904 2.98228   2
   9   4  -4 8.82252 2.11754   1
  -9  -4   4 1.40978 2.91406   1
  -9  -4   4 5.12784 3.30031   3
   8   4  -4 45.2388 3.61633   1
   8   4  -4 54.4113 5.37322   3
   8   4  -4 51.0120 4.47432   2
  -8  -4   4 47.9457 5.16052   3
  -8  -4   4 46.3249 4.58288   1
   7   4  -4 4.58749 2.28521   3
   7   4  -4 3.39598 1.94917   2
   7   4  -4 10.7380 2.42756   1
  -7  -4   4 0.82537 1.96201   1
  -7  -4   4 3.23753 2.35034   3
   6   4  -4 61.2822 3.45157   1
   6   4  -4 60.9116 4.33359   3
   6   4  -4 63.9871 3.63671   2
  -6  -4   4 62.1628 3.92069   2
  -6  -4   4 61.6843 3.91972   1
  -6  -4   4 61.7471 4.49743   3
   5   4  -4 374.402 12.2191   3
   5   4  -4 387.358 11.6013   2
  -5  -4   4 384.549 12.0158   1
  -5  -4   4 384.298 12.2997   3
  -5  -4   4 384.545 11.7659   2
   4   4  -4 247.904 8.40578   3
   4   4  -4 233.885 7.49509   2
  -4  -4   4 238.096 7.71543   2
  -4  -4   4 242.627 8.09868   1
  -4  -4   4 250.139 8.40981   3
   3   4  -4 118.780 4.58272   2
   3   4  -4 124.748 5.01287   3
   3   4  -4 122.241 4.11968   2
  -3  -4   4 120.748 4.79115   1
  -3  -4   4 126.819 4.30379   2
   2   4  -4 396.904 11.4627   2
   2   4  -4 386.243 12.1700   3
   2   4  -4 401.998 11.3031   2
  -2  -4   4 413.281 11.4115   2
  -2  -4   4 406.443 12.1449   1
   1   4  -4 1585.21 43.5453   3
  -1  -4   4 1541.68 43.4042   1
   0   4  -4 753.157 21.8472   3
   0  -4   4 770.600 21.7437   1
  -1   4  -4 781.942 22.4251   3
   1  -4   4 781.469 22.2591   1
  -2   4  -4 160.423 5.79539   3
  -2   4  -4 161.005 4.93691   2
   2  -4   4 165.675 5.09935   2
   2  -4   4 159.411 5.27910   2
   2  -4   4 153.838 5.94699   1
  -3   4  -4 1464.78 39.1160   3
  -3   4  -4 1307.60 38.2349   2
   3  -4   4 1508.58 38.5602   2
   3  -4   4 1281.33 38.3684   2
  -4   4  -4 6.37016 1.63887   3
   4  -4   4 7.18849 1.48542   2
  -5   4  -4 744.544 22.2753   3
   5  -4   4 764.385 21.8398   2
  -6   4  -4 3.01245 1.92433   3
   6  -4   4 1.74323 1.79258   2
  -7   4  -4 302.645 10.7906   3
   7  -4   4 305.719 10.5213   2
  -8   4  -4 105.254 6.03992   3
   8  -4   4 95.5292 4.86365   1
   8  -4   4 98.0094 6.04960   2
  -9   4  -4 1.96545 3.04931   3
 -10   4  -4 12.0545 3.98395   3
  10  -4   4 3.96285 3.96383   2
 -11   4  -4 6.49413 4.23878   3
  11  -4   4 -2.4781 4.49521   2
  11   3  -4 3.53314 4.03711   2
  11   3  -4 -5.3389 4.04144   3
 -11  -3   4 -1.9313 4.25271   3
  10   3  -4 40.3976 6.63114   2
  10   3  -4 45.4978 6.30424   3
 -10  -3   4 34.3332 6.49624   3
   9   3  -4 22.2655 4.94214   2
   9   3  -4 14.1344 3.31310   3
  -9  -3   4 16.4364 3.45830   3
   8   3  -4 17.2410 2.76472   1
   8   3  -4 24.6926 4.03652   2
   8   3  -4 17.4214 4.30367   3
  -8  -3   4 22.8773 4.49338   3
  -8  -3   4 22.5477 3.75811   1
   7   3  -4 2.65070 1.33750   1
   7   3  -4 1.25255 2.03290   3
   7   3  -4 1.59583 1.90925   2
  -7  -3   4 2.54978 2.22598   3
  -7  -3   4 0.87618 1.76572   1
   6   3  -4 2.74078 1.17567   1
   6   3  -4 2.10019 1.44396   2
   6   3  -4 0.58957 1.76989   3
  -6  -3   4 1.04091 1.77194   3
  -6  -3   4 1.38595 1.48434   1
   5   3  -4 4.43319 1.55097   3
  -5  -3   4 2.19053 1.39696   1
  -5  -3   4 4.57105 1.67066   3
   4   3  -4 3.83271 1.11884   2
   4   3  -4 5.49294 1.52707   3
  -4  -3   4 5.30373 1.26953   1
  -4  -3   4 4.70808 1.58262   3
   3   3  -4 3200.44 89.4203   2
   3   3  -4 3344.87 89.9617   3
   3   3  -4 3274.31 89.2269   2
  -3  -3   4 3328.52 89.9836   3
  -3  -3   4 3240.92 89.8602   1
   2   3  -4 292.566 8.22972   2
   2   3  -4 283.494 8.38192   2
   1   3  -4 19.7187 2.07833   3
  -1  -3   4 18.5145 1.63917   1
   0   3  -4 248.121 7.92196   3
   0  -3   4 254.487 7.77658   1
  -1   3  -4 2746.31 74.4601   3
   1  -3   4 2681.85 74.2618   1
  -2   3  -4 476.917 13.3946   2
   2  -3   4 477.763 13.5242   2
   2  -3   4 484.295 13.8915   1
   2  -3   4 476.600 13.4976   2
  -3   3  -4 263.059 8.41278   3
  -3   3  -4 256.823 7.77459   2
   3  -3   4 258.062 7.82782   2
   3  -3   4 249.121 7.93551   2
   3  -3   4 274.704 8.03500   1
  -4   3  -4 216.343 7.65969   3
   4  -3   4 234.410 7.23461   1
   4  -3   4 241.514 7.38108   2
  -5   3  -4 26.8332 2.87589   3
   5  -3   4 32.9656 2.17888   1
   5  -3   4 33.0566 2.67417   2
  -6   3  -4 176.126 6.85625   3
   6  -3   4 173.804 6.51308   2
   6  -3   4 172.689 5.78866   1
  -7   3  -4 36.4409 3.85750   3
   7  -3   4 29.5995 3.74737   2
   7  -3   4 33.5456 2.54223   1
  -8   3  -4 -0.2513 2.24538   3
   8  -3   4 1.92447 1.39094   1
   8  -3   4 2.74965 2.34314   2
  -9   3  -4 30.6055 6.55899   3
   9  -3   4 43.9335 5.38997   2
 -10   3  -4 10.1336 3.52027   3
  10  -3   4 9.40258 3.57478   2
 -11   3  -4 1.53983 4.14467   3
  11  -3   4 8.93428 4.22080   2
 -12   3  -4 3.81395 4.85355   3
  12  -3   4 0.62881 5.45367   2
  11   2  -4 3.13108 4.38964   2
 -11  -2   4 -3.2849 4.10566   3
  10   2  -4 34.4245 6.52990   2
 -10  -2   4 25.5229 4.26508   3
   9   2  -4 0.20026 2.82453   2
  -9  -2   4 -3.0448 3.11143   3
   8   2  -4 149.776 6.78259   2
   8   2  -4 137.582 5.23132   1
  -8  -2   4 147.056 7.04047   3
  -8  -2   4 146.478 5.82485   1
   7   2  -4 109.647 5.10918   2
   7   2  -4 106.240 4.09538   1
  -7  -2   4 103.756 5.55959   3
  -7  -2   4 98.5761 4.56861   1
   6   2  -4 149.394 6.42561   3
   6   2  -4 160.747 5.93310   2
  -6  -2   4 161.219 6.46813   3
   5   2  -4 198.844 7.23585   3
   5   2  -4 209.282 6.84355   2
  -5  -2   4 206.458 6.86464   1
  -5  -2   4 206.485 7.37517   3
   4   2  -4 403.273 11.1663   3
   4   2  -4 339.415 10.5173   2
  -4  -2   4 357.934 11.1291   3
  -4  -2   4 323.202 10.5963   1
   3   2  -4 259.888 9.42834   3
   3   2  -4 265.312 8.28316   2
   3   2  -4 269.695 7.99768   2
  -3  -2   4 271.869 8.28768   1
  -3  -2   4 284.375 9.28784   3
   2   2  -4 522.405 14.8198   2
   2   2  -4 531.152 14.6984   2
   2   2  -4 523.707 15.3654   3
  -2  -2   4 529.352 15.1478   1
  -2  -2   4 529.216 15.4118   3
   1   2  -4 2045.89 56.4515   3
  -1  -2   4 2058.72 56.3140   1
   0   2  -4 497.622 14.5296   3
   0  -2   4 507.176 14.4438   1
  -1   2  -4 359.042 10.6675   3
   1  -2   4 357.826 10.5116   1
  -2   2  -4 889.236 24.8787   3
   2  -2   4 876.118 24.6972   1
   2  -2   4 876.380 24.2978   2
   2  -2   4 890.679 24.3991   2
  -3   2  -4 390.579 11.7410   3
   3  -2   4 391.816 11.4691   2
   3  -2   4 390.459 11.4420   1
   3  -2   4 396.317 11.3044   2
  -4   2  -4 41.8116 2.73928   3
   4  -2   4 42.1799 2.41436   2
   4  -2   4 43.3341 2.22773   1
  -5   2  -4 265.773 8.66705   3
   5  -2   4 260.453 8.06045   1
   5  -2   4 263.482 8.35879   2
  -6   2  -4 16.4870 2.79768   3
   6  -2   4 20.3825 2.50527   2
   6  -2   4 18.6676 2.01082   1
  -7   2  -4 28.4434 3.37672   3
   7  -2   4 30.6023 3.24695   2
   7  -2   4 31.1944 2.43312   1
  -8   2  -4 67.4777 4.92989   3
   8  -2   4 66.3398 3.35588   1
   8  -2   4 66.0977 4.68602   2
  -9   2  -4 13.3732 3.05417   3
   9  -2   4 26.5093 4.62088   2
 -10   2  -4 7.33627 3.12017   3
  10  -2   4 9.49985 3.22028   2
 -11   2  -4 0.69335 3.70277   3
  11  -2   4 1.47489 3.77591   2
 -12   2  -4 32.7547 7.87605   3
  12  -2   4 19.9736 5.48442   2
  11   1  -4 -7.9326 4.23678   2
 -11  -1   4 7.69702 4.33930   3
  10   1  -4 168.187 8.81640   2
 -10  -1   4 159.616 8.91203   3
   9   1  -4 -2.3650 2.79372   2
  -9  -1   4 0.24559 3.17361   3
   8   1  -4 4.97844 2.26511   2
   8   1  -4 0.51852 1.22248   1
  -8  -1   4 3.94918 2.59315   3
  -8  -1   4 3.20997 1.89933   1
   7   1  -4 -0.0327 0.99378   1
   7   1  -4 1.68224 1.89532   2
  -7  -1   4 1.09560 2.04187   3
  -7  -1   4 -0.8543 1.49572   1
   6   1  -4 192.315 6.92434   2
  -6  -1   4 188.463 7.24923   3
  -6  -1   4 192.078 6.35207   1
   5   1  -4 21.2371 2.41216   2
  -5  -1   4 14.8207 1.91998   1
  -5  -1   4 23.1992 2.67251   3
   4   1  -4 325.610 10.0223   2
  -4  -1   4 340.962 10.4781   3
  -4  -1   4 336.017 9.91427   1
   3   1  -4 131.348 4.75135   2
   3   1  -4 133.605 4.95152   3
   3   1  -4 135.008 4.44762   2
  -3  -1   4 140.417 5.04717   3
  -3  -1   4 129.374 4.58314   2
  -3  -1   4 137.652 4.50729   1
   2   1  -4 111.155 4.09146   3
   2   1  -4 108.228 4.47839   2
   2   1  -4 115.113 3.78405   2
   2   1  -4 109.685 3.73103   1
  -2  -1   4 115.602 3.68281   2
  -2  -1   4 107.463 3.77158   1
  -2  -1   4 108.353 4.10426   3
   1   1  -4 1082.19 28.4910   2
   1   1  -4 1057.21 29.0277   3
   1   1  -4 962.921 28.7534   1
  -1  -1   4 1017.33 28.4075   2
  -1  -1   4 1050.61 28.8694   1
  -1  -1   4 1069.76 29.0428   3
   0   1  -4 8.15314 1.34879   3
   0   1  -4 8.15541 1.45921   3
   0   1  -4 9.87459 1.26908   1
   0  -1   4 10.5953 1.20821   1
   0  -1   4 10.6485 1.44997   3
  -1   1  -4 4539.26 119.303   3
  -1   1  -4 4180.41 119.252   1
  -1   1  -4 4499.91 118.837   2
   1  -1   4 4452.61 118.820   2
   1  -1   4 4289.23 119.241   1
   1  -1   4 4342.41 119.243   3
  -2   1  -4 15.6581 1.28967   2
  -2   1  -4 11.4025 1.45719   3
   2  -1   4 11.0049 1.32974   2
   2  -1   4 12.8479 1.50135   3
  -3   1  -4 94.0901 3.59956   3
  -3   1  -4 96.7615 3.51940   2
   3  -1   4 92.5103 3.31762   2
   3  -1   4 93.8421 3.40799   1
   3  -1   4 92.4766 3.61604   2
  -4   1  -4 2585.88 71.2824   2
  -4   1  -4 2621.58 71.3367   3
   4  -1   4 2599.81 71.1265   2
   4  -1   4 2587.93 71.0880   1
  -5   1  -4 165.890 6.11921   2
  -5   1  -4 158.944 5.88066   3
   5  -1   4 166.025 5.88075   2
   5  -1   4 174.877 5.52251   1
  -6   1  -4 521.506 15.6605   2
  -6   1  -4 516.785 15.5006   3
   6  -1   4 510.969 14.9242   1
   6  -1   4 515.687 15.3892   2
  -7   1  -4 84.0476 4.57566   3
  -7   1  -4 84.2651 4.71000   2
   7  -1   4 89.8042 3.66108   1
   7  -1   4 83.5788 4.32174   2
  -8   1  -4 111.524 5.65124   3
   8  -1   4 117.772 5.61456   2
   8  -1   4 104.309 4.93267   1
  -9   1  -4 2.83310 2.40503   3
   9  -1   4 1.81442 2.23427   2
 -10   1  -4 23.5064 5.20306   3
  10  -1   4 24.8109 5.02863   2
 -11   1  -4 7.57156 3.75119   3
  11  -1   4 10.6831 3.59869   2
 -12   1  -4 3.67292 4.51829   3
  12  -1   4 -7.2694 4.34758   2
  11   0  -4 -10.096 4.05162   2
 -11   0   4 6.55661 4.19698   3
  10   0  -4 26.0753 6.65092   2
 -10   0   4 35.2596 6.26345   3
   9   0  -4 5.15821 3.78804   2
  -9   0   4 8.11655 2.98738   3
   8   0  -4 145.104 6.89677   2
  -8   0   4 128.681 6.64326   3
   7   0  -4 7.97419 2.01532   2
   7   0  -4 6.63529 1.52653   1
  -7   0   4 4.56644 2.12383   3
  -7   0   4 5.35807 1.40138   1
   6   0  -4 76.6236 4.00601   2
   6   0  -4 62.8346 2.97503   1
  -6   0   4 74.4506 4.25216   3
  -6   0   4 73.1631 3.10695   1
   5   0  -4 6.45791 1.56264   1
   5   0  -4 6.33266 1.42547   2
  -5   0   4 9.12713 1.55060   1
  -5   0   4 6.93165 1.65563   3
   4   0  -4 66.4357 3.13599   2
  -4   0   4 66.6444 3.30285   3
  -4   0   4 64.6959 2.60813   1
   3   0  -4 350.447 10.1940   2
   3   0  -4 334.273 9.89997   1
  -3   0   4 345.529 10.4363   3
  -3   0   4 344.007 9.93347   1
   2   0  -4 1.21563 0.83927   3
   2   0  -4 1.55821 0.65340   1
   2   0  -4 3.70057 0.82286   2
  -2   0   4 0.88200 0.56087   1
  -2   0   4 0.90285 0.74040   2
  -2   0   4 1.50091 0.89370   3
   1   0  -4 947.551 25.3555   2
   1   0  -4 925.267 25.5776   3
   1   0  -4 889.974 25.5758   3
   1   0  -4 897.433 25.4356   1
  -1   0   4 954.335 25.6378   3
  -1   0   4 893.198 25.3503   2
  -1   0   4 911.152 25.4763   1
   0   0  -4 4782.69 130.221   3
   0   0  -4 4800.74 130.293   2
   0   0  -4 4775.81 130.209   1
   0   0  -4 4823.54 130.232   3
   0   0   4 4643.18 130.224   1
   0   0   4 4830.87 130.104   2
   0   0   4 4890.97 130.210   3
  -1   0  -4 3892.43 103.472   2
  -1   0  -4 3565.41 103.632   1
  -1   0  -4 3875.41 103.629   3
   1   0   4 3824.37 103.423   2
   1   0   4 3799.99 103.570   3
   1   0   4 3901.53 103.710   1
  -2   0  -4 3016.01 81.2477   2
  -2   0  -4 2836.18 81.2041   1
  -2   0  -4 3043.51 81.1844   3
   2   0   4 3047.49 81.1669   2
   2   0   4 2969.64 81.2241   1
   2   0   4 2957.88 81.1298   3
  -3   0  -4 456.719 12.6571   3
  -3   0  -4 452.287 12.7818   2
   3   0   4 445.509 12.6250   1
   3   0   4 417.888 12.7149   2
   3   0   4 418.792 12.5481   3
  -4   0  -4 40.9372 2.63655   2
  -4   0  -4 41.1543 2.36875   3
   4   0   4 45.2947 2.41194   2
   4   0   4 49.0929 2.21130   1
  -5   0  -4 56.5234 3.17522   2
  -5   0  -4 57.2573 3.05079   3
   5   0   4 57.8336 2.59964   1
   5   0   4 58.0060 2.91383   2
  -6   0  -4 606.875 18.3782   3
  -6   0  -4 638.201 18.7764   2
   6   0   4 640.062 18.0587   1
   6   0   4 641.866 18.4988   2
  -7   0  -4 0.71886 1.61190   3
  -7   0  -4 -1.1369 1.82823   2
   7   0   4 0.55516 1.32837   1
   7   0   4 -0.1396 1.42671   2
  -8   0  -4 26.9807 3.54676   3
  -8   0  -4 29.7122 4.05597   2
   8   0   4 29.6437 2.74835   1
   8   0   4 31.5304 3.45524   2
  -9   0  -4 41.6392 4.57781   3
  -9   0  -4 33.1541 5.06151   2
   9   0   4 32.5275 4.23501   2
   9   0   4 39.7710 3.18750   1
 -10   0  -4 -1.5807 2.71523   3
  10   0   4 0.12895 2.65181   2
 -11   0  -4 -1.9773 3.48232   3
  11   0   4 1.97210 3.06901   2
 -12   0  -4 4.43844 4.47717   3
  12   0   4 3.21304 3.98406   2
  11  -1  -4 9.21036 4.24532   2
 -11   1   4 6.88130 4.19915   3
  10  -1  -4 40.1297 7.12558   2
 -10   1   4 34.8150 6.27720   3
   9  -1  -4 5.35477 3.69391   2
  -9   1   4 8.74103 2.92828   3
   8  -1  -4 4.86539 2.55605   2
  -8   1   4 9.09309 2.51855   3
   7  -1  -4 37.3702 3.97549   2
  -7   1   4 41.3528 4.05457   3
   6  -1  -4 235.628 8.29344   2
  -6   1   4 233.440 8.33499   3
   5  -1  -4 301.174 8.12448   1
   5  -1  -4 297.657 9.16240   2
  -5   1   4 261.558 8.40072   1
  -5   1   4 256.873 9.12329   3
   4  -1  -4 170.653 5.26907   1
  -4   1   4 174.098 5.66730   1
  -4   1   4 176.662 6.11891   3
   3  -1  -4 1333.34 36.8291   1
   3  -1  -4 1336.39 37.3077   2
  -3   1   4 1364.11 37.4039   3
  -3   1   4 1340.60 36.8760   1
   2  -1  -4 1088.88 30.2610   1
   2  -1  -4 1141.50 30.6251   2
  -2   1   4 1044.94 30.5847   2
  -2   1   4 1089.00 30.3267   1
  -2   1   4 1136.99 30.6471   3
   1  -1  -4 1018.45 27.3606   2
   1  -1  -4 874.400 27.2501   3
   1  -1  -4 1018.70 27.1756   1
   1  -1  -4 928.557 27.2799   3
  -1   1   4 1101.70 27.4759   2
  -1   1   4 898.744 27.2740   3
  -1   1   4 1049.10 27.2572   1
   0  -1  -4 375.378 11.4667   2
   0  -1  -4 359.932 10.5503   1
   0  -1  -4 369.518 10.5709   3
   0  -1  -4 369.677 10.5592   3
   0   1   4 363.003 10.5683   3
   0   1   4 376.368 10.6177   1
   0   1   4 366.836 10.6253   2
  -1  -1  -4 287.770 8.26475   3
  -1  -1  -4 283.691 8.38736   1
  -1  -1  -4 292.682 8.26728   3
  -1  -1  -4 281.717 8.69750   2
   1   1   4 289.175 8.24612   3
   1   1   4 283.228 8.36904   1
   1   1   4 284.799 8.35815   2
  -2  -1  -4 1546.14 43.2732   1
  -2  -1  -4 1591.57 43.0953   3
  -2  -1  -4 1606.43 43.4017   2
   2   1   4 1540.29 43.3222   2
   2   1   4 1599.97 43.2748   1
   2   1   4 1571.21 43.0665   3
  -3  -1  -4 1267.71 34.8137   3
  -3  -1  -4 1274.82 35.2451   2
   3   1   4 1262.70 34.7902   3
   3   1   4 1261.29 34.9530   1
  -4  -1  -4 851.831 23.4687   3
  -4  -1  -4 846.705 23.9528   2
   4   1   4 826.703 23.4191   3
   4   1   4 835.741 23.4995   1
  -5  -1  -4 548.964 15.8088   3
  -5  -1  -4 554.895 16.3884   2
   5   1   4 550.564 16.0932   2
   5   1   4 545.351 15.7309   1
  -6  -1  -4 2.44471 1.55353   3
  -6  -1  -4 -0.6046 1.60621   2
   6   1   4 2.28066 1.35710   2
   6   1   4 -0.7206 0.86504   1
  -7  -1  -4 31.8572 3.53582   2
  -7  -1  -4 32.6729 3.06875   3
   7   1   4 32.4426 2.98955   2
   7   1   4 33.4447 2.38777   1
  -8  -1  -4 331.819 10.7329   3
  -8  -1  -4 318.515 11.3150   2
   8   1   4 323.982 10.0729   1
   8   1   4 329.213 10.9250   2
  -9  -1  -4 2.17364 2.16526   3
  -9  -1  -4 4.77411 2.71507   2
   9   1   4 3.25585 1.62835   1
   9   1   4 2.94184 2.16650   2
 -10  -1  -4 84.1473 6.03826   3
 -10  -1  -4 80.7513 6.69064   2
  10   1   4 73.6020 5.71591   2
  11   1   4 27.4947 5.65955   2
 -12  -1  -4 3.33491 4.46468   3
  12   1   4 6.30702 3.80610   2
  11  -2  -4 16.7825 5.18223   2
 -11   2   4 18.8085 4.75359   3
  10  -2  -4 -4.7529 3.63659   2
 -10   2   4 2.88500 3.58145   3
   9  -2  -4 7.85594 3.19296   2
  -9   2   4 4.75250 3.02410   3
   8  -2  -4 8.66234 2.75338   2
  -8   2   4 9.71650 2.67022   3
   7  -2  -4 398.581 13.1996   2
  -7   2   4 403.833 13.1819   3
   6  -2  -4 166.491 6.60900   2
  -6   2   4 161.832 6.50015   3
   5  -2  -4 66.2532 3.77865   2
  -5   2   4 66.1118 3.62733   3
   4  -2  -4 20.9967 1.25184   1
   4  -2  -4 22.6608 2.42110   2
  -4   2   4 20.5436 1.31060   1
  -4   2   4 21.2627 2.23334   3
   3  -2  -4 179.929 5.20885   1
   3  -2  -4 185.063 6.06812   2
  -3   2   4 167.603 5.88165   3
  -3   2   4 168.674 5.29958   1
   2  -2  -4 159.649 4.80035   1
   2  -2  -4 154.129 5.39338   2
  -2   2   4 162.273 4.89428   1
  -2   2   4 158.609 5.26840   3
   1  -2  -4 276.764 8.29953   3
   1  -2  -4 293.580 8.61737   2
   1  -2  -4 286.353 8.13029   1
  -1   2   4 282.198 8.30651   3
  -1   2   4 286.960 8.15557   1
  -1   2   4 259.841 8.54961   2
   0  -2  -4 1946.87 53.3360   1
   0  -2  -4 1947.36 53.2471   3
   0  -2  -4 2005.52 53.2798   3
   0  -2  -4 1936.18 53.5757   2
   0   2   4 2019.77 53.2890   3
   0   2   4 1927.94 53.3302   1
   0   2   4 1881.18 53.5494   2
  -1  -2  -4 6.67424 0.93901   3
  -1  -2  -4 4.36641 0.85525   3
  -1  -2  -4 5.40509 1.33122   2
   1   2   4 4.36076 0.90378   1
   1   2   4 3.84768 1.28677   2
  -2  -2  -4 46.0319 1.68310   3
  -2  -2  -4 44.5743 2.32084   2
   2   2   4 41.5444 2.28278   2
   2   2   4 45.5393 1.66325   3
   2   2   4 43.3527 1.93221   1
  -3  -2  -4 1167.00 32.8547   2
  -3  -2  -4 1169.73 32.1417   3
   3   2   4 1172.90 32.4969   1
   3   2   4 1186.57 32.1388   3
  -4  -2  -4 2954.46 81.2541   2
  -4  -2  -4 2926.42 80.4635   3
   4   2   4 2984.67 80.7633   1
   4   2   4 2959.55 80.4593   3
  -5  -2  -4 87.1586 3.38881   3
  -5  -2  -4 86.2397 4.09925   2
   5   2   4 80.3018 3.34941   3
   5   2   4 86.6560 3.39155   1
  -6  -2  -4 1070.68 30.5390   2
  -6  -2  -4 1031.05 29.6463   3
   6   2   4 1070.77 29.7025   1
   6   2   4 1069.27 30.1693   2
  -7  -2  -4 279.677 9.89495   2
  -7  -2  -4 281.456 9.08498   3
   7   2   4 283.847 8.85964   1
   7   2   4 291.105 9.54158   2
  -8  -2  -4 5.42150 2.22577   2
  -8  -2  -4 3.60429 1.84542   3
   8   2   4 3.19802 1.35470   1
   8   2   4 4.03345 1.83532   2
  -9  -2  -4 170.916 7.83417   2
  -9  -2  -4 172.214 7.03240   3
   9   2   4 168.694 7.23380   2
   9   2   4 160.721 6.12194   1
 -10  -2  -4 7.74056 3.27132   2
 -10  -2  -4 6.90341 2.91023   3
  10   2   4 11.3582 2.08379   1
  10   2   4 9.20567 2.77571   2
 -11  -2  -4 2.66637 3.74137   2
 -11  -2  -4 5.87475 3.55970   3
  11   2   4 -3.9843 2.89181   2
 -12  -2  -4 0.12299 4.60091   2
 -12  -2  -4 -2.5589 5.23727   3
  12   2   4 -0.3037 3.77912   2
  11  -3  -4 -1.7078 4.63260   2
 -11   3   4 -5.0028 4.45780   3
  10  -3  -4 -0.3910 3.78553   2
 -10   3   4 0.36770 3.66541   3
   9  -3  -4 86.2175 7.27143   2
  -9   3   4 83.5541 6.66591   3
   8  -3  -4 44.9569 5.03595   2
  -8   3   4 33.4532 5.10270   3
   7  -3  -4 0.85823 2.08835   2
  -7   3   4 0.53441 1.96816   3
   6  -3  -4 0.69345 1.77935   2
  -6   3   4 3.74835 1.86572   3
   5  -3  -4 342.627 11.2149   2
  -5   3   4 348.826 11.0769   3
   4  -3  -4 441.356 13.6537   2
  -4   3   4 450.436 13.4752   3
   3  -3  -4 263.328 7.47725   1
   3  -3  -4 232.211 9.55720   2
  -3   3   4 281.019 7.64926   1
  -3   3   4 261.584 8.33681   3
   2  -3  -4 509.238 14.3887   1
   2  -3  -4 509.779 15.1793   2
  -2   3   4 524.319 14.4316   1
  -2   3   4 515.212 14.8120   3
   1  -3  -4 178.528 5.79707   2
   1  -3  -4 158.466 5.21296   3
   1  -3  -4 163.935 5.05463   1
  -1   3   4 165.548 5.05820   1
  -1   3   4 163.296 5.22591   3
   0  -3  -4 536.095 15.3634   1
   0  -3  -4 558.014 15.2555   3
   0  -3  -4 525.870 15.7809   2
   0   3   4 553.356 15.3826   1
   0   3   4 557.730 15.2530   3
  -1  -3  -4 418.973 11.4507   3
  -1  -3  -4 410.425 11.4562   3
  -1  -3  -4 396.393 12.1842   2
   1   3   4 419.987 11.8727   1
   1   3   4 414.764 11.4716   3
  -2  -3  -4 2901.85 80.2285   2
   2   3   4 2953.68 79.9048   1
  -3  -3  -4 91.9580 3.87248   2
   3   3   4 85.2795 3.27400   1
  -4  -3  -4 123.486 3.84689   3
  -4  -3  -4 126.104 4.97643   2
   4   3   4 120.418 3.83466   3
  -5  -3  -4 726.046 20.0901   3
  -5  -3  -4 736.626 21.1809   2
   5   3   4 690.318 20.0390   3
   5   3   4 722.375 20.4474   1
  -6  -3  -4 41.5651 3.45533   2
  -6  -3  -4 40.9680 2.65228   3
   6   3   4 45.2311 2.54432   1
  -7  -3  -4 24.3415 2.79727   3
  -7  -3  -4 26.0966 3.70001   2
   7   3   4 27.8687 2.37685   1
   7   3   4 23.9445 3.08850   2
  -8  -3  -4 42.3945 4.39736   2
  -8  -3  -4 46.0638 3.67550   3
   8   3   4 49.1636 3.99176   2
   8   3   4 47.8924 3.20604   1
  -9  -3  -4 8.43953 2.32658   3
  -9  -3  -4 17.2125 4.54927   2
   9   3   4 6.14072 1.73728   1
   9   3   4 7.83180 2.40364   2
 -10  -3  -4 -1.8253 2.65401   3
 -10  -3  -4 -2.9875 2.94466   2
  10   3   4 1.68478 1.84333   1
  10   3   4 -2.5646 2.23339   2
 -11  -3  -4 0.76391 3.57362   3
 -11  -3  -4 2.63602 3.62231   2
  11   3   4 -0.0652 2.93351   2
 -12  -3  -4 14.5342 5.06620   2
  12   3   4 6.33755 3.79189   2
  11  -4  -4 6.69182 4.90017   2
 -11   4   4 10.7955 4.78242   3
  10  -4  -4 -4.9226 3.83626   2
 -10   4   4 -6.9083 3.72537   3
   9  -4  -4 -8.0724 3.09054   2
  -9   4   4 1.83471 3.20868   3
   7  -4  -4 483.776 15.9441   2
  -7   4   4 500.190 15.8618   3
   6  -4  -4 17.4740 3.64636   2
  -6   4   4 19.8900 3.36468   3
   5  -4  -4 251.749 9.01911   2
  -5   4   4 253.336 8.72183   3
   4  -4  -4 19.1211 2.96924   2
  -4   4   4 19.6101 1.53391   1
  -4   4   4 20.2117 2.41388   3
   3  -4  -4 992.397 27.1519   2
   3  -4  -4 909.364 25.8964   1
  -3   4   4 931.345 26.0658   1
  -3   4   4 889.287 27.0960   3
  -3   4   4 988.108 25.9838   1
   2  -4  -4 0.67238 0.61244   1
  -2   4   4 0.64490 0.61272   1
  -2   4   4 0.39873 0.96739   3
   1  -4  -4 509.227 15.1125   2
   1  -4  -4 492.781 14.3052   1
   1  -4  -4 489.024 14.4131   3
  -1   4   4 523.152 14.3517   1
  -1   4   4 518.527 14.4397   3
   0  -4  -4 22.7124 2.21518   2
   0  -4  -4 17.4143 1.42678   3
   0   4   4 20.1796 1.36630   1
   0   4   4 18.6104 1.53155   3
  -1  -4  -4 132.186 4.78257   2
  -1  -4  -4 114.601 3.61063   3
   1   4   4 119.727 4.08628   1
   1   4   4 121.538 3.61440   3
  -2  -4  -4 254.871 8.36468   2
   2   4   4 261.985 7.86154   1
  -4  -4  -4 732.593 21.7128   2
   4   4   4 753.740 21.1281   1
  -5  -4  -4 -0.0066 1.52303   2
  -5  -4  -4 1.84224 1.03240   3
   5   4   4 0.87420 0.98542   1
   5   4   4 0.86028 0.90964   3
  -6  -4  -4 4.20389 1.30888   3
  -6  -4  -4 3.39141 1.92413   2
   6   4   4 4.33903 1.20237   1
   6   4   4 3.67163 1.41716   3
  -7  -4  -4 182.641 6.43216   3
  -7  -4  -4 182.921 7.56763   2
   7   4   4 187.263 6.49126   1
  -8  -4  -4 14.9320 3.29018   3
  -8  -4  -4 15.2952 4.09631   2
   8   4   4 10.8507 1.78229   1
   8   4   4 19.1650 3.41913   2
  -9  -4  -4 24.3097 4.12892   3
   9   4   4 29.2706 3.15492   1
 -10  -4  -4 30.7961 6.23031   3
 -10  -4  -4 40.2914 6.03227   2
  10   4   4 37.9968 4.99916   2
  10   4   4 40.9391 3.92538   1
 -11  -4  -4 -3.1551 3.76870   2
  11   4   4 0.01191 2.97844   2
 -12  -4  -4 7.02569 4.96016   2
  12   4   4 7.76711 3.83779   2
  11  -5  -4 0.66936 5.13068   2
 -11   5   4 -4.1095 5.23710   3
  10  -5  -4 -2.0744 4.28858   2
 -10   5   4 -0.6245 4.12470   3
   9  -5  -4 118.824 8.42344   2
  -9   5   4 135.833 7.94412   3
   8  -5  -4 10.3497 3.38574   2
  -8   5   4 8.69993 3.11249   3
   7  -5  -4 12.0003 2.91396   2
  -7   5   4 8.80737 2.67881   3
   6  -5  -4 18.8163 4.06668   2
  -6   5   4 23.8967 3.91212   3
   5  -5  -4 290.279 10.2838   2
  -5   5   4 286.942 9.81197   3
   4  -5  -4 8.82323 2.06652   2
  -4   5   4 11.1094 1.66583   1
  -4   5   4 10.7337 2.58873   3
  -4   5   4 6.49836 1.29897   1
   3  -5  -4 10.1363 1.99985   2
   3  -5  -4 9.71039 1.32856   1
  -3   5   4 12.4342 2.25101   3
  -3   5   4 8.86672 1.29687   1
  -3   5   4 16.3079 2.01165   1
   2  -5  -4 4.11652 1.68213   2
   2  -5  -4 4.30904 0.96965   1
  -2   5   4 3.28610 1.93355   1
  -2   5   4 4.63715 1.20982   1
  -2   5   4 3.81171 1.21443   3
   1  -5  -4 56.5853 2.89347   3
   1  -5  -4 62.8959 3.50682   2
  -1   5   4 56.7494 2.43846   1
  -1   5   4 57.6993 2.63333   3
   0  -5  -4 224.633 8.70318   2
   0  -5  -4 238.478 7.04150   3
   0   5   4 238.951 7.21577   1
   0   5   4 236.664 6.98360   3
  -1  -5  -4 11.6440 2.69501   2
  -1  -5  -4 12.7981 1.19497   3
   1   5   4 16.2237 1.12528   3
   1   5   4 18.2750 1.84629   1
  -2  -5  -4 422.020 13.1310   2
   2   5   4 433.582 12.5636   1
  -3  -5  -4 1066.76 30.6455   2
   3   5   4 1078.54 30.0735   1
  -4  -5  -4 89.7901 4.55233   2
   4   5   4 90.1699 3.68214   1
  -5  -5  -4 313.181 10.7266   2
   5   5   4 323.137 9.93718   1
  -6  -5  -4 177.500 5.72489   3
  -6  -5  -4 179.781 7.30876   2
   6   5   4 179.722 5.71137   3
   6   5   4 181.968 6.31624   1
   6   5   4 171.898 5.71434   3
  -7  -5  -4 329.837 11.5134   2
  -7  -5  -4 311.280 9.90296   3
   7   5   4 332.536 10.4287   1
  -8  -5  -4 7.14370 2.63577   2
  -8  -5  -4 3.51871 2.71058   3
   8   5   4 5.27848 1.71942   1
  -9  -5  -4 167.879 8.55145   2
   9   5   4 174.012 6.77646   1
   9   5   4 169.018 7.69189   2
 -10  -5  -4 3.55961 3.28176   2
  10   5   4 3.55109 2.13951   1
  10   5   4 -0.5318 2.64382   2
 -11  -5  -4 20.1805 4.55241   2
  11   5   4 24.2609 5.99919   2
  11   5   4 18.7066 4.61793   1
 -12  -5  -4 24.3724 5.48872   2
  12   5   4 25.7527 6.94216   2
  10  -6  -4 0.13487 4.53155   2
 -10   6   4 8.59781 4.58538   3
   9  -6  -4 3.23254 3.79911   2
  -9   6   4 -1.1266 3.73452   3
   8  -6  -4 2.65541 3.39566   2
  -8   6   4 3.44470 3.20621   3
  -7   6   4 34.8493 5.17353   3
   6  -6  -4 4.80232 2.70177   2
  -6   6   4 1.48773 2.29757   3
   5  -6  -4 3.69354 2.20058   2
  -5   6   4 -0.9002 1.72651   3
   4  -6  -4 5.79140 2.19386   2
  -4   6   4 7.72778 1.74919   3
  -4   6   4 5.46489 0.96860   1
  -4   6   4 5.49529 1.31394   1
   3  -6  -4 156.793 6.87538   2
  -3   6   4 166.813 5.98220   3
  -3   6   4 157.168 5.17434   1
   2  -6  -4 7.56433 2.07128   2
   1  -6  -4 7.19510 1.90092   2
  -1   6   4 7.84766 1.79791   3
  -1   6   4 8.78321 1.44910   1
   0  -6  -4 122.028 4.30761   3
   0  -6  -4 114.544 5.27278   2
   0   6   4 123.997 4.16509   3
   0   6   4 129.234 4.38716   1
  -1  -6  -4 744.189 21.9101   2
  -1  -6  -4 748.437 20.5994   3
   1   6   4 758.355 21.1932   1
   1   6   4 722.539 20.5395   3
  -2  -6  -4 59.8283 3.68778   2
   2   6   4 59.9063 2.85715   1
  -3  -6  -4 111.709 5.17327   2
   3   6   4 109.304 4.30970   1
  -4  -6  -4 3.40108 1.73217   2
   4   6   4 2.68206 1.08218   1
  -5  -6  -4 656.041 19.7292   2
   5   6   4 631.241 18.8166   1
  -6  -6  -4 57.7202 4.68958   2
   6   6   4 51.5267 3.28909   1
  -7  -6  -4 7.15105 1.74772   3
  -7  -6  -4 3.99551 2.43456   2
   7   6   4 11.5299 2.59099   1
   7   6   4 7.65699 1.62271   3
  -8  -6  -4 14.0226 3.16070   2
   8   6   4 19.6847 3.11078   1
  -9  -6  -4 6.00687 3.23844   2
   9   6   4 3.64473 1.98514   1
   9   6   4 6.61343 2.76762   2
 -10  -6  -4 11.8228 4.14954   2
  10   6   4 12.1959 3.37537   2
 -11  -6  -4 -10.161 3.94554   2
  11   6   4 3.68779 3.55181   2
  11   6   4 3.31878 2.69729   1
  10  -7  -4 -1.7266 5.13057   2
 -10   7   4 -0.9000 4.94422   3
   9  -7  -4 28.2262 5.41619   2
  -9   7   4 17.6521 4.55362   3
   8  -7  -4 21.5465 4.37727   2
  -8   7   4 28.2637 6.48271   3
   7  -7  -4 16.7109 3.68010   2
  -7   7   4 14.3729 3.40552   3
   6  -7  -4 20.2007 5.42086   2
  -6   7   4 25.9961 4.47867   3
   5  -7  -4 58.8328 5.54825   2
  -5   7   4 57.3851 4.61793   3
   4  -7  -4 441.474 14.4651   2
  -4   7   4 430.755 13.6185   3
  -4   7   4 420.399 12.4429   1
   3  -7  -4 25.4260 4.09800   2
  -3   7   4 16.4959 1.88874   1
  -3   7   4 18.1819 3.01187   3
   2  -7  -4 681.220 21.0467   2
  -2   7   4 666.455 20.1106   1
  -2   7   4 732.900 20.1059   3
  -1   7   4 19.3783 1.96540   1
  -1   7   4 17.6555 2.43602   3
   0  -7  -4 467.541 13.9134   3
   0  -7  -4 485.033 14.8694   2
   0   7   4 441.809 13.3922   3
   0   7   4 465.055 13.7463   1
  -1  -7  -4 -2.1376 1.68935   2
  -1  -7  -4 0.92989 1.18245   3
   1   7   4 0.59371 0.97599   1
   1   7   4 0.00927 0.90439   3
  -2  -7  -4 104.788 5.20149   2
   2   7   4 103.800 4.17797   1
  -3  -7  -4 463.997 14.9667   2
   3   7   4 475.332 14.1526   1
  -4  -7  -4 14.1380 3.49556   2
   4   7   4 12.5281 2.12465   1
  -5  -7  -4 2.33030 2.20967   2
   5   7   4 3.78863 1.41473   1
  -6  -7  -4 42.1135 4.80170   2
   6   7   4 42.6440 3.15490   1
  -7  -7  -4 261.736 10.3073   2
   7   7   4 257.489 8.99861   1
  -8  -7  -4 0.56527 2.85116   2
   8   7   4 0.35087 1.75481   1
  -9  -7  -4 20.9481 4.10707   2
   9   7   4 24.6642 3.98859   1
 -10  -7  -4 -2.1257 4.03350   2
  10   7   4 -3.9296 3.02683   2
  10   7   4 -1.5684 2.39049   1
 -11  -7  -4 19.3347 4.81522   2
  11   7   4 6.45546 3.09560   1
  11   7   4 13.0363 4.06652   2
   9  -8  -4 0.38644 4.79435   2
  -9   8   4 8.25711 4.75024   3
   8  -8  -4 58.8100 8.70910   2
  -8   8   4 68.8693 7.76245   3
   7  -8  -4 6.12717 3.76267   2
  -7   8   4 3.75921 3.30902   3
   6  -8  -4 367.555 13.9267   2
  -6   8   4 359.966 12.8977   3
   5  -8  -4 3.36854 2.93966   2
  -5   8   4 5.90584 2.47232   3
   4  -8  -4 168.106 7.99758   2
  -4   8   4 160.909 6.66331   3
  -4   8   4 133.590 5.81449   1
   3  -8  -4 2.16635 2.47049   2
  -3   8   4 12.2252 3.09192   3
  -3   8   4 5.90439 1.34330   1
   2  -8  -4 180.734 7.86344   2
  -2   8   4 169.471 5.92292   1
  -2   8   4 164.042 6.38110   3
   1  -8  -4 186.222 7.99660   2
  -1   8   4 189.221 6.44170   1
   0  -8  -4 103.101 5.85759   2
   0   8   4 110.379 4.38197   1
   0   8   4 111.312 4.30462   3
  -1  -8  -4 547.691 16.3513   3
  -1  -8  -4 584.122 17.8775   2
   1   8   4 564.889 16.2054   3
   1   8   4 584.692 16.8412   1
  -2  -8  -4 0.88488 1.29689   3
  -2  -8  -4 3.12422 2.12246   2
   2   8   4 7.99527 1.98645   1
  -3  -8  -4 52.3922 4.56096   2
   3   8   4 54.7579 3.22215   1
  -4  -8  -4 35.8512 4.42891   2
   4   8   4 38.6167 2.94640   1
  -5  -8  -4 569.760 18.4602   2
   5   8   4 587.103 17.5365   1
  -6  -8  -4 34.1453 5.12232   2
   6   8   4 26.3621 3.27515   1
  -7  -8  -4 8.05873 3.68783   2
   7   8   4 7.18765 1.98158   1
  -8  -8  -4 16.4293 3.57312   2
   8   8   4 13.7769 3.57226   1
  -9  -8  -4 28.7620 6.43096   2
   9   8   4 28.6312 4.28181   1
 -10  -8  -4 67.8356 8.42423   2
  10   8   4 73.1782 7.42973   2
  10   8   4 73.3730 5.86679   1
   8  -9  -4 22.1456 5.54038   2
  -8   9   4 17.0258 4.79250   3
   7  -9  -4 -2.9828 4.14803   2
  -7   9   4 1.23128 3.50947   3
   6  -9  -4 39.7182 6.98486   2
  -6   9   4 41.2703 5.83226   3
   5  -9  -4 9.52116 3.68559   2
  -5   9   4 6.37198 2.90629   3
   4  -9  -4 350.431 13.1536   2
  -4   9   4 336.058 10.6305   1
  -4   9   4 355.739 11.9415   3
   3  -9  -4 26.8484 5.12095   2
  -3   9   4 19.0922 2.57026   1
  -3   9   4 22.8872 3.85540   3
   2  -9  -4 227.732 9.80030   2
  -2   9   4 223.160 7.69935   1
  -2   9   4 236.355 8.23011   3
   1  -9  -4 58.2578 5.80346   2
  -1   9   4 51.1113 3.22074   1
  -1   9   4 44.9097 3.48574   3
   0  -9  -4 175.049 8.11576   2
   0   9   4 168.503 6.13131   3
   0   9   4 168.774 6.24411   1
  -1  -9  -4 29.9188 4.63621   2
   1   9   4 27.0584 2.68282   3
   1   9   4 32.2185 2.79826   1
  -2  -9  -4 140.010 7.24628   2
   2   9   4 157.291 5.85109   1
   2   9   4 147.315 5.02575   3
  -3  -9  -4 80.3639 5.85120   2
   3   9   4 87.4795 4.28323   1
  -4  -9  -4 80.3416 5.79601   2
   4   9   4 69.6984 4.23065   1
  -5  -9  -4 189.576 8.55495   2
   5   9   4 174.144 7.07477   1
  -6  -9  -4 0.89658 3.18537   2
   6   9   4 2.23877 1.85267   1
  -7  -9  -4 -1.7199 3.36617   2
   7   9   4 1.91941 2.00710   1
  -8  -9  -4 4.24329 3.54874   2
   8   9   4 6.43108 2.39320   1
  -9  -9  -4 4.62131 4.11595   2
   9   9   4 6.00119 2.68346   1
 -10  -9  -4 28.6472 5.60096   2
  10   9   4 34.8008 7.16270   2
  10   9   4 37.1002 5.74415   1
   8 -10  -4 25.4175 5.89903   2
  -8  10   4 30.5501 5.69642   3
   7 -10  -4 -7.7580 4.57937   2
  -7  10   4 -2.6603 4.07681   3
   6 -10  -4 154.703 9.96056   2
  -6  10   4 162.972 9.09837   3
   5 -10  -4 3.10828 3.80608   2
  -5  10   4 -2.2702 4.22145   3
   4 -10  -4 230.832 10.5415   2
  -4  10   4 199.005 8.76311   3
   3 -10  -4 1.97299 3.62200   2
  -3  10   4 2.49416 2.53026   3
  -3  10   4 1.04505 1.56728   1
   2 -10  -4 342.817 13.3968   2
  -2  10   4 337.974 10.9229   1
  -2  10   4 328.779 11.2732   3
   1 -10  -4 80.1938 6.98332   2
  -1  10   4 73.7386 4.55148   3
  -1  10   4 81.5476 4.34725   1
   0 -10  -4 58.2068 6.10420   2
   0  10   4 51.7827 3.80175   3
   0  10   4 57.9333 3.71320   1
  -1 -10  -4 64.6385 5.97069   2
   1  10   4 50.4433 3.75851   3
   1  10   4 62.2490 3.85997   1
  -2 -10  -4 23.7797 5.28344   2
   2  10   4 25.0913 3.24849   1
  -3 -10  -4 34.7719 5.53455   2
   3  10   4 30.6523 3.25415   1
  -4 -10  -4 19.6779 5.39539   2
   4  10   4 21.7397 5.23005   1
   5  10   4 77.0022 4.75928   1
  -6 -10  -4 94.0614 7.61298   2
   6  10   4 86.8078 5.48937   1
  -7 -10  -4 -0.2936 3.94487   2
   7  10   4 2.82778 2.24565   1
  -8 -10  -4 -3.3677 3.97396   2
   8  10   4 -3.4189 2.34117   1
  -9 -10  -4 7.15281 4.67947   2
   9  10   4 14.5586 3.08619   1
   7 -11  -4 -6.6631 5.27400   2
  -7  11   4 -2.3537 4.74089   3
   6 -11  -4 42.2743 8.60514   2
  -6  11   4 45.2460 7.85473   3
   5 -11  -4 6.64768 4.73733   2
  -5  11   4 3.82448 3.67925   3
   4 -11  -4 50.4385 8.07804   2
  -4  11   4 45.6880 6.51340   3
   3 -11  -4 52.5158 7.97342   2
  -3  11   4 53.1720 4.27389   1
  -3  11   4 50.1786 5.60376   3
   2 -11  -4 14.4340 4.58794   2
  -2  11   4 8.29356 2.77952   3
  -2  11   4 8.64942 2.09588   1
  -1  11   4 6.80063 2.59205   3
  -1  11   4 8.74854 2.07568   1
   0 -11  -4 0.62116 3.50346   2
   0  11   4 1.48944 1.80735   1
   0  11   4 0.34353 2.25239   3
  -1 -11  -4 -8.2038 3.37203   2
   1  11   4 2.00882 1.86614   1
  -2 -11  -4 -7.7780 3.34451   2
   2  11   4 1.31709 1.87933   1
   3  11   4 34.3760 3.73429   1
  -4 -11  -4 193.997 9.77087   2
   4  11   4 185.931 7.94495   1
  -5 -11  -4 -1.7628 3.69091   2
   5  11   4 -1.4604 2.06492   1
  -6 -11  -4 3.82685 4.08328   2
  -7 -11  -4 4.74354 4.64255   2
   7  11   4 4.69026 2.54736   1
  -8 -11  -4 95.4977 9.52781   2
   8  11   4 92.6744 6.66661   1
   5 -12  -4 33.6810 6.48575   2
  -5  12   4 19.6102 4.83749   3
   4 -12  -4 19.8804 5.55866   2
  -4  12   4 20.1597 4.30222   3
   3 -12  -4 1.89832 5.25581   2
  -3  12   4 11.1667 3.63713   3
   2 -12  -4 5.92779 4.91640   2
  -2  12   4 -0.7582 2.31909   1
  -2  12   4 3.46303 3.22230   3
   1 -12  -4 78.6742 8.30034   2
  -1  12   4 73.7181 6.66291   1
   0 -12  -4 4.93839 4.25377   2
   0  12   4 0.31326 2.13864   1
  -1 -12  -4 21.1495 4.78393   2
   1  12   4 27.7159 3.87672   1
  -2 -12  -4 71.9817 7.79886   2
   2  12   4 75.7258 5.14309   1
  -3 -12  -4 76.5445 8.31069   2
   3  12   4 75.9693 5.35812   1
  -4 -12  -4 1.20382 4.48810   2
   4  12   4 2.13362 2.41583   1
  -5 -12  -4 7.98459 4.76720   2
   5  12   4 5.43794 2.68107   1
  -6 -12  -4 45.7071 9.17258   2
   6  12   4 46.5844 5.58213   1
  -7 -12  -4 0.39601 5.34857   2
   7  12   4 1.94879 3.09138   1
   4 -13  -4 1.37342 6.63546   2
   3 -13  -4 198.010 13.2630   2
   2 -13  -4 -0.4992 5.57175   2
  -2  13   4 -0.7743 2.71109   1
   1 -13  -4 71.2989 9.39126   2
  -1  13   4 72.2546 5.90057   1
   0 -13  -4 5.58688 5.22018   2
   0  13   4 13.1551 2.95513   1
  -1 -13  -4 110.469 10.3201   2
   1  13   4 118.169 6.67479   1
  -2 -13  -4 -4.9398 4.85295   2
   2  13   4 5.21485 2.77937   1
  -3 -13  -4 0.23865 5.04038   2
   3  13   4 11.4306 3.07554   1
  -4 -13  -4 23.4169 5.48449   2
   4  13   4 31.1760 5.40464   1
  -5 -13  -4 -4.5536 5.14667   2
   5  13   4 -6.3389 2.85143   1
   0 -14  -4 7.16045 6.01788   2
   0  14   4 -2.0041 3.23054   1
  -1 -14  -4 1.55517 5.85783   2
   1  14   4 3.44685 3.38923   1
  -2 -14  -4 36.9596 10.0655   2
   2  14   4 44.7913 6.11145   1
   3  12  -5 17.8503 5.05622   3
  -3 -12   5 16.0939 4.65281   1
   2  12  -5 44.5678 6.54075   1
   2  12  -5 34.7307 8.03985   3
  -2 -12   5 40.5608 7.81038   1
   1  12  -5 0.64352 3.21118   1
   1  12  -5 8.03344 4.43830   3
  -1 -12   5 -2.6149 3.72310   1
   0  12  -5 3.92552 3.06289   1
   0  12  -5 9.15258 4.31037   3
   0 -12   5 0.95893 3.77170   1
  -1  12  -5 15.3856 3.45362   1
  -1  12  -5 19.9624 4.98981   3
   1 -12   5 16.7177 3.96449   1
  -2  12  -5 -1.5675 2.91009   1
   2 -12   5 1.68126 3.84483   1
  -3  12  -5 -1.2393 3.29380   1
  -3  12  -5 -2.0272 5.05541   3
   3 -12   5 4.14412 3.98491   1
   5  11  -5 4.68626 3.31731   1
   5  11  -5 8.37437 4.65985   3
  -5 -11   5 0.70007 4.19793   1
   4  11  -5 2.21377 4.52415   3
   4  11  -5 24.9871 5.49676   1
  -4 -11   5 9.49965 3.95493   1
   3  11  -5 -1.8392 2.79971   1
   3  11  -5 -4.5056 3.76695   3
  -3 -11   5 0.18656 3.36982   1
   2  11  -5 -1.8370 2.57642   1
   2  11  -5 2.27394 3.51517   3
  -2 -11   5 -0.5401 3.10373   1
   1  11  -5 -0.6641 2.51191   1
   1  11  -5 5.07535 3.75874   3
  -1 -11   5 1.55802 3.22445   1
   0  11  -5 -0.3682 3.56700   3
   0 -11   5 -6.2307 3.06432   1
  -1  11  -5 10.2973 3.88364   3
   1 -11   5 1.70032 3.24472   1
  -2  11  -5 9.51033 4.11459   3
   2 -11   5 -0.7796 3.18613   1
  -3  11  -5 17.8183 4.61932   3
   3 -11   5 8.86167 3.75473   1
  -4  11  -5 15.9390 4.92674   3
   4 -11   5 3.32655 3.62348   1
  -5  11  -5 8.46584 4.89368   3
   5 -11   5 2.01597 3.94838   1
   6  10  -5 -0.3760 2.86388   1
   6  10  -5 5.14664 4.50285   3
  -6 -10   5 2.43085 3.80712   1
   5  10  -5 2.72912 4.15774   3
   5  10  -5 -0.0633 2.81444   1
  -5 -10   5 -1.8749 3.34352   1
   4  10  -5 3.84721 2.76248   1
   4  10  -5 6.68375 3.68373   3
  -4 -10   5 3.40461 3.37031   1
   3  10  -5 7.82040 2.68867   1
   3  10  -5 6.37249 3.45403   3
  -3 -10   5 6.45601 2.91504   1
   2  10  -5 19.9957 3.77930   3
  -2 -10   5 20.0444 4.78566   1
   1  10  -5 -0.2446 2.92798   3
  -1 -10   5 -0.0811 2.60163   1
   0  10  -5 3.39282 3.16621   3
   0 -10   5 8.73497 2.90071   1
  -1  10  -5 21.8470 5.85079   3
   1 -10   5 41.7497 5.12476   1
  -2  10  -5 46.8333 6.19212   3
   2 -10   5 45.2593 5.44232   1
  -3  10  -5 26.3874 6.25660   3
   3 -10   5 16.7156 3.27457   1
  -4  10  -5 40.0716 7.38403   3
   4 -10   5 33.3376 5.40600   1
  -5  10  -5 -4.7534 3.73382   3
   5 -10   5 1.30410 3.05664   1
  -6  10  -5 52.3706 8.99817   3
  -7  10  -5 -5.4425 4.76682   3
   7   9  -5 9.05989 4.37674   3
   7   9  -5 2.43589 2.96231   1
  -7  -9   5 3.96044 3.80994   1
   6   9  -5 -3.7327 3.71950   3
   6   9  -5 -0.7813 2.75969   1
  -6  -9   5 -5.4209 3.35498   1
   5   9  -5 -2.8739 2.24851   1
   5   9  -5 1.88474 3.51534   3
  -5  -9   5 -5.2360 2.74804   1
   4   9  -5 6.28640 3.32276   3
   4   9  -5 6.01548 2.36240   1
  -4  -9   5 5.86689 2.75753   1
   3   9  -5 22.3769 5.30628   3
  -3  -9   5 14.9299 3.09513   1
   2   9  -5 -0.2789 2.65845   3
  -2  -9   5 1.03200 2.47172   1
   1   9  -5 6.96532 2.77669   3
  -1  -9   5 10.1594 2.48609   1
   0   9  -5 115.280 6.43598   3
   0  -9   5 99.1254 9.56375   1
  -1   9  -5 140.634 7.19882   3
   1  -9   5 148.563 7.02037   1
   2  -9   5 29.9936 4.42214   1
  -3   9  -5 -0.7999 3.01176   3
   3  -9   5 3.05399 2.25026   1
  -4   9  -5 75.6918 6.69038   3
   4  -9   5 66.6378 5.12254   1
  -5   9  -5 5.25508 3.55244   3
   5  -9   5 18.3106 4.74854   1
  -6   9  -5 2.87895 3.91732   3
   6  -9   5 1.32250 2.85390   1
  -7   9  -5 3.89552 4.19250   3
  -8   9  -5 15.1660 4.89752   3
   8   8  -5 8.61602 4.17854   3
   8   8  -5 0.59841 2.87490   1
  -8  -8   5 2.42697 3.85659   1
   7   8  -5 6.37863 3.96185   3
   7   8  -5 5.15409 2.66039   1
  -7  -8   5 3.60318 3.29214   1
   6   8  -5 5.00672 2.48453   1
   6   8  -5 11.7424 3.94156   3
  -6  -8   5 6.85588 2.93698   1
   5   8  -5 47.2630 4.41116   1
   5   8  -5 53.4696 5.88900   3
  -5  -8   5 45.2039 5.02094   1
   4   8  -5 15.7338 3.30485   3
  -4  -8   5 9.88206 2.75241   1
   3   8  -5 85.9258 5.71663   3
  -3  -8   5 84.6951 5.38022   1
   2   8  -5 93.8279 5.73135   3
  -2  -8   5 80.0979 5.21487   1
   1   8  -5 143.632 6.82139   3
  -1  -8   5 144.309 6.53937   1
   0   8  -5 5.99431 2.29198   3
   0  -8   5 -0.2514 1.86598   1
  -1   8  -5 4.55471 2.28024   3
   1  -8   5 5.00827 1.98695   1
  -2   8  -5 114.766 6.50898   3
   2  -8   5 131.742 5.95939   1
  -3   8  -5 10.5674 2.83539   3
   3  -8   5 6.09743 2.04687   1
   4  -8   5 3.23594 3.05408   2
   4  -8   5 5.86820 2.16654   1
  -5   8  -5 28.6451 5.75192   3
   5  -8   5 14.9682 3.77840   2
   5  -8   5 12.4442 2.52443   1
  -6   8  -5 139.676 8.22749   3
   6  -8   5 121.949 6.36919   1
   6  -8   5 135.663 8.26795   2
  -7   8  -5 2.91533 3.69381   3
   7  -8   5 2.69896 4.52230   2
  -8   8  -5 11.3373 4.21568   3
  -9   8  -5 3.58796 4.69360   3
   9   7  -5 -5.2535 4.21371   3
   9   7  -5 -5.0783 2.94916   1
  -9  -7   5 0.38417 3.98665   1
   8   7  -5 -2.1737 2.56655   1
   8   7  -5 3.95080 3.89467   3
  -8  -7   5 -1.2900 3.36573   1
   7   7  -5 93.2364 5.59004   1
   7   7  -5 77.6881 6.67710   3
  -7  -7   5 76.7320 6.49877   1
   6   7  -5 77.6997 5.94015   3
   6   7  -5 72.8118 5.17214   2
   5   7  -5 19.0291 3.04799   2
   5   7  -5 13.8656 3.10626   3
  -5  -7   5 15.3291 3.99491   1
   4   7  -5 11.4406 2.72919   2
   4   7  -5 9.19183 2.63308   3
  -4  -7   5 6.97416 2.31530   1
  -4  -7   5 15.2473 3.22904   2
   3   7  -5 5.52220 2.32208   3
   3   7  -5 4.47863 1.38939   2
  -3  -7   5 3.24688 1.63874   2
  -3  -7   5 2.82477 2.04200   1
   2   7  -5 -1.5636 1.90070   3
  -2  -7   5 1.26322 1.70751   1
   1   7  -5 13.0918 2.43450   3
  -1  -7   5 7.97981 1.99459   1
   0   7  -5 513.319 16.0632   3
   0  -7   5 513.022 15.8758   1
  -1   7  -5 153.840 6.66780   3
   1  -7   5 161.180 6.41985   1
  -2   7  -5 3.30892 2.05463   3
   2  -7   5 0.96953 1.54748   1
   2  -7   5 0.17379 1.59832   2
  -3   7  -5 5.75099 2.19270   3
   3  -7   5 6.69404 2.03724   2
  -4   7  -5 216.057 8.84085   3
   4  -7   5 222.728 8.13988   2
   4  -7   5 222.234 8.01633   1
  -5   7  -5 7.80832 2.98960   3
   5  -7   5 10.0218 2.12747   1
   5  -7   5 10.2880 2.67562   2
  -6   7  -5 2.46034 2.83532   3
   6  -7   5 0.88718 2.76190   2
   6  -7   5 1.73014 1.94928   1
  -7   7  -5 7.48711 3.36843   3
   7  -7   5 -4.3749 3.27743   2
   7  -7   5 2.44881 2.19974   1
  -8   7  -5 11.0494 3.96496   3
   8  -7   5 10.0096 4.04866   2
  -9   7  -5 16.0313 4.55184   3
   9  -7   5 21.8473 4.86791   2
  10   6  -5 -1.4652 4.83388   3
 -10  -6   5 5.90723 4.68963   3
   9   6  -5 30.4498 7.25246   2
   9   6  -5 8.04765 2.94752   1
   9   6  -5 8.67430 4.36202   3
  -9  -6   5 13.8519 4.30975   3
  -9  -6   5 12.2896 3.79163   1
   8   6  -5 -2.1044 2.64046   2
   8   6  -5 -1.1579 3.27083   3
  -8  -6   5 -0.9445 3.29885   3
   7   6  -5 36.0651 4.02783   1
   7   6  -5 27.3866 3.94313   2
   7   6  -5 25.7097 5.28536   3
  -7  -6   5 26.6197 4.92323   1
   6   6  -5 8.07039 2.05124   2
   6   6  -5 7.27414 2.90602   3
   6   6  -5 6.33882 2.09964   1
  -6  -6   5 8.57290 2.39239   1
   5   6  -5 180.429 6.48890   2
   5   6  -5 182.471 7.80586   3
  -5  -6   5 184.135 6.72713   2
  -5  -6   5 187.182 7.59376   1
   4   6  -5 83.1780 5.11465   3
   4   6  -5 88.2213 3.76742   2
  -4  -6   5 87.5335 5.02625   1
  -4  -6   5 82.6022 4.11003   2
   3   6  -5 259.840 9.26898   3
   3   6  -5 252.401 7.78430   2
  -3  -6   5 266.366 9.12710   1
  -3  -6   5 255.427 7.95803   2
   2   6  -5 87.7189 4.72171   3
  -2  -6   5 72.3981 4.19188   1
   1   6  -5 159.000 6.39247   3
  -1  -6   5 151.771 6.08792   1
   0   6  -5 156.357 6.32732   3
   0  -6   5 157.610 6.14646   1
  -1   6  -5 130.237 5.65958   3
   1  -6   5 127.436 5.28616   1
  -2   6  -5 251.313 8.94448   3
  -2   6  -5 247.539 7.56141   2
   2  -6   5 251.485 7.80027   2
   2  -6   5 259.673 8.53842   1
   2  -6   5 247.019 7.74228   2
  -3   6  -5 21.8140 3.50939   3
   3  -6   5 24.4063 2.84002   1
   3  -6   5 23.7355 3.08039   2
  -4   6  -5 185.692 7.64478   3
   4  -6   5 195.821 6.88754   1
  -5   6  -5 29.8190 4.50912   3
   5  -6   5 31.2832 3.14449   1
   5  -6   5 29.2063 3.94309   2
  -6   6  -5 32.7388 4.70996   3
   6  -6   5 32.2080 4.46019   2
   6  -6   5 30.2405 3.30069   1
  -7   6  -5 45.4369 5.73212   3
   7  -6   5 34.0285 3.70897   1
   7  -6   5 32.6811 5.17378   2
  -8   6  -5 -3.0086 3.00590   3
   8  -6   5 -1.9898 3.19825   2
  -9   6  -5 5.63725 3.81917   3
   9  -6   5 -2.4795 3.79701   2
 -10   6  -5 8.66683 4.95513   3
  10  -6   5 5.97101 4.78656   2
  10   5  -5 7.82084 4.49350   3
  10   5  -5 6.49792 4.29692   2
 -10  -5   5 5.76350 4.36309   3
   9   5  -5 4.64848 3.72425   3
   9   5  -5 1.40265 2.55329   1
  -9  -5   5 2.62856 3.72825   3
  -9  -5   5 5.06260 3.47227   1
   8   5  -5 19.2733 3.72298   3
   8   5  -5 14.9924 3.76389   1
   8   5  -5 30.7515 4.80400   2
  -8  -5   5 25.4163 4.96858   1
  -8  -5   5 21.8041 5.69867   3
   7   5  -5 274.302 9.46656   2
   7   5  -5 273.152 9.50036   1
   7   5  -5 274.384 10.6533   3
  -7  -5   5 271.615 10.5214   3
  -7  -5   5 270.886 10.1135   1
   6   5  -5 -0.3291 2.24645   3
   6   5  -5 -1.1849 1.67666   2
  -6  -5   5 2.45030 2.26101   3
  -6  -5   5 -1.9178 1.88086   1
   5   5  -5 2.51838 2.07823   3
   5   5  -5 2.17945 1.51767   2
  -5  -5   5 0.80958 1.74453   1
   4   5  -5 10.7035 2.21280   2
   4   5  -5 9.56563 2.13348   3
  -4  -5   5 11.7377 2.87171   1
  -4  -5   5 11.7210 2.51304   2
   3   5  -5 180.655 6.12021   2
   3   5  -5 181.624 5.73387   2
   3   5  -5 191.328 7.02968   3
  -3  -5   5 188.759 6.84085   1
  -3  -5   5 173.869 5.85734   2
   2   5  -5 29.3112 3.19325   3
  -2  -5   5 20.9494 2.56837   1
   1   5  -5 103.142 4.81819   3
  -1  -5   5 104.018 4.49659   1
   0   5  -5 42.5837 3.25001   3
   0  -5   5 42.4765 2.84817   1
  -1   5  -5 197.987 7.17142   3
   1  -5   5 197.016 6.83765   1
  -2   5  -5 498.031 14.0286   2
  -2   5  -5 502.273 15.2354   3
   2  -5   5 502.475 15.3702   2
   2  -5   5 481.470 14.1145   2
   2  -5   5 511.678 14.8992   1
  -3   5  -5 4.59162 1.37209   2
  -3   5  -5 2.08640 1.71627   3
   3  -5   5 4.23640 1.29112   1
   3  -5   5 3.67632 1.63884   2
   3  -5   5 6.33774 1.63097   2
  -4   5  -5 442.553 13.9643   3
   4  -5   5 429.980 13.1994   2
   4  -5   5 438.614 13.2285   1
  -5   5  -5 64.0168 4.67039   3
   5  -5   5 64.9634 3.56188   1
   5  -5   5 64.1231 4.21824   2
  -6   5  -5 12.7454 2.63003   3
   6  -5   5 11.0825 2.63260   1
   6  -5   5 16.8121 3.80068   2
  -7   5  -5 46.2371 5.08248   3
   7  -5   5 44.9016 4.90508   2
   7  -5   5 36.5741 3.32923   1
  -8   5  -5 27.4801 5.23788   3
   8  -5   5 13.9235 3.27213   2
  -9   5  -5 110.541 7.93278   3
   9  -5   5 101.586 7.40292   2
 -10   5  -5 0.96309 4.16146   3
  10  -5   5 2.70701 4.00503   2
 -11   5  -5 3.97283 5.10663   3
  11  -5   5 6.67748 5.04604   2
  10   4  -5 11.6412 4.22772   2
  10   4  -5 16.6269 4.49702   3
 -10  -4   5 12.4083 4.45495   3
   9   4  -5 20.3855 3.82728   1
   9   4  -5 19.8242 3.93680   3
   9   4  -5 21.6752 4.00532   2
  -9  -4   5 14.7385 3.86044   3
   8   4  -5 25.3862 4.70313   2
   8   4  -5 19.4051 3.31119   1
  -8  -4   5 26.7652 4.54090   1
   7   4  -5 33.3886 3.77820   2
   7   4  -5 27.0325 4.83905   3
   7   4  -5 26.6503 3.11167   1
  -7  -4   5 24.8207 3.85970   1
  -7  -4   5 29.5710 4.80645   3
   6   4  -5 40.0849 3.32197   2
   6   4  -5 35.6074 4.33879   3
  -6  -4   5 36.4821 3.74945   1
  -6  -4   5 36.9265 4.26217   3
   5   4  -5 223.219 7.43124   2
   5   4  -5 230.962 8.49943   3
  -5  -4   5 228.158 8.17191   1
  -5  -4   5 234.129 8.57540   3
   4   4  -5 55.1804 3.67453   3
   4   4  -5 50.7390 2.68541   2
  -4  -4   5 47.6820 3.77214   3
  -4  -4   5 51.0944 3.41451   1
   3   4  -5 47.6480 3.35495   3
   3   4  -5 45.6987 2.24284   2
   3   4  -5 48.6502 2.92016   2
  -3  -4   5 49.9901 3.16285   1
   2   4  -5 0.33717 1.35656   3
   2   4  -5 3.27851 0.94250   2
  -2  -4   5 1.02375 1.17062   1
   1   4  -5 24.5844 2.55663   3
  -1  -4   5 22.3450 2.17859   1
   0   4  -5 12.9007 2.19517   3
   0  -4   5 10.7366 1.77867   1
  -1   4  -5 163.658 6.03293   3
   1  -4   5 166.804 5.78085   1
  -2   4  -5 323.018 10.3389   3
   2  -4   5 325.028 9.35452   2
   2  -4   5 320.512 9.42316   2
   2  -4   5 325.137 9.96385   1
  -3   4  -5 665.395 19.7020   3
   3  -4   5 676.411 18.9752   2
   3  -4   5 645.629 18.9417   2
   3  -4   5 688.310 19.3048   1
  -4   4  -5 560.405 16.8231   3
   4  -4   5 555.985 16.1479   1
   4  -4   5 542.235 16.0802   2
  -5   4  -5 33.5787 3.75112   3
   5  -4   5 37.9540 3.20725   2
   5  -4   5 33.6070 2.70011   1
  -6   4  -5 25.0019 3.64581   3
   6  -4   5 25.9206 2.61728   1
   6  -4   5 20.6880 3.35166   2
  -7   4  -5 81.1823 5.64339   3
   7  -4   5 90.9864 5.25291   2
   7  -4   5 84.0706 4.10383   1
   8  -4   5 25.1603 4.86391   2
   8  -4   5 26.2152 3.07877   1
  -9   4  -5 2.39120 3.19011   3
   9  -4   5 0.91768 4.93572   2
 -10   4  -5 4.94258 4.07091   3
  10  -4   5 -1.9030 3.79268   2
 -11   4  -5 6.25087 4.62635   3
  11  -4   5 6.24343 4.86767   2
  11   3  -5 12.8430 4.95276   2
  11   3  -5 4.98561 4.51204   3
 -11  -3   5 -1.3956 4.57474   3
  10   3  -5 12.8652 4.15281   2
  10   3  -5 14.3851 4.02303   3
 -10  -3   5 10.0412 4.06013   3
   9   3  -5 4.32653 3.19308   3
   9   3  -5 4.75539 3.21424   2
  -9  -3   5 1.92500 3.28131   3
   8   3  -5 34.9261 3.22419   1
   8   3  -5 34.6710 4.74043   2
   8   3  -5 30.3896 5.17507   3
  -8  -3   5 36.4083 5.20346   3
  -8  -3   5 43.3653 4.15174   1
   7   3  -5 40.9336 4.12759   2
   7   3  -5 47.9929 4.77092   3
   7   3  -5 46.4902 3.19700   1
  -7  -3   5 48.5004 3.86833   1
  -7  -3   5 48.4315 4.72823   3
   6   3  -5 184.094 7.43828   3
   6   3  -5 179.576 6.69436   2
  -6  -3   5 191.389 7.55802   3
  -6  -3   5 185.143 6.92547   1
   5   3  -5 78.2738 3.76308   2
   5   3  -5 83.4257 4.64058   3
  -5  -3   5 82.5743 4.68101   3
  -5  -3   5 88.5368 4.14674   1
   4   3  -5 65.5964 3.84476   3
   4   3  -5 56.8222 2.88845   2
  -4  -3   5 61.3812 3.32007   1
  -4  -3   5 62.2395 3.84997   3
   3   3  -5 310.362 9.60548   2
   3   3  -5 321.786 9.33294   2
   3   3  -5 320.091 10.3202   3
  -3  -3   5 321.847 9.98295   1
  -3  -3   5 320.835 10.3177   3
   2   3  -5 268.800 7.84506   2
   2   3  -5 277.485 8.02002   2
   2   3  -5 272.290 8.89894   3
  -2  -3   5 281.047 8.73577   1
   1   3  -5 6.78209 1.45253   3
  -1  -3   5 7.01273 1.58680   1
   0   3  -5 761.873 21.9702   3
   0  -3   5 767.907 21.7917   1
  -1   3  -5 742.220 21.3525   3
   1  -3   5 743.473 21.1993   1
  -2   3  -5 1499.16 41.8463   3
   2  -3   5 1513.60 41.6448   1
   2  -3   5 1526.61 41.0345   2
   2  -3   5 1458.01 40.9914   2
  -3   3  -5 370.096 11.1803   3
   3  -3   5 355.280 10.4207   2
   3  -3   5 359.918 10.8064   1
   3  -3   5 345.937 10.5355   2
  -4   3  -5 49.3866 3.25522   3
   4  -3   5 49.0549 2.68746   1
   4  -3   5 54.3197 2.76047   2
  -5   3  -5 273.273 9.51191   3
   5  -3   5 287.073 8.79671   1
   5  -3   5 280.461 8.90389   2
  -6   3  -5 69.1241 4.29555   3
   6  -3   5 64.9604 3.82459   2
   6  -3   5 62.5001 3.27957   1
  -7   3  -5 1.07685 2.15014   3
   7  -3   5 -1.5621 1.84209   2
   7  -3   5 0.32539 1.33245   1
  -8   3  -5 63.4070 5.12307   3
   8  -3   5 67.0394 3.64990   1
   8  -3   5 59.7111 4.98658   2
  -9   3  -5 24.3074 4.92382   3
   9  -3   5 34.0142 5.49487   2
 -10   3  -5 6.43633 3.59326   3
  10  -3   5 10.0915 3.73048   2
 -11   3  -5 0.63033 4.11052   3
  11  -3   5 -1.3221 4.24394   2
  11   2  -5 -3.8336 4.81020   2
  11   2  -5 8.47132 4.26855   3
 -11  -2   5 2.76190 4.55595   3
  10   2  -5 4.53991 3.87919   2
  10   2  -5 3.74278 3.69628   3
 -10  -2   5 1.77114 3.69752   3
   9   2  -5 6.48678 3.65453   2
   9   2  -5 4.71782 3.01408   3
  -9  -2   5 3.65164 3.19124   3
   8   2  -5 162.911 5.99889   1
   8   2  -5 170.427 7.75246   3
   8   2  -5 174.164 7.48854   2
  -8  -2   5 163.618 6.61677   1
  -8  -2   5 167.773 7.89283   3
   7   2  -5 7.09089 1.47066   1
   7   2  -5 11.4480 2.50558   3
   7   2  -5 9.04323 2.13110   2
  -7  -2   5 8.38942 1.89963   1
  -7  -2   5 9.25700 2.48568   3
   6   2  -5 3.06273 1.73520   2
   6   2  -5 1.82065 1.95147   3
  -6  -2   5 3.04083 1.56167   1
  -6  -2   5 2.89194 1.94505   3
   5   2  -5 11.9340 2.82641   3
   5   2  -5 16.2955 2.47508   2
  -5  -2   5 11.3503 2.04985   3
  -5  -2   5 9.64779 2.31791   1
   4   2  -5 2505.09 69.1061   3
   4   2  -5 2450.75 68.4524   2
  -4  -2   5 2523.42 68.9056   1
  -4  -2   5 2518.57 69.1705   3
   3   2  -5 552.597 16.2946   3
   3   2  -5 532.616 15.7733   2
   3   2  -5 550.430 15.5597   2
  -3  -2   5 559.819 16.3559   3
   2   2  -5 484.717 14.4554   3
   2   2  -5 492.704 13.6164   2
   2   2  -5 475.666 13.6891   2
  -2  -2   5 492.675 14.4723   3
  -2  -2   5 475.575 14.2310   1
   0   2  -5 441.367 12.9619   3
   0  -2   5 429.915 12.7858   1
  -1   2  -5 171.971 5.78610   3
   1  -2   5 165.718 5.59770   1
  -2   2  -5 283.548 8.93437   3
  -2   2  -5 287.457 8.27111   2
   2  -2   5 281.832 8.74261   1
   2  -2   5 286.073 8.19142   2
   2  -2   5 289.845 8.32274   2
  -3   2  -5 1252.15 34.0452   2
  -3   2  -5 1164.54 34.9916   3
   3  -2   5 1210.96 34.0709   2
   3  -2   5 1282.48 33.9635   2
   3  -2   5 1241.36 34.2892   1
  -4   2  -5 160.811 5.63449   2
  -4   2  -5 165.502 5.97902   3
   4  -2   5 159.785 5.44664   2
  -5   2  -5 229.609 7.82065   2
  -5   2  -5 229.702 7.99786   3
   5  -2   5 233.085 7.53749   2
  -6   2  -5 137.523 5.79444   3
   6  -2   5 140.079 5.41879   2
   6  -2   5 133.015 4.97617   1
  -7   2  -5 301.224 10.2956   3
   7  -2   5 294.471 9.29794   1
   7  -2   5 292.870 9.81337   2
  -8   2  -5 7.18020 2.54581   3
   8  -2   5 6.59425 2.26175   2
   8  -2   5 6.61914 1.64981   1
  -9   2  -5 32.0533 5.42736   3
   9  -2   5 46.3209 4.83700   2
   9  -2   5 31.6423 3.58799   1
 -10   2  -5 2.55935 3.30984   3
  10  -2   5 5.98347 3.25780   2
 -11   2  -5 19.7091 4.57613   3
  11  -2   5 9.53096 4.39635   2
 -12   2  -5 6.53626 5.03514   3
  12  -2   5 16.2829 5.21059   2
  11   1  -5 -2.2221 4.54748   2
 -11  -1   5 0.64846 4.50360   3
  10   1  -5 25.5092 4.52060   2
 -10  -1   5 25.7044 6.83601   3
   9   1  -5 1.45874 5.96542   2
  -9  -1   5 4.10779 3.12091   3
   8   1  -5 -0.5628 2.54023   2
   8   1  -5 2.43053 1.90047   1
  -8  -1   5 -0.0667 2.58959   3
   7   1  -5 101.884 5.36758   2
   7   1  -5 101.453 4.06398   1
  -7  -1   5 100.506 4.64580   1
  -7  -1   5 107.091 5.69155   3
   6   1  -5 890.500 26.1098   2
  -6  -1   5 920.895 25.7397   1
  -6  -1   5 916.557 26.6413   3
   5   1  -5 1.86672 1.67917   3
   5   1  -5 7.21390 1.61759   2
  -5  -1   5 3.96497 1.67112   3
  -5  -1   5 3.39183 1.17595   1
   4   1  -5 103.415 4.54289   3
   4   1  -5 104.090 4.14667   2
  -4  -1   5 104.656 4.03636   1
  -4  -1   5 105.502 4.57992   3
   3   1  -5 53.0102 2.63636   2
   3   1  -5 54.5440 3.08807   2
   3   1  -5 59.2686 3.21534   3
  -3  -1   5 55.8478 2.91958   2
  -3  -1   5 54.2760 2.69022   1
  -3  -1   5 59.9001 3.20413   3
   2   1  -5 2838.62 78.2726   2
   2   1  -5 2775.11 79.2855   3
   2   1  -5 3038.44 78.2882   2
  -2  -1   5 2859.98 78.5575   1
  -2  -1   5 2939.41 78.2079   2
  -2  -1   5 2779.02 79.3427   3
   1   1  -5 99.0340 3.90803   3
   1   1  -5 102.380 3.25459   2
  -1  -1   5 97.4062 3.94333   3
  -1  -1   5 96.6232 3.14685   2
  -1  -1   5 98.9346 3.65859   1
   0   1  -5 278.556 8.65767   3
   0   1  -5 293.305 7.98318   2
   0  -1   5 281.660 8.57982   1
   0  -1   5 279.003 8.02642   2
  -1   1  -5 132.328 4.51084   3
  -1   1  -5 127.912 3.88353   2
   1  -1   5 120.663 3.83212   2
   1  -1   5 121.602 4.34080   1
   2  -1   5 12.2911 1.48986   2
  -3   1  -5 137.766 4.96793   3
  -3   1  -5 146.933 4.80725   2
   3  -1   5 139.130 4.86104   2
   3  -1   5 139.431 4.63532   2
   3  -1   5 135.075 4.77449   1
  -4   1  -5 159.069 5.63468   2
   4  -1   5 156.985 5.41287   1
   4  -1   5 164.434 5.42681   2
  -5   1  -5 965.974 27.5136   3
  -5   1  -5 957.378 27.4821   2
   5  -1   5 973.543 27.2676   2
  -6   1  -5 22.1096 3.15906   2
  -6   1  -5 25.0462 2.96995   3
   6  -1   5 20.1947 2.21994   1
   6  -1   5 20.9509 2.57726   2
  -7   1  -5 226.616 8.37265   3
  -7   1  -5 248.560 8.70785   2
   7  -1   5 226.770 7.65738   1
   7  -1   5 236.219 8.26132   2
  -8   1  -5 86.9402 5.30689   3
  -8   1  -5 84.4852 5.33166   2
   8  -1   5 78.3443 3.97319   1
   8  -1   5 82.6193 4.83742   2
  -9   1  -5 0.09153 2.49533   3
   9  -1   5 0.00758 1.66474   1
   9  -1   5 0.32692 2.29975   2
 -10   1  -5 2.98174 3.52922   3
  10  -1   5 4.58574 2.95148   2
 -11   1  -5 -3.6949 3.80378   3
  11  -1   5 5.15611 3.56329   2
 -12   1  -5 4.57519 4.71769   3
  12  -1   5 1.17038 4.29387   2
  11   0  -5 6.78673 4.62128   2
 -11   0   5 6.22691 4.64534   3
  10   0  -5 -1.0993 3.70322   2
 -10   0   5 2.72260 3.66936   3
   9   0  -5 0.96033 3.35442   2
  -9   0   5 4.56345 3.10993   3
   8   0  -5 86.9082 5.97317   2
  -8   0   5 84.9894 5.86027   3
   7   0  -5 31.7847 4.11370   2
   7   0  -5 26.5025 2.10350   1
  -7   0   5 29.6490 2.80848   1
  -7   0   5 36.9740 4.21373   3
   6   0  -5 28.5430 3.36313   2
  -6   0   5 26.1808 2.44813   1
  -6   0   5 29.6563 3.46991   3
   5   0  -5 110.922 4.72032   2
  -5   0   5 111.591 4.07574   1
  -5   0   5 109.096 4.95418   3
   4   0  -5 2069.10 58.0181   2
  -4   0   5 2137.27 57.6286   1
  -4   0   5 2096.50 58.2506   3
  -3   0   5 14.7045 2.12822   3
  -3   0   5 15.6746 1.61836   1
   2   0  -5 1.99829 0.94464   2
   2   0  -5 2.40357 1.04581   3
  -2   0   5 0.97811 0.78192   1
  -2   0   5 0.82018 1.04211   3
  -2   0   5 1.70188 0.95569   2
   1   0  -5 14.4840 1.71659   3
  -1   0   5 12.2159 1.57486   2
  -1   0   5 16.0408 1.73641   3
   0   0  -5 2318.67 62.0084   2
   0   0  -5 2247.88 62.6967   3
   0   0  -5 2270.39 62.3365   3
   0   0   5 2216.93 62.5436   3
   0   0   5 2288.32 62.3374   1
   0   0   5 2304.87 62.0496   2
  -1   0  -5 66.0493 2.74514   3
  -1   0  -5 66.6241 2.48849   2
   1   0   5 64.9172 2.73585   3
   1   0   5 66.5383 2.72570   1
   1   0   5 63.4688 2.46253   2
  -2   0  -5 770.600 20.9053   2
  -2   0  -5 744.439 20.9519   3
   2   0   5 739.724 20.8285   2
   2   0   5 753.505 21.0415   1
   2   0   5 716.515 20.8894   3
  -3   0  -5 187.222 6.12589   2
  -3   0  -5 188.306 6.06687   3
   3   0   5 195.974 6.04969   1
   3   0   5 180.003 6.12906   2
  -4   0  -5 413.256 12.2283   2
  -4   0  -5 392.982 11.9535   3
   4   0   5 403.030 11.9670   2
   4   0   5 410.066 11.9536   1
  -5   0  -5 814.330 24.6664   3
  -5   0  -5 874.981 24.4924   2
   5   0   5 862.218 24.2108   2
  -6   0  -5 1.15342 1.55289   2
  -6   0  -5 1.21865 1.52365   3
   6   0   5 -0.6933 1.09349   1
   6   0   5 1.69317 1.30915   2
  -7   0  -5 190.309 7.45221   2
  -7   0  -5 193.574 7.09185   3
   7   0   5 192.693 6.57220   1
   7   0   5 193.548 7.06415   2
  -8   0  -5 -1.9538 1.91222   3
  -8   0  -5 0.52516 2.25489   2
   8   0   5 0.51277 1.41893   1
   8   0   5 1.35440 1.86565   2
  -9   0  -5 9.70294 2.63447   3
  -9   0  -5 11.5043 3.10440   2
   9   0   5 6.29077 2.46909   2
   9   0   5 8.31140 1.89893   1
 -10   0  -5 4.39502 3.06112   3
 -10   0  -5 8.88581 3.45328   2
  10   0   5 7.71180 2.95620   2
 -11   0  -5 2.86280 3.60103   3
  11   0   5 7.46806 3.29783   2
 -12   0  -5 5.80332 4.89354   3
  12   0   5 1.85100 4.05193   2
  11  -1  -5 -0.3377 4.68192   2
 -11   1   5 3.97869 4.37640   3
  10  -1  -5 24.2776 4.49080   2
 -10   1   5 17.3143 4.10866   3
   9  -1  -5 -2.2180 3.02415   2
  -9   1   5 -1.7948 2.95747   3
  -8   1   5 35.8096 4.88947   3
   7  -1  -5 38.8136 4.38441   2
  -7   1   5 47.4957 4.23756   3
   6  -1  -5 881.982 24.9335   2
   6  -1  -5 791.730 23.6146   1
  -6   1   5 857.984 23.6979   1
  -6   1   5 877.600 25.0603   3
   5  -1  -5 235.308 7.38503   1
   5  -1  -5 243.735 8.35745   2
  -5   1   5 250.605 7.40338   1
  -5   1   5 252.354 8.48865   3
   4  -1  -5 3.41655 1.37224   2
  -4   1   5 6.21607 1.48457   1
  -4   1   5 4.83356 1.40168   3
   3  -1  -5 49.1746 2.81936   2
   3  -1  -5 49.2294 2.36417   1
  -3   1   5 55.9625 2.99514   3
  -3   1   5 51.8607 2.40095   1
   2  -1  -5 1796.18 51.8818   1
   2  -1  -5 1919.66 52.1907   2
  -2   1   5 1887.67 51.9941   1
  -2   1   5 1990.57 52.3236   3
  -2   1   5 1882.55 52.6582   2
   1  -1  -5 300.824 9.01528   3
   1  -1  -5 315.177 9.03531   2
   1  -1  -5 277.311 8.80667   1
  -1   1   5 307.314 9.06740   3
  -1   1   5 288.800 9.06812   2
  -1   1   5 312.888 8.95874   1
   0  -1  -5 190.064 5.97500   3
   0  -1  -5 182.419 5.89480   2
   0  -1  -5 184.954 5.98987   3
   0   1   5 196.546 6.00156   1
   0   1   5 191.358 6.00016   3
   0   1   5 193.982 6.01458   3
   0   1   5 196.488 6.00332   2
  -1  -1  -5 315.147 9.11933   2
  -1  -1  -5 315.163 9.05684   3
  -1  -1  -5 307.461 9.04458   3
   1   1   5 293.057 9.02450   2
   1   1   5 314.461 9.17894   1
   1   1   5 305.380 9.00573   3
  -2  -1  -5 61.2994 2.71199   2
  -2  -1  -5 62.3761 2.48897   3
   2   1   5 59.5171 2.70349   2
   2   1   5 62.2399 2.56529   1
   2   1   5 60.9638 2.48330   3
  -3  -1  -5 16.7691 1.93761   2
  -3  -1  -5 14.8214 1.52795   3
   3   1   5 16.3331 1.57906   3
   3   1   5 12.8264 1.37406   1
  -4  -1  -5 580.891 16.1183   3
  -4  -1  -5 579.124 16.5713   2
   4   1   5 546.624 16.1113   1
   4   1   5 543.875 16.0364   3
  -5  -1  -5 184.354 6.80660   2
  -5  -1  -5 194.227 6.33566   3
   5   1   5 190.559 6.65354   1
  -6  -1  -5 167.177 6.64039   2
   6   1   5 170.618 6.33386   2
   6   1   5 174.474 5.84827   1
  -7  -1  -5 64.3742 3.94554   3
  -7  -1  -5 66.7200 4.25980   2
   7   1   5 62.1153 3.80514   2
   7   1   5 67.1071 3.33761   1
  -8  -1  -5 30.1343 4.15836   2
  -8  -1  -5 27.7826 3.53837   3
   8   1   5 31.1154 3.49929   2
   8   1   5 31.3160 2.90168   1
  -9  -1  -5 80.1373 5.28035   3
  -9  -1  -5 75.8721 6.11277   2
   9   1   5 80.7368 5.19311   2
   9   1   5 77.3437 4.21874   1
 -10  -1  -5 35.4182 5.25250   3
 -10  -1  -5 33.3759 5.57039   2
  10   1   5 27.0916 3.79197   1
  10   1   5 33.8318 4.86248   2
 -11  -1  -5 4.58440 6.12443   3
 -11  -1  -5 0.90473 3.86282   2
  11   1   5 1.26739 3.15784   2
 -12  -1  -5 15.0362 4.97718   3
  12   1   5 26.7740 7.13736   2
  11  -2  -5 -1.1908 4.53489   2
 -11   2   5 -3.7360 4.10402   3
  10  -2  -5 0.16828 3.85744   2
 -10   2   5 -4.1294 3.55578   3
   9  -2  -5 4.35399 3.36314   2
  -9   2   5 0.62526 2.94175   3
   8  -2  -5 17.4354 3.33593   2
  -8   2   5 17.9589 4.58901   3
   7  -2  -5 83.7809 5.30565   2
  -7   2   5 79.9692 5.05732   3
   6  -2  -5 18.1820 3.35456   2
  -6   2   5 18.3481 3.41907   3
   5  -2  -5 74.7614 2.79605   1
   5  -2  -5 76.0309 4.20102   2
  -5   2   5 80.8344 4.15209   3
   4  -2  -5 262.951 7.94231   1
   4  -2  -5 275.326 9.00846   2
  -4   2   5 270.902 8.07167   1
  -4   2   5 282.314 8.93845   3
   3  -2  -5 1305.47 35.8198   1
   3  -2  -5 1369.02 37.1057   2
  -3   2   5 1274.37 35.9259   1
  -3   2   5 1266.71 36.5211   3
   2  -2  -5 166.772 5.71266   2
   2  -2  -5 160.937 5.13090   1
  -2   2   5 167.662 5.25918   1
  -2   2   5 161.858 5.55678   3
   1  -2  -5 1.36624 0.96022   2
   1  -2  -5 -0.1714 0.66682   1
   1  -2  -5 -0.8305 1.01275   3
  -1   2   5 0.97829 0.67287   1
  -1   2   5 1.24542 0.87379   3
   0  -2  -5 1339.28 37.2288   3
   0  -2  -5 1370.57 37.2271   3
   0  -2  -5 1368.67 37.5197   2
   0   2   5 1361.75 37.3092   1
   0   2   5 1305.85 37.4726   2
   0   2   5 1372.10 37.2567   3
   1   2   5 9.01749 1.15188   1
  -2  -2  -5 24.1551 1.53005   3
  -2  -2  -5 25.1636 1.46504   3
  -2  -2  -5 26.4747 1.99263   2
   2   2   5 24.6985 1.48376   3
   2   2   5 25.4386 1.61141   1
  -3  -2  -5 308.998 9.53734   2
  -3  -2  -5 318.557 9.33886   3
   3   2   5 300.305 9.14465   1
   3   2   5 296.784 8.81232   3
  -4  -2  -5 339.283 9.80412   3
   4   2   5 333.851 9.77141   3
  -5  -2  -5 105.110 3.90777   3
  -5  -2  -5 106.722 4.70406   2
   5   2   5 101.460 4.00182   3
   5   2   5 106.827 4.00153   1
  -6  -2  -5 1.51699 1.31119   3
  -6  -2  -5 1.11225 1.64016   2
   6   2   5 2.06700 1.02961   1
  -7  -2  -5 11.8820 3.21407   2
  -7  -2  -5 12.8272 2.50520   3
   7   2   5 8.18140 1.82693   2
   7   2   5 8.59749 2.12214   1
  -8  -2  -5 130.140 5.64429   3
  -8  -2  -5 136.984 6.53225   2
   8   2   5 130.777 5.18755   1
   8   2   5 133.588 5.96327   2
  -9  -2  -5 38.5058 4.33811   3
  -9  -2  -5 42.8969 5.09231   2
   9   2   5 40.7019 3.47673   1
   9   2   5 37.4935 4.15574   2
 -10  -2  -5 -4.1531 3.08069   2
 -10  -2  -5 5.29033 2.90073   3
  10   2   5 2.12330 1.97210   1
  10   2   5 1.87585 2.59569   2
 -11  -2  -5 3.96593 3.50085   3
 -11  -2  -5 7.42674 3.99335   2
  11   2   5 6.34377 3.26795   2
 -12  -2  -5 2.50680 4.76181   2
  12   2   5 2.46775 4.07199   2
  11  -3  -5 -2.9563 5.01815   2
 -11   3   5 2.55032 4.73569   3
  10  -3  -5 0.19829 3.86930   2
 -10   3   5 -0.8267 3.76664   3
   9  -3  -5 8.55037 3.61794   2
  -9   3   5 9.99710 3.54154   3
   8  -3  -5 24.3638 4.87778   2
  -8   3   5 15.4561 4.95505   3
   7  -3  -5 0.73145 2.30258   2
  -7   3   5 -1.4761 2.10962   3
   6  -3  -5 8.27384 2.35003   2
  -6   3   5 9.37334 2.13738   3
   5  -3  -5 518.067 16.1280   2
  -5   3   5 531.625 16.0301   3
   4  -3  -5 14.9340 2.75031   2
   4  -3  -5 7.52182 1.25867   1
  -4   3   5 6.99670 1.57523   3
  -4   3   5 11.2374 1.53892   1
   3  -3  -5 12.4970 1.37497   1
   3  -3  -5 16.6893 2.50286   2
  -3   3   5 14.3054 1.57612   1
  -3   3   5 15.1088 2.18079   3
   2  -3  -5 581.670 16.9599   2
   2  -3  -5 544.648 16.1307   1
  -2   3   5 593.327 16.2573   1
  -2   3   5 581.603 16.6085   3
   1  -3  -5 4095.45 114.438   1
   1  -3  -5 4023.95 114.491   3
   1  -3  -5 4326.81 115.017   2
  -1   3   5 4270.59 114.436   1
  -1   3   5 4321.92 114.550   3
   0  -3  -5 624.639 18.5000   2
   0  -3  -5 638.891 17.9687   3
   0   3   5 646.727 18.0954   1
   0   3   5 656.481 17.9891   3
  -1  -3  -5 1562.11 45.1168   2
  -1  -3  -5 1682.45 44.4668   3
  -1  -3  -5 1650.34 44.4712   3
   1   3   5 1639.95 44.4742   3
   1   3   5 1605.76 44.8005   1
  -2  -3  -5 107.672 3.31022   3
  -2  -3  -5 106.928 3.29109   3
  -2  -3  -5 102.163 4.23267   2
   2   3   5 107.232 3.77993   1
  -3  -3  -5 324.337 10.2369   2
  -3  -3  -5 319.936 9.03484   3
   3   3   5 319.467 9.02864   3
  -4  -3  -5 -0.6921 0.70997   3
  -4  -3  -5 -0.1130 1.29119   2
   4   3   5 0.56638 0.78634   1
   4   3   5 0.37236 0.77201   3
  -5  -3  -5 445.418 12.8284   3
  -5  -3  -5 453.563 14.0091   2
   5   3   5 434.989 12.8130   3
   5   3   5 464.227 13.3138   1
  -6  -3  -5 57.3146 3.96460   2
  -6  -3  -5 59.3550 2.97704   3
   6   3   5 55.7725 3.01029   1
  -7  -3  -5 6.93870 2.32022   2
  -7  -3  -5 6.23689 1.66543   3
   7   3   5 5.52511 1.38963   1
  -8  -3  -5 72.1168 4.07315   3
  -8  -3  -5 65.7958 5.16053   2
   8   3   5 67.8997 3.74480   1
   8   3   5 67.1946 4.57914   2
  -9  -3  -5 21.7221 4.06602   3
  -9  -3  -5 28.5811 5.06204   2
   9   3   5 17.4952 3.05880   1
   9   3   5 18.2560 3.35504   2
 -10  -3  -5 4.76578 3.16743   2
 -10  -3  -5 4.18656 2.76684   3
  10   3   5 0.20301 2.51618   2
  10   3   5 3.53279 1.99486   1
 -11  -3  -5 4.26559 3.87920   2
  11   3   5 4.03269 3.26298   2
 -12  -3  -5 7.23223 4.91662   2
  12   3   5 9.10119 3.94561   2
  11  -4  -5 8.26465 5.16638   2
 -11   4   5 4.22410 4.78672   3
  10  -4  -5 8.76573 4.39927   2
 -10   4   5 4.36215 4.07669   3
   9  -4  -5 2.66441 3.68817   2
  -9   4   5 2.05139 3.29214   3
   8  -4  -5 69.1263 6.32743   2
  -8   4   5 61.9077 5.63543   3
   7  -4  -5 145.671 7.25967   2
  -7   4   5 147.382 7.17426   3
   6  -4  -5 12.1244 2.70135   2
  -6   4   5 13.7938 3.36194   3
   5  -4  -5 250.769 9.11395   2
  -5   4   5 251.720 8.78300   3
   4  -4  -5 1.18532 0.72242   1
   4  -4  -5 -0.4289 1.75144   2
  -4   4   5 -0.2712 1.32120   3
  -4   4   5 1.10007 0.89978   1
   3  -4  -5 3451.22 93.6880   2
   3  -4  -5 3245.58 92.4851   1
  -3   4   5 3429.90 93.2061   3
  -3   4   5 3481.92 92.6070   1
   2  -4  -5 0.98358 0.80409   1
   2  -4  -5 1.77193 1.48250   2
  -2   4   5 7.56180 1.88380   3
   1  -4  -5 179.475 6.04518   3
  -1   4   5 187.638 5.80992   1
  -1   4   5 189.150 5.94517   3
   0  -4  -5 427.690 12.3069   3
   0  -4  -5 414.024 13.0732   2
   0   4   5 450.786 12.3391   3
   0   4   5 436.144 12.4959   1
  -1  -4  -5 1841.51 50.0999   3
  -1  -4  -5 1806.34 51.1103   2
  -1  -4  -5 1836.33 50.1085   3
   1   4   5 1875.91 50.6290   1
   1   4   5 1840.18 50.1213   3
  -3  -4  -5 149.781 5.83466   2
   3   4   5 154.983 5.20170   1
  -4  -4  -5 87.8652 4.32996   2
   4   4   5 87.0288 3.55190   1
  -5  -4  -5 12.0358 1.47901   3
  -5  -4  -5 13.6369 2.97298   2
   5   4   5 16.4247 1.56200   3
   5   4   5 9.85961 1.85461   1
  -6  -4  -5 10.6089 2.02024   3
  -6  -4  -5 11.4483 2.33408   2
   6   4   5 10.9898 1.96386   1
   6   4   5 9.90997 2.08277   3
  -7  -4  -5 38.2363 2.97570   3
  -7  -4  -5 28.4903 3.99682   2
   7   4   5 35.7331 2.77051   1
  -8  -4  -5 111.987 6.35293   2
   8   4   5 114.265 4.97851   1
   8   4   5 109.973 5.74715   2
  -9  -4  -5 -0.2725 2.24547   3
  -9  -4  -5 -1.6863 2.96411   2
   9   4   5 1.67212 2.30721   2
   9   4   5 0.46761 1.81168   1
 -10  -4  -5 2.60448 3.11316   2
  10   4   5 0.06695 1.90220   1
  10   4   5 1.06155 2.60191   2
 -11  -4  -5 21.1239 4.58162   2
  11   4   5 18.7769 3.79214   2
  11   4   5 24.4988 5.30814   1
 -12  -4  -5 -1.1733 4.71293   2
  12   4   5 -3.6284 3.87746   2
  10  -5  -5 0.96709 4.28972   2
 -10   5   5 9.47549 4.39903   3
   9  -5  -5 55.9106 7.28400   2
  -9   5   5 57.3116 7.34704   3
   8  -5  -5 25.4839 5.75086   2
  -8   5   5 33.1359 5.89994   3
   7  -5  -5 68.4611 5.93105   2
  -7   5   5 80.6293 5.87809   3
   6  -5  -5 2.81288 2.55113   2
  -6   5   5 3.76462 2.24274   3
   5  -5  -5 466.289 15.1904   2
  -5   5   5 476.025 14.7996   3
   4  -5  -5 2.81429 2.00336   2
   4  -5  -5 1.21723 0.81467   1
  -4   5   5 1.30747 1.22987   1
  -4   5   5 2.46568 1.67382   3
  -4   5   5 1.39551 0.90331   1
   3  -5  -5 36.5888 2.04296   1
   3  -5  -5 41.9657 3.79625   2
  -3   5   5 41.5894 2.14637   1
  -3   5   5 39.3138 2.71632   1
  -3   5   5 38.6348 2.95633   3
   2  -5  -5 26.1449 3.25256   2
  -2   5   5 24.6796 2.40611   3
  -2   5   5 22.7566 1.75415   1
   1  -5  -5 2194.04 61.0104   2
  -1   5   5 2175.51 60.1088   3
  -1   5   5 2208.32 60.1057   1
   0  -5  -5 9.65052 2.45371   2
   0  -5  -5 10.3538 1.74880   3
   0   5   5 10.1151 1.48294   3
   0   5   5 10.4951 1.43482   1
  -1  -5  -5 105.543 3.38322   3
  -1  -5  -5 101.322 4.68763   2
   1   5   5 104.879 3.89061   1
   1   5   5 107.175 3.35124   3
  -2  -5  -5 235.778 8.15632   2
   2   5   5 238.481 7.50243   1
  -3  -5  -5 743.599 21.9648   2
   3   5   5 748.744 21.3407   1
  -4  -5  -5 74.6260 4.27147   2
   4   5   5 78.7334 3.44944   1
  -5  -5  -5 94.1458 4.95388   2
   5   5   5 84.7945 3.83823   1
  -6  -5  -5 5.37500 1.30019   3
  -6  -5  -5 4.23812 2.15581   2
   6   5   5 3.23766 1.18428   3
   6   5   5 3.05131 1.30530   1
  -7  -5  -5 70.6508 5.11642   2
  -7  -5  -5 67.0700 3.45937   3
   7   5   5 68.9283 3.82914   1
  -8  -5  -5 65.3713 5.21789   2
   8   5   5 58.3570 3.87941   1
  -9  -5  -5 19.0441 3.61385   2
   9   5   5 24.5834 3.34907   1
   9   5   5 27.3991 4.57296   2
 -10  -5  -5 -5.1149 3.28104   2
  10   5   5 1.46952 2.87416   2
  10   5   5 -0.5141 2.26849   1
 -11  -5  -5 -4.4471 4.04148   2
  11   5   5 -0.3118 3.33695   2
  11   5   5 1.19705 2.98066   1
 -12  -5  -5 -5.9885 4.77934   2
  12   5   5 2.21167 3.97868   2
  10  -6  -5 15.1803 5.13040   2
 -10   6   5 5.09426 5.06340   3
   9  -6  -5 -2.8631 4.01374   2
  -9   6   5 -0.5637 3.97614   3
   8  -6  -5 -2.7287 3.43707   2
  -8   6   5 3.55531 3.35679   3
   7  -6  -5 92.0357 7.26051   2
   6  -6  -5 9.08381 2.89250   2
  -6   6   5 7.15238 2.50435   3
   5  -6  -5 137.871 7.00342   2
  -5   6   5 148.128 6.45116   3
   4  -6  -5 16.7593 3.77235   2
  -4   6   5 21.2407 2.97712   1
  -4   6   5 20.8427 1.87488   1
  -4   6   5 20.6276 3.31187   3
   3  -6  -5 1300.98 37.6684   2
  -3   6   5 1308.43 36.1789   1
  -3   6   5 1317.64 36.8376   3
   2  -6  -5 62.6457 4.17605   2
  -2   6   5 50.8143 2.50950   1
  -2   6   5 50.2009 3.47230   3
   1  -6  -5 290.993 10.1159   2
  -1   6   5 295.497 8.97188   3
   0  -6  -5 6.22426 1.32166   3
   0  -6  -5 7.33593 1.85441   2
   0   6   5 6.16858 1.52627   1
   0   6   5 10.3495 1.67383   3
  -1  -6  -5 1893.79 53.6015   2
  -1  -6  -5 1890.02 52.1293   3
   1   6   5 1941.96 52.8136   1
   1   6   5 1923.66 52.1277   3
  -2  -6  -5 67.4412 4.13878   2
   2   6   5 73.5843 3.20475   1
  -3  -6  -5 16.1733 3.18648   2
   3   6   5 18.0577 1.95758   1
  -4  -6  -5 779.327 23.2132   2
   4   6   5 775.221 22.3899   1
  -5  -6  -5 4.92465 2.11124   2
   5   6   5 3.16519 1.28954   1
  -6  -6  -5 76.8802 5.17196   2
   6   6   5 64.6603 3.70049   1
  -7  -6  -5 38.3566 4.69295   2
   7   6   5 43.5484 3.28660   1
  -8  -6  -5 -3.2133 3.24452   2
   8   6   5 -1.4135 1.57754   1
  -9  -6  -5 2.06612 3.14723   2
   9   6   5 -1.2466 1.90455   1
  10   6   5 5.39226 2.28339   1
  10   6   5 -1.5881 2.95068   2
 -11  -6  -5 5.35612 4.10668   2
  11   6   5 -0.3145 3.38140   2
  11   6   5 4.01240 2.92685   1
   9  -7  -5 22.4372 5.37711   2
  -9   7   5 38.7194 7.89303   3
   8  -7  -5 9.16372 4.02902   2
  -8   7   5 3.58794 3.85566   3
   7  -7  -5 34.7161 6.63083   2
  -7   7   5 27.3069 5.76561   3
  -6   7   5 6.04143 2.85079   3
   5  -7  -5 304.012 11.6190   2
  -5   7   5 317.822 10.9425   3
   4  -7  -5 84.3722 5.81027   2
  -4   7   5 77.2521 3.46316   1
  -4   7   5 90.9854 4.84489   3
   3  -7  -5 228.571 9.00050   2
  -3   7   5 226.300 7.25474   1
  -3   7   5 228.261 7.99204   3
   2  -7  -5 154.370 6.96521   2
  -2   7   5 166.095 5.97655   3
  -2   7   5 162.876 5.53330   1
   1  -7  -5 567.501 17.5460   2
  -1   7   5 554.421 16.2156   1
  -1   7   5 554.551 16.2114   3
   0  -7  -5 1110.87 31.6739   3
   0  -7  -5 1130.85 33.1151   2
   0   7   5 1149.84 31.6357   3
   0   7   5 1170.31 32.0379   1
  -1  -7  -5 44.1711 2.37543   3
  -1  -7  -5 32.9429 3.86445   2
   1   7   5 39.0578 2.55850   1
  -2  -7  -5 174.120 7.24365   2
   2   7   5 180.042 6.22110   1
  -3  -7  -5 175.499 7.39116   2
   3   7   5 179.561 6.32854   1
  -4  -7  -5 5.50855 2.13043   2
   4   7   5 3.96988 1.31451   1
  -5  -7  -5 0.30278 2.04871   2
   5   7   5 -0.9366 1.19994   1
  -6  -7  -5 10.4993 2.98798   2
   6   7   5 13.0069 2.59231   1
  -7  -7  -5 43.0559 5.33089   2
   7   7   5 46.4502 3.67326   1
  -8  -7  -5 1.82884 2.88991   2
   8   7   5 1.66860 1.83247   1
  -9  -7  -5 0.19050 3.28837   2
   9   7   5 2.54480 2.13454   1
 -10  -7  -5 1.25308 3.94424   2
  10   7   5 -1.9755 2.43864   1
  10   7   5 2.47879 3.29761   2
 -11  -7  -5 25.4843 5.57615   2
  11   7   5 33.0800 7.08087   2
  11   7   5 29.5160 5.56683   1
   9  -8  -5 10.4233 5.42283   2
  -9   8   5 -1.7769 4.62739   3
   8  -8  -5 19.3555 4.99886   2
  -8   8   5 4.33732 4.24218   3
   7  -8  -5 29.6064 7.14927   2
  -7   8   5 34.7308 6.27815   3
   6  -8  -5 24.7314 6.18388   2
  -6   8   5 32.6919 8.47706   3
   5  -8  -5 3.82440 3.72536   2
  -5   8   5 4.56560 2.67955   3
   4  -8  -5 95.3155 6.59911   2
  -4   8   5 97.3758 5.32396   3
   3  -8  -5 6.96678 2.76005   2
  -3   8   5 9.54778 2.07370   3
  -3   8   5 10.4519 2.21367   1
   2  -8  -5 288.880 10.9704   2
  -2   8   5 288.385 9.44947   3
  -2   8   5 284.959 9.02733   1
   1  -8  -5 19.6642 4.36823   2
  -1   8   5 14.7762 2.19334   1
   0  -8  -5 27.9363 4.38969   2
   0   8   5 25.1211 2.39908   1
   0   8   5 28.2165 2.59455   3
  -1  -8  -5 147.784 6.87749   2
  -1  -8  -5 145.323 5.25776   3
   1   8   5 148.682 5.54784   1
   1   8   5 147.051 4.90463   3
  -2  -8  -5 442.117 14.7406   2
   2   8   5 447.295 13.5835   1
  -3  -8  -5 41.6324 4.64679   2
   3   8   5 43.5192 3.02651   1
  -4  -8  -5 107.574 5.97705   2
   4   8   5 104.063 4.72340   1
  -5  -8  -5 5.87729 2.78411   2
   5   8   5 3.56380 1.58699   1
  -6  -8  -5 9.93536 3.20408   2
   6   8   5 12.3513 2.92023   1
  -7  -8  -5 4.35707 3.32203   2
  -8  -8  -5 31.8912 5.78373   2
   8   8   5 29.8325 3.90196   1
  -9  -8  -5 23.9632 6.48230   2
   9   8   5 32.0379 4.51384   1
 -10  -8  -5 0.31990 4.44752   2
  10   8   5 -1.0617 2.65914   1
  10   8   5 3.23824 3.67966   2
   8  -9  -5 8.17748 5.09121   2
  -8   9   5 5.47457 4.60412   3
   7  -9  -5 0.71486 4.22034   2
  -7   9   5 1.48705 4.01897   3
   6  -9  -5 27.2898 4.75145   2
  -6   9   5 37.9580 6.53592   3
   5  -9  -5 49.3900 6.98223   2
  -5   9   5 56.1790 5.56478   3
  -4   9   5 174.161 6.56620   1
  -4   9   5 192.164 7.99161   3
   3  -9  -5 22.6260 5.51884   2
  -3   9   5 11.7933 2.59490   3
  -3   9   5 19.0901 2.72046   1
   2  -9  -5 241.734 10.4778   2
  -2   9   5 248.889 8.65462   3
  -2   9   5 255.467 8.28359   1
   1  -9  -5 27.6277 5.25002   2
  -1   9   5 17.8072 2.59608   1
  -1   9   5 20.9922 3.18281   3
   0  -9  -5 913.871 27.8239   2
   0   9   5 899.538 25.8348   3
   0   9   5 931.023 26.2938   1
  -1  -9  -5 10.3515 2.81883   2
   1   9   5 6.72150 1.54033   1
   1   9   5 9.87166 2.38422   3
  -2  -9  -5 327.172 11.9895   2
   2   9   5 324.507 10.6515   1
  -3  -9  -5 72.7230 6.02022   2
   3   9   5 78.2852 4.19141   1
  -4  -9  -5 449.061 15.0615   2
   4   9   5 421.836 13.7089   1
  -5  -9  -5 43.6786 5.87842   2
   5   9   5 32.2336 3.42841   1
  -6  -9  -5 56.4472 7.54637   2
   6   9   5 51.5864 4.17979   1
  -7  -9  -5 51.6240 6.59640   2
   7   9   5 52.3601 4.33487   1
  -8  -9  -5 4.08930 3.92880   2
   8   9   5 5.88496 2.46235   1
  -9  -9  -5 27.7230 7.21930   2
   9   9   5 43.3013 5.18791   1
 -10  -9  -5 5.37117 5.02859   2
  10   9   5 2.03106 3.12369   1
   7 -10  -5 8.43311 5.24484   2
  -7  10   5 3.14485 4.44774   3
   6 -10  -5 104.132 9.04473   2
  -6  10   5 96.4480 7.96052   3
   5 -10  -5 -0.7600 3.84672   2
  -5  10   5 2.91733 3.67172   3
   4 -10  -5 272.826 12.1773   2
  -4  10   5 282.246 10.6752   3
   3 -10  -5 9.51315 3.99012   2
  -3  10   5 4.69082 2.48387   3
  -3  10   5 5.61547 1.83149   1
   2 -10  -5 862.018 26.2095   2
  -2  10   5 808.716 24.0759   3
  -2  10   5 791.469 23.7496   1
   1 -10  -5 21.5457 4.23470   2
  -1  10   5 15.1388 2.23004   1
  -1  10   5 20.6397 3.63867   3
   0 -10  -5 319.673 12.6635   2
   0  10   5 329.972 10.7820   1
   0  10   5 327.111 11.1162   3
  -1 -10  -5 40.6004 6.02309   2
   1  10   5 45.7244 3.71533   1
  -2 -10  -5 306.392 12.2017   2
   2  10   5 323.504 10.6495   1
  -3 -10  -5 49.1077 6.13599   2
   3  10   5 55.4402 4.05233   1
  -4 -10  -5 7.48926 3.24649   2
   4  10   5 5.31374 2.02752   1
  -5 -10  -5 0.87025 3.33337   2
   5  10   5 1.21848 1.82052   1
  -6 -10  -5 9.77719 3.79632   2
   6  10   5 0.16988 2.10946   1
  -7 -10  -5 -3.4676 4.04790   2
   7  10   5 2.28061 2.22795   1
  -8 -10  -5 2.95029 4.45757   2
   8  10   5 11.0051 2.70334   1
  -9 -10  -5 17.0197 5.16486   2
   9  10   5 25.4620 5.32188   1
   6 -11  -5 61.3682 9.70761   2
  -6  11   5 56.4787 8.36711   3
   5 -11  -5 7.85541 5.02780   2
  -5  11   5 -1.6316 3.69454   3
   4 -11  -5 106.642 9.55021   2
  -4  11   5 101.989 7.29601   3
   3 -11  -5 8.11978 4.42361   2
  -3  11   5 2.70881 2.10247   1
  -3  11   5 1.67879 2.94619   3
   2 -11  -5 105.004 9.35098   2
  -2  11   5 105.539 5.25477   1
  -2  11   5 99.7744 6.02662   3
   1 -11  -5 -1.7583 4.06508   2
  -1  11   5 -1.0602 2.40470   3
  -1  11   5 -0.4595 1.87146   1
   0 -11  -5 303.014 14.1754   2
   0  11   5 315.000 10.6787   1
  -1 -11  -5 6.94930 6.69393   2
   1  11   5 13.1682 2.52561   1
  -2 -11  -5 77.0103 8.78273   2
   2  11   5 85.7138 5.09856   1
  -3 -11  -5 7.02230 3.94533   2
   3  11   5 7.64395 2.20985   1
  -4 -11  -5 114.431 8.14799   2
   4  11   5 111.666 6.02478   1
  -5 -11  -5 3.62065 4.00942   2
   5  11   5 1.85993 2.28174   1
  -6 -11  -5 32.6964 8.02481   2
  -7 -11  -5 2.18683 4.78903   2
   7  11   5 1.82757 2.62505   1
  -8 -11  -5 0.17209 4.89682   2
   8  11   5 4.79889 2.88528   1
   5 -12  -5 5.23889 5.94640   2
  -5  12   5 4.14012 4.46761   3
   4 -12  -5 86.2904 10.4305   2
  -4  12   5 72.3613 7.60433   3
   3 -12  -5 8.98212 5.62171   2
  -3  12   5 2.17234 3.53381   3
   2 -12  -5 208.468 12.3437   2
  -2  12   5 192.378 8.00333   1
   1 -12  -5 43.9098 6.29536   2
  -1  12   5 29.2129 5.24847   1
   0 -12  -5 164.560 9.93811   2
   0  12   5 156.702 7.14345   1
  -1 -12  -5 15.2933 4.60906   2
   1  12   5 17.1702 4.19356   1
  -2 -12  -5 122.159 8.93575   2
   2  12   5 123.505 6.37799   1
  -3 -12  -5 193.467 10.6938   2
   3  12   5 196.348 8.32676   1
  -4 -12  -5 3.48730 4.66918   2
   4  12   5 8.76047 2.67035   1
  -5 -12  -5 54.9611 9.08551   2
   5  12   5 45.5484 5.03981   1
  -6 -12  -5 5.07578 5.07060   2
   6  12   5 -1.5657 2.63325   1
  -7 -12  -5 41.2822 9.54548   2
   7  12   5 39.3479 5.72073   1
   3 -13  -5 42.2078 11.2593   2
   2 -13  -5 25.8755 6.56537   2
  -2  13   5 27.2281 5.13341   1
   1 -13  -5 38.9697 9.46551   2
  -1  13   5 33.6082 5.14221   1
   0 -13  -5 9.86621 5.44676   2
   0  13   5 23.1704 4.90942   1
  -1 -13  -5 199.478 12.1574   2
   1  13   5 170.409 8.34209   1
  -2 -13  -5 11.7508 5.46216   2
   2  13   5 10.8737 2.95669   1
  -3 -13  -5 10.0124 5.57888   2
   3  13   5 10.9066 3.10681   1
  -4 -13  -5 0.80262 5.14651   2
   4  13   5 5.80205 3.06498   1
  -5 -13  -5 22.2063 6.22837   2
   5  13   5 14.5694 3.30586   1
   0 -14  -5 4.94594 6.19150   2
   0  14   5 2.93461 3.17339   1
  -1 -14  -5 3.15511 6.44097   2
   1  14   5 3.77399 3.08513   1
  -2 -14  -5 3.61613 6.12249   2
   2  14   5 1.41931 3.46229   1
   0 -12   6 36.7851 7.51625   1
   4  11  -6 60.8296 9.16187   3
   4  11  -6 46.2851 6.50842   1
  -4 -11   6 53.5158 7.90082   1
   3  11  -6 20.7875 4.94712   3
   3  11  -6 38.0916 5.89652   1
  -3 -11   6 29.8153 6.87410   1
   2  11  -6 14.0811 4.32083   3
   2  11  -6 14.5017 3.20660   1
  -2 -11   6 10.1342 3.82783   1
   1  11  -6 -0.3348 3.94972   3
   0  11  -6 8.81570 4.09964   3
   0 -11   6 9.60728 3.59639   1
  -1  11  -6 -2.2949 3.88807   3
   1 -11   6 -1.2818 3.37801   1
  -2  11  -6 -2.9366 4.03553   3
   2 -11   6 -0.6950 3.77508   1
  -3  11  -6 17.8004 4.87555   3
   3 -11   6 7.49636 4.06150   1
  -4  11  -6 -1.5817 4.88789   3
   4 -11   6 -0.9434 4.07624   1
   6  10  -6 4.66241 3.54954   1
   6  10  -6 8.11489 5.09382   3
  -6 -10   6 2.93674 4.36722   1
   5  10  -6 15.5461 4.84174   3
   5  10  -6 7.46362 3.30235   1
  -5 -10   6 7.20428 4.06131   1
   4  10  -6 7.34928 3.14502   1
   4  10  -6 5.04279 4.08422   3
  -4 -10   6 10.0049 3.70422   1
   3  10  -6 4.32793 3.74674   3
  -3 -10   6 -0.5540 3.08882   1
   2  10  -6 9.28688 3.97524   3
  -2 -10   6 13.3184 3.50203   1
   1  10  -6 12.0614 3.58514   3
  -1 -10   6 10.0867 3.27055   1
   0  10  -6 24.5748 6.27905   3
   0 -10   6 37.8789 5.59832   1
  -1  10  -6 3.37168 3.40832   3
   1 -10   6 -5.4503 2.71143   1
  -2  10  -6 43.0059 6.52885   3
   2 -10   6 28.0425 6.02860   1
  -3  10  -6 2.95363 4.05589   3
   3 -10   6 11.5637 3.50284   1
  -4  10  -6 13.8217 4.27814   3
   4 -10   6 10.0566 3.60122   1
  -5  10  -6 8.10895 4.69743   3
   5 -10   6 -2.2325 3.37158   1
  -6  10  -6 0.83150 4.51509   3
   7   9  -6 3.85428 3.24010   1
   7   9  -6 11.9958 4.91868   3
  -7  -9   6 -6.0764 4.06737   1
   6   9  -6 8.55866 4.47499   3
   6   9  -6 2.90245 2.95836   1
  -6  -9   6 2.46022 3.80767   1
   5   9  -6 -0.5429 4.01714   3
   5   9  -6 -0.5420 2.67239   1
  -5  -9   6 -2.6409 3.16723   1
   4   9  -6 165.060 8.89291   3
  -4  -9   6 148.803 8.28902   1
   3   9  -6 7.49991 3.40214   3
  -3  -9   6 9.97503 3.06833   1
   2   9  -6 51.8597 5.87889   3
  -2  -9   6 43.2889 5.24050   1
   1   9  -6 14.8183 3.65629   3
  -1  -9   6 16.6073 3.22427   1
   0   9  -6 62.0853 5.77592   3
   0  -9   6 55.4741 5.04843   1
  -1   9  -6 5.08977 3.03925   3
   1  -9   6 9.17764 2.69293   1
  -2   9  -6 21.7530 3.77724   3
   2  -9   6 24.0331 4.67874   1
  -3   9  -6 5.60978 3.32450   3
   3  -9   6 3.89349 2.79455   1
  -4   9  -6 0.89123 3.41202   3
   4  -9   6 0.08483 3.38667   1
  -5   9  -6 43.2641 7.51218   3
  -6   9  -6 -0.6774 4.02461   3
  -7   9  -6 6.75461 4.75487   3
   8   8  -6 8.68767 3.48750   1
   8   8  -6 11.8347 5.04664   3
  -8  -8   6 13.1991 4.49630   1
   7   8  -6 -5.6002 3.91439   3
   7   8  -6 4.00734 3.03346   1
  -7  -8   6 -2.9795 3.72620   1
   6   8  -6 26.3752 6.53687   3
   6   8  -6 17.9213 4.58428   1
  -6  -8   6 13.5179 3.69932   1
   5   8  -6 25.7109 6.22508   3
  -5  -8   6 4.93687 2.87924   1
  -4  -8   6 -0.5206 2.66210   1
   3   8  -6 8.47664 2.98650   3
  -3  -8   6 5.30865 2.66411   1
   2   8  -6 41.1768 5.21368   3
  -2  -8   6 39.2570 6.23625   1
   1   8  -6 9.27433 2.61932   3
  -1  -8   6 6.94529 2.23737   1
   0   8  -6 15.6345 2.95396   3
   0  -8   6 18.6619 4.01701   1
  -1   8  -6 29.4232 4.50804   3
   1  -8   6 33.5635 3.95229   1
  -2   8  -6 30.8644 4.75110   3
   2  -8   6 29.9124 3.99801   1
  -3   8  -6 1.41135 3.09674   3
   3  -8   6 -0.7907 2.05141   1
  -4   8  -6 15.6671 3.46252   3
   4  -8   6 21.0210 4.06023   1
  -5   8  -6 16.3597 3.75457   3
   5  -8   6 19.5747 4.41357   1
  -6   8  -6 18.3133 4.02514   3
   6  -8   6 29.8963 4.79277   1
  -7   8  -6 17.6414 4.61823   3
  -8   8  -6 -1.4851 4.38911   3
   8   7  -6 4.07015 2.93327   1
   8   7  -6 1.54183 4.23042   3
  -8  -7   6 10.3456 3.97816   1
   7   7  -6 -2.0248 3.59851   3
   7   7  -6 -0.4491 2.56840   1
  -7  -7   6 -0.7394 3.17687   1
   6   7  -6 5.62588 3.11332   3
   6   7  -6 6.55766 2.51544   1
  -6  -7   6 6.04080 2.75964   1
   5   7  -6 -2.1910 2.90226   3
  -5  -7   6 -3.6538 2.55855   1
   4   7  -6 4.33009 2.78423   3
  -4  -7   6 2.70733 2.33843   1
   3   7  -6 55.6286 5.42932   3
  -3  -7   6 64.1638 4.69602   1
   2   7  -6 40.4473 4.39391   3
  -2  -7   6 37.2331 4.04069   1
   1   7  -6 14.9957 2.69232   3
  -1  -7   6 16.4952 3.33620   1
   0   7  -6 61.2589 4.74325   3
   0  -7   6 60.4776 4.18799   1
  -1   7  -6 73.9155 4.91463   3
   1  -7   6 70.5990 4.46338   1
  -2   7  -6 0.76621 2.17948   3
   2  -7   6 -0.2732 1.71667   1
  -3   7  -6 277.545 10.1673   3
   3  -7   6 255.122 9.31082   1
  -4   7  -6 30.0371 4.95247   3
   4  -7   6 39.5259 3.92434   1
  -5   7  -6 147.905 7.78936   3
   5  -7   6 156.389 9.28823   2
   5  -7   6 140.122 6.36991   1
  -6   7  -6 34.7148 6.00821   3
   6  -7   6 43.8627 7.40444   2
   6  -7   6 37.6351 4.24915   1
  -7   7  -6 4.03365 3.65222   3
   7  -7   6 -1.2699 5.55683   2
   7  -7   6 3.00502 2.48699   1
  -8   7  -6 2.20523 4.04356   3
  -9   7  -6 3.83031 4.67861   3
   9   6  -6 -0.7461 4.07006   3
   9   6  -6 -0.7694 2.96891   1
  -9  -6   6 3.05547 4.43136   3
  -9  -6   6 -3.3591 4.98274   1
   8   6  -6 6.37294 2.69871   1
   8   6  -6 8.06125 3.66609   3
  -8  -6   6 1.13396 3.50939   1
   7   6  -6 8.05243 3.39874   3
   6   6  -6 5.05742 3.13553   3
  -6  -6   6 2.22186 2.65927   1
   5   6  -6 69.2448 5.57969   3
   5   6  -6 81.1339 5.40468   2
  -5  -6   6 74.1896 5.28025   1
   4   6  -6 16.6679 4.08890   3
   4   6  -6 16.5171 2.46394   2
  -4  -6   6 28.7912 3.77204   1
   3   6  -6 79.3098 5.22108   3
  -3  -6   6 78.3437 4.76425   1
   2   6  -6 27.4787 4.07061   3
  -2  -6   6 31.0246 3.37575   1
   1   6  -6 874.315 25.8671   3
  -1  -6   6 883.072 25.7590   1
   0   6  -6 23.1960 3.51322   3
   0  -6   6 25.6989 3.10439   1
  -1   6  -6 438.157 14.0602   3
   1  -6   6 438.444 13.7357   1
  -2   6  -6 17.0682 3.39373   3
   2  -6   6 23.1323 3.00319   1
  -3   6  -6 112.218 5.91874   3
   3  -6   6 118.488 4.76817   2
   3  -6   6 118.839 5.29244   1
  -4   6  -6 69.1171 5.06239   3
   4  -6   6 67.6226 4.13022   1
   4  -6   6 67.3609 4.22461   2
  -5   6  -6 34.8454 4.56824   3
   5  -6   6 20.9042 3.32925   1
   5  -6   6 21.7605 4.00099   2
  -6   6  -6 13.4188 4.42469   3
   6  -6   6 16.0883 4.26147   2
   6  -6   6 10.9530 2.17720   1
  -7   6  -6 0.39208 3.24322   3
   7  -6   6 -0.3037 2.04810   1
   7  -6   6 -2.4160 2.84475   2
  -8   6  -6 37.6214 7.10103   3
   8  -6   6 35.2470 6.27347   2
  -9   6  -6 2.98065 3.99928   3
   9  -6   6 -4.3164 3.97064   2
 -10   6  -6 11.4777 5.05256   3
  10  -6   6 6.27079 5.04562   2
  10   5  -6 6.24965 4.77591   3
 -10  -5   6 -2.5798 4.52251   3
   9   5  -6 20.0130 4.47523   3
  -9  -5   6 10.6439 4.33841   3
   8   5  -6 0.34951 2.42961   1
   8   5  -6 1.20930 3.48798   3
   8   5  -6 2.74578 2.96965   2
  -8  -5   6 -1.8575 3.13075   1
  -8  -5   6 0.01328 3.32777   3
   7   5  -6 7.13039 3.50745   3
   7   5  -6 11.3054 2.71311   2
   7   5  -6 9.56359 2.26928   1
  -7  -5   6 11.3930 2.78570   1
  -7  -5   6 11.9817 3.30268   3
   6   5  -6 9.51593 2.79769   3
   6   5  -6 3.29689 1.97085   2
  -6  -5   6 0.77713 2.33406   1
  -6  -5   6 -1.2844 2.56223   3
   5   5  -6 80.1029 5.37361   3
  -5  -5   6 78.8623 5.00474   1
   4   5  -6 82.6444 5.24692   3
   4   5  -6 81.2992 3.65561   2
  -4  -5   6 94.1260 5.00106   1
   3   5  -6 690.939 20.9603   3
  -3  -5   6 702.432 20.7987   1
   2   5  -6 65.6234 4.23221   3
  -2  -5   6 59.8461 3.90998   1
   1   5  -6 6.46412 1.87724   3
  -1  -5   6 5.23659 1.46776   1
   0   5  -6 23.8143 3.05996   3
   0  -5   6 13.9471 2.52368   1
  -1   5  -6 154.968 6.28773   3
   1  -5   6 157.882 5.91645   1
  -2   5  -6 1.23831 1.69946   3
   2  -5   6 -0.2594 1.22005   1
  -3   5  -6 38.1251 3.66971   3
   3  -5   6 37.0084 3.05091   2
   3  -5   6 35.4812 2.86079   2
   3  -5   6 37.7007 3.08507   1
  -4   5  -6 7.84150 2.13704   3
   4  -5   6 12.6441 2.99391   2
   4  -5   6 10.7015 2.57926   1
  -5   5  -6 0.57948 2.19336   3
   5  -5   6 1.02474 1.38988   1
   5  -5   6 0.49934 1.87254   2
  -6   5  -6 49.9389 5.31612   3
   6  -5   6 46.7443 3.67656   1
   6  -5   6 49.7158 4.44671   2
   7  -5   6 5.74346 2.72994   2
   7  -5   6 5.06371 1.98111   1
  -8   5  -6 56.7602 6.47106   3
   8  -5   6 61.9124 4.64274   1
   8  -5   6 70.6893 6.03623   2
  -9   5  -6 1.44598 3.57034   3
   9  -5   6 1.18170 3.57173   2
 -10   5  -6 22.1978 5.02969   3
  10  -5   6 21.5146 4.82010   2
  10   4  -6 8.81916 4.47125   2
  10   4  -6 0.64387 4.14309   3
 -10  -4   6 1.64393 4.56780   3
   9   4  -6 1.95152 3.67395   3
  -9  -4   6 1.16744 3.79614   3
   8   4  -6 49.8787 6.27633   3
   8   4  -6 58.8703 4.43110   1
   8   4  -6 47.5851 5.45288   2
  -8  -4   6 52.0746 6.16431   3
  -8  -4   6 47.8681 5.51821   1
   7   4  -6 92.4118 5.26235   2
   7   4  -6 85.8623 6.32219   3
  -7  -4   6 88.2286 6.25729   3
  -7  -4   6 85.1521 5.45493   1
   6   4  -6 67.6789 5.22598   3
   6   4  -6 68.0068 4.20482   2
  -6  -4   6 63.0029 4.64297   1
  -6  -4   6 59.9043 5.20594   3
   5   4  -6 22.1410 4.13174   3
   5   4  -6 32.0907 3.49484   2
  -5  -4   6 32.9743 3.66744   1
  -5  -4   6 33.8248 4.05603   3
   4   4  -6 37.0575 2.61219   2
   4   4  -6 36.3737 3.72512   3
  -4  -4   6 40.0683 3.44421   1
   3   4  -6 3.64019 1.57149   2
   3   4  -6 -0.0062 1.03210   2
   3   4  -6 1.93365 1.77644   3
  -3  -4   6 -0.5804 1.33151   1
   2   4  -6 40.1257 3.38016   3
  -2  -4   6 40.1683 3.02801   1
   1   4  -6 1069.43 30.9657   3
  -1  -4   6 1096.74 30.8208   1
   0   4  -6 5.58282 1.62487   3
   0  -4   6 6.59064 1.40674   1
  -1   4  -6 37.9701 3.04494   3
   1  -4   6 43.2144 2.75717   1
   2  -4   6 54.6094 3.10189   1
  -3   4  -6 299.048 10.0916   3
   3  -4   6 291.387 9.16923   2
   3  -4   6 320.526 9.69219   1
   3  -4   6 303.718 9.10678   2
  -4   4  -6 88.8627 4.83491   3
   4  -4   6 92.2541 4.07505   2
   4  -4   6 94.0032 4.19132   1
  -5   4  -6 250.657 8.95148   3
   5  -4   6 236.405 8.00677   1
   5  -4   6 230.704 8.00884   2
  -6   4  -6 6.11986 2.39227   3
   6  -4   6 7.36046 1.71050   1
   6  -4   6 6.34640 1.93695   2
  -7   4  -6 -1.3272 2.44396   3
   7  -4   6 0.57363 1.66089   1
   7  -4   6 2.24177 2.14365   2
  -8   4  -6 215.591 10.1062   3
   8  -4   6 227.243 8.98437   2
   8  -4   6 211.475 7.73768   1
  -9   4  -6 9.09500 3.47080   3
   9  -4   6 7.73880 5.26114   2
 -10   4  -6 10.3548 4.31920   3
  10  -4   6 6.11734 4.16435   2
 -11   4  -6 -3.1172 4.79537   3
  11  -4   6 -4.8174 4.64861   2
  10   3  -6 -1.0242 4.13891   3
  10   3  -6 0.26744 4.37055   2
 -10  -3   6 -3.6492 4.02182   3
   9   3  -6 0.25515 3.42688   3
  -9  -3   6 3.77660 3.61494   3
   8   3  -6 38.1725 3.78374   1
   8   3  -6 47.0416 5.07960   2
   8   3  -6 35.7018 5.77496   3
  -8  -3   6 36.6161 5.68198   3
  -8  -3   6 29.0419 4.68195   1
   7   3  -6 2.49339 2.72566   3
   7   3  -6 3.43829 2.15298   2
  -7  -3   6 -2.4695 2.48059   3
  -7  -3   6 -2.2788 1.94174   1
   6   3  -6 4.24136 1.89973   2
   6   3  -6 6.56614 2.36280   3
  -6  -3   6 5.34234 2.33406   3
   5   3  -6 247.095 8.93779   3
   5   3  -6 228.764 7.86299   2
  -5  -3   6 246.061 8.46582   1
  -5  -3   6 245.603 8.96946   3
   4   3  -6 76.4679 4.39200   3
   4   3  -6 79.3102 3.51510   2
  -4  -3   6 74.5963 3.95942   1
  -4  -3   6 78.1431 4.40382   3
   3   3  -6 528.813 15.4252   2
   3   3  -6 522.334 15.6395   2
   3   3  -6 571.578 16.5715   3
  -3  -3   6 552.946 16.5765   3
  -3  -3   6 552.348 16.2778   1
   2   3  -6 659.763 19.4768   3
  -2  -3   6 658.785 19.2436   1
   1   3  -6 2.63123 1.37904   3
  -1  -3   6 6.70580 1.28412   1
   0   3  -6 55.5538 3.44032   3
   0  -3   6 57.5757 3.01541   1
  -1   3  -6 1128.94 32.2053   3
   1  -3   6 1145.01 32.0501   1
  -2   3  -6 301.608 9.83627   3
   2  -3   6 307.684 9.57188   1
  -3   3  -6 16.0465 2.44720   3
   3  -3   6 17.3774 1.77178   2
   3  -3   6 14.7137 2.32737   2
   3  -3   6 17.8371 2.08169   1
  -4   3  -6 164.089 6.37582   3
   4  -3   6 154.484 5.48008   2
   4  -3   6 166.939 5.86402   1
  -5   3  -6 22.9742 3.38497   3
   5  -3   6 17.8455 2.42900   1
   5  -3   6 20.1173 2.53850   2
  -6   3  -6 105.287 5.51442   3
   6  -3   6 97.6661 4.45172   1
   6  -3   6 103.223 4.68805   2
  -7   3  -6 88.3481 5.51638   3
   7  -3   6 92.7092 5.12270   2
   7  -3   6 90.5462 4.31454   1
  -8   3  -6 46.3740 5.20688   3
   8  -3   6 43.9656 4.93630   2
   8  -3   6 41.5496 3.47734   1
  -9   3  -6 16.9342 3.50033   3
   9  -3   6 21.6587 5.29960   2
 -10   3  -6 11.2590 4.15216   3
  10  -3   6 25.9772 6.80660   2
 -11   3  -6 -0.3965 4.35724   3
  11  -3   6 -2.8138 4.50294   2
 -11  -2   6 3.11990 5.06066   3
  10   2  -6 1.24850 3.96354   3
  10   2  -6 0.20789 4.08446   2
 -10  -2   6 10.6943 4.09820   3
   9   2  -6 41.7907 6.21622   3
  -9  -2   6 38.9823 6.41617   3
   8   2  -6 12.5946 3.16777   2
   8   2  -6 21.8519 3.08661   1
   8   2  -6 16.3738 3.32759   3
  -8  -2   6 23.1211 5.27721   3
   7   2  -6 27.9894 4.27124   2
   7   2  -6 37.8851 4.59846   3
  -7  -2   6 32.8287 4.48348   3
  -7  -2   6 26.8143 3.65164   1
   6   2  -6 18.8715 3.99626   3
   6   2  -6 14.9249 3.28594   2
  -6  -2   6 25.2542 3.16206   1
  -6  -2   6 16.1588 3.81683   3
   5   2  -6 3.00329 1.57840   2
   5   2  -6 1.63301 1.89385   3
  -5  -2   6 5.03987 1.58866   1
  -5  -2   6 1.41256 1.95765   3
   4   2  -6 178.373 6.88793   3
   4   2  -6 182.466 6.13879   2
  -4  -2   6 184.844 7.02621   3
  -4  -2   6 179.660 6.41347   1
   3   2  -6 22.2620 2.69606   2
   3   2  -6 21.0006 2.00480   2
  -3  -2   6 26.8633 2.38693   1
  -3  -2   6 23.5333 2.88511   3
   2   2  -6 163.986 5.20186   2
   2   2  -6 158.246 5.23502   2
   2   2  -6 180.168 6.13753   3
  -2  -2   6 166.434 6.12343   3
  -2  -2   6 163.345 5.75436   1
  -2  -2   6 158.098 5.12697   2
   1   2  -6 22.8467 2.45081   3
  -1  -2   6 19.6554 2.06859   1
   0   2  -6 1812.10 50.8785   3
   0  -2   6 1856.11 50.7989   1
  -1   2  -6 394.149 12.1847   3
   1  -2   6 411.492 12.1358   1
  -2   2  -6 11.8321 2.12221   3
  -2   2  -6 13.4513 1.54758   2
   2  -2   6 13.0656 1.53834   2
   2  -2   6 17.0854 1.41570   2
   2  -2   6 17.0781 1.86795   1
  -3   2  -6 441.669 12.6511   2
  -3   2  -6 439.085 13.2325   3
   3  -2   6 432.800 12.9959   1
   3  -2   6 432.465 12.4949   2
   3  -2   6 434.654 12.7064   2
  -4   2  -6 129.877 4.95516   2
  -4   2  -6 136.707 5.36441   3
   4  -2   6 133.918 4.69412   2
   4  -2   6 131.490 4.92805   1
  -5   2  -6 57.1609 3.49738   2
  -5   2  -6 53.3804 3.71061   3
   5  -2   6 55.5305 3.07057   2
   5  -2   6 53.9562 3.06919   1
  -6   2  -6 3.67991 1.91915   3
   6  -2   6 0.58114 1.62068   2
   6  -2   6 3.48886 1.34447   1
  -7   2  -6 110.527 5.69172   3
   7  -2   6 109.413 5.14545   2
   7  -2   6 101.792 4.64753   1
  -8   2  -6 45.9819 4.75604   3
   8  -2   6 49.7054 4.36917   2
   8  -2   6 35.2354 3.30224   1
  -9   2  -6 12.1573 3.31801   3
   9  -2   6 12.9822 3.03480   2
 -10   2  -6 -5.0542 3.47808   3
  10  -2   6 5.95090 3.17525   2
 -11   2  -6 31.4093 7.84281   3
  11  -2   6 24.6284 4.80711   2
  11   1  -6 -6.0260 4.48258   3
  11   1  -6 3.32789 5.06823   2
 -11  -1   6 -3.6138 4.72177   3
  10   1  -6 14.6409 4.45406   2
  10   1  -6 -4.5161 3.93597   3
 -10  -1   6 6.71535 4.11357   3
   9   1  -6 36.2042 6.41016   2
   9   1  -6 19.1592 4.10331   3
  -9  -1   6 23.4249 6.10519   3
   8   1  -6 7.41683 2.96828   2
   8   1  -6 3.20271 3.07056   3
  -8  -1   6 10.3592 3.06822   3
   7   1  -6 -0.3169 2.08949   2
   7   1  -6 1.11310 2.27469   3
  -7  -1   6 -1.7467 1.64825   1
  -7  -1   6 0.64575 2.36091   3
   6   1  -6 0.56590 1.82982   3
   6   1  -6 1.86230 1.84814   2
  -6  -1   6 -0.5888 1.47415   1
  -6  -1   6 -0.4909 2.01530   3
   5   1  -6 3.71386 1.62807   2
   5   1  -6 2.49841 1.72901   3
  -5  -1   6 2.77166 1.51136   1
  -5  -1   6 2.36117 1.76931   3
   4   1  -6 88.7730 4.51886   3
   4   1  -6 91.3299 4.02582   2
  -4  -1   6 92.5701 4.55612   3
  -4  -1   6 91.1545 4.48911   1
   3   1  -6 11.9312 2.44659   3
   3   1  -6 14.6870 2.02905   2
  -3  -1   6 10.2859 2.42962   3
   2   1  -6 1734.17 47.5554   3
   2   1  -6 1624.59 46.8680   2
   2   1  -6 1763.63 46.9022   2
  -2  -1   6 1753.55 47.6270   3
  -2  -1   6 1667.98 46.7987   2
   1   1  -6 117.130 5.05611   3
   1   1  -6 121.015 3.91055   2
  -1  -1   6 123.714 3.87588   2
   0   1  -6 246.064 8.10509   3
   0   1  -6 268.410 7.29013   2
   0  -1   6 241.876 7.31020   2
  -1   1  -6 886.281 25.4509   3
  -1   1  -6 904.823 24.7895   2
   1  -1   6 906.395 24.7559   2
  -2   1  -6 2547.59 68.7029   2
  -2   1  -6 2488.35 68.8556   3
   2  -1   6 2459.27 68.3318   2
   2  -1   6 2527.56 69.1328   1
  -3   1  -6 10.7226 1.90443   2
   3  -1   6 7.55578 1.74855   2
   3  -1   6 11.4796 1.72737   1
   3  -1   6 9.67256 2.06099   2
  -4   1  -6 366.831 11.1473   2
  -4   1  -6 362.119 11.3035   3
   4  -1   6 366.441 11.1492   1
   4  -1   6 370.208 10.9424   2
  -5   1  -6 52.2003 3.35584   2
  -5   1  -6 53.5185 3.36672   3
   5  -1   6 53.3181 3.09528   2
   5  -1   6 48.6813 2.88203   1
  -6   1  -6 355.189 11.4067   2
  -6   1  -6 347.595 11.2857   3
   6  -1   6 355.628 11.0978   2
   6  -1   6 345.631 10.8387   1
  -7   1  -6 234.889 8.59623   3
  -7   1  -6 237.312 8.76879   2
   7  -1   6 230.721 7.85649   1
   7  -1   6 235.339 8.29709   2
  -8   1  -6 25.9591 4.19471   3
  -8   1  -6 30.9918 4.70453   2
   8  -1   6 28.4434 3.14460   1
   8  -1   6 29.1811 3.66529   2
  -9   1  -6 2.78748 2.77051   3
   9  -1   6 5.06484 2.59215   2
   9  -1   6 2.42056 1.89997   1
  10  -1   6 14.1197 3.31522   2
 -11   1  -6 73.9858 8.11103   3
  11  -1   6 75.5590 7.54842   2
 -12   1  -6 -0.5739 4.90922   3
  12  -1   6 9.37382 4.76412   2
  11   0  -6 6.56262 4.96908   2
 -11   0   6 4.27647 4.90571   3
  10   0  -6 0.64372 4.09732   2
 -10   0   6 0.12842 3.97252   3
   9   0  -6 14.6961 3.62673   2
  -9   0   6 14.5464 3.75193   3
   8   0  -6 10.4318 2.93976   2
  -8   0   6 13.3579 3.22535   3
   7   0  -6 31.8345 4.21173   2
  -7   0   6 30.9515 3.18747   1
  -7   0   6 33.0453 4.30200   3
   6   0  -6 94.0369 5.06156   2
  -6   0   6 99.3261 4.17304   1
  -6   0   6 95.6184 5.19679   3
   5   0  -6 44.6434 3.37086   2
  -5   0   6 37.9260 3.67005   3
  -5   0   6 42.8646 2.81255   1
   4   0  -6 266.746 8.93399   3
  -4   0   6 267.047 9.00964   3
  -4   0   6 272.397 8.40324   1
   3   0  -6 431.980 12.7521   2
   3   0  -6 431.111 13.0852   3
  -3   0   6 437.418 13.1996   3
  -3   0   6 420.949 12.7232   1
   2   0  -6 352.423 10.4507   2
   2   0  -6 354.493 10.8339   3
  -2   0   6 330.749 10.4369   2
  -2   0   6 357.293 10.6472   1
  -2   0   6 367.858 10.9262   3
   1   0  -6 96.6849 3.46934   2
   1   0  -6 93.8239 3.91280   3
  -1   0   6 94.4139 3.96859   3
  -1   0   6 95.5097 3.68129   1
  -1   0   6 83.6004 3.54040   2
   0   0  -6 8462.69 219.623   3
   0   0   6 7736.08 219.955   1
   0   0   6 8055.56 219.202   2
  -1   0  -6 3.01324 1.17684   3
  -1   0  -6 5.83391 1.06342   2
   1   0   6 5.80907 1.45888   1
   1   0   6 4.55794 0.99961   2
  -2   0  -6 49.1224 2.51607   2
  -2   0  -6 52.9499 2.69460   3
   2   0   6 49.8313 2.48661   2
   2   0   6 49.6229 3.59270   1
  -3   0  -6 164.275 5.65033   3
  -3   0  -6 169.350 5.73839   2
   3   0   6 166.316 6.09606   1
  -4   0  -6 984.009 28.0593   2
  -4   0  -6 983.499 27.9521   3
   4   0   6 1005.62 27.9670   1
  -5   0  -6 19.8746 2.78953   2
  -5   0  -6 14.5995 2.47583   3
   5   0   6 18.2748 2.50209   2
   5   0   6 23.9539 2.18365   1
  -6   0  -6 31.2371 3.13371   3
  -6   0  -6 33.3939 3.40313   2
   6   0   6 36.1296 2.98384   2
   6   0   6 30.8825 2.57648   1
  -7   0  -6 1.48713 1.99396   2
  -7   0  -6 2.41594 1.82021   3
   7   0   6 1.55541 1.44667   1
   7   0   6 1.61455 1.57797   2
  -8   0  -6 0.58860 2.35503   2
  -8   0  -6 4.89049 2.25619   3
   8   0   6 1.78180 1.59880   1
   8   0   6 0.21717 1.94805   2
  -9   0  -6 134.367 7.40729   2
  -9   0  -6 123.921 6.79709   3
   9   0   6 127.482 6.35204   2
   9   0   6 120.826 5.54794   1
 -10   0  -6 2.48992 3.02238   3
 -10   0  -6 -1.0582 3.35380   2
  10   0   6 1.62639 2.81770   2
 -11   0  -6 40.2337 6.90170   3
  11   0   6 50.6027 6.38104   2
 -12   0  -6 5.54661 4.76390   3
  12   0   6 2.49370 4.13962   2
  11  -1  -6 2.06808 4.83755   2
 -11   1   6 7.30843 5.19776   3
  10  -1  -6 7.14594 4.16139   2
 -10   1   6 7.33745 4.21490   3
   9  -1  -6 0.92231 3.33667   2
  -9   1   6 -0.1058 3.28286   3
   8  -1  -6 2.53700 2.82804   2
  -8   1   6 3.06944 2.80198   3
   7  -1  -6 39.6681 4.47029   2
  -7   1   6 34.6795 4.29483   3
   6  -1  -6 215.014 8.13307   2
  -6   1   6 215.814 6.91271   1
  -6   1   6 218.232 8.25236   3
   5  -1  -6 313.668 10.2822   2
  -5   1   6 316.626 10.5158   3
  -5   1   6 307.484 9.42505   1
   4  -1  -6 345.559 10.9230   2
  -4   1   6 332.105 10.3256   1
  -4   1   6 363.776 11.1036   3
   3  -1  -6 435.921 13.2395   2
   3  -1  -6 454.644 13.3936   3
  -3   1   6 425.277 12.9316   1
  -3   1   6 450.987 13.4270   3
   2  -1  -6 773.082 21.5469   2
  -2   1   6 740.909 21.4189   1
   1  -1  -6 261.708 8.25854   3
   1  -1  -6 273.927 8.17821   2
  -1   1   6 272.530 8.19932   1
  -1   1   6 251.417 8.27737   2
  -1   1   6 260.202 8.29902   3
   0  -1  -6 89.7713 3.46188   2
   0  -1  -6 91.9874 3.59147   3
   0   1   6 92.3398 3.56794   1
   0   1   6 91.8331 3.65215   3
   0   1   6 89.4223 3.59813   2
  -1  -1  -6 400.506 11.3997   3
  -1  -1  -6 369.559 11.3701   3
  -1  -1  -6 391.994 11.3674   2
   1   1   6 372.940 11.2767   2
   1   1   6 383.708 11.3516   3
   1   1   6 403.549 11.4973   1
  -2  -1  -6 4588.75 119.172   3
  -2  -1  -6 4420.77 119.280   2
   2   1   6 4463.46 119.446   1
   2   1   6 4219.05 119.040   3
   2   1   6 4189.97 119.148   2
  -3  -1  -6 165.727 5.79050   2
  -3  -1  -6 166.840 5.46545   3
   3   1   6 155.852 5.98700   1
   3   1   6 169.636 5.77767   3
  -4  -1  -6 55.1668 3.83246   2
  -4  -1  -6 53.1592 2.87317   3
   4   1   6 51.9886 2.77932   1
  -5  -1  -6 125.713 5.29409   2
  -5  -1  -6 129.741 4.83996   3
   5   1   6 126.000 4.73829   1
  -6  -1  -6 215.541 7.33693   3
  -6  -1  -6 218.485 7.93910   2
   6   1   6 210.225 7.16757   1
   6   1   6 214.675 7.51828   2
  -7  -1  -6 3.13920 2.12847   2
  -7  -1  -6 5.17796 1.76896   3
   7   1   6 3.13323 1.68459   2
   7   1   6 3.30273 1.46809   1
  -8  -1  -6 57.8232 4.42613   3
  -8  -1  -6 66.8649 5.27732   2
   8   1   6 57.3424 3.79758   1
   8   1   6 63.7617 4.30716   2
  -9  -1  -6 46.3040 5.51664   2
  -9  -1  -6 55.4781 4.78301   3
   9   1   6 48.9611 3.99782   1
   9   1   6 50.7988 4.52208   2
 -10  -1  -6 1.41130 2.92185   3
 -10  -1  -6 2.39838 3.48014   2
  10   1   6 2.14264 2.77286   2
  10   1   6 5.32434 2.17887   1
 -11  -1  -6 74.5534 8.32910   2
  11   1   6 64.5034 6.81734   2
  12   1   6 1.27561 4.01569   2
  11  -2  -6 2.80397 5.14078   2
 -11   2   6 7.62760 5.09051   3
  10  -2  -6 -1.3401 4.01093   2
 -10   2   6 5.39267 3.96308   3
   9  -2  -6 1.88309 3.31351   2
  -9   2   6 7.79266 3.55228   3
   8  -2  -6 46.8837 5.47935   2
  -8   2   6 50.9008 5.55101   3
   7  -2  -6 105.929 6.03061   2
  -7   2   6 115.253 6.18609   3
   6  -2  -6 10.3707 2.38447   2
  -6   2   6 5.84457 2.14074   3
   5  -2  -6 23.1405 2.07791   1
   5  -2  -6 21.2746 3.46595   2
  -5   2   6 25.6187 2.16530   1
  -5   2   6 29.7357 3.38313   3
   4  -2  -6 162.280 5.30818   1
   4  -2  -6 166.512 6.30525   2
  -4   2   6 174.096 6.29530   3
  -4   2   6 152.629 5.41494   1
  -3   2   6 22.9428 2.04067   1
  -3   2   6 28.5019 2.66755   3
   2  -2  -6 151.424 5.50977   2
  -2   2   6 159.674 5.16597   1
  -2   2   6 144.420 5.93535   3
   1  -2  -6 116.356 4.41201   2
   1  -2  -6 116.302 4.24614   3
  -1   2   6 115.522 4.10784   1
  -1   2   6 113.210 4.29898   3
   0  -2  -6 1470.12 42.7427   3
   0  -2  -6 1572.68 42.7886   3
   0  -2  -6 1539.19 42.9745   2
   0   2   6 1578.99 42.8160   3
   0   2   6 1598.45 42.8970   1
  -1  -2  -6 2419.42 66.3101   2
  -1  -2  -6 2374.82 65.9547   3
  -1  -2  -6 2409.12 65.9695   3
   1   2   6 2421.25 66.1729   1
   1   2   6 2444.70 65.9472   3
  -2  -2  -6 12.1297 2.03090   2
  -2  -2  -6 14.4401 1.77240   3
  -2  -2  -6 17.2029 1.66219   3
   2   2   6 14.7098 1.65253   3
  -3  -2  -6 95.1407 3.38363   3
  -3  -2  -6 98.4151 4.06964   2
   3   2   6 87.1779 3.35324   3
   3   2   6 85.7570 3.55972   1
  -4  -2  -6 2225.41 60.8885   2
  -4  -2  -6 2224.13 60.1288   3
   4   2   6 2191.36 60.4534   1
   4   2   6 2144.51 60.0565   3
  -5  -2  -6 412.179 12.0854   3
  -5  -2  -6 411.032 12.9245   2
   5   2   6 406.841 12.2711   1
  -6  -2  -6 5.44738 1.52188   3
  -6  -2  -6 6.60468 2.03026   2
   6   2   6 9.02524 1.93628   1
  -7  -2  -6 263.466 8.66113   3
  -7  -2  -6 259.627 9.61692   2
   7   2   6 262.552 8.57842   1
   7   2   6 262.106 9.12372   2
  -8  -2  -6 -0.4615 2.38492   2
  -8  -2  -6 4.39197 1.87754   3
   8   2   6 3.57221 2.04741   2
   8   2   6 2.66615 1.51571   1
  -9  -2  -6 145.343 7.82564   2
  -9  -2  -6 136.418 6.39388   3
   9   2   6 142.409 5.90134   1
   9   2   6 136.159 6.83569   2
 -10  -2  -6 27.7086 5.32733   3
 -10  -2  -6 26.6580 5.80302   2
  10   2   6 24.0824 4.06115   1
  10   2   6 25.5371 4.82225   2
 -11  -2  -6 5.35824 4.05759   2
  11   2   6 4.90269 3.14764   2
 -12  -2  -6 -5.1711 4.62343   2
  12   2   6 -5.3748 3.75248   2
 -11   3   6 0.07575 4.92978   3
  10  -3  -6 12.5571 4.54608   2
 -10   3   6 -3.2250 3.90595   3
   9  -3  -6 5.84376 3.68865   2
  -9   3   6 4.29709 3.45786   3
   8  -3  -6 19.3388 5.34701   2
  -8   3   6 21.3420 5.13451   3
   7  -3  -6 7.93051 2.80966   2
  -7   3   6 4.46662 2.51653   3
   6  -3  -6 173.503 7.40102   2
  -6   3   6 170.070 7.16993   3
   5  -3  -6 16.8588 3.39252   2
   5  -3  -6 12.0783 1.69241   1
  -5   3   6 12.1458 1.88134   1
  -5   3   6 14.1307 2.89355   3
   4  -3  -6 40.6342 3.41080   2
   4  -3  -6 30.3425 2.01306   1
  -4   3   6 24.1141 2.87182   3
  -4   3   6 31.2228 2.23029   1
   3  -3  -6 26.8544 3.03357   2
  -3   3   6 21.3919 2.54262   3
  -3   3   6 29.2350 2.16318   1
   2  -3  -6 703.308 20.6448   2
  -2   3   6 717.813 19.8727   1
  -2   3   6 683.689 20.2385   3
   1  -3  -6 702.133 20.2117   2
  -1   3   6 693.120 19.7174   1
  -1   3   6 698.379 19.8344   3
   0  -3  -6 281.135 8.98440   2
   0  -3  -6 278.019 8.51015   3
   0  -3  -6 281.733 8.46306   3
   0   3   6 282.934 8.55549   1
   0   3   6 291.472 8.50479   3
  -1  -3  -6 13.9942 1.63600   3
  -1  -3  -6 12.1506 1.43333   3
   1   3   6 9.41859 1.30726   1
  -2  -3  -6 350.210 9.81882   3
  -2  -3  -6 346.094 9.82221   3
  -2  -3  -6 334.835 10.6308   2
   2   3   6 337.704 10.2619   1
  -3  -3  -6 3884.85 102.086   3
  -3  -3  -6 3686.81 102.053   3
  -3  -3  -6 3681.89 103.206   2
   3   3   6 3798.37 102.671   1
   3   3   6 3739.00 102.039   3
  -4  -3  -6 272.451 9.13821   2
   4   3   6 272.900 7.97769   3
   4   3   6 270.867 8.51841   1
  -5  -3  -6 7.95791 1.22652   3
  -5  -3  -6 9.25597 2.00903   2
   5   3   6 7.91559 1.72597   1
   5   3   6 9.05406 1.94950   3
  -6  -3  -6 227.832 7.22983   3
  -6  -3  -6 223.733 8.41516   2
   6   3   6 226.759 7.53461   1
  -7  -3  -6 45.9669 3.30512   3
  -7  -3  -6 45.3598 4.20439   2
   7   3   6 42.4190 3.01964   1
  -8  -3  -6 4.82957 2.70021   2
  -8  -3  -6 4.05478 1.91568   3
   8   3   6 1.96120 2.02273   2
   8   3   6 1.11667 1.49532   1
  -9  -3  -6 1.57508 5.16903   2
  -9  -3  -6 7.85415 2.40916   3
   9   3   6 5.33699 1.92876   1
   9   3   6 7.53756 3.35450   2
 -10  -3  -6 2.63626 3.41023   2
  10   3   6 10.3250 2.32713   1
  10   3   6 6.41950 2.87607   2
 -11  -3  -6 -0.5974 3.80541   2
  11   3   6 1.47471 3.11611   2
 -12  -3  -6 4.19607 5.13294   2
  12   3   6 5.92281 3.93593   2
  10  -4  -6 -3.2409 4.38742   2
 -10   4   6 1.29910 4.24410   3
   9  -4  -6 1.56517 3.62852   2
  -9   4   6 2.31785 3.63370   3
   8  -4  -6 96.4995 7.14507   2
  -8   4   6 112.523 6.91760   3
   7  -4  -6 17.7948 3.37571   2
  -7   4   6 14.7600 3.09004   3
   6  -4  -6 15.4241 4.25084   2
  -6   4   6 11.0588 2.54513   3
   5  -4  -6 6.86999 2.38609   2
  -5   4   6 7.10242 2.02841   3
   4  -4  -6 159.075 5.21889   1
   4  -4  -6 166.384 6.78203   2
  -4   4   6 168.823 5.50064   1
  -4   4   6 165.402 6.36632   3
   3  -4  -6 227.295 7.71103   2
  -3   4   6 184.161 6.95820   3
  -3   4   6 197.295 6.42561   1
   2  -4  -6 61.8793 3.74366   2
  -2   4   6 52.4317 2.53934   1
   1  -4  -6 149.011 5.78523   2
  -1   4   6 141.605 5.06218   3
  -1   4   6 151.532 4.95628   1
   0  -4  -6 11.5657 1.78729   3
   0   4   6 11.1554 1.47479   1
   0   4   6 13.5941 1.64910   3
  -1  -4  -6 1790.23 49.8410   2
  -1  -4  -6 1780.39 49.0321   3
  -1  -4  -6 1749.02 48.7767   3
   1   4   6 1804.59 49.0712   3
   1   4   6 1805.57 49.2931   1
  -2  -4  -6 14.4049 2.48346   2
   2   4   6 18.7818 1.73060   1
  -3  -4  -6 142.519 5.74857   2
   3   4   6 141.029 5.01953   1
  -4  -4  -6 417.035 13.3366   2
   4   4   6 427.099 12.6598   1
  -5  -4  -6 670.274 20.2318   2
  -5  -4  -6 663.161 18.5829   3
   5   4   6 666.429 18.5914   3
   5   4   6 680.775 19.4687   1
  -6  -4  -6 1.46129 2.01637   2
  -6  -4  -6 0.80088 1.21912   3
   6   4   6 1.04173 1.23829   1
   6   4   6 1.95446 1.31125   3
  -7  -4  -6 5.14243 2.45234   2
  -7  -4  -6 3.83800 1.59224   3
   7   4   6 4.14670 1.55097   1
  -8  -4  -6 37.1318 5.05892   2
  -8  -4  -6 37.8681 4.35422   3
   8   4   6 47.0310 3.50177   1
  -9  -4  -6 16.5390 3.46838   2
   9   4   6 19.9638 4.27683   2
   9   4   6 20.1196 3.42196   1
 -10  -4  -6 6.89889 3.38274   2
  10   4   6 3.32947 2.18910   1
  10   4   6 3.75383 2.75537   2
 -11  -4  -6 6.72132 4.12951   2
  11   4   6 1.17622 2.66622   1
  11   4   6 1.38485 3.16932   2
 -12  -4  -6 -1.3565 4.86042   2
  12   4   6 2.14536 4.09480   2
  10  -5  -6 10.3767 4.87412   2
 -10   5   6 7.26206 4.67440   3
   9  -5  -6 2.55029 4.12943   2
  -9   5   6 -1.2087 3.61690   3
   8  -5  -6 80.2992 7.27463   2
  -8   5   6 70.3788 6.55649   3
   7  -5  -6 6.31264 5.42535   2
   6  -5  -6 20.2973 4.88049   2
  -6   5   6 12.7951 2.73724   3
   5  -5  -6 95.6184 5.69228   2
  -5   5   6 88.1446 5.07287   3
  -5   5   6 77.4819 3.41963   1
   4  -5  -6 285.541 9.75163   2
   4  -5  -6 248.126 7.85788   1
  -4   5   6 263.965 8.04540   1
  -4   5   6 251.268 8.25160   1
  -4   5   6 271.829 9.07131   3
   3  -5  -6 178.716 7.31909   2
  -3   5   6 178.804 5.82075   1
  -3   5   6 181.379 6.58261   3
   2  -5  -6 35.6580 3.66530   2
  -2   5   6 40.2516 4.30882   3
  -2   5   6 42.9198 2.29017   1
   1  -5  -6 846.168 23.9661   2
  -1   5   6 784.888 23.4741   1
  -1   5   6 808.231 22.9495   3
   0  -5  -6 169.154 5.71177   3
   0  -5  -6 179.157 6.82714   2
   0   5   6 181.948 5.86491   1
   0   5   6 178.286 5.67671   3
  -1  -5  -6 278.660 9.40054   2
  -1  -5  -6 266.671 8.00021   3
  -1  -5  -6 271.680 7.99622   3
   1   5   6 280.663 8.03779   3
   1   5   6 283.451 8.60122   1
  -2  -5  -6 18.5511 2.82635   2
   2   5   6 14.2505 1.80919   1
  -3  -5  -6 2537.92 71.1414   2
   3   5   6 2585.81 70.5067   1
  -4  -5  -6 108.562 5.27378   2
   4   5   6 110.770 4.41946   1
  -5  -5  -6 42.2973 3.98021   2
   5   5   6 40.5833 2.79717   1
  -6  -5  -6 111.384 6.06671   2
   6   5   6 118.243 4.85877   1
  -7  -5  -6 415.015 14.0555   2
   7   5   6 408.037 12.8311   1
  -8  -5  -6 7.55376 3.01643   2
   8   5   6 12.8375 2.96376   1
  -9  -5  -6 32.5247 5.83680   2
   9   5   6 35.3061 3.81809   1
   9   5   6 35.9541 5.03815   2
 -10  -5  -6 40.3726 6.64782   2
  10   5   6 48.1970 5.60949   1
  10   5   6 45.4339 5.59398   2
 -11  -5  -6 6.42306 4.18316   2
  11   5   6 1.51588 2.70813   1
  11   5   6 4.45198 3.39946   2
  10  -6  -6 13.0694 5.57565   2
 -10   6   6 7.78860 5.23449   3
   9  -6  -6 8.33963 4.75932   2
  -9   6   6 3.90962 4.16834   3
   8  -6  -6 10.4191 4.24938   2
  -8   6   6 3.45205 3.74515   3
  -7   6   6 36.5865 5.80045   3
   6  -6  -6 61.2486 6.15392   2
  -6   6   6 71.1213 5.47501   3
   5  -6  -6 19.7058 3.36603   2
  -5   6   6 25.0004 4.09923   3
   4  -6  -6 46.6092 4.73082   2
  -4   6   6 62.1358 4.14836   3
  -4   6   6 54.2381 2.88891   1
   3  -6  -6 391.789 13.0876   2
  -3   6   6 377.344 11.3695   1
  -3   6   6 391.037 12.1499   3
   2  -6  -6 128.346 6.00491   2
  -2   6   6 117.864 4.86749   3
   1  -6  -6 537.051 16.9494   2
  -1   6   6 558.104 15.8313   1
  -1   6   6 542.438 15.8271   3
   0  -6  -6 2.40186 1.32835   3
   0  -6  -6 3.42117 1.80735   2
   0   6   6 1.80127 1.10191   3
   0   6   6 2.08797 1.03592   1
  -1  -6  -6 1857.53 51.5498   3
  -1  -6  -6 1906.03 53.1605   2
   1   6   6 1938.01 52.2957   1
   1   6   6 1857.84 51.5518   3
  -2  -6  -6 227.056 8.60709   2
   2   6   6 242.026 7.68653   1
  -3  -6  -6 245.871 8.95893   2
   3   6   6 236.180 7.89107   1
  -4  -6  -6 32.4160 3.86985   2
   4   6   6 32.1775 2.61666   1
  -5  -6  -6 697.892 21.7459   2
   5   6   6 727.866 20.8760   1
  -6  -6  -6 147.759 7.06734   2
   6   6   6 142.764 5.79169   1
  -7  -6  -6 40.9991 4.79521   2
   7   6   6 37.6389 3.30988   1
  -8  -6  -6 32.5484 5.05129   2
   8   6   6 24.6764 3.46059   1
  -9  -6  -6 6.58688 3.43949   2
 -10  -6  -6 10.0425 4.03931   2
  10   6   6 8.44282 3.33298   2
  10   6   6 11.6816 2.72802   1
 -11  -6  -6 4.91541 4.55965   2
  11   6   6 1.28830 2.93935   1
  11   6   6 -1.5089 3.44924   2
   9  -7  -6 -0.1329 4.76484   2
  -9   7   6 -8.1816 4.38533   3
   8  -7  -6 44.8231 8.31532   2
  -8   7   6 32.8794 7.24888   3
   7  -7  -6 6.47233 3.88766   2
  -7   7   6 5.02559 3.27974   3
   6  -7  -6 -0.3413 3.18477   2
  -6   7   6 2.32787 2.74737   3
   5  -7  -6 197.736 9.07275   2
  -5   7   6 206.210 8.39199   3
   4  -7  -6 182.468 8.27026   2
  -4   7   6 169.956 5.90701   1
  -4   7   6 177.661 7.25377   3
   3  -7  -6 96.0846 5.90923   2
  -3   7   6 97.2875 4.90039   3
  -3   7   6 96.1179 4.13714   1
   2  -7  -6 16.0606 4.05728   2
  -2   7   6 15.7943 2.82876   3
  -2   7   6 19.4636 2.20793   1
   1  -7  -6 423.300 13.1008   2
  -1   7   6 354.802 11.4369   3
  -1   7   6 365.442 11.4659   1
   0  -7  -6 19.4263 3.77824   2
   0  -7  -6 20.1968 3.23165   3
   0   7   6 20.6192 2.19732   1
   0   7   6 20.7716 2.32930   3
  -1  -7  -6 16.3512 3.56770   2
  -1  -7  -6 21.1703 2.10984   3
   1   7   6 18.1704 2.14577   1
  -2  -7  -6 24.0017 3.66764   2
   2   7   6 26.1182 2.41259   1
  -3  -7  -6 182.689 7.76490   2
   3   7   6 187.489 6.65409   1
  -4  -7  -6 175.285 7.73768   2
   4   7   6 189.817 6.67696   1
  -5  -7  -6 3.48187 2.35375   2
   5   7   6 -0.0466 1.27909   1
  -6  -7  -6 3.13775 2.66320   2
   6   7   6 -0.6023 1.44408   1
  -7  -7  -6 210.813 10.2058   2
   7   7   6 210.514 7.88539   1
  -8  -7  -6 1.20998 3.15080   2
   8   7   6 7.93097 3.60108   1
  -9  -7  -6 1.73483 3.44244   2
   9   7   6 0.04714 2.12540   1
 -10  -7  -6 10.0152 4.53103   2
  10   7   6 12.3534 2.93144   1
  10   7   6 25.3397 6.13268   2
 -11  -7  -6 0.56358 4.70494   2
  11   7   6 -3.0624 3.21839   1
  11   7   6 2.27072 3.92485   2
   9  -8  -6 4.43545 5.59827   2
  -9   8   6 -0.4883 5.12010   3
  -8   8   6 31.5887 7.62245   3
   7  -8  -6 31.2831 7.34204   2
  -7   8   6 17.0773 4.03623   3
   6  -8  -6 103.466 7.81709   2
  -6   8   6 83.3192 6.93361   3
   5  -8  -6 24.9930 5.96950   2
  -5   8   6 17.3582 3.30360   3
   4  -8  -6 5.10279 3.18284   2
  -4   8   6 7.99184 2.49763   3
  -4   8   6 7.60069 1.52853   1
   3  -8  -6 93.8736 6.52770   2
  -3   8   6 96.2663 4.11226   1
  -3   8   6 96.3439 5.11139   3
   2  -8  -6 -0.9275 2.62787   2
  -2   8   6 2.52250 1.76388   3
  -2   8   6 0.98822 1.26154   1
   1  -8  -6 60.5114 5.43399   2
  -1   8   6 62.1029 3.41170   1
   0  -8  -6 60.6927 5.35069   2
   0   8   6 67.3488 3.45628   1
   0   8   6 62.5096 3.30824   3
  -1  -8  -6 395.343 13.1665   2
   1   8   6 368.117 11.7261   1
   1   8   6 372.819 10.9483   3
  -2  -8  -6 135.195 6.85219   2
   2   8   6 132.956 5.30947   1
  -3  -8  -6 140.715 7.04835   2
   3   8   6 138.312 5.57194   1
  -4  -8  -6 16.9059 3.18723   2
   4   8   6 21.2724 2.71731   1
  -5  -8  -6 167.208 8.24626   2
   5   8   6 167.130 6.58571   1
  -6  -8  -6 174.135 8.80734   2
   6   8   6 186.198 7.17383   1
  -7  -8  -6 -2.5159 3.20260   2
   7   8   6 4.91458 2.02160   1
  -8  -8  -6 75.3302 7.11563   2
   8   8   6 87.2599 5.40507   1
  -9  -8  -6 7.09589 4.20770   2
   9   8   6 8.55245 2.66298   1
 -10  -8  -6 49.1583 8.18764   2
  10   8   6 24.8773 5.13118   1
   8  -9  -6 3.82172 5.07058   2
  -8   9   6 12.0687 4.88931   3
   7  -9  -6 -0.2487 4.67860   2
  -7   9   6 -6.0087 4.01739   3
   6  -9  -6 4.47320 4.33952   2
  -6   9   6 1.30436 3.60227   3
   5  -9  -6 92.7346 8.08456   2
  -5   9   6 107.317 6.83896   3
   4  -9  -6 29.9611 6.37809   2
  -4   9   6 31.4559 5.02166   3
   3  -9  -6 3.27450 3.33900   2
  -3   9   6 1.37034 2.40224   3
  -3   9   6 -1.9117 1.51675   1
   2  -9  -6 28.8528 5.68237   2
  -2   9   6 20.0041 3.56412   3
  -2   9   6 24.6069 2.92797   1
   1  -9  -6 163.988 8.46124   2
  -1   9   6 162.128 6.18917   3
  -1   9   6 156.754 6.07853   1
   0  -9  -6 50.2900 5.70296   2
   0   9   6 41.6036 3.25852   3
   0   9   6 43.1992 3.33833   1
  -1  -9  -6 68.4295 5.75290   2
   1   9   6 62.6140 3.65068   1
   1   9   6 58.2131 3.15493   3
  -2  -9  -6 204.818 9.08319   2
   2   9   6 207.298 7.50616   1
  -3  -9  -6 54.9345 5.65494   2
   3   9   6 51.1001 3.66155   1
  -4  -9  -6 529.244 17.7641   2
   4   9   6 524.440 16.2718   1
  -5  -9  -6 3.01006 3.13070   2
  -6  -9  -6 20.0474 3.97538   2
   6   9   6 25.0425 3.65939   1
  -7  -9  -6 34.6962 6.83118   2
   7   9   6 31.2416 4.12543   1
  -8  -9  -6 -0.0504 4.07977   2
   8   9   6 4.79637 2.53421   1
  -9  -9  -6 2.27531 4.17683   2
   9   9   6 2.87323 2.70120   1
 -10  -9  -6 4.09795 5.26891   2
  10   9   6 6.78385 3.33938   1
   7 -10  -6 3.38599 5.09498   2
  -7  10   6 6.41408 5.14802   3
   6 -10  -6 9.57192 4.79128   2
  -6  10   6 11.2009 4.37293   3
   5 -10  -6 14.5755 4.54634   2
  -5  10   6 14.7563 3.82495   3
   4 -10  -6 9.36577 4.13814   2
  -4  10   6 6.68224 3.17058   3
   3 -10  -6 32.8856 7.19517   2
  -3  10   6 29.3983 4.78456   3
  -3  10   6 19.4376 3.40648   1
   2 -10  -6 87.8910 8.39343   2
  -2  10   6 74.9512 4.53204   1
  -2  10   6 66.8314 5.07648   3
   1 -10  -6 64.0342 7.17758   2
  -1  10   6 63.7031 4.45501   3
  -1  10   6 64.1072 4.13642   1
   0 -10  -6 237.015 10.7676   2
   0  10   6 252.525 8.52760   1
   0  10   6 223.355 9.35982   3
  -1 -10  -6 1.51361 3.29339   2
   1  10   6 3.08806 1.71740   1
  -2 -10  -6 173.159 8.96610   2
   2  10   6 174.268 6.95988   1
  -3 -10  -6 15.6324 4.01727   2
   3  10   6 15.0015 3.03928   1
  -4 -10  -6 19.5172 4.10374   2
   4  10   6 20.1138 3.43987   1
  -5 -10  -6 24.8729 6.37062   2
   5  10   6 19.2937 3.51108   1
  -6 -10  -6 86.4085 7.92990   2
   6  10   6 80.0419 5.11328   1
  -7 -10  -6 -3.7220 4.09900   2
   7  10   6 3.59893 2.29289   1
  -8 -10  -6 4.94734 4.60569   2
   8  10   6 7.92939 2.76507   1
  -9 -10  -6 4.18624 4.73556   2
   9  10   6 3.16877 3.11876   1
   6 -11  -6 14.2236 5.45315   2
  -6  11   6 5.86436 4.69651   3
   5 -11  -6 12.4812 5.29538   2
  -5  11   6 6.20092 4.24032   3
   4 -11  -6 23.6724 5.59594   2
  -4  11   6 17.8870 4.58050   3
   3 -11  -6 55.9407 8.86022   2
  -3  11   6 39.6140 5.69706   3
   2 -11  -6 45.7552 8.41826   2
  -2  11   6 40.1720 5.21212   3
  -2  11   6 38.4311 4.17424   1
   1 -11  -6 35.5157 7.87979   2
  -1  11   6 39.3806 3.87683   1
   0 -11  -6 146.458 9.30806   2
   0  11   6 145.058 6.41524   1
  -1 -11  -6 -1.7119 3.76094   2
  -2 -11  -6 180.110 10.2859   2
   2  11   6 191.272 7.67102   1
  -3 -11  -6 5.88773 4.19325   2
   3  11   6 6.69020 2.30503   1
  -4 -11  -6 228.156 11.1001   2
   4  11   6 227.867 8.86306   1
  -5 -11  -6 29.9017 7.40217   2
   5  11   6 17.4594 4.08135   1
  -6 -11  -6 73.1386 8.87060   2
   6  11   6 65.7134 5.19452   1
  -7 -11  -6 3.45692 5.03864   2
   7  11   6 5.97207 2.72709   1
  -8 -11  -6 48.8661 9.30194   2
   8  11   6 48.9058 6.09532   1
   5 -12  -6 20.7827 6.44702   2
  -5  12   6 13.6656 5.15399   3
   4 -12  -6 14.8874 6.16068   2
  -4  12   6 10.4008 4.67964   3
   3 -12  -6 4.54322 5.71205   2
   2 -12  -6 92.4115 10.1893   2
  -2  12   6 108.748 6.30801   1
   1 -12  -6 21.0877 5.48245   2
  -1  12   6 16.5254 4.25826   1
   0 -12  -6 133.861 10.0082   2
   0  12   6 122.117 6.28034   1
  -1 -12  -6 7.02720 4.68496   2
   1  12   6 6.00159 2.37829   1
  -2 -12  -6 147.783 10.7018   2
   2  12   6 160.748 7.22443   1
  -3 -12  -6 9.57777 4.92990   2
   3  12   6 7.79861 2.65472   1
  -4 -12  -6 37.4924 8.44286   2
   4  12   6 32.8213 4.72924   1
  -5 -12  -6 23.1393 5.54068   2
   5  12   6 19.7564 4.66968   1
  -6 -12  -6 11.2591 5.69716   2
   6  12   6 21.3669 4.99780   1
  -7 -12  -6 53.8577 10.2807   2
   7  12   6 49.2616 5.86321   1
   3 -13  -6 52.4596 11.4577   2
   2 -13  -6 7.04697 6.06991   2
   1 -13  -6 0.83397 5.97827   2
  -1  13   6 0.59357 2.89595   1
   0 -13  -6 27.4399 6.62228   2
   0  13   6 46.6156 5.19059   1
  -1 -13  -6 6.08842 5.47861   2
   1  13   6 0.72295 2.73023   1
  -2 -13  -6 3.93841 5.16564   2
   2  13   6 2.55331 2.70036   1
  -3 -13  -6 17.9279 5.85299   2
   3  13   6 12.2596 3.19421   1
  -4 -13  -6 2.53923 5.81853   2
   4  13   6 4.21984 2.86359   1
  -5 -13  -6 4.98975 6.00165   2
   5  13   6 9.14266 3.21849   1
   2  11  -7 -4.8878 4.22435   3
  -2 -11   7 -5.1926 3.67004   1
   1  11  -7 1.05607 4.46731   3
  -1 -11   7 -0.0862 3.80934   1
   0  11  -7 23.3011 4.84475   3
   0 -11   7 18.2229 4.29489   1
  -1  11  -7 -1.3052 4.43238   3
   1 -11   7 9.99869 3.98841   1
  -2  11  -7 3.61461 4.59784   3
   2 -11   7 -0.9033 3.45740   1
  -3  11  -7 12.6847 4.96197   3
   3 -11   7 5.19296 3.96651   1
   5  10  -7 15.3007 3.80456   1
   5  10  -7 10.3690 5.14090   3
  -5 -10   7 0.31517 4.24923   1
   4  10  -7 1.54393 4.39787   3
   4  10  -7 4.03045 3.14778   1
  -4 -10   7 0.12045 3.51741   1
   3  10  -7 15.2200 4.50513   3
  -3 -10   7 2.59118 3.62391   1
   2  10  -7 35.6907 7.98658   3
  -2 -10   7 45.5271 6.53624   1
   1  10  -7 -4.0183 3.56361   3
  -1 -10   7 1.62524 3.25649   1
   0  10  -7 10.0940 3.88212   3
   0 -10   7 7.95734 3.32029   1
  -1  10  -7 15.7922 4.14018   3
   1 -10   7 14.7919 3.63711   1
  -2  10  -7 130.593 8.87034   3
   2 -10   7 145.045 8.15894   1
  -3  10  -7 3.89897 4.04644   3
   3 -10   7 10.1623 3.46461   1
  -4  10  -7 41.2113 8.32670   3
   4 -10   7 37.1053 6.24298   1
  -5  10  -7 -1.5437 4.85726   3
   5 -10   7 11.2133 3.90179   1
   6   9  -7 16.0553 5.12550   3
   6   9  -7 15.1549 3.77962   1
  -6  -9   7 11.0579 4.60040   1
   5   9  -7 12.2546 3.15118   1
   5   9  -7 7.53601 4.71492   3
  -5  -9   7 6.29630 3.67552   1
   4   9  -7 24.7633 4.65080   3
  -4  -9   7 19.2458 3.88834   1
   3   9  -7 8.97450 3.85283   3
  -3  -9   7 8.43561 3.24211   1
   2   9  -7 50.7485 6.54645   3
  -2  -9   7 27.9604 5.50959   1
   1   9  -7 11.5223 3.88810   3
  -1  -9   7 14.1326 3.11958   1
   0   9  -7 195.234 9.22390   3
   0  -9   7 188.755 8.62709   1
  -1   9  -7 2.11576 3.12320   3
   1  -9   7 3.45568 2.76434   1
  -2   9  -7 8.24907 3.54101   3
   2  -9   7 6.51826 2.97975   1
  -3   9  -7 6.27505 3.53258   3
   3  -9   7 10.9484 3.14635   1
  -4   9  -7 33.5977 6.93129   3
   4  -9   7 46.9553 5.81094   1
  -5   9  -7 -1.7919 4.00825   3
   5  -9   7 0.13521 3.11953   1
  -6   9  -7 -6.8464 4.18117   3
   6  -9   7 3.88319 3.50059   1
  -7   9  -7 0.89088 5.18181   3
   7   8  -7 -1.3656 3.24295   1
   7   8  -7 0.77104 4.44574   3
  -7  -8   7 1.97987 4.18598   1
   6   8  -7 -3.5983 4.02758   3
   6   8  -7 3.42910 2.98058   1
  -6  -8   7 6.22325 3.55853   1
   5   8  -7 63.7062 7.48971   3
  -5  -8   7 50.4252 6.55930   1
   4   8  -7 24.3246 6.32754   3
  -4  -8   7 26.7067 5.51091   1
   3   8  -7 11.5793 3.50713   3
  -3  -8   7 7.59939 3.05334   1
   2   8  -7 24.1541 5.45883   3
  -2  -8   7 15.2235 3.02769   1
   1   8  -7 4.55747 3.72518   3
  -1  -8   7 0.69310 2.36748   1
   0   8  -7 7.90458 3.79879   3
   0  -8   7 5.55062 2.38198   1
  -1   8  -7 -1.6450 2.52177   3
   1  -8   7 2.95537 2.49275   1
  -2   8  -7 41.7641 5.36795   3
  -3   8  -7 1.44328 2.91552   3
  -4   8  -7 -0.2056 3.05237   3
  -5   8  -7 6.38648 3.56107   3
  -6   8  -7 34.7338 7.08514   3
  -7   8  -7 10.6321 4.67166   3
  -8   8  -7 2.64044 4.86870   3
   8   7  -7 -0.4256 4.58382   3
   8   7  -7 7.68924 3.39425   1
  -8  -7   7 -5.7297 4.31806   1
   7   7  -7 64.5161 7.52024   3
   7   7  -7 61.5884 6.09185   1
  -7  -7   7 51.3503 7.29243   1
   6   7  -7 0.34513 3.64873   3
  -6  -7   7 -2.7696 3.07365   1
   5   7  -7 17.6893 3.73752   3
  -5  -7   7 14.5181 3.29638   1
   4   7  -7 7.45611 3.54141   3
  -4  -7   7 1.82309 2.68196   1
   3   7  -7 11.2406 3.17543   3
  -3  -7   7 8.38826 4.42355   1
   2   7  -7 32.4113 4.93071   3
  -2  -7   7 24.1121 4.03053   1
   1   7  -7 1.57093 2.41832   3
  -1  -7   7 -2.9364 1.98614   1
   0   7  -7 97.2912 6.10663   3
   0  -7   7 98.9945 5.56371   1
  -1   7  -7 55.8801 5.02438   3
   1  -7   7 59.2490 4.44294   1
  -2   7  -7 -0.2475 2.36201   3
   2  -7   7 1.28403 1.89146   1
  -3   7  -7 27.7061 4.81892   3
   3  -7   7 35.9451 4.11964   1
  -4   7  -7 72.6718 5.96986   3
   4  -7   7 72.6360 5.02215   1
  -5   7  -7 90.8969 6.84679   3
   5  -7   7 70.8605 5.22462   1
  -6   7  -7 1.71916 3.48842   3
   6  -7   7 0.88186 2.45346   1
  -7   7  -7 42.8174 7.18182   3
   7  -7   7 30.1428 4.87993   1
  -8   7  -7 0.82297 4.26398   3
  -9   7  -7 41.7736 8.87767   3
   8   6  -7 2.83458 3.10768   1
   8   6  -7 -0.1870 4.04879   3
  -8  -6   7 -3.9896 3.75185   1
   7   6  -7 49.8008 7.18852   3
   7   6  -7 47.0058 5.12392   1
  -7  -6   7 43.5262 6.14736   1
   6   6  -7 45.0401 6.36175   3
  -6  -6   7 49.0622 5.78318   1
  -5  -6   7 29.5343 5.06126   1
   4   6  -7 87.6858 6.13200   3
  -4  -6   7 94.5386 5.79359   1
   3   6  -7 17.9270 4.51405   3
  -3  -6   7 19.9247 3.85335   1
   2   6  -7 5.35070 2.36189   3
  -2  -6   7 -0.4437 1.86794   1
   1   6  -7 114.149 6.16537   3
  -1  -6   7 117.734 5.56442   1
   0   6  -7 2.70312 2.09471   3
   0  -6   7 5.01406 1.86823   1
  -1   6  -7 1.57858 2.14497   3
   1  -6   7 6.10816 1.87694   1
  -2   6  -7 23.0372 3.86432   3
   2  -6   7 23.6064 3.26595   1
  -3   6  -7 263.962 9.80119   3
   3  -6   7 254.458 9.08157   1
  -4   6  -7 12.3910 2.79700   3
   4  -6   7 15.3059 3.36864   1
   5  -6   7 18.5028 3.74079   1
  -6   6  -7 20.9162 3.83968   3
   6  -6   7 22.7136 4.09785   1
  -7   6  -7 6.39724 3.42088   3
   7  -6   7 2.36623 2.36528   1
  -8   6  -7 16.4466 4.20802   3
  -9   6  -7 2.95926 4.20927   3
   9   5  -7 -3.9771 4.38641   3
  -9  -5   7 0.27217 4.29713   3
   8   5  -7 16.4443 3.60630   1
   8   5  -7 16.0305 4.26751   3
  -8  -5   7 17.7202 4.44137   1
  -8  -5   7 18.2861 4.17900   3
   7   5  -7 17.2831 3.88364   3
  -7  -5   7 8.50925 3.11024   1
  -7  -5   7 14.6722 3.58855   3
   6   5  -7 49.4454 5.63528   3
  -6  -5   7 35.6917 4.89888   1
   5   5  -7 74.5058 5.73695   3
  -5  -5   7 73.7588 5.20441   1
   4   5  -7 37.9093 3.25230   2
   4   5  -7 32.0584 4.65461   3
  -4  -5   7 41.3581 4.21540   1
   3   5  -7 8.29380 2.38238   3
  -3  -5   7 2.94666 1.99328   1
   2   5  -7 -0.6604 2.01140   3
  -2  -5   7 1.46720 1.67651   1
   1   5  -7 120.545 5.83079   3
  -1  -5   7 124.057 5.46322   1
   0   5  -7 127.922 5.98957   3
   0  -5   7 131.457 5.57272   1
  -1   5  -7 445.448 14.3730   3
   1  -5   7 457.340 14.0939   1
  -2   5  -7 17.5194 3.46200   3
   2  -5   7 17.4211 2.81390   1
  -3   5  -7 19.2389 3.54593   3
   3  -5   7 20.9095 2.98978   1
   3  -5   7 17.9894 2.47539   2
  -4   5  -7 55.4387 4.56854   3
   4  -5   7 56.5767 3.72677   2
   4  -5   7 55.9460 3.74407   1
  -5   5  -7 103.769 6.14006   3
   5  -5   7 96.1864 4.94876   2
   5  -5   7 100.248 4.98678   1
  -6   5  -7 -0.2016 2.70055   3
   6  -5   7 5.79928 1.99633   1
   6  -5   7 1.23427 2.35430   2
  -7   5  -7 20.3557 5.34510   3
   7  -5   7 16.8282 3.81986   1
   7  -5   7 19.7724 4.77686   2
  -8   5  -7 1.15593 3.41569   3
   8  -5   7 -2.0569 2.30384   1
   8  -5   7 1.20255 3.09916   2
  -9   5  -7 32.2136 7.06228   3
   9  -5   7 34.4807 6.79920   2
 -10   5  -7 13.3461 4.95210   3
  10  -5   7 16.3205 4.83572   2
   9   4  -7 -0.0774 4.08577   3
  -9  -4   7 -3.9428 3.98061   3
   8   4  -7 35.2636 4.55949   1
   8   4  -7 27.1239 5.73273   2
   8   4  -7 40.5006 6.62850   3
  -8  -4   7 29.4571 5.91727   1
  -8  -4   7 39.2113 6.52602   3
   7   4  -7 6.65322 2.85026   2
   7   4  -7 10.6000 3.25569   3
  -7  -4   7 4.91749 2.84461   1
  -7  -4   7 2.91553 3.19815   3
   6   4  -7 -3.5857 2.68324   3
   6   4  -7 -3.0852 2.03907   2
  -6  -4   7 -2.5192 2.40262   1
  -6  -4   7 -1.0927 2.52046   3
   5   4  -7 2.68544 2.45881   3
  -5  -4   7 3.07858 2.18777   1
  -5  -4   7 -0.5663 2.27713   3
   4   4  -7 57.7116 4.66474   3
   4   4  -7 52.1320 3.19710   2
  -4  -4   7 52.4244 3.96385   1
   3   4  -7 345.232 11.6621   3
  -3  -4   7 342.089 11.2712   1
   2   4  -7 3.78508 1.97158   3
  -2  -4   7 4.74101 1.58586   1
  -1  -4   7 9.77235 2.41791   1
   0   4  -7 191.976 7.39453   3
   0  -4   7 200.728 7.13402   1
  -1   4  -7 75.8835 4.40416   3
   1  -4   7 83.8636 4.04302   1
  -2   4  -7 72.2347 4.33793   3
   2  -4   7 71.9388 3.80541   1
  -3   4  -7 1022.58 29.8722   3
   3  -4   7 1064.90 29.5385   1
   3  -4   7 1040.56 28.6270   2
   3  -4   7 1000.59 28.6125   2
  -4   4  -7 13.5962 3.59413   3
   4  -4   7 22.1689 2.72804   2
   4  -4   7 18.6784 2.90817   1
  -5   4  -7 55.2229 4.56228   3
   5  -4   7 49.3989 3.61627   2
   5  -4   7 47.8374 3.53393   1
  -6   4  -7 45.6413 5.08847   3
   6  -4   7 45.0152 3.70185   1
   6  -4   7 47.3161 3.83847   2
  -7   4  -7 140.734 7.33572   3
   7  -4   7 136.236 6.02021   1
   7  -4   7 145.027 6.45698   2
  -8   4  -7 33.6935 6.04985   3
   8  -4   7 33.3925 4.00582   1
   8  -4   7 40.2987 5.28843   2
  -9   4  -7 4.88930 3.62315   3
 -10   4  -7 8.54670 4.52055   3
  10  -4   7 5.72046 4.37877   2
  10   3  -7 2.63776 4.65439   2
  10   3  -7 1.58970 4.68658   3
 -10  -3   7 -0.4890 4.75207   3
   9   3  -7 6.85521 4.28192   2
   9   3  -7 8.31000 4.01122   3
  -9  -3   7 2.69428 4.01079   3
   8   3  -7 7.81945 3.20326   2
   8   3  -7 4.34443 2.20934   1
   8   3  -7 7.38623 3.66424   3
  -8  -3   7 4.32242 3.53301   3
  -8  -3   7 4.45514 3.14436   1
   7   3  -7 7.09941 2.65684   2
   7   3  -7 5.44532 2.99548   3
  -7  -3   7 8.92434 2.61153   1
  -7  -3   7 8.36292 3.09434   3
   6   3  -7 3.81016 2.53752   3
   6   3  -7 9.62897 2.20868   2
  -6  -3   7 6.93225 2.64352   3
  -6  -3   7 8.56123 2.28207   1
   5   3  -7 49.6117 3.55073   2
   5   3  -7 48.4694 4.35396   3
  -5  -3   7 43.3690 4.36147   3
  -5  -3   7 48.4566 3.94810   1
   4   3  -7 109.942 4.56591   2
   4   3  -7 117.443 5.89463   3
  -4  -3   7 113.192 5.16452   1
  -4  -3   7 122.321 5.83847   3
   3   3  -7 3.45832 1.85072   3
   3   3  -7 5.28349 1.67017   2
   3   3  -7 2.40090 1.28520   2
  -3  -3   7 2.43978 1.57338   1
   2   3  -7 44.0051 3.72831   3
  -2  -3   7 46.1678 3.20035   1
   1   3  -7 676.691 20.1310   3
  -1  -3   7 681.295 19.9045   1
   0   3  -7 318.075 10.4452   3
   0  -3   7 316.329 10.1178   1
  -1   3  -7 99.5601 4.74582   3
   1  -3   7 102.276 4.41108   1
  -2   3  -7 283.284 9.48772   3
   2  -3   7 285.503 9.23839   1
  -3   3  -7 20.8895 3.03382   3
   3  -3   7 24.4693 2.04684   2
   3  -3   7 29.8686 2.57631   1
   3  -3   7 28.2750 2.52258   2
  -4   3  -7 6.44618 1.97331   3
   4  -3   7 10.9476 2.33140   1
   4  -3   7 8.67922 2.19660   2
  -5   3  -7 238.334 8.69666   3
   5  -3   7 232.276 7.96998   1
   5  -3   7 224.228 7.67316   2
  -6   3  -7 72.5422 5.22456   3
   6  -3   7 69.1606 3.98712   1
   6  -3   7 74.7740 4.16091   2
  -7   3  -7 8.50847 2.80532   3
   7  -3   7 11.6328 2.36855   2
   7  -3   7 7.87873 1.98649   1
  -8   3  -7 -0.2374 2.96151   3
   8  -3   7 4.79774 2.01221   1
   8  -3   7 6.41052 2.79599   2
  -9   3  -7 3.56642 3.26938   3
   9  -3   7 2.92982 3.33844   1
   9  -3   7 0.14344 3.16516   2
 -10   3  -7 3.57282 4.01688   3
  10  -3   7 9.92105 4.00432   2
 -11   3  -7 -3.5069 4.78981   3
  11  -3   7 -5.5877 4.68318   2
  10   2  -7 -4.6088 4.40745   3
  10   2  -7 3.49672 4.56090   2
 -10  -2   7 -0.7189 4.29909   3
   9   2  -7 -2.4630 3.63733   2
   9   2  -7 1.45981 3.97708   3
  -9  -2   7 2.68502 3.78789   3
   8   2  -7 8.76837 3.45420   3
   8   2  -7 3.62284 3.00102   2
  -8  -2   7 3.29989 3.32003   3
  -7  -2   7 0.30268 4.74974   3
  -7  -2   7 1.12427 2.20157   1
   6   2  -7 37.5834 3.91948   2
   6   2  -7 37.8604 4.37190   3
  -6  -2   7 32.1360 3.99374   1
  -6  -2   7 40.7869 4.60857   3
   5   2  -7 23.8139 3.19931   2
   5   2  -7 22.7560 3.83207   3
  -5  -2   7 22.4859 3.89874   3
  -5  -2   7 20.6901 3.25746   1
   4   2  -7 605.412 18.0732   2
   4   2  -7 636.590 19.0177   3
  -4  -2   7 640.315 19.1098   3
  -4  -2   7 628.738 18.6088   1
   3   2  -7 18.3323 3.00374   2
   3   2  -7 27.9358 3.33879   3
   3   2  -7 28.8195 2.46131   2
  -3  -2   7 27.3776 2.79983   2
  -3  -2   7 24.5154 2.63429   1
  -3  -2   7 27.0730 3.28493   3
   2   2  -7 12.7339 2.66230   3
   2   2  -7 12.3370 2.09027   2
  -2  -2   7 17.2311 2.42961   1
  -2  -2   7 12.3964 1.94299   2
   1   2  -7 195.114 6.83439   3
  -1  -2   7 184.565 6.64928   1
   0   2  -7 76.8758 3.86556   3
   0  -2   7 68.8222 3.45266   1
  -1   2  -7 234.180 8.00270   3
   1  -2   7 237.154 7.80867   1
  -2   2  -7 167.369 5.22669   2
  -2   2  -7 171.090 6.25894   3
   2  -2   7 164.356 5.13195   2
   2  -2   7 165.856 5.20223   2
   2  -2   7 170.810 5.99487   1
  -3   2  -7 104.731 4.62988   3
  -3   2  -7 96.2713 3.90807   2
   3  -2   7 107.905 3.73907   2
   3  -2   7 100.302 4.24251   1
   3  -2   7 93.1602 3.96930   2
  -4   2  -7 464.421 14.1936   2
  -4   2  -7 494.012 14.8772   3
   4  -2   7 496.639 14.5251   1
   4  -2   7 477.139 14.0316   2
  -5   2  -7 61.5960 4.15621   3
  -5   2  -7 65.1337 3.75969   2
   5  -2   7 60.7218 3.39104   2
   5  -2   7 55.7871 3.44814   1
  -6   2  -7 26.7144 3.87922   3
  -6   2  -7 27.5213 3.53607   2
   6  -2   7 28.9793 3.01902   1
   6  -2   7 23.5729 2.97816   2
  -7   2  -7 157.080 6.97150   3
   7  -2   7 149.459 5.99118   1
   7  -2   7 149.555 6.32529   2
  -8   2  -7 30.5208 5.06248   3
   8  -2   7 33.4553 4.23373   2
   8  -2   7 28.6893 3.53336   1
   9  -2   7 4.80517 2.18411   1
   9  -2   7 8.02929 3.06819   2
 -10   2  -7 5.52799 3.81244   3
  10  -2   7 12.1533 3.62751   2
 -11   2  -7 2.46182 4.54806   3
  11  -2   7 4.31189 4.38552   2
  10   1  -7 17.2360 4.90456   2
  10   1  -7 13.0961 4.63503   3
 -10  -1   7 8.95922 4.50100   3
   9   1  -7 4.25663 3.55425   3
   9   1  -7 2.92228 3.53432   2
  -9  -1   7 2.25203 3.58685   3
   8   1  -7 43.4347 5.57121   2
   8   1  -7 42.1800 5.66258   3
  -8  -1   7 48.8845 6.03253   3
   7   1  -7 7.00848 2.88656   3
   7   1  -7 11.9793 2.75078   2
  -7  -1   7 8.03860 2.12303   1
  -7  -1   7 10.5738 3.18194   3
   6   1  -7 8.57292 2.38275   3
   6   1  -7 6.85163 2.27328   2
  -6  -1   7 5.55065 1.84040   1
  -6  -1   7 5.54189 2.35113   3
   5   1  -7 32.1313 3.33226   2
   5   1  -7 28.5740 3.81947   3
  -5  -1   7 29.2403 3.01882   1
  -5  -1   7 22.8099 3.65534   3
   4   1  -7 50.7250 3.67449   3
   4   1  -7 45.3566 3.96351   2
  -4  -1   7 49.2867 3.33209   1
  -4  -1   7 43.9745 3.59368   3
   3   1  -7 79.7703 4.26382   3
   3   1  -7 85.7135 3.83462   2
  -3  -1   7 85.6355 3.94853   1
  -3  -1   7 83.2278 4.34574   3
   2   1  -7 191.305 6.93509   3
   2   1  -7 191.393 6.08335   2
  -2  -1   7 179.335 5.98750   2
  -2  -1   7 193.755 6.92243   3
  -2  -1   7 189.258 6.59472   1
   1   1  -7 252.949 8.28891   3
   1   1  -7 248.775 7.42056   2
  -1  -1   7 247.092 7.37820   2
  -1  -1   7 248.405 8.10362   1
   0   1  -7 82.7000 3.95506   3
   0   1  -7 85.4478 3.05777   2
   0  -1   7 92.0711 3.20124   2
   0  -1   7 89.9633 3.74333   1
  -2   1  -7 596.049 17.2524   3
  -2   1  -7 589.744 16.6081   2
   2  -1   7 568.951 16.5290   2
   2  -1   7 592.095 17.1675   1
  -3   1  -7 525.148 15.2665   2
  -3   1  -7 542.694 15.7483   3
   3  -1   7 541.739 15.6383   1
   3  -1   7 534.170 15.0927   2
   3  -1   7 495.784 15.2092   2
  -4   1  -7 58.9078 3.64891   3
  -4   1  -7 61.8351 3.46317   2
   4  -1   7 63.9195 3.30692   1
   4  -1   7 66.4166 3.17862   2
  -5   1  -7 288.393 9.56388   2
  -5   1  -7 295.921 9.77746   3
   5  -1   7 290.091 9.40152   1
   5  -1   7 296.233 9.24385   2
  -6   1  -7 1113.89 31.7089   3
  -6   1  -7 1097.08 31.5735   2
   6  -1   7 1087.32 31.2666   2
   6  -1   7 1111.15 31.3131   1
  -7   1  -7 23.5132 4.14006   2
  -7   1  -7 23.1348 4.01095   3
   7  -1   7 23.2993 3.00621   1
   7  -1   7 22.1264 3.40840   2
  -8   1  -7 22.5497 4.78215   2
  -8   1  -7 25.2281 4.45536   3
   8  -1   7 17.7095 3.65776   2
   8  -1   7 18.6599 3.29615   1
  -9   1  -7 22.8194 5.71026   2
  -9   1  -7 30.6746 5.59854   3
   9  -1   7 26.3008 3.77741   1
   9  -1   7 27.9940 4.53050   2
 -10   1  -7 11.3911 3.86533   3
  10  -1   7 14.0965 3.48721   2
 -11   1  -7 33.7491 7.76822   3
  11  -1   7 20.2159 4.59621   2
  10   0  -7 0.84111 4.19856   2
  10   0  -7 -6.2291 4.54034   3
 -10   0   7 3.38765 4.42697   3
   9   0  -7 -5.3949 3.78795   3
   9   0  -7 -2.1108 3.48111   2
  -9   0   7 -3.2246 3.40229   3
   8   0  -7 -1.3091 3.20506   3
   8   0  -7 0.26068 2.85253   2
  -8   0   7 2.65907 2.97410   3
   7   0  -7 -3.3089 2.69914   3
   7   0  -7 -0.1845 2.34805   2
  -7   0   7 -1.6282 1.94099   1
  -7   0   7 0.60116 2.45220   3
   6   0  -7 1.90599 2.01846   2
   6   0  -7 2.69945 2.02188   3
  -6   0   7 3.33955 2.24972   3
  -6   0   7 1.66367 1.57424   1
   5   0  -7 172.662 6.62442   2
   5   0  -7 177.931 6.92471   3
  -5   0   7 165.431 6.15661   1
  -5   0   7 168.932 6.93999   3
   4   0  -7 -0.4440 1.60562   2
   4   0  -7 -0.1374 1.44096   3
  -4   0   7 -0.2882 1.12920   1
  -4   0   7 -0.8018 1.61557   3
   3   0  -7 22.0581 2.69643   2
   3   0  -7 18.9378 2.59824   3
  -3   0   7 16.2221 2.61761   3
  -3   0   7 27.5568 2.40266   1
   2   0  -7 287.209 9.23734   3
   2   0  -7 280.426 8.71736   2
  -2   0   7 286.480 9.26776   3
  -2   0   7 277.461 8.95593   1
   1   0  -7 48.5016 2.52404   2
   1   0  -7 48.2921 3.05744   3
  -1   0   7 49.4304 3.09147   3
  -1   0   7 49.8075 2.73290   1
  -1   0   7 49.0412 2.79771   2
   0   0  -7 1.26549 0.95145   2
   0   0   7 1.92569 1.17858   2
   0   0   7 1.60136 0.89187   1
  -1   0  -7 1.29355 1.28196   3
  -1   0  -7 2.94594 1.06862   2
   1   0   7 1.33372 0.93391   1
   1   0   7 4.70239 1.14537   2
  -2   0  -7 335.408 10.0878   2
  -2   0  -7 336.988 10.3608   3
   2   0   7 324.341 9.98366   2
   2   0   7 349.693 10.4197   1
  -3   0  -7 673.726 19.6605   3
  -3   0  -7 651.047 18.9579   2
   3   0   7 654.999 19.1309   1
  -4   0  -7 1348.50 37.4206   3
  -4   0  -7 1320.11 37.3957   2
   4   0   7 1334.19 37.4229   1
  -5   0  -7 18.4401 2.83345   3
  -5   0  -7 18.5451 2.91210   2
   5   0   7 16.8962 2.50430   2
   5   0   7 14.9455 2.32150   1
  -6   0  -7 217.797 7.69339   3
  -6   0  -7 221.316 8.07175   2
   6   0   7 213.270 7.48647   1
   6   0   7 212.287 7.57005   2
  -7   0  -7 42.1790 4.07852   3
  -7   0  -7 48.9030 4.43605   2
   7   0   7 45.3695 3.46073   1
   7   0   7 51.0787 3.86480   2
  -8   0  -7 140.707 7.15207   2
  -8   0  -7 152.698 6.80425   3
   8   0   7 152.220 6.61942   2
   8   0   7 142.875 5.99456   1
  -9   0  -7 0.64030 2.83238   3
  -9   0  -7 1.26435 3.16973   2
   9   0   7 -0.3764 1.88423   1
   9   0   7 1.18877 2.41835   2
 -10   0  -7 4.03765 3.48839   3
 -10   0  -7 9.11633 3.84318   2
  10   0   7 10.4522 3.16012   2
  10   0   7 6.71699 2.54976   1
 -11   0  -7 -7.6095 3.96996   3
  11   0   7 4.56752 3.68547   2
 -12   0  -7 -5.3852 4.96666   3
  12   0   7 5.85529 4.30135   2
  10  -1  -7 -1.0803 4.20823   2
 -10   1   7 -0.6848 4.29376   3
   9  -1  -7 1.96774 3.62227   2
  -9   1   7 7.76243 3.69671   3
   8  -1  -7 12.9404 3.50103   2
  -8   1   7 27.1685 5.55039   3
   7  -1  -7 0.43944 2.40052   2
  -7   1   7 -1.6808 2.47985   3
   6  -1  -7 2.26181 2.28486   2
  -6   1   7 2.12852 1.63020   1
  -6   1   7 1.94804 2.25522   3
   5  -1  -7 197.488 7.57307   2
  -5   1   7 206.643 7.80013   3
  -5   1   7 198.821 6.83839   1
   4  -1  -7 -2.3226 1.45834   3
   4  -1  -7 1.75713 1.76153   2
  -4   1   7 0.83922 1.57031   3
  -4   1   7 0.09689 1.20443   1
   3  -1  -7 7.18271 1.59642   3
  -3   1   7 6.45718 1.43638   1
  -3   1   7 11.0129 2.63320   3
  -2   1   7 36.6865 2.84947   3
   1  -1  -7 810.744 24.2737   3
   1  -1  -7 852.568 23.4624   2
  -1   1   7 822.186 24.2598   3
   0  -1  -7 498.920 14.6017   2
   0  -1  -7 505.891 14.7904   3
   0   1   7 482.965 14.6396   2
   0   1   7 528.726 14.8820   1
  -1  -1  -7 61.3348 3.02823   3
  -1  -1  -7 61.2698 2.90143   2
   1   1   7 51.7173 2.86513   2
   1   1   7 56.2372 2.83747   1
   2   1   7 195.291 6.52266   1
  -3  -1  -7 252.399 7.98222   3
  -3  -1  -7 253.228 8.22594   2
   3   1   7 248.949 8.09280   1
  -4  -1  -7 29.8917 2.72010   3
  -4  -1  -7 23.4801 3.20500   2
   4   1   7 32.5844 2.46870   1
  -5  -1  -7 62.3990 3.97852   2
   5   1   7 63.8270 3.38904   1
  -6  -1  -7 894.658 25.5977   3
  -6  -1  -7 877.362 26.1297   2
   6   1   7 885.967 25.6152   1
   6   1   7 913.013 25.7988   2
  -7  -1  -7 90.5035 4.69088   3
  -7  -1  -7 87.1639 5.20287   2
   7   1   7 86.7967 4.33836   1
   7   1   7 90.6069 4.70303   2
  -8  -1  -7 17.5041 4.37260   2
  -8  -1  -7 11.8705 2.48839   3
   8   1   7 19.2488 3.71173   2
   8   1   7 11.6916 2.08240   1
  -9  -1  -7 15.9349 3.15097   3
  -9  -1  -7 13.7933 3.46565   2
   9   1   7 19.9110 3.61135   1
   9   1   7 16.1536 2.94836   2
 -10  -1  -7 151.627 8.65261   2
 -10  -1  -7 140.180 7.95293   3
  10   1   7 144.539 7.63513   2
  10   1   7 139.224 6.76269   1
 -11  -1  -7 -1.5390 6.86148   3
 -11  -1  -7 18.2799 4.72591   2
  11   1   7 6.84148 3.72743   2
  12   1   7 2.06538 4.41772   2
  10  -2  -7 -0.3004 4.36721   2
 -10   2   7 -0.8914 4.34762   3
   9  -2  -7 15.2483 4.26348   2
  -9   2   7 18.2092 4.03896   3
   8  -2  -7 5.24537 4.05373   2
  -8   2   7 3.02479 2.95724   3
   7  -2  -7 25.8967 4.76081   2
  -7   2   7 25.1470 4.62446   3
   6  -2  -7 0.88639 2.26428   2
  -6   2   7 -0.6069 1.31775   1
  -6   2   7 0.22373 2.20840   3
   5  -2  -7 3.75917 2.08288   2
  -5   2   7 -0.2825 1.39116   1
  -5   2   7 4.56453 2.07266   3
   4  -2  -7 150.447 6.17080   2
  -4   2   7 152.585 6.04405   3
  -4   2   7 134.363 5.23366   1
   3  -2  -7 324.602 10.5176   2
  -3   2   7 328.334 10.5145   3
  -3   2   7 329.240 10.0425   1
   2  -2  -7 2.52490 1.29720   3
  -2   2   7 2.60396 1.33046   3
  -2   2   7 2.21022 1.09900   1
   1  -2  -7 228.352 7.53809   3
   1  -2  -7 230.648 7.66638   2
  -1   2   7 233.039 7.62215   3
   0   2   7 81.4991 3.63700   1
  -1  -2  -7 12.1095 2.15035   2
  -1  -2  -7 7.31522 1.30559   3
   1   2   7 8.50079 1.66166   1
  -2  -2  -7 384.933 11.6127   2
  -2  -2  -7 361.996 11.1734   3
  -2  -2  -7 381.934 11.1724   3
   2   2   7 395.357 11.4489   1
   2   2   7 370.437 11.1219   3
  -4  -2  -7 970.595 27.5575   3
  -4  -2  -7 978.326 28.2648   2
   4   2   7 1006.24 27.9136   1
  -5  -2  -7 684.573 19.6172   3
  -5  -2  -7 690.046 20.4242   2
   5   2   7 681.687 19.8581   1
  -6  -2  -7 0.28952 1.52052   3
  -6  -2  -7 0.50283 1.88763   2
   6   2   7 2.61288 1.21118   1
  -7  -2  -7 5.25750 2.34299   2
   7   2   7 6.31524 1.58345   1
   7   2   7 6.30542 1.97451   2
  -8  -2  -7 350.924 12.2656   2
  -8  -2  -7 331.440 11.1717   3
   8   2   7 339.134 11.0527   1
   8   2   7 346.292 11.6543   2
  -9  -2  -7 95.4959 5.63611   3
   9   2   7 101.469 5.22247   1
   9   2   7 90.4568 9.14286   2
 -10  -2  -7 36.1163 5.52148   3
 -10  -2  -7 38.4514 6.35846   2
  10   2   7 37.7579 5.13950   2
  10   2   7 39.9420 4.64928   1
 -11  -2  -7 0.70295 4.23642   2
  11   2   7 0.41423 3.19671   2
 -12  -2  -7 8.24839 5.20495   2
  12   2   7 0.39028 3.92275   2
  10  -3  -7 -0.4533 4.41821   2
 -10   3   7 -6.0724 4.20005   3
   9  -3  -7 7.41302 4.02323   2
  -9   3   7 0.66392 3.65578   3
   8  -3  -7 6.30518 3.35994   2
  -8   3   7 10.0707 3.38079   3
   7  -3  -7 11.8551 3.24541   2
  -7   3   7 9.31337 3.91996   3
   6  -3  -7 33.7666 4.73041   2
  -6   3   7 31.2626 4.45981   3
   5  -3  -7 69.6888 4.90493   2
  -5   3   7 57.4342 3.23838   1
  -5   3   7 66.9054 4.57737   3
   4  -3  -7 41.0381 3.81357   2
  -4   3   7 40.8455 3.54718   3
  -4   3   7 39.1479 2.72153   1
   3  -3  -7 0.27153 1.85767   2
  -3   3   7 1.05585 1.18773   1
  -3   3   7 0.39958 1.41177   3
   2  -3  -7 577.612 17.4897   2
  -2   3   7 597.380 16.9429   1
  -2   3   7 580.893 17.1875   3
   1  -3  -7 1000.91 27.9975   2
   1  -3  -7 960.671 27.3136   3
  -1   3   7 949.488 27.3359   3
   0  -3  -7 41.3363 4.14087   2
   0  -3  -7 52.2627 2.77192   3
   0   3   7 53.1609 2.62000   1
   0   3   7 54.6028 2.84241   3
  -1  -3  -7 41.8562 2.53646   3
  -1  -3  -7 41.5886 2.38035   3
  -1  -3  -7 38.2787 3.26862   2
   1   3   7 42.9847 2.39323   1
  -2  -3  -7 71.3393 4.28022   2
  -2  -3  -7 78.0135 3.09691   3
  -2  -3  -7 74.8727 3.17988   3
   2   3   7 80.5481 3.34487   1
  -3  -3  -7 57.5051 2.56378   3
  -3  -3  -7 49.8012 2.64976   3
  -3  -3  -7 55.3832 3.47653   2
   3   3   7 54.2852 2.78659   1
   3   3   7 53.4492 2.55746   3
  -4  -3  -7 7.12112 1.84381   2
  -4  -3  -7 4.34826 1.15411   3
   4   3   7 3.48296 1.08793   1
   4   3   7 4.88606 1.23311   3
  -5  -3  -7 98.8467 3.76821   3
  -5  -3  -7 92.7310 4.89968   2
   5   3   7 78.0390 3.79706   3
   5   3   7 93.7962 4.02300   1
  -6  -3  -7 12.2299 2.50395   3
  -6  -3  -7 10.9667 2.40918   2
   6   3   7 16.7408 2.39707   1
  -7  -3  -7 214.743 7.49761   3
  -7  -3  -7 225.309 8.84891   2
   7   3   7 219.650 7.67977   1
  -8  -3  -7 148.697 6.18235   3
  -8  -3  -7 162.643 7.83836   2
   8   3   7 158.839 7.07340   2
   8   3   7 151.419 6.16886   1
  -9  -3  -7 60.3790 6.08572   2
  -9  -3  -7 63.0740 4.79284   3
   9   3   7 59.8395 5.25527   2
   9   3   7 57.7923 4.39116   1
 -10  -3  -7 75.2587 7.25968   2
  10   3   7 74.2042 5.24379   1
  10   3   7 73.1550 6.13978   2
 -11  -3  -7 -2.5857 3.97634   2
  11   3   7 0.03967 3.14935   2
  11   3   7 -1.9326 3.88547   1
 -12  -3  -7 7.45696 5.15674   2
  12   3   7 -1.0893 3.96033   2
  10  -4  -7 -0.0291 4.70554   2
 -10   4   7 -4.0256 4.44374   3
   9  -4  -7 9.04673 4.43076   2
  -9   4   7 6.09049 3.92128   3
   8  -4  -7 0.45197 3.33210   2
  -8   4   7 -4.6736 3.00991   3
   7  -4  -7 115.156 8.64343   2
  -7   4   7 118.535 7.75199   3
   6  -4  -7 4.37583 2.64659   2
  -6   4   7 0.93069 2.19549   3
   5  -4  -7 221.988 8.76167   2
  -5   4   7 232.035 8.44155   3
  -5   4   7 206.893 7.04867   1
   4  -4  -7 139.700 6.43741   2
  -4   4   7 142.933 6.04513   3
  -4   4   7 136.786 5.10568   1
   3  -4  -7 324.425 10.8175   2
  -3   4   7 301.940 10.1630   3
  -3   4   7 320.360 9.68702   1
   2  -4  -7 436.021 13.7205   2
  -2   4   7 446.064 12.8978   1
  -2   4   7 426.609 13.1335   3
   1  -4  -7 5.78266 1.78520   2
  -1   4   7 8.24512 2.15088   3
  -1   4   7 7.59004 1.62466   1
   0  -4  -7 56.6794 2.79072   3
   0  -4  -7 55.6428 3.61429   2
   0   4   7 54.7209 2.72088   1
   0   4   7 56.8143 2.82391   3
  -1  -4  -7 106.827 3.98251   3
  -1  -4  -7 110.835 4.85799   2
  -1  -4  -7 113.485 3.94201   3
   1   4   7 110.321 3.96084   3
   1   4   7 107.218 4.15034   1
  -2  -4  -7 157.888 6.20880   2
  -2  -4  -7 162.273 5.27347   3
  -2  -4  -7 162.448 5.08444   3
   2   4   7 158.742 5.58101   1
  -3  -4  -7 5.56358 1.79788   2
  -3  -4  -7 4.68857 0.98329   3
   3   4   7 4.83891 1.17068   1
  -4  -4  -7 28.4920 3.38185   2
   4   4   7 30.8142 1.80072   3
   4   4   7 31.9447 2.38486   1
  -5  -4  -7 268.222 9.45746   2
  -5  -4  -7 254.104 8.17416   3
   5   4   7 254.474 7.64019   3
   5   4   7 254.693 8.44151   1
  -6  -4  -7 79.6791 5.07807   2
  -6  -4  -7 71.9174 3.28526   3
   6   4   7 71.9074 3.75426   1
  -7  -4  -7 70.8002 5.32759   2
  -7  -4  -7 69.9666 3.63273   3
   7   4   7 75.8189 4.04211   1
  -8  -4  -7 202.336 8.90962   2
   8   4   7 192.565 7.35530   1
  -9  -4  -7 236.891 10.2607   2
   9   4   7 224.002 8.41659   1
   9   4   7 233.275 9.38723   2
 -10  -4  -7 -1.7282 3.67129   2
  10   4   7 1.82473 3.03520   2
  10   4   7 1.08257 2.18237   1
 -11  -4  -7 -6.5663 3.99469   2
  11   4   7 0.39118 2.73573   1
  11   4   7 -0.8439 3.38204   2
  10  -5  -7 -3.0252 5.34764   2
 -10   5   7 -8.7527 4.69899   3
   9  -5  -7 44.9240 8.49371   2
  -9   5   7 43.0277 7.44705   3
   8  -5  -7 3.03568 3.99831   2
  -8   5   7 -3.8590 3.34866   3
   7  -5  -7 5.57857 3.51206   2
  -7   5   7 7.83548 3.09682   3
   6  -5  -7 0.46885 2.85021   2
  -6   5   7 1.33003 2.48627   3
   5  -5  -7 2.97011 2.55434   2
  -5   5   7 4.78260 2.32865   3
  -5   5   7 0.13600 1.38057   1
   4  -5  -7 123.981 6.38701   2
  -4   5   7 122.346 5.82606   3
  -4   5   7 121.041 4.77111   1
   3  -5  -7 0.13378 2.12340   2
  -3   5   7 -0.9769 1.59820   3
  -3   5   7 1.48080 1.13245   1
   2  -5  -7 265.204 9.32775   2
  -2   5   7 256.189 8.62072   1
  -2   5   7 260.715 8.50630   3
   1  -5  -7 23.4649 3.37968   2
  -1   5   7 10.1701 2.32661   3
  -1   5   7 17.3421 1.97417   1
   0  -5  -7 286.509 9.98331   2
   0  -5  -7 301.790 10.2639   3
   0  -5  -7 293.397 8.90973   3
   0   5   7 294.723 9.10132   1
   0   5   7 288.864 8.89825   3
  -1  -5  -7 65.3769 4.27258   2
  -1  -5  -7 72.4461 2.93698   3
  -1  -5  -7 68.2376 2.99041   3
   1   5   7 73.3104 3.33278   1
   1   5   7 77.8700 3.02021   3
  -2  -5  -7 451.228 13.9170   2
   2   5   7 422.222 13.0487   1
  -3  -5  -7 133.820 5.83989   2
   3   5   7 117.567 4.76751   1
  -4  -5  -7 15.1223 3.26897   2
   4   5   7 13.3480 2.09041   1
  -5  -5  -7 70.7705 4.81560   2
   5   5   7 66.6647 3.64861   1
  -6  -5  -7 38.9745 4.55164   2
  -7  -5  -7 749.551 23.6668   2
   7   5   7 782.661 22.5801   1
   8   5   7 1.37517 1.73989   1
  -9  -5  -7 5.39668 3.38476   2
   9   5   7 6.45697 2.10278   1
 -10  -5  -7 9.78892 4.22217   2
  10   5   7 12.1906 2.69961   1
  10   5   7 10.7734 3.41916   2
 -11  -5  -7 35.4170 7.32990   2
  11   5   7 21.2995 4.05865   2
  11   5   7 29.7853 5.28453   1
   9  -6  -7 11.1407 4.91370   2
  -9   6   7 13.3372 4.51631   3
   8  -6  -7 3.54146 4.02255   2
  -8   6   7 3.79915 3.70807   3
   7  -6  -7 6.69672 3.83337   2
  -7   6   7 1.64846 3.21589   3
   6  -6  -7 12.3418 4.16473   2
  -6   6   7 12.5656 3.16088   3
   5  -6  -7 21.2176 3.61436   2
  -5   6   7 16.9789 4.12092   3
   4  -6  -7 17.3470 4.61499   2
  -4   6   7 22.6455 2.58524   1
  -4   6   7 22.1037 3.86571   3
   3  -6  -7 6.75814 2.57715   2
  -3   6   7 7.73290 1.98746   3
   2  -6  -7 343.667 11.6304   2
  -2   6   7 331.384 10.1867   1
  -2   6   7 330.265 10.5667   3
   1  -6  -7 23.3545 3.69971   2
  -1   6   7 21.4861 2.24665   1
  -1   6   7 23.3067 2.59871   3
   0  -6  -7 173.549 7.13621   2
   0   6   7 175.140 5.96277   1
   0   6   7 164.048 5.70570   3
  -1  -6  -7 167.541 5.26590   3
  -1  -6  -7 158.035 5.29778   3
  -1  -6  -7 169.206 7.00217   2
   1   6   7 171.191 5.90033   1
   1   6   7 157.000 5.29163   3
  -2  -6  -7 370.992 12.6816   2
   2   6   7 394.031 11.7979   1
  -3  -6  -7 167.002 7.22315   2
   3   6   7 176.800 6.27082   1
  -4  -6  -7 7.03324 2.26542   2
   4   6   7 2.74783 1.21069   1
  -5  -6  -7 126.299 6.49285   2
   5   6   7 123.204 5.18294   1
  -6  -6  -7 7.66261 2.78223   2
   6   6   7 3.97012 1.58415   1
  -7  -6  -7 105.747 6.83758   2
   7   6   7 105.395 5.11790   1
  -8  -6  -7 0.11487 2.95760   2
   8   6   7 0.40243 1.93533   1
  -9  -6  -7 37.0252 6.10610   2
   9   6   7 47.1173 4.57298   1
 -10  -6  -7 -1.8311 3.97690   2
  10   6   7 1.73900 2.66223   1
  10   6   7 1.60819 3.27359   2
 -11  -6  -7 9.80776 5.09539   2
  11   6   7 19.2967 4.38561   2
  11   6   7 9.48825 3.34778   1
   9  -7  -7 13.9537 5.71979   2
  -9   7   7 12.7842 5.18201   3
   8  -7  -7 10.2963 4.88531   2
  -8   7   7 11.9801 4.31566   3
   7  -7  -7 2.89837 4.11797   2
  -7   7   7 4.42377 3.46003   3
   6  -7  -7 2.14266 3.42859   2
  -5   7   7 7.65132 2.77641   3
   4  -7  -7 252.203 10.1042   2
  -4   7   7 226.329 8.83462   3
   3  -7  -7 33.4345 4.81095   2
  -3   7   7 31.2173 3.67539   3
  -3   7   7 31.4933 2.63310   1
   2  -7  -7 33.6921 4.71363   2
  -2   7   7 31.6207 3.23535   3
  -2   7   7 36.5058 2.71200   1
   1  -7  -7 102.697 5.96757   2
  -1   7   7 87.7500 5.33630   3
  -1   7   7 97.6297 4.17783   1
   0  -7  -7 847.864 24.8593   2
   0   7   7 826.392 23.5197   1
   0   7   7 786.492 23.0481   3
  -1  -7  -7 36.7941 2.65802   3
  -1  -7  -7 30.9689 4.35584   2
  -1  -7  -7 44.3481 2.52112   3
   1   7   7 42.4626 2.82101   3
   1   7   7 35.8810 2.86464   1
  -2  -7  -7 88.0834 5.53555   2
   2   7   7 93.9906 4.17392   1
  -3  -7  -7 38.4282 4.38978   2
   3   7   7 36.0921 2.91826   1
  -4  -7  -7 3.27776 2.38732   2
   4   7   7 0.19356 1.30309   1
  -5  -7  -7 12.7148 2.95815   2
   5   7   7 11.6300 2.65504   1
  -6  -7  -7 16.8787 3.43926   2
   6   7   7 12.1756 2.97846   1
  -7  -7  -7 198.299 9.66352   2
   7   7   7 183.845 7.75005   1
  -8  -7  -7 44.3714 6.13742   2
   8   7   7 49.3004 4.20219   1
  -9  -7  -7 0.69395 3.49896   2
   9   7   7 0.00390 2.21500   1
 -10  -7  -7 3.52963 4.28314   2
  10   7   7 2.33397 3.52392   2
  10   7   7 -0.2666 2.80559   1
 -11  -7  -7 45.4733 9.46428   2
   8  -8  -7 9.54685 5.13514   2
  -8   8   7 9.20109 4.63533   3
   7  -8  -7 -0.8554 4.12445   2
  -7   8   7 -4.9780 3.89610   3
   6  -8  -7 157.201 9.51760   2
  -6   8   7 157.596 8.82272   3
   5  -8  -7 1.85189 3.23513   2
  -5   8   7 1.92126 2.86910   3
  -4   8   7 19.5145 4.52645   3
  -4   8   7 12.9625 3.24475   1
   3  -8  -7 44.8029 5.71098   2
  -3   8   7 49.8628 4.34187   3
  -3   8   7 48.9510 3.27034   1
   2  -8  -7 107.181 6.99204   2
  -2   8   7 107.009 4.60525   1
  -2   8   7 103.476 5.07989   3
   1  -8  -7 28.6764 5.02935   2
  -1   8   7 24.9706 2.80084   1
  -1   8   7 20.4687 3.06312   3
   0  -8  -7 18.6963 4.80478   2
   0   8   7 21.5911 2.74947   3
   0   8   7 17.4300 2.60962   1
  -1  -8  -7 384.209 13.0112   2
   1   8   7 368.330 11.4617   1
   1   8   7 339.327 10.5285   3
  -2  -8  -7 172.452 8.17757   2
   2   8   7 181.412 6.60666   1
  -3  -8  -7 7.42282 2.73041   2
   3   8   7 3.23661 1.45063   1
  -4  -8  -7 20.6461 4.86593   2
   4   8   7 22.7997 3.03014   1
  -5  -8  -7 188.791 8.93882   2
   5   8   7 192.771 7.32033   1
  -6  -8  -7 14.9917 4.75055   2
  -7  -8  -7 10.4551 3.90058   2
   7   8   7 7.30637 2.15048   1
  -8  -8  -7 3.54050 3.76303   2
   8   8   7 -2.7634 2.26763   1
  -9  -8  -7 21.1525 4.74218   2
   9   8   7 34.8579 4.67575   1
 -10  -8  -7 26.0882 5.46946   2
   8  -9  -7 15.8585 5.99079   2
  -8   9   7 8.26121 5.23601   3
   7  -9  -7 -0.3038 4.81578   2
  -7   9   7 -2.3608 4.39008   3
   6  -9  -7 6.08033 4.16676   2
  -6   9   7 2.26380 3.78752   3
   5  -9  -7 2.45670 3.91957   2
  -5   9   7 4.90923 3.71797   3
   4  -9  -7 217.935 10.5623   2
  -4   9   7 215.682 9.05179   3
   3  -9  -7 10.0970 3.81844   2
  -3   9   7 8.84997 2.53212   3
  -3   9   7 8.83931 1.83849   1
   2  -9  -7 97.5133 7.24366   2
  -2   9   7 93.5906 5.18875   3
  -2   9   7 85.2043 4.44965   1
   1  -9  -7 86.4315 7.05143   2
  -1   9   7 80.7272 4.23283   1
  -1   9   7 76.6641 4.49959   3
   0  -9  -7 283.540 11.2336   2
   0   9   7 266.965 9.04830   1
   0   9   7 254.283 8.58148   3
  -1  -9  -7 60.4610 6.01087   2
   1   9   7 65.8962 3.96810   1
  -2  -9  -7 0.20338 2.93440   2
   2   9   7 1.04770 1.59338   1
  -3  -9  -7 76.9670 6.51452   2
   3   9   7 72.5606 4.29675   1
  -4  -9  -7 10.6363 3.51328   2
   4   9   7 15.8463 3.12293   1
  -5  -9  -7 106.341 7.48101   2
   5   9   7 96.9597 5.30528   1
  -6  -9  -7 15.3186 4.02501   2
   6   9   7 18.1050 3.86433   1
  -7  -9  -7 7.74537 4.03870   2
   7   9   7 6.61129 2.39222   1
  -8  -9  -7 9.70049 4.38212   2
   8   9   7 5.17548 2.74909   1
  -9  -9  -7 3.39829 4.29641   2
   9   9   7 -0.0854 2.61923   1
   7 -10  -7 -0.8392 5.09627   2
  -7  10   7 2.86113 4.85882   3
   6 -10  -7 108.595 10.1344   2
  -6  10   7 132.880 9.28770   3
   5 -10  -7 5.98987 4.55774   2
  -5  10   7 5.26031 3.76876   3
   4 -10  -7 84.0500 8.81372   2
  -4  10   7 69.6252 6.38524   3
   3 -10  -7 0.97768 4.25853   2
  -3  10   7 -1.4592 2.68421   3
  -3  10   7 4.01610 2.01410   1
   2 -10  -7 222.285 11.0155   2
  -2  10   7 195.403 7.49836   1
  -2  10   7 183.350 7.82813   3
   1 -10  -7 178.768 10.0475   2
  -1  10   7 173.580 6.91066   1
  -1  10   7 175.712 6.91325   3
   0 -10  -7 3.21292 4.69066   2
   0  10   7 6.56882 2.02569   1
   1  10   7 3.14382 1.83860   1
  -2 -10  -7 4.90499 4.36436   2
   2  10   7 1.88082 1.91086   1
  -3 -10  -7 130.706 8.31138   2
   3  10   7 105.459 5.65125   1
  -4 -10  -7 24.2078 4.69306   2
   4  10   7 28.7750 3.91575   1
  -5 -10  -7 57.0731 7.06898   2
   5  10   7 49.5082 4.45082   1
  -6 -10  -7 9.64620 4.30209   2
   6  10   7 20.1485 4.06160   1
  -7 -10  -7 10.0097 4.83794   2
   7  10   7 8.07459 2.77972   1
  -8 -10  -7 0.47380 4.83070   2
   8  10   7 5.56612 2.96680   1
  -9 -10  -7 4.45541 5.23168   2
   9  10   7 4.66472 3.19218   1
   6 -11  -7 15.9948 5.94084   2
  -6  11   7 9.85697 4.98464   3
   5 -11  -7 7.85001 5.50304   2
  -5  11   7 2.04741 4.26547   3
   4 -11  -7 36.1921 9.92017   2
   3 -11  -7 72.7953 9.54824   2
  -3  11   7 42.4566 5.99183   3
   2 -11  -7 2.28987 4.65071   2
  -2  11   7 -0.5336 2.24816   1
   1 -11  -7 3.39158 4.79174   2
  -1  11   7 8.46955 2.33079   1
   0 -11  -7 2.88556 4.24336   2
   0  11   7 5.81490 2.22598   1
  -1 -11  -7 23.6565 4.98247   2
   1  11   7 27.0335 4.03231   1
  -2 -11  -7 3.17550 4.27255   2
   2  11   7 3.88560 2.01153   1
  -3 -11  -7 55.7244 8.27119   2
   3  11   7 62.5040 4.81468   1
  -4 -11  -7 27.5588 5.12476   2
   4  11   7 35.5256 4.34474   1
  -5 -11  -7 11.2316 4.62912   2
   5  11   7 5.39272 2.44146   1
  -6 -11  -7 27.0296 5.57580   2
   6  11   7 32.1172 4.73603   1
  -7 -11  -7 6.58815 5.25664   2
   7  11   7 4.96521 2.96293   1
  -8 -11  -7 17.2848 5.93357   2
   8  11   7 24.0436 5.68377   1
   4 -12  -7 0.22340 5.99348   2
   3 -12  -7 6.45280 6.02783   2
   2 -12  -7 7.81961 5.54679   2
   1 -12  -7 72.5304 9.78611   2
  -1  12   7 85.1073 5.72895   1
   0 -12  -7 -0.3931 4.53450   2
   0  12   7 6.21155 2.48831   1
  -1 -12  -7 2.29787 4.76663   2
   1  12   7 11.3698 2.65113   1
  -2 -12  -7 13.4572 5.32913   2
   2  12   7 9.24308 2.74087   1
  -3 -12  -7 112.588 10.3437   2
   3  12   7 125.867 6.75190   1
  -4 -12  -7 -10.315 4.38384   2
   4  12   7 -1.4215 2.40365   1
  -5 -12  -7 8.06453 5.22705   2
   5  12   7 2.40345 2.59219   1
  -6 -12  -7 -1.1856 5.18000   2
   6  12   7 -5.0289 2.62844   1
   2 -13  -7 -0.2722 6.13315   2
   1 -13  -7 42.7713 10.4962   2
  -1  13   7 62.1771 6.26762   1
   0 -13  -7 -1.3251 5.84831   2
   0  13   7 4.44764 2.93777   1
  -1 -13  -7 94.7288 11.0229   2
   1  13   7 101.166 6.77765   1
  -2 -13  -7 6.43381 5.71652   2
   2  13   7 10.4294 3.12253   1
  -3 -13  -7 0.18979 5.88161   2
   3  13   7 3.41230 2.89143   1
  -4 -13  -7 -2.8897 5.52869   2
   4  13   7 3.50484 2.84318   1
  -5 -13  -7 0.93376 6.19426   2
   5  13   7 6.13552 3.06856   1
   3  10  -8 38.8422 8.85809   3
  -3 -10   8 18.8472 4.81664   1
   2  10  -8 0.23980 4.44351   3
  -2 -10   8 0.69784 3.63210   1
   1  10  -8 -0.6837 3.98966   3
  -1 -10   8 -7.7096 3.30592   1
   0 -10   8 28.1756 6.31610   1
  -1  10  -8 11.0326 4.26913   3
   1 -10   8 7.38172 3.55531   1
  -2  10  -8 6.53847 4.63094   3
   2 -10   8 14.5435 3.72320   1
  -3  10  -8 7.95081 4.51679   3
   3 -10   8 2.05657 3.68115   1
  -4  10  -8 7.63947 4.90784   3
   4 -10   8 1.57897 3.92610   1
   5   9  -8 9.27949 4.99476   3
  -5  -9   8 11.0686 4.50759   1
   4   9  -8 30.6493 8.13563   3
  -4  -9   8 11.2879 4.22702   1
   3   9  -8 55.0458 7.83427   3
  -3  -9   8 43.0386 6.67095   1
   2   9  -8 26.4643 6.91119   3
  -2  -9   8 29.8119 6.01320   1
   1   9  -8 -3.1412 3.62830   3
  -1  -9   8 -3.2687 2.87672   1
   0   9  -8 6.66088 3.51584   3
   0  -9   8 -1.6077 3.10335   1
  -1   9  -8 12.0938 3.83633   3
   1  -9   8 27.6241 5.53928   1
  -2   9  -8 23.2124 6.01575   3
   2  -9   8 15.7722 3.37921   1
  -3   9  -8 4.61263 3.75596   3
   3  -9   8 1.16260 3.05558   1
  -4   9  -8 7.67273 4.27031   3
   4  -9   8 32.4966 5.91084   1
  -5   9  -8 8.00710 4.68665   3
   5  -9   8 3.96452 3.34745   1
  -6   9  -8 4.20774 5.29483   3
   6  -9   8 -0.7540 3.57991   1
   6   8  -8 6.37346 4.53618   3
  -6  -8   8 -7.6784 3.83012   1
   5   8  -8 54.5358 8.81825   3
  -5  -8   8 60.0601 7.50072   1
   4   8  -8 7.50587 4.20788   3
  -4  -8   8 5.35084 3.46282   1
   3   8  -8 17.2903 3.96645   3
  -3  -8   8 13.7625 3.50142   1
   2   8  -8 0.28854 3.29945   3
  -2  -8   8 -2.9876 2.72882   1
   1   8  -8 102.703 7.11683   3
  -1  -8   8 86.8048 6.47186   1
   0   8  -8 22.6639 3.76399   3
   0  -8   8 24.8584 4.79847   1
  -1   8  -8 1.19535 2.92621   3
   1  -8   8 4.59701 2.52652   1
  -2   8  -8 0.52315 2.98179   3
   2  -8   8 0.96237 2.50276   1
  -3   8  -8 -3.1056 3.16683   3
   3  -8   8 4.42180 2.82542   1
  -4   8  -8 3.93813 3.37196   3
   4  -8   8 -1.9522 2.62247   1
  -5   8  -8 11.0076 4.08800   3
   5  -8   8 5.36890 3.05641   1
  -6   8  -8 30.0961 5.26416   3
   6  -8   8 40.7968 6.10051   1
  -7   8  -8 0.96299 4.47544   3
   7   7  -8 8.49126 3.53540   1
   7   7  -8 11.2583 4.53839   3
  -7  -7   8 13.0039 4.26974   1
   6   7  -8 1.03063 4.17153   3
  -6  -7   8 1.22759 3.88845   1
   5   7  -8 5.38531 3.96525   3
  -5  -7   8 7.12754 3.49815   1
   4   7  -8 37.3296 6.66207   3
  -4  -7   8 27.2565 5.34290   1
   3   7  -8 80.0843 6.85057   3
  -3  -7   8 70.5368 5.95901   1
   2   7  -8 0.07058 2.81583   3
  -2  -7   8 -0.6076 2.29990   1
   1   7  -8 84.4165 7.89986   3
  -1  -7   8 62.9730 5.18864   1
   0  -7   8 0.55530 2.54762   1
  -1   7  -8 50.0846 7.09252   3
  -2   7  -8 49.4083 5.12029   3
   2  -7   8 46.8608 7.06935   1
  -3   7  -8 2.81313 2.76772   3
   3  -7   8 2.18589 2.58306   1
  -4   7  -8 9.24677 3.20064   3
   4  -7   8 12.2615 3.24546   1
  -5   7  -8 3.78252 3.43361   3
  -6   7  -8 -1.1279 3.75363   3
  -7   7  -8 -1.6052 4.09664   3
   7  -7   8 0.23069 3.54513   1
  -8   7  -8 5.26408 4.85375   3
   8   6  -8 -1.6052 4.43278   3
   8   6  -8 -2.7936 3.39491   1
  -8  -6   8 4.74227 4.30267   1
   7   6  -8 -4.4367 3.97446   3
  -7  -6   8 -3.3253 3.55546   1
   6   6  -8 -0.1708 3.53908   3
  -6  -6   8 -1.4097 3.27358   1
   5   6  -8 60.4169 6.56900   3
  -5  -6   8 60.2111 6.07538   1
   4   6  -8 4.71395 3.21747   3
  -4  -6   8 4.92077 2.81530   1
   3   6  -8 1.76341 3.11419   3
  -3  -6   8 -3.2185 2.60330   1
   2   6  -8 70.7893 5.84947   3
  -2  -6   8 50.3120 4.94708   1
   1   6  -8 319.764 11.5462   3
  -1  -6   8 322.452 11.2749   1
   0   6  -8 0.33498 2.36551   3
   0  -6   8 0.72306 1.87744   1
  -1   6  -8 20.5216 4.63087   3
   1  -6   8 23.2596 3.60699   1
  -2   6  -8 19.4115 4.28394   3
   2  -6   8 15.9828 3.56122   1
  -3   6  -8 3.14790 2.52119   3
   3  -6   8 7.43037 2.15276   1
  -4   6  -8 -3.3432 4.34944   3
   4  -6   8 2.10179 2.04661   1
  -5   6  -8 1.40300 2.98986   3
   5  -6   8 -0.8944 2.20293   1
  -6   6  -8 3.09546 3.33972   3
   6  -6   8 -0.0616 2.38636   1
  -7   6  -8 9.10358 3.82253   3
   7  -6   8 11.7796 2.90555   1
  -8   6  -8 -0.5884 4.17893   3
  -9   6  -8 -4.6269 4.54738   3
   8   5  -8 5.27755 4.30707   3
   8   5  -8 3.40398 3.05571   1
  -8  -5   8 1.76256 4.23129   3
  -8  -5   8 -0.7775 3.78383   1
   7   5  -8 37.3521 6.62337   3
  -7  -5   8 28.3594 4.30300   1
   6   5  -8 -2.2174 3.42592   3
  -6  -5   8 -6.9278 5.52984   1
   5   5  -8 9.91310 3.20750   3
  -5  -5   8 12.4359 3.10432   1
   4   5  -8 54.2264 5.29191   3
  -4  -5   8 52.3814 4.80827   1
   3   5  -8 59.0321 5.27555   3
  -3  -5   8 56.2498 4.94977   1
   2   5  -8 109.779 6.02944   3
  -2  -5   8 108.674 5.77210   1
   1   5  -8 145.427 6.86996   3
  -1  -5   8 140.250 6.31670   1
   0   5  -8 1.32270 2.05846   3
   0  -5   8 1.00441 1.64759   1
  -1   5  -8 61.0652 4.53417   3
   1  -5   8 62.4488 4.13343   1
  -2   5  -8 -1.5480 2.07990   3
   2  -5   8 -1.1732 1.62693   1
  -3   5  -8 55.2761 4.75336   3
   3  -5   8 67.3451 4.20672   1
  -4   5  -8 -3.3147 2.33434   3
   4  -5   8 3.40920 1.93144   1
  -5   5  -8 6.28275 2.89995   3
   5  -5   8 14.2429 3.60550   1
  -6   5  -8 11.3366 3.24745   3
   6  -5   8 17.2759 3.92584   1
  -7   5  -8 -1.4906 3.11465   3
   7  -5   8 6.90458 2.42776   1
  -8   5  -8 6.93323 3.99654   3
   8  -5   8 9.76497 2.75513   1
  -9   5  -8 40.3914 8.26091   3
 -10   5  -8 0.17931 4.91442   3
   9   4  -8 18.8201 4.93193   3
  -9  -4   8 12.1423 4.93893   3
   8   4  -8 7.53554 4.14448   3
   8   4  -8 24.6677 4.88554   1
  -8  -4   8 27.4554 6.92376   3
  -8  -4   8 15.9201 4.71339   1
   7   4  -8 -1.1742 3.46356   3
  -7  -4   8 4.05899 3.53320   3
  -7  -4   8 2.14211 3.00581   1
   6   4  -8 0.16344 2.88780   3
  -6  -4   8 3.06637 2.69786   1
  -6  -4   8 0.67513 2.94842   3
   5   4  -8 7.37334 2.92047   3
  -5  -4   8 6.28374 2.45679   1
   4   4  -8 68.7065 5.35028   3
  -4  -4   8 68.0736 4.97729   1
   3   4  -8 0.87726 2.15538   3
  -3  -4   8 -2.2097 1.86374   1
   2   4  -8 127.534 6.38342   3
  -2  -4   8 137.463 5.93240   1
   1   4  -8 72.9286 4.85549   3
  -1  -4   8 76.1541 4.34606   1
   0   4  -8 67.1630 4.65125   3
   0  -4   8 68.2610 4.10140   1
  -1   4  -8 196.747 7.76624   3
   1  -4   8 203.117 7.41920   1
  -2   4  -8 20.7857 3.50643   3
   2  -4   8 28.9342 3.06216   1
  -3   4  -8 4.37224 2.06619   3
   3  -4   8 3.86660 1.61825   1
  -4   4  -8 -2.0502 2.07596   3
   4  -4   8 -0.8353 1.56578   1
   4  -4   8 -0.9783 1.57503   2
  -5   4  -8 57.2590 5.03606   3
   5  -4   8 48.6712 3.94819   1
  -6   4  -8 48.7079 5.30577   3
   6  -4   8 37.8862 3.87421   1
   6  -4   8 42.2692 3.94533   2
  -7   4  -8 50.6403 5.86266   3
   7  -4   8 42.8260 4.28507   1
   7  -4   8 55.4428 4.58416   2
  -8   4  -8 2.22389 3.42189   3
   8  -4   8 6.77212 3.04555   2
   8  -4   8 0.74954 2.33350   1
  -9   4  -8 2.19056 3.93402   3
 -10   4  -8 5.36861 4.73212   3
  10  -4   8 0.35274 4.48211   2
   9   3  -8 20.5483 4.95772   3
  -9  -3   8 19.3029 4.93982   3
   8   3  -8 7.11427 3.55646   2
   8   3  -8 13.0814 4.11557   3
  -8  -3   8 6.38383 3.80880   3
   7   3  -8 19.6130 4.68033   2
   7   3  -8 30.4459 5.97520   3
  -7  -3   8 22.8756 5.77240   3
  -7  -3   8 18.4540 3.28248   1
   6   3  -8 15.2342 2.65820   2
   6   3  -8 16.3557 3.40212   3
  -6  -3   8 13.0890 3.36549   3
  -6  -3   8 16.4588 3.08761   1
   5   3  -8 36.4066 3.76057   2
   5   3  -8 30.6173 5.08338   3
  -5  -3   8 48.3315 5.10383   3
  -5  -3   8 43.7259 4.22596   1
   4   3  -8 4.58442 2.32965   3
   4   3  -8 3.81485 1.72758   2
  -4  -3   8 2.51800 1.93404   1
   3   3  -8 12.3426 2.36487   2
   3   3  -8 12.5621 2.51866   3
  -3  -3   8 14.6978 3.12207   1
   2   3  -8 263.501 9.47092   3
  -2  -3   8 279.380 9.35901   1
   1   3  -8 0.95280 1.77433   3
  -1  -3   8 0.78099 1.41107   1
   0   3  -8 38.5731 3.53041   3
   0  -3   8 36.1229 3.06691   1
  -1   3  -8 56.9833 3.91380   3
   1  -3   8 57.6595 3.63570   1
  -2   3  -8 521.917 16.1654   3
   2  -3   8 525.802 15.9001   1
  -3   3  -8 151.637 6.50225   3
   3  -3   8 154.563 5.51915   2
   3  -3   8 158.851 5.99201   1
   3  -3   8 146.664 4.97429   2
  -4   3  -8 34.5000 3.80498   3
   4  -3   8 31.4736 3.10652   1
   4  -3   8 27.7872 2.60399   2
  -5   3  -8 15.1832 3.82586   3
   5  -3   8 9.24046 2.11040   2
   5  -3   8 12.0016 2.94342   1
  -6   3  -8 49.2802 5.01744   3
   6  -3   8 45.9518 3.84945   1
   6  -3   8 49.0694 3.73843   2
  -7   3  -8 1.96403 2.69458   3
   7  -3   8 5.47866 1.96450   1
   7  -3   8 5.36598 2.34263   2
  -8   3  -8 4.46666 3.11011   3
   8  -3   8 2.06476 2.78623   2
   8  -3   8 0.38879 2.10383   1
  -9   3  -8 16.0698 3.91751   3
   9  -3   8 27.3307 4.35553   1
   9  -3   8 13.1251 4.34287   2
 -10   3  -8 9.25642 4.39656   3
  10  -3   8 7.51087 4.24643   2
 -10  -2   8 7.18623 4.92744   3
   9   2  -8 38.2993 7.21617   2
   9   2  -8 51.1781 8.09787   3
  -9  -2   8 41.9125 7.74955   3
   8   2  -8 4.24029 3.80156   3
   8   2  -8 -0.1096 3.28181   2
  -8  -2   8 1.68681 3.68140   3
   7   2  -8 5.59216 2.85965   2
   7   2  -8 5.81726 3.28133   3
  -7  -2   8 7.57942 3.29252   3
  -7  -2   8 1.54222 2.57213   1
   6   2  -8 98.6905 5.61725   2
   6   2  -8 100.176 7.18985   3
  -6  -2   8 101.756 7.38204   3
  -6  -2   8 100.935 5.54373   1
   5   2  -8 2.07434 2.43037   3
   5   2  -8 3.34044 2.01625   2
  -5  -2   8 1.30549 1.93668   1
  -5  -2   8 -1.7843 2.26197   3
   4   2  -8 88.0000 5.25972   3
   4   2  -8 88.4731 4.38764   2
  -4  -2   8 75.3356 4.57942   1
  -4  -2   8 80.7044 5.02321   3
   3   2  -8 26.0466 3.64904   3
   3   2  -8 20.7773 2.64607   2
   3   2  -8 22.2138 3.31509   2
  -3  -2   8 21.8144 3.03925   1
  -3  -2   8 19.5016 3.52587   2
  -3  -2   8 23.2855 3.57122   3
   2   2  -8 65.0364 3.29033   2
   2   2  -8 68.4653 4.30335   3
  -2  -2   8 69.3661 3.86785   1
  -2  -2   8 64.6598 3.10133   2
   1   2  -8 185.950 6.93905   3
  -1  -2   8 181.889 6.80402   1
   0   2  -8 830.844 24.2410   3
   0  -2   8 829.143 24.0603   1
  -1   2  -8 4.48550 1.79484   3
   1  -2   8 5.33096 1.41500   1
  -2   2  -8 124.903 5.45622   3
   2  -2   8 128.832 5.15318   1
  -3   2  -8 118.320 5.25381   3
  -3   2  -8 116.092 4.42509   2
   3  -2   8 112.592 4.42210   2
   3  -2   8 113.118 4.75463   1
   3  -2   8 113.126 4.16210   2
  -4   2  -8 16.3390 2.93557   2
  -4   2  -8 22.3585 3.35330   3
   4  -2   8 16.3934 2.53025   2
   4  -2   8 15.0119 2.57562   1
  -5   2  -8 82.9555 4.87770   3
  -5   2  -8 82.0513 4.32350   2
   5  -2   8 79.9769 3.90592   2
   5  -2   8 77.7028 4.22633   1
  -6   2  -8 4.16708 2.25937   2
  -6   2  -8 7.67666 2.45932   3
   6  -2   8 4.28038 1.92295   2
   6  -2   8 5.31611 1.78468   1
  -7   2  -8 22.2788 4.41192   3
   7  -2   8 22.1808 3.41994   1
   7  -2   8 29.7083 3.82270   2
  -8   2  -8 47.4391 5.88386   3
   8  -2   8 48.2206 4.68544   2
   8  -2   8 39.7699 4.07783   1
  -9   2  -8 3.26605 3.38529   3
   9  -2   8 0.57819 3.02765   2
   9  -2   8 -0.3885 2.25255   1
 -10   2  -8 8.80623 4.49684   3
  10  -2   8 7.16268 3.82465   2
 -11   2  -8 5.30863 5.22132   3
  11  -2   8 21.2252 5.00620   2
  10   1  -8 5.57186 4.84847   3
  10   1  -8 -1.9944 4.74109   2
 -10  -1   8 7.06168 5.15787   3
   9   1  -8 28.8267 6.88021   2
   9   1  -8 42.2230 7.43092   3
  -9  -1   8 37.2426 7.37851   3
   8   1  -8 3.44009 3.30711   2
   8   1  -8 4.53514 3.56765   3
  -8  -1   8 10.8122 3.51313   3
   7   1  -8 2.06439 2.75889   2
   7   1  -8 0.83903 2.88835   3
  -7  -1   8 -0.9782 2.94169   3
  -7  -1   8 5.73539 2.34382   1
   6   1  -8 19.4417 4.00608   2
   6   1  -8 19.3155 4.55809   3
  -6  -1   8 14.4767 3.03656   3
  -6  -1   8 17.3390 3.68556   1
   5   1  -8 59.7974 4.21680   2
   5   1  -8 53.3314 4.72424   3
  -5  -1   8 48.5217 4.71815   3
  -5  -1   8 55.5515 4.04428   1
   4   1  -8 279.099 9.84864   3
  -4  -1   8 280.641 9.47083   1
  -4  -1   8 278.909 9.93077   3
   3   1  -8 14.4660 2.72508   2
   3   1  -8 21.1206 3.37868   3
  -3  -1   8 22.5687 2.84354   1
  -3  -1   8 18.3351 3.36392   3
   2   1  -8 52.3265 2.88036   2
   2   1  -8 48.8396 3.45227   3
  -2  -1   8 42.6821 3.18941   1
  -2  -1   8 46.9001 3.57253   3
  -2  -1   8 44.6632 2.83792   2
   1   1  -8 285.627 8.61162   2
   1   1  -8 290.508 9.53241   3
  -1  -1   8 286.446 9.28383   1
  -1  -1   8 272.930 8.37036   2
   0   1  -8 41.4624 3.26765   3
   0   1  -8 42.6585 2.26078   2
   0  -1   8 43.2496 2.91525   1
   0  -1   8 42.5289 2.41593   2
  -1   1  -8 364.388 10.8610   2
  -1   1  -8 373.127 11.7220   3
   1  -1   8 371.724 11.5411   1
   1  -1   8 374.241 10.7383   2
  -2   1  -8 411.339 12.0172   2
  -2   1  -8 418.772 12.8128   3
   2  -1   8 385.325 11.9129   2
   2  -1   8 437.161 12.7383   1
  -3   1  -8 75.3101 4.08437   3
  -3   1  -8 74.6234 3.67192   2
   3  -1   8 81.3675 3.76849   1
   3  -1   8 77.8529 3.38418   2
  -4   1  -8 53.7992 3.51192   2
  -4   1  -8 50.3236 3.69795   3
   4  -1   8 50.1565 3.13613   2
   4  -1   8 52.7947 3.26983   1
  -5   1  -8 41.4857 3.55827   2
  -5   1  -8 42.6996 3.76859   3
   5  -1   8 44.1543 3.23818   1
   5  -1   8 48.4731 3.19672   2
  -6   1  -8 0.81556 2.12936   2
  -6   1  -8 5.66510 2.28434   3
   6  -1   8 4.13144 1.53875   1
   6  -1   8 -0.1129 1.58074   2
  -7   1  -8 2.77380 2.55580   2
  -7   1  -8 1.81387 2.38017   3
   7  -1   8 2.03910 1.98340   2
   7  -1   8 3.49601 1.79322   1
  -8   1  -8 20.2829 3.35099   3
  -8   1  -8 26.2852 4.98660   2
   8  -1   8 19.4912 4.13357   2
   8  -1   8 25.4613 3.75513   1
  -9   1  -8 2.90332 3.19951   3
  -9   1  -8 3.57347 3.27164   2
   9  -1   8 4.16023 2.92981   2
   9  -1   8 4.25527 2.16262   1
 -10   1  -8 35.7812 7.29105   3
  10  -1   8 35.7305 6.11137   2
 -11   1  -8 1.20954 4.86641   3
  11  -1   8 3.18680 4.25978   2
  10   0  -8 -0.3186 4.71114   2
  10   0  -8 2.03184 4.65399   3
 -10   0   8 1.41807 4.66407   3
   9   0  -8 7.45188 3.96373   3
   9   0  -8 5.31903 3.97340   2
  -9   0   8 5.03791 4.10772   3
   8   0  -8 14.1493 3.49247   2
   8   0  -8 14.9180 3.70563   3
  -8   0   8 14.8404 3.69357   3
   7   0  -8 20.1164 5.03010   3
   7   0  -8 28.7610 5.12003   2
  -7   0   8 29.2923 5.26385   3
   6   0  -8 22.7555 4.36557   2
   6   0  -8 27.0201 4.02512   3
  -6   0   8 22.1812 3.53518   1
  -6   0   8 31.0292 4.65491   3
   5   0  -8 28.7376 3.97373   3
   5   0  -8 33.4283 4.00737   2
  -5   0   8 30.2756 4.23886   3
  -5   0   8 28.9349 3.22574   1
   4   0  -8 0.51390 1.83075   3
   4   0  -8 3.86741 1.85236   2
  -4   0   8 1.82680 1.59712   1
  -4   0   8 -1.1622 1.89093   3
   3   0  -8 13.2893 2.74123   2
   3   0  -8 6.59857 1.86493   3
  -3   0   8 7.88166 1.97912   3
  -3   0   8 9.04746 1.68105   1
   2   0  -8 476.712 14.8619   3
   2   0  -8 486.598 14.2817   2
  -2   0   8 482.008 14.6407   1
  -2   0   8 496.709 14.9914   3
   1   0  -8 238.499 7.50606   2
   1   0  -8 251.411 8.20447   3
  -1   0   8 243.434 8.00184   1
  -1   0   8 227.632 7.65409   2
   0   0  -8 155.690 5.85926   3
   0   0  -8 158.588 5.26399   2
   0   0   8 152.164 5.46436   2
   0   0   8 155.360 5.70288   1
  -1   0  -8 953.939 26.6067   2
  -1   0  -8 953.798 27.1353   3
   1   0   8 962.735 27.1331   1
   1   0   8 933.945 26.5721   2
  -2   0  -8 49.4016 2.95139   2
  -2   0  -8 53.8663 3.17563   3
   2   0   8 48.5040 2.93195   2
   2   0   8 51.6203 2.96114   1
  -3   0  -8 58.3749 3.52679   3
  -3   0  -8 59.8658 3.41064   2
   3   0   8 55.2939 3.25832   1
  -4   0  -8 166.060 6.29560   3
   4   0   8 165.865 6.13077   1
  -5   0  -8 49.9921 3.76814   3
  -5   0  -8 49.7866 3.88081   2
   5   0   8 51.0260 3.41939   2
   5   0   8 49.3137 3.26002   1
  -6   0  -8 17.9105 3.72813   2
  -6   0  -8 19.1050 3.52748   3
   6   0   8 23.1111 2.88634   1
   6   0   8 21.4703 3.06158   2
  -7   0  -8 43.1179 4.43980   3
  -7   0  -8 40.7320 4.54623   2
   7   0   8 46.7652 3.60423   1
   7   0   8 40.3637 3.79338   2
  -8   0  -8 50.9220 5.40001   2
  -8   0  -8 64.3661 5.29915   3
   8   0   8 62.1565 4.68859   2
   8   0   8 54.4108 4.20945   1
  -9   0  -8 9.42555 3.71809   2
  -9   0  -8 7.91781 3.34099   3
   9   0   8 4.13981 2.25661   1
   9   0   8 3.05022 4.17453   2
 -10   0  -8 20.7758 4.38474   3
 -10   0  -8 38.1421 7.07376   2
  10   0   8 25.4881 5.62364   2
  10   0   8 20.0155 4.59490   1
 -11   0  -8 10.6963 4.45424   3
  11   0   8 7.24006 3.87125   2
  10  -1  -8 5.32135 4.87176   2
  10  -1  -8 -5.8489 5.09946   3
 -10   1   8 5.17560 4.95103   3
   9  -1  -8 -9.9595 4.07823   3
   9  -1  -8 0.22965 4.14121   2
  -9   1   8 -3.1859 3.85593   3
   8  -1  -8 1.18041 3.51068   3
  -8   1   8 5.35428 3.31000   3
   7  -1  -8 1.79547 2.85369   2
   7  -1  -8 2.39149 3.10089   3
  -7   1   8 2.57274 2.95005   3
   6  -1  -8 134.752 6.87139   2
   6  -1  -8 150.722 7.15924   3
  -6   1   8 139.387 5.76401   1
  -6   1   8 160.767 7.29940   3
   5  -1  -8 56.7626 4.72707   2
   5  -1  -8 58.2676 4.52044   3
  -5   1   8 62.3719 4.54122   3
  -5   1   8 61.0601 3.79237   1
   4  -1  -8 154.393 6.23004   2
   4  -1  -8 150.592 6.27617   3
  -4   1   8 146.929 5.82539   1
  -4   1   8 158.785 6.54392   3
   3  -1  -8 103.804 5.02979   3
   3  -1  -8 105.534 4.95883   2
  -3   1   8 110.269 4.63341   1
  -3   1   8 111.548 5.14271   3
   2  -1  -8 90.0923 4.14709   3
  -2   1   8 70.8440 3.70417   1
  -2   1   8 69.5561 3.94602   3
   1  -1  -8 447.793 13.3904   3
   1  -1  -8 424.254 12.9695   2
  -1   1   8 442.085 13.3767   3
  -1   1   8 434.600 13.1854   1
   0  -1  -8 281.042 8.81286   2
   0  -1  -8 275.107 8.99550   3
   0   1   8 289.442 9.05833   1
  -1  -1  -8 98.8619 4.11682   2
   1   1   8 97.1281 4.12728   1
  -2  -1  -8 39.2569 2.84479   2
  -2  -1  -8 34.1639 2.80429   3
   2   1   8 38.1695 2.63867   1
  -3  -1  -8 557.991 16.6342   2
  -3  -1  -8 571.253 16.6033   3
   3   1   8 556.668 16.6301   1
  -4  -1  -8 151.271 5.98255   2
   4   1   8 148.381 5.63990   1
  -5  -1  -8 42.5728 3.38831   3
  -5  -1  -8 39.5898 3.72199   2
   5   1   8 40.8228 3.00314   1
  -6  -1  -8 8.47681 2.38849   2
  -6  -1  -8 5.80439 1.91702   3
   6   1   8 10.4924 2.66038   1
   6   1   8 7.59166 1.92846   2
  -7  -1  -8 104.124 5.85110   2
  -7  -1  -8 92.7998 5.21192   3
   7   1   8 99.9863 4.81281   1
   7   1   8 99.6557 5.18988   2
  -8  -1  -8 5.36554 2.36673   3
  -8  -1  -8 2.50773 2.61769   2
   8   1   8 -0.7615 1.74232   1
   8   1   8 1.41852 2.18608   2
  -9  -1  -8 1.77711 2.97337   3
   9   1   8 0.82153 2.24385   1
 -10  -1  -8 119.231 7.51889   3
 -10  -1  -8 109.219 8.15670   2
  10   1   8 112.701 6.29830   1
  10   1   8 109.005 7.01329   2
 -11  -1  -8 1.83581 4.26520   2
  11   1   8 -0.1432 3.57427   2
  10  -2  -8 -4.1230 4.85837   2
 -10   2   8 2.25755 4.99306   3
   9  -2  -8 -3.6617 3.87791   2
  -9   2   8 1.85457 3.94824   3
   8  -2  -8 3.63922 3.65581   2
  -8   2   8 7.71816 3.63811   3
   7  -2  -8 2.07689 2.82804   2
  -7   2   8 -1.9192 2.63365   3
   6  -2  -8 23.3650 4.80527   2
  -6   2   8 17.7753 4.59509   3
  -6   2   8 20.5744 3.04617   1
   5  -2  -8 78.4475 5.28274   2
  -5   2   8 75.1287 5.11048   3
   4  -2  -8 6.03060 2.01216   3
   4  -2  -8 15.7037 3.62017   2
  -4   2   8 9.10737 2.14003   3
  -4   2   8 7.52452 1.58270   1
   3  -2  -8 8.87187 1.83642   3
   3  -2  -8 11.8104 3.20844   2
  -3   2   8 4.89923 1.74053   3
  -3   2   8 7.91888 1.50617   1
   2  -2  -8 148.497 5.86541   2
   2  -2  -8 150.618 5.80339   3
  -2   2   8 149.528 5.84675   3
  -2   2   8 151.020 5.54476   1
   1  -2  -8 34.7530 2.98941   2
   1  -2  -8 27.8026 2.70383   3
  -1   2   8 33.2736 2.54505   1
  -1   2   8 27.2285 2.79135   3
   0  -2  -8 196.326 6.80982   2
   0   2   8 196.674 6.72535   1
  -1  -2  -8 164.786 5.82624   2
  -1  -2  -8 154.121 5.58630   3
   1   2   8 153.898 5.60050   1
  -2  -2  -8 168.722 6.29693   2
  -2  -2  -8 168.569 5.91191   3
   2   2   8 173.414 6.05639   1
  -3  -2  -8 460.774 13.3734   3
  -3  -2  -8 451.229 13.8441   2
   3   2   8 441.866 13.6163   1
  -5  -2  -8 281.399 8.97809   3
  -5  -2  -8 277.454 9.71800   2
   5   2   8 279.188 9.16353   1
  -6  -2  -8 89.3852 5.38723   2
  -6  -2  -8 94.3248 4.54363   3
   6   2   8 87.8778 4.37909   1
  -7  -2  -8 33.6676 4.54922   2
  -7  -2  -8 32.0695 3.67700   3
   7   2   8 36.0286 3.36765   1
  -8  -2  -8 7.29246 2.45186   3
  -8  -2  -8 5.74410 2.99812   2
   8   2   8 6.17892 2.31446   2
   8   2   8 7.17810 2.08039   1
  -9  -2  -8 18.9932 3.21931   3
  -9  -2  -8 29.5756 5.62131   2
   9   2   8 18.0561 3.94496   1
   9   2   8 21.6710 4.31395   2
 -10  -2  -8 44.7612 6.76858   2
  10   2   8 40.6490 5.61565   2
  10   2   8 35.8627 4.92845   1
 -11  -2  -8 0.27954 4.42347   2
  11   2   8 1.08439 3.75210   2
  10  -3  -8 -4.9483 4.85311   2
 -10   3   8 2.36595 5.18351   3
   9  -3  -8 1.39554 4.32586   2
  -9   3   8 1.47362 4.10921   3
   8  -3  -8 11.6870 3.87614   2
  -8   3   8 9.72208 3.64155   3
   7  -3  -8 14.6079 3.61638   2
  -7   3   8 12.3413 3.34478   3
   6  -3  -8 16.6827 3.27732   2
  -6   3   8 18.8142 4.79562   3
   5  -3  -8 10.5386 2.74056   2
  -5   3   8 11.1839 2.64405   3
  -5   3   8 14.2457 2.79337   1
   4  -3  -8 4.33356 2.21812   2
  -4   3   8 1.77034 1.91695   3
   3  -3  -8 196.433 7.61928   2
  -3   3   8 200.306 6.79353   1
  -3   3   8 191.894 7.23252   3
   2  -3  -8 1.66754 1.48976   3
   2  -3  -8 3.21523 1.76909   2
  -2   3   8 4.76095 1.34185   1
  -2   3   8 3.27355 1.63223   3
   1  -3  -8 115.705 5.00137   2
   1  -3  -8 105.483 4.46399   3
  -1   3   8 108.310 4.37697   1
  -1   3   8 107.546 4.55038   3
   0  -3  -8 221.737 7.70983   2
   0  -3  -8 215.099 7.27416   3
   0   3   8 228.779 7.39318   3
   0   3   8 216.894 7.30159   1
  -1  -3  -8 338.201 10.4011   3
  -1  -3  -8 344.344 10.9580   2
   1   3   8 348.573 10.6142   1
  -2  -3  -8 338.590 10.2616   3
  -2  -3  -8 341.947 10.9625   2
  -2  -3  -8 335.888 10.7089   3
   2   3   8 345.851 10.5739   1
  -3  -3  -8 1315.45 35.1519   3
  -3  -3  -8 1197.48 35.0577   3
  -3  -3  -8 1297.10 36.0450   2
   3   3   8 1279.22 35.6242   1
   3   3   8 1247.43 35.0438   3
  -4  -3  -8 246.591 7.54770   3
  -4  -3  -8 244.746 8.61577   2
  -4  -3  -8 218.416 7.50776   3
   4   3   8 227.070 7.46974   3
   4   3   8 249.216 7.97061   1
  -5  -3  -8 30.2895 3.89963   2
  -5  -3  -8 34.0134 2.72178   3
   5   3   8 29.0234 2.68305   1
  -6  -3  -8 26.6842 3.16807   3
  -6  -3  -8 27.1446 4.18803   2
   6   3   8 29.2320 2.94402   1
  -7  -3  -8 11.3214 2.86418   2
   7   3   8 13.3736 2.80893   1
  -8  -3  -8 5.51026 2.20664   3
  -8  -3  -8 4.06205 2.98978   2
   8   3   8 3.91329 1.87023   1
   8   3   8 2.06182 2.33158   2
  -9  -3  -8 4.56459 3.29177   2
   9   3   8 7.24838 2.30707   1
   9   3   8 9.08710 2.88165   2
 -10  -3  -8 13.6547 3.90473   2
  10   3   8 22.0253 5.27212   2
  10   3   8 11.1722 2.83863   1
 -11  -3  -8 18.5857 4.73415   2
  11   3   8 14.5197 4.00347   2
  11   3   8 17.1191 3.55404   1
   9  -4  -8 4.56710 4.73467   2
  -9   4   8 2.37029 4.21794   3
   8  -4  -8 18.0417 4.34130   2
  -8   4   8 18.1764 4.22402   3
   7  -4  -8 30.7126 6.53308   2
  -7   4   8 32.5066 5.56990   3
   6  -4  -8 5.15906 2.99649   2
  -6   4   8 4.57865 2.75865   3
   5  -4  -8 154.541 7.47372   2
  -5   4   8 162.721 7.00705   3
  -5   4   8 141.603 5.69327   1
   4  -4  -8 12.1315 2.72970   2
  -4   4   8 10.8329 1.86550   1
  -4   4   8 20.7672 3.60934   3
   3  -4  -8 407.823 12.4710   2
  -3   4   8 354.284 11.7698   3
  -3   4   8 344.244 11.2175   1
   2  -4  -8 15.4265 3.39844   2
  -2   4   8 16.5724 2.24495   1
   1  -4  -8 636.860 18.7447   2
   1  -4  -8 600.522 18.0941   3
  -1   4   8 629.866 18.0402   1
  -1   4   8 615.492 18.1528   3
   0  -4  -8 6.75501 1.44066   3
   0  -4  -8 5.77749 1.95755   2
   0   4   8 8.91938 2.29652   3
   0   4   8 12.7191 2.09587   1
  -1  -4  -8 221.789 7.86510   2
  -1  -4  -8 226.590 7.00141   3
   1   4   8 205.410 7.20686   1
  -2  -4  -8 633.465 18.8608   2
  -2  -4  -8 629.540 17.7483   3
  -2  -4  -8 604.160 17.6990   3
   2   4   8 636.042 18.2774   1
  -3  -4  -8 23.7386 2.10325   3
  -3  -4  -8 18.4993 2.26436   3
  -3  -4  -8 22.7121 3.33377   2
   3   4   8 22.0844 2.27897   1
  -4  -4  -8 178.685 7.26161   2
  -4  -4  -8 165.684 5.58656   3
  -4  -4  -8 175.359 5.94548   3
   4   4   8 172.846 5.54387   3
   4   4   8 178.753 6.29092   1
  -5  -4  -8 115.822 4.24917   3
  -5  -4  -8 119.593 6.02402   2
   5   4   8 117.608 4.29837   3
   5   4   8 120.407 4.92365   1
  -6  -4  -8 29.8674 2.67078   3
  -6  -4  -8 24.7982 4.31626   2
   6   4   8 27.9720 2.90204   1
  -7  -4  -8 15.1958 3.10495   2
   7   4   8 14.8370 2.86762   1
  -8  -4  -8 15.4582 3.44732   2
   8   4   8 13.7548 3.25964   1
  -9  -4  -8 2.03877 3.55576   2
   9   4   8 2.90803 2.10996   1
   9   4   8 1.18207 2.77261   2
 -10  -4  -8 0.74554 3.88670   2
  10   4   8 3.07195 3.14192   2
  10   4   8 0.89449 2.39994   1
 -11  -4  -8 3.85037 4.57374   2
  11   4   8 8.47977 3.21053   1
  11   4   8 9.18897 3.64021   2
   9  -5  -8 13.4282 4.96787   2
  -9   5   8 14.7512 4.91709   3
   8  -5  -8 6.95101 4.24288   2
  -8   5   8 5.14575 3.75968   3
   7  -5  -8 17.0236 4.14855   2
  -7   5   8 11.1838 3.38810   3
   6  -5  -8 2.87788 3.70433   2
  -6   5   8 -2.7394 2.56995   3
   5  -5  -8 60.0154 5.77359   2
  -5   5   8 58.3504 4.86162   3
   4  -5  -8 20.8551 4.61077   2
  -4   5   8 22.8878 3.97063   3
   3  -5  -8 23.7777 4.23081   2
  -3   5   8 37.7995 3.62029   3
  -3   5   8 36.1096 2.82078   1
   2  -5  -8 6.84382 2.32360   2
  -2   5   8 17.6473 2.95773   3
  -2   5   8 10.4138 2.28108   1
   1  -5  -8 45.4378 4.19386   2
  -1   5   8 38.4228 2.73053   1
   0  -5  -8 108.346 5.61503   2
   0  -5  -8 115.531 4.46890   3
   0   5   8 115.012 4.53187   1
   0   5   8 117.653 4.48259   3
  -1  -5  -8 241.557 7.79303   3
  -1  -5  -8 256.043 7.80249   3
  -1  -5  -8 255.304 9.03108   2
   1   5   8 249.337 7.78436   3
   1   5   8 252.907 8.19483   1
  -2  -5  -8 139.458 6.11041   2
  -2  -5  -8 134.637 4.53680   3
   2   5   8 134.098 5.17645   1
  -3  -5  -8 132.786 6.32043   2
   3   5   8 134.349 5.21237   1
  -4  -5  -8 408.337 13.6597   2
   4   5   8 416.847 12.7541   1
  -5  -5  -8 1.06698 2.31630   2
   5   5   8 0.93442 1.34418   1
  -6  -5  -8 60.4842 5.52856   2
   6   5   8 69.1405 3.92629   1
  -7  -5  -8 6.36860 2.90599   2
   7   5   8 7.59622 1.97765   1
  -8  -5  -8 54.0622 5.97543   2
   8   5   8 50.2653 4.23910   1
  -9  -5  -8 3.26310 3.41948   2
   9   5   8 5.23044 2.26938   1
 -10  -5  -8 12.0137 4.49967   2
  10   5   8 11.5474 3.48111   2
  10   5   8 7.09624 2.63769   1
 -11  -5  -8 21.6522 5.17982   2
  11   5   8 17.0672 4.19366   2
  11   5   8 23.3520 5.44494   1
   9  -6  -8 1.79338 5.22969   2
  -9   6   8 -2.9408 4.48341   3
   8  -6  -8 11.9370 4.91287   2
  -8   6   8 -7.0276 3.73251   3
   7  -6  -8 21.7472 4.72673   2
  -7   6   8 24.9843 6.31293   3
   6  -6  -8 0.93302 3.40482   2
  -6   6   8 3.58996 5.51011   3
   5  -6  -8 18.1312 3.81019   2
  -5   6   8 21.6390 4.47115   3
   4  -6  -8 4.17060 2.80731   2
  -4   6   8 2.55549 1.69966   1
  -4   6   8 1.67417 2.26450   3
   3  -6  -8 300.911 11.0339   2
  -3   6   8 298.475 10.1060   3
  -3   6   8 295.889 9.41577   1
   2  -6  -8 1.47226 2.47763   2
  -2   6   8 1.45335 1.66436   3
  -2   6   8 2.79695 1.38888   1
   1  -6  -8 353.930 12.0329   2
  -1   6   8 341.541 11.2863   3
  -1   6   8 343.325 10.7000   1
   0  -6  -8 0.00463 1.36919   3
   0  -6  -8 1.54479 2.11071   2
   0   6   8 2.33094 1.41164   3
   0   6   8 1.50998 1.17846   1
  -1  -6  -8 125.763 4.44708   3
  -1  -6  -8 115.106 4.58112   3
  -1  -6  -8 128.214 6.19437   2
   1   6   8 130.619 4.96083   1
   1   6   8 121.603 4.48847   3
  -2  -6  -8 634.645 19.7990   2
   2   6   8 647.219 18.8719   1
  -3  -6  -8 194.487 8.12845   2
   3   6   8 198.716 6.99590   1
  -4  -6  -8 3.88537 2.27459   2
   4   6   8 2.12936 1.31998   1
  -5  -6  -8 1.38507 2.49134   2
   5   6   8 1.58987 1.39067   1
  -6  -6  -8 547.576 18.1823   2
   6   6   8 558.288 16.9603   1
  -7  -6  -8 1.26740 3.83777   2
   7   6   8 0.69163 1.82885   1
  -8  -6  -8 16.3067 3.73712   2
   8   6   8 18.9026 3.75926   1
  -9  -6  -8 -1.7942 3.47071   2
   9   6   8 1.15316 2.28174   1
 -10  -6  -8 -2.8471 4.11004   2
  10   6   8 -0.8160 2.62811   1
  10   6   8 2.52524 3.54722   2
 -11  -6  -8 7.90433 5.21009   2
  11   6   8 9.72840 3.37356   1
  11   6   8 12.7771 4.22564   2
   8  -7  -8 4.48672 4.79247   2
  -8   7   8 -1.9224 4.40013   3
   7  -7  -8 9.35433 4.54556   2
  -7   7   8 19.7895 4.18751   3
   6  -7  -8 0.95252 3.65985   2
  -6   7   8 3.55261 3.38216   3
   5  -7  -8 165.458 8.93089   2
  -5   7   8 162.274 7.81012   3
   4  -7  -8 23.9046 5.58279   2
  -4   7   8 22.4299 3.15052   1
  -4   7   8 37.3605 4.71918   3
   3  -7  -8 70.3781 5.85899   2
  -3   7   8 61.9783 4.52734   3
  -3   7   8 60.8853 3.56656   1
   2  -7  -8 97.8316 6.40648   2
  -2   7   8 95.2785 4.88836   3
  -2   7   8 94.0515 4.22588   1
   1  -7  -8 97.5784 6.19612   2
  -1   7   8 89.5266 4.17351   1
  -1   7   8 84.5431 4.23469   3
   0  -7  -8 397.635 13.3604   2
   0   7   8 375.713 11.7505   1
   0   7   8 362.278 11.3453   3
  -1  -7  -8 20.8590 2.40577   3
  -1  -7  -8 22.7699 4.29312   2
   1   7   8 22.2236 2.44073   3
   1   7   8 22.2512 2.68502   1
  -2  -7  -8 -2.2875 2.29123   2
   2   7   8 4.10251 1.43953   1
  -3  -7  -8 45.0466 4.84888   2
   3   7   8 39.6063 3.12757   1
  -4  -7  -8 166.507 7.90074   2
   4   7   8 171.403 6.49239   1
  -5  -7  -8 48.5862 5.60788   2
   5   7   8 48.9410 3.75128   1
  -6  -7  -8 195.060 9.33399   2
   6   7   8 196.546 7.52147   1
  -7  -7  -8 1.88887 3.60430   2
   7   7   8 2.83013 1.95638   1
  -8  -7  -8 37.9875 6.46807   2
   8   7   8 41.9513 4.46921   1
  -9  -7  -8 -0.0490 3.80051   2
   9   7   8 3.81157 2.47635   1
 -10  -7  -8 1.60981 4.51403   2
  10   7   8 5.32713 2.78719   1
   8  -8  -8 -4.1560 4.87575   2
  -8   8   8 -0.5723 4.65752   3
   7  -8  -8 -0.3437 4.42958   2
  -7   8   8 1.96852 4.12073   3
   6  -8  -8 20.1498 4.67609   2
  -6   8   8 11.7473 3.85851   3
   5  -8  -8 22.0967 4.50149   2
  -5   8   8 17.7157 3.51455   3
   4  -8  -8 7.90406 3.50122   2
  -4   8   8 2.28703 2.65310   3
   3  -8  -8 1.72237 3.35470   2
  -3   8   8 1.76350 1.61712   1
  -3   8   8 3.29294 2.37706   3
   2  -8  -8 100.425 7.06795   2
  -2   8   8 96.1255 4.48543   1
  -2   8   8 91.4680 5.06608   3
   1  -8  -8 2.90495 2.90381   2
  -1   8   8 2.86054 1.58918   1
  -1   8   8 -0.2054 1.75534   3
   0  -8  -8 13.3215 3.26372   2
   0   8   8 10.4015 1.87160   3
   0   8   8 10.1928 1.85512   1
  -1  -8  -8 9.23867 2.85974   2
   1   8   8 6.23589 1.49862   3
   1   8   8 6.06885 1.63431   1
  -2  -8  -8 295.640 11.3999   2
   2   8   8 289.535 9.78030   1
  -3  -8  -8 102.327 6.63767   2
   3   8   8 99.9582 4.91691   1
  -4  -8  -8 -2.3840 2.77362   2
   4   8   8 -2.5102 1.58259   1
  -5  -8  -8 40.0451 6.29233   2
   5   8   8 37.6847 4.16763   1
  -6  -8  -8 238.043 10.7967   2
   6   8   8 237.024 8.89424   1
  -7  -8  -8 8.97714 4.09840   2
   7   8   8 11.5602 2.39987   1
  -8  -8  -8 3.82291 4.06493   2
   8   8   8 5.14945 2.37598   1
  -9  -8  -8 9.98497 4.39255   2
   9   8   8 7.96377 2.96757   1
 -10  -8  -8 10.7542 5.25212   2
  10   8   8 9.42445 3.33529   1
   7  -9  -8 -4.7697 4.78507   2
  -7   9   8 0.34715 4.60920   3
   6  -9  -8 -1.1171 4.56017   2
  -6   9   8 1.80469 4.05795   3
   5  -9  -8 21.2054 4.67916   2
  -5   9   8 23.1886 4.23370   3
   4  -9  -8 121.460 8.99877   2
  -4   9   8 122.143 7.35219   3
   3  -9  -8 5.70055 3.85293   2
  -3   9   8 1.43479 1.78037   1
  -3   9   8 -0.9114 2.59253   3
   2  -9  -8 75.4646 7.87179   2
  -2   9   8 55.7961 4.10594   1
  -2   9   8 51.5902 4.63309   3
   1  -9  -8 36.5272 7.23842   2
  -1   9   8 38.3085 3.76764   3
  -1   9   8 36.8621 3.69431   1
   0  -9  -8 517.080 17.4075   2
   0   9   8 474.476 15.1586   1
  -1  -9  -8 81.7896 6.97995   2
   1   9   8 75.5104 4.41040   1
  -2  -9  -8 190.878 9.36931   2
   2   9   8 192.427 7.41027   1
  -3  -9  -8 5.26199 3.50495   2
   3   9   8 -2.4165 1.56326   1
  -4  -9  -8 380.330 14.6550   2
   4   9   8 371.713 12.7020   1
  -5  -9  -8 246.129 11.0825   2
   5   9   8 237.044 8.99802   1
  -6  -9  -8 9.21501 4.06091   2
  -7  -9  -8 4.50842 4.24010   2
   7   9   8 -0.0408 2.36986   1
  -8  -9  -8 2.37124 4.40955   2
   8   9   8 8.98311 2.75122   1
  -9  -9  -8 27.9505 5.56480   2
   9   9   8 46.0548 5.52881   1
   6 -10  -8 68.0076 9.99777   2
  -6  10   8 59.3805 8.50034   3
   5 -10  -8 8.55125 5.10050   2
  -5  10   8 -3.5647 3.78928   3
   4 -10  -8 52.4224 8.54130   2
  -4  10   8 30.8597 6.20569   3
   3 -10  -8 7.56234 4.57169   2
  -3  10   8 6.83530 3.17642   3
   2 -10  -8 507.686 17.7953   2
  -2  10   8 442.584 14.3214   1
  -2  10   8 430.357 14.5801   3
   1 -10  -8 10.4296 4.44852   2
  -1  10   8 16.4497 3.54115   1
   0 -10  -8 65.6812 7.71925   2
   0  10   8 60.4762 4.35691   1
  -1 -10  -8 19.4916 4.29098   2
   1  10   8 16.6745 3.58088   1
  -2 -10  -8 82.1024 7.69935   2
   2  10   8 77.1088 7.24412   1
  -3 -10  -8 171.024 9.78955   2
   3  10   8 159.357 6.96953   1
  -4 -10  -8 1.71193 4.02996   2
   4  10   8 3.66941 2.21140   1
  -5 -10  -8 33.6908 7.03404   2
   5  10   8 26.8421 4.29049   1
  -6 -10  -8 15.7649 5.03377   2
   6  10   8 16.3748 4.26478   1
  -7 -10  -8 36.4488 8.97398   2
   7  10   8 21.9654 3.27310   1
  -8 -10  -8 2.57305 5.26723   2
   8  10   8 -5.0854 2.74743   1
   5 -11  -8 2.46084 5.82364   2
  -5  11   8 -5.7873 4.46558   3
   4 -11  -8 91.2655 10.8799   2
  -4  11   8 57.8290 9.98218   3
   3 -11  -8 11.3303 5.59389   2
   2 -11  -8 3.00677 5.14991   2
  -2  11   8 1.03488 2.20751   1
   1 -11  -8 4.76782 4.95854   2
  -1  11   8 1.45552 2.32653   1
   0 -11  -8 167.122 10.5434   2
   0  11   8 148.348 7.59139   1
  -1 -11  -8 23.8020 5.23455   2
   1  11   8 21.1590 3.99655   1
  -2 -11  -8 20.6945 5.25908   2
   2  11   8 21.8826 4.06816   1
  -3 -11  -8 3.09915 4.49589   2
   3  11   8 4.50940 2.44255   1
  -4 -11  -8 64.5504 8.92480   2
   4  11   8 75.3652 5.45049   1
  -5 -11  -8 77.7262 9.11270   2
   5  11   8 83.4233 5.95341   1
  -6 -11  -8 14.9284 5.16167   2
   6  11   8 22.0599 4.75518   1
  -7 -11  -8 -0.6217 5.44074   2
   7  11   8 -6.2070 2.76521   1
   4 -12  -8 13.3334 6.79933   2
   3 -12  -8 2.75230 6.17713   2
   2 -12  -8 159.306 12.6022   2
   1 -12  -8 40.4425 9.48862   2
  -1  12   8 42.0289 5.34623   1
   0 -12  -8 48.5602 9.21047   2
   0  12   8 30.2998 4.94475   1
  -1 -12  -8 11.8704 5.29747   2
   1  12   8 18.2971 4.72628   1
  -2 -12  -8 109.248 11.0124   2
   2  12   8 116.237 6.73618   1
  -3 -12  -8 161.083 11.8182   2
   3  12   8 173.210 8.14434   1
  -4 -12  -8 1.61877 5.11351   2
   4  12   8 4.76619 2.74570   1
  -5 -12  -8 17.8714 5.84961   2
   5  12   8 8.40972 3.08198   1
  -6 -12  -8 -7.1215 5.65513   2
   6  12   8 4.52616 3.04535   1
   2 -13  -8 3.18353 6.71682   2
   1 -13  -8 11.8773 6.63639   2
  -1  13   8 5.24225 3.40291   1
   0 -13  -8 24.9301 6.92009   2
   0  13   8 22.4908 5.67904   1
  -1 -13  -8 140.982 12.4822   2
   1  13   8 133.952 7.82434   1
  -2 -13  -8 3.46311 6.03394   2
   2  13   8 5.64193 3.27682   1
  -3 -13  -8 7.30537 6.19309   2
   3  13   8 3.54327 3.21871   1
  -4 -13  -8 -1.1994 5.90264   2
   4  13   8 6.03837 3.22821   1
   1  10  -9 10.4352 4.82691   3
  -1 -10   9 8.54392 4.15976   1
   0  10  -9 -4.6878 4.25233   3
   0 -10   9 4.82637 3.79498   1
  -1  10  -9 9.85102 4.79278   3
   1 -10   9 4.06703 4.02176   1
  -2  10  -9 18.8202 5.49027   3
   2 -10   9 26.9569 4.74148   1
   4   9  -9 33.9846 9.01662   3
  -4  -9   9 16.1837 4.87350   1
   3   9  -9 -5.0309 4.31780   3
  -3  -9   9 -5.0507 4.19629   1
   2   9  -9 10.5210 4.50249   3
  -2  -9   9 4.86417 3.57134   1
   1   9  -9 14.0674 4.47482   3
  -1  -9   9 14.0732 3.89959   1
   0   9  -9 14.0628 4.20403   3
   0  -9   9 12.5130 3.81777   1
  -1   9  -9 38.4622 7.22456   3
   1  -9   9 47.2738 6.64175   1
  -2   9  -9 27.0978 7.12895   3
  -3   9  -9 -0.0257 4.30487   3
   3  -9   9 4.99916 3.45995   1
  -4   9  -9 2.75117 4.37945   3
   4  -9   9 3.29600 3.67657   1
  -5   9  -9 14.8683 5.36699   3
   5  -9   9 14.9860 4.21565   1
   5   8  -9 -2.4879 4.62475   3
  -5  -8   9 1.23890 3.98427   1
   4   8  -9 0.43726 4.48989   3
  -4  -8   9 0.64823 3.94087   1
   3   8  -9 1.56772 4.14778   3
  -3  -8   9 -2.1877 3.26120   1
   2   8  -9 -1.7317 3.66485   3
  -2  -8   9 1.16495 3.17032   1
   1   8  -9 51.3534 6.85064   3
  -1  -8   9 35.9695 5.67206   1
   0   8  -9 -0.0509 3.70073   3
   0  -8   9 2.90783 2.87368   1
  -1   8  -9 26.1194 6.02891   3
   1  -8   9 26.2742 3.85943   1
  -2   8  -9 -1.7905 3.35241   3
   2  -8   9 -2.2788 2.87977   1
  -3   8  -9 8.50833 4.02793   3
   3  -8   9 6.73000 3.09933   1
  -4   8  -9 -0.6609 3.75648   3
   4  -8   9 1.54795 2.99813   1
  -5   8  -9 32.4649 7.68899   3
   5  -8   9 14.2161 3.56946   1
  -6   8  -9 -5.1371 4.72021   3
   6  -8   9 -1.0879 3.25757   1
   6   7  -9 41.5618 8.22432   3
  -6  -7   9 37.5665 8.01141   1
   5   7  -9 5.09679 4.37366   3
  -5  -7   9 0.20710 4.03358   1
   4   7  -9 0.25315 3.98349   3
  -4  -7   9 -2.6427 3.28112   1
   3   7  -9 7.62140 3.98539   3
  -3  -7   9 6.29169 3.09344   1
   2   7  -9 -0.2828 3.28064   3
  -2  -7   9 0.15148 2.67307   1
   1   7  -9 3.55778 3.22901   3
  -1  -7   9 4.58518 2.64413   1
   0   7  -9 5.50038 3.21347   3
   0  -7   9 2.27727 2.53174   1
  -1   7  -9 113.158 7.16052   3
   1  -7   9 119.779 6.72238   1
  -2   7  -9 -1.2817 2.99460   3
   2  -7   9 3.37325 2.50068   1
  -3   7  -9 0.77398 3.10205   3
   3  -7   9 2.19658 2.39992   1
  -4   7  -9 1.94611 3.21686   3
   4  -7   9 -0.5768 2.52596   1
  -5   7  -9 78.4623 7.74618   3
   5  -7   9 76.5814 6.25274   1
  -6   7  -9 0.38450 4.25008   3
   6  -7   9 -1.5670 3.04242   1
  -7   7  -9 4.94177 4.79052   3
   7  -7   9 4.58345 3.26755   1
   7   6  -9 -3.1656 4.47101   3
  -7  -6   9 0.47133 4.41708   1
   6   6  -9 67.8362 7.72636   3
  -6  -6   9 57.2870 7.61885   1
   5   6  -9 4.86414 3.95503   3
  -5  -6   9 7.75876 3.48744   1
   4   6  -9 5.11607 3.50875   3
  -4  -6   9 7.34451 3.13403   1
   3   6  -9 57.4614 6.59540   3
  -3  -6   9 37.8321 5.10621   1
   2   6  -9 -2.2685 2.91900   3
  -2  -6   9 3.70869 2.73839   1
   1   6  -9 161.800 8.09280   3
  -1  -6   9 156.464 7.50761   1
   0   6  -9 23.1166 4.55742   3
   0  -6   9 27.6988 5.77094   1
  -1   6  -9 4.59591 4.97775   3
  -2   6  -9 3.96400 2.71440   3
   2  -6   9 5.44459 4.09331   1
  -3   6  -9 148.359 7.73127   3
  -4   6  -9 -4.8237 2.72863   3
  -5   6  -9 24.1481 5.96198   3
   5  -6   9 19.8498 5.22767   1
  -6   6  -9 8.16732 3.99960   3
   6  -6   9 4.65389 2.74494   1
  -7   6  -9 -0.8831 4.20282   3
   7  -6   9 -1.5435 3.03225   1
  -8   6  -9 -5.5652 4.45740   3
   8   5  -9 7.41563 4.83020   3
   8   5  -9 4.37073 3.72217   1
   7   5  -9 43.6398 7.69343   3
  -7  -5   9 42.0167 7.42752   1
   6   5  -9 50.9148 7.29605   3
  -6  -5   9 59.5655 6.84651   1
   5   5  -9 3.06746 3.38597   3
  -5  -5   9 1.04542 3.10670   1
   4   5  -9 25.5311 5.77952   3
  -4  -5   9 33.9821 8.15172   1
   3   5  -9 54.7087 6.34212   3
  -3  -5   9 50.5338 5.00333   1
   2   5  -9 28.5154 5.05183   3
  -2  -5   9 30.9968 4.54250   1
   1   5  -9 33.5639 4.96107   3
  -1  -5   9 25.9643 4.08563   1
   0   5  -9 33.1446 4.67139   3
   0  -5   9 25.8918 3.70731   1
  -1   5  -9 19.2161 4.46103   3
   1  -5   9 14.3490 3.52277   1
  -2   5  -9 67.7712 5.51617   3
   2  -5   9 80.4556 4.93293   1
  -3   5  -9 63.1640 5.46440   3
   3  -5   9 72.6451 4.80910   1
  -4   5  -9 2.59974 3.51742   3
   4  -5   9 3.01560 2.15156   1
  -5   5  -9 54.3949 5.84624   3
   5  -5   9 66.4526 4.91467   1
  -6   5  -9 4.44399 3.49442   3
   6  -5   9 5.04822 2.40350   1
  -7   5  -9 4.25430 4.03745   3
   7  -5   9 8.20994 2.79445   1
  -8   5  -9 4.40108 4.23497   3
   8  -5   9 4.41045 5.55866   1
  -9   5  -9 -12.338 4.56600   3
   8   4  -9 2.06898 4.72220   3
  -8  -4   9 16.8612 4.68981   3
   7   4  -9 12.9597 4.21602   3
  -7  -4   9 6.02762 3.73029   1
  -7  -4   9 3.65975 3.91490   3
   6   4  -9 2.19300 3.44458   3
  -6  -4   9 3.27549 3.27811   1
   5   4  -9 134.671 7.83263   3
  -5  -4   9 126.352 7.13217   1
  -4  -4   9 71.2715 5.59414   1
   3   4  -9 3.20153 2.50500   3
  -3  -4   9 2.04311 2.21686   1
   2   4  -9 58.3536 5.15670   3
  -2  -4   9 59.6675 4.57260   1
   1   4  -9 15.8557 4.15324   3
  -1  -4   9 6.63701 2.11662   1
   0   4  -9 1.76488 2.23145   3
   0  -4   9 0.74351 1.68461   1
  -1   4  -9 86.4407 5.48740   3
   1  -4   9 95.5591 4.96186   1
  -2   4  -9 33.8321 4.48461   3
   2  -4   9 39.3638 3.53848   1
  -3   4  -9 173.617 7.65157   3
   3  -4   9 171.246 7.00829   1
  -4   4  -9 172.348 7.68942   3
   4  -4   9 166.414 6.96299   1
  -5   4  -9 0.55223 2.54307   3
   5  -4   9 1.19259 1.88944   1
  -6   4  -9 31.3374 7.65413   3
   6  -4   9 27.1105 4.11586   1
  -7   4  -9 39.7505 6.56854   3
   7  -4   9 29.6390 4.45591   1
  -8   4  -9 11.4437 4.06350   3
   8  -4   9 11.0655 2.94721   1
  -9   4  -9 -4.7973 4.25977   3
 -10   4  -9 -0.9845 4.94400   3
   9   3  -9 4.16045 5.05282   3
  -9  -3   9 3.45494 4.74658   3
   8   3  -9 7.23614 4.41059   3
  -8  -3   9 -3.5298 3.95150   3
   7   3  -9 43.5869 7.06320   3
  -7  -3   9 44.7453 6.96173   3
  -7  -3   9 44.0571 6.29887   1
   6   3  -9 1.48953 3.31594   3
  -6  -3   9 3.13028 3.29796   3
  -6  -3   9 2.09498 2.80620   1
   5   3  -9 55.5677 5.55720   3
  -5  -3   9 47.7518 5.68257   3
  -5  -3   9 47.1861 5.15461   1
   4   3  -9 28.7272 4.69864   3
  -4  -3   9 26.3281 4.43941   1
   3   3  -9 340.766 11.8246   3
  -3  -3   9 330.507 11.4498   1
   2   3  -9 62.3335 4.89484   3
  -2  -3   9 59.5013 4.46907   1
   1   3  -9 104.010 5.81732   3
  -1  -3   9 110.431 5.29397   1
   0   3  -9 171.255 7.21803   3
   0  -3   9 173.084 6.82061   1
  -1   3  -9 4.13152 2.01495   3
   1  -3   9 -0.2471 1.52906   1
  -2   3  -9 208.858 8.12454   3
   2  -3   9 208.296 7.73669   1
  -3   3  -9 -0.8614 2.06614   3
   3  -3   9 -0.9815 1.45382   1
  -4   3  -9 14.8070 3.89879   3
   4  -3   9 12.2316 2.98103   1
   4  -3   9 11.4914 2.46634   2
  -5   3  -9 9.95790 2.75461   3
   5  -3   9 10.2909 2.11067   1
  -6   3  -9 50.3480 5.49529   3
   6  -3   9 43.3777 4.05752   1
   6  -3   9 44.0463 3.85572   2
  -7   3  -9 20.2089 5.75776   3
   7  -3   9 30.5881 4.26980   2
   7  -3   9 25.5422 4.01846   1
  -8   3  -9 5.04679 3.39770   3
   8  -3   9 -0.1021 2.97452   2
   8  -3   9 0.60808 2.37762   1
  -9   3  -9 3.36138 4.08114   3
   9  -3   9 8.80284 2.95146   1
 -10   3  -9 2.51638 4.56246   3
  10  -3   9 11.5823 4.54866   2
   9   2  -9 13.1157 4.86849   3
  -9  -2   9 10.4926 5.06087   3
   8   2  -9 5.50939 4.03767   3
  -8  -2   9 -1.8441 3.91584   3
   7   2  -9 11.0862 3.39606   2
   7   2  -9 10.5801 3.63756   3
  -7  -2   9 5.89029 3.60230   3
  -7  -2   9 8.45264 3.12742   1
   6   2  -9 -0.6151 2.62122   2
   6   2  -9 2.53457 3.03531   3
  -6  -2   9 4.74286 2.55542   1
  -6  -2   9 -1.7152 2.81509   3
   5   2  -9 159.268 8.73278   3
   5   2  -9 162.409 6.83028   2
  -5  -2   9 154.092 8.82087   3
  -5  -2   9 169.196 7.26228   1
   4   2  -9 1.06897 2.04585   2
   4   2  -9 1.19423 2.25089   3
  -4  -2   9 1.51606 2.14375   1
  -4  -2   9 3.63667 2.38626   3
   3   2  -9 272.727 8.76949   2
   3   2  -9 281.076 10.0720   3
  -3  -2   9 280.827 9.79597   1
   2   2  -9 280.236 10.0896   3
  -2  -2   9 279.682 9.63857   1
   1   2  -9 5.21448 2.14702   3
  -1  -2   9 11.2793 2.85946   1
   0  -2   9 6.59340 1.65161   1
  -1   2  -9 9.94480 2.17885   3
   1  -2   9 7.10321 1.60652   1
  -2   2  -9 36.5996 3.73893   3
   2  -2   9 38.6989 3.27299   1
  -3   2  -9 12.8079 2.34906   3
  -3   2  -9 15.7601 2.63759   2
   3  -2   9 17.7427 2.29585   2
   3  -2   9 18.7192 2.65713   1
  -4   2  -9 158.772 6.76539   3
  -4   2  -9 151.501 5.90564   2
   4  -2   9 152.096 6.11202   1
   4  -2   9 151.077 5.54307   2
  -5   2  -9 13.2921 3.31637   2
  -5   2  -9 10.9839 2.57977   3
   5  -2   9 7.99747 1.84797   2
   5  -2   9 8.09684 2.01663   1
  -6   2  -9 61.3192 5.25695   3
  -6   2  -9 49.2649 4.37745   2
   6  -2   9 53.6406 3.99216   1
   6  -2   9 48.1161 3.85808   2
  -7   2  -9 29.4837 5.00016   3
   7  -2   9 19.1767 3.70361   1
   7  -2   9 29.2178 4.04126   2
  -8   2  -9 12.0072 4.33890   3
   8  -2   9 15.5755 3.93145   1
   8  -2   9 24.2020 4.60233   2
  -9   2  -9 12.2944 3.99059   3
   9  -2   9 10.5472 2.66162   1
 -10   2  -9 13.3065 4.67728   3
  10  -2   9 11.6177 4.20277   2
   9   1  -9 7.29613 4.82927   3
   9   1  -9 3.95099 4.60497   2
  -9  -1   9 3.04478 4.49269   3
   8   1  -9 -1.1021 3.79096   3
   8   1  -9 1.87995 3.73247   2
  -8  -1   9 -3.7303 3.69861   3
   7   1  -9 5.67339 3.30119   3
   7   1  -9 5.58627 3.12534   2
  -7  -1   9 4.39324 3.39816   3
   6   1  -9 71.2342 5.57260   2
   6   1  -9 77.5971 6.09058   3
  -6  -1   9 75.3495 5.36491   1
  -6  -1   9 75.5783 6.11310   3
   5   1  -9 105.182 6.42344   3
   5   1  -9 115.311 5.87743   2
  -5  -1   9 107.092 5.60600   1
  -5  -1   9 106.553 6.42702   3
   4   1  -9 2.91745 2.27987   3
   4   1  -9 8.35442 2.10860   2
  -4  -1   9 2.38838 2.35879   3
  -4  -1   9 5.02919 2.06930   1
   3   1  -9 278.677 9.16595   2
   3   1  -9 287.483 10.2953   3
  -3  -1   9 296.199 10.3072   3
  -3  -1   9 276.457 9.70035   1
   2   1  -9 40.2411 3.87402   3
   2   1  -9 38.9156 2.83925   2
  -2  -1   9 48.5585 5.25162   2
  -2  -1   9 27.5287 3.26872   1
   1   1  -9 146.609 5.05237   2
   1   1  -9 154.267 6.40503   3
  -1  -1   9 140.347 4.99667   2
  -1  -1   9 158.261 6.03125   1
   0   1  -9 373.654 12.3323   3
   0  -1   9 395.804 12.1913   1
   0  -1   9 381.322 11.1291   2
  -1   1  -9 85.3959 3.94802   2
  -1   1  -9 106.410 4.93337   3
   1  -1   9 90.6709 4.35188   1
   1  -1   9 90.6190 3.74370   2
   2  -1   9 2.83118 1.43343   2
  -3   1  -9 265.415 8.59596   2
  -3   1  -9 269.067 9.29138   3
   3  -1   9 269.227 9.01078   1
  -4   1  -9 78.5244 4.31359   2
  -4   1  -9 77.4243 4.75733   3
   4  -1   9 82.5584 3.98842   2
   4  -1   9 84.1529 4.20442   1
  -5   1  -9 3.36767 2.02224   2
  -5   1  -9 6.37362 2.22364   3
   5  -1   9 5.65274 1.77205   1
   5  -1   9 6.16136 1.73995   2
  -6   1  -9 416.328 13.6552   3
  -6   1  -9 395.318 13.1150   2
   6  -1   9 407.346 12.7465   2
   6  -1   9 409.508 13.0163   1
  -7   1  -9 5.50286 2.79893   3
  -7   1  -9 8.88528 2.91052   2
   7  -1   9 7.16142 2.36595   2
   7  -1   9 13.8907 3.38841   1
  -8   1  -9 3.76297 3.03866   2
  -8   1  -9 4.64251 3.03130   3
   8  -1   9 4.78841 2.19849   1
   8  -1   9 1.60466 2.51823   2
   9  -1   9 43.9282 4.75630   1
 -10   1  -9 7.18489 4.44337   3
  10  -1   9 2.52018 3.67248   2
 -11   1  -9 -7.9985 5.19571   3
  11  -1   9 1.98318 4.23225   2
   9   0  -9 7.14301 4.46222   3
   9   0  -9 -0.9742 4.49715   2
  -9   0   9 -0.0756 4.32951   3
   8   0  -9 -0.6652 6.27818   2
   8   0  -9 3.66862 3.63541   3
  -8   0   9 2.37069 3.64208   3
   7   0  -9 5.51811 3.43729   3
   7   0  -9 6.27970 3.31384   2
  -7   0   9 4.89269 3.41191   3
   6   0  -9 6.85833 2.87974   2
   6   0  -9 2.78167 2.78754   3
  -6   0   9 2.71494 2.20497   1
  -6   0   9 3.16045 2.93566   3
   5   0  -9 70.3711 5.49679   3
   5   0  -9 66.2379 5.10277   2
  -5   0   9 67.3073 4.67058   1
  -5   0   9 69.7786 5.48166   3
   4   0  -9 187.221 7.79113   3
   4   0  -9 186.252 7.12763   2
  -4   0   9 181.702 7.14155   1
  -4   0   9 193.778 7.89140   3
   3   0  -9 78.9079 4.78180   3
  -3   0   9 73.5771 4.70828   3
  -3   0   9 72.1794 4.25510   1
   2   0  -9 75.3646 3.92105   2
   2   0  -9 74.9741 4.65837   3
  -2   0   9 86.3808 4.74868   3
  -2   0   9 73.6389 4.05242   1
   1   0  -9 510.995 15.6640   3
   1   0  -9 500.907 14.8489   2
  -1   0   9 517.494 15.4409   1
   0   0  -9 161.412 5.67981   2
   0   0  -9 165.815 6.46468   3
   0   0   9 155.151 5.90983   2
   0   0   9 173.069 6.27529   1
  -1   0  -9 80.1431 4.36574   3
  -1   0  -9 79.6178 3.69719   2
   1   0   9 83.2956 4.01466   1
   1   0   9 77.2579 3.87409   2
  -2   0  -9 601.120 17.6433   2
  -2   0  -9 601.420 18.1193   3
   2   0   9 625.410 18.1329   1
  -3   0  -9 1.55069 1.74048   2
  -3   0  -9 -0.5757 1.62039   3
   3   0   9 0.04762 1.24988   1
  -4   0  -9 -1.0490 1.73989   2
  -4   0  -9 0.12690 1.77346   3
   4   0   9 0.30436 1.34700   1
  -5   0  -9 280.019 9.73777   2
  -5   0  -9 292.651 9.85880   3
   5   0   9 279.003 9.30395   2
   5   0   9 288.535 9.62351   1
  -6   0  -9 29.5215 4.33690   3
  -6   0  -9 22.6155 4.21563   2
   6   0   9 18.9293 3.14963   1
   6   0   9 28.3954 3.41382   2
  -7   0  -9 3.10772 2.55789   3
  -7   0  -9 0.12907 2.61116   2
   7   0   9 0.04869 2.03218   2
   7   0   9 -1.4558 1.75922   1
  -8   0  -9 39.4625 5.45028   3
  -8   0  -9 44.4181 5.56612   2
   8   0   9 43.8356 4.64293   2
   8   0   9 39.0152 4.09401   1
  -9   0  -9 2.27513 3.26442   3
  -9   0  -9 4.18978 6.18164   2
   9   0   9 4.24511 3.29642   2
   9   0   9 0.66818 2.44670   1
 -10   0  -9 -2.1289 4.16617   3
 -10   0  -9 6.73542 4.18337   2
  10   0   9 2.29396 2.76896   1
  10   0   9 0.29254 3.32701   2
  11   0   9 1.98129 4.21801   2
   9  -1  -9 2.12591 4.29424   3
   9  -1  -9 -4.6150 4.34262   2
  -9   1   9 2.35954 4.35200   3
   8  -1  -9 7.80148 3.98764   2
   8  -1  -9 2.92479 3.59551   3
  -8   1   9 3.30762 3.55596   3
   7  -1  -9 -1.6715 3.13434   2
   7  -1  -9 3.75548 3.07678   3
  -7   1   9 4.75381 3.17352   3
   6  -1  -9 73.7894 7.94930   3
   6  -1  -9 83.1679 6.02514   2
  -6   1   9 73.3202 7.07819   3
  -6   1   9 76.6462 4.76004   1
   5  -1  -9 54.3663 4.93171   2
   5  -1  -9 53.4200 4.96524   3
  -5   1   9 49.6474 4.96733   3
  -5   1   9 47.7025 3.99555   1
   4  -1  -9 1.39324 2.12296   2
   4  -1  -9 0.73373 2.05478   3
  -4   1   9 0.13500 2.06436   3
  -4   1   9 1.63022 1.77196   1
   3  -1  -9 3.65809 1.89588   3
   3  -1  -9 3.43412 1.98711   2
  -3   1   9 3.95262 1.91106   3
  -3   1   9 1.39424 1.62859   1
   2  -1  -9 322.526 10.8858   3
  -2   1   9 340.396 10.6644   1
  -2   1   9 334.654 11.0042   3
   1  -1  -9 298.662 9.88993   3
   1  -1  -9 292.262 9.46854   2
  -1   1   9 301.419 9.71679   1
  -1   1   9 303.965 9.95714   3
   0  -1  -9 3.53311 1.66660   3
   0  -1  -9 2.51811 1.55083   2
   0   1   9 5.35585 1.36377   1
  -1  -1  -9 384.734 11.9834   3
  -1  -1  -9 376.383 11.7306   2
   1   1   9 391.505 12.0138   1
  -2  -1  -9 11.2153 2.69958   3
  -2  -1  -9 6.00625 1.76169   2
   2   1   9 6.64527 1.51816   1
  -3  -1  -9 13.9478 2.86259   3
   3   1   9 12.7596 2.45144   1
  -4  -1  -9 308.546 9.99376   3
  -4  -1  -9 293.296 10.0747   2
   4   1   9 310.608 10.0018   1
  -5  -1  -9 15.7509 3.14386   3
  -5  -1  -9 14.7063 3.52464   2
   5   1   9 11.3982 2.71854   1
  -6  -1  -9 21.7744 3.88949   3
  -6  -1  -9 28.8388 4.29613   2
   6   1   9 19.8322 3.14594   1
  -7  -1  -9 95.9531 6.07321   2
  -7  -1  -9 100.784 5.64838   3
   7   1   9 98.4066 5.28093   2
   7   1   9 93.9707 5.11875   1
  -8  -1  -9 2.28931 2.74720   3
  -8  -1  -9 6.13049 2.99722   2
   8   1   9 0.32281 1.98978   1
   8   1   9 1.18689 2.31176   2
  -9  -1  -9 12.0639 3.42988   3
  -9  -1  -9 11.8542 3.58621   2
   9   1   9 10.4337 2.96524   2
   9   1   9 6.71824 2.56410   1
 -10  -1  -9 2.60640 4.12664   2
  10   1   9 5.80192 3.42312   2
  10   1   9 9.26321 3.64199   1
 -11  -1  -9 1.03282 4.89483   2
  11   1   9 1.68344 3.89352   2
   9  -2  -9 -5.8177 4.63819   3
   9  -2  -9 -0.5608 4.45966   2
  -9   2   9 -1.4880 4.38232   3
   8  -2  -9 -2.8165 3.95316   2
   8  -2  -9 -4.8720 3.90254   3
  -8   2   9 -3.7052 3.55516   3
   7  -2  -9 14.7126 3.75888   2
   7  -2  -9 3.37923 3.52957   3
  -7   2   9 8.79802 3.51502   3
   6  -2  -9 1.45159 2.84229   2
   5  -2  -9 0.77060 2.57070   2
   5  -2  -9 1.30550 2.25251   3
  -5   2   9 0.49559 2.36382   3
  -5   2   9 1.69147 1.84527   1
   4  -2  -9 87.5953 5.13251   3
   4  -2  -9 81.6710 5.38754   2
  -4   2   9 89.7735 5.07224   3
  -4   2   9 84.3589 4.39583   1
   3  -2  -9 5.08608 2.14040   2
   3  -2  -9 4.43286 1.93989   3
  -3   2   9 3.26713 1.92914   3
  -3   2   9 2.89500 1.55738   1
   2  -2  -9 54.0867 3.71178   3
   2  -2  -9 49.5319 3.80292   2
  -2   2   9 47.0610 3.33194   1
  -2   2   9 50.7498 3.75930   3
   1  -2  -9 220.323 7.82175   2
   1  -2  -9 224.597 7.83810   3
  -1   2   9 223.130 7.70117   1
  -1   2   9 229.867 7.93216   3
   0  -2  -9 453.598 13.7089   3
   0   2   9 446.431 13.7148   1
  -1  -2  -9 43.8075 3.19282   3
   1   2   9 37.2705 2.88505   1
  -2  -2  -9 291.609 9.52502   2
   2   2   9 285.913 9.37439   1
  -3  -2  -9 207.856 7.12295   3
  -3  -2  -9 197.577 7.44068   2
   3   2   9 197.900 7.12093   1
  -5  -2  -9 109.927 5.05408   3
  -5  -2  -9 114.372 5.70790   2
   5   2   9 112.663 5.00609   1
  -6  -2  -9 88.4346 4.67479   3
  -6  -2  -9 90.0538 5.61536   2
   6   2   9 90.9567 4.66724   1
  -7  -2  -9 -0.5561 2.17711   3
  -7  -2  -9 2.12122 2.70241   2
   7   2   9 3.26804 1.93821   1
  -8  -2  -9 1.62760 3.17563   2
  -8  -2  -9 0.02173 2.47204   3
   8   2   9 2.24820 2.45806   2
   8   2   9 -1.7109 2.03315   1
  -9  -2  -9 139.044 8.13579   2
   9   2   9 126.306 6.44519   1
   9   2   9 125.290 6.83375   2
 -10  -2  -9 0.81828 4.07724   2
  10   2   9 4.16161 3.19244   2
  10   2   9 1.66312 2.72429   1
 -11  -2  -9 -10.336 4.37906   2
  11   2   9 -2.6133 3.71642   2
   9  -3  -9 1.04860 4.74854   2
  -9   3   9 2.45753 4.62812   3
   8  -3  -9 0.96075 3.90382   2
  -8   3   9 4.00549 4.04908   3
   7  -3  -9 0.45028 3.58429   2
  -7   3   9 2.20255 3.46004   3
   6  -3  -9 2.79437 3.24569   2
   5  -3  -9 11.2293 2.95771   2
  -5   3   9 8.28553 2.78442   3
  -5   3   9 7.63995 1.98450   1
   4  -3  -9 -1.5319 1.98091   3
   4  -3  -9 0.46029 2.39759   2
  -4   3   9 -0.8375 2.10304   3
  -4   3   9 3.51911 1.65539   1
   3  -3  -9 2.53210 2.04595   2
   3  -3  -9 4.27176 1.88929   3
  -3   3   9 2.32921 1.51961   1
  -3   3   9 4.26074 2.00343   3
   2  -3  -9 490.719 15.1082   2
   2  -3  -9 467.167 14.7848   3
  -2   3   9 475.589 14.8663   3
  -2   3   9 508.237 14.7024   1
   1  -3  -9 12.2179 2.79338   3
   1  -3  -9 21.8706 3.28010   2
  -1   3   9 12.7523 2.40644   1
  -1   3   9 11.1343 1.93946   3
   0  -3  -9 10.2660 1.75696   3
   0  -3  -9 10.8053 2.97265   2
   0   3   9 9.73238 2.53009   3
   0   3   9 11.2903 2.19195   1
  -1  -3  -9 485.658 14.6725   3
  -1  -3  -9 499.193 15.1943   2
   1   3   9 504.218 14.9871   1
  -2  -3  -9 27.2208 3.37172   2
  -2  -3  -9 23.9462 2.89636   3
   2   3   9 25.0211 2.55118   1
  -3  -3  -9 17.0593 3.35963   2
  -3  -3  -9 20.7053 2.76186   3
   3   3   9 20.5528 2.45220   1
  -4  -3  -9 27.3137 2.94445   3
  -4  -3  -9 31.0092 3.77759   2
   4   3   9 24.3132 2.63677   1
  -5  -3  -9 130.752 6.37065   2
  -5  -3  -9 121.397 5.27889   3
   5   3   9 137.824 5.43670   1
  -6  -3  -9 54.1203 5.12173   2
  -6  -3  -9 56.5311 3.98616   3
   6   3   9 59.4155 3.82582   1
  -7  -3  -9 96.1132 6.38412   2
  -7  -3  -9 98.2527 5.03787   3
   7   3   9 103.871 5.02459   1
  -8  -3  -9 50.6170 6.05122   2
   8   3   9 57.2224 4.47495   1
  -9  -3  -9 32.5353 6.52236   2
   9   3   9 36.4230 5.25679   2
 -10  -3  -9 5.17778 4.03732   2
  10   3   9 0.63631 3.01690   2
  10   3   9 -5.6671 2.65121   1
 -11  -3  -9 -3.0815 4.43457   2
  11   3   9 -3.6186 3.17742   1
  11   3   9 -2.5038 3.63476   2
   9  -4  -9 3.41979 4.93949   2
  -9   4   9 1.16909 4.74657   3
   8  -4  -9 9.97257 4.36660   2
  -8   4   9 6.72407 4.14570   3
   7  -4  -9 10.3040 4.06123   2
  -7   4   9 11.5986 3.59039   3
   6  -4  -9 27.0695 6.12579   2
  -6   4   9 24.3891 5.78438   3
   5  -4  -9 3.03552 3.02569   2
  -5   4   9 -0.6888 1.74568   1
  -5   4   9 3.21280 2.55912   3
   4  -4  -9 18.9225 4.81064   2
  -4   4   9 17.7503 4.03746   3
  -4   4   9 15.8063 2.92786   1
   3  -4  -9 112.878 6.01093   2
   3  -4  -9 103.957 5.46338   3
  -3   4   9 111.465 5.58844   3
  -3   4   9 117.664 4.94565   1
   2  -4  -9 110.069 5.02977   3
   2  -4  -9 116.801 5.78920   2
  -2   4   9 108.585 5.10295   3
  -2   4   9 112.832 4.85129   1
   1  -4  -9 30.2843 3.05594   3
   1  -4  -9 44.3651 3.97290   2
  -1   4   9 30.2496 3.12522   3
  -1   4   9 33.6557 2.86130   1
   0  -4  -9 60.4149 4.34060   2
   0   4   9 58.1932 3.32994   1
  -1  -4  -9 22.0366 2.82556   3
  -1  -4  -9 13.4633 3.23219   2
   1   4   9 25.9878 2.47891   1
  -2  -4  -9 34.2131 3.85862   2
  -2  -4  -9 27.1469 2.88432   3
   2   4   9 28.6051 2.57512   1
  -3  -4  -9 196.857 6.96303   3
  -3  -4  -9 214.152 8.18082   2
  -3  -4  -9 218.451 6.94081   3
   3   4   9 223.134 7.46964   1
  -4  -4  -9 33.8948 2.74559   3
  -4  -4  -9 38.2309 4.33835   2
   4   4   9 37.2354 2.92944   1
   4   4   9 34.3848 3.01778   3
  -5  -4  -9 5.29864 1.60427   3
  -5  -4  -9 8.74703 2.65454   2
   5   4   9 5.99208 1.50239   1
  -6  -4  -9 315.638 10.1302   3
  -6  -4  -9 310.145 11.5126   2
   6   4   9 305.898 10.3653   1
  -7  -4  -9 6.97601 3.12733   2
   7   4   9 10.0215 2.03807   1
  -8  -4  -9 17.8836 4.09176   2
   8   4   9 16.3489 3.70816   1
  -9  -4  -9 51.5815 6.92416   2
   9   4   9 62.1305 5.84714   2
   9   4   9 55.4830 4.80229   1
 -10  -4  -9 5.00724 4.20780   2
  10   4   9 7.39970 3.45253   2
  10   4   9 21.4111 4.98734   1
 -11  -4  -9 8.26410 5.19098   2
  11   4   9 -1.4906 3.13936   1
  11   4   9 1.79334 3.71963   2
   9  -5  -9 3.84509 5.50779   2
  -9   5   9 5.93710 4.91013   3
   8  -5  -9 15.8240 5.11319   2
  -8   5   9 4.99275 4.19230   3
   7  -5  -9 3.83144 4.09033   2
  -7   5   9 7.97905 3.69278   3
   6  -5  -9 13.9328 4.07383   2
  -6   5   9 8.08120 3.45421   3
   5  -5  -9 9.12027 3.56933   2
  -5   5   9 9.22944 2.95774   3
   4  -5  -9 14.3643 3.22653   2
  -4   5   9 13.9554 3.07540   1
  -4   5   9 12.5935 2.78678   3
   3  -5  -9 0.72077 2.43894   2
  -3   5   9 -0.0980 1.54912   1
  -3   5   9 0.22086 2.07190   3
   2  -5  -9 16.9246 2.89057   2
   2  -5  -9 14.9495 3.27885   3
  -2   5   9 15.1905 2.68467   1
  -2   5   9 13.8521 3.19363   3
   1  -5  -9 302.597 9.86727   3
   1  -5  -9 335.038 11.0893   2
  -1   5   9 312.800 9.93660   1
  -1   5   9 292.819 9.91037   3
   0  -5  -9 0.16765 2.16786   2
   0  -5  -9 -0.3476 1.54275   3
   0   5   9 2.07229 1.62253   3
   0   5   9 1.86974 1.25788   1
  -1  -5  -9 129.258 6.12796   2
  -1  -5  -9 120.277 4.80454   3
   1   5   9 125.762 5.11475   1
  -2  -5  -9 311.109 10.7860   2
  -2  -5  -9 303.058 9.28403   3
  -2  -5  -9 282.778 9.18688   3
   2   5   9 317.733 9.86470   1
  -3  -5  -9 176.573 7.57713   2
   3   5   9 173.784 6.44853   1
  -4  -5  -9 23.0139 4.40714   2
   4   5   9 23.1962 2.69372   1
  -5  -5  -9 249.703 9.75123   2
   5   5   9 242.414 8.57012   1
  -6  -5  -9 11.7763 3.19950   2
   6   5   9 7.62009 1.93945   1
  -7  -5  -9 36.3135 5.57121   2
   7   5   9 35.1139 3.71909   1
  -8  -5  -9 177.065 8.90819   2
   8   5   9 165.926 7.26699   1
  -9  -5  -9 1.90108 3.70316   2
   9   5   9 5.26104 2.31035   1
 -10  -5  -9 5.77575 4.42635   2
  10   5   9 -0.3666 2.79207   1
  10   5   9 -0.3765 3.44102   2
 -11  -5  -9 -1.6509 4.86392   2
  11   5   9 5.82636 3.34347   1
  11   5   9 2.04533 4.02905   2
   8  -6  -9 0.12480 4.91871   2
  -8   6   9 -4.1316 4.25563   3
   7  -6  -9 0.09657 4.30526   2
  -7   6   9 3.06603 3.84259   3
   6  -6  -9 1.46223 3.58950   2
  -6   6   9 3.91873 3.30369   3
   5  -6  -9 16.1478 4.20665   2
  -5   6   9 20.3107 5.08896   3
   4  -6  -9 -1.2978 2.91728   2
  -4   6   9 1.20252 2.40887   3
  -4   6   9 0.98088 1.72732   1
   3  -6  -9 133.091 7.05316   2
  -3   6   9 120.641 6.14955   3
  -3   6   9 123.401 5.24534   1
   2  -6  -9 5.00348 2.67358   2
  -2   6   9 3.68599 1.50829   1
  -2   6   9 3.52845 1.93783   3
   1  -6  -9 53.0802 3.62182   3
   1  -6  -9 57.0722 5.31504   2
  -1   6   9 51.7135 3.37384   1
  -1   6   9 52.3929 3.72674   3
   0  -6  -9 13.4867 2.81111   3
   0  -6  -9 12.6826 2.96767   2
   0   6   9 18.4792 2.92680   3
   0   6   9 14.7896 2.59314   1
  -1  -6  -9 631.995 18.6327   3
  -1  -6  -9 666.427 20.2686   2
   1   6   9 664.320 19.2842   1
  -2  -6  -9 0.90046 2.28172   2
  -2  -6  -9 0.70786 2.30345   3
   2   6   9 5.65748 1.51352   1
  -3  -6  -9 166.335 7.85266   2
   3   6   9 160.656 6.26440   1
  -4  -6  -9 81.5541 5.79826   2
   4   6   9 90.2189 4.41739   1
  -5  -6  -9 6.35662 2.94976   2
   5   6   9 12.9248 2.83034   1
  -6  -6  -9 168.514 8.69917   2
   6   6   9 166.704 6.89981   1
  -7  -6  -9 1.75650 3.54545   2
   7   6   9 6.54822 2.09216   1
  -8  -6  -9 2.33754 3.62333   2
   8   6   9 10.1338 2.35032   1
  -9  -6  -9 -2.0487 3.68774   2
   9   6   9 0.05846 2.49159   1
 -10  -6  -9 40.2198 8.51260   2
  10   6   9 39.6729 7.16072   2
  10   6   9 31.5750 5.40612   1
   8  -7  -9 -1.0212 5.02016   2
  -8   7   9 -5.5720 4.51486   3
   7  -7  -9 -0.8285 4.62027   2
  -7   7   9 -0.1109 4.02517   3
   6  -7  -9 1.66142 3.92968   2
  -6   7   9 -2.4347 3.38320   3
   5  -7  -9 24.8490 4.33678   2
  -5   7   9 21.3146 5.10346   3
   4  -7  -9 10.3918 3.75245   2
  -4   7   9 5.86038 2.68030   3
   3  -7  -9 40.9045 6.19465   2
  -3   7   9 35.9968 3.34370   1
  -3   7   9 31.8753 4.35480   3
   2  -7  -9 16.6868 3.50347   2
  -2   7   9 11.1982 2.77413   1
  -2   7   9 16.9569 3.78797   3
   1  -7  -9 137.035 7.35386   2
  -1   7   9 118.498 5.41884   3
  -1   7   9 119.286 5.20765   1
   0  -7  -9 13.4362 2.93572   3
   0  -7  -9 10.8134 3.05118   2
   0   7   9 11.8772 2.97356   3
   0   7   9 15.6797 2.83406   1
  -1  -7  -9 55.7896 3.35994   3
  -1  -7  -9 63.2160 5.49037   2
   1   7   9 50.6502 3.41198   3
   1   7   9 58.7717 3.70924   1
  -2  -7  -9 66.6378 5.54117   2
   2   7   9 65.9040 4.02512   1
  -3  -7  -9 32.8465 5.21650   2
   3   7   9 24.2255 3.01898   1
  -4  -7  -9 33.1696 5.17484   2
   4   7   9 36.9591 3.42141   1
  -5  -7  -9 66.4471 6.58216   2
   5   7   9 54.2965 4.00954   1
  -6  -7  -9 4.17714 3.52415   2
   6   7   9 5.01591 2.01293   1
  -7  -7  -9 7.55668 3.94737   2
   7   7   9 6.42034 2.27700   1
  -8  -7  -9 45.7143 7.54570   2
   8   7   9 62.7137 5.05434   1
  -9  -7  -9 25.4698 7.03922   2
   9   7   9 23.8700 4.99251   1
 -10  -7  -9 16.6159 5.24857   2
  10   7   9 21.6507 5.47558   1
   7  -8  -9 4.99379 5.01864   2
  -7   8   9 -1.7726 4.31047   3
   6  -8  -9 15.8016 4.86954   2
  -6   8   9 14.3047 4.20067   3
   5  -8  -9 1.08702 4.02330   2
  -5   8   9 -4.2912 3.66666   3
   4  -8  -9 7.67444 3.74014   2
  -4   8   9 -2.8961 2.81988   3
   3  -8  -9 6.54541 3.61169   2
  -3   8   9 -0.8541 1.73634   1
  -3   8   9 -0.4856 2.44194   3
   2  -8  -9 49.4451 6.73604   2
  -2   8   9 37.3432 3.49264   1
  -2   8   9 36.6787 4.31753   3
   1  -8  -9 -0.4391 3.12021   2
  -1   8   9 3.96980 1.99855   3
  -1   8   9 0.13578 1.60732   1
   0  -8  -9 0.49959 1.84486   3
   0  -8  -9 0.43798 3.00103   2
   0   8   9 1.21552 1.98623   3
   0   8   9 2.18158 1.64986   1
  -1  -8  -9 220.248 9.74756   2
   1   8   9 210.351 7.88698   1
  -2  -8  -9 70.0299 6.28812   2
   2   8   9 72.0590 4.32468   1
  -3  -8  -9 9.65736 3.42669   2
   3   8   9 5.01449 1.86771   1
  -4  -8  -9 28.8405 6.05898   2
   4   8   9 30.9211 4.23179   1
  -5  -8  -9 43.0007 6.16565   2
   5   8   9 37.7247 3.93493   1
  -6  -8  -9 76.9313 7.58500   2
   6   8   9 76.5057 5.21719   1
  -7  -8  -9 55.4575 7.55561   2
   7   8   9 33.8500 4.50140   1
  -8  -8  -9 5.46534 4.40027   2
   8   8   9 7.65615 2.82163   1
  -9  -8  -9 2.32170 4.44310   2
   9   8   9 -1.3974 2.72582   1
   7  -9  -9 -2.9543 5.29337   2
  -7   9   9 2.39450 4.81749   3
   6  -9  -9 -0.0976 4.67339   2
  -6   9   9 -2.2968 4.14760   3
   5  -9  -9 7.03604 4.58268   2
  -5   9   9 5.50610 3.71746   3
   4  -9  -9 -0.5359 4.33209   2
  -4   9   9 3.18410 3.26299   3
   3  -9  -9 10.4968 4.29273   2
  -3   9   9 1.91645 2.88902   3
  -3   9   9 4.07193 2.10584   1
   2  -9  -9 3.43919 4.11567   2
  -2   9   9 -0.8372 2.46613   3
  -2   9   9 -0.0851 1.94773   1
   1  -9  -9 38.0358 7.09731   2
  -1   9   9 40.7160 4.39727   3
  -1   9   9 38.8838 3.86884   1
   0  -9  -9 113.449 8.26675   2
   0   9   9 122.213 5.68681   1
  -1  -9  -9 -3.0426 4.36712   2
   1   9   9 4.63835 1.90219   1
  -2  -9  -9 29.9793 7.04750   2
   2   9   9 22.9459 3.45247   1
  -3  -9  -9 100.563 7.75913   2
   3   9   9 85.4273 5.55367   1
  -4  -9  -9 239.839 11.5537   2
   4   9   9 250.039 9.17119   1
  -5  -9  -9 0.55279 3.85207   2
   5   9   9 1.64591 2.07032   1
  -6  -9  -9 9.76286 4.55681   2
   6   9   9 18.3861 3.86212   1
  -7  -9  -9 9.93233 4.65316   2
   7   9   9 -0.1702 2.33113   1
  -8  -9  -9 4.90495 5.04190   2
   8   9   9 7.50348 2.97355   1
  -9  -9  -9 23.2667 5.76692   2
   9   9   9 38.4249 5.83226   1
  -6  10   9 1.38939 4.84171   3
   5 -10  -9 -3.4922 5.11565   2
  -5  10   9 3.43705 4.33877   3
   4 -10  -9 -0.0856 4.96385   2
  -4  10   9 0.33135 4.00502   3
   3 -10  -9 8.36963 4.67085   2
  -3  10   9 2.77227 3.17713   3
   2 -10  -9 74.2369 9.25058   2
  -2  10   9 58.8034 4.80088   1
   1 -10  -9 13.4839 5.09381   2
  -1  10   9 18.6035 4.18417   1
   0 -10  -9 9.62096 4.33625   2
   0  10   9 12.1824 2.46628   1
  -1 -10  -9 0.45134 3.88724   2
   1  10   9 2.48445 3.22127   1
  -2 -10  -9 159.765 9.65992   2
   2  10   9 160.905 6.96447   1
  -3 -10  -9 5.38676 4.37115   2
   3  10   9 0.56159 2.00835   1
  -4 -10  -9 1.11495 4.25867   2
   4  10   9 -1.4525 2.08704   1
  -5 -10  -9 27.8717 5.21930   2
   5  10   9 21.4476 4.25694   1
  -6 -10  -9 26.4014 5.43493   2
   6  10   9 29.4126 4.66054   1
  -7 -10  -9 22.3001 5.88810   2
   7  10   9 25.3054 4.97032   1
  -8 -10  -9 -6.9650 5.39917   2
   8  10   9 0.86637 3.06724   1
   5 -11  -9 10.5529 6.50079   2
   4 -11  -9 14.2184 6.18031   2
   3 -11  -9 11.8736 6.23795   2
   2 -11  -9 2.01225 5.36460   2
  -2  11   9 -1.8782 2.45569   1
   1 -11  -9 4.44899 4.86310   2
  -1  11   9 3.85247 2.99657   1
   0 -11  -9 92.0940 9.71733   2
   0  11   9 100.367 5.84390   1
  -1 -11  -9 -0.7192 4.69396   2
   1  11   9 4.57659 2.45610   1
  -2 -11  -9 -1.6747 4.77787   2
   2  11   9 0.24056 2.35210   1
  -3 -11  -9 6.27587 5.16568   2
   3  11   9 5.88370 2.56583   1
  -4 -11  -9 190.483 12.0902   2
   4  11   9 213.241 8.82635   1
  -5 -11  -9 6.64558 5.15117   2
   5  11   9 8.81587 2.99726   1
  -6 -11  -9 21.5061 5.77250   2
   6  11   9 16.0038 3.29882   1
  -7 -11  -9 6.98897 5.95183   2
   7  11   9 -2.3197 2.85772   1
   3 -12  -9 2.39681 6.50511   2
   2 -12  -9 48.0165 11.1272   2
   1 -12  -9 7.34898 5.58723   2
  -1  12   9 4.32442 2.93160   1
   0 -12  -9 9.77082 5.46125   2
   0  12   9 8.08609 3.01431   1
  -1 -12  -9 -2.4107 5.31896   2
   1  12   9 -0.8489 2.60883   1
  -2 -12  -9 174.162 12.7434   2
   2  12   9 157.181 8.02294   1
  -3 -12  -9 10.9783 5.86529   2
   3  12   9 9.56198 3.09588   1
  -4 -12  -9 -11.606 5.46981   2
   4  12   9 -2.2096 2.79273   1
  -5 -12  -9 12.6675 5.99705   2
   5  12   9 10.3460 3.26563   1
   0 -13  -9 11.5480 6.55803   2
   0  13   9 30.7090 5.98200   1
  -1 -13  -9 12.2741 6.80578   2
   1  13   9 10.5554 3.57432   1
  -2 -13  -9 9.31392 6.67086   2
   2  13   9 4.72536 3.33236   1
  -3 -13  -9 3.23373 6.75344   2
   3  13   9 -1.6226 3.19471   1
   2   9 -10 -1.4996 4.69342   3
  -2  -9  10 -3.0425 3.77984   1
   1   9 -10 -2.2012 4.67231   3
  -1  -9  10 -0.6319 3.90744   1
   0   9 -10 15.5951 4.92274   3
   0  -9  10 17.6902 4.23713   1
  -1   9 -10 -0.5776 4.31640   3
   1  -9  10 5.62751 3.82864   1
  -2   9 -10 3.51233 4.42191   3
   2  -9  10 4.33117 3.78261   1
  -3   9 -10 -4.7368 4.61932   3
   3  -9  10 10.9697 3.91608   1
   4   8 -10 -3.2712 4.82979   3
  -4  -8  10 9.42907 4.35018   1
   3   8 -10 -2.1918 4.40991   3
  -3  -8  10 -1.8115 3.95274   1
   2   8 -10 15.0460 4.67301   3
  -2  -8  10 15.8420 4.02544   1
   1   8 -10 14.5646 4.37265   3
  -1  -8  10 24.2924 6.16308   1
   0   8 -10 3.10628 4.20239   3
   0  -8  10 7.31656 3.44092   1
  -1   8 -10 3.09621 3.77620   3
   1  -8  10 -0.3192 3.28392   1
  -2   8 -10 -4.0836 3.49520   3
   2  -8  10 2.02342 3.18584   1
  -3   8 -10 9.55170 4.16559   3
   3  -8  10 6.12751 3.33271   1
  -4   8 -10 -0.1118 4.15448   3
   4  -8  10 1.24240 3.39136   1
  -5   8 -10 14.3646 5.06134   3
   5  -8  10 9.96594 3.78195   1
   5   7 -10 10.1322 4.98745   3
  -5  -7  10 2.85064 4.40588   1
   4   7 -10 16.2521 4.93031   3
  -4  -7  10 13.6530 4.31514   1
   3   7 -10 7.17774 4.23028   3
  -3  -7  10 9.68584 3.55176   1
   2   7 -10 21.3836 4.44038   3
  -2  -7  10 34.0866 5.79006   1
   1   7 -10 15.8408 4.08063   3
  -1  -7  10 16.0159 3.61119   1
   0   7 -10 90.2225 7.19870   3
   0  -7  10 78.1141 6.48905   1
  -1   7 -10 0.76003 3.40907   3
   1  -7  10 -1.0669 2.87837   1
  -2   7 -10 7.24566 3.49725   3
   2  -7  10 10.7212 3.09154   1
  -3   7 -10 12.5631 3.71841   3
   3  -7  10 3.07053 2.91063   1
  -4   7 -10 -0.3933 3.83993   3
   4  -7  10 1.31842 3.11377   1
  -5   7 -10 87.6338 8.51712   3
   5  -7  10 79.3706 6.67415   1
  -6   7 -10 6.95076 4.75219   3
   6  -7  10 -4.3669 3.42162   1
  -7   7 -10 1.79133 5.48133   3
   7  -7  10 3.31348 3.78060   1
   6   6 -10 9.80372 5.06404   3
  -6  -6  10 2.88455 4.56575   1
   5   6 -10 5.16317 4.40369   3
  -5  -6  10 1.95281 3.86018   1
   4   6 -10 2.41194 3.94924   3
  -4  -6  10 5.20840 3.47923   1
   3   6 -10 2.39901 3.94584   3
  -3  -6  10 4.81697 3.18972   1
   2   6 -10 113.817 7.65416   3
  -2  -6  10 113.683 7.24149   1
   1   6 -10 20.0811 3.85238   3
  -1  -6  10 32.4094 5.02174   1
   0   6 -10 60.7297 6.36062   3
   0  -6  10 70.5864 5.62613   1
  -1   6 -10 23.9202 5.84538   3
   1  -6  10 24.9263 4.64335   1
  -2   6 -10 -0.0254 2.88662   3
   2  -6  10 1.90605 2.49076   1
  -3   6 -10 17.9846 3.70533   3
   3  -6  10 22.3488 4.67239   1
  -4   6 -10 -3.2307 3.33604   3
   4  -6  10 -4.2902 2.48259   1
  -5   6 -10 6.12793 3.80958   3
   5  -6  10 4.04228 2.94965   1
  -6   6 -10 2.84820 4.12178   3
   6  -6  10 2.24209 2.97280   1
  -7   6 -10 21.6693 5.34801   3
   7  -6  10 19.7256 3.80780   1
  -8   6 -10 8.35296 5.15997   3
   7   5 -10 9.10896 4.89097   3
  -7  -5  10 -7.0897 4.38064   1
   6   5 -10 0.92970 4.31900   3
  -6  -5  10 5.40413 3.84467   1
   5   5 -10 11.4634 3.97637   3
  -5  -5  10 15.0984 3.77896   1
   4   5 -10 -3.4556 3.48367   3
  -4  -5  10 -1.3057 2.90315   1
   3   5 -10 58.5351 6.19914   3
  -3  -5  10 61.1880 6.01328   1
   2   5 -10 151.661 8.46486   3
  -2  -5  10 152.811 7.58673   1
   1   5 -10 -1.8646 2.86701   3
  -1  -5  10 2.01441 2.35715   1
   0   5 -10 47.0506 5.74650   3
   0  -5  10 58.0194 5.06387   1
  -1   5 -10 35.0129 6.60022   3
   1  -5  10 37.4777 5.24676   1
  -2   5 -10 16.7140 3.50211   3
   2  -5  10 10.8964 3.07680   1
  -3   5 -10 0.99884 2.89519   3
   3  -5  10 3.36293 2.28141   1
   4  -5  10 6.57578 2.56293   1
  -5   5 -10 7.02821 3.51644   3
   5  -5  10 18.9481 4.61535   1
  -6   5 -10 35.7657 6.77938   3
   6  -5  10 37.0380 5.02945   1
  -7   5 -10 2.57025 4.27948   3
   7  -5  10 7.17300 3.04926   1
  -8   5 -10 4.78980 4.61931   3
   8  -5  10 4.47263 3.32705   1
   7   4 -10 10.5370 4.65603   3
  -7  -4  10 0.62071 4.23833   1
   6   4 -10 6.71388 4.13974   3
  -6  -4  10 3.04733 3.73939   1
   5   4 -10 50.4914 6.78002   3
  -5  -4  10 52.5952 5.99872   1
   4   4 -10 9.47983 3.41057   3
  -4  -4  10 5.92373 3.73627   1
   3   4 -10 23.5756 3.95410   3
  -3  -4  10 29.1122 4.88329   1
  -2  -4  10 59.6972 5.10374   1
   1   4 -10 214.644 9.15473   3
  -1  -4  10 219.539 8.67342   1
   0   4 -10 39.7143 5.07936   3
   0  -4  10 49.9355 4.37803   1
  -1   4 -10 2.22692 2.52744   3
   1  -4  10 3.80971 2.03798   1
  -2   4 -10 97.7151 6.53020   3
   2  -4  10 105.763 5.52783   1
  -3   4 -10 91.0364 6.18336   3
   3  -4  10 96.4004 5.44379   1
  -4   4 -10 4.72951 2.80858   3
   4  -4  10 1.48931 2.19142   1
  -5   4 -10 59.8458 5.89091   3
   5  -4  10 50.8359 4.88787   1
  -6   4 -10 -0.6682 3.29128   3
  -7   4 -10 30.8212 7.21400   3
   7  -4  10 29.7943 5.04376   1
  -8   4 -10 33.2468 7.40892   3
   8  -4  10 21.9562 5.48071   1
  -9   4 -10 4.38215 4.94997   3
   8   3 -10 2.87109 4.92439   3
  -8  -3  10 13.0322 4.86611   3
   7   3 -10 -5.1471 3.96275   3
  -7  -3  10 1.46496 3.91392   3
  -7  -3  10 6.46748 4.38078   1
   6   3 -10 1.43912 3.67341   3
  -6  -3  10 2.02153 3.31390   1
  -6  -3  10 -1.6726 3.65067   3
   5   3 -10 4.61515 3.25931   3
  -5  -3  10 -0.2953 3.04140   1
   4   3 -10 1.74032 2.89131   3
  -4  -3  10 0.90967 2.42842   1
   3   3 -10 206.162 9.03982   3
  -3  -3  10 182.522 8.17687   1
   2   3 -10 1.08335 2.68604   3
  -2  -3  10 4.83956 2.24608   1
   1   3 -10 112.848 6.40784   3
  -1  -3  10 112.402 5.78740   1
   0   3 -10 12.9831 2.68844   3
   0  -3  10 16.4471 3.34418   1
  -1   3 -10 221.294 8.77956   3
   1  -3  10 209.786 8.17819   1
  -2   3 -10 118.953 6.38782   3
   2  -3  10 120.386 5.74757   1
  -3   3 -10 1.56045 2.47530   3
   3  -3  10 6.15329 2.00563   1
  -4   3 -10 41.4467 4.96048   3
   4  -3  10 46.0935 3.97565   1
  -5   3 -10 1.67680 2.72495   3
   5  -3  10 1.58151 1.98448   1
  -6   3 -10 24.4105 6.05350   3
   6  -3  10 27.1185 4.27406   1
  -7   3 -10 -3.5812 3.26917   3
   7  -3  10 -0.7464 2.65678   1
  -8   3 -10 11.6816 4.12417   3
   8  -3  10 7.72079 2.87650   1
  -9   3 -10 -2.4810 4.53167   3
   9  -3  10 5.31747 3.11627   1
 -10   3 -10 -4.8078 4.97966   3
   8   2 -10 44.1237 8.42938   3
  -8  -2  10 31.5972 7.88796   3
   7   2 -10 9.66734 4.06424   3
  -7  -2  10 1.24361 3.87361   3
   6   2 -10 1.64689 3.58921   3
  -6  -2  10 4.15031 3.04452   1
  -6  -2  10 5.28125 3.45619   3
   5   2 -10 0.79123 3.09102   3
  -5  -2  10 1.86355 2.90626   3
  -5  -2  10 2.99179 2.74261   1
  -4  -2  10 32.1816 4.66407   1
   3   2 -10 65.1583 5.22564   3
  -3  -2  10 54.5026 4.94197   1
   2   2 -10 56.0681 4.81480   3
  -2  -2  10 58.6618 4.45885   1
   1   2 -10 167.450 7.58130   3
  -1  -2  10 183.463 7.25004   1
   0   2 -10 25.0045 3.95302   3
   0  -2  10 19.3267 3.29605   1
  -1   2 -10 283.874 10.1743   3
   1  -2  10 285.672 9.81914   1
  -2   2 -10 208.005 8.44109   3
   2  -2  10 222.848 8.10013   1
  -3   2 -10 77.3299 3.97049   2
  -3   2 -10 75.5979 5.21965   3
   3  -2  10 88.8363 4.72836   1
   3  -2  10 86.4361 3.63951   2
  -4   2 -10 16.6027 4.22650   3
  -4   2 -10 20.4591 3.51345   2
   4  -2  10 27.0115 3.37443   1
   4  -2  10 25.6623 3.03047   2
  -5   2 -10 16.9958 3.61281   2
  -5   2 -10 3.57845 2.61521   3
   5  -2  10 5.33972 1.87431   2
   5  -2  10 5.03860 1.84819   1
  -6   2 -10 2.60276 2.41141   2
  -6   2 -10 5.34837 2.94473   3
   6  -2  10 2.80650 2.11452   2
   6  -2  10 0.64708 1.98573   1
  -7   2 -10 0.08619 3.37037   3
   7  -2  10 0.28806 2.11411   1
   7  -2  10 0.26111 2.38080   2
  -8   2 -10 27.3595 6.67414   3
   8  -2  10 20.9315 3.73377   1
   8  -2  10 28.7900 4.94486   2
  -9   2 -10 -6.0754 4.05522   3
   9  -2  10 6.70542 2.95181   1
   9  -2  10 7.67792 4.23252   2
 -10   2 -10 -1.2599 4.70937   3
  10  -2  10 2.97932 4.44913   2
  -9  -1  10 -4.6555 4.95343   3
   8   1 -10 5.00316 4.37941   3
  -8  -1  10 5.49007 4.46214   3
   7   1 -10 3.44355 3.90548   3
   7   1 -10 -0.5782 4.18232   2
  -7  -1  10 -1.4486 3.52052   3
   6   1 -10 25.6601 5.52967   2
   6   1 -10 19.4336 3.86502   3
  -6  -1  10 19.8295 5.11546   1
  -6  -1  10 18.3504 3.74291   3
   5   1 -10 6.02827 2.66879   2
   5   1 -10 -0.6803 2.74484   3
  -5  -1  10 -1.8702 2.69631   3
  -5  -1  10 -0.3300 2.47839   1
   4   1 -10 5.65747 2.29739   2
   4   1 -10 4.51981 2.88693   3
  -4  -1  10 4.58637 2.69485   3
  -4  -1  10 4.64873 2.42459   1
   3   1 -10 10.1770 2.67316   3
   3   1 -10 8.51729 2.09393   2
  -3  -1  10 9.48422 2.32605   1
   2   1 -10 120.819 5.14698   2
   2   1 -10 138.839 6.55361   3
  -2  -1  10 148.550 6.16537   1
   1   1 -10 31.0632 2.68894   2
   1   1 -10 37.7447 3.98003   3
  -1  -1  10 25.4433 3.16386   1
   0   1 -10 12.2228 2.45078   3
   0  -1  10 8.58350 1.94937   1
  -1   1 -10 623.451 18.8909   3
  -1   1 -10 603.766 17.5772   2
   1  -1  10 633.466 18.6976   1
  -2   1 -10 3.35720 2.08143   3
  -2   1 -10 5.24514 1.71192   2
   2  -1  10 5.32067 1.71079   1
  -3   1 -10 41.4821 3.54278   2
  -3   1 -10 40.2569 4.35321   3
   3  -1  10 38.3818 3.03138   2
   3  -1  10 52.7554 3.74950   1
  -4   1 -10 201.496 7.96667   3
  -4   1 -10 178.688 7.15092   2
   4  -1  10 203.199 7.39028   1
   4  -1  10 179.805 7.00483   2
  -5   1 -10 50.7689 4.90319   3
  -5   1 -10 55.1754 4.40444   2
   5  -1  10 62.6913 4.14801   1
   5  -1  10 59.5577 3.84861   2
  -6   1 -10 3.81859 2.64511   2
  -6   1 -10 6.61896 2.81689   3
   6  -1  10 13.2936 3.38714   1
   6  -1  10 7.79347 2.21554   2
  -7   1 -10 11.1411 3.20843   2
  -7   1 -10 11.8696 3.39173   3
   7  -1  10 9.24289 2.55480   2
   7  -1  10 17.5665 3.72362   1
  -8   1 -10 23.6809 5.86297   2
  -8   1 -10 10.7810 3.63067   3
   8  -1  10 16.7157 4.53724   2
   8  -1  10 25.6645 4.33365   1
  -9   1 -10 0.29941 4.24503   2
  -9   1 -10 1.64436 4.04699   3
   9  -1  10 4.52926 3.20193   2
   9  -1  10 0.54422 2.65118   1
 -10   1 -10 33.3708 8.24039   3
  10  -1  10 14.8213 4.27053   2
  10  -1  10 15.5730 4.45491   1
   9   0 -10 2.59564 5.16078   3
   9   0 -10 6.82311 5.52426   2
  -9   0  10 3.14792 4.93724   3
   8   0 -10 13.8539 4.37909   3
   8   0 -10 6.30256 4.66719   2
  -8   0  10 7.67505 4.29823   3
   7   0 -10 8.80529 3.77579   3
   7   0 -10 3.19816 3.70492   2
  -7   0  10 2.80376 3.60441   3
   6   0 -10 49.0084 5.87647   2
   6   0 -10 57.3338 6.51308   3
  -6   0  10 53.0181 6.39271   3
  -6   0  10 48.3518 5.15703   1
   5   0 -10 18.8122 4.19433   3
   5   0 -10 18.1567 4.63834   2
  -5   0  10 20.3648 4.41970   1
  -5   0  10 16.9864 3.90154   3
   4   0 -10 -1.8859 2.25262   2
   4   0 -10 1.81817 2.62776   3
  -4   0  10 7.87600 2.24691   1
  -4   0  10 -1.2855 2.48654   3
   3   0 -10 27.4211 3.55545   2
   3   0 -10 20.0743 3.94044   3
  -3   0  10 24.6252 3.64836   1
  -3   0  10 26.7503 4.11219   3
   2   0 -10 24.1314 3.21347   2
   2   0 -10 35.3959 4.02379   3
  -2   0  10 28.6839 3.44933   1
   1   0 -10 15.8608 2.78332   2
  -1   0  10 13.8095 2.87013   1
   0   0 -10 188.056 6.62250   2
   0   0 -10 196.839 7.60493   3
   0   0  10 194.491 7.18281   1
  -1   0 -10 435.597 13.5295   3
  -1   0 -10 412.686 12.6634   2
   1   0  10 422.272 13.2817   1
  -2   0 -10 -0.8553 1.72158   2
  -2   0 -10 0.20827 1.85468   3
   2   0  10 -0.4816 1.30869   1
  -3   0 -10 135.979 6.22746   3
  -3   0 -10 140.466 5.81762   2
   3   0  10 142.754 5.87120   1
  -4   0 -10 4.64614 2.07200   2
  -4   0 -10 2.88068 2.14584   3
   4   0  10 6.21116 1.77706   1
  -5   0 -10 65.8378 4.67725   2
  -5   0 -10 61.1406 4.87677   3
   5   0  10 62.8251 4.07568   2
   5   0  10 64.6898 4.23612   1
  -6   0 -10 75.8232 5.46455   2
  -6   0 -10 80.9312 5.63473   3
   6   0  10 75.7966 4.62963   2
   6   0  10 80.0892 4.74763   1
  -7   0 -10 4.38830 3.01036   2
  -7   0 -10 4.04561 2.84375   3
   7   0  10 7.36128 2.44016   2
   7   0  10 4.20458 2.17058   1
  -8   0 -10 4.69378 3.27791   3
  -8   0 -10 -4.2020 3.24152   2
   8   0  10 1.90849 2.27138   1
   8   0  10 0.61911 2.63243   2
  -9   0 -10 11.0034 3.99722   3
  -9   0 -10 14.8664 4.21026   2
   9   0  10 14.7691 3.46546   2
   9   0  10 20.8780 4.63769   1
 -10   0 -10 10.3379 4.79282   3
 -10   0 -10 13.2342 4.86882   2
  10   0  10 22.3157 5.82473   1
  10   0  10 -0.9150 3.59976   2
   9  -1 -10 10.0512 4.98292   3
   9  -1 -10 8.03968 5.40671   2
  -9   1  10 1.75339 5.00577   3
   8  -1 -10 -3.5963 4.16979   3
   8  -1 -10 0.58810 4.27229   2
  -8   1  10 -1.6640 4.03887   3
   7  -1 -10 16.9508 4.10249   2
   7  -1 -10 17.7377 4.15774   3
  -7   1  10 15.6204 4.02413   3
   6  -1 -10 61.9868 6.38252   3
   6  -1 -10 66.4899 6.40211   2
  -6   1  10 62.3064 6.47566   3
   5  -1 -10 71.0238 5.75969   2
   5  -1 -10 77.0705 7.29734   3
  -5   1  10 65.1570 4.95555   1
  -5   1  10 74.4190 7.53658   3
   4  -1 -10 22.2686 4.42906   3
   4  -1 -10 19.6927 4.42294   2
  -4   1  10 24.8852 3.64857   1
  -4   1  10 25.4966 4.58493   3
   3  -1 -10 87.3858 5.02570   2
   3  -1 -10 91.9932 5.60936   3
  -3   1  10 102.372 5.67284   3
  -3   1  10 101.746 5.04448   1
   2  -1 -10 15.9383 3.88152   3
   2  -1 -10 23.1740 3.42317   2
  -2   1  10 22.7186 2.93888   1
  -2   1  10 21.1107 4.00140   3
   1  -1 -10 41.8562 3.93399   2
   0  -1 -10 23.1951 3.08790   2
   0  -1 -10 21.1935 3.35003   3
   0   1  10 21.2128 2.70090   1
  -1  -1 -10 50.6038 3.69167   2
  -1  -1 -10 48.1400 4.04786   3
   1   1  10 38.3646 3.20827   1
  -2  -1 -10 320.702 11.4677   2
  -2  -1 -10 332.746 10.9359   3
   2   1  10 360.635 11.0811   1
  -3  -1 -10 157.488 6.31228   3
  -3  -1 -10 148.499 6.18470   2
   3   1  10 141.592 5.99364   1
  -4  -1 -10 2.76365 2.02164   3
  -4  -1 -10 4.25634 2.18325   2
   4   1  10 2.89575 1.74272   1
  -5  -1 -10 301.855 10.1279   3
  -5  -1 -10 295.017 10.4329   2
   5   1  10 291.229 10.1112   1
  -6  -1 -10 -0.7183 2.50919   2
  -6  -1 -10 1.24453 2.30930   3
   6   1  10 -0.2577 1.72146   1
  -7  -1 -10 -1.4649 2.55317   3
  -7  -1 -10 -2.3915 2.74506   2
   7   1  10 -2.2633 2.19049   2
   7   1  10 0.15902 1.98579   1
  -8  -1 -10 89.5991 6.65403   2
  -8  -1 -10 74.3139 6.18077   3
   8   1  10 80.9552 5.29654   1
   8   1  10 84.1140 5.65105   2
  -9  -1 -10 1.45328 3.89295   2
  -9  -1 -10 2.41755 3.43772   3
   9   1  10 0.00413 2.49226   1
   9   1  10 -3.2555 2.70611   2
 -10  -1 -10 18.4306 4.92193   2
  10   1  10 23.2515 5.30168   1
  10   1  10 26.9301 6.49872   2
 -11  -1 -10 11.6359 5.30740   2
  11   1  10 6.25568 4.21089   2
   9  -2 -10 3.46689 4.86053   3
   9  -2 -10 0.85922 5.18629   2
  -9   2  10 1.74372 4.85358   3
   8  -2 -10 3.04703 4.08488   3
   8  -2 -10 -0.6509 4.38349   2
  -8   2  10 -4.5990 3.90519   3
   7  -2 -10 65.4733 8.95204   2
   7  -2 -10 58.8259 7.14150   3
  -7   2  10 61.5785 7.12691   3
   6  -2 -10 31.4812 5.26861   3
   6  -2 -10 36.4422 6.28927   2
  -6   2  10 38.3347 5.78898   3
   5  -2 -10 13.4591 2.97792   3
   5  -2 -10 14.0602 3.32248   2
  -5   2  10 17.4988 3.80473   1
  -5   2  10 10.0067 3.05785   3
   4  -2 -10 1.72270 2.40717   3
   4  -2 -10 8.48778 2.69560   2
  -4   2  10 7.00442 1.99558   1
  -4   2  10 4.37404 2.53595   3
   3  -2 -10 5.95981 2.34801   3
   3  -2 -10 7.69558 2.42961   2
  -3   2  10 5.73647 2.32402   3
  -3   2  10 4.78145 1.78331   1
   2  -2 -10 53.7254 4.25751   3
   2  -2 -10 53.3599 4.24217   2
  -2   2  10 56.4982 4.42502   3
  -2   2  10 62.0023 3.88135   1
   1  -2 -10 -1.3705 1.80526   2
   1  -2 -10 0.27497 1.83638   3
  -1   2  10 0.34918 1.47082   1
  -1   2  10 0.14074 1.83481   3
   0  -2 -10 116.249 5.39087   3
   0  -2 -10 115.484 5.29373   2
   0   2  10 125.263 5.20571   1
  -1  -2 -10 17.8915 3.25096   2
  -1  -2 -10 25.4914 3.28051   3
   1   2  10 23.8454 2.72882   1
  -2  -2 -10 47.2335 3.85885   2
  -2  -2 -10 43.2157 3.67743   3
   2   2  10 44.5555 3.32679   1
  -3  -2 -10 121.391 5.16501   3
  -3  -2 -10 110.930 5.48275   2
   3   2  10 111.538 5.04842   1
  -4  -2 -10 332.023 11.2443   2
  -4  -2 -10 328.363 10.7706   3
   4   2  10 333.725 10.8957   1
  -5  -2 -10 90.4187 5.57164   2
  -5  -2 -10 93.3865 4.91629   3
   5   2  10 93.6331 4.75318   1
  -6  -2 -10 47.2753 4.58976   3
  -6  -2 -10 54.0159 5.11300   2
   6   2  10 51.3997 3.88756   1
  -7  -2 -10 134.077 6.57229   3
  -7  -2 -10 128.526 7.41431   2
   7   2  10 130.366 6.13203   1
  -8  -2 -10 -0.6071 3.38890   2
  -8  -2 -10 -0.6002 3.08369   3
   8   2  10 2.03853 2.41402   1
   8   2  10 1.96209 2.61798   2
  -9  -2 -10 26.0696 6.19207   2
   9   2  10 16.9859 3.62137   2
   9   2  10 23.4802 4.71881   1
 -10  -2 -10 2.38668 4.54413   2
  10   2  10 0.02733 2.94793   1
  10   2  10 0.38480 3.39231   2
 -11  -2 -10 -4.4691 5.02578   2
  11   2  10 -1.8489 4.10703   2
   9  -3 -10 9.61996 5.56449   2
  -9   3  10 10.7334 5.09202   3
   8  -3 -10 -4.8826 4.13048   3
   8  -3 -10 1.13107 4.62387   2
  -8   3  10 2.48057 4.12947   3
   7  -3 -10 13.5857 3.96524   3
   7  -3 -10 35.5328 7.87051   2
  -7   3  10 12.6419 3.93819   3
   6  -3 -10 6.28372 3.14549   3
   6  -3 -10 -2.1895 3.48660   2
  -6   3  10 -1.5863 3.11804   3
   5  -3 -10 54.3662 5.27687   3
   5  -3 -10 53.0476 6.04755   2
  -5   3  10 49.6950 4.26532   1
  -5   3  10 61.7956 5.51260   3
   4  -3 -10 14.3179 3.13916   2
   4  -3 -10 22.6752 4.36613   3
  -4   3  10 24.3566 4.36685   3
  -4   3  10 17.2980 3.45805   1
   3  -3 -10 3.94992 2.33069   2
   3  -3 -10 2.02800 2.21362   3
  -3   3  10 -0.1428 2.14449   3
  -3   3  10 3.28320 1.82947   1
   2  -3 -10 4.77062 2.13028   3
   2  -3 -10 6.11653 2.22367   2
  -2   3  10 4.76982 1.67294   1
  -2   3  10 2.99737 1.97960   3
   1  -3 -10 43.5898 4.15727   2
   1  -3 -10 41.2883 3.72327   3
  -1   3  10 38.5596 3.30771   1
  -1   3  10 37.6607 3.73000   3
   0  -3 -10 4.92913 2.06876   2
   0  -3 -10 7.05534 1.81613   3
   0   3  10 5.43509 1.69125   1
  -1  -3 -10 69.4328 4.40420   2
  -1  -3 -10 66.3242 4.04282   3
   1   3  10 69.1019 3.82231   1
  -2  -3 -10 118.623 5.77946   3
  -2  -3 -10 127.263 5.89837   2
   2   3  10 121.996 5.21767   1
  -3  -3 -10 0.42790 2.09126   3
  -3  -3 -10 0.62099 2.14899   2
   3   3  10 3.83151 1.54719   1
  -4  -3 -10 259.908 8.73489   3
  -4  -3 -10 259.345 9.57819   2
   4   3  10 255.464 8.93407   1
  -5  -3 -10 129.479 6.74323   2
   5   3  10 126.533 5.66438   1
  -6  -3 -10 -0.2808 2.63549   2
  -6  -3 -10 0.31223 2.02112   3
   6   3  10 -1.3245 1.71113   1
  -7  -3 -10 27.9848 5.41927   2
   7   3  10 27.4672 4.00072   1
  -8  -3 -10 2.16166 4.32123   2
   8   3  10 -2.0784 2.44484   1
  -9  -3 -10 -0.2749 3.87870   2
   9   3  10 1.14128 3.12405   2
   9   3  10 -1.1997 2.45290   1
 -10  -3 -10 3.07213 4.35856   2
  10   3  10 -1.0473 3.30839   2
  10   3  10 1.66815 3.03008   1
 -11  -3 -10 4.57709 5.07442   2
  11   3  10 -0.4861 3.82216   2
  11   3  10 1.49216 3.47730   1
   8  -4 -10 2.66982 4.99692   2
  -8   4  10 -3.5579 4.67125   3
   7  -4 -10 81.0302 8.88037   2
  -7   4  10 67.4345 7.76663   3
   6  -4 -10 -2.3241 3.66815   2
  -6   4  10 -0.8811 3.30019   3
   5  -4 -10 -1.3923 2.90567   3
   5  -4 -10 1.10118 3.15614   2
  -5   4  10 1.59197 2.81934   3
   4  -4 -10 0.54277 2.31762   3
   4  -4 -10 -0.7794 2.82196   2
  -4   4  10 -1.0298 1.85931   1
  -4   4  10 1.28730 2.55908   3
   3  -4 -10 181.659 7.76640   2
   3  -4 -10 179.464 7.38815   3
  -3   4  10 166.084 7.39845   3
  -3   4  10 184.271 6.82504   1
   2  -4 -10 0.26769 1.95825   3
   2  -4 -10 -0.7052 2.25305   2
  -2   4  10 -0.3588 2.03507   3
  -2   4  10 -0.4679 1.51413   1
   1  -4 -10 -0.7698 2.24869   2
   1  -4 -10 -0.8009 1.73801   3
  -1   4  10 -3.2621 1.71123   3
  -1   4  10 0.23003 1.48594   1
   0  -4 -10 50.0037 3.64898   3
   0  -4 -10 50.5307 4.46222   2
   0   4  10 53.5974 3.50787   1
   0   4  10 49.1089 3.58577   3
  -1  -4 -10 28.4072 4.03091   2
   1   4  10 31.0862 2.94521   1
  -2  -4 -10 70.4432 4.72308   2
  -2  -4 -10 64.0775 3.97797   3
   2   4  10 64.0362 3.77523   1
  -3  -4 -10 2.99255 1.81278   3
  -3  -4 -10 0.64891 2.21804   2
   3   4  10 2.65718 1.39087   1
  -4  -4 -10 156.997 5.86069   3
  -4  -4 -10 157.638 7.41406   2
   4   4  10 152.060 6.16782   1
  -5  -4 -10 3.98401 1.90535   3
  -5  -4 -10 2.31464 2.72957   2
   5   4  10 1.80380 1.62340   1
  -6  -4 -10 -0.6697 2.86443   2
   6   4  10 -0.0195 1.65802   1
  -7  -4 -10 52.1900 5.92681   2
   7   4  10 55.3004 5.62742   1
  -8  -4 -10 53.1747 6.46786   2
   8   4  10 55.8987 4.81153   1
  -9  -4 -10 -0.1305 4.17934   2
   9   4  10 1.04349 3.20867   2
   9   4  10 1.87774 2.48795   1
 -10  -4 -10 16.6527 4.95087   2
  10   4  10 24.4544 6.18076   2
  10   4  10 15.8294 3.36720   1
   8  -5 -10 -6.0797 5.09816   2
  -8   5  10 7.46055 4.81816   3
   7  -5 -10 -3.5050 4.31348   2
  -7   5  10 4.19046 4.06160   3
   6  -5 -10 -0.5608 3.84482   2
  -6   5  10 3.23448 3.59308   3
  -5   5  10 21.1679 4.43738   3
   4  -5 -10 -0.0193 3.06407   2
  -4   5  10 0.90614 2.67515   3
  -4   5  10 3.84800 1.95812   1
   3  -5 -10 100.431 6.27998   2
   3  -5 -10 99.7432 5.51863   3
  -3   5  10 94.6774 4.84351   1
  -3   5  10 90.1192 5.60529   3
   2  -5 -10 1.58649 1.88407   3
   2  -5 -10 3.59759 2.66616   2
  -2   5  10 1.33921 2.05948   3
  -2   5  10 0.38281 1.62264   1
   1  -5 -10 6.13002 2.82764   2
   1  -5 -10 6.44631 1.95352   3
  -1   5  10 0.91838 1.52784   1
  -1   5  10 0.24243 1.86512   3
   0  -5 -10 13.8952 2.87651   2
   0  -5 -10 11.1230 2.08970   3
   0   5  10 9.28338 1.76230   1
   0   5  10 8.73734 2.01974   3
  -1  -5 -10 1.96794 1.83581   3
  -1  -5 -10 -1.0517 2.29495   2
   1   5  10 0.47844 1.36230   1
  -2  -5 -10 14.7637 2.93427   2
  -2  -5 -10 9.80965 1.99987   3
   2   5  10 8.04759 1.68091   1
  -3  -5 -10 67.9586 5.45482   2
  -3  -5 -10 68.3068 3.67167   3
   3   5  10 68.1216 3.98407   1
  -4  -5 -10 4.08142 2.78364   2
   4   5  10 6.84022 1.70667   1
  -5  -5 -10 18.4551 4.89389   2
   5   5  10 20.0132 3.12636   1
  -6  -5 -10 97.0754 7.18337   2
   6   5  10 92.4351 5.09280   1
  -7  -5 -10 43.9750 7.42578   2
   7   5  10 53.4956 4.41701   1
  -8  -5 -10 6.88867 3.68289   2
   8   5  10 3.33120 2.33986   1
  -9  -5 -10 35.0960 6.92384   2
   9   5  10 34.0917 4.81482   1
 -10  -5 -10 -3.5775 4.40910   2
  10   5  10 0.07378 2.91131   1
  10   5  10 -0.2641 3.63049   2
   8  -6 -10 -5.9951 5.37625   2
  -8   6  10 2.39710 5.07327   3
   7  -6 -10 3.17698 4.80390   2
  -7   6  10 4.22446 4.38846   3
   6  -6 -10 16.2273 4.85387   2
  -6   6  10 12.1655 3.99451   3
   5  -6 -10 4.55622 3.76569   2
   4  -6 -10 -1.3506 3.91272   2
  -4   6  10 2.32774 2.77242   3
  -4   6  10 -0.8714 1.98524   1
   3  -6 -10 80.8626 6.72054   2
  -3   6  10 65.3797 5.38746   3
  -3   6  10 71.7484 4.40518   1
   2  -6 -10 9.11671 2.27695   3
   2  -6 -10 11.9175 3.30204   2
  -2   6  10 8.43868 2.30844   3
  -2   6  10 10.6240 2.06279   1
   1  -6 -10 13.9158 2.25011   3
   1  -6 -10 20.5313 5.21151   2
  -1   6  10 12.0018 2.28978   3
  -1   6  10 19.6924 3.08990   1
   0  -6 -10 23.8768 3.32509   3
   0  -6 -10 26.8588 4.96613   2
   0   6  10 25.4892 2.91051   1
   0   6  10 21.9332 3.21569   3
  -1  -6 -10 38.6722 3.62175   3
  -1  -6 -10 32.6594 5.05309   2
   1   6  10 38.5829 3.26554   1
  -2  -6 -10 9.70884 2.81860   2
  -2  -6 -10 14.9277 2.96621   3
   2   6  10 10.0830 1.85994   1
  -3  -6 -10 4.34732 2.91628   2
   3   6  10 2.37514 1.64395   1
  -4  -6 -10 5.52586 2.93025   2
   4   6  10 7.23379 1.83430   1
  -5  -6 -10 59.0844 6.25528   2
   5   6  10 60.2390 4.10757   1
   6   6  10 43.4303 4.05400   1
  -7  -6 -10 16.2504 4.21983   2
   7   6  10 23.0269 3.86049   1
  -8  -6 -10 6.56296 3.99926   2
   8   6  10 10.8101 2.58371   1
  -9  -6 -10 0.52435 4.23605   2
   9   6  10 7.79063 2.86279   1
 -10  -6 -10 7.89091 5.13869   2
  10   6  10 1.82138 3.10253   1
   7  -7 -10 0.86819 4.83787   2
  -7   7  10 3.71560 4.51200   3
   6  -7 -10 0.75131 4.53253   2
  -6   7  10 3.05718 3.79252   3
   5  -7 -10 14.2094 4.34574   2
  -5   7  10 23.5878 6.28912   3
   4  -7 -10 67.1002 7.19052   2
  -4   7  10 59.5189 6.05708   3
  -3   7  10 12.9862 2.32028   1
  -3   7  10 19.5818 4.88773   3
   2  -7 -10 34.8903 6.18769   2
  -2   7  10 23.8882 3.32778   1
  -2   7  10 19.6754 4.20959   3
   1  -7 -10 7.54114 3.32519   2
   1  -7 -10 7.97324 2.15748   3
  -1   7  10 15.5272 3.03905   1
  -1   7  10 13.6026 3.51181   3
   0  -7 -10 44.6490 5.87616   2
   0  -7 -10 51.0481 5.65290   3
   0   7  10 42.6955 3.60630   1
  -1  -7 -10 -0.7886 2.87619   2
   1   7  10 0.72989 1.57758   1
  -2  -7 -10 6.49866 2.99415   2
   2   7  10 1.09450 1.71746   1
  -3  -7 -10 9.15813 3.40527   2
   3   7  10 8.78761 2.02236   1
  -4  -7 -10 28.6099 5.67894   2
   4   7  10 33.1349 3.55808   1
   5   7  10 11.5240 2.32387   1
  -6  -7 -10 39.8472 6.48213   2
   6   7  10 35.5900 4.08891   1
  -7  -7 -10 68.4300 8.16536   2
   7   7  10 79.9866 5.34486   1
  -8  -7 -10 -3.3935 4.05827   2
   8   7  10 0.45207 2.41782   1
  -9  -7 -10 31.4504 7.37178   2
 -10  -7 -10 5.01502 5.31669   2
   7  -8 -10 -5.2427 5.44127   2
  -7   8  10 0.47192 4.86438   3
   6  -8 -10 42.1218 8.80479   2
  -6   8  10 40.9693 7.76839   3
   5  -8 -10 8.09657 4.50852   2
  -5   8  10 9.32460 3.85933   3
   4  -8 -10 5.32037 4.15946   2
  -4   8  10 3.84609 3.35319   3
   3  -8 -10 2.55327 3.78111   2
  -3   8  10 3.30797 2.92506   3
  -3   8  10 -1.2098 1.94999   1
   2  -8 -10 15.4609 4.27653   2
  -2   8  10 15.9065 3.48474   1
  -2   8  10 9.08791 2.67269   3
   1  -8 -10 5.26086 2.24689   3
  -1   8  10 3.43545 1.94239   1
  -1   8  10 -0.3524 2.30767   3
   0  -8 -10 1.47285 3.44234   2
   0   8  10 -3.0242 1.63149   1
  -1  -8 -10 1.80923 3.24297   2
   1   8  10 2.30883 1.88021   1
  -2  -8 -10 5.32099 3.24171   2
   2   8  10 2.29034 1.77508   1
  -4  -8 -10 7.18280 3.87670   2
   4   8  10 8.83045 2.25167   1
  -5  -8 -10 90.4535 7.74377   2
   5   8  10 84.6031 5.33522   1
  -6  -8 -10 8.41127 4.29043   2
   6   8  10 8.31620 2.38530   1
  -7  -8 -10 0.98198 4.43816   2
   7   8  10 -2.0771 2.10834   1
  -8  -8 -10 0.82962 4.77072   2
   8   8  10 5.56068 2.82910   1
  -9  -8 -10 -6.0558 4.74908   2
   9   8  10 3.26431 3.05760   1
   6  -9 -10 7.52610 5.34020   2
  -6   9  10 4.82956 4.78909   3
   5  -9 -10 10.8501 5.30097   2
  -5   9  10 3.19549 4.18012   3
   4  -9 -10 81.7130 9.35599   2
  -4   9  10 55.9649 6.79555   3
   3  -9 -10 9.84854 4.61828   2
  -3   9  10 3.04556 3.26498   3
   2  -9 -10 19.7314 4.84886   2
  -2   9  10 13.2383 2.54156   1
  -2   9  10 22.3639 5.38116   3
   1  -9 -10 3.69998 4.22770   2
  -1   9  10 1.34586 2.00649   1
   0  -9 -10 63.4754 7.86149   2
   0   9  10 66.2704 4.70218   1
  -1  -9 -10 -1.9138 3.68995   2
   1   9  10 -0.1925 1.90303   1
  -2  -9 -10 18.6888 4.32036   2
   2   9  10 28.1838 3.94866   1
  -3  -9 -10 2.80634 3.90921   2
   3   9  10 2.90358 2.07104   1
  -4  -9 -10 4.35283 4.14979   2
   4   9  10 6.52120 2.23202   1
  -5  -9 -10 53.3455 7.80736   2
   5   9  10 55.7267 4.78624   1
  -6  -9 -10 -2.8040 4.16390   2
   6   9  10 3.63148 2.44993   1
  -7  -9 -10 1.50024 4.96295   2
   7   9  10 1.15562 2.50950   1
  -8  -9 -10 2.84953 5.40655   2
   8   9  10 3.45715 2.91874   1
   5 -10 -10 8.52380 5.79974   2
  -5  10  10 -1.3204 4.35306   3
   4 -10 -10 18.5511 5.74664   2
   3 -10 -10 10.1088 5.55580   2
   2 -10 -10 73.6203 9.93244   2
  -2  10  10 53.1875 4.89024   1
   1 -10 -10 31.2383 8.45691   2
  -1  10  10 16.8657 4.35724   1
   0 -10 -10 2.64324 4.33274   2
   0  10  10 -0.4310 2.25120   1
  -1 -10 -10 30.1403 5.30784   2
   1  10  10 38.8929 4.55916   1
  -2 -10 -10 12.3786 4.71430   2
   2  10  10 14.3816 2.59322   1
  -3 -10 -10 15.1588 4.92812   2
   3  10  10 10.9400 2.71879   1
  -4 -10 -10 -3.6443 4.62312   2
   4  10  10 2.29537 2.55517   1
  -5 -10 -10 7.35250 4.89159   2
   5  10  10 17.6200 4.56668   1
  -6 -10 -10 20.1172 5.59858   2
   6  10  10 19.8165 5.06722   1
  -7 -10 -10 5.24563 5.57963   2
   7  10  10 1.53597 2.86344   1
   4 -11 -10 10.7983 6.43916   2
   3 -11 -10 23.9263 6.66838   2
   2 -11 -10 3.53216 5.65846   2
   1 -11 -10 0.43991 5.09063   2
  -1  11  10 3.47652 2.72826   1
   0 -11 -10 7.41908 4.91584   2
   0  11  10 0.08523 2.72712   1
  -1 -11 -10 1.74982 4.78816   2
   1  11  10 2.16474 2.47816   1
  -2 -11 -10 -0.0174 4.86591   2
   2  11  10 0.70996 2.65562   1
  -3 -11 -10 0.42186 5.06213   2
   3  11  10 1.82521 2.51929   1
  -4 -11 -10 27.5484 6.22733   2
   4  11  10 35.1256 4.92806   1
  -5 -11 -10 2.24177 5.52451   2
   5  11  10 0.32775 2.49758   1
  -6 -11 -10 2.88527 5.73804   2
   6  11  10 0.96680 2.86379   1
   2 -12 -10 -2.9910 6.33586   2
   1 -12 -10 17.0251 6.44929   2
  -1  12  10 31.6957 6.00694   1
   0 -12 -10 2.13557 5.91512   2
   0  12  10 4.40442 3.11363   1
  -1 -12 -10 16.0422 6.10943   2
   1  12  10 11.6457 3.43814   1
  -2 -12 -10 5.87355 6.00525   2
   2  12  10 1.93897 2.97331   1
  -3 -12 -10 23.1707 6.85189   2
   3  12  10 32.5229 5.40154   1
  -4 -12 -10 -1.8532 5.89706   2
   4  12  10 4.80409 2.97753   1
  -5 -12 -10 1.55346 5.93583   2
   5  12  10 9.38131 3.24100   1
   2   8 -11 4.42051 4.70949   3
  -2  -8  11 2.01103 4.25842   1
   1   8 -11 1.80403 4.46214   3
  -1  -8  11 4.80770 3.86130   1
   0   8 -11 1.21673 4.61310   3
   0  -8  11 -2.0616 3.68351   1
  -1   8 -11 4.62545 4.25226   3
   1  -8  11 0.53806 3.80670   1
  -2   8 -11 2.78429 4.41450   3
   2  -8  11 12.0231 3.88918   1
  -3   8 -11 4.35506 4.61340   3
   3  -8  11 -8.3749 3.52558   1
  -4   8 -11 9.17568 4.84163   3
   4  -8  11 3.87736 3.83708   1
   4   7 -11 6.33667 4.86696   3
  -4  -7  11 0.30067 4.43353   1
   3   7 -11 1.32904 4.56664   3
  -3  -7  11 7.44750 4.11352   1
   2   7 -11 0.32507 4.21528   3
  -2  -7  11 0.53983 3.56845   1
   1   7 -11 4.30096 4.11188   3
  -1  -7  11 -0.7204 3.56501   1
   0   7 -11 5.87034 4.17916   3
   0  -7  11 6.44111 3.46820   1
  -1   7 -11 0.09071 3.95804   3
   1  -7  11 2.52820 3.22949   1
  -2   7 -11 9.61551 3.91985   3
   2  -7  11 21.6744 5.51754   1
  -3   7 -11 4.07218 4.16780   3
   3  -7  11 4.66640 3.20042   1
  -4   7 -11 14.4467 4.59971   3
   4  -7  11 17.1191 3.68501   1
  -5   7 -11 2.54675 4.64955   3
   5  -7  11 -2.4358 3.52846   1
   5   6 -11 9.86407 5.06642   3
  -5  -6  11 4.27931 4.52010   1
   4   6 -11 45.8069 8.31086   3
   3   6 -11 14.8518 4.55633   3
  -3  -6  11 7.59766 3.67165   1
   2   6 -11 -3.3913 3.65805   3
  -2  -6  11 -1.0335 3.18935   1
   1   6 -11 4.86763 3.55879   3
  -1  -6  11 -2.0443 3.17178   1
   0   6 -11 6.36676 3.65654   3
   0  -6  11 7.88320 3.09742   1
  -1   6 -11 5.99766 3.73628   3
   1  -6  11 8.17995 3.18692   1
  -2   6 -11 24.2538 5.87437   3
   2  -6  11 29.9122 5.64890   1
   3  -6  11 1.75212 2.91016   1
  -4   6 -11 54.6877 7.06023   3
   4  -6  11 55.3383 6.03022   1
  -5   6 -11 6.86486 4.21806   3
   5  -6  11 7.09063 3.36520   1
  -6   6 -11 12.6781 4.77996   3
   6  -6  11 4.50640 3.51297   1
  -7   6 -11 3.67112 5.31171   3
   7  -6  11 3.06916 3.74537   1
   6   5 -11 3.80369 4.68430   3
  -6  -5  11 2.06626 4.48034   1
   5   5 -11 -1.7127 4.56772   3
  -5  -5  11 5.55017 4.22681   1
   4   5 -11 0.71992 3.92319   3
  -4  -5  11 1.65095 3.57302   1
   3   5 -11 10.5959 3.89829   3
  -3  -5  11 0.12164 3.24369   1
   2   5 -11 8.79509 3.87579   3
  -2  -5  11 6.90950 3.12508   1
   1   5 -11 -1.2297 3.20066   3
  -1  -5  11 -0.2367 2.66242   1
   0   5 -11 -2.1891 3.20024   3
   0  -5  11 -1.4537 2.38337   1
  -1   5 -11 78.3650 6.33919   3
   1  -5  11 67.7978 5.72453   1
  -2   5 -11 75.8595 6.93225   3
   2  -5  11 73.5268 5.85604   1
  -3   5 -11 7.75174 3.42586   3
   3  -5  11 10.7046 2.79268   1
  -4   5 -11 72.3774 7.11768   3
   4  -5  11 87.7604 6.17792   1
  -5   5 -11 1.90830 3.81156   3
   5  -5  11 5.78319 2.91830   1
  -6   5 -11 7.64901 4.36363   3
   6  -5  11 12.4526 3.16420   1
  -7   5 -11 3.22910 4.97750   3
   7  -5  11 8.39986 3.47162   1
  -8   5 -11 1.47277 5.07257   3
   8  -5  11 10.5236 3.92374   1
   7   4 -11 5.29554 5.28058   3
  -7  -4  11 2.85899 5.65983   1
   6   4 -11 10.6918 4.91899   3
  -6  -4  11 2.48868 4.45107   1
   5   4 -11 4.78200 4.20046   3
  -5  -4  11 3.17669 3.51234   1
   4   4 -11 8.16761 3.85483   3
  -4  -4  11 4.83420 3.28397   1
   3   4 -11 35.2193 6.46773   3
  -3  -4  11 50.3425 5.84236   1
   2   4 -11 21.7807 5.85070   3
   1   4 -11 1.90628 3.25333   3
  -1  -4  11 -2.3280 2.29919   1
   0   4 -11 7.32418 3.14072   3
   0  -4  11 4.72617 2.53235   1
  -1   4 -11 39.2182 5.59544   3
   1  -4  11 50.2038 4.80577   1
  -2   4 -11 34.6329 5.65447   3
   2  -4  11 36.0331 4.31154   1
  -3   4 -11 129.729 7.68265   3
   3  -4  11 140.944 6.83053   1
  -4   4 -11 68.6634 6.61690   3
   4  -4  11 78.5310 5.38792   1
  -5   4 -11 -1.6895 3.25067   3
   5  -4  11 -2.4164 2.37814   1
  -6   4 -11 29.2116 6.89650   3
   6  -4  11 16.7258 3.09986   1
  -7   4 -11 12.7739 4.88789   3
   7  -4  11 11.4464 3.13860   1
  -8   4 -11 5.49474 4.81786   3
   8  -4  11 7.47876 3.58419   1
   7   3 -11 2.66547 4.64533   3
   6   3 -11 9.69615 4.26165   3
  -6  -3  11 14.3375 4.13812   1
   5   3 -11 2.97475 3.80105   3
  -5  -3  11 -0.5271 3.43230   1
   4   3 -11 20.3325 4.18184   3
  -4  -3  11 36.9404 5.79965   1
   3   3 -11 80.1907 6.70078   3
   2   3 -11 8.40273 3.28953   3
  -2  -3  11 6.19107 3.14165   1
   1   3 -11 5.45904 3.53626   3
  -1  -3  11 2.60091 2.37570   1
   0   3 -11 55.8195 5.47765   3
   0  -3  11 69.6305 4.92855   1
  -1   3 -11 43.5114 5.33189   3
   1  -3  11 42.2272 4.45046   1
  -2   3 -11 24.7135 4.83794   3
   2  -3  11 19.8778 3.71361   1
  -3   3 -11 110.369 6.69580   3
   3  -3  11 99.4627 7.11218   1
  -4   3 -11 10.2402 3.26423   3
   4  -3  11 17.2407 3.51667   1
  -5   3 -11 79.5484 7.64495   3
   5  -3  11 84.0366 5.45828   1
  -6   3 -11 30.7508 6.29798   3
   6  -3  11 29.8407 4.67660   1
  -7   3 -11 32.1298 7.14940   3
   7  -3  11 26.9831 5.06327   1
  -8   3 -11 16.4759 4.59073   3
   8  -3  11 27.7984 5.48262   1
  -9   3 -11 2.88930 4.98220   3
   9  -3  11 3.42266 3.44926   1
   7   2 -11 7.17525 4.73034   3
  -7  -2  11 5.51395 4.31300   3
   6   2 -11 0.49896 3.80593   3
  -6  -2  11 3.61093 3.88895   3
   5   2 -11 5.81230 3.45854   3
  -5  -2  11 1.28653 3.24638   1
   4   2 -11 144.166 8.24723   3
  -4  -2  11 144.432 7.52037   1
   3   2 -11 43.5022 5.80024   3
  -3  -2  11 34.2367 5.17814   1
   2   2 -11 3.48296 2.77952   3
  -2  -2  11 6.99481 2.36316   1
  -1  -2  11 16.6423 3.94073   1
   0   2 -11 0.76503 2.55161   3
   0  -2  11 0.17786 2.06213   1
  -1   2 -11 21.6426 4.38655   3
   1  -2  11 16.0350 3.46823   1
  -2   2 -11 27.3686 4.78545   3
   2  -2  11 20.4346 3.47604   1
  -3   2 -11 98.8983 6.31329   3
   3  -2  11 110.416 5.62096   1
  -4   2 -11 -1.3644 2.68136   3
   4  -2  11 1.65842 2.15582   1
  -5   2 -11 160.301 8.21588   3
   5  -2  11 161.530 8.00451   1
  -6   2 -11 35.7359 5.95166   3
   6  -2  11 43.0662 4.60010   1
  -7   2 -11 97.9560 7.88284   3
   7  -2  11 102.020 6.09806   1
  -8   2 -11 9.60157 4.01746   3
   8  -2  11 9.02747 2.83633   1
  -9   2 -11 -0.2301 4.61753   3
   9  -2  11 -2.7577 3.27872   1
   8   1 -11 1.86813 4.96013   3
  -8  -1  11 0.78636 4.78998   3
   7   1 -11 14.4377 4.54630   3
  -7  -1  11 20.3886 4.65898   3
   6   1 -11 35.8504 7.08009   3
  -6  -1  11 27.0547 6.94129   3
  -6  -1  11 39.4647 6.04429   1
   5   1 -11 -4.0391 3.48029   3
  -5  -1  11 0.36753 3.22140   3
  -5  -1  11 -3.4024 2.84766   1
   4   1 -11 53.0503 5.52618   3
  -4  -1  11 39.2930 5.39986   1
  -4  -1  11 48.9452 6.03732   3
   3   1 -11 -2.2603 2.85440   3
  -3  -1  11 3.45827 2.26954   1
   2   1 -11 165.433 7.78049   3
  -2  -1  11 160.223 7.20171   1
   1   1 -11 10.3477 2.76984   3
  -1  -1  11 19.9960 3.48411   1
   0   1 -11 5.73236 2.45255   3
   0  -1  11 8.44328 2.23082   1
  -1   1 -11 8.33073 2.49345   3
   1  -1  11 2.07879 1.82105   1
  -2   1 -11 35.8393 3.44707   2
  -2   1 -11 39.9102 4.62788   3
   2  -1  11 36.3001 3.57532   1
  -3   1 -11 19.5044 4.36696   3
  -3   1 -11 19.4175 3.53391   2
   3  -1  11 20.9429 3.45461   1
   3  -1  11 20.1718 3.12655   2
  -4   1 -11 68.3494 5.62156   3
   4  -1  11 67.1867 4.63675   1
  -5   1 -11 193.321 7.93019   2
  -5   1 -11 201.603 8.97069   3
   5  -1  11 218.414 8.18463   1
   5  -1  11 202.419 7.37142   2
  -6   1 -11 -0.3263 2.78253   2
  -6   1 -11 3.31911 3.17278   3
   6  -1  11 0.98995 2.22915   2
   6  -1  11 0.66478 3.19780   1
  -7   1 -11 149.484 7.76145   2
  -7   1 -11 150.230 8.70993   3
   7  -1  11 152.298 7.10508   1
   7  -1  11 139.718 6.82851   2
  -8   1 -11 16.6308 4.30431   3
  -8   1 -11 23.4669 6.22660   2
   8  -1  11 5.40156 3.05878   2
   8  -1  11 11.7004 2.95803   1
  -9   1 -11 -6.7929 4.40472   3
  -9   1 -11 1.12301 4.22013   2
   9  -1  11 -0.9288 3.13724   1
   9  -1  11 2.07360 3.51986   2
 -10   1 -11 -3.8427 4.94685   3
  10  -1  11 -0.6522 3.92677   1
   8   0 -11 6.06302 4.73111   3
  -8   0  11 6.65125 4.71682   3
   7   0 -11 8.71351 4.24801   3
  -7   0  11 3.02432 4.18303   3
   6   0 -11 7.14319 3.66858   3
   6   0 -11 6.22879 3.98321   2
  -6   0  11 8.96814 4.02309   1
  -6   0  11 4.01992 3.62359   3
   5   0 -11 14.2306 3.62279   3
   5   0 -11 16.4753 3.31697   2
  -5   0  11 13.6072 3.17310   1
  -5   0  11 12.6928 3.50011   3
   4   0 -11 109.682 7.55120   3
   4   0 -11 119.519 6.38878   2
  -4   0  11 125.493 7.68204   3
  -4   0  11 114.923 6.53556   1
   3   0 -11 21.1656 3.91604   2
   3   0 -11 29.0263 4.73044   3
  -3   0  11 26.6006 4.82390   3
  -3   0  11 19.2278 4.06107   1
   2   0 -11 39.8385 4.77366   3
   2   0 -11 35.1180 3.87051   2
  -2   0  11 43.1013 3.98095   1
   1   0 -11 0.89613 1.84412   2
   1   0 -11 -2.0923 2.21949   3
  -1   0  11 -0.7847 1.73999   1
   0   0 -11 210.730 8.25523   3
   0   0 -11 197.810 7.21727   2
   0   0  11 210.881 7.82391   1
  -1   0 -11 0.09210 2.18891   3
  -1   0 -11 -4.5998 1.88921   2
   1   0  11 -1.2008 1.50590   1
  -2   0 -11 32.7478 4.18041   3
  -2   0 -11 24.7182 3.60480   2
   2   0  11 32.1132 3.33128   1
  -3   0 -11 48.4665 4.57982   3
  -3   0 -11 52.0873 6.03712   2
   3   0  11 55.4226 3.85843   1
  -4   0 -11 121.469 6.34744   3
  -4   0 -11 107.883 5.63685   2
   4   0  11 111.536 5.46248   1
  -5   0 -11 249.027 9.78310   3
  -5   0 -11 235.104 9.14049   2
   5   0  11 254.406 9.09345   1
   5   0  11 252.532 8.63618   2
  -6   0 -11 16.4853 3.25140   2
  -6   0 -11 19.8443 3.52557   3
   6   0  11 18.0986 3.71357   1
   6   0  11 25.8136 3.93552   2
  -7   0 -11 79.4177 6.57258   2
  -7   0 -11 84.7659 6.91738   3
   7   0  11 81.2306 5.47383   2
   7   0  11 85.9852 5.56078   1
  -8   0 -11 -3.9716 3.53512   2
  -8   0 -11 -3.2458 3.68925   3
   8   0  11 -0.3261 2.48029   1
   8   0  11 -2.7995 2.91325   2
  -9   0 -11 29.9317 7.44103   3
  -9   0 -11 27.5588 7.54407   2
   9   0  11 28.7899 5.67864   1
   9   0  11 30.8962 6.17553   2
 -10   0 -11 7.45301 5.13910   2
  10   0  11 5.08943 3.39098   1
  10   0  11 -0.8754 3.96425   2
   8  -1 -11 3.95638 4.63440   3
   8  -1 -11 7.12881 4.95369   2
  -8   1  11 -1.1309 4.49309   3
   7  -1 -11 8.92600 4.21782   3
  -7   1  11 4.49149 3.96028   3
   6  -1 -11 56.4581 7.14799   3
   6  -1 -11 37.9880 7.05703   2
  -6   1  11 42.4352 6.90493   3
   5  -1 -11 14.5183 3.73621   3
   5  -1 -11 17.0654 3.49194   2
  -5   1  11 14.9404 3.00859   1
  -5   1  11 15.3344 3.66733   3
   4  -1 -11 -1.7899 3.19802   3
   4  -1 -11 -1.6535 2.62523   2
  -4   1  11 -0.5079 3.18474   3
  -4   1  11 2.97955 2.43732   1
   3  -1 -11 32.8844 4.79188   3
   3  -1 -11 38.4697 4.54323   2
  -3   1  11 42.5290 4.97612   3
  -3   1  11 36.5720 4.10546   1
   2  -1 -11 90.8052 5.50755   3
   2  -1 -11 92.8323 5.12066   2
  -2   1  11 82.8388 5.08526   1
  -2   1  11 90.8628 5.64598   3
   1  -1 -11 146.501 6.73922   3
   1  -1 -11 140.303 6.05742   2
  -1   1  11 156.135 6.37123   1
   0  -1 -11 122.247 6.36167   3
   0   1  11 138.795 5.84852   1
  -1  -1 -11 53.4320 4.48543   3
   1   1  11 50.6229 3.73835   1
  -2  -1 -11 14.1054 3.59741   3
  -2  -1 -11 7.11081 2.23307   2
   2   1  11 7.39073 1.79740   1
  -3  -1 -11 4.30546 2.27256   2
  -3  -1 -11 4.48285 2.15204   3
   3   1  11 3.98138 1.76528   1
  -4  -1 -11 26.8489 4.29857   2
  -4  -1 -11 38.1718 4.51343   3
   4   1  11 34.8753 3.50674   1
  -5  -1 -11 28.1199 4.67105   2
  -5  -1 -11 28.9387 4.53133   3
   5   1  11 33.0806 3.84499   1
  -6  -1 -11 121.333 6.84575   2
  -6  -1 -11 124.624 6.73422   3
   6   1  11 123.932 6.12375   1
  -7  -1 -11 15.6843 3.69102   2
  -7  -1 -11 13.1685 3.38050   3
   7   1  11 16.6707 3.03805   1
   7   1  11 23.5448 4.43791   2
  -8  -1 -11 6.60128 3.62654   2
  -8  -1 -11 4.30093 3.53462   3
   8   1  11 3.74065 2.85708   2
   8   1  11 1.04509 2.54621   1
  -9  -1 -11 66.0528 8.07839   2
   9   1  11 59.8762 6.17078   2
   9   1  11 64.9038 5.89698   1
 -10  -1 -11 -0.9642 4.82856   2
  10   1  11 4.62457 3.34496   1
  10   1  11 1.94796 4.03059   2
   8  -2 -11 3.84312 5.18423   2
   8  -2 -11 -0.4783 4.64704   3
  -8   2  11 -0.0080 4.53964   3
   7  -2 -11 2.92679 4.13042   3
   7  -2 -11 2.77262 4.43246   2
  -7   2  11 -3.2897 3.91315   3
   6  -2 -11 1.62966 3.48323   3
   6  -2 -11 1.65408 3.75021   2
  -6   2  11 6.05572 3.78451   3
   5  -2 -11 10.0301 3.36918   3
   5  -2 -11 15.1129 3.65279   2
  -5   2  11 21.3089 4.48675   1
  -5   2  11 12.5744 3.39696   3
   4  -2 -11 -0.2617 2.72438   3
   4  -2 -11 -0.6164 2.71370   2
  -4   2  11 -0.0552 2.78758   3
  -4   2  11 4.36322 2.42660   1
   3  -2 -11 143.421 7.11632   3
   3  -2 -11 153.451 7.01060   2
  -3   2  11 146.520 6.56510   1
  -3   2  11 144.711 7.15004   3
   2  -2 -11 30.2471 4.29633   3
   2  -2 -11 35.9218 4.32056   2
  -2   2  11 36.8960 4.46446   3
  -2   2  11 31.0439 3.81908   1
   1  -2 -11 64.1400 4.67508   2
   1  -2 -11 60.0171 4.62750   3
  -1   2  11 69.0458 4.34412   1
   0  -2 -11 96.8512 5.11508   2
   0  -2 -11 93.7905 5.23400   3
   0   2  11 102.591 4.96468   1
  -1  -2 -11 5.02461 2.11462   2
  -1  -2 -11 15.6120 3.76289   3
   1   2  11 5.45960 1.74527   1
  -2  -2 -11 15.8950 3.65099   2
  -2  -2 -11 20.7507 3.54257   3
   2   2  11 19.0885 3.03388   1
   3   2  11 3.79885 1.74029   1
  -4  -2 -11 17.4624 4.32230   2
  -4  -2 -11 17.3580 3.92106   3
   4   2  11 19.3442 3.15046   1
  -5  -2 -11 1.61674 2.34555   3
  -5  -2 -11 -2.4107 2.60740   2
   5   2  11 0.65596 1.80639   1
  -6  -2 -11 35.3439 5.55770   2
  -6  -2 -11 47.9178 5.15053   3
   6   2  11 35.8786 4.09799   1
  -7  -2 -11 3.31902 2.89136   3
  -7  -2 -11 -3.4948 3.12172   2
   7   2  11 0.54767 2.30854   1
   8   2  11 33.1156 4.62161   1
   8   2  11 25.9433 6.14003   2
  -9  -2 -11 57.9140 7.38550   2
   9   2  11 38.4208 5.55958   1
   9   2  11 37.8120 6.04760   2
 -10  -2 -11 4.03005 4.92945   2
  10   2  11 8.60053 3.90650   2
  10   2  11 7.35941 3.25068   1
   8  -3 -11 2.10820 4.74814   3
   8  -3 -11 7.65917 5.52975   2
  -8   3  11 0.68759 4.78261   3
   7  -3 -11 2.04755 4.03008   3
   7  -3 -11 -2.1235 4.79269   2
  -7   3  11 -2.9407 4.01463   3
   6  -3 -11 2.10315 6.76512   2
   6  -3 -11 5.26033 3.42978   3
  -6   3  11 6.46286 3.72169   3
   5  -3 -11 61.8243 6.80695   2
   5  -3 -11 52.9401 6.03803   3
  -5   3  11 57.6260 6.30171   3
  -5   3  11 55.7573 7.39624   1
   4  -3 -11 2.88003 2.89728   3
   4  -3 -11 5.26568 3.02616   2
  -4   3  11 4.64037 2.83907   3
  -4   3  11 3.03158 2.25654   1
   3  -3 -11 36.8116 5.02564   2
   3  -3 -11 36.0474 4.60370   3
  -3   3  11 36.3705 4.74210   3
  -3   3  11 27.2249 3.86836   1
   2  -3 -11 39.1575 4.61386   2
   2  -3 -11 28.9172 4.39845   3
  -2   3  11 39.4756 3.72120   1
  -2   3  11 28.9634 4.47795   3
   1  -3 -11 281.280 10.0148   3
   1  -3 -11 296.432 10.3307   2
  -1   3  11 281.916 10.0439   3
  -1   3  11 294.098 9.88426   1
   0  -3 -11 39.7334 3.98803   3
   0  -3 -11 26.0462 4.12006   2
   0   3  11 35.0289 3.44967   1
  -1  -3 -11 3.19081 2.12578   3
  -1  -3 -11 5.90203 2.29634   2
   1   3  11 3.11742 1.75488   1
  -2  -3 -11 72.0590 4.62353   3
  -2  -3 -11 75.1345 5.18717   2
   2   3  11 79.4164 4.35979   1
  -3  -3 -11 103.396 5.17044   3
  -3  -3 -11 105.989 6.01213   2
   3   3  11 111.944 5.20353   1
  -4  -3 -11 13.8219 2.43122   3
  -4  -3 -11 19.0170 4.63315   2
   4   3  11 17.0337 3.08600   1
  -5  -3 -11 70.7313 5.86336   2
  -5  -3 -11 66.6292 4.68941   3
   5   3  11 66.5554 4.48546   1
  -6  -3 -11 -4.1374 2.87243   2
  -6  -3 -11 -2.6560 3.80516   3
   6   3  11 0.51906 3.07544   1
  -7  -3 -11 -5.0327 3.08929   2
   7   3  11 -2.5884 2.11500   1
  -8  -3 -11 75.5872 7.51597   2
   8   3  11 78.6345 5.68506   1
  -9  -3 -11 16.2703 4.66365   2
   9   3  11 31.8733 4.98846   1
   9   3  11 24.7776 6.04779   2
 -10  -3 -11 22.5724 5.16019   2
  10   3  11 9.79043 3.44045   1
  10   3  11 16.8004 4.15434   2
   8  -4 -11 7.67541 6.00192   2
   8  -4 -11 12.2831 4.92206   3
  -8   4  11 10.5854 5.19515   3
   7  -4 -11 12.1157 4.36239   3
   7  -4 -11 9.05340 4.80542   2
  -7   4  11 4.21952 4.31986   3
   6  -4 -11 -1.3759 4.10364   2
   6  -4 -11 2.51809 3.51591   3
  -6   4  11 1.65880 3.84462   3
   5  -4 -11 -0.0429 3.00813   3
   5  -4 -11 6.67226 3.85101   2
  -5   4  11 3.06430 3.29226   3
   4  -4 -11 1.38109 3.00219   2
   4  -4 -11 -0.5960 2.76537   3
  -4   4  11 1.55697 2.92666   3
  -4   4  11 1.43019 2.05963   1
   3  -4 -11 243.272 9.57621   3
   3  -4 -11 255.899 10.1826   2
  -3   4  11 265.399 9.19258   1
  -3   4  11 265.278 9.90846   3
   2  -4 -11 3.70806 2.62048   2
   2  -4 -11 2.31540 2.29232   3
  -2   4  11 1.16830 2.41210   3
  -2   4  11 1.13800 1.81273   1
   1  -4 -11 7.64126 2.69697   2
   1  -4 -11 6.94709 2.28040   3
  -1   4  11 7.97568 2.00333   1
  -1   4  11 5.47719 2.33830   3
   0  -4 -11 43.6405 4.84623   2
   0  -4 -11 41.1074 3.86313   3
   0   4  11 39.2681 3.49312   1
  -1  -4 -11 162.723 6.67650   3
  -1  -4 -11 168.530 7.44986   2
   1   4  11 177.433 6.80915   1
  -2  -4 -11 1.15406 1.91983   3
  -2  -4 -11 3.71543 2.61455   2
   2   4  11 0.44819 1.73645   1
  -3  -4 -11 14.4163 2.85979   2
  -3  -4 -11 11.5407 3.24960   3
   3   4  11 12.9100 3.00356   1
  -4  -4 -11 24.9436 3.91290   3
  -4  -4 -11 27.1085 5.06252   2
   4   4  11 28.4412 3.37791   1
  -5  -4 -11 16.8549 3.58009   2
   5   4  11 15.9087 3.48841   1
  -6  -4 -11 -1.6523 3.22697   2
   6   4  11 -1.7467 1.93466   1
   7   4  11 0.55047 2.18690   1
  -8  -4 -11 46.1910 6.79258   2
   8   4  11 55.3759 5.20781   1
  -9  -4 -11 4.19741 4.35193   2
   9   4  11 -3.0025 2.84248   1
   9   4  11 6.58969 3.62069   2
 -10  -4 -11 1.20615 4.79833   2
  10   4  11 0.70851 3.35633   1
  10   4  11 4.29030 3.93463   2
   7  -5 -11 -5.2820 4.69435   2
   7  -5 -11 -11.882 4.38249   3
  -7   5  11 -7.9568 4.22869   3
   6  -5 -11 -10.334 3.72178   3
   6  -5 -11 -0.6674 4.17014   2
  -6   5  11 -0.5967 3.81597   3
   5  -5 -11 14.6818 3.63063   3
   5  -5 -11 15.6479 4.31511   2
  -5   5  11 6.39270 3.63460   3
   4  -5 -11 4.20632 3.36252   2
   4  -5 -11 -1.3985 2.71978   3
  -4   5  11 3.38571 2.13821   1
  -4   5  11 2.75262 2.93426   3
   3  -5 -11 8.13572 2.82617   3
   3  -5 -11 19.0472 3.67227   2
  -3   5  11 13.6148 3.08978   3
  -3   5  11 12.0094 2.39849   1
   2  -5 -11 1.87017 2.87103   2
   2  -5 -11 1.36924 2.36300   3
  -2   5  11 1.60924 2.29378   3
  -2   5  11 0.91776 1.84962   1
   1  -5 -11 117.232 5.85577   3
   1  -5 -11 119.759 7.10688   2
  -1   5  11 117.179 5.83344   3
  -1   5  11 118.398 5.51313   1
   0  -5 -11 35.3799 5.12474   2
   0  -5 -11 26.8200 3.62614   3
   0   5  11 34.2578 3.40530   1
  -1  -5 -11 28.9818 4.92520   2
  -1  -5 -11 46.2743 3.76345   3
   1   5  11 38.3444 3.57898   1
  -2  -5 -11 29.1124 5.00988   2
  -2  -5 -11 27.5532 3.76463   3
   2   5  11 25.4785 3.26829   1
  -3  -5 -11 98.3999 6.75012   2
  -3  -5 -11 113.448 6.99044   3
   3   5  11 110.462 5.18116   1
  -4  -5 -11 10.4698 3.15591   2
   4   5  11 16.0562 3.06747   1
  -5  -5 -11 4.71269 3.23147   2
  -6  -5 -11 3.97335 3.65477   2
   6   5  11 4.33868 2.01936   1
  -7  -5 -11 2.69506 3.66048   2
   7   5  11 1.48586 2.08503   1
  -8  -5 -11 41.7049 7.17889   2
   8   5  11 45.2437 4.88514   1
  -9  -5 -11 3.40825 4.58910   2
   9   5  11 3.54832 2.87506   1
 -10  -5 -11 1.02178 5.11805   2
  10   5  11 -2.5519 3.34660   1
  10   5  11 4.59334 3.99573   2
   7  -6 -11 9.28017 5.37034   2
  -7   6  11 11.0344 5.00927   3
   6  -6 -11 0.46797 4.78029   2
  -6   6  11 -0.8764 4.39497   3
   5  -6 -11 -2.6591 3.88362   2
  -5   6  11 -8.4663 3.28013   3
   4  -6 -11 -1.2665 3.85666   2
   4  -6 -11 0.69881 2.97565   3
  -4   6  11 0.19905 3.04428   3
   3  -6 -11 95.2784 7.38209   2
   3  -6 -11 85.7690 5.97849   3
  -3   6  11 83.2202 6.08797   3
  -3   6  11 83.6353 5.14994   1
   2  -6 -11 23.5962 6.18724   2
   2  -6 -11 13.3760 2.81756   3
  -2   6  11 17.1538 3.60535   1
  -2   6  11 11.3566 2.71407   3
   1  -6 -11 2.56073 2.19951   3
   1  -6 -11 -1.3528 3.07281   2
  -1   6  11 -0.8317 1.76192   1
  -1   6  11 0.07222 2.24209   3
   0  -6 -11 -1.1930 2.06442   3
   0  -6 -11 0.13802 2.90405   2
   0   6  11 0.77126 1.99102   3
   0   6  11 -1.1778 1.66041   1
  -1  -6 -11 262.820 10.5135   2
   1   6  11 264.566 9.33433   1
  -2  -6 -11 52.6033 5.71711   2
   2   6  11 59.6381 4.02142   1
  -3  -6 -11 1.74357 3.19446   2
   3   6  11 5.93712 1.82488   1
  -4  -6 -11 177.532 8.94074   2
  -5  -6 -11 21.5502 5.78144   2
   5   6  11 23.7163 3.62717   1
  -6  -6 -11 28.3985 6.93700   2
   6   6  11 33.6633 4.07136   1
  -7  -6 -11 3.45443 4.23599   2
   7   6  11 1.71996 2.26382   1
  -8  -6 -11 0.84861 4.07856   2
   8   6  11 -1.0514 2.40343   1
  -9  -6 -11 -2.5547 4.68873   2
   9   6  11 -0.5591 2.75130   1
   7  -7 -11 1.83481 5.69847   2
  -7   7  11 4.69473 5.48358   3
   6  -7 -11 -4.2177 4.69265   2
  -6   7  11 -0.8598 4.50751   3
   5  -7 -11 54.8564 8.19826   2
  -5   7  11 43.8357 7.52256   3
   4  -7 -11 -2.0196 4.17600   2
  -4   7  11 -2.4654 3.28896   3
   3  -7 -11 1.43578 3.82871   2
   3  -7 -11 0.65399 2.80679   3
  -3   7  11 3.26708 2.29473   1
  -3   7  11 1.50573 2.93952   3
   2  -7 -11 7.41170 4.78833   2
   2  -7 -11 3.98329 2.53771   3
  -2   7  11 1.58179 2.05386   1
  -2   7  11 8.20176 2.72828   3
   1  -7 -11 34.6214 4.23637   3
   1  -7 -11 24.9991 6.35958   2
  -1   7  11 29.6569 4.30257   3
  -1   7  11 28.8731 3.80636   1
   0  -7 -11 116.115 6.31725   3
   0  -7 -11 107.067 7.58230   2
   0   7  11 99.5749 5.34412   3
   0   7  11 106.611 5.39109   1
  -1  -7 -11 39.8717 6.38374   2
   1   7  11 45.5705 3.99052   1
  -2  -7 -11 -0.3043 3.31826   2
   2   7  11 1.76993 1.79707   1
  -3  -7 -11 31.4130 6.54718   2
   4   7  11 0.57705 1.85317   1
  -5  -7 -11 8.28837 4.14746   2
   5   7  11 4.94855 2.00701   1
  -6  -7 -11 0.65870 4.23820   2
   6   7  11 1.46124 2.02712   1
  -7  -7 -11 3.83496 4.52979   2
   7   7  11 1.56552 2.27405   1
  -8  -7 -11 -4.6811 4.44848   2
   8   7  11 0.98517 2.62787   1
  -9  -7 -11 7.73917 4.69888   2
   9   7  11 -1.0426 2.82627   1
   6  -8 -11 4.94505 5.06630   2
  -6   8  11 0.09157 4.94284   3
   5  -8 -11 24.0432 5.59911   2
  -5   8  11 39.0511 7.96221   3
   4  -8 -11 7.98810 4.85991   2
   3  -8 -11 7.78182 4.46280   2
  -3   8  11 0.63936 2.92189   1
  -3   8  11 -4.7346 3.06653   3
   2  -8 -11 24.6725 4.76980   3
   2  -8 -11 39.3764 7.82393   2
  -2   8  11 19.0256 4.82450   3
  -2   8  11 12.9728 2.54907   1
   1  -8 -11 2.56424 4.11808   2
  -1   8  11 2.38313 2.09492   1
   0  -8 -11 0.74882 3.82264   2
   0   8  11 0.86955 2.02512   1
  -1  -8 -11 44.8095 6.97094   2
   1   8  11 49.0421 4.18612   1
  -2  -8 -11 70.8044 7.27671   2
   2   8  11 70.4357 4.65302   1
  -3  -8 -11 1.49595 4.02313   2
   3   8  11 1.27321 2.07601   1
  -4  -8 -11 5.20032 3.88201   2
   4   8  11 6.47311 2.41242   1
  -5  -8 -11 36.3598 7.36312   2
   5   8  11 13.1679 2.63039   1
  -6  -8 -11 14.6648 4.77775   2
   6   8  11 11.1372 2.64586   1
  -7  -8 -11 0.78950 4.77302   2
   7   8  11 1.85280 2.56653   1
  -8  -8 -11 14.6315 5.49015   2
   8   8  11 15.7208 3.43513   1
   5  -9 -11 16.3148 6.05178   2
  -5   9  11 20.9432 5.22055   3
   4  -9 -11 19.4632 5.94395   2
  -4   9  11 29.1538 7.18903   3
   3  -9 -11 1.82844 5.20472   2
   2  -9 -11 28.1318 5.60233   2
  -2   9  11 19.8109 4.50232   1
   1  -9 -11 23.5152 5.26063   2
  -1   9  11 14.9447 2.72052   1
   0  -9 -11 159.085 10.2018   2
  -1  -9 -11 4.07847 4.25299   2
   1   9  11 7.83626 2.52204   1
  -2  -9 -11 31.3518 7.37179   2
   2   9  11 38.0374 4.62548   1
  -3  -9 -11 39.4409 8.04267   2
   3   9  11 42.7087 4.61983   1
  -4  -9 -11 123.470 9.68093   2
   4   9  11 136.482 6.79664   1
  -5  -9 -11 4.31006 4.41730   2
   5   9  11 5.77636 2.68743   1
  -6  -9 -11 2.61338 4.79420   2
   6   9  11 0.85435 2.56628   1
  -7  -9 -11 39.2850 9.37211   2
   7   9  11 28.2979 5.32724   1
  -8  -9 -11 -0.9287 5.96319   2
   8   9  11 2.16012 3.13593   1
   4 -10 -11 51.1884 10.6816   2
   3 -10 -11 10.2935 6.21473   2
   2 -10 -11 82.5026 10.3600   2
   1 -10 -11 1.44110 4.88004   2
  -1  10  11 2.55027 2.49006   1
   0 -10 -11 11.7796 4.95565   2
   0  10  11 8.42632 2.85610   1
  -1 -10 -11 9.89328 5.05200   2
   1  10  11 19.7093 4.81624   1
  -2 -10 -11 12.5122 5.19141   2
   2  10  11 24.9366 4.70084   1
  -3 -10 -11 22.3424 5.45438   2
   3  10  11 18.6189 4.47181   1
  -4 -10 -11 11.2609 5.45924   2
   4  10  11 20.3754 4.83321   1
  -5 -10 -11 -2.1032 4.96727   2
   5  10  11 7.20905 2.95829   1
  -6 -10 -11 0.98442 5.01272   2
   6  10  11 2.31198 2.91449   1
  -7 -10 -11 -1.7649 5.92494   2
   7  10  11 3.57836 3.01868   1
   3 -11 -11 3.09648 6.43690   2
   2 -11 -11 -7.1759 6.01107   2
   1 -11 -11 11.0161 5.53253   2
  -1  11  11 7.49856 2.90420   1
   0 -11 -11 18.0332 5.59708   2
   0  11  11 17.8732 3.45758   1
  -1 -11 -11 12.9415 5.34420   2
   1  11  11 9.94509 2.94840   1
  -2 -11 -11 4.66273 5.49329   2
   2  11  11 1.04066 2.83906   1
  -3 -11 -11 -2.4685 5.55135   2
   3  11  11 2.67682 3.21796   1
  -4 -11 -11 39.4970 10.2810   2
   4  11  11 63.8985 6.22281   1
  -5 -11 -11 17.1432 6.18562   2
   5  11  11 15.2239 3.59072   1
  -6 -11 -11 5.36083 6.37874   2
   0 -12 -11 16.4315 6.75715   2
   0  12  11 32.4764 6.37435   1
  -1 -12 -11 8.65597 6.42134   2
   1  12  11 11.1064 3.55319   1
  -2 -12 -11 47.3832 11.2166   2
   2  12  11 38.9663 6.54541   1
  -3 -12 -11 57.2217 12.2038   2
   3  12  11 60.8180 6.78682   1
   2   7 -12 -0.2296 4.65073   3
  -2  -7  12 2.22399 4.24557   1
   1   7 -12 -0.7901 4.53394   3
  -1  -7  12 -2.5664 3.91962   1
   0   7 -12 27.0035 5.39266   3
   0  -7  12 37.6656 7.38275   1
  -1   7 -12 1.10375 4.66342   3
   1  -7  12 2.66787 3.65208   1
  -2   7 -12 1.08639 4.12449   3
   2  -7  12 5.97506 3.62414   1
  -3   7 -12 12.5558 4.79278   3
   3  -7  12 10.4306 3.96904   1
  -4   7 -12 -5.9273 4.77674   3
   4  -7  12 -3.6239 3.64739   1
   4   6 -12 -3.8359 5.48451   3
  -4  -6  12 10.3843 4.82962   1
   3   6 -12 -6.1841 4.58626   3
  -3  -6  12 -8.2550 3.83253   1
   2   6 -12 4.27589 4.41663   3
  -2  -6  12 -0.3623 3.58187   1
   1   6 -12 46.6404 7.86086   3
  -1  -6  12 54.1616 7.18055   1
   0   6 -12 13.1908 4.33206   3
   0  -6  12 13.2411 3.62244   1
  -1   6 -12 -1.5652 4.23401   3
   1  -6  12 0.86156 3.12733   1
  -2   6 -12 6.11866 4.06831   3
   2  -6  12 9.33281 3.40595   1
  -3   6 -12 -5.4670 3.75680   3
   3  -6  12 -4.6347 3.00345   1
  -4   6 -12 -3.3751 4.17495   3
   4  -6  12 0.16638 3.20963   1
  -5   6 -12 -1.5249 4.59146   3
   5  -6  12 2.43955 3.58735   1
   5   5 -12 -0.7367 5.12570   3
  -5  -5  12 5.55761 4.73625   1
   4   5 -12 12.9828 4.88566   3
  -4  -5  12 6.08264 4.32458   1
   3   5 -12 19.2356 5.05456   3
  -3  -5  12 14.5778 4.09830   1
   2   5 -12 -1.1758 4.01054   3
  -2  -5  12 3.68142 3.31636   1
   1   5 -12 25.3449 6.70758   3
  -1  -5  12 9.86157 3.43162   1
   0   5 -12 8.75654 4.17424   3
   0  -5  12 8.33263 3.09190   1
  -1   5 -12 12.2620 3.94448   3
   1  -5  12 9.22025 3.04994   1
  -2   5 -12 3.45687 3.85614   3
   2  -5  12 1.43053 2.97111   1
  -3   5 -12 -0.6497 3.70615   3
   3  -5  12 2.54311 2.83056   1
  -4   5 -12 9.64286 4.09803   3
   4  -5  12 12.3431 3.30368   1
  -5   5 -12 7.25130 4.30939   3
   5  -5  12 8.48457 3.34790   1
  -6   5 -12 1.82126 4.73947   3
   6  -5  12 10.8681 3.64517   1
  -7   5 -12 9.64006 5.59862   3
   7  -5  12 10.1592 3.94731   1
  -6  -4  12 3.88879 5.04015   1
   5   4 -12 6.30581 4.41909   3
  -5  -4  12 -0.2480 4.20855   1
   4   4 -12 10.0533 4.72569   3
  -4  -4  12 9.24185 4.13592   1
   3   4 -12 3.73789 3.90263   3
  -3  -4  12 3.56975 3.54531   1
   2   4 -12 11.3031 4.10334   3
  -2  -4  12 6.32296 3.18746   1
   1   4 -12 28.6328 6.16208   3
  -1  -4  12 28.8295 5.51831   1
   0   4 -12 3.14519 3.29679   3
   0  -4  12 -0.0634 2.74052   1
  -1   4 -12 12.2625 3.55275   3
   1  -4  12 22.7243 4.87345   1
  -2   4 -12 9.70447 3.74841   3
   2  -4  12 17.9273 4.47029   1
  -3   4 -12 31.6584 6.29665   3
   3  -4  12 41.2982 4.88013   1
  -4   4 -12 -1.6484 3.56230   3
   4  -4  12 -0.5207 2.52285   1
  -5   4 -12 5.26329 4.00853   3
   5  -4  12 13.1699 3.13211   1
  -6   4 -12 5.02009 4.48642   3
   6  -4  12 4.88099 3.10652   1
  -7   4 -12 8.49955 4.93620   3
   7  -4  12 2.52130 3.40417   1
   6   3 -12 3.37405 4.76744   3
  -6  -3  12 5.37976 4.46433   1
   5   3 -12 10.9138 4.65222   3
  -5  -3  12 18.3317 4.52978   1
   4   3 -12 7.62970 3.92156   3
  -4  -3  12 9.14813 3.46375   1
   3   3 -12 4.88334 3.85323   3
  -3  -3  12 2.47848 2.98016   1
   2   3 -12 42.9515 6.58006   3
  -2  -3  12 46.5099 5.85182   1
   1   3 -12 -1.2067 3.39246   3
  -1  -3  12 4.26773 2.83327   1
   0   3 -12 7.27209 3.30016   3
   0  -3  12 18.5064 4.46874   1
  -1   3 -12 108.258 7.20846   3
   1  -3  12 108.639 6.15976   1
  -2   3 -12 21.8593 5.53975   3
   2  -3  12 13.5137 2.76323   1
  -3   3 -12 44.4824 6.31938   3
   3  -3  12 33.3603 4.74087   1
  -4   3 -12 11.3621 3.66651   3
   4  -3  12 14.7979 2.89608   1
  -5   3 -12 -5.4274 3.65197   3
   5  -3  12 7.27721 2.59345   1
  -6   3 -12 -2.0925 3.82340   3
   6  -3  12 0.30744 2.69195   1
  -7   3 -12 15.7886 4.70987   3
   7  -3  12 22.1471 5.60068   1
  -8   3 -12 3.76683 4.86631   3
   8  -3  12 9.42155 3.50536   1
  -7  -2  12 -3.2268 4.82868   3
   6   2 -12 2.29023 4.46725   3
  -6  -2  12 -0.6390 4.04368   1
   5   2 -12 -2.3440 4.20571   3
  -5  -2  12 4.32119 3.81891   1
   4   2 -12 -0.6591 3.62192   3
  -4  -2  12 -0.6441 3.04038   1
   3   2 -12 12.6065 3.75126   3
  -3  -2  12 6.72930 2.97131   1
   2   2 -12 2.81481 3.40070   3
  -2  -2  12 7.22309 2.60298   1
   1   2 -12 8.69858 3.25978   3
  -1  -2  12 7.09556 2.45919   1
   0   2 -12 204.368 11.9711   3
   0  -2  12 212.211 8.90959   1
  -1   2 -12 51.4345 5.76925   3
   1  -2  12 51.1499 4.78014   1
  -2   2 -12 19.1993 3.51513   3
   2  -2  12 20.1585 3.97179   1
  -3   2 -12 68.7613 6.30761   3
   3  -2  12 78.5490 5.38506   1
  -4   2 -12 -1.6965 3.03324   3
   4  -2  12 4.26338 2.35140   1
  -5   2 -12 -3.3068 3.82998   3
   5  -2  12 1.10344 2.30971   1
  -6   2 -12 4.06097 3.74994   3
   6  -2  12 1.21518 2.52912   1
  -7   2 -12 4.92030 4.30784   3
   7  -2  12 4.18765 2.84760   1
  -8   2 -12 -3.1585 4.44282   3
   8  -2  12 0.48054 3.18763   1
  -9   2 -12 16.2224 5.68551   3
   9  -2  12 13.6467 4.00810   1
   7   1 -12 -4.0284 4.71287   3
  -7  -1  12 2.39816 4.57652   3
   6   1 -12 -4.9782 4.26180   3
  -6  -1  12 3.06923 4.33026   3
   5   1 -12 4.67444 3.73334   3
  -5  -1  12 1.10920 3.81653   3
   4   1 -12 35.8728 6.37095   3
  -4  -1  12 27.2960 4.69572   1
   3   1 -12 25.3962 6.09020   3
  -3  -1  12 28.9493 4.96036   1
   2   1 -12 41.0196 6.23648   3
  -2  -1  12 39.9261 4.87113   1
   1   1 -12 24.2942 5.17216   3
  -1  -1  12 27.2267 4.35320   1
   0   1 -12 102.431 6.76090   3
   0  -1  12 96.2102 5.65110   1
  -1   1 -12 15.8556 3.14915   3
   1  -1  12 18.0623 3.98501   1
  -2   1 -12 247.651 10.0949   3
   2  -1  12 254.769 10.8480   1
  -3   1 -12 12.7571 3.15080   3
   3  -1  12 7.46406 3.19150   1
  -4   1 -12 -0.2672 2.89274   3
   4  -1  12 -0.0617 2.18002   1
  -5   1 -12 43.5747 6.28866   3
   5  -1  12 42.4378 4.67438   1
  -6   1 -12 27.5623 6.24591   3
   6  -1  12 27.5341 4.72336   1
  -7   1 -12 10.2573 4.32100   3
   7  -1  12 11.7165 3.16390   1
  -8   1 -12 11.4903 4.38884   3
   8  -1  12 10.0675 3.34091   1
  -9   1 -12 -3.5761 5.14244   3
   9  -1  12 4.01140 3.49969   1
   7   0 -12 7.92550 4.74981   3
  -7   0  12 2.61945 4.53390   3
   6   0 -12 7.25985 4.27286   3
  -6   0  12 -1.3118 4.04041   3
   5   0 -12 -4.2091 3.62420   3
  -5   0  12 2.29491 3.61506   3
  -5   0  12 1.76934 3.38362   1
   4   0 -12 1.62151 3.25123   3
  -4   0  12 -1.7155 3.18518   3
  -4   0  12 5.44082 2.91986   1
   3   0 -12 29.2092 5.36117   3
  -3   0  12 29.2245 4.68255   1
   2   0 -12 9.03244 3.16076   3
  -2   0  12 6.05409 2.55784   1
   1   0 -12 35.7404 5.09296   3
  -1   0  12 22.2954 4.09396   1
   0   0 -12 306.827 11.3140   3
   0   0  12 313.947 10.8683   1
  -1   0 -12 48.0443 5.15685   2
  -1   0 -12 51.1620 5.22023   3
   1   0  12 54.0620 4.36061   1
  -2   0 -12 88.7840 5.23191   2
  -2   0 -12 86.0853 5.99003   3
   2   0  12 87.8165 5.19493   1
  -3   0 -12 11.0855 2.94378   3
  -3   0 -12 10.7813 3.55270   2
   3   0  12 10.8920 2.27677   1
  -4   0 -12 139.710 6.56837   2
  -4   0 -12 146.802 7.54924   3
  -5   0 -12 3.44999 3.21508   3
  -5   0 -12 1.38293 2.83404   2
   5   0  12 1.78380 2.15179   1
   5   0  12 1.06765 2.25401   2
  -6   0 -12 12.3796 3.29504   2
  -6   0 -12 7.54117 3.56232   3
   6   0  12 10.8394 2.65616   2
   6   0  12 10.2612 2.65370   1
  -7   0 -12 6.29748 4.04098   3
  -7   0 -12 1.29643 3.56709   2
   7   0  12 5.46977 2.87164   2
   7   0  12 9.63639 3.02494   1
  -8   0 -12 2.68506 4.12264   2
   8   0  12 4.56085 3.61469   2
   8   0  12 7.43869 2.93821   1
  -9   0 -12 14.6456 5.10471   2
   9   0  12 13.7949 3.47143   1
   7  -1 -12 4.81839 4.85873   3
  -7   1  12 4.71005 4.78435   3
   6  -1 -12 4.60575 4.13846   3
  -6   1  12 5.48244 3.96405   3
   5  -1 -12 12.6234 3.84428   2
   5  -1 -12 16.3889 4.07306   3
  -5   1  12 14.4343 4.03538   3
  -5   1  12 12.5817 3.49501   1
   4  -1 -12 32.1313 5.33303   2
   4  -1 -12 19.2479 3.87046   3
  -4   1  12 30.2906 5.97209   3
  -4   1  12 30.7629 5.03100   1
   3  -1 -12 7.45000 2.82912   2
  -3   1  12 6.82510 2.60631   1
   2  -1 -12 21.2745 4.21144   2
  -2   1  12 17.9948 4.09757   1
   1  -1 -12 71.6161 5.57548   3
   1  -1 -12 67.0457 4.67869   2
  -1   1  12 69.6326 4.69069   1
   0  -1 -12 17.2290 4.48357   3
   0  -1 -12 20.5088 4.00718   2
   0   1  12 20.4436 3.87821   1
  -1  -1 -12 55.6600 5.09958   3
  -1  -1 -12 50.5398 4.40575   2
   1   1  12 65.0407 4.40103   1
  -2  -1 -12 173.860 7.26649   2
  -2  -1 -12 174.302 7.72947   3
   2   1  12 178.077 7.30649   1
  -3  -1 -12 95.2336 5.95851   3
  -3  -1 -12 88.4870 5.59101   2
   3   1  12 92.2787 5.22859   1
  -4  -1 -12 164.640 7.56106   3
  -4  -1 -12 157.721 7.26140   2
   4   1  12 148.502 9.20962   1
  -5  -1 -12 2.64808 2.86720   2
  -5  -1 -12 0.91989 2.93237   3
   5   1  12 5.46452 2.18732   1
  -6  -1 -12 59.7163 6.32668   3
  -6  -1 -12 62.0229 6.01379   2
   6   1  12 52.4092 5.05182   2
   6   1  12 56.0860 4.76137   1
  -7  -1 -12 0.03150 3.56769   3
  -7  -1 -12 -2.1502 3.37667   2
   7   1  12 0.85803 2.74801   2
   7   1  12 1.71714 2.36719   1
   8   1  12 3.18513 2.73153   1
  -9  -1 -12 5.41311 4.75529   2
   9   1  12 2.82366 3.18789   1
   9   1  12 0.79732 3.62838   2
   7  -2 -12 15.3524 4.90354   3
   7  -2 -12 3.88567 5.05382   2
  -7   2  12 10.5918 4.74462   3
   6  -2 -12 6.83119 4.17947   3
  -6   2  12 3.62758 4.24430   3
   5  -2 -12 7.65850 3.81535   3
   5  -2 -12 6.60914 3.73250   2
  -5   2  12 2.60561 3.60114   3
  -5   2  12 9.51717 3.17206   1
   4  -2 -12 3.26953 3.09900   2
   4  -2 -12 -1.3341 3.04383   3
  -4   2  12 -1.0825 3.13085   3
  -4   2  12 2.23398 2.50390   1
   3  -2 -12 8.25447 3.00033   2
   3  -2 -12 1.60818 3.00218   3
  -3   2  12 1.66590 2.37183   1
  -3   2  12 4.28973 3.05461   3
   2  -2 -12 3.12265 2.69600   2
   2  -2 -12 -0.4575 2.51300   3
  -2   2  12 -0.3808 2.73917   3
  -2   2  12 3.33465 2.22427   1
   1  -2 -12 8.52171 2.75066   3
   1  -2 -12 7.05582 2.55710   2
  -1   2  12 9.24274 2.21826   1
   0  -2 -12 12.0854 2.75797   3
   0  -2 -12 11.6282 2.62493   2
   0   2  12 17.9658 3.45741   1
  -1  -2 -12 224.403 8.70068   3
  -1  -2 -12 211.776 8.51054   2
   1   2  12 219.054 8.27505   1
  -2  -2 -12 9.16534 2.47379   3
  -2  -2 -12 1.00069 2.57682   2
   2   2  12 1.57270 1.81091   1
  -3  -2 -12 116.671 6.37654   2
  -3  -2 -12 124.777 6.23659   3
   3   2  12 112.768 5.76017   1
  -4  -2 -12 306.084 10.7350   3
  -4  -2 -12 300.278 11.0093   2
   4   2  12 283.637 11.1483   1
  -5  -2 -12 44.1975 5.32706   3
  -5  -2 -12 51.8282 5.63439   2
   5   2  12 51.8869 4.42967   1
  -6  -2 -12 42.6591 5.41721   3
  -6  -2 -12 24.8581 5.63891   2
   6   2  12 27.9845 4.36722   1
  -7  -2 -12 14.1873 3.98398   2
   7   2  12 11.1948 2.80652   1
  -8  -2 -12 -3.5717 3.92013   2
   8   2  12 -0.1129 3.11409   2
   8   2  12 3.70832 2.72659   1
  -9  -2 -12 30.4974 7.57606   2
   9   2  12 16.1753 3.41770   1
   9   2  12 13.5871 3.93379   2
 -10  -2 -12 11.7130 5.59104   2
   7  -3 -12 4.74271 5.25349   2
   7  -3 -12 1.82757 4.52050   3
  -7   3  12 2.41652 4.64364   3
   6  -3 -12 6.69063 4.49159   2
   6  -3 -12 5.79580 4.28466   3
  -6   3  12 9.80951 4.27654   3
   5  -3 -12 4.22296 3.60860   3
   5  -3 -12 -6.3860 3.58170   2
  -5   3  12 -3.0985 3.54665   3
   4  -3 -12 3.66449 3.18391   3
   4  -3 -12 6.79260 3.41356   2
  -4   3  12 3.92255 3.37373   3
  -4   3  12 -0.0253 2.46964   1
   3  -3 -12 3.76281 3.03045   3
   3  -3 -12 3.73841 3.01006   2
  -3   3  12 3.22434 2.19102   1
  -3   3  12 3.73577 3.07748   3
   2  -3 -12 27.6452 5.27338   2
   2  -3 -12 14.3033 3.18981   3
  -2   3  12 24.6206 4.07094   1
  -2   3  12 20.5203 5.26292   3
   1  -3 -12 30.2367 4.75348   2
   1  -3 -12 34.5254 4.67950   3
  -1   3  12 38.2114 4.05500   1
   0  -3 -12 18.1117 4.52045   2
   0  -3 -12 23.5008 4.43729   3
   0   3  12 21.6523 3.65235   1
  -1  -3 -12 25.7840 4.69172   2
  -1  -3 -12 30.9822 4.55280   3
   1   3  12 19.2821 3.49834   1
  -2  -3 -12 3.93082 2.39396   3
  -2  -3 -12 5.49285 2.80425   2
   2   3  12 7.12517 2.03829   1
  -3  -3 -12 475.168 15.4085   2
  -3  -3 -12 458.465 14.7856   3
   3   3  12 481.095 15.1150   1
  -4  -3 -12 50.7480 5.62624   2
  -4  -3 -12 44.4317 4.98623   3
   4   3  12 39.0626 6.02994   1
  -5  -3 -12 33.3429 4.91864   3
  -5  -3 -12 24.5885 5.75728   2
   5   3  12 27.8357 3.97659   1
  -6  -3 -12 52.3496 6.35644   2
   6   3  12 55.0287 4.63090   1
  -7  -3 -12 11.7048 5.10303   2
   7   3  12 11.3547 2.82102   1
  -8  -3 -12 3.21859 4.14702   2
   8   3  12 2.49902 2.57888   1
  -9  -3 -12 -5.0313 4.47913   2
   9   3  12 -1.0520 2.96277   1
   9   3  12 1.49043 3.62375   2
 -10  -3 -12 4.18433 5.07465   2
   7  -4 -12 1.94758 5.39527   2
   7  -4 -12 3.22556 4.60006   3
  -7   4  12 2.53685 4.92550   3
   6  -4 -12 3.73152 4.72753   2
   6  -4 -12 -0.3545 4.01933   3
  -6   4  12 3.55162 4.09399   3
   5  -4 -12 -0.1237 3.48098   3
   5  -4 -12 -4.5448 3.84203   2
  -5   4  12 -7.4634 3.46957   3
   4  -4 -12 29.1905 6.49771   2
   4  -4 -12 18.3657 3.76820   3
  -4   4  12 18.5990 3.77385   3
  -4   4  12 19.8454 4.58393   1
   3  -4 -12 15.0365 3.51412   2
   3  -4 -12 22.7151 4.91975   3
  -3   4  12 25.4644 4.41017   1
  -3   4  12 14.1575 3.30883   3
   2  -4 -12 21.6307 4.79870   3
   2  -4 -12 25.8278 5.96803   2
  -2   4  12 15.7336 3.22796   3
  -2   4  12 22.9712 4.03140   1
   1  -4 -12 2.34522 2.46829   3
   1  -4 -12 -0.3157 2.88092   2
  -1   4  12 2.90014 2.48108   3
  -1   4  12 2.80432 2.03239   1
   0  -4 -12 18.8955 4.93315   2
   0  -4 -12 11.6821 2.73820   3
   0   4  12 15.7504 3.52071   1
  -1  -4 -12 137.616 7.00323   2
  -1  -4 -12 137.031 6.41472   3
   1   4  12 135.183 6.15315   1
  -2  -4 -12 3.02561 2.94253   2
  -2  -4 -12 1.14756 2.31277   3
   2   4  12 3.10433 1.94272   1
  -3  -4 -12 117.128 6.94202   2
  -3  -4 -12 113.973 5.79528   3
   3   4  12 114.395 5.78688   1
  -4  -4 -12 32.5562 5.88912   2
   4   4  12 23.5246 4.60174   1
  -5  -4 -12 199.664 9.38192   2
   5   4  12 193.989 8.02417   1
  -6  -4 -12 -2.9504 3.53555   2
  -7  -4 -12 6.56310 4.06549   2
   7   4  12 6.86152 2.67581   1
  -8  -4 -12 28.5281 7.16782   2
   8   4  12 18.2892 4.79313   1
  -9  -4 -12 0.25836 4.63839   2
   9   4  12 7.49815 3.23661   1
   9   4  12 10.5803 4.15971   2
   7  -5 -12 3.92169 5.76763   2
   7  -5 -12 -6.1503 4.60625   3
  -7   5  12 2.49194 4.84867   3
   6  -5 -12 2.82743 4.90562   2
   6  -5 -12 2.76919 4.17370   3
  -6   5  12 1.63194 4.30840   3
   5  -5 -12 5.39762 3.60361   3
   5  -5 -12 6.73712 4.30955   2
  -5   5  12 4.43620 3.82109   3
   4  -5 -12 52.7062 7.42624   2
   4  -5 -12 29.3352 5.72775   3
  -4   5  12 29.4129 5.81111   3
   3  -5 -12 2.01062 2.98873   3
   3  -5 -12 3.71258 3.54891   2
  -3   5  12 1.35851 3.05349   3
  -3   5  12 4.84526 2.45418   1
   2  -5 -12 23.4023 6.40939   2
   2  -5 -12 21.9302 4.87816   3
  -2   5  12 13.7755 2.70870   1
  -2   5  12 15.7950 3.24536   3
   1  -5 -12 29.2984 6.06259   2
   1  -5 -12 20.8171 4.82131   3
  -1   5  12 33.1601 4.09107   1
  -1   5  12 36.7718 4.84971   3
   0  -5 -12 31.7190 5.42253   2
   0  -5 -12 26.5937 4.49866   3
   0   5  12 23.6873 3.63389   1
  -1  -5 -12 1.62237 2.82775   2
  -1  -5 -12 -3.8346 2.36771   3
   1   5  12 0.52167 1.98641   1
  -2  -5 -12 8.22505 3.16994   2
  -2  -5 -12 5.31394 2.45493   3
   2   5  12 3.99207 1.95973   1
  -3  -5 -12 226.629 9.93880   2
  -4  -5 -12 37.8501 6.21785   2
   4   5  12 26.9793 3.97214   1
  -5  -5 -12 31.7322 6.61882   2
   5   5  12 27.2395 4.19929   1
  -6  -5 -12 1.10272 4.21407   2
   6   5  12 6.45474 2.35265   1
  -7  -5 -12 123.776 9.20546   2
   7   5  12 133.113 6.99568   1
  -8  -5 -12 2.78812 4.25960   2
   8   5  12 -3.1896 2.68165   1
  -9  -5 -12 7.05218 4.86052   2
   9   5  12 -2.9530 3.00247   1
   6  -6 -12 6.61861 4.42731   3
   6  -6 -12 6.01329 5.11454   2
  -6   6  12 -0.3021 4.48597   3
   5  -6 -12 9.90849 4.76750   2
   5  -6 -12 -1.7373 3.85584   3
  -5   6  12 0.27676 4.04791   3
   4  -6 -12 25.6422 5.64771   3
   4  -6 -12 17.8187 4.71363   2
  -4   6  12 15.0440 3.87662   3
   3  -6 -12 24.7558 5.42970   3
   3  -6 -12 37.0988 7.45350   2
  -3   6  12 25.8727 4.56858   1
  -3   6  12 22.7648 5.60919   3
   2  -6 -12 6.93980 2.85014   3
   2  -6 -12 5.15475 4.03696   2
  -2   6  12 2.82558 2.87528   3
  -2   6  12 4.63512 2.40284   1
   1  -6 -12 11.1147 4.08708   2
   1  -6 -12 13.4733 2.83602   3
  -1   6  12 15.5722 3.81630   1
  -1   6  12 11.6591 2.87627   3
   0  -6 -12 -0.1936 3.24467   2
   0  -6 -12 2.41868 2.42974   3
   0   6  12 -3.6039 1.92899   1
  -1  -6 -12 144.438 8.07314   2
   1   6  12 139.952 6.44650   1
  -2  -6 -12 29.4577 5.76085   2
  -3  -6 -12 -1.3591 3.40948   2
   3   6  12 0.16641 1.86021   1
  -4  -6 -12 0.04097 3.60167   2
   4   6  12 1.07286 2.03541   1
  -5  -6 -12 93.1938 8.01063   2
   5   6  12 83.9998 5.35541   1
  -6  -6 -12 35.6491 7.93224   2
   6   6  12 34.4362 4.60095   1
  -7  -6 -12 63.1132 9.05867   2
   7   6  12 68.0009 5.49124   1
  -8  -6 -12 4.24781 4.66136   2
   8   6  12 6.53791 2.89602   1
  -9  -6 -12 5.04421 5.23261   2
   9   6  12 10.9939 3.48667   1
   6  -7 -12 -7.9585 4.69040   3
   6  -7 -12 2.28782 5.41800   2
  -6   7  12 -4.6548 4.75325   3
   5  -7 -12 40.2576 9.69224   2
   5  -7 -12 41.4476 7.35967   3
  -5   7  12 26.2612 4.96215   3
   4  -7 -12 22.7127 5.38829   2
   4  -7 -12 11.7441 3.96755   3
  -4   7  12 17.8274 4.17609   3
   3  -7 -12 0.42610 3.23452   3
   3  -7 -12 5.10717 4.63526   2
  -3   7  12 -3.9503 2.47611   1
  -3   7  12 -2.8622 3.17268   3
   2  -7 -12 3.36665 3.04924   3
   2  -7 -12 1.66252 4.19129   2
  -2   7  12 0.91162 2.33658   1
  -2   7  12 -0.4432 2.96061   3
   1  -7 -12 30.1897 6.24641   3
   1  -7 -12 25.9728 7.07821   2
  -1   7  12 14.9957 3.12845   3
  -1   7  12 16.6148 4.11330   1
   0  -7 -12 1.10401 6.18814   2
   0   7  12 -0.1647 2.08811   1
   2   7  12 0.84526 1.91210   1
  -3  -7 -12 12.4198 4.12004   2
   3   7  12 8.77872 2.43265   1
  -4  -7 -12 72.8232 7.87800   2
   4   7  12 65.6234 5.03365   1
  -5  -7 -12 1.01868 4.43129   2
   5   7  12 5.77417 2.34555   1
  -6  -7 -12 4.91331 4.43291   2
   6   7  12 4.39914 2.39412   1
  -7  -7 -12 87.0901 9.60820   2
   7   7  12 79.1334 5.95500   1
  -8  -7 -12 -3.0413 5.08426   2
   8   7  12 0.15116 2.96830   1
   5  -8 -12 24.1916 5.95666   2
   5  -8 -12 1.83050 4.87642   3
  -5   8  12 6.46002 5.01822   3
   4  -8 -12 7.65004 3.91982   3
   4  -8 -12 7.71252 5.10957   2
  -4   8  12 3.56848 4.15801   3
   3  -8 -12 8.64602 5.15882   2
   3  -8 -12 2.07551 4.28946   3
  -3   8  12 8.21751 3.85841   3
   2  -8 -12 2.99136 4.59556   2
  -2   8  12 -0.8280 2.51611   1
   1  -8 -12 16.3854 4.86080   2
  -1   8  12 7.40381 2.67256   1
   0  -8 -12 19.5915 4.47744   2
   0   8  12 13.3748 2.84577   1
  -1  -8 -12 27.1654 6.78168   2
   1   8  12 34.3235 4.30426   1
  -2  -8 -12 19.8221 4.78910   2
   2   8  12 20.9240 4.03797   1
  -3  -8 -12 3.12204 4.67801   2
   3   8  12 6.27895 2.36263   1
  -4  -8 -12 -0.8594 4.18876   2
   4   8  12 -2.8499 2.15911   1
  -5  -8 -12 60.5077 8.62149   2
   5   8  12 42.7138 4.84033   1
  -6  -8 -12 55.5717 8.82031   2
   6   8  12 57.9691 5.48858   1
  -7  -8 -12 -3.0914 5.37058   2
   7   8  12 0.89394 2.76762   1
  -8  -8 -12 0.95536 5.58427   2
   8   8  12 6.08704 3.07305   1
   4  -9 -12 6.92750 5.83356   2
   3  -9 -12 13.7349 5.90209   2
   2  -9 -12 4.30809 5.12731   2
   1  -9 -12 34.7811 8.70249   2
  -1   9  12 34.9664 5.03215   1
   0  -9 -12 14.2845 4.68974   2
   0   9  12 9.99488 2.75532   1
  -1  -9 -12 -2.9600 4.17334   2
   1   9  12 3.07219 2.43739   1
  -2  -9 -12 8.63750 5.05427   2
   2   9  12 14.4371 2.84103   1
  -3  -9 -12 3.66703 4.85136   2
   3   9  12 6.73590 2.50961   1
  -4  -9 -12 79.1140 9.20071   2
   4   9  12 59.6230 5.40452   1
  -5  -9 -12 9.58379 5.03953   2
   5   9  12 1.71337 2.68819   1
  -6  -9 -12 -4.9716 5.16354   2
   6   9  12 -4.3291 2.66084   1
  -7  -9 -12 17.9224 6.21431   2
   3 -10 -12 15.3932 6.78810   2
   2 -10 -12 -0.3531 5.81351   2
   1 -10 -12 22.9260 5.94418   2
  -1  10  12 30.7983 5.30873   1
   0 -10 -12 7.53386 5.37424   2
   0  10  12 11.7293 3.07571   1
  -1 -10 -12 -2.8295 4.69952   2
   1  10  12 -2.2068 2.55306   1
  -2 -10 -12 8.00857 5.38068   2
   2  10  12 1.23790 2.75755   1
  -3 -10 -12 -1.0834 5.39637   2
   3  10  12 0.42243 2.92097   1
  -4 -10 -12 2.99496 5.32895   2
   4  10  12 1.98090 2.81842   1
  -5 -10 -12 15.0517 5.80991   2
   5  10  12 15.0583 3.32596   1
  -6 -10 -12 13.0349 6.19523   2
   6  10  12 7.40348 3.27396   1
   1 -11 -12 17.7226 6.49269   2
  -1  11  12 10.1094 3.56844   1
   0 -11 -12 9.03975 6.17667   2
   0  11  12 0.17290 3.11940   1
  -1 -11 -12 -7.9552 5.53045   2
   1  11  12 0.88566 3.02439   1
  -2 -11 -12 4.75937 5.84804   2
   2  11  12 2.02729 3.30277   1
  -3 -11 -12 1.87492 6.24283   2
   3  11  12 9.39094 3.47554   1
  -4 -11 -12 34.4100 7.22038   2
   4  11  12 40.1880 5.86653   1
   2   6 -13 3.15444 5.17986   3
  -2  -6  13 -10.002 4.03536   1
   1   6 -13 -4.5343 4.76431   3
  -1  -6  13 1.89620 4.33389   1
   0   6 -13 1.16849 4.54754   3
   0  -6  13 0.80997 3.78400   1
  -1   6 -13 -3.9809 4.74645   3
   1  -6  13 -0.7979 3.64297   1
  -2   6 -13 -2.9253 4.25124   3
   2  -6  13 -0.3669 3.61252   1
  -3   6 -13 3.51182 4.68110   3
   3  -6  13 15.1305 4.13114   1
  -4   6 -13 17.7186 5.24863   3
   4  -6  13 12.2637 4.25315   1
   3   5 -13 6.95044 5.42402   3
  -3  -5  13 5.60861 4.42694   1
   2   5 -13 2.13891 4.70449   3
  -2  -5  13 2.94061 4.00104   1
   1   5 -13 13.3795 4.55442   3
  -1  -5  13 9.32197 3.87409   1
   0   5 -13 4.97611 4.32244   3
   0  -5  13 9.47754 3.69811   1
  -1   5 -13 7.55612 4.32586   3
   1  -5  13 12.1893 3.68230   1
  -2   5 -13 3.37631 4.23219   3
   2  -5  13 -0.3471 3.22921   1
  -3   5 -13 13.5176 4.51264   3
   3  -5  13 9.14105 3.46527   1
  -4   5 -13 31.3394 8.14395   3
  -5   5 -13 5.60584 4.82023   3
   5  -5  13 10.8443 3.83174   1
   4   4 -13 23.0792 5.46491   3
  -4  -4  13 21.6626 4.93146   1
   3   4 -13 40.2359 8.42527   3
  -3  -4  13 20.5370 4.36644   1
   2   4 -13 4.37934 4.68186   3
  -2  -4  13 4.48755 3.61822   1
   1   4 -13 8.14255 4.31012   3
  -1  -4  13 13.1164 3.65472   1
   0   4 -13 14.7559 4.29125   3
   0  -4  13 18.0394 3.74191   1
  -1   4 -13 2.89062 3.94741   3
   1  -4  13 26.3060 5.90225   1
  -2   4 -13 1.37452 3.94266   3
   2  -4  13 5.44984 2.99975   1
  -3   4 -13 59.7576 7.45668   3
   3  -4  13 65.9215 6.29505   1
  -4   4 -13 4.70551 4.44903   3
   4  -4  13 2.49785 2.92106   1
  -5   4 -13 -7.7563 4.27617   3
   5  -4  13 -0.7951 3.02282   1
  -6   4 -13 3.28231 4.92428   3
   6  -4  13 1.64586 3.28279   1
   5   3 -13 5.45777 4.98454   3
  -5  -3  13 -4.1834 4.47439   1
   4   3 -13 17.6069 5.12898   3
  -4  -3  13 36.2130 7.74683   1
   3   3 -13 -4.0246 4.05221   3
  -3  -3  13 -1.5122 3.43589   1
  -2  -3  13 23.7672 4.04265   1
   1   3 -13 52.1738 7.49222   3
  -1  -3  13 63.9426 6.14030   1
   0   3 -13 5.73697 3.68125   3
   0  -3  13 7.52466 2.97772   1
  -1   3 -13 13.4337 3.89472   3
   1  -3  13 13.5583 2.98343   1
  -2   3 -13 16.5659 3.95376   3
   2  -3  13 9.71290 2.88101   1
  -3   3 -13 3.07917 3.70701   3
   3  -3  13 1.65930 2.69075   1
  -4   3 -13 7.50350 4.04361   3
   4  -3  13 12.6042 3.02469   1
  -5   3 -13 5.00342 4.39725   3
   5  -3  13 6.35618 3.11740   1
  -6   3 -13 3.67499 4.51081   3
   6  -3  13 8.94390 3.19822   1
  -7   3 -13 16.5895 5.38907   3
   7  -3  13 11.5281 3.79602   1
   5   2 -13 0.38752 4.68857   3
  -5  -2  13 2.05238 4.56906   1
   4   2 -13 30.2741 6.98931   3
  -4  -2  13 26.3682 4.58452   1
   3   2 -13 -2.2284 4.06549   3
  -3  -2  13 1.82123 3.29091   1
   2   2 -13 31.4371 6.68365   3
  -2  -2  13 44.7331 5.91920   1
   1   2 -13 38.5684 6.88382   3
  -1  -2  13 26.8347 4.98795   1
   0   2 -13 0.86019 3.41139   3
   0  -2  13 1.01993 2.56268   1
  -1   2 -13 22.1193 5.67033   3
   1  -2  13 22.7118 4.74910   1
  -2   2 -13 3.72699 3.32910   3
   2  -2  13 1.59870 2.30762   1
  -3   2 -13 12.2454 3.55003   3
   3  -2  13 10.0451 2.65936   1
  -4   2 -13 49.6037 7.47695   3
   4  -2  13 76.0247 5.81381   1
  -5   2 -13 2.43136 4.00315   3
   5  -2  13 0.69400 2.58897   1
  -6   2 -13 10.9529 4.43273   3
   6  -2  13 10.4718 3.22221   1
  -7   2 -13 48.9751 8.90932   3
   7  -2  13 28.2687 6.03225   1
  -8   2 -13 2.71835 5.42140   3
   8  -2  13 7.19117 3.70029   1
   6   1 -13 3.61268 4.88569   3
   5   1 -13 4.39463 4.29298   3
  -5  -1  13 -0.7732 3.90625   1
   4   1 -13 28.5822 7.28808   3
  -4  -1  13 10.6779 3.78651   1
   3   1 -13 8.57020 4.00165   3
  -3  -1  13 11.4442 3.39769   1
   2   1 -13 5.37473 3.80822   3
  -2  -1  13 11.0832 2.85302   1
   1   1 -13 1.05828 3.25902   3
  -1  -1  13 -0.2890 2.55235   1
   0   1 -13 69.3660 6.56395   3
   0  -1  13 81.5105 5.62339   1
   1  -1  13 7.23064 2.57947   1
  -2   1 -13 2.31592 3.49750   3
   2  -1  13 -0.3724 2.26887   1
  -3   1 -13 95.4244 7.54500   3
   3  -1  13 105.075 6.04454   1
   4  -1  13 21.0514 4.50312   1
  -5   1 -13 4.76777 4.09007   3
   5  -1  13 -1.2836 2.63603   1
  -6   1 -13 95.7704 8.08325   3
   6  -1  13 89.2516 6.52349   1
  -7   1 -13 11.1628 4.70372   3
   7  -1  13 2.85267 3.08684   1
  -8   1 -13 -9.7021 4.85068   3
   8  -1  13 -5.3476 3.20100   1
   6   0 -13 -9.3094 4.76704   3
  -6   0  13 2.83713 4.70865   3
   5   0 -13 13.1858 4.44764   3
  -5   0  13 10.0155 3.96467   1
  -5   0  13 7.11393 4.46113   3
   4   0 -13 3.11786 3.67288   3
  -4   0  13 4.49699 3.41836   1
   3   0 -13 5.89433 3.82548   3
  -3   0  13 9.91237 2.91534   1
   2   0 -13 7.24177 3.45824   3
  -2   0  13 7.61147 2.82912   1
   1   0 -13 13.0075 4.11430   3
  -1   0  13 16.9747 4.39836   1
   0   0 -13 62.4839 6.11710   3
   0   0  13 48.7036 5.03018   1
  -1   0 -13 -3.6411 2.84785   3
   1   0  13 2.85828 2.10584   1
  -2   0 -13 40.2000 5.90212   3
   2   0  13 46.2756 4.60293   1
  -3   0 -13 88.2207 6.96499   3
   3   0  13 86.6341 5.63708   1
  -4   0 -13 31.3881 6.08404   3
   4   0  13 32.6553 4.55556   1
  -5   0 -13 36.0900 6.41058   3
   5   0  13 36.0166 4.80968   1
  -6   0 -13 53.6182 7.14384   3
   6   0  13 62.4901 5.48903   1
  -7   0 -13 5.65276 5.02902   3
   7   0  13 1.57098 2.67101   1
   8   0  13 35.8005 5.87020   1
   6  -1 -13 0.63057 4.80182   3
  -6   1  13 -2.1314 4.51463   3
   5  -1 -13 -0.3737 4.10778   3
  -5   1  13 5.82743 4.11727   3
   4  -1 -13 2.74825 3.79145   3
  -4   1  13 0.36891 3.71670   3
   3  -1 -13 1.06876 3.12432   3
  -3   1  13 2.07924 4.45261   1
   2  -1 -13 3.50254 3.28762   3
   1  -1 -13 82.0542 6.41325   3
   0  -1 -13 45.8050 5.95560   3
  -1  -1 -13 11.8715 3.16075   3
   1   1  13 8.92047 2.54893   1
  -2  -1 -13 14.7018 3.21466   3
  -2  -1 -13 11.7024 3.48826   2
   2   1  13 19.5131 3.91482   1
  -3  -1 -13 48.8945 5.82294   3
  -3  -1 -13 34.4408 5.17870   2
   3   1  13 52.0116 4.48106   1
  -4  -1 -13 0.61395 3.00115   2
  -4  -1 -13 6.22563 3.30255   3
   4   1  13 8.90035 2.39762   1
  -5  -1 -13 14.6523 3.68855   3
  -5  -1 -13 10.0981 3.54847   2
   5   1  13 18.4624 4.04761   1
  -6  -1 -13 53.1754 6.60781   2
  -6  -1 -13 52.2088 6.88413   3
   6   1  13 53.7369 5.16555   1
  -7  -1 -13 42.5485 6.79472   2
   7   1  13 39.7566 5.12680   1
  -8  -1 -13 14.7356 5.27999   2
   8   1  13 12.4844 3.53172   1
   9   1  13 0.63521 3.41550   1
   6  -2 -13 -6.3633 4.46393   3
  -6   2  13 -0.7463 4.48124   3
   5  -2 -13 2.78514 4.22602   3
  -5   2  13 -1.9548 3.93667   3
   4  -2 -13 12.6643 5.31175   2
   4  -2 -13 6.02674 3.75326   3
  -4   2  13 6.18166 3.20876   1
  -4   2  13 12.3259 3.92999   3
   3  -2 -13 4.65498 3.13382   3
   3  -2 -13 5.61706 3.42826   2
  -3   2  13 6.47177 3.62897   3
  -3   2  13 3.27623 2.56363   1
   2  -2 -13 -0.8537 3.83057   3
   2  -2 -13 -3.5618 2.93380   2
  -2   2  13 -0.1975 2.39511   1
   1  -2 -13 60.4198 5.42020   2
   1  -2 -13 67.0933 6.34406   3
  -1   2  13 73.4566 5.46161   1
   0  -2 -13 15.8484 3.39344   3
   0  -2 -13 10.2074 3.05688   2
   0   2  13 28.6653 5.11835   1
  -1  -2 -13 8.10754 2.99962   2
  -1  -2 -13 8.41528 3.15819   3
   1   2  13 8.44559 3.87413   1
  -2  -2 -13 28.6867 5.07429   2
  -2  -2 -13 25.5995 5.20082   3
   2   2  13 25.6172 3.87978   1
  -3  -2 -13 3.58766 3.14952   2
  -3  -2 -13 7.63756 2.89310   3
   3   2  13 -0.0148 2.05800   1
  -4  -2 -13 0.99964 3.16134   2
  -4  -2 -13 5.22003 2.95885   3
   4   2  13 1.94957 2.25752   1
  -5  -2 -13 20.1913 3.90512   2
  -5  -2 -13 24.6765 3.91689   3
   5   2  13 29.4401 4.39647   1
  -6  -2 -13 -0.8980 3.59733   2
   6   2  13 0.37759 2.54545   1
  -7  -2 -13 35.2825 7.24349   2
   7   2  13 38.5085 7.03315   2
   7   2  13 27.7399 5.04233   1
  -8  -2 -13 26.4678 5.12309   2
   8   2  13 30.3393 5.45742   1
   8   2  13 38.9850 6.22391   2
  -9  -2 -13 45.7887 9.19684   2
   9   2  13 32.8641 6.99592   2
   6  -3 -13 7.59870 4.61538   3
   6  -3 -13 -9.3871 4.53128   2
  -6   3  13 -6.3482 4.40219   3
   5  -3 -13 6.39657 5.07351   2
   5  -3 -13 5.35989 4.26174   3
  -5   3  13 -2.7479 4.10506   3
   4  -3 -13 13.5499 3.87801   2
   4  -3 -13 12.5758 3.92862   3
  -4   3  13 9.57051 2.96248   1
  -4   3  13 8.70062 3.92602   3
   3  -3 -13 -4.1070 3.21781   3
   3  -3 -13 1.67288 3.58186   2
  -3   3  13 2.07955 3.27447   3
  -3   3  13 -0.2107 2.68785   1
   2  -3 -13 17.9513 3.63094   2
   2  -3 -13 19.6147 5.14785   3
  -2   3  13 17.0163 3.06259   1
   1  -3 -13 53.4522 5.75142   2
   1  -3 -13 55.4724 5.89003   3
  -1   3  13 58.6372 5.05823   1
   0  -3 -13 7.77753 2.94613   2
   0  -3 -13 6.28395 3.04750   3
   0   3  13 5.77039 2.25269   1
  -1  -3 -13 20.7702 5.25267   2
  -1  -3 -13 19.6012 5.09665   3
  -2  -3 -13 1.57741 2.58056   3
  -2  -3 -13 1.35690 2.97653   2
   2   3  13 -2.0628 1.99795   1
  -3  -3 -13 8.45278 2.81272   3
  -3  -3 -13 2.90814 3.29724   2
   3   3  13 0.13010 2.26580   1
  -4  -3 -13 0.33197 3.28901   2
  -4  -3 -13 1.54191 2.92031   3
   4   3  13 -1.3750 2.02699   1
  -5  -3 -13 1.84686 3.66085   2
   5   3  13 2.68332 2.31589   1
  -6  -3 -13 1.87092 3.90544   2
   6   3  13 8.57055 2.66433   1
  -7  -3 -13 48.7599 7.55804   2
   7   3  13 64.4503 5.70641   1
  -8  -3 -13 12.8405 5.02898   2
   8   3  13 5.86129 3.10036   1
   8   3  13 4.67735 3.81780   2
  -9  -3 -13 12.0487 5.26707   2
   9   3  13 18.7281 4.64346   2
   9   3  13 15.3471 3.87433   1
   6  -4 -13 -0.6122 4.98921   2
   6  -4 -13 4.12460 4.81456   3
  -6   4  13 -0.3859 4.55586   3
   5  -4 -13 15.3383 4.45261   3
   5  -4 -13 29.5235 7.95317   2
  -5   4  13 13.7550 4.64309   3
   4  -4 -13 11.3770 4.02748   3
   4  -4 -13 8.79253 7.59075   2
  -4   4  13 4.72684 4.02650   1
  -4   4  13 2.89212 3.90305   3
   3  -4 -13 11.4710 4.17091   2
   3  -4 -13 12.3084 3.59276   3
  -3   4  13 7.27681 2.82766   1
  -3   4  13 6.00462 3.55120   3
   2  -4 -13 47.5378 6.08416   3
   2  -4 -13 47.3411 6.90025   2
  -2   4  13 59.5765 6.31766   3
  -2   4  13 60.9839 5.41683   1
   1  -4 -13 1.47258 2.95997   3
   1  -4 -13 4.08988 3.36220   2
  -1   4  13 1.58064 2.30677   1
   0  -4 -13 8.07016 2.96863   3
   0  -4 -13 3.48605 3.28686   2
   0   4  13 7.04370 2.45087   1
  -1  -4 -13 4.38252 3.35883   2
  -1  -4 -13 1.51210 2.79170   3
   1   4  13 1.40956 3.43891   1
  -2  -4 -13 26.1971 5.96757   2
  -2  -4 -13 16.0244 3.00001   3
   2   4  13 15.0862 3.91945   1
  -3  -4 -13 37.6797 6.34144   2
   3   4  13 35.7086 4.44048   1
  -4  -4 -13 1.10959 3.54976   2
   4   4  13 6.87893 2.33292   1
  -5  -4 -13 35.1541 6.99965   2
   5   4  13 25.5295 4.23930   1
  -6  -4 -13 15.2719 5.29016   2
   6   4  13 26.1361 4.63908   1
  -7  -4 -13 14.1023 4.60075   2
   7   4  13 24.4275 5.11743   1
  -8  -4 -13 13.1550 5.01174   2
   8   4  13 9.85461 3.12689   1
  -9  -4 -13 27.2758 6.37285   2
   9   4  13 48.3635 7.60521   2
   9   4  13 32.5632 6.39618   1
   6  -5 -13 3.07884 5.16078   2
   6  -5 -13 -2.6362 4.68565   3
  -6   5  13 -5.2581 4.69635   3
   5  -5 -13 5.70893 4.25537   3
   5  -5 -13 3.60729 4.83863   2
  -5   5  13 4.09199 4.33726   3
   4  -5 -13 7.75676 3.97907   3
   4  -5 -13 9.40063 4.45995   2
  -4   5  13 5.23330 4.16947   3
   3  -5 -13 2.25711 3.99630   3
   3  -5 -13 2.88508 4.38506   2
  -3   5  13 -2.9359 4.37576   3
  -3   5  13 3.86048 2.67369   1
   2  -5 -13 21.9281 5.59029   3
   2  -5 -13 25.6129 4.42200   2
  -2   5  13 25.8041 5.85823   3
  -2   5  13 30.3933 4.51013   1
   1  -5 -13 13.3841 3.96588   2
   1  -5 -13 22.0740 4.93881   3
  -1   5  13 11.8854 2.64545   1
   0  -5 -13 35.3099 6.50865   2
   0  -5 -13 35.2154 5.27698   3
  -1  -5 -13 2.67621 2.91185   3
  -1  -5 -13 5.88635 3.43664   2
   1   5  13 0.84936 2.20727   1
  -2  -5 -13 71.2716 7.13642   2
   2   5  13 66.6556 4.94266   1
  -3  -5 -13 1.33612 3.44777   2
   3   5  13 2.42552 2.12224   1
  -4  -5 -13 -1.6774 3.77760   2
   4   5  13 -2.6080 2.11617   1
  -5  -5 -13 7.31814 4.71110   2
   5   5  13 -2.8942 2.27727   1
  -6  -5 -13 1.84237 4.48402   2
   6   5  13 0.54088 2.57175   1
  -7  -5 -13 47.9441 8.63171   2
   7   5  13 52.3041 5.75525   1
  -8  -5 -13 -3.0435 4.54891   2
   8   5  13 -5.9378 2.77812   1
   5  -6 -13 4.30291 5.10003   2
   5  -6 -13 -3.6984 4.51094   3
  -5   6  13 -2.3551 4.40999   3
   4  -6 -13 1.17922 4.54924   2
   4  -6 -13 1.56476 3.93816   3
  -4   6  13 4.23967 4.12237   3
   3  -6 -13 5.31557 4.18658   3
   3  -6 -13 4.90580 4.74890   2
  -3   6  13 1.56348 2.79053   1
  -3   6  13 -2.9321 6.71336   3
   2  -6 -13 27.3456 5.92162   3
   2  -6 -13 17.0655 4.53021   2
  -2   6  13 23.5412 3.88357   3
  -2   6  13 18.9610 4.83854   1
   1  -6 -13 2.36096 2.99163   3
   1  -6 -13 8.27285 5.27857   2
  -1   6  13 -0.6145 3.66233   1
  -1   6  13 4.03347 3.13743   3
   0  -6 -13 36.9321 7.65112   2
   0   6  13 25.4258 4.38671   1
  -1  -6 -13 13.9359 3.93055   2
   1   6  13 19.3223 4.31066   1
  -2  -6 -13 103.766 8.23959   2
   2   6  13 86.3155 5.51513   1
   3   6  13 2.35998 2.37038   1
  -4  -6 -13 -0.7198 3.93932   2
   4   6  13 0.31537 2.22036   1
  -5  -6 -13 1.63703 4.26879   2
   5   6  13 -0.1981 2.34815   1
  -6  -6 -13 6.70195 4.85083   2
   6   6  13 0.23285 2.66872   1
  -7  -6 -13 13.1123 5.40823   2
   7   6  13 14.5452 3.26381   1
  -8  -6 -13 -4.7323 5.15834   2
   8   6  13 -2.1368 3.06988   1
   5  -7 -13 0.87579 5.60776   2
   5  -7 -13 1.52263 4.59386   3
  -5   7  13 -1.8187 4.83427   3
   4  -7 -13 13.4240 5.25450   2
   4  -7 -13 5.79202 4.32785   3
  -4   7  13 5.59168 4.51194   3
   3  -7 -13 4.05432 5.24434   2
   3  -7 -13 3.39637 4.39319   3
  -3   7  13 1.38631 6.68945   3
   2  -7 -13 1.89987 4.63740   2
  -2   7  13 2.39776 3.44827   3
   1  -7 -13 13.7499 4.65367   2
  -1   7  13 18.0005 4.40401   1
   0  -7 -13 81.8246 8.67385   2
   0   7  13 63.7662 5.44107   1
  -1  -7 -13 17.4299 4.45859   2
   1   7  13 13.0483 2.74176   1
  -2  -7 -13 51.6704 7.56652   2
   2   7  13 41.2568 4.73003   1
  -3  -7 -13 -1.8574 4.12730   2
   3   7  13 4.96996 2.53342   1
  -4  -7 -13 -1.7458 4.33386   2
   4   7  13 1.28042 2.33514   1
  -5  -7 -13 1.34822 4.55657   2
   5   7  13 0.22872 2.47541   1
  -6  -7 -13 12.9689 5.26236   2
   6   7  13 9.21524 2.86472   1
  -7  -7 -13 20.1919 5.85732   2
  -8  -7 -13 -1.1878 5.75918   2
   8   7  13 5.75013 3.44435   1
   4  -8 -13 7.36869 5.77757   2
  -4   8  13 0.20931 5.51882   3
   3  -8 -13 8.68888 5.68321   2
   2  -8 -13 3.98656 5.20466   2
  -2   8  13 -0.2484 2.95197   1
   1  -8 -13 23.3882 5.31538   2
  -1   8  13 22.1976 5.01818   1
   0  -8 -13 17.2626 5.02411   2
   0   8  13 13.3535 3.04122   1
  -1  -8 -13 11.9707 4.53846   2
   1   8  13 14.3965 2.91136   1
  -2  -8 -13 21.4768 4.92923   2
   2   8  13 19.5060 4.83462   1
  -3  -8 -13 20.0343 5.23087   2
   3   8  13 20.7769 4.74315   1
  -4  -8 -13 8.00194 4.81184   2
   4   8  13 6.19422 2.84115   1
  -5  -8 -13 19.7626 5.91076   2
   5   8  13 20.9310 5.17420   1
  -6  -8 -13 3.00308 5.59623   2
   6   8  13 -3.3230 2.75785   1
  -7  -8 -13 0.12118 5.98149   2
   7   8  13 -2.8035 2.99459   1
   3  -9 -13 6.93683 6.26785   2
   2  -9 -13 3.18046 5.83735   2
   1  -9 -13 13.3581 5.52936   2
  -1   9  13 2.47069 3.12495   1
   0  -9 -13 11.5547 5.43598   2
   0   9  13 22.5464 5.23524   1
  -1  -9 -13 21.9463 5.51385   2
   1   9  13 32.8701 5.38814   1
  -2  -9 -13 -1.1145 4.94117   2
   2   9  13 -4.4193 2.53040   1
  -3  -9 -13 14.4432 5.54116   2
   3   9  13 21.3481 5.19514   1
  -4  -9 -13 4.49283 5.06526   2
   4   9  13 4.44517 2.79466   1
  -5  -9 -13 57.1950 10.6477   2
   5   9  13 27.0533 5.61028   1
  -6  -9 -13 6.05139 6.08076   2
   6   9  13 7.36989 3.42383   1
   2 -10 -13 9.15893 6.65176   2
   1 -10 -13 17.5372 6.44937   2
  -1  10  13 16.6506 3.73938   1
   0 -10 -13 -7.4542 5.62287   2
   0  10  13 2.06805 3.21744   1
  -1 -10 -13 -1.2972 5.39657   2
   1  10  13 0.26511 3.13737   1
  -2 -10 -13 2.44918 5.61352   2
   2  10  13 0.76308 2.98050   1
  -3 -10 -13 38.0717 6.97033   2
   3  10  13 43.3973 5.80356   1
  -4 -10 -13 0.21008 5.71873   2
   4  10  13 -2.1536 2.98463   1
  -5 -10 -13 24.3971 6.77460   2
   5  10  13 17.1204 3.65741   1
   1   5 -14 10.7827 5.06625   3
  -1  -5  14 5.27472 4.27639   1
   0   5 -14 2.66268 4.93717   3
   0  -5  14 2.12766 3.95077   1
  -1   5 -14 12.4351 5.48109   3
   1  -5  14 9.31178 4.09418   1
  -2   5 -14 2.28976 4.73056   3
   2  -5  14 3.37482 3.76949   1
  -3   5 -14 12.5286 5.13756   3
   3  -5  14 12.3307 4.12414   1
   2   4 -14 7.54649 5.24527   3
  -2  -4  14 3.60373 4.06917   1
   1   4 -14 2.67414 4.74008   3
  -1  -4  14 -1.5686 3.62950   1
   0   4 -14 12.1252 4.63334   3
   0  -4  14 8.35663 3.98696   1
  -1   4 -14 37.8990 7.85581   3
   1  -4  14 25.9498 6.53727   1
  -2   4 -14 2.32553 4.70950   3
   2  -4  14 33.4756 6.54473   1
  -3   4 -14 14.5384 4.67693   3
   3  -4  14 11.1004 3.45946   1
  -4   4 -14 -2.9918 4.71319   3
   4  -4  14 1.63520 3.39769   1
  -5   4 -14 -7.1456 5.08416   3
   5  -4  14 10.5604 3.92544   1
   3   3 -14 1.96813 4.84979   3
  -3  -3  14 -3.9482 4.19604   1
   2   3 -14 11.2499 5.15382   3
  -2  -3  14 15.6020 4.13848   1
   1   3 -14 -0.0820 4.41086   3
  -1  -3  14 1.40639 3.68047   1
   0   3 -14 10.3683 4.29532   3
   0  -3  14 14.6559 3.47653   1
  -1   3 -14 2.33946 4.17970   3
   1  -3  14 8.15559 3.22737   1
  -2   3 -14 67.2400 8.29869   3
   2  -3  14 65.4198 6.24059   1
  -3   3 -14 20.5119 4.87932   3
   3  -3  14 24.1375 5.38259   1
  -4   3 -14 -3.7458 4.27294   3
   4  -3  14 1.15391 2.92913   1
  -5   3 -14 -3.3317 4.86412   3
   5  -3  14 7.65747 3.27403   1
  -6   3 -14 6.33791 4.92439   3
   6  -3  14 0.66568 3.39734   1
   4   2 -14 5.90366 5.00036   3
  -4  -2  14 -0.5285 4.28190   1
   3   2 -14 -8.1951 4.22427   3
  -3  -2  14 1.84618 3.92128   1
   2   2 -14 1.86105 4.39226   3
  -2  -2  14 -0.5329 3.36676   1
   1   2 -14 11.6846 4.42408   3
  -1  -2  14 23.6152 5.82929   1
   0   2 -14 18.5208 4.19351   3
   0  -2  14 16.4018 3.49011   1
  -1   2 -14 4.84576 4.00116   3
   1  -2  14 1.00172 2.79998   1
  -2   2 -14 80.5669 7.71206   3
   2  -2  14 69.5545 6.15740   1
  -3   2 -14 10.7718 4.33512   3
   3  -2  14 21.2484 5.42169   1
  -4   2 -14 7.86644 4.53425   3
   4  -2  14 4.50062 2.78478   1
  -5   2 -14 16.8416 4.89951   3
   5  -2  14 9.74283 3.24514   1
  -6   2 -14 -4.9504 4.86319   3
   6  -2  14 1.10083 3.29274   1
   7  -2  14 -1.9305 3.56077   1
   5   1 -14 20.1827 5.77043   3
  -5  -1  14 10.7763 4.99183   1
   4   1 -14 -0.5980 4.77925   3
  -4  -1  14 -2.9535 4.02241   1
   3   1 -14 0.28357 4.15002   3
  -3  -1  14 3.00899 3.59406   1
   2   1 -14 0.69175 4.10709   3
  -2  -1  14 12.7116 3.53905   1
   1   1 -14 26.8702 7.11684   3
   0   1 -14 3.80330 3.86851   3
   0  -1  14 4.60290 3.00655   1
  -1   1 -14 30.6495 6.71715   3
   1  -1  14 34.9283 5.04295   1
  -2   1 -14 35.9168 6.81459   3
   2  -1  14 48.0683 5.68834   1
  -3   1 -14 -2.9966 3.78047   3
   3  -1  14 -2.6155 2.53760   1
  -4   1 -14 15.8104 4.54089   3
   4  -1  14 13.7342 3.04613   1
  -5   1 -14 11.0940 4.29855   3
   5  -1  14 2.34622 2.72048   1
  -6   1 -14 5.81781 4.72116   3
   6  -1  14 7.41083 3.12141   1
  -7   1 -14 7.98270 5.56284   3
   7  -1  14 1.63593 3.15405   1
   5   0 -14 7.30216 4.86106   3
   4   0 -14 6.70472 4.76136   3
  -4   0  14 -7.4879 3.93210   1
   3   0 -14 1.23986 4.46416   3
  -3   0  14 8.77662 3.61933   1
   2   0 -14 28.0207 4.77058   3
  -2   0  14 24.2766 5.64423   1
   1   0 -14 3.06626 3.64154   3
  -1   0  14 1.53204 2.69340   1
   0   0 -14 -1.2138 3.81902   3
   0   0  14 1.62844 2.71271   1
  -1   0 -14 54.5539 6.55095   3
   1   0  14 60.2554 5.50801   1
  -2   0 -14 2.17865 3.98384   3
   2   0  14 1.13840 2.21995   1
   3   0  14 1.42864 2.49334   1
  -4   0 -14 19.5803 7.03139   3
   4   0  14 24.4629 5.31139   1
  -5   0 -14 27.4200 6.97438   3
  -6   0 -14 17.8940 4.82730   3
   6   0  14 26.3191 5.90541   1
   7   0  14 8.65438 3.44448   1
   5  -1 -14 10.2406 4.82200   3
  -5   1  14 0.35756 4.74311   3
   4  -1 -14 -5.0233 4.10899   3
  -4   1  14 2.73772 3.63760   1
   3  -1 -14 14.9781 4.59668   3
  -3   1  14 11.1868 3.51516   1
   2  -1 -14 5.10109 3.95197   3
  -2   1  14 6.33580 3.00330   1
   1  -1 -14 -0.5704 3.59599   3
  -1   1  14 1.48043 2.59973   1
   0  -1 -14 3.99532 4.06477   3
   0   1  14 1.52350 2.47408   1
  -1  -1 -14 2.78645 3.45122   3
   1   1  14 -1.2366 2.52232   1
  -2  -1 -14 10.1041 3.63627   3
   2   1  14 14.0364 3.01707   1
  -3  -1 -14 30.6378 6.40233   3
   3   1  14 37.4646 4.94382   1
  -4  -1 -14 19.8948 4.17904   3
   4   1  14 22.1789 4.50950   1
  -5  -1 -14 32.8864 7.13928   3
   5   1  14 30.7639 5.01670   1
   6   1  14 9.47063 3.05659   1
   7   1  14 8.68105 3.31385   1
   8   1  14 2.01779 3.37941   1
   5  -2 -14 -5.2396 4.69622   3
  -5   2  14 5.36905 4.76211   3
   4  -2 -14 0.83489 4.04056   3
  -4   2  14 4.64621 3.43315   1
  -4   2  14 1.37597 4.30617   3
   3  -2 -14 8.09553 3.89329   3
  -3   2  14 10.0358 3.21875   1
   2  -2 -14 1.04927 3.81899   3
  -2   2  14 1.42326 2.73102   1
   1  -2 -14 6.35822 3.60947   3
  -1   2  14 7.36408 2.65602   1
   0  -2 -14 6.35902 3.59256   3
   0   2  14 9.33313 2.81159   1
  -1  -2 -14 3.24402 3.28643   3
   1   2  14 3.48969 2.39880   1
  -2  -2 -14 27.8323 6.13667   3
   2   2  14 36.3821 4.79765   1
  -3  -2 -14 37.6918 6.29469   3
   3   2  14 29.3950 4.38900   1
  -4  -2 -14 0.11630 3.42667   3
   4   2  14 -0.2498 2.39228   1
   5   2  14 47.7825 5.22903   1
   6   2  14 7.23145 2.84957   1
   7   2  14 -0.6105 2.97440   1
   8   2  14 -6.9923 3.23967   1
   5  -3 -14 5.03953 4.82979   3
  -5   3  14 -8.2880 4.45269   3
   4  -3 -14 -3.4563 4.32480   3
  -4   3  14 5.61818 4.41064   3
  -4   3  14 -1.5400 4.35486   1
   3  -3 -14 11.4332 4.01764   3
  -3   3  14 7.89700 3.27520   1
  -3   3  14 6.73461 4.05434   3
   2  -3 -14 12.7254 4.09712   3
   2  -3 -14 8.83961 3.79287   2
  -2   3  14 9.95798 3.01189   1
   1  -3 -14 0.98976 3.68818   3
   1  -3 -14 -2.8360 3.40709   2
  -1   3  14 1.35723 2.71438   1
   0  -3 -14 3.45188 3.48858   3
   0  -3 -14 6.83793 3.48933   2
   0   3  14 10.6252 2.79416   1
  -1  -3 -14 25.9118 6.09003   3
  -1  -3 -14 30.4625 6.32755   2
   1   3  14 33.5661 4.69029   1
  -2  -3 -14 16.6333 3.62902   3
  -2  -3 -14 17.0767 3.85900   2
   2   3  14 18.0965 4.37176   1
  -3  -3 -14 48.2226 6.85351   2
  -3  -3 -14 58.2864 6.29263   3
   3   3  14 45.8680 5.02053   1
  -4  -3 -14 51.0080 6.89037   2
   4   3  14 35.5244 4.82898   1
  -5  -3 -14 4.25149 4.10386   2
   5   3  14 7.76050 2.69109   1
   6   3  14 1.85585 2.82030   1
  -7  -3 -14 2.64443 4.62091   2
   7   3  14 -0.9470 2.87498   1
  -8  -3 -14 -2.4572 5.08719   2
   8   3  14 8.83300 4.16203   2
   8   3  14 -3.4249 3.23223   1
   5  -4 -14 5.49458 5.19451   2
   5  -4 -14 0.25370 4.75136   3
  -5   4  14 0.51678 4.98833   3
   4  -4 -14 1.92209 4.15544   3
   4  -4 -14 9.70163 4.86009   2
  -4   4  14 -4.1835 4.32590   3
   3  -4 -14 8.81478 4.27484   3
  -3   4  14 13.5563 4.41909   3
  -3   4  14 13.0779 3.21392   1
   2  -4 -14 9.33002 4.13272   2
   2  -4 -14 6.08208 3.64877   3
  -2   4  14 3.74740 2.91067   1
   1  -4 -14 23.2668 6.22113   3
   1  -4 -14 34.1226 6.38647   2
  -1   4  14 28.1836 5.07610   1
   0  -4 -14 -2.5874 3.28451   3
   0  -4 -14 -0.4992 3.51913   2
   0   4  14 1.86522 2.35478   1
  -1  -4 -14 25.1882 6.36686   2
  -1  -4 -14 12.0716 3.66030   3
   1   4  14 8.44449 2.65043   1
  -2  -4 -14 31.7266 6.60235   2
   2   4  14 30.5705 4.54618   1
  -3  -4 -14 7.72000 3.86060   2
   3   4  14 4.03251 2.48862   1
  -4  -4 -14 21.7496 4.63926   2
   4   4  14 25.1136 4.85459   1
   5   4  14 1.33121 2.58951   1
  -6  -4 -14 5.77830 4.79534   2
   6   4  14 4.32658 2.85277   1
  -7  -4 -14 7.86446 4.88581   2
   7   4  14 1.14820 3.07030   1
  -8  -4 -14 10.5113 5.36271   2
   8   4  14 2.67793 3.46572   1
   5  -5 -14 1.76195 5.46360   2
   5  -5 -14 3.76396 4.93950   3
  -5   5  14 -3.3375 5.20114   3
   4  -5 -14 11.2515 5.28742   2
   4  -5 -14 2.78928 4.40945   3
  -4   5  14 1.48928 4.65051   3
   3  -5 -14 4.42358 4.85864   2
   3  -5 -14 -0.1324 3.99283   3
  -3   5  14 6.35107 4.33563   3
  -3   5  14 2.24766 3.22600   1
   2  -5 -14 9.70399 4.78745   3
   2  -5 -14 7.91057 4.60100   2
  -2   5  14 8.34407 7.15175   3
  -2   5  14 12.0809 3.11278   1
   1  -5 -14 0.59635 3.51825   3
   1  -5 -14 4.36120 4.12202   2
  -1   5  14 2.82181 2.55030   1
   0  -5 -14 -0.3088 3.73881   2
   0  -5 -14 2.01120 3.24540   3
   0   5  14 3.22695 2.65272   1
  -1  -5 -14 11.5560 4.11056   2
   1   5  14 11.5661 2.83637   1
  -2  -5 -14 1.35211 4.02975   2
   2   5  14 1.16125 2.51380   1
  -3  -5 -14 -1.4566 4.06433   2
   3   5  14 0.72521 2.44585   1
  -4  -5 -14 28.9884 7.62707   2
   4   5  14 24.3902 4.68439   1
  -5  -5 -14 1.73560 4.55516   2
   5   5  14 6.15134 2.71011   1
  -6  -5 -14 13.9414 5.23601   2
   6   5  14 22.4198 5.23217   1
  -7  -5 -14 -3.4980 5.14929   2
   7   5  14 6.99201 3.22953   1
   8   5  14 34.6025 6.27441   1
   4  -6 -14 11.2966 5.87632   2
   4  -6 -14 16.7924 4.98920   3
  -4   6  14 5.18864 4.84709   3
   3  -6 -14 8.59926 4.18477   3
   3  -6 -14 8.56521 5.43393   2
  -3   6  14 6.84302 4.38108   3
   2  -6 -14 -0.7445 4.74528   2
  -2   6  14 -1.3144 4.93936   3
  -2   6  14 1.30917 2.94206   1
   1  -6 -14 0.65093 4.32385   2
  -1   6  14 2.70148 2.89381   1
   0  -6 -14 -3.8627 3.98231   2
   0   6  14 -2.2222 2.67701   1
  -1  -6 -14 1.29932 4.05583   2
   1   6  14 -0.5570 2.56281   1
  -2  -6 -14 21.2178 5.20377   2
   2   6  14 26.2239 4.78280   1
  -3  -6 -14 13.5292 4.65907   2
   3   6  14 16.2962 3.12348   1
  -4  -6 -14 4.34074 4.60056   2
   4   6  14 0.66751 2.76255   1
  -5  -6 -14 1.75560 4.85533   2
   5   6  14 -4.7493 2.64878   1
  -6  -6 -14 85.7889 10.5816   2
   6   6  14 61.3896 6.24242   1
  -7  -6 -14 -4.9271 5.50040   2
   7   6  14 3.26597 3.12809   1
   4  -7 -14 3.41579 6.25949   2
  -4   7  14 3.24005 5.12012   3
   3  -7 -14 1.33669 5.76839   2
   2  -7 -14 9.72112 5.42964   2
  -2   7  14 -2.5984 3.16540   1
   1  -7 -14 -1.9959 4.80095   2
  -1   7  14 -5.1882 2.88635   1
   0  -7 -14 0.08236 4.57036   2
   0   7  14 4.44176 2.88773   1
  -1  -7 -14 0.48447 4.23132   2
   1   7  14 2.20989 2.79537   1
  -2  -7 -14 6.97799 4.71621   2
   2   7  14 1.09978 2.66497   1
  -3  -7 -14 12.6102 4.83370   2
   3   7  14 7.19208 2.76730   1
  -4  -7 -14 -0.4896 4.88295   2
   4   7  14 2.27659 2.73879   1
  -5  -7 -14 18.7277 5.50566   2
   5   7  14 14.4232 3.43891   1
  -6  -7 -14 31.2490 6.49323   2
   6   7  14 34.7562 5.84005   1
  -7  -7 -14 -3.2028 6.15932   2
   7   7  14 -0.5825 3.35740   1
   3  -8 -14 -6.8370 5.72884   2
   2  -8 -14 3.82590 5.79189   2
  -2   8  14 2.69175 5.66522   1
   1  -8 -14 -6.0529 4.89280   2
  -1   8  14 -1.5343 3.19357   1
   0  -8 -14 -4.7170 4.93716   2
   0   8  14 2.02675 3.20133   1
  -1  -8 -14 3.15125 4.63217   2
   1   8  14 2.43734 2.94624   1
  -2  -8 -14 13.5355 5.33965   2
   2   8  14 2.39824 2.90056   1
  -3  -8 -14 19.4487 5.74074   2
   3   8  14 19.1680 3.59017   1
  -4  -8 -14 -3.8138 5.42151   2
   4   8  14 1.36570 2.99431   1
  -5  -8 -14 1.60601 5.67516   2
   5   8  14 4.85415 3.11892   1
  -6  -8 -14 38.3079 10.4108   2
   6   8  14 26.3774 6.39432   1
   1  -9 -14 7.07538 5.72984   2
  -1   9  14 8.65134 3.62883   1
   0  -9 -14 15.8801 5.83929   2
   0   9  14 14.7532 3.70637   1
  -1  -9 -14 2.25691 4.86131   2
   1   9  14 2.34862 3.15290   1
  -2  -9 -14 18.2794 5.96966   2
   2   9  14 8.52279 3.35607   1
  -3  -9 -14 4.91885 5.61203   2
   3   9  14 -0.7993 2.91719   1
  -4  -9 -14 16.3199 6.33691   2
   4   9  14 26.1404 6.02387   1
  -5  -9 -14 26.1211 7.39826   2
   5   9  14 25.2515 5.96155   1
  -2 -10 -14 7.73157 6.19714   2
   2  10  14 3.58565 3.43389   1
   1   3 -15 -3.1677 4.83175   3
  -1  -3  15 -4.2001 4.07303   1
   0   3 -15 -1.5424 4.77023   3
   0  -3  15 13.9244 4.16312   1
  -1   3 -15 -3.0223 4.72119   3
   1  -3  15 7.16969 3.61355   1
  -2   3 -15 -8.1154 4.81564   3
   2  -3  15 9.77711 3.50258   1
  -3   3 -15 -2.7005 4.75603   3
   3  -3  15 -0.1386 3.28258   1
  -4   3 -15 1.87654 5.16720   3
   4  -3  15 3.47393 3.67507   1
   2   2 -15 3.55247 5.19898   3
  -2  -2  15 7.99129 4.47221   1
   1   2 -15 9.66570 4.86215   3
  -1  -2  15 7.80099 3.83807   1
   0   2 -15 6.23728 4.67343   3
   0  -2  15 8.67680 3.31107   1
  -1   2 -15 4.70831 4.54384   3
   1  -2  15 0.27875 3.09649   1
  -2   2 -15 9.17543 4.62723   3
   2  -2  15 2.64102 3.09991   1
  -3   2 -15 4.93084 4.78126   3
   3  -2  15 8.65112 3.48592   1
  -4   2 -15 -7.2229 4.86261   3
   4  -2  15 9.52097 3.48228   1
  -5   2 -15 7.31929 5.55064   3
   5  -2  15 3.62261 3.46306   1
   3   1 -15 10.3909 5.55456   3
  -3  -1  15 12.3181 4.66985   1
   2   1 -15 -1.0742 4.67153   3
  -2  -1  15 9.60192 3.91663   1
   1   1 -15 17.1967 5.16537   3
  -1  -1  15 28.1304 6.48625   1
   0   1 -15 -0.6906 4.31755   3
   0  -1  15 12.3195 3.56823   1
  -1   1 -15 18.7932 4.75856   3
   1  -1  15 28.4265 5.89021   1
  -2   1 -15 5.00508 4.32422   3
   2  -1  15 8.52633 3.07746   1
  -3   1 -15 11.3867 4.80527   3
   3  -1  15 6.56907 3.32919   1
  -4   1 -15 8.55803 4.96133   3
   4  -1  15 1.86960 3.11128   1
  -5   1 -15 12.4337 5.25217   3
   5  -1  15 10.1819 3.76251   1
  -6   1 -15 23.3357 5.95709   3
   3   0 -15 11.3725 4.86075   3
  -3   0  15 9.94730 4.15311   1
   2   0 -15 -4.5226 4.47688   3
  -2   0  15 4.98432 3.57626   1
   1   0 -15 75.4234 8.86459   3
  -1   0  15 48.7248 6.60978   1
   0   0 -15 7.40348 4.27444   3
   0   0  15 9.77483 3.15285   1
  -1   0 -15 31.5336 7.61453   3
   1   0  15 41.0672 6.11472   1
  -2   0 -15 29.5517 7.77044   3
   2   0  15 32.8690 5.75191   1
  -3   0 -15 -3.3672 4.31175   3
   3   0  15 3.51934 2.83252   1
  -4   0 -15 6.11162 4.57201   3
   4   0  15 3.78349 2.90769   1
  -5   0 -15 46.8635 8.46542   3
   5   0  15 24.1540 6.02946   1
   6   0  15 -3.1993 3.30391   1
   4  -1 -15 -0.2320 5.41103   3
  -4   1  15 7.34974 4.48964   1
   3  -1 -15 -3.4369 4.86512   3
  -3   1  15 1.37820 3.69649   1
   2  -1 -15 17.7650 5.05832   3
  -2   1  15 24.9303 6.48862   1
   1  -1 -15 36.4818 7.38032   3
  -1   1  15 18.3735 3.52270   1
   0  -1 -15 9.47117 4.72677   3
   0   1  15 12.5721 3.44944   1
  -1  -1 -15 47.3140 7.07701   3
   1   1  15 51.3158 5.58461   1
  -2  -1 -15 1.82813 4.01793   3
   2   1  15 8.15654 3.26610   1
  -3  -1 -15 3.38796 4.09282   3
   3   1  15 2.11874 3.08930   1
  -4  -1 -15 7.40402 4.41492   3
   4   1  15 10.6569 3.24601   1
   5   1  15 -0.0847 3.04239   1
   6   1  15 9.33057 3.25126   1
   4  -2 -15 7.16071 4.81034   3
   3  -2 -15 1.32863 4.94782   3
  -3   2  15 0.29791 3.70917   1
   2  -2 -15 13.5906 4.68538   3
  -2   2  15 13.0047 3.64523   1
   1  -2 -15 7.32474 4.35109   3
  -1   2  15 12.8882 3.49834   1
   0   2  15 17.0451 3.38295   1
  -1  -2 -15 11.7826 4.23237   3
   1   2  15 22.7414 5.82874   1
  -2  -2 -15 -1.6122 4.18572   3
   2   2  15 4.61238 2.75799   1
  -3  -2 -15 12.4979 4.30415   3
   3   2  15 21.9250 4.92143   1
   4   2  15 1.60465 2.74207   1
   5   2  15 4.82625 2.88368   1
   6   2  15 22.7788 5.74603   1
   7   2  15 0.15248 3.36500   1
   4  -3 -15 4.91007 4.72644   3
   3  -3 -15 -1.8369 4.65074   3
  -3   3  15 2.89253 3.56781   1
   2  -3 -15 16.6515 5.04839   3
  -2   3  15 26.3321 6.47651   1
   1  -3 -15 -1.4227 4.05776   3
  -1   3  15 0.63964 3.21549   1
   0  -3 -15 6.48136 4.14179   3
   0   3  15 5.43971 3.04848   1
  -1  -3 -15 17.2280 4.18171   3
   1   3  15 25.0913 5.12945   1
  -2  -3 -15 19.6975 4.56871   3
   2   3  15 23.4550 5.21676   1
   3   3  15 -2.8806 2.64735   1
   4   3  15 0.14290 2.74464   1
   5   3  15 16.9355 3.39063   1
   6   3  15 2.07745 3.12595   1
   7   3  15 -0.4817 3.43024   1
  -4   4  15 7.94318 5.18448   3
   3  -4 -15 3.60005 4.43058   3
  -3   4  15 4.47416 3.84537   1
   2  -4 -15 16.2024 4.91920   3
  -2   4  15 12.0230 3.64037   1
   1  -4 -15 7.91319 4.14439   3
  -1   4  15 6.87610 3.20674   1
   0  -4 -15 6.71505 3.97126   3
   0  -4 -15 4.93876 4.36648   2
   0   4  15 7.15706 3.05569   1
  -1  -4 -15 -0.3855 4.28749   2
   1   4  15 1.40896 2.69827   1
  -2  -4 -15 10.3345 4.32589   2
   2   4  15 9.40162 3.05881   1
  -3  -4 -15 2.55092 4.53902   2
   3   4  15 4.55374 2.94878   1
   4   4  15 12.6562 3.08390   1
  -5  -4 -15 -0.6523 4.95505   2
   5   4  15 5.06231 3.00450   1
  -6  -4 -15 4.71442 5.40669   2
   6   4  15 7.51506 3.26175   1
  -7  -4 -15 -0.2325 5.54901   2
   7   4  15 1.33806 3.33499   1
   3  -5 -15 -1.8106 5.42441   2
   3  -5 -15 4.31364 4.56836   3
  -3   5  15 -3.0770 4.83882   3
   2  -5 -15 0.28716 4.81132   2
   2  -5 -15 1.23695 4.50727   3
  -2   5  15 6.60706 3.59360   1
   1  -5 -15 -1.5937 4.69054   2
  -1   5  15 6.16125 3.21770   1
   0  -5 -15 1.75088 4.14027   2
   0   5  15 -2.8033 2.74109   1
  -1  -5 -15 4.43202 5.00670   2
   1   5  15 -0.3095 2.88206   1
  -2  -5 -15 31.7237 8.36075   2
   2   5  15 31.9341 5.15093   1
  -3  -5 -15 -5.2327 4.63149   2
   3   5  15 -0.8109 2.77511   1
  -4  -5 -15 -2.2476 4.83928   2
   4   5  15 5.16204 2.96811   1
  -5  -5 -15 35.6932 9.32929   2
  -6  -5 -15 -3.7504 5.69155   2
   6   5  15 -3.2003 3.08401   1
   3  -6 -15 -2.7937 5.98639   2
  -3   6  15 1.96913 5.15636   3
   2  -6 -15 4.24645 5.41061   2
  -2   6  15 2.31015 3.55209   1
   1  -6 -15 -3.1968 4.95614   2
  -1   6  15 1.64821 3.10291   1
   0  -6 -15 1.51185 4.67672   2
   0   6  15 1.81191 3.06062   1
  -1  -6 -15 42.3171 8.12079   2
   1   6  15 32.4107 5.66689   1
  -2  -6 -15 1.23270 4.99390   2
   2   6  15 1.82393 2.91265   1
  -3  -6 -15 -0.6131 4.88516   2
   3   6  15 0.93797 2.86310   1
  -4  -6 -15 4.73992 5.44245   2
   4   6  15 8.47050 3.22996   1
  -5  -6 -15 -0.3982 5.34251   2
   5   6  15 -0.5495 2.93847   1
  -6  -6 -15 1.42015 6.23070   2
   6   6  15 1.98844 3.34935   1
   2  -7 -15 7.46251 5.93318   2
  -2   7  15 -0.8586 3.92873   1
   1  -7 -15 3.59166 5.32515   2
  -1   7  15 -1.1491 3.45115   1
   0  -7 -15 5.24793 4.97937   2
   0   7  15 3.05800 3.39646   1
  -1  -7 -15 9.89554 5.21466   2
   1   7  15 4.59276 3.25807   1
  -2  -7 -15 0.59035 5.40622   2
   2   7  15 2.43051 3.06307   1
  -3  -7 -15 -3.0085 5.28452   2
   3   7  15 4.48652 3.19126   1
  -4  -7 -15 4.65661 5.69172   2
   4   7  15 -1.7325 3.15126   1
  -5  -7 -15 -6.4057 5.82913   2
   5   7  15 -2.2661 3.22022   1
   1  -8 -15 0.58350 6.00489   2
  -1   8  15 -1.0293 3.64930   1
   0  -8 -15 -3.2313 5.31385   2
   0   8  15 0.04165 3.49472   1
  -1  -8 -15 11.2235 5.92980   2
   1   8  15 11.4995 3.57405   1
  -2  -8 -15 0.38915 6.02751   2
   2   8  15 -0.8558 3.33739   1
  -3  -8 -15 -6.3415 5.84158   2
   3   8  15 -5.6942 3.08164   1
  -4  -8 -15 -3.2245 6.04257   2
   4   8  15 -2.1057 3.39878   1
   0   1 -16 7.90944 5.08230   3
   0  -1  16 5.13533 3.84489   1
  -1   1 -16 42.0467 8.89401   3
   1  -1  16 46.7868 6.84870   1
  -2   1 -16 17.0128 5.30623   3
   2  -1  16 6.67356 3.62919   1
  -3   1 -16 16.9385 5.52705   3
   3  -1  16 19.8189 4.00645   1
   1   0 -16 -4.2224 5.34214   3
  -1   0  16 -2.2581 3.67901   1
   0   0 -16 14.4686 5.27785   3
   0   0  16 34.9058 6.61550   1
  -1   0 -16 7.77096 4.90691   3
   1   0  16 3.24158 3.30814   1
  -2   0 -16 11.6220 5.09195   3
   2   0  16 7.47730 3.62767   1
  -3   0 -16 16.2127 5.38684   3
   3   0  16 26.3110 6.37906   1
  -4   0 -16 5.10001 5.49573   3
   4   0  16 8.66171 3.60362   1
   2  -1 -16 -6.1017 5.06886   3
  -2   1  16 -0.7246 3.86752   1
  -1   1  16 7.05874 3.59862   1
   0  -1 -16 0.98928 4.77605   3
   0   1  16 0.77947 3.33933   1
  -1  -1 -16 5.90887 4.75531   3
   1   1  16 -0.0415 3.37228   1
  -2  -1 -16 19.8046 5.30861   3
   2   1  16 23.4880 5.95210   1
  -3  -1 -16 0.74238 4.91626   3
   3   1  16 1.26773 3.37149   1
   4   1  16 12.7715 3.77657   1
   5   1  16 53.6580 7.09431   1
   2  -2 -16 -11.370 5.07831   3
  -2   2  16 7.70449 3.86832   1
   1  -2 -16 5.29153 5.06608   3
  -1   2  16 0.55309 3.62924   1
   0  -2 -16 -1.0189 4.84853   3
   0   2  16 3.77058 3.35643   1
  -1  -2 -16 1.30370 4.39264   3
   1   2  16 -1.7594 3.23358   1
  -2  -2 -16 17.3253 4.94150   3
   2   2  16 25.8333 6.16609   1
   3   2  16 1.94832 3.30216   1
   4   2  16 61.5713 6.59186   1
   5   2  16 26.5917 6.03336   1
   2  -3 -16 7.62101 4.97091   3
  -2   3  16 -0.0555 3.86783   1
   1  -3 -16 2.15311 4.96155   3
  -1   3  16 4.87809 3.34766   1
   0  -3 -16 8.98692 4.93116   3
   0   3  16 1.91225 3.66878   1
   1   3  16 5.89315 3.46425   1
   2   3  16 25.0812 5.75083   1
   3   3  16 0.88073 3.06588   1
   4   3  16 44.0735 5.98402   1
   5   3  16 2.60254 3.31862   1
  -2   4  16 4.79683 3.87645   1
   1  -4 -16 -5.3475 5.78420   3
  -1   4  16 4.52589 3.91232   1
   0   4  16 6.98653 3.51905   1
   1   4  16 2.23098 3.25986   1
   2   4  16 4.41513 3.21599   1
   3   4  16 -1.0554 3.22414   1
   4   4  16 9.94315 3.55201   1
   5   4  16 1.31312 3.37732   1
  -1   5  16 4.54891 3.79361   1
   0   5  16 3.33020 3.50559   1
   1   5  16 -0.3639 3.13684   1
   2   5  16 -1.9971 3.22871   1
   3   5  16 -2.7921 3.10669   1
   4   5  16 0.11494 3.29027   1
   0  -6 -16 -6.8548 5.14982   2
   0   6  16 -0.7496 3.32962   1
  -1  -6 -16 9.53364 5.69866   2
   1   6  16 2.10887 3.39238   1
  -2  -6 -16 8.17677 5.65079   2
   2   6  16 -1.3600 3.23170   1
  -3  -6 -16 0.26517 5.61170   2
   3   6  16 0.80744 3.27274   1
  -4  -6 -16 -5.8859 5.77731   2
   4   6  16 2.54164 3.57979   1
   0   0   0    0.00    0.00   0

 _exptl_absorpt_process_details 'SADABS 2014/5'
 _exptl_absorpt_correction_type   numerical
 _exptl_absorpt_correction_T_max  0.8915
 _exptl_absorpt_correction_T_min  0.5928
 _exptl_special_details
)
 The following wavelength and cell were deduced by SADABS from the
 direction cosines etc. They are given here for emergency use only:
 CELL 0.71029    9.526   10.624   12.620   78.779   82.647   86.488
)
;
_shelx_hkl_checksum              67528
_shelx_fab_file
;
-12 -4 1 -1.5202 0.0726
-12 -3 1 -0.8313 0.0245
-12 -3 2 1.3587 0.0041
-12 -2 1 -0.0188 0.0319
-12 -2 2 0.0581 -0.0009
-12 -2 3 -0.7045 -0.0390
-12 -1 1 -0.3529 0.0762
-12 -1 2 0.7547 -0.0263
-12 -1 3 -0.5608 -0.0034
-12 0 1 0.5184 0.0483
-12 0 2 0.0719 -0.0030
-12 0 3 -0.1522 -0.0368
-12 1 1 1.0210 0.0251
-12 1 2 -2.0668 -0.0096
-12 1 3 1.8010 -0.0019
-12 2 1 1.9468 0.0564
-12 2 2 -2.0674 -0.0031
-12 2 3 1.5830 -0.0114
-12 3 1 2.2376 0.0100
-12 3 2 -1.9838 0.0032
-11 -6 1 0.9275 0.0676
-11 -6 2 -0.8220 -0.0672
-11 -5 1 -2.1179 0.0371
-11 -5 2 0.8991 -0.0298
-11 -5 3 -0.3607 0.0371
-11 -4 1 -3.6345 0.0045
-11 -4 2 3.0275 -0.0005
-11 -4 3 -0.8383 0.0050
-11 -4 4 -0.7893 -0.0404
-11 -3 1 -1.6089 0.0462
-11 -3 2 1.3574 -0.0350
-11 -3 3 -0.5456 0.0078
-11 -3 4 -0.6442 -0.0116
-11 -3 5 0.9694 0.0476
-11 -2 1 -1.0283 0.0461
-11 -2 2 -0.0133 -0.0250
-11 -2 3 0.6663 0.0044
-11 -2 4 -0.2583 0.0041
-11 -2 5 -0.5723 0.0060
-11 -2 6 1.2953 -0.0214
-11 -1 1 -0.6146 0.0451
-11 -1 2 0.8813 -0.0234
-11 -1 3 0.1459 0.0064
-11 -1 4 -0.6974 -0.0069
-11 -1 5 -0.1377 -0.0008
-11 -1 6 1.0931 0.0176
-11 0 1 0.8658 -0.0251
-11 0 2 -0.6289 0.0120
-11 0 3 0.0506 -0.0173
-11 0 4 -0.0496 0.0221
-11 0 5 0.1818 -0.0165
-11 0 6 0.1634 0.0149
-11 1 1 1.4051 -0.0714
-11 1 2 -1.3060 0.0388
-11 1 3 0.3260 -0.0011
-11 1 4 1.0356 -0.0195
-11 1 5 -1.0999 0.0267
-11 1 6 0.1609 -0.0333
-11 2 1 1.4256 -0.1064
-11 2 2 -0.3986 0.0755
-11 2 3 -0.3707 -0.0388
-11 2 4 0.8458 -0.0064
-11 2 5 -0.8801 0.0490
-11 2 6 0.1175 -0.0632
-11 3 1 -0.0651 -0.1526
-11 3 2 -0.2728 0.0681
-11 3 3 0.1262 -0.0278
-11 3 4 -0.1785 0.0186
-11 3 5 0.3571 0.0131
-11 3 6 -0.3250 -0.0573
-11 4 1 -0.4442 -0.1409
-11 4 2 0.2013 0.0527
-11 4 3 -0.5161 0.0003
-11 4 4 0.9923 -0.0007
-11 4 5 -0.9051 -0.0029
-11 5 1 2.0086 -0.1482
-11 5 2 -1.0002 0.0685
-11 5 3 -0.7374 -0.0180
-11 5 4 1.9984 0.0270
-11 6 1 1.8638 -0.1481
-11 6 2 -1.2279 0.0469
-10 -8 1 -0.1171 -0.1621
-10 -8 2 0.3047 0.2020
-10 -7 1 1.6213 -0.1122
-10 -7 2 -0.6408 0.0866
-10 -7 3 -0.1014 -0.0748
-10 -6 1 0.9159 -0.0506
-10 -6 2 -0.6384 0.0128
-10 -6 3 -0.3340 0.0500
-10 -6 4 0.4788 -0.0480
-10 -6 5 0.0804 -0.0001
-10 -5 1 -0.9509 -0.0535
-10 -5 2 0.6553 0.0457
-10 -5 3 -0.1690 -0.0177
-10 -5 4 0.2731 -0.0101
-10 -5 5 -0.1375 -0.0122
-10 -5 6 -0.3311 0.0507
-10 -4 1 -0.4916 0.0887
-10 -4 2 0.7206 -0.0706
-10 -4 3 -0.3210 0.0307
-10 -4 4 -0.0256 0.0013
-10 -4 5 -0.3961 -0.0133
-10 -4 6 0.4874 0.0160
-10 -3 1 0.0090 0.1099
-10 -3 2 -0.2780 -0.0781
-10 -3 3 -0.4442 0.0225
-10 -3 4 0.9974 0.0282
-10 -3 5 -1.2105 -0.0392
-10 -3 6 1.6593 0.0110
-10 -3 7 -1.6712 0.0276
-10 -2 1 -0.2265 0.1147
-10 -2 2 -0.2047 -0.0657
-10 -2 3 0.2284 0.0059
-10 -2 4 0.5125 0.0402
-10 -2 5 -1.0861 -0.0503
-10 -2 6 1.2410 0.0200
-10 -2 7 -1.6609 0.0169
-10 -2 8 1.8071 -0.0211
-10 -1 1 -0.1622 0.1483
-10 -1 2 -0.2658 -0.1008
-10 -1 3 0.6221 0.0246
-10 -1 4 -0.8143 0.0334
-10 -1 5 0.3881 -0.0422
-10 -1 6 0.3213 0.0129
-10 -1 7 -0.7867 0.0172
-10 -1 8 1.2008 -0.0177
-10 0 1 -0.0163 0.0647
-10 0 2 -0.7770 -0.0387
-10 0 3 0.8909 -0.0238
-10 0 4 -0.6502 0.0689
-10 0 5 0.7267 -0.0507
-10 0 6 -0.3653 -0.0033
-10 0 7 -0.5389 0.0271
-10 0 8 0.9416 -0.0019
-10 1 1 0.4349 0.0493
-10 1 2 0.1434 -0.0341
-10 1 3 -0.1650 -0.0095
-10 1 4 0.1330 0.0424
-10 1 5 0.0555 -0.0258
-10 1 6 -0.5602 -0.0130
-10 1 7 0.2868 0.0182
-10 1 8 0.6347 0.0197
-10 2 1 1.3631 -0.0017
-10 2 2 -0.3988 -0.0096
-10 2 3 -0.5450 -0.0129
-10 2 4 0.3685 0.0387
-10 2 5 0.0363 -0.0246
-10 2 6 -0.1991 -0.0105
-10 2 7 0.3570 0.0088
-10 2 8 -0.0327 0.0252
-10 3 1 1.9040 -0.0275
-10 3 2 -1.8705 0.0109
-10 3 3 0.3046 -0.0121
-10 3 4 1.1789 0.0190
-10 3 5 -1.4055 -0.0109
-10 3 6 1.0693 -0.0123
-10 3 7 -0.5306 0.0211
-10 3 8 -0.2469 0.0058
-10 4 1 2.1035 -0.0070
-10 4 2 -1.5848 0.0082
-10 4 3 -0.1481 -0.0044
-10 4 4 2.2346 0.0039
-10 4 5 -3.1603 -0.0002
-10 4 6 2.4889 0.0066
-10 4 7 -1.2699 -0.0221
-10 5 1 0.8542 0.0260
-10 5 2 -0.3587 0.0106
-10 5 3 -0.1551 -0.0009
-10 5 4 0.6578 0.0011
-10 5 5 -1.0606 -0.0219
-10 5 6 1.1020 0.0278
-10 5 7 -0.7854 -0.0252
-10 6 1 -1.7841 0.1491
-10 6 2 2.2099 -0.0605
-10 6 3 -1.2166 0.0259
-10 6 4 -0.0936 -0.0400
-10 6 5 0.7294 0.0171
-10 6 6 -0.4714 0.0284
-10 7 1 -1.5766 0.2381
-10 7 2 2.2238 -0.1130
-10 7 3 -1.7114 0.0067
-10 7 4 0.7265 0.0027
-10 8 1 0.3191 0.3008
-9 -9 1 -1.7422 0.0740
-9 -9 2 1.3690 0.0326
-9 -8 1 -0.9808 -0.0489
-9 -8 2 1.2904 0.0158
-9 -8 3 -1.1527 -0.0602
-9 -8 4 0.9406 0.1213
-9 -7 1 0.4009 -0.0437
-9 -7 2 -0.4553 -0.0051
-9 -7 3 0.0120 0.0635
-9 -7 4 -0.0555 -0.0280
-9 -7 5 0.3424 -0.0566
-9 -6 1 -0.3952 0.0038
-9 -6 2 -0.9222 -0.0159
-9 -6 3 1.3611 0.0451
-9 -6 4 -0.6900 -0.0643
-9 -6 5 0.3370 0.0101
-9 -6 6 -0.3918 0.0727
-9 -5 1 -1.0433 0.0441
-9 -5 2 -0.2585 -0.0439
-9 -5 3 1.2365 0.0405
-9 -5 4 -0.6055 -0.0332
-9 -5 5 -0.8994 0.0168
-9 -5 6 1.1407 0.0134
-9 -5 7 -0.2858 -0.0201
-9 -4 1 -1.4038 0.1622
-9 -4 2 0.7327 -0.1212
-9 -4 3 -0.4446 0.0715
-9 -4 4 0.2391 -0.0250
-9 -4 5 -0.7287 -0.0041
-9 -4 6 1.7221 0.0092
-9 -4 7 -1.7029 0.0167
-9 -4 8 0.8394 -0.0692
-9 -3 1 0.2278 0.1356
-9 -3 2 0.3364 -0.1079
-9 -3 3 -0.7984 0.0422
-9 -3 4 0.6712 0.0172
-9 -3 5 0.2191 -0.0362
-9 -3 6 -0.2932 0.0282
-9 -3 7 -1.0148 -0.0232
-9 -3 8 1.6227 0.0147
-9 -3 9 -0.7219 0.0077
-9 -2 1 1.5056 0.1603
-9 -2 2 -0.7962 -0.1302
-9 -2 3 0.3214 0.0631
-9 -2 4 -0.2100 0.0048
-9 -2 5 0.4705 -0.0317
-9 -2 6 -1.0414 0.0168
-9 -2 7 0.8283 -0.0035
-9 -2 8 0.4895 0.0124
-9 -2 9 -1.0356 -0.0158
-9 -1 1 0.2033 0.0894
-9 -1 2 -0.4708 -0.0907
-9 -1 3 0.8198 0.0380
-9 -1 4 -1.0288 0.0126
-9 -1 5 0.8046 -0.0264
-9 -1 6 -0.1658 0.0137
-9 -1 7 0.0301 0.0038
-9 -1 8 -0.2850 -0.0170
-9 -1 9 -0.1088 0.0291
-9 -1 10 0.6063 -0.0337
-9 0 1 0.0153 -0.0687
-9 0 2 0.1793 0.0305
-9 0 3 0.4338 -0.0193
-9 0 4 -1.0127 0.0184
-9 0 5 0.9797 -0.0036
-9 0 6 -0.2923 -0.0074
-9 0 7 -0.7615 0.0018
-9 0 8 0.8602 -0.0019
-9 0 9 0.1568 0.0166
-9 0 10 -0.5582 -0.0249
-9 1 1 0.3144 -0.1413
-9 1 2 0.2997 0.0628
-9 1 3 -0.2765 -0.0006
-9 1 4 -0.7097 -0.0216
-9 1 5 1.0683 0.0169
-9 1 6 -0.6232 -0.0054
-9 1 7 0.0374 -0.0070
-9 1 8 0.6926 0.0056
-9 1 9 -0.7931 0.0092
-9 1 10 -0.1266 -0.0047
-9 2 1 0.2725 -0.2829
-9 2 2 -0.2803 0.1598
-9 2 3 0.1306 -0.0339
-9 2 4 -0.5717 -0.0395
-9 2 5 1.2277 0.0365
-9 2 6 -0.9817 -0.0016
-9 2 7 0.6718 -0.0125
-9 2 8 -0.9631 0.0081
-9 2 9 0.7599 -0.0058
-9 2 10 -0.2001 0.0182
-9 3 1 -0.4256 -0.2941
-9 3 2 0.4720 0.1664
-9 3 3 -0.2113 -0.0254
-9 3 4 0.2416 -0.0675
-9 3 5 -0.0537 0.0800
-9 3 6 -0.3622 -0.0293
-9 3 7 0.3601 -0.0133
-9 3 8 -0.5192 0.0177
-9 3 9 0.9913 -0.0269
-9 3 10 -0.6989 0.0487
-9 4 1 -1.5364 -0.2864
-9 4 2 1.7032 0.1462
-9 4 3 -0.8803 0.0183
-9 4 4 0.0953 -0.0844
-9 4 5 -0.0534 0.0501
-9 4 6 0.0386 -0.0004
-9 4 7 0.0428 -0.0182
-9 4 8 0.4359 0.0089
-9 4 9 -0.8080 -0.0030
-9 5 1 -1.2737 -0.2463
-9 5 2 0.8562 0.1663
-9 5 3 0.4670 -0.0118
-9 5 4 -1.4735 -0.0888
-9 5 5 1.4413 0.0439
-9 5 6 -0.7707 0.0349
-9 5 7 0.4490 -0.0154
-9 5 8 -0.3171 -0.0568
-9 5 9 -0.1910 0.0828
-9 6 1 -0.5945 -0.1199
-9 6 2 -0.0531 0.0586
-9 6 3 1.0763 0.0171
-9 6 4 -1.3276 -0.0898
-9 6 5 0.6541 0.0783
-9 6 6 0.0315 0.0296
-9 6 7 -0.0679 -0.0911
-9 6 8 -0.3744 0.0201
-9 7 1 0.4480 -0.0673
-9 7 2 -1.1221 0.0107
-9 7 3 1.3440 0.0430
-9 7 4 -0.9577 -0.0664
-9 7 5 -0.0285 0.0480
-9 7 6 0.7697 0.0313
-9 7 7 -0.7078 -0.1324
-9 8 1 1.1877 0.0095
-9 8 2 -1.1846 -0.0513
-9 8 3 0.9222 0.0386
-9 8 4 -0.7280 0.0068
-9 8 5 0.5682 -0.0292
-9 8 6 -0.2164 0.0426
-9 9 1 0.9614 -0.0294
-9 9 2 0.1423 -0.0427
-9 9 3 -0.8913 0.0455
-8 -10 1 0.2348 -0.1707
-8 -10 2 -0.5288 0.1187
-8 -10 3 0.5342 -0.0231
-8 -9 1 0.3460 -0.2087
-8 -9 2 -0.1597 0.0828
-8 -9 3 -0.4376 0.0052
-8 -9 4 1.0761 -0.0440
-8 -8 1 0.7507 -0.3490
-8 -8 2 -0.3361 0.2099
-8 -8 3 -0.7756 -0.0234
-8 -8 4 1.0413 -0.0709
-8 -8 5 -0.4463 0.0753
-8 -8 6 -0.1543 -0.0688
-8 -7 1 -0.3567 -0.1580
-8 -7 2 -0.2792 0.1682
-8 -7 3 0.0106 -0.0862
-8 -7 4 0.3511 -0.0348
-8 -7 5 0.2309 0.0736
-8 -7 6 -0.9353 -0.0297
-8 -7 7 0.8166 -0.0100
-8 -6 1 -1.4827 -0.0932
-8 -6 2 0.8911 0.0641
-8 -6 3 -0.4191 -0.0338
-8 -6 4 0.6575 -0.0112
-8 -6 5 -0.8780 0.0443
-8 -6 6 0.0570 -0.0201
-8 -6 7 0.9844 -0.0207
-8 -6 8 -1.2525 0.0137
-8 -5 1 -1.5925 -0.0097
-8 -5 2 1.4658 0.0456
-8 -5 3 -1.5296 -0.0197
-8 -5 4 1.2584 -0.0144
-8 -5 5 -1.0866 0.0253
-8 -5 6 0.8762 -0.0111
-8 -5 7 -0.0188 -0.0018
-8 -5 8 -0.6332 -0.0243
-8 -5 9 0.3842 0.0754
-8 -4 1 0.3581 0.1847
-8 -4 2 0.1434 -0.0835
-8 -4 3 -0.4241 0.0016
-8 -4 4 0.2892 0.0152
-8 -4 5 0.3089 0.0034
-8 -4 6 -0.2002 -0.0004
-8 -4 7 -0.5920 -0.0310
-8 -4 8 0.6414 0.0368
-8 -4 9 -0.2100 0.0060
-8 -3 1 2.7853 0.1733
-8 -3 2 -2.1070 -0.0788
-8 -3 3 1.5885 -0.0042
-8 -3 4 -1.1179 0.0359
-8 -3 5 0.8647 -0.0164
-8 -3 6 -1.0305 -0.0082
-8 -3 7 0.6264 -0.0065
-8 -3 8 0.3385 0.0316
-8 -3 9 -0.3840 -0.0052
-8 -3 10 -0.1273 -0.0484
-8 -2 1 -0.1446 0.2371
-8 -2 2 -0.8711 -0.0944
-8 -2 3 1.3276 -0.0389
-8 -2 4 -0.9937 0.0822
-8 -2 5 0.0555 -0.0543
-8 -2 6 0.3670 0.0103
-8 -2 7 0.4530 0.0203
-8 -2 8 -0.8587 -0.0354
-8 -2 9 -0.2336 0.0533
-8 -2 10 1.1143 -0.0759
-8 -1 1 -2.0878 0.1500
-8 -1 2 1.3819 -0.0710
-8 -1 3 0.0421 -0.0382
-8 -1 4 -0.6157 0.0948
-8 -1 5 -0.0013 -0.0709
-8 -1 6 1.0341 0.0186
-8 -1 7 -1.2016 0.0197
-8 -1 8 -0.0513 -0.0397
-8 -1 9 0.8872 0.0334
-8 -1 10 0.0090 -0.0012
-8 -1 11 -0.7999 -0.0348
-8 0 1 -0.1025 -0.0024
-8 0 2 0.5673 0.0398
-8 0 3 -0.3972 -0.0600
-8 0 4 -0.1257 0.0623
-8 0 5 -0.1027 -0.0370
-8 0 6 0.7554 -0.0145
-8 0 7 -1.2715 0.0557
-8 0 8 1.3490 -0.0582
-8 0 9 -0.3786 0.0171
-8 0 10 -0.7725 0.0514
-8 0 11 0.6602 -0.0927
-8 1 1 0.0812 -0.0965
-8 1 2 -0.3471 0.0822
-8 1 3 0.1687 -0.0623
-8 1 4 -0.0390 0.0456
-8 1 5 -0.0683 -0.0365
-8 1 6 0.5234 0.0007
-8 1 7 -0.5701 0.0608
-8 1 8 0.3353 -0.0793
-8 1 9 -0.5632 0.0222
-8 1 10 0.3824 0.0629
-8 1 11 0.4706 -0.1041
-8 2 1 -0.1608 -0.2347
-8 2 2 -0.3718 0.1792
-8 2 3 0.9121 -0.0906
-8 2 4 -0.5475 0.0221
-8 2 5 0.2028 0.0014
-8 2 6 -0.1260 -0.0051
-8 2 7 -0.1564 0.0318
-8 2 8 0.0027 -0.0519
-8 2 9 0.4081 0.0066
-8 2 10 -0.1101 0.0637
-8 2 11 -0.1243 -0.0767
-8 3 1 -0.8175 -0.1703
-8 3 2 0.3160 0.1273
-8 3 3 0.3474 -0.0432
-8 3 4 -0.3727 -0.0075
-8 3 5 -0.1866 0.0183
-8 3 6 0.1136 -0.0201
-8 3 7 0.0458 0.0206
-8 3 8 0.7367 -0.0128
-8 3 9 -1.2469 -0.0169
-8 3 10 0.7658 0.0543
-8 3 11 -0.3907 -0.0416
-8 4 1 -0.3877 -0.0986
-8 4 2 -0.0892 0.0802
-8 4 3 0.3866 -0.0080
-8 4 5 0.4124 0.0088
-8 4 6 -0.1979 0.0136
-8 4 7 0.4616 0.0103
-8 4 8 -0.3163 -0.0170
-8 4 9 -0.8236 -0.0241
-8 4 10 1.3769 0.0655
-8 4 11 -0.7018 -0.0650
-8 5 1 1.2353 0.0524
-8 5 2 -1.2520 0.0182
-8 5 3 1.0391 -0.0491
-8 5 4 -0.7175 0.0047
-8 5 5 0.7470 0.0423
-8 5 6 -0.9207 -0.0254
-8 5 7 1.0347 0.0023
-8 5 8 -1.2870 -0.0118
-8 5 9 1.0518 -0.0003
-8 5 10 -0.0489 0.0398
-8 6 1 0.5538 0.2577
-8 6 2 -0.3614 -0.1554
-8 6 3 0.0810 0.0319
-8 6 4 -0.1072 0.0361
-8 6 5 0.2391 -0.0072
-8 6 6 -0.3209 -0.0222
-8 6 7 0.0995 -0.0219
-8 6 8 0.2559 0.0596
-8 6 9 -0.2705 -0.0315
-8 6 10 0.2827 -0.0004
-8 7 1 -0.3378 0.3233
-8 7 2 0.3794 -0.1704
-8 7 3 -0.4930 0.0303
-8 7 4 -0.1307 0.0538
-8 7 5 0.9474 -0.0555
-8 7 6 -0.7224 0.0147
-8 7 7 -0.5376 -0.0138
-8 7 8 1.8318 0.0548
-8 7 9 -2.1486 -0.0609
-8 8 1 -0.4472 0.4074
-8 8 2 0.8332 -0.2103
-8 8 3 -0.6079 0.0222
-8 8 4 -0.3874 0.1000
-8 8 5 1.8902 -0.0931
-8 8 6 -2.5085 -0.0136
-8 8 7 1.4394 0.0918
-8 8 8 0.2133 -0.0784
-8 9 1 -0.5374 0.4211
-8 9 2 0.8432 -0.1717
-8 9 3 -0.5017 0.0434
-8 9 4 -0.3764 -0.0088
-8 9 5 1.3881 -0.0289
-8 9 6 -2.1943 -0.0031
-8 9 7 2.0860 0.1152
-8 10 1 -0.5932 0.3206
-8 10 2 -0.2476 -0.1129
-8 10 3 0.5740 -0.0393
-8 10 4 -0.6025 -0.0511
-7 -11 1 0.1028 -0.1200
-7 -11 2 0.2422 0.0411
-7 -10 1 1.6492 -0.0317
-7 -10 2 -0.1480 0.0577
-7 -10 3 -0.9415 -0.0322
-7 -10 4 0.9974 -0.0102
-7 -9 1 1.6641 -0.0482
-7 -9 2 -0.0042 -0.0004
-7 -9 3 -1.3451 0.0059
-7 -9 4 1.0563 -0.0095
-7 -9 5 0.2138 0.0332
-7 -9 6 -1.1448 -0.0581
-7 -8 1 -0.1587 -0.0608
-7 -8 2 0.5241 0.0289
-7 -8 3 -0.9158 -0.0031
-7 -8 4 0.5734 -0.0131
-7 -8 5 0.5621 0.0232
-7 -8 6 -1.3590 -0.0270
-7 -8 7 1.1611 0.0247
-7 -7 1 -1.3087 0.0793
-7 -7 2 1.0504 -0.1062
-7 -7 3 -0.5431 0.0735
-7 -7 4 0.6230 -0.0275
-7 -7 5 -0.9743 0.0124
-7 -7 6 0.5548 -0.0087
-7 -7 7 0.4198 -0.0007
-7 -7 8 -1.0591 -0.0008
-7 -6 1 -0.0714 0.0944
-7 -6 2 0.3643 -0.1200
-7 -6 3 -0.5912 0.1178
-7 -6 4 0.5698 -0.0543
-7 -6 5 -0.9110 -0.0063
-7 -6 6 1.1737 0.0179
-7 -6 7 -0.4599 -0.0090
-7 -6 8 -0.5042 0.0054
-7 -6 9 0.7203 0.0016
-7 -5 1 1.9222 0.3427
-7 -5 2 -1.3423 -0.2062
-7 -5 3 0.5957 0.0868
-7 -5 4 -0.0284 -0.0100
-7 -5 5 0.0668 -0.0254
-7 -5 6 0.0656 0.0289
-7 -5 7 -0.5058 -0.0280
-7 -5 8 0.5703 0.0401
-7 -5 9 -0.5519 -0.0479
-7 -5 10 0.6352 0.0338
-7 -4 1 2.6361 0.4847
-7 -4 2 -1.7627 -0.3428
-7 -4 3 1.4457 0.1525
-7 -4 4 -0.9756 -0.0032
-7 -4 5 0.4190 -0.0578
-7 -4 6 -0.3729 0.0477
-7 -4 7 0.2219 -0.0264
-7 -4 8 0.1642 0.0238
-7 -4 9 -0.0498 -0.0201
-7 -4 10 -0.1074 0.0076
-7 -4 11 -0.0639 -0.0109
-7 -3 1 -0.4689 0.4236
-7 -3 2 0.6560 -0.2761
-7 -3 3 -0.7861 0.1061
-7 -3 4 0.4088 0.0118
-7 -3 5 -0.1485 -0.0705
-7 -3 6 -0.1197 0.0729
-7 -3 7 0.7241 -0.0287
-7 -3 8 -0.5317 -0.0253
-7 -3 9 -0.5452 0.0618
-7 -3 10 0.9769 -0.0732
-7 -3 11 -0.8344 0.0448
-7 -2 1 -3.4407 0.4247
-7 -2 2 3.2071 -0.3062
-7 -2 3 -2.4135 0.1018
-7 -2 4 1.5154 0.0561
-7 -2 5 -0.5498 -0.0999
-7 -2 6 0.0447 0.0629
-7 -2 7 0.1060 0.0010
-7 -2 8 -0.2105 -0.0506
-7 -2 9 -0.6180 0.0534
-7 -2 10 1.9465 -0.0202
-7 -2 11 -1.8509 -0.0114
-7 -2 12 0.8435 0.0303
-7 -1 1 -0.4723 0.1436
-7 -1 2 1.3081 -0.1516
-7 -1 3 -1.0935 0.0827
-7 -1 4 0.3372 0.0316
-7 -1 5 0.3307 -0.0934
-7 -1 6 -0.7546 0.0475
-7 -1 7 0.4064 0.0388
-7 -1 8 0.2497 -0.0709
-7 -1 9 -0.1039 0.0263
-7 -1 10 -0.1012 0.0424
-7 -1 11 -0.2923 -0.0626
-7 -1 12 0.2733 0.0280
-7 0 1 1.3776 -0.0705
-7 0 2 -1.0389 0.0120
-7 0 3 0.0807 0.0001
-7 0 4 0.3967 0.0250
-7 0 5 -0.0870 -0.0503
-7 0 6 -0.5793 0.0170
-7 0 7 1.2175 0.0533
-7 0 8 -0.9775 -0.0646
-7 0 9 0.2190 0.0003
-7 0 10 -0.3592 0.0518
-7 0 11 0.7075 -0.0293
-7 0 12 -0.0804 -0.0351
-7 1 1 0.3629 -0.2695
-7 1 2 -0.5715 0.0844
-7 1 3 0.2818 0.0183
-7 1 4 0.5409 -0.0225
-7 1 5 -0.6982 -0.0035
-7 1 6 0.2237 -0.0014
-7 1 7 0.2804 0.0332
-7 1 8 -0.9318 -0.0232
-7 1 9 1.1407 -0.0462
-7 1 10 -0.6450 0.0780
-7 1 11 0.4759 -0.0133
-7 1 12 -0.4639 -0.0651
-7 2 1 0.2530 -0.5187
-7 2 2 -0.3323 0.2609
-7 2 3 0.3387 -0.0220
-7 2 4 -0.1866 -0.0806
-7 2 5 -0.0821 0.0771
-7 2 6 -0.0304 -0.0447
-7 2 7 -0.1257 0.0114
-7 2 8 0.6130 0.0257
-7 2 9 -0.0915 -0.0586
-7 2 10 -1.0084 0.0461
-7 2 11 1.1623 0.0355
-7 2 12 -0.6674 -0.1025
-7 3 1 -0.4948 -0.4683
-7 3 2 0.0995 0.2228
-7 3 3 0.0351 0.0120
-7 3 4 -0.5424 -0.1170
-7 3 5 0.8089 0.0955
-7 3 6 -0.3680 -0.0350
-7 3 7 -0.1053 -0.0158
-7 3 8 0.6237 0.0564
-7 3 9 -1.0147 -0.0601
-7 3 10 0.3175 0.0062
-7 3 11 0.6582 0.0692
-7 3 12 -0.4202 -0.1049
-7 4 1 -0.0288 -0.4036
-7 4 2 0.4436 0.1741
-7 4 3 -0.4975 0.0346
-7 4 4 -0.2199 -0.1380
-7 4 5 1.3146 0.1188
-7 4 6 -1.2084 -0.0153
-7 4 7 0.0157 -0.0752
-7 4 8 0.4400 0.0934
-7 4 9 -0.1572 -0.0525
-7 4 10 0.1860 -0.0190
-7 4 11 -0.2886 0.0732
-7 4 12 0.3283 -0.0607
-7 5 1 0.9836 -0.2250
-7 5 2 0.0428 0.0857
-7 5 3 -0.8282 0.0429
-7 5 4 0.7792 -0.0963
-7 5 5 0.0079 0.1020
-7 5 6 -0.7954 -0.0445
-7 5 7 0.6033 -0.0668
-7 5 8 -0.0493 0.1110
-7 5 9 0.3632 -0.0268
-7 5 10 -0.7956 -0.0879
-7 5 11 0.3687 0.1258
-7 5 12 0.1295 -0.0711
-7 6 1 0.8929 0.0109
-7 6 2 -0.8446 -0.0557
-7 6 3 0.0568 0.1195
-7 6 4 0.7600 -0.1146
-7 6 5 -1.4376 0.0459
-7 6 6 1.8045 0.0190
-7 6 7 -1.5668 -0.0734
-7 6 8 0.9454 0.0973
-7 6 9 -0.0584 -0.0222
-7 6 10 -0.9043 -0.1047
-7 6 11 1.1028 0.1398
-7 7 1 0.3088 0.1086
-7 7 3 1.1588 0.0684
-7 7 4 -0.3249 -0.0586
-7 7 5 -0.7916 0.0255
-7 7 6 1.9231 0.0174
-7 7 7 -2.5515 -0.0488
-7 7 8 2.0376 0.0671
-7 7 9 -0.6883 -0.0482
-7 7 10 -0.6289 -0.0194
-7 7 11 1.1554 0.0585
-7 8 1 -0.2134 0.2276
-7 8 2 0.2522 -0.1324
-7 8 3 0.3503 0.0510
-7 8 4 -0.6642 0.0064
-7 8 5 0.4939 -0.0489
-7 8 6 -0.3034 0.0321
-7 8 7 0.0687 0.0274
-7 8 8 0.1268 -0.0403
-7 8 9 0.0591 -0.0057
-7 8 10 -0.4812 0.0298
-7 9 1 0.2438 0.1706
-7 9 2 -0.0489 -0.1002
-7 9 3 -0.1727 0.0039
-7 9 4 0.0014 -0.0150
-7 9 5 0.1637 0.0164
-7 9 6 -0.2938 0.0530
-7 9 7 0.4776 -0.0582
-7 9 8 -0.3069 -0.0236
-7 9 9 -0.1214 0.0542
-7 10 1 0.7126 -0.0699
-7 10 2 -0.8542 -0.0901
-7 10 3 0.0839 0.0391
-7 10 4 0.7734 0.0546
-7 10 5 -0.8106 0.0047
-7 10 6 0.3868 -0.0548
-7 10 7 0.0232 -0.0305
-7 11 1 1.3246 -0.2015
-7 11 2 -0.2622 0.0223
-7 11 3 -0.5680 0.1444
-7 11 4 1.0807 -0.0281
-6 -12 1 -1.1380 -0.0142
-6 -11 1 -1.3330 -0.3040
-6 -11 2 0.8943 0.1687
-6 -11 3 -0.2802 -0.0246
-6 -11 4 0.0230 -0.0565
-6 -10 1 0.0507 -0.4151
-6 -10 2 0.6794 0.2939
-6 -10 3 -0.8869 -0.1325
-6 -10 4 0.7284 -0.0305
-6 -10 5 -0.6252 0.1246
-6 -10 6 0.3530 -0.1200
-6 -9 1 -0.0059 -0.5258
-6 -9 2 0.2516 0.3058
-6 -9 3 -0.2959 -0.0977
-6 -9 4 0.1103 -0.0392
-6 -9 5 0.1191 0.1010
-6 -9 6 -0.1500 -0.0683
-6 -9 7 0.1253 -0.0305
-6 -8 1 -0.3787 -0.5517
-6 -8 2 0.1887 0.3588
-6 -8 3 0.2026 -0.0931
-6 -8 4 -0.0324 -0.0832
-6 -8 5 -0.3069 0.1243
-6 -8 6 0.0038 -0.0527
-6 -8 7 0.6135 -0.0686
-6 -8 8 -0.7833 0.1406
-6 -7 1 0.5772 -0.3435
-6 -7 2 -0.8481 0.2475
-6 -7 3 0.8608 -0.0658
-6 -7 4 -0.5620 -0.0783
-6 -7 5 -0.0759 0.1144
-6 -7 6 0.2985 -0.0564
-6 -7 7 0.3953 -0.0385
-6 -7 8 -1.0406 0.0980
-6 -7 9 0.8245 -0.0835
-6 -6 1 2.0712 -0.1576
-6 -6 2 -2.2778 0.1369
-6 -6 3 1.8321 -0.0444
-6 -6 4 -1.1023 -0.0517
-6 -6 5 0.9279 0.0820
-6 -6 6 -0.7561 -0.0325
-6 -6 7 0.2282 -0.0462
-6 -6 8 0.1235 0.0877
-6 -6 9 -0.1914 -0.0650
-6 -6 10 0.0473 0.0114
-6 -5 1 2.0696 0.0923
-6 -5 2 -2.0424 -0.0023
-6 -5 3 1.7558 -0.0201
-6 -5 4 -0.6825 -0.0109
-6 -5 5 -0.2959 0.0417
-6 -5 6 0.1998 -0.0290
-6 -5 7 0.0704 -0.0165
-6 -5 8 0.0291 0.0365
-6 -5 9 0.1831 -0.0006
-6 -5 10 -0.6613 -0.0509
-6 -5 11 0.9960 0.0607
-6 -4 1 1.0205 0.2426
-6 -4 2 -0.9436 -0.0854
-6 -4 3 0.4157 -0.0174
-6 -4 4 0.0844 0.0324
-6 -4 5 -0.9449 -0.0237
-6 -4 6 1.4876 0.0275
-6 -4 7 -0.8110 -0.0208
-6 -4 8 -0.1513 -0.0139
-6 -4 9 0.7483 0.0546
-6 -4 10 -1.3617 -0.0596
-6 -4 11 1.5645 0.0136
-6 -4 12 -1.2477 0.0421
-6 -3 1 0.1775 0.2952
-6 -3 2 -0.2474 -0.1111
-6 -3 3 -0.0476 -0.0557
-6 -3 4 0.3272 0.1047
-6 -3 5 -0.2692 -0.0609
-6 -3 6 0.7180 0.0148
-6 -3 7 -1.3781 0.0107
-6 -3 8 1.2302 -0.0364
-6 -3 9 -0.7932 0.0408
-6 -3 10 0.3030 -0.0007
-6 -3 11 0.6298 -0.0526
-6 -3 12 -1.0178 0.0683
-6 -2 1 0.5347 0.2254
-6 -2 2 -0.5620 -0.0944
-6 -2 3 1.1099 -0.0526
-6 -2 4 -1.3926 0.1401
-6 -2 5 1.2887 -0.1106
-6 -2 6 -0.8560 -0.0061
-6 -2 7 -0.4852 0.0958
-6 -2 8 1.7035 -0.0895
-6 -2 9 -1.2751 0.0115
-6 -2 10 0.1047 0.0732
-6 -2 11 0.8151 -0.0987
-6 -2 12 -1.5807 0.0495
-6 -1 1 0.5638 -0.0695
-6 -1 2 -0.7754 0.1063
-6 -1 3 0.6253 -0.1469
-6 -1 4 -0.8744 0.1437
-6 -1 5 1.2851 -0.0887
-6 -1 6 -1.5944 -0.0165
-6 -1 7 1.5349 0.1118
-6 -1 8 -0.5261 -0.1024
-6 -1 9 -0.2937 -0.0020
-6 -1 10 -0.3787 0.0881
-6 -1 11 1.1825 -0.0763
-6 -1 12 -1.1652 -0.0082
-6 -1 13 1.2120 0.0725
-6 0 1 -0.8723 -0.2763
-6 0 2 0.7506 0.2085
-6 0 3 -1.2285 -0.1739
-6 0 4 1.6962 0.1293
-6 0 5 -1.2727 -0.0307
-6 0 6 0.3244 -0.0781
-6 0 7 0.7054 0.1250
-6 0 8 -1.4238 -0.0712
-6 0 9 0.8893 -0.0435
-6 0 10 0.2381 0.1060
-6 0 11 -0.4395 -0.0541
-6 0 12 0.2312 -0.0524
-6 0 13 -0.1660 0.1152
-6 1 1 -0.6261 -0.5441
-6 1 2 0.9396 0.3500
-6 1 3 -1.0064 -0.1695
-6 1 4 0.9442 0.0643
-6 1 5 -1.0427 0.0184
-6 1 6 1.1126 -0.0947
-6 1 7 -1.1533 0.1061
-6 1 8 0.6270 -0.0329
-6 1 9 0.6192 -0.0645
-6 1 10 -1.0957 0.1022
-6 1 11 0.4378 -0.0465
-6 1 12 -0.0415 -0.0433
-6 1 13 0.0295 0.0829
-6 2 1 -0.1470 -0.6755
-6 2 2 -0.0889 0.4602
-6 2 3 0.3648 -0.2056
-6 2 4 -0.8513 0.0216
-6 2 5 0.8481 0.0789
-6 2 6 -0.1102 -0.1098
-6 2 7 -0.4768 0.0683
-6 2 8 0.4862 0.0164
-6 2 9 0.2830 -0.0680
-6 2 10 -1.6116 0.0527
-6 2 11 2.0111 -0.0024
-6 2 12 -1.0793 -0.0442
-6 2 13 0.2762 0.0522
-6 3 1 -0.9399 -0.4980
-6 3 2 0.7004 0.3259
-6 3 3 0.2096 -0.1097
-6 3 4 -0.9123 -0.0369
-6 3 5 0.9606 0.1002
-6 3 6 0.0174 -0.0860
-6 3 7 -1.0953 0.0154
-6 3 8 0.9138 0.0573
-6 3 9 -0.1025 -0.0724
-6 3 10 -0.2761 0.0251
-6 3 11 0.3972 0.0217
-6 3 12 -0.2767 -0.0327
-6 3 13 -0.0725 0.0377
-6 4 1 -0.6853 -0.3465
-6 4 2 1.2302 0.2428
-6 4 3 -0.8626 -0.0612
-6 4 4 0.2470 -0.0578
-6 4 5 0.0347 0.0952
-6 4 6 0.1396 -0.0634
-6 4 7 -1.0447 -0.0213
-6 4 8 1.9540 0.0813
-6 4 9 -1.8132 -0.0568
-6 4 10 1.2110 -0.0094
-6 4 11 -0.8505 0.0391
-6 4 12 0.2948 -0.0138
-6 4 13 0.2946 -0.0143
-6 5 1 0.4784 -0.0094
-6 5 2 -0.0867 0.0850
-6 5 3 -0.3105 -0.0131
-6 5 4 0.6063 -0.0520
-6 5 5 -0.8037 0.0369
-6 5 6 0.4736 -0.0059
-6 5 7 0.1803 -0.0128
-6 5 8 0.0012 0.0282
-6 5 9 -0.8738 -0.0092
-6 5 10 1.0899 -0.0335
-6 5 11 -0.4933 0.0343
-6 5 12 -0.2263 0.0062
-6 5 13 0.7019 -0.0307
-6 6 1 0.7929 0.3556
-6 6 2 -1.0849 -0.1438
-6 6 3 0.9203 0.0362
-6 6 4 -0.3457 -0.0256
-6 6 5 -0.3650 -0.0125
-6 6 6 0.9664 0.0700
-6 6 7 -0.9543 -0.0522
-6 6 8 0.3899 -0.0172
-6 6 9 -0.0376 0.0507
-6 6 10 -0.0386 -0.0366
-6 6 11 0.1914 -0.0042
-6 6 12 -0.1517 0.0477
-6 7 1 -0.2248 0.5600
-6 7 2 0.2861 -0.2912
-6 7 3 0.0512 0.0391
-6 7 4 -0.2941 0.0818
-6 7 5 0.3299 -0.0920
-6 7 6 -0.0576 0.0605
-6 7 7 -0.6582 -0.0070
-6 7 8 1.2521 -0.0519
-6 7 9 -1.0855 0.0603
-6 7 10 0.2694 -0.0113
-6 7 11 0.6068 -0.0352
-6 7 12 -0.7949 0.0535
-6 8 1 -0.0289 0.6917
-6 8 2 0.4914 -0.3424
-6 8 3 -0.4818 0.0139
-6 8 4 0.0366 0.1258
-6 8 5 0.1969 -0.1215
-6 8 6 -0.1746 0.0630
-6 8 7 -0.1112 0.0230
-6 8 8 0.7851 -0.0962
-6 8 9 -1.3460 0.0886
-6 8 10 1.1398 -0.0126
-6 8 11 -0.1506 -0.0351
-6 9 1 0.2847 0.5457
-6 9 2 -1.2850 -0.2923
-6 9 3 1.0333 -0.0486
-6 9 4 -0.3036 0.2005
-6 9 5 -0.3320 -0.0904
-6 9 6 0.8376 -0.0467
-6 9 7 -0.9815 0.0514
-6 9 8 0.9285 -0.0112
-6 9 9 -1.0578 0.0031
-6 9 10 1.1439 0.0072
-6 10 1 -0.1162 0.3361
-6 10 2 -0.4150 -0.1864
-6 10 3 0.8165 0.0142
-6 10 4 -0.3360 0.1806
-6 10 5 -0.3813 -0.1868
-6 10 6 0.7727 -0.0442
-6 10 7 -0.6670 0.1902
-6 10 8 0.0207 -0.0604
-6 10 9 0.4937 -0.1317
-6 11 1 1.0198 0.1702
-6 11 2 0.0275 0.0195
-6 11 3 -0.1180 -0.0873
-6 11 4 -0.2086 0.0382
-6 11 5 -0.0171 -0.0535
-6 11 6 0.6096 0.0371
-6 11 7 -1.0215 0.1114
-6 12 1 1.0788 -0.0607
-6 12 2 -1.2233 0.0706
-6 12 3 0.7758 -0.1993
-5 -12 1 -0.9329 0.1369
-5 -12 2 -0.2162 -0.1363
-5 -12 3 0.6788 0.0416
-5 -11 1 -0.3269 -0.0740
-5 -11 2 0.2366 0.0408
-5 -11 3 0.1045 -0.0030
-5 -11 4 0.2532 -0.0022
-5 -11 5 -0.8674 0.0045
-5 -10 1 0.3293 -0.0584
-5 -10 2 -0.1497 0.0282
-5 -10 3 -0.1453 -0.0152
-5 -10 4 0.2290 -0.0023
-5 -10 5 -0.3484 0.0173
-5 -10 6 0.5246 -0.0064
-5 -10 7 -0.3614 -0.0286
-5 -9 1 0.3598 -0.1281
-5 -9 2 -0.6139 0.0115
-5 -9 3 0.3228 0.0748
-5 -9 4 -0.0226 -0.0744
-5 -9 5 0.1795 0.0258
-5 -9 6 -0.3738 0.0399
-5 -9 7 0.0615 -0.0996
-5 -9 8 0.3432 0.1100
-5 -8 1 0.6955 -0.0319
-5 -8 2 -1.1643 0.0267
-5 -8 3 0.6616 0.0579
-5 -8 4 -0.0723 -0.1089
-5 -8 5 -0.0840 0.0616
-5 -8 6 -0.1978 0.0226
-5 -8 7 0.5443 -0.0536
-5 -8 8 -0.5580 0.0013
-5 -8 9 0.4625 0.0864
-5 -7 1 1.0715 0.2789
-5 -7 2 -1.5889 -0.1870
-5 -7 3 1.2653 0.1222
-5 -7 4 -0.5110 -0.0933
-5 -7 5 0.2176 0.0336
-5 -7 6 0.0309 0.0598
-5 -7 7 -0.3069 -0.0907
-5 -7 8 -0.0681 0.0163
-5 -7 9 0.9981 0.0792
-5 -7 10 -1.7178 -0.0927
-5 -6 1 0.1954 0.4693
-5 -6 2 0.4313 -0.3226
-5 -6 3 -0.4931 0.1959
-5 -6 4 0.6555 -0.0967
-5 -6 5 -0.8301 0.0003
-5 -6 6 0.6305 0.0957
-5 -6 7 -0.6223 -0.1292
-5 -6 8 0.6093 0.0460
-5 -6 9 0.1247 0.0841
-5 -6 10 -0.9635 -0.1323
-5 -6 11 1.0131 0.0755
-5 -5 1 -0.1034 0.8594
-5 -5 2 0.8739 -0.5005
-5 -5 3 -1.7251 0.1986
-5 -5 4 1.8401 -0.0363
-5 -5 5 -1.9336 -0.0625
-5 -5 6 1.8675 0.1282
-5 -5 7 -0.9654 -0.1161
-5 -5 8 0.0514 0.0141
-5 -5 9 0.2330 0.0999
-5 -5 10 -0.1829 -0.1208
-5 -5 11 -0.1562 0.0352
-5 -5 12 0.4003 0.0575
-5 -4 1 0.0637 1.0587
-5 -4 2 -1.0028 -0.6670
-5 -4 3 1.0307 0.2133
-5 -4 4 -0.3205 0.0528
-5 -4 5 -0.1509 -0.1335
-5 -4 6 0.7529 0.1336
-5 -4 7 -1.1149 -0.0754
-5 -4 8 0.5362 -0.0337
-5 -4 9 -0.0263 0.1019
-5 -4 10 0.1548 -0.0532
-5 -4 11 -0.3075 -0.0613
-5 -4 12 0.4395 0.1262
-5 -3 1 -2.5449 0.9746
-5 -3 2 0.6445 -0.6299
-5 -3 3 1.8905 0.1879
-5 -3 4 -2.8083 0.1184
-5 -3 5 2.1782 -0.1890
-5 -3 6 -1.2935 0.0964
-5 -3 7 0.0449 0.0192
-5 -3 8 0.9888 -0.0922
-5 -3 9 -0.9028 0.1075
-5 -3 10 0.5326 -0.0492
-5 -3 11 -0.2903 -0.0436
-5 -3 12 -0.1467 0.0848
-5 -3 13 0.0566 -0.0477
-5 -2 1 -4.3875 0.8150
-5 -2 2 2.9525 -0.5303
-5 -2 3 -1.2331 0.1140
-5 -2 4 -0.6036 0.1577
-5 -2 5 1.3613 -0.2025
-5 -2 6 -1.4661 0.0827
-5 -2 7 1.6232 0.0589
-5 -2 8 -1.0486 -0.1014
-5 -2 9 0.1540 0.0565
-5 -2 10 0.0375 -0.0011
-5 -2 11 -0.1107 -0.0376
-5 -2 12 0.0151 0.0598
-5 -2 13 0.7435 -0.0552
-5 -1 1 -1.8574 0.3513
-5 -1 2 1.8376 -0.3057
-5 -1 3 -2.7713 0.0549
-5 -1 4 3.3542 0.1392
-5 -1 5 -2.6145 -0.1283
-5 -1 6 1.1110 0.0121
-5 -1 7 0.8630 0.0678
-5 -1 8 -2.3994 -0.0639
-5 -1 9 1.7262 0.0082
-5 -1 10 0.3865 0.0334
-5 -1 11 -1.7782 -0.0338
-5 -1 12 2.1371 0.0197
-5 -1 13 -1.3867 -0.0093
-5 -1 14 -0.2548 -0.0010
-5 0 1 1.3284 -0.0724
-5 0 2 -0.7646 -0.0465
-5 0 3 -0.1528 0.0361
-5 0 4 1.4280 0.0402
-5 0 5 -2.5389 -0.0431
-5 0 6 2.7603 -0.0252
-5 0 7 -1.9650 0.0513
-5 0 8 0.1627 -0.0155
-5 0 9 1.2853 -0.0152
-5 0 10 -0.4099 0.0179
-5 0 11 -1.6316 -0.0129
-5 0 12 2.3449 0.0055
-5 0 13 -1.8153 0.0136
-5 0 14 0.8558 -0.0372
-5 1 1 1.3655 -0.4368
-5 1 2 -1.6627 0.1727
-5 1 3 2.1366 0.0016
-5 1 4 -2.2681 -0.0651
-5 1 5 1.3652 0.0569
-5 1 6 0.3032 -0.0183
-5 1 7 -1.4800 -0.0266
-5 1 8 1.3461 0.0481
-5 1 9 0.1602 -0.0173
-5 1 10 -1.6786 -0.0272
-5 1 11 1.4517 0.0186
-5 1 12 -0.2887 0.0241
-5 1 13 -0.0584 -0.0329
-5 1 14 -0.0680 0.0045
-5 2 1 -0.1144 -0.6646
-5 2 2 0.0860 0.3022
-5 2 3 0.8644 0.0291
-5 2 4 -1.4204 -0.1724
-5 2 5 1.3823 0.1438
-5 2 6 -0.9173 -0.0208
-5 2 7 0.4272 -0.0890
-5 2 8 -0.3099 0.0957
-5 2 9 0.3431 -0.0089
-5 2 10 -0.4982 -0.0678
-5 2 11 0.7512 0.0483
-5 2 12 -0.5670 0.0237
-5 2 13 0.2155 -0.0358
-5 2 14 -0.3155 -0.0149
-5 3 1 -0.2153 -0.5719
-5 3 2 0.7531 0.2674
-5 3 3 -0.6650 0.0934
-5 3 4 0.5160 -0.2590
-5 3 5 -0.7480 0.1689
-5 3 6 0.6986 0.0299
-5 3 7 -0.3781 -0.1508
-5 3 8 0.3311 0.1069
-5 3 9 -0.6707 0.0301
-5 3 10 1.2608 -0.1085
-5 3 11 -1.4486 0.0616
-5 3 12 0.6975 0.0329
-5 3 13 0.3154 -0.0531
-5 3 14 -0.8197 -0.0193
-5 4 1 0.1063 -0.3395
-5 4 2 -0.0440 0.1377
-5 4 3 -0.4646 0.1421
-5 4 4 0.9291 -0.2778
-5 4 5 -1.2375 0.1517
-5 4 6 1.1228 0.0837
-5 4 7 -0.5026 -0.1878
-5 4 8 0.3426 0.0963
-5 4 9 -1.0088 0.0631
-5 4 10 1.4930 -0.1288
-5 4 11 -1.2205 0.0622
-5 4 12 0.4908 0.0369
-5 4 13 0.2694 -0.0674
-5 4 14 -0.5813 0.0242
-5 5 1 -0.0374 0.0582
-5 5 2 -0.0429 -0.0797
-5 5 3 -0.0175 0.1867
-5 5 4 0.1356 -0.2553
-5 5 5 -0.0939 0.1225
-5 5 6 0.0282 0.1226
-5 5 7 0.1468 -0.2084
-5 5 8 -0.4995 0.0680
-5 5 9 0.5436 0.0942
-5 5 10 -0.1972 -0.1125
-5 5 11 -0.0787 0.0220
-5 5 12 0.3335 0.0506
-5 5 13 -0.6973 -0.0363
-5 5 14 0.7807 -0.0242
-5 6 1 -0.7972 0.3542
-5 6 2 0.6470 -0.2810
-5 6 3 -0.3858 0.1851
-5 6 4 0.0342 -0.1294
-5 6 5 0.3957 0.0452
-5 6 6 -0.5324 0.1071
-5 6 7 0.0865 -0.1800
-5 6 8 0.3619 0.0567
-5 6 9 -0.1297 0.1099
-5 6 10 -0.4865 -0.1155
-5 6 11 0.6983 -0.0048
-5 6 12 -0.1655 0.0878
-5 6 13 -0.6667 -0.0656
-5 7 1 -0.8637 0.5255
-5 7 2 0.8810 -0.3776
-5 7 3 -0.5915 0.1879
-5 7 4 0.5610 -0.0375
-5 7 5 -0.7388 -0.0503
-5 7 6 0.5809 0.0974
-5 7 7 -0.1942 -0.0972
-5 7 8 0.0763 0.0171
-5 7 9 -0.2329 0.0883
-5 7 10 0.2503 -0.0948
-5 7 11 0.1515 -0.0075
-5 7 12 -0.6574 0.0986
-5 7 13 0.6015 -0.1089
-5 8 1 0.3957 0.5674
-5 8 2 -0.6761 -0.3780
-5 8 3 0.6048 0.1270
-5 8 4 -0.1479 0.0236
-5 8 5 -0.7612 -0.0595
-5 8 6 1.3386 0.0599
-5 8 7 -0.8090 -0.0491
-5 8 8 -0.2710 -0.0108
-5 8 9 0.8654 0.0968
-5 8 10 -0.6472 -0.1181
-5 8 11 0.1238 0.0500
-5 8 12 -0.1089 0.0250
-5 9 1 -0.0180 0.3565
-5 9 2 -0.3271 -0.2829
-5 9 3 0.4878 0.1007
-5 9 4 -0.3198 0.0818
-5 9 5 0.0849 -0.1255
-5 9 6 0.1581 0.0404
-5 9 7 0.0407 0.0218
-5 9 8 -0.8334 -0.0117
-5 9 9 1.4648 0.0165
-5 9 10 -1.4446 -0.0560
-5 9 11 0.9217 0.0635
-5 10 1 -0.4307 0.1299
-5 10 2 1.9375 -0.0876
-5 10 3 -1.7069 0.0357
-5 10 4 0.6536 -0.0025
-5 10 5 0.2046 -0.0650
-5 10 6 -0.5551 0.0874
-5 10 7 0.4614 -0.0063
-5 10 8 -0.5656 -0.0569
-5 10 9 1.0218 0.0180
-5 10 10 -1.1119 0.0387
-5 11 1 0.6092 -0.1956
-5 11 2 0.7660 0.0946
-5 11 3 -1.7155 -0.1296
-5 11 4 1.3119 0.0377
-5 11 5 -0.5652 0.1419
-5 11 6 0.2734 -0.1440
-5 11 7 -0.5726 0.0169
-5 11 8 1.2088 -0.0025
-5 11 9 -1.2928 0.0818
-5 12 1 0.4921 -0.3742
-5 12 2 -0.7561 0.1747
-5 12 3 -0.1502 -0.0563
-5 12 4 1.0746 0.0528
-5 12 5 -1.1306 0.0786
-5 12 6 0.5965 -0.2616
-4 -13 1 -0.5672 -0.0679
-4 -12 1 -0.1544 -0.3270
-4 -12 2 0.0698 0.1350
-4 -12 3 0.0165 -0.0135
-4 -12 4 0.3944 0.0187
-4 -11 1 0.1360 -0.6814
-4 -11 2 0.3108 0.4305
-4 -11 3 -0.3955 -0.1199
-4 -11 4 0.0997 -0.0755
-4 -11 5 -0.0609 0.1128
-4 -11 6 0.1444 -0.1130
-4 -10 1 0.2747 -0.8396
-4 -10 2 -0.1329 0.5297
-4 -10 3 -0.2220 -0.1503
-4 -10 4 -0.0224 -0.1103
-4 -10 5 0.5101 0.1633
-4 -10 6 -0.2773 -0.0579
-4 -10 7 -0.3548 -0.0517
-4 -9 1 -0.5281 -0.9359
-4 -9 2 -0.1603 0.5827
-4 -9 3 0.0853 -0.1294
-4 -9 4 -0.0332 -0.1469
-4 -9 5 0.2410 0.1659
-4 -9 6 -0.4157 -0.0401
-4 -9 7 0.2716 -0.0682
-4 -9 8 -0.0954 0.0629
-4 -9 9 0.3122 0.0214
-4 -8 1 -0.5783 -0.7727
-4 -8 2 -0.1894 0.5083
-4 -8 3 0.4827 -0.1090
-4 -8 4 -0.1356 -0.1651
-4 -8 5 -0.2130 0.1800
-4 -8 6 0.4925 -0.0383
-4 -8 7 -0.4545 -0.0651
-4 -8 8 -0.0146 0.0576
-4 -8 9 0.4928 0.0010
-4 -8 10 -0.7017 -0.0368
-4 -7 1 -0.1568 -0.5382
-4 -7 2 0.8616 0.3394
-4 -7 3 -0.3565 -0.0380
-4 -7 4 0.2116 -0.1555
-4 -7 5 -0.6882 0.1638
-4 -7 6 0.9528 -0.0497
-4 -7 7 -0.9950 -0.0648
-4 -7 8 0.8305 0.1041
-4 -7 9 -0.4829 -0.0867
-4 -7 10 0.3053 0.0494
-4 -7 11 -0.2205 0.0027
-4 -6 1 0.4451 -0.2227
-4 -6 2 1.0655 0.2090
-4 -6 3 -1.8089 -0.0371
-4 -6 4 1.2529 -0.0947
-4 -6 5 -0.9627 0.0886
-4 -6 6 0.9632 -0.0214
-4 -6 7 -0.5563 -0.0282
-4 -6 8 0.6519 0.0486
-4 -6 9 -1.7333 -0.0348
-4 -6 10 2.8340 -0.0164
-4 -6 11 -2.9413 0.0754
-4 -6 12 1.7666 -0.0924
-4 -5 1 -0.1310 0.2009
-4 -5 2 -1.4211 -0.0359
-4 -5 3 1.3720 -0.0268
-4 -5 4 -0.5270 0.0016
-4 -5 5 0.2033 0.0139
-4 -5 6 0.1296 0.0006
-4 -5 7 -0.3309 -0.0058
-4 -5 8 0.1241 0.0095
-4 -5 9 -0.6525 -0.0303
-4 -5 10 1.9241 0.0268
-4 -5 11 -2.4599 0.0206
-4 -5 12 1.7037 -0.0466
-4 -4 1 -6.1871 0.2515
-4 -4 2 2.7656 -0.0891
-4 -4 3 1.6667 -0.0457
-4 -4 4 -3.3408 0.1020
-4 -4 5 2.4688 -0.0650
-4 -4 6 -1.3066 -0.0170
-4 -4 7 0.1747 0.0583
-4 -4 8 0.4785 -0.0336
-4 -4 9 -0.1455 -0.0152
-4 -4 10 -0.1272 0.0330
-4 -4 11 -0.0620 0.0120
-4 -4 12 0.1879 -0.0834
-4 -4 13 -0.3775 0.1003
-4 -3 1 -8.7222 0.3102
-4 -3 2 8.4836 -0.0559
-4 -3 3 -5.1055 -0.1545
-4 -3 4 0.3556 0.1925
-4 -3 5 1.8015 -0.0907
-4 -3 6 -1.4360 -0.0573
-4 -3 7 0.7341 0.1199
-4 -3 8 -0.0054 -0.0402
-4 -3 9 -0.2197 -0.0597
-4 -3 10 -0.5493 0.0518
-4 -3 11 1.1362 0.0236
-4 -3 12 -1.1531 -0.0691
-4 -3 13 1.0742 0.0655
-4 -2 1 -0.7090 0.0563
-4 -2 2 3.3443 0.0489
-4 -2 3 -5.7729 -0.2557
-4 -2 4 5.5287 0.2726
-4 -2 5 -2.9416 -0.0549
-4 -2 6 0.9513 -0.1618
-4 -2 7 0.0953 0.1839
-4 -2 8 -0.9317 -0.0282
-4 -2 9 0.8371 -0.1302
-4 -2 10 -0.3276 0.1288
-4 -2 11 0.4037 -0.0100
-4 -2 12 -0.5215 -0.0485
-4 -2 13 0.7631 0.0012
-4 -2 14 -1.3255 0.0402
-4 -1 1 5.3528 -0.5634
-4 -1 2 -3.5749 0.4366
-4 -1 3 0.9168 -0.3443
-4 -1 4 1.7962 0.2298
-4 -1 5 -2.7313 -0.0019
-4 -1 6 1.8780 -0.2116
-4 -1 7 -0.9108 0.2018
-4 -1 8 -0.0154 -0.0069
-4 -1 9 0.7011 -0.1424
-4 -1 10 -0.1002 0.1147
-4 -1 11 -0.7622 0.0197
-4 -1 12 0.6445 -0.0997
-4 -1 13 -0.4045 0.0500
-4 -1 14 0.2404 0.0466
-4 0 1 2.3021 -0.8940
-4 0 2 -2.8610 0.6896
-4 0 3 3.5154 -0.3978
-4 0 4 -3.5035 0.0940
-4 0 5 2.3573 0.1231
-4 0 6 -0.8565 -0.2053
-4 0 7 -0.2668 0.1353
-4 0 8 0.8858 0.0386
-4 0 9 -0.4271 -0.1538
-4 0 10 -0.6268 0.0990
-4 0 11 0.9408 0.0397
-4 0 12 -0.9634 -0.1051
-4 0 13 1.1571 0.0428
-4 0 14 -0.6270 0.0765
-4 1 1 -1.4710 -1.2857
-4 1 2 1.4723 0.8615
-4 1 3 -0.0250 -0.3601
-4 1 4 -1.3131 -0.0364
-4 1 5 1.8688 0.2298
-4 1 6 -1.5677 -0.2004
-4 1 7 0.8134 0.0597
-4 1 8 -0.0187 0.0675
-4 1 9 -0.4760 -0.1254
-4 1 10 0.0190 0.0820
-4 1 11 0.9513 0.0335
-4 1 12 -1.1698 -0.1067
-4 1 13 0.8365 0.0632
-4 1 14 -0.5225 0.0468
-4 1 15 0.0009 -0.1156
-4 2 1 -0.1332 -1.3991
-4 2 2 1.4407 0.9781
-4 2 3 -1.7416 -0.2988
-4 2 4 1.1022 -0.1932
-4 2 5 -0.5876 0.2909
-4 2 6 -0.0219 -0.1308
-4 2 7 0.7416 -0.0399
-4 2 8 -0.9218 0.0971
-4 2 9 0.3267 -0.0818
-4 2 10 0.5292 0.0507
-4 2 11 -0.7838 0.0118
-4 2 12 0.4233 -0.0854
-4 2 13 -0.1668 0.0863
-4 2 14 0.0221 -0.0065
-4 2 15 0.1120 -0.0614
-4 3 1 1.2550 -1.0805
-4 3 2 -1.6063 0.7951
-4 3 3 0.6196 -0.2423
-4 3 4 0.0225 -0.2309
-4 3 5 -0.3601 0.3007
-4 3 6 0.8030 -0.0628
-4 3 7 -0.5556 -0.1224
-4 3 8 -0.3137 0.1068
-4 3 9 0.7717 -0.0258
-4 3 10 -0.5998 0.0032
-4 3 11 0.2307 -0.0007
-4 3 12 -0.0278 -0.0371
-4 3 13 0.1076 0.0517
-4 3 14 -0.3206 0.0073
-4 3 15 0.5075 -0.0645
-4 4 1 0.0030 -0.6337
-4 4 2 -0.3443 0.4841
-4 4 3 0.5372 -0.1227
-4 4 4 -0.3882 -0.1940
-4 4 5 0.2693 0.2357
-4 4 6 0.3214 -0.0256
-4 4 7 -1.1743 -0.1444
-4 4 8 0.8416 0.1007
-4 4 9 0.5981 0.0155
-4 4 10 -1.5731 -0.0408
-4 4 11 1.4254 0.0112
-4 4 12 -0.4795 -0.0148
-4 4 13 -0.6967 0.0305
-4 4 14 1.3387 0.0007
-4 4 15 -1.1053 -0.0467
-4 5 1 -0.5305 -0.0400
-4 5 2 1.4563 0.1397
-4 5 3 -1.3976 -0.0470
-4 5 4 0.3834 -0.1081
-4 5 5 0.7605 0.1462
-4 5 6 -1.2090 -0.0247
-4 5 7 0.3432 -0.1040
-4 5 8 0.9480 0.0772
-4 5 9 -0.8896 0.0410
-4 5 10 -0.3210 -0.0813
-4 5 11 0.9657 0.0374
-4 5 12 -0.5710 -0.0086
-4 5 13 -0.1387 0.0133
-4 5 14 0.6423 -0.0137
-4 6 1 -0.4566 0.4287
-4 6 2 0.6788 -0.1673
-4 6 3 -0.8518 -0.0126
-4 6 4 0.8212 0.0600
-4 6 5 -0.3852 -0.0214
-4 6 6 -0.3797 -0.0097
-4 6 7 0.8691 -0.0166
-4 6 8 -0.2297 0.0368
-4 6 9 -1.2711 0.0113
-4 6 10 2.0625 -0.0608
-4 6 11 -1.3336 0.0360
-4 6 12 -0.1254 0.0188
-4 6 13 1.2883 -0.0417
-4 6 14 -1.6512 0.0333
-4 7 1 -0.2802 0.7712
-4 7 2 0.1369 -0.3528
-4 7 3 0.0968 -0.0148
-4 7 4 0.1519 0.1683
-4 7 5 -0.9037 -0.1223
-4 7 6 1.1173 0.0003
-4 7 7 -0.3005 0.0553
-4 7 8 -0.6746 -0.0114
-4 7 9 0.5827 -0.0365
-4 7 10 0.6298 0.0240
-4 7 11 -1.4186 -0.0043
-4 7 12 0.5070 0.0230
-4 7 13 1.2182 -0.0435
-4 7 14 -1.9193 0.0365
-4 8 1 0.1523 0.7997
-4 8 2 -0.2664 -0.3754
-4 8 3 0.0738 -0.0876
-4 8 4 -0.2162 0.2737
-4 8 5 0.2775 -0.1489
-4 8 6 0.1420 -0.0723
-4 8 7 -0.3475 0.1558
-4 8 8 -0.0843 -0.0675
-4 8 9 0.8709 -0.0425
-4 8 10 -1.6021 0.0585
-4 8 11 1.7198 -0.0153
-4 8 12 -1.2384 -0.0124
-4 8 13 0.9786 0.0234
-4 9 1 0.1747 0.6234
-4 9 2 0.1555 -0.2720
-4 9 3 -0.1966 -0.1187
-4 9 4 0.0019 0.2741
-4 9 5 0.5715 -0.1569
-4 9 6 -0.7707 -0.0631
-4 9 7 0.2977 0.1736
-4 9 8 -0.1596 -0.0945
-4 9 9 0.7734 -0.0507
-4 9 10 -1.7136 0.1015
-4 9 11 2.5739 -0.0601
-4 9 12 -2.5256 0.0234
-4 10 1 0.1031 0.3415
-4 10 2 0.5133 -0.1207
-4 10 3 -0.5724 -0.1817
-4 10 4 0.2130 0.2478
-4 10 5 -0.0444 -0.0677
-4 10 6 0.0289 -0.0976
-4 10 7 -0.3691 0.1109
-4 10 8 0.7300 -0.0477
-4 10 9 -0.1160 -0.0049
-4 10 10 -1.0675 0.0254
-4 10 11 1.6858 -0.0216
-4 11 1 -0.4379 -0.1205
-4 11 2 0.2396 0.0884
-4 11 3 -0.7918 -0.1215
-4 11 4 0.8880 0.1725
-4 11 5 -0.5383 -0.0720
-4 11 6 0.3185 -0.1052
-4 11 7 -0.3073 0.1226
-4 11 8 0.8102 0.0053
-4 11 9 -1.4114 -0.0572
-4 11 10 0.9481 -0.0170
-4 12 1 -1.2003 -0.3272
-4 12 2 1.0054 0.2640
-4 12 3 -1.1360 -0.0021
-4 12 4 1.1320 -0.1579
-4 12 5 -0.1778 0.0639
-4 12 6 -0.9649 0.0447
-4 12 7 1.4100 -0.0159
-4 12 8 -1.2129 0.0070
-4 13 1 -1.0406 -0.4329
-4 13 2 0.9998 0.2910
-4 13 3 -0.7261 -0.0590
-4 13 4 0.5597 -0.2384
-3 -13 1 -0.5759 0.1145
-3 -13 2 0.5297 0.0049
-3 -12 1 -0.7213 0.1565
-3 -12 2 0.6133 -0.0353
-3 -12 3 -0.3577 -0.0681
-3 -12 4 0.1444 0.0930
-3 -12 5 -0.2060 -0.0721
-3 -11 1 -0.0165 -0.0815
-3 -11 2 0.3605 0.0397
-3 -11 3 -0.0492 -0.0186
-3 -11 4 -0.3817 -0.0062
-3 -11 5 0.1323 -0.0002
-3 -11 6 0.7873 0.0522
-3 -10 1 0.2217 -0.1593
-3 -10 2 -0.3940 0.0426
-3 -10 3 0.2156 0.0583
-3 -10 4 -0.1218 -0.0723
-3 -10 5 -0.1216 0.0417
-3 -10 6 0.5318 0.0111
-3 -10 7 -0.8329 -0.0667
-3 -10 8 0.4959 0.0709
-3 -9 1 -0.7795 -0.1456
-3 -9 2 -0.2860 -0.0026
-3 -9 3 0.4801 0.1339
-3 -9 4 0.1577 -0.1003
-3 -9 5 -0.6254 -0.0228
-3 -9 6 0.6457 0.0670
-3 -9 7 -0.4223 -0.0087
-3 -9 8 0.4908 -0.0574
-3 -9 9 -0.7629 0.0777
-3 -8 1 -0.6932 0.1328
-3 -8 2 0.3639 -0.1594
-3 -8 3 0.3563 0.2188
-3 -8 4 0.2520 -0.1384
-3 -8 5 -1.1727 -0.0387
-3 -8 6 1.0118 0.1308
-3 -8 7 -0.3557 -0.0693
-3 -8 8 0.1253 -0.0330
-3 -8 9 -0.4403 0.0550
-3 -8 10 0.5366 -0.0116
-3 -7 1 -0.5833 0.6148
-3 -7 2 0.8905 -0.4403
-3 -7 3 -0.6570 0.2821
-3 -7 4 0.3527 -0.0786
-3 -7 5 -0.8372 -0.1095
-3 -7 6 0.8146 0.1500
-3 -7 7 0.2430 -0.0562
-3 -7 8 -0.7501 -0.0421
-3 -7 9 0.1649 0.0725
-3 -7 10 0.4651 -0.0545
-3 -7 11 -0.2707 0.0315
-3 -6 1 -0.9809 1.1471
-3 -6 2 -0.4917 -0.7794
-3 -6 3 0.4793 0.3642
-3 -6 4 -0.2034 -0.0042
-3 -6 5 0.4584 -0.2043
-3 -6 6 -0.4626 0.1913
-3 -6 7 0.5406 -0.0338
-3 -6 8 -0.8613 -0.0896
-3 -6 9 0.5107 0.1045
-3 -6 10 0.2245 -0.0695
-3 -6 11 -0.3352 0.0191
-3 -6 12 -0.1915 0.0516
-3 -5 1 -4.4996 1.5336
-3 -5 2 2.0914 -1.0185
-3 -5 3 0.6046 0.3783
-3 -5 4 -1.1977 0.1178
-3 -5 5 0.9507 -0.2949
-3 -5 6 -1.2072 0.1763
-3 -5 7 1.0047 0.0252
-3 -5 8 -0.5694 -0.1174
-3 -5 9 0.7269 0.0719
-3 -5 10 -0.8357 0.0177
-3 -5 11 0.4968 -0.0669
-3 -5 12 -0.0094 0.0766
-3 -5 13 -0.4098 -0.0668
-3 -4 1 -4.0178 1.7401
-3 -4 2 6.4629 -1.1142
-3 -4 3 -5.1057 0.3102
-3 -4 4 1.5271 0.2647
-3 -4 5 0.2343 -0.4075
-3 -4 6 -0.4642 0.1771
-3 -4 7 0.7086 0.1098
-3 -4 8 -0.3898 -0.1799
-3 -4 9 -0.0762 0.0751
-3 -4 10 -0.0927 0.0258
-3 -4 11 -0.0085 -0.0590
-3 -4 12 0.7185 0.0393
-3 -4 13 -1.2915 0.0172
-3 -3 1 6.2255 1.6955
-3 -3 2 -0.7600 -1.1237
-3 -3 3 -4.5158 0.2616
-3 -3 4 5.6757 0.3170
-3 -3 5 -3.5495 -0.3843
-3 -3 6 2.0114 0.1197
-3 -3 7 -1.1059 0.1530
-3 -3 8 -0.0550 -0.1984
-3 -3 9 0.2400 0.0501
-3 -3 10 0.3228 0.0659
-3 -3 11 -0.5199 -0.0655
-3 -3 12 0.6507 0.0529
-3 -3 13 -0.6121 -0.0570
-3 -3 14 0.1186 0.0164
-3 -2 1 7.9491 1.1167
-3 -2 2 -6.8522 -0.7896
-3 -2 3 3.4528 0.1768
-3 -2 4 1.2716 0.3008
-3 -2 5 -3.7239 -0.3412
-3 -2 6 3.3290 0.0693
-3 -2 7 -2.3217 0.1681
-3 -2 8 0.9412 -0.1902
-3 -2 9 0.3761 0.0530
-3 -2 10 -0.0070 0.0743
-3 -2 11 -1.1261 -0.0725
-3 -2 12 1.4167 0.0073
-3 -2 13 -1.2513 -0.0055
-3 -2 14 0.7562 0.0424
-3 -1 1 -1.7679 0.5372
-3 -1 2 0.1881 -0.3833
-3 -1 3 2.4640 0.0999
-3 -1 4 -3.9219 0.1370
-3 -1 5 2.7845 -0.2200
-3 -1 6 -1.0584 0.1005
-3 -1 7 0.0880 0.0899
-3 -1 8 0.5409 -0.1439
-3 -1 9 -0.3560 0.0410
-3 -1 10 -0.2398 0.0729
-3 -1 11 -0.0976 -0.0846
-3 -1 12 0.6698 0.0071
-3 -1 13 -0.7705 0.0474
-3 -1 14 1.0724 -0.0075
-3 -1 15 -1.0188 -0.0624
-3 0 1 -2.6109 -0.0735
-3 0 2 4.4113 -0.0966
-3 0 3 -3.6045 0.0790
-3 0 4 0.8711 0.0021
-3 0 5 1.6595 -0.0681
-3 0 6 -2.3536 0.0786
-3 0 7 1.8167 0.0183
-3 0 8 -0.8568 -0.1159
-3 0 9 -0.0310 0.0563
-3 0 10 -0.2387 0.0845
-3 0 11 1.1467 -0.1187
-3 0 12 -1.0430 0.0337
-3 0 13 0.2511 0.0451
-3 0 14 0.4392 -0.0454
-3 0 15 -1.0311 -0.0006
-3 1 1 5.3531 -0.5675
-3 1 2 -1.4702 0.1775
-3 1 3 -2.0085 0.1230
-3 1 4 3.2635 -0.1296
-3 1 5 -2.3787 -0.0192
-3 1 6 0.3743 0.1042
-3 1 7 1.0789 -0.0417
-3 1 8 -1.2148 -0.0850
-3 1 9 0.4478 0.0993
-3 1 10 0.2532 0.0256
-3 1 11 -0.0910 -0.0993
-3 1 12 -0.2121 0.0252
-3 1 13 -0.2774 0.0646
-3 1 14 0.7527 -0.0659
-3 1 15 -0.6945 0.0297
-3 2 1 5.9247 -0.5388
-3 2 2 -6.5171 0.1582
-3 2 3 3.3389 0.1943
-3 2 4 -0.7179 -0.2659
-3 2 5 0.2803 0.0643
-3 2 6 -0.9916 0.1232
-3 2 7 1.7705 -0.0995
-3 2 8 -1.6821 -0.0326
-3 2 9 0.7016 0.0815
-3 2 10 0.0812 -0.0112
-3 2 11 0.0459 -0.0525
-3 2 12 -0.7680 0.0162
-3 2 13 1.2474 0.0428
-3 2 14 -1.1787 -0.0241
-3 2 15 1.0040 -0.0251
-3 3 1 -0.2785 -0.4357
-3 3 2 -2.7068 -0.0038
-3 3 3 3.0583 0.2808
-3 3 4 -1.3485 -0.2216
-3 3 5 0.7357 0.0174
-3 3 6 -1.1639 0.1186
-3 3 7 1.0296 -0.0952
-3 3 8 -0.5784 -0.0132
-3 3 9 0.2821 0.0594
-3 3 10 -0.1124 -0.0184
-3 3 11 0.4464 -0.0185
-3 3 12 -1.1857 0.0024
-3 3 13 1.5431 0.0238
-3 3 14 -1.2854 -0.0095
-3 3 15 0.9014 -0.0210
-3 4 1 -1.7481 0.0018
-3 4 2 2.2105 -0.2191
-3 4 3 -1.3378 0.3915
-3 4 4 0.4552 -0.2106
-3 4 5 0.0193 -0.0785
-3 4 6 -0.6658 0.1621
-3 4 7 0.4150 -0.0830
-3 4 8 0.8953 -0.0005
-3 4 9 -1.1961 0.0339
-3 4 10 0.1471 -0.0259
-3 4 11 0.6143 0.0068
-3 4 12 -0.6660 0.0050
-3 4 13 0.4098 -0.0143
-3 4 14 0.1503 0.0154
-3 4 15 -0.6064 -0.0006
-3 5 1 0.3247 0.5467
-3 5 2 0.6547 -0.5202
-3 5 3 -1.4695 0.4365
-3 5 4 0.9865 -0.1684
-3 5 5 0.0945 -0.1295
-3 5 6 -0.9075 0.1855
-3 5 7 1.1482 -0.0506
-3 5 8 -0.0591 -0.0405
-3 5 9 -1.5899 0.0467
-3 5 10 1.5093 -0.0421
-3 5 11 0.1120 0.0254
-3 5 12 -1.0913 0.0152
-3 5 13 0.9882 -0.0480
-3 5 14 -0.5285 0.0469
-3 5 15 -0.0874 -0.0133
-3 6 1 0.7185 0.9259
-3 6 2 -0.9116 -0.7313
-3 6 3 0.8323 0.4282
-3 6 4 -0.0622 -0.0508
-3 6 5 -0.6660 -0.2233
-3 6 6 0.7417 0.2221
-3 6 7 -0.1327 -0.0327
-3 6 8 -0.5783 -0.0944
-3 6 9 0.1733 0.0813
-3 6 10 1.0892 -0.0372
-3 6 11 -1.2286 0.0043
-3 6 12 0.0421 0.0423
-3 6 13 0.6440 -0.0622
-3 6 14 -0.2339 0.0289
-3 6 15 -0.4469 0.0067
-3 7 1 0.0099 1.1635
-3 7 2 -0.0068 -0.8065
-3 7 3 0.1036 0.3328
-3 7 4 -0.4234 0.0547
-3 7 5 0.1408 -0.2394
-3 7 6 0.4960 0.1848
-3 7 7 -0.6297 -0.0067
-3 7 8 0.1506 -0.1082
-3 7 9 0.5059 0.0924
-3 7 10 -0.6147 -0.0272
-3 7 11 0.0176 -0.0142
-3 7 12 0.2902 0.0353
-3 7 13 0.0783 -0.0258
-3 7 14 -0.2022 -0.0311
-3 8 1 -0.5354 0.9601
-3 8 2 0.2494 -0.6658
-3 8 3 -0.4751 0.2063
-3 8 4 0.4618 0.1363
-3 8 5 0.1307 -0.2339
-3 8 6 -0.3104 0.1273
-3 8 7 0.1373 0.0382
-3 8 8 -0.2890 -0.1144
-3 8 9 0.3713 0.0744
-3 8 10 -0.1236 -0.0009
-3 8 11 -0.1441 -0.0412
-3 8 12 0.4385 0.0483
-3 8 13 -0.4847 -0.0219
-3 8 14 -0.1037 -0.0375
-3 9 1 -0.1299 0.7031
-3 9 2 0.1544 -0.4880
-3 9 3 0.0329 0.1330
-3 9 4 0.4387 0.1293
-3 9 5 -0.9519 -0.1848
-3 9 6 0.6330 0.0835
-3 9 7 0.1269 0.0525
-3 9 8 -1.2639 -0.1110
-3 9 9 2.3850 0.0559
-3 9 10 -1.9012 0.0363
-3 9 11 -0.0278 -0.0736
-3 9 12 1.2592 0.0596
-3 9 13 -1.1170 -0.0375
-3 10 1 0.3178 0.2012
-3 10 2 -0.2831 -0.2050
-3 10 3 -0.0662 0.0466
-3 10 4 0.3696 0.1292
-3 10 5 -1.0842 -0.1573
-3 10 6 1.4775 0.0264
-3 10 7 -0.7277 0.1084
-3 10 8 -0.4800 -0.1178
-3 10 9 1.7933 0.0219
-3 10 10 -2.8729 0.0732
-3 10 11 2.3483 -0.0820
-3 10 12 -0.5824 0.0133
-3 11 1 0.0092 -0.2521
-3 11 2 -0.1976 0.1326
-3 11 3 -0.0413 -0.0194
-3 11 4 0.0859 0.0067
-3 11 5 0.2955 -0.0810
-3 11 6 -0.0875 0.0751
-3 11 7 -0.3281 0.0550
-3 11 8 0.0501 -0.1159
-3 11 9 0.4030 -0.0011
-3 11 10 -0.9111 0.1409
-3 11 11 1.6428 -0.1423
-3 12 1 -0.9002 -0.4410
-3 12 2 0.7229 0.2189
-3 12 3 -0.2372 -0.0503
-3 12 4 -0.1156 -0.1127
-3 12 5 0.7981 0.1860
-3 12 6 -1.4755 -0.1018
-3 12 7 1.0633 0.0177
-3 12 8 -0.3891 -0.0449
-3 12 9 0.5840 0.0499
-3 13 1 -1.1255 -0.6984
-3 13 2 0.7330 0.3055
-3 13 3 -0.2393 -0.0077
-3 13 4 0.1646 -0.0956
-3 13 5 -0.5246 0.2166
-3 13 6 0.3478 -0.3141
-2 -13 1 0.2625 -0.1365
-2 -13 2 0.1261 0.0921
-2 -13 3 -0.7936 -0.0754
-2 -12 1 -0.2905 -0.6490
-2 -12 2 0.3543 0.3243
-2 -12 3 -0.1111 -0.1305
-2 -12 4 0.1318 0.0516
-2 -12 5 -0.2929 -0.0633
-2 -11 1 0.0856 -1.0703
-2 -11 2 0.3888 0.6105
-2 -11 3 -0.2576 -0.1392
-2 -11 4 -0.0841 -0.0948
-2 -11 5 -0.1008 0.1136
-2 -11 6 0.5484 0.0099
-2 -11 7 -0.8926 -0.1499
-2 -10 1 -0.2921 -1.2003
-2 -10 2 -0.0044 0.7373
-2 -10 3 -0.3906 -0.1768
-2 -10 4 0.4342 -0.1669
-2 -10 5 0.0055 0.2366
-2 -10 6 -0.1973 -0.1320
-2 -10 7 -0.1144 -0.0554
-2 -10 8 0.8563 0.1939
-2 -9 1 -0.0210 -1.2538
-2 -9 2 -0.3370 0.7662
-2 -9 3 0.6074 -0.1432
-2 -9 4 -0.0692 -0.2297
-2 -9 5 -0.0117 0.2613
-2 -9 6 -0.3295 -0.1053
-2 -9 7 -0.0692 -0.0591
-2 -9 8 1.1752 0.1403
-2 -9 9 -2.0807 -0.1037
-2 -9 10 1.7835 -0.0120
-2 -8 1 0.4066 -0.9897
-2 -8 2 -0.1562 0.6516
-2 -8 3 0.4361 -0.1130
-2 -8 4 -0.5176 -0.2560
-2 -8 5 -0.0961 0.2884
-2 -8 6 0.1421 -0.0920
-2 -8 7 0.3311 -0.1219
-2 -8 8 -0.2906 0.1943
-2 -8 9 -0.1050 -0.1063
-2 -8 10 0.3742 -0.0280
-2 -8 11 -0.3103 0.0822
-2 -7 1 0.0063 -0.6431
-2 -7 2 -0.4137 0.4334
-2 -7 3 0.0700 -0.0745
-2 -7 4 -0.3818 -0.1918
-2 -7 5 0.8163 0.2224
-2 -7 6 -0.3892 -0.0642
-2 -7 7 0.1639 -0.1162
-2 -7 8 -0.6156 0.1669
-2 -7 9 0.8958 -0.0516
-2 -7 10 -0.6465 -0.1060
-2 -7 11 -0.0374 0.1343
-2 -7 12 0.6105 -0.0271
-2 -6 1 -0.7226 -0.1854
-2 -6 2 0.3523 0.2076
-2 -6 3 0.0630 -0.0303
-2 -6 4 -0.0186 -0.1577
-2 -6 5 0.6706 0.1806
-2 -6 6 -1.2808 -0.0374
-2 -6 7 0.4893 -0.1212
-2 -6 8 0.3659 0.1382
-2 -6 9 -0.0410 -0.0137
-2 -6 10 -0.6224 -0.1086
-2 -6 11 0.7230 0.1011
-2 -6 12 -0.2424 0.0217
-2 -6 13 -0.1366 -0.1157
-2 -5 1 1.2899 0.2467
-2 -5 2 1.5029 0.0313
-2 -5 3 -1.8917 -0.1277
-2 -5 4 0.6961 -0.0015
-2 -5 5 -0.1721 0.1076
-2 -5 6 -0.2738 -0.0572
-2 -5 7 0.6960 -0.0649
-2 -5 8 -0.0759 0.1075
-2 -5 9 -0.5082 -0.0229
-2 -5 10 0.0546 -0.0733
-2 -5 11 0.4352 0.0694
-2 -5 12 -0.2580 -0.0132
-2 -5 13 -0.1841 -0.0013
-2 -4 1 7.7360 0.2739
-2 -4 2 -4.3660 -0.0101
-2 -4 3 0.2173 -0.2110
-2 -4 4 1.0905 0.1229
-2 -4 5 -0.3720 0.0671
-2 -4 6 0.3859 -0.0845
-2 -4 7 -0.2677 -0.0167
-2 -4 8 -0.5125 0.0693
-2 -4 9 0.5293 -0.0288
-2 -4 10 -0.2196 -0.0505
-2 -4 11 0.4917 0.0773
-2 -4 12 -0.6261 -0.0347
-2 -4 13 0.3165 0.0191
-2 -4 14 -0.0400 -0.0643
-2 -3 1 3.7768 -0.0268
-2 -3 2 -6.5126 0.1999
-2 -3 3 5.8760 -0.3255
-2 -3 4 -1.9680 0.1778
-2 -3 5 -0.6077 0.0966
-2 -3 6 0.8519 -0.1652
-2 -3 7 -0.7890 0.0202
-2 -3 8 0.1311 0.0762
-2 -3 9 0.8978 -0.0462
-2 -3 10 -0.8060 -0.0028
-2 -3 11 0.4563 0.0249
-2 -3 12 -0.8648 -0.0132
-2 -3 13 1.0579 -0.0264
-2 -3 14 -0.7089 0.0213
-2 -2 1 -6.4864 -0.5137
-2 -2 2 3.6532 0.5340
-2 -2 3 1.7790 -0.4329
-2 -2 4 -4.7653 0.1463
-2 -2 5 3.3977 0.1284
-2 -2 6 -1.4379 -0.1908
-2 -2 7 0.5587 0.0580
-2 -2 8 0.3607 0.0671
-2 -2 9 -0.7424 -0.0577
-2 -2 10 0.5457 0.0055
-2 -2 11 -0.8103 0.0011
-2 -2 12 0.7794 -0.0055
-2 -2 13 -0.1276 0.0134
-2 -2 14 0.0151 0.0092
-2 -2 15 -0.2060 -0.0101
-2 -1 1 4.5778 -1.3423
-2 -1 2 1.4823 0.8706
-2 -1 3 -2.9121 -0.3991
-2 -1 4 -0.0433 -0.0191
-2 -1 5 3.0771 0.2485
-2 -1 6 -3.1753 -0.1956
-2 -1 7 1.7503 0.0274
-2 -1 8 -0.0151 0.0717
-2 -1 9 -1.6154 -0.0770
-2 -1 10 1.6137 0.0314
-2 -1 11 -0.3899 0.0127
-2 -1 12 -0.0861 -0.0265
-2 -1 13 -0.0822 0.0234
-2 -1 14 0.3951 -0.0083
-2 -1 15 -1.0149 -0.0089
-2 0 1 24.0321 -2.1763
-2 0 2 -16.5314 1.2689
-2 0 3 7.4815 -0.3466
-2 0 4 -0.2815 -0.1327
-2 0 5 -2.3397 0.2653
-2 0 6 1.6677 -0.1760
-2 0 7 -0.8997 -0.0093
-2 0 8 0.9602 0.1026
-2 0 9 -1.4904 -0.0770
-2 0 10 1.7635 0.0300
-2 0 11 -0.8530 0.0211
-2 0 12 -0.2285 -0.0702
-2 0 13 0.0664 0.0623
-2 0 14 0.4950 -0.0102
-2 0 15 -0.7771 -0.0112
-2 1 1 16.3866 -2.3618
-2 1 2 -18.5529 1.3753
-2 1 3 14.7078 -0.2329
-2 1 4 -7.8905 -0.3101
-2 1 5 1.7614 0.2929
-2 1 6 1.2318 -0.1134
-2 1 7 -1.5010 -0.0464
-2 1 8 1.1425 0.1380
-2 1 9 -1.0076 -0.1041
-2 1 10 1.0109 0.0067
-2 1 11 -1.0093 0.0477
-2 1 12 0.6819 -0.0622
-2 1 13 -0.3857 0.0501
-2 1 14 0.4806 0.0101
-2 1 15 -0.4107 -0.0691
-2 1 16 0.3008 0.0580
-2 2 1 -5.2420 -2.3645
-2 2 2 -1.6212 1.2257
-2 2 3 5.5634 -0.0843
-2 2 4 -5.5086 -0.3885
-2 2 5 4.1468 0.3202
-2 2 6 -2.5680 -0.0989
-2 2 7 0.9956 -0.0617
-2 2 8 -0.0787 0.1341
-2 2 9 -0.2508 -0.1082
-2 2 10 0.2828 -0.0002
-2 2 11 -0.0079 0.0778
-2 2 12 -0.3292 -0.0588
-2 2 13 0.3456 0.0078
-2 2 14 0.2138 0.0302
-2 2 15 -1.0101 -0.0636
-2 2 16 1.1995 0.0606
-2 3 1 -6.3167 -1.8808
-2 3 2 6.3006 1.0225
-2 3 3 -3.0279 -0.0066
-2 3 4 0.4184 -0.3455
-2 3 5 0.5145 0.2113
-2 3 6 -1.2954 -0.0404
-2 3 7 1.4184 -0.0698
-2 3 8 -0.6020 0.1277
-2 3 9 0.2379 -0.0804
-2 3 10 -0.3673 -0.0374
-2 3 11 0.2089 0.0996
-2 3 12 -0.0750 -0.0536
-2 3 13 0.0163 -0.0182
-2 3 14 0.6159 0.0354
-2 3 15 -1.6393 -0.0238
-2 3 16 1.9932 0.0144
-2 4 1 2.9026 -0.8518
-2 4 2 0.2505 0.5938
-2 4 3 -2.0156 -0.0213
-2 4 4 0.6955 -0.2986
-2 4 5 0.9141 0.1946
-2 4 6 -1.4718 -0.0020
-2 4 7 1.8902 -0.0932
-2 4 8 -1.6327 0.1329
-2 4 9 0.7986 -0.0785
-2 4 10 -0.8674 -0.0614
-2 4 11 1.2219 0.1235
-2 4 12 -0.6274 -0.0473
-2 4 13 -0.0335 -0.0435
-2 4 14 0.1600 0.0563
-2 4 15 -0.4809 -0.0273
-2 4 16 0.8945 0.0086
-2 5 1 2.1824 -0.1979
-2 5 2 -2.4302 0.2111
-2 5 3 0.9471 -0.0655
-2 5 4 0.4033 -0.1231
-2 5 5 0.0009 0.1441
-2 5 6 -0.8225 -0.0112
-2 5 7 1.4025 -0.0858
-2 5 8 -2.0725 0.0871
-2 5 9 1.7350 -0.0301
-2 5 10 -0.5388 -0.0604
-2 5 11 0.3320 0.0976
-2 5 12 -0.6738 -0.0277
-2 5 13 0.2109 -0.0464
-2 5 14 0.2477 0.0429
-2 5 15 -0.0983 -0.0172
-2 6 1 -0.4444 0.4909
-2 6 2 0.1897 -0.0941
-2 6 3 0.0847 -0.0954
-2 6 4 0.3223 0.0337
-2 6 5 -0.9677 0.0630
-2 6 6 0.6577 -0.0344
-2 6 7 0.2645 -0.0491
-2 6 8 -1.2247 0.0539
-2 6 9 1.9414 0.0078
-2 6 10 -1.4344 -0.0527
-2 6 11 0.1156 0.0453
-2 6 12 0.2820 0.0116
-2 6 13 -0.1456 -0.0605
-2 6 14 0.6464 0.0392
-2 6 15 -0.9635 0.0041
-2 7 1 -0.3793 0.7550
-2 7 2 0.5584 -0.2557
-2 7 3 -1.1367 -0.1377
-2 7 4 0.7856 0.1471
-2 7 5 -0.0158 0.0073
-2 7 6 -0.1307 -0.0564
-2 7 7 0.1184 -0.0014
-2 7 8 -0.2282 0.0344
-2 7 9 0.2773 -0.0018
-2 7 10 -0.4154 -0.0310
-2 7 11 0.3144 0.0212
-2 7 12 0.1263 0.0162
-2 7 13 -0.1918 -0.0564
-2 7 14 0.0492 0.0638
-2 7 15 -0.2859 -0.0228
-2 8 1 0.1234 0.5240
-2 8 2 -0.1105 -0.1864
-2 8 3 -0.0372 -0.1294
-2 8 4 0.5949 0.1871
-2 8 5 -0.4118 -0.0641
-2 8 6 -0.0706 -0.0208
-2 8 7 -0.2255 0.0219
-2 8 8 0.4849 -0.0121
-2 8 9 -0.3183 0.0097
-2 8 10 0.6310 -0.0013
-2 8 11 -1.2056 -0.0049
-2 8 12 1.2580 0.0088
-2 8 13 -0.8778 -0.0295
-2 8 14 0.3086 0.0611
-2 9 1 0.5760 0.3394
-2 9 2 -0.1271 -0.1390
-2 9 3 -0.0933 -0.0889
-2 9 4 0.2449 0.1618
-2 9 5 -0.6935 -0.0696
-2 9 6 0.5388 -0.0500
-2 9 7 -0.1439 0.0905
-2 9 8 0.4063 -0.0577
-2 9 9 -0.2186 -0.0045
-2 9 10 -0.7261 0.0494
-2 9 11 0.7932 -0.0237
-2 9 12 -0.0082 -0.0584
-2 9 13 -0.2966 0.1022
-2 10 1 -0.0289 -0.1659
-2 10 2 -0.2922 0.0901
-2 10 3 -0.1697 -0.1121
-2 10 4 0.3796 0.1361
-2 10 5 -0.2252 -0.0731
-2 10 6 0.3494 -0.0453
-2 10 7 -0.1515 0.1251
-2 10 8 -0.1196 -0.0909
-2 10 9 -0.2135 -0.0306
-2 10 10 -0.2246 0.1195
-2 10 11 1.7905 -0.0855
-2 10 12 -2.2588 -0.0431
-2 10 13 1.1356 0.1468
-2 11 1 -0.2482 -0.4086
-2 11 2 -0.1195 0.2242
-2 11 3 0.5919 -0.1451
-2 11 4 -0.4003 0.1351
-2 11 5 0.4315 -0.0648
-2 11 6 -0.6510 -0.0238
-2 11 7 0.5282 0.0622
-2 11 8 -0.9633 -0.0595
-2 11 9 1.6689 0.0171
-2 11 10 -1.2859 0.0454
-2 11 11 0.7197 -0.0563
-2 12 1 -0.1997 -0.6966
-2 12 2 0.0281 0.2678
-2 12 3 0.3661 -0.0198
-2 12 4 -0.4374 0.0549
-2 12 5 0.0550 -0.0448
-2 12 6 -0.4091 -0.0919
-2 12 7 1.2068 0.1175
-2 12 8 -1.4376 -0.0053
-2 12 9 1.7407 -0.0363
-2 12 10 -2.0198 -0.0338
-2 13 1 0.0203 -0.7019
-2 13 2 0.1606 0.4192
-2 13 3 -0.2291 0.0224
-2 13 4 -0.0539 -0.1559
-2 13 5 0.1811 0.0372
-2 13 6 -0.1996 -0.0163
-2 13 7 0.9299 0.0868
-2 13 8 -1.5242 -0.0148
-1 -13 1 0.2078 0.1785
-1 -13 2 0.2725 -0.0403
-1 -13 3 -0.7678 -0.0910
-1 -12 1 1.0588 -0.0687
-1 -12 2 -0.1828 0.0026
-1 -12 3 -0.6345 -0.0256
-1 -12 4 1.2205 0.1091
-1 -12 5 -1.1169 -0.1134
-1 -11 1 0.9083 -0.1064
-1 -11 2 -0.3323 0.0284
-1 -11 3 -1.0565 0.0211
-1 -11 4 1.5424 0.0240
-1 -11 5 -1.1369 -0.0602
-1 -11 6 0.2036 0.0101
-1 -11 7 0.8502 0.0327
-1 -10 1 0.3748 -0.1418
-1 -10 2 -0.5995 0.0333
-1 -10 3 -0.0741 0.0303
-1 -10 4 0.8354 -0.0145
-1 -10 5 -0.4159 -0.0275
-1 -10 6 -0.1719 0.0187
-1 -10 7 0.1600 0.0258
-1 -10 8 -0.0196 -0.0300
-1 -10 9 -0.1635 0.0085
-1 -9 1 0.2188 0.1929
-1 -9 2 -0.4158 -0.1051
-1 -9 3 0.8992 0.0802
-1 -9 4 -0.5437 -0.0597
-1 -9 5 -0.2988 0.0076
-1 -9 6 0.4048 0.0321
-1 -9 7 -0.3204 -0.0148
-1 -9 8 0.3782 -0.0391
-1 -9 9 -0.0720 0.0678
-1 -9 10 -0.2671 -0.0506
-1 -8 1 -0.6246 0.7455
-1 -8 2 0.2672 -0.3619
-1 -8 3 -0.0926 0.0465
-1 -8 4 -0.3810 0.0243
-1 -8 5 -0.0678 0.0039
-1 -8 6 1.0217 0.0066
-1 -8 7 -0.7279 -0.0412
-1 -8 8 -0.3701 0.0413
-1 -8 9 0.9621 -0.0028
-1 -8 10 -0.7387 -0.0255
-1 -8 11 -0.0756 0.0142
-1 -7 1 -0.5092 1.3477
-1 -7 2 0.5263 -0.6528
-1 -7 3 -0.3413 0.0559
-1 -7 4 0.1128 0.1225
-1 -7 5 0.5000 -0.0581
-1 -7 6 -0.3245 0.0172
-1 -7 7 -0.5898 -0.0351
-1 -7 8 0.6882 0.0230
-1 -7 9 -0.1374 0.0280
-1 -7 10 -0.0421 -0.0669
-1 -7 11 -0.1732 0.0643
-1 -7 12 0.4203 -0.0270
-1 -6 1 1.9257 2.1800
-1 -6 2 0.3963 -1.0509
-1 -6 3 -0.5992 0.0668
-1 -6 4 0.0369 0.2122
-1 -6 5 0.0638 -0.1112
-1 -6 6 -0.3716 0.0359
-1 -6 7 0.3393 -0.0318
-1 -6 8 0.5987 -0.0065
-1 -6 9 -1.2724 0.0633
-1 -6 10 1.0086 -0.0474
-1 -6 11 -0.2221 -0.0255
-1 -6 12 -0.5233 0.0711
-1 -6 13 0.6588 -0.0781
-1 -5 1 5.8620 2.5027
-1 -5 2 -3.5575 -1.3150
-1 -5 3 1.1064 0.0572
-1 -5 4 -0.8794 0.3611
-1 -5 5 1.1046 -0.1934
-1 -5 6 -0.2903 0.0344
-1 -5 7 0.0818 0.0075
-1 -5 8 -0.5021 -0.0548
-1 -5 9 0.0601 0.0879
-1 -5 10 0.7225 -0.0407
-1 -5 11 -0.7913 -0.0525
-1 -5 12 0.3401 0.0949
-1 -5 13 0.0063 -0.0579
-1 -5 14 0.0764 0.0164
-1 -4 1 1.5912 2.4917
-1 -4 2 -4.7489 -1.3375
-1 -4 3 4.6150 0.0662
-1 -4 4 -2.4012 0.4334
-1 -4 5 1.6431 -0.2501
-1 -4 6 -1.5415 0.0198
-1 -4 7 0.5918 0.0322
-1 -4 8 -0.4360 -0.0774
-1 -4 9 1.1482 0.1168
-1 -4 10 -0.9784 -0.0484
-1 -4 11 0.3029 -0.0504
-1 -4 12 -0.0986 0.0777
-1 -4 13 0.0441 -0.0466
-1 -4 14 0.1344 -0.0058
-1 -3 1 -3.6741 2.3232
-1 -3 2 1.7615 -1.2111
-1 -3 3 1.5949 -0.0208
-1 -3 4 -2.7313 0.5175
-1 -3 5 1.5297 -0.3135
-1 -3 6 -1.2373 -0.0152
-1 -3 7 1.4055 0.1102
-1 -3 8 -0.5648 -0.0855
-1 -3 9 0.2388 0.0820
-1 -3 10 -0.6404 -0.0153
-1 -3 11 0.3784 -0.1001
-1 -3 12 -0.0551 0.1000
-1 -3 13 0.3404 -0.0039
-1 -3 14 -0.4946 -0.0462
-1 -3 15 0.3530 0.0461
-1 -2 1 15.1047 1.4705
-1 -2 2 -6.0711 -0.9471
-1 -2 3 0.5480 0.0243
-1 -2 4 -0.5993 0.4682
-1 -2 6 -1.5675 -0.0265
-1 -2 7 0.8253 0.1928
-1 -2 8 -0.2148 -0.1374
-1 -2 9 -0.5450 0.0281
-1 -2 10 0.2881 0.0414
-1 -2 11 0.3464 -0.0922
-1 -2 12 0.0357 0.0808
-1 -2 13 -0.4035 0.0315
-1 -2 14 0.0823 -0.1116
-1 -2 15 0.0895 0.0575
-1 -1 1 35.2009 0.4889
-1 -1 2 -27.2179 -0.6129
-1 -1 3 14.2731 0.1856
-1 -1 4 -3.4867 0.3247
-1 -1 5 -0.2222 -0.3263
-1 -1 6 0.2146 -0.0125
-1 -1 7 -0.8008 0.2108
-1 -1 8 1.4103 -0.1505
-1 -1 9 -1.1882 -0.0082
-1 -1 10 0.5199 0.1072
-1 -1 11 0.5853 -0.0947
-1 -1 12 -1.0975 0.0267
-1 -1 13 0.4490 0.0382
-1 -1 14 -0.1297 -0.0771
-1 -1 15 0.4193 0.0535
-1 0 1 11.4790 0.0192
-1 0 2 -19.0049 -0.2928
-1 0 3 18.3064 0.2261
-1 0 4 -10.8967 0.1726
-1 0 5 2.7620 -0.3227
-1 0 6 1.0523 0.0348
-1 0 7 -1.5428 0.2180
-1 0 8 1.3794 -0.1490
-1 0 9 -0.8059 -0.0290
-1 0 10 0.2971 0.1128
-1 0 11 -0.4823 -0.0958
-1 0 12 0.4478 0.0098
-1 0 13 0.1451 0.0726
-1 0 14 -0.8974 -0.0678
-1 0 15 1.8228 -0.0050
-1 0 16 -2.0122 0.0635
-1 1 1 -31.2788 -0.3131
-1 1 2 18.1104 -0.0649
-1 1 3 -4.8417 0.1973
-1 1 4 -3.7084 -0.0097
-1 1 5 5.6275 -0.1646
-1 1 6 -3.0452 0.0624
-1 1 7 0.5337 0.1317
-1 1 8 -0.1224 -0.1166
-1 1 9 0.6967 -0.0337
-1 1 10 -1.0042 0.0877
-1 1 11 0.4293 -0.0498
-1 1 12 0.5077 0.0028
-1 1 13 -0.4765 0.0584
-1 1 14 -0.3528 -0.0796
-1 1 15 0.9497 -0.0053
-1 1 16 -1.2092 0.1035
-1 2 1 -30.8750 -0.2798
-1 2 2 29.3543 0.0649
-1 2 3 -19.8804 0.1472
-1 2 4 8.6647 -0.1098
-1 2 5 -0.7491 -0.0259
-1 2 6 -2.4630 0.0535
-1 2 7 2.0784 0.0057
-1 2 8 -0.9898 -0.0350
-1 2 9 0.8849 0.0014
-1 2 10 -0.9911 0.0300
-1 2 11 0.7911 -0.0210
-1 2 12 -0.6868 -0.0004
-1 2 13 0.6833 0.0311
-1 2 14 -0.4570 -0.0605
-1 2 15 -0.1593 0.0244
-1 2 16 0.6597 0.0532
-1 3 1 -0.2296 0.5504
-1 3 2 6.5688 -0.0595
-1 3 3 -8.7739 0.0069
-1 3 4 5.9544 -0.1750
-1 3 5 -2.5456 0.1401
-1 3 6 0.3538 0.0228
-1 3 7 1.3254 -0.1007
-1 3 8 -1.7668 0.0659
-1 3 9 1.0006 0.0149
-1 3 10 -0.3620 -0.0531
-1 3 11 0.0434 0.0141
-1 3 12 0.0067 0.0293
-1 3 13 0.5204 -0.0106
-1 3 14 -0.9862 -0.0305
-1 3 15 0.7160 0.0146
-1 3 16 -0.1747 0.0482
-1 4 1 6.7780 1.0897
-1 4 2 -6.1133 -0.3905
-1 4 3 2.3154 -0.0644
-1 4 4 0.5829 -0.0862
-1 4 5 -0.9077 0.2195
-1 4 6 0.8948 -0.0045
-1 4 7 -0.6328 -0.1940
-1 4 8 -0.4820 0.1293
-1 4 9 0.5306 0.0356
-1 4 10 0.6260 -0.1089
-1 4 11 -0.9160 0.0564
-1 4 12 0.4499 0.0353
-1 4 13 -0.1631 -0.0550
-1 4 14 -0.3707 0.0091
-1 4 15 0.9853 0.0054
-1 4 16 -0.9602 0.0305
-1 5 1 -1.6308 1.5233
-1 5 2 -0.6048 -0.7193
-1 5 3 1.5884 0.0326
-1 5 4 0.1594 0.0545
-1 5 5 -2.0051 0.0871
-1 5 6 2.0328 0.0148
-1 5 7 -1.6689 -0.1972
-1 5 8 1.2428 0.1202
-1 5 9 -0.5456 0.0884
-1 5 10 0.8944 -0.1443
-1 5 11 -1.6420 0.0540
-1 5 12 0.9989 0.0405
-1 5 13 -0.0857 -0.0730
-1 5 14 0.0850 0.0446
-1 5 15 0.1404 -0.0088
-1 5 16 -0.7547 0.0106
-1 6 1 -2.1615 2.1425
-1 6 2 2.2324 -1.0501
-1 6 3 -1.7194 0.0596
-1 6 4 0.7410 0.1802
-1 6 5 -0.6446 -0.0273
-1 6 6 0.8434 -0.0027
-1 6 7 -0.4618 -0.1032
-1 6 8 0.3368 0.0833
-1 6 9 -0.2609 0.0691
-1 6 10 -0.3853 -0.1267
-1 6 11 0.5647 0.0432
-1 6 12 -0.2350 0.0374
-1 6 13 0.3423 -0.0612
-1 6 14 -0.1861 0.0533
-1 6 15 -0.3960 -0.0158
-1 7 1 -0.5235 1.8820
-1 7 2 0.7063 -1.0771
-1 7 3 -1.2825 0.0638
-1 7 4 1.2448 0.3215
-1 7 5 0.0901 -0.1633
-1 7 6 -0.8225 -0.0026
-1 7 7 0.2766 0.0084
-1 7 8 0.1160 -0.0096
-1 7 9 0.0472 0.0623
-1 7 10 -0.5599 -0.0709
-1 7 11 1.2663 0.0011
-1 7 12 -1.3073 0.0593
-1 7 13 0.7250 -0.0565
-1 7 14 -0.4177 0.0293
-1 7 15 0.1109 0.0039
-1 8 1 0.7387 1.4346
-1 8 2 -0.2474 -0.8586
-1 8 3 0.2191 0.0566
-1 8 4 0.0924 0.3544
-1 8 5 -0.3085 -0.2458
-1 8 6 -0.2979 0.0015
-1 8 7 0.2792 0.0844
-1 8 8 0.6868 -0.0693
-1 8 9 -0.6476 0.0563
-1 8 10 -0.4233 -0.0233
-1 8 11 0.9222 -0.0393
-1 8 12 -0.7018 0.0736
-1 8 13 0.3865 -0.0406
-1 8 14 -0.3292 -0.0296
-1 8 15 0.5769 0.0754
-1 9 1 0.1459 0.9068
-1 9 2 -0.3309 -0.6124
-1 9 3 0.0868 0.0439
-1 9 4 -0.4153 0.2914
-1 9 5 0.5336 -0.2035
-1 9 6 -0.2031 -0.0385
-1 9 7 0.2455 0.1238
-1 9 8 0.1829 -0.0480
-1 9 9 -1.1714 -0.0207
-1 9 10 0.7202 0.0292
-1 9 11 0.8130 -0.0286
-1 9 12 -1.0565 0.0242
-1 9 13 0.0863 0.0107
-1 9 14 0.5012 -0.0666
-1 10 1 -1.1601 0.1742
-1 10 2 0.5041 -0.2419
-1 10 3 0.0638 0.0733
-1 10 4 -0.1789 0.1348
-1 10 5 0.7051 -0.1210
-1 10 6 -0.8172 -0.0285
-1 10 7 0.2677 0.0892
-1 10 8 -0.2971 -0.0355
-1 10 9 0.2302 -0.0186
-1 10 10 0.6629 0.0262
-1 10 11 -0.7738 -0.0271
-1 10 12 0.0052 0.0391
-1 10 13 -0.1324 -0.0327
-1 11 1 -0.3633 -0.2365
-1 11 2 0.5453 0.0354
-1 11 3 -0.0891 0.0584
-1 11 4 -0.1551 0.0319
-1 11 5 0.0400 -0.0789
-1 11 6 -0.4638 -0.0189
-1 11 7 0.5506 0.0821
-1 11 8 -0.0439 -0.0297
-1 11 9 0.3550 -0.0167
-1 11 10 -0.7306 0.0066
-1 11 11 -0.1479 -0.0023
-1 11 12 0.8120 0.0190
-1 12 1 -0.1196 -0.6081
-1 12 2 -0.1275 0.3029
-1 12 3 -0.0051 0.0336
-1 12 4 -0.4487 -0.1214
-1 12 5 0.8652 0.0068
-1 12 6 -0.9490 0.0246
-1 12 7 1.0508 0.0617
-1 12 8 -0.2432 -0.0559
-1 12 9 -1.1170 -0.0488
-1 12 10 0.8979 0.0779
-1 13 1 -0.5118 -0.1758
-1 13 2 0.4972 0.2541
-1 13 3 -0.3604 -0.1616
-1 13 4 -0.1560 -0.0096
-1 13 5 1.3983 0.0232
-1 13 6 -2.1497 0.0887
-1 13 7 1.8339 -0.0788
-1 13 8 -1.1201 -0.0479
-1 14 3 -0.7516 -0.1292
0 -13 1 -0.1372 -0.6158
0 -13 2 0.1863 0.1761
0 -13 3 -0.4222 0.1502
0 -12 1 0.3824 -0.9945
0 -12 2 -0.4950 0.4504
0 -12 3 0.1741 0.0688
0 -12 4 0.3151 -0.2109
0 -12 5 -0.8718 0.1294
0 -12 6 0.6458 -0.0710
0 -11 1 0.0685 -1.3825
0 -11 2 -0.2660 0.7506
0 -11 3 0.2974 -0.0603
0 -11 4 -0.3686 -0.2313
0 -11 5 0.2916 0.1382
0 -11 6 0.5175 0.0133
0 -11 7 -0.9935 -0.0637
0 -10 1 0.8511 -1.5984
0 -10 2 -0.4776 0.9347
0 -10 3 0.7586 -0.0771
0 -10 4 -0.8088 -0.3332
0 -10 5 0.8379 0.2242
0 -10 6 -0.5928 0.0217
0 -10 7 -0.6766 -0.1004
0 -10 8 1.6907 0.0457
0 -10 9 -1.2903 -0.0095
0 -9 1 0.4552 -1.2706
0 -9 2 -0.1687 0.8242
0 -9 3 -0.1818 -0.0681
0 -9 4 0.2172 -0.3947
0 -9 5 -0.6508 0.2970
0 -9 6 0.6243 0.0145
0 -9 7 0.0489 -0.1393
0 -9 8 0.0291 0.0736
0 -9 9 -0.6456 -0.0201
0 -9 10 0.7445 0.0456
0 -8 1 -0.3745 -1.0317
0 -8 2 0.2988 0.6947
0 -8 3 -0.9711 -0.0867
0 -8 4 1.3746 -0.3639
0 -8 5 -1.1116 0.3292
0 -8 6 0.9576 0.0077
0 -8 7 -0.3937 -0.2095
0 -8 8 -0.5548 0.1517
0 -8 9 0.4389 -0.0305
0 -8 10 0.5312 -0.0331
0 -8 11 -1.0300 0.0727
0 -7 1 0.0736 -0.4937
0 -7 2 0.4004 0.4834
0 -7 3 -0.4332 -0.0879
0 -7 4 0.8334 -0.3251
0 -7 5 -0.9255 0.3254
0 -7 6 0.2565 -0.0006
0 -7 7 0.0578 -0.2242
0 -7 8 0.1205 0.1481
0 -7 9 -0.1749 0.0464
0 -7 10 0.1569 -0.1466
0 -7 11 0.1068 0.1541
0 -7 12 -0.5399 -0.1190
0 -6 1 0.9440 -0.0621
0 -6 2 -0.2769 0.1814
0 -6 3 -0.2882 -0.1197
0 -6 4 0.1933 -0.1497
0 -6 5 -0.5550 0.2365
0 -6 6 0.9843 -0.0158
0 -6 7 -0.4106 -0.1873
0 -6 8 -0.1640 0.1458
0 -6 9 -0.1302 0.0176
0 -6 10 0.5216 -0.1013
0 -6 11 -0.3085 0.0689
0 -6 12 -0.3940 -0.0031
0 -6 13 0.7917 -0.0497
0 -5 1 -1.9757 -0.0725
0 -5 2 -0.2521 0.0264
0 -5 3 0.5433 -0.0311
0 -5 4 0.1193 -0.0126
0 -5 5 -0.0362 0.0936
0 -5 6 0.2629 -0.0368
0 -5 7 -0.8701 -0.0963
0 -5 8 0.3708 0.1008
0 -5 9 0.4209 0.0025
0 -5 10 -0.0001 -0.0725
0 -5 11 -0.9219 0.0705
0 -5 12 1.0840 -0.0209
0 -5 13 -0.4654 -0.0288
0 -5 14 -0.0636 0.0220
0 -4 1 -6.5178 -0.0471
0 -4 2 4.2616 -0.0364
0 -4 3 -1.4024 0.0396
0 -4 4 0.7746 0.0393
0 -4 5 -1.3108 -0.0365
0 -4 6 0.6894 -0.0255
0 -4 7 -0.1617 -0.0005
0 -4 8 0.4752 0.0467
0 -4 9 -0.0819 0.0021
0 -4 10 -0.5949 -0.0564
0 -4 11 0.2279 0.0350
0 -4 12 0.3160 0.0128
0 -4 13 -0.0387 -0.0497
0 -4 14 -0.4817 0.0407
0 -3 1 4.6193 -0.9195
0 -3 2 1.3097 0.2719
0 -3 3 -3.8000 0.0279
0 -3 4 2.5671 0.0369
0 -3 5 -1.5888 -0.0976
0 -3 6 1.7342 -0.0020
0 -3 7 -0.9179 0.0830
0 -3 8 -0.0890 -0.0228
0 -3 9 0.2020 -0.0264
0 -3 10 -0.4392 -0.0175
0 -3 11 0.6111 0.0207
0 -3 12 -0.1026 0.0386
0 -3 13 -0.0612 -0.0466
0 -3 14 -0.3766 0.0072
0 -3 15 0.4475 0.0274
0 -2 1 14.7592 -1.8668
0 -2 2 -9.4983 0.7629
0 -2 3 1.7153 0.0428
0 -2 4 2.5141 -0.0924
0 -2 5 -1.7081 -0.0510
0 -2 6 0.6910 0.0045
0 -2 7 -1.2816 0.0905
0 -2 8 0.9629 -0.0506
0 -2 9 0.1255 -0.0483
0 -2 10 -0.4388 0.0417
0 -2 11 0.3543 0.0264
0 -2 12 0.0471 -0.0108
0 -2 13 -0.7637 -0.0324
0 -2 14 0.7879 -0.0139
0 -2 15 -0.2838 0.0766
0 -1 2 3.7480 0.9671
0 -1 3 -0.0630 -0.0896
0 -1 4 0.8113 -0.1459
0 -1 5 -1.9439 0.0174
0 -1 6 1.0573 -0.0375
0 -1 7 -0.5187 0.1091
0 -1 8 1.0662 -0.0298
0 -1 9 -0.7448 -0.0850
0 -1 10 0.1956 0.0887
0 -1 11 -0.6805 -0.0105
0 -1 12 1.1073 -0.0372
0 -1 13 -0.8956 0.0102
0 -1 14 0.3587 0.0052
0 -1 15 0.5565 0.0517
0 -1 16 -1.0573 -0.1003
0 0 2 37.4727 1.0421
0 0 3 -21.7770 -0.3731
0 0 4 7.7172 -0.1501
0 0 5 -1.3371 0.1817
0 0 6 0.8909 -0.0944
0 0 7 -0.9925 0.0863
0 0 8 0.3943 -0.0026
0 0 9 -0.0012 -0.1147
0 0 10 -0.1560 0.0914
0 0 11 -0.4819 0.0150
0 0 12 1.5838 -0.0714
0 0 13 -1.4304 0.0673
0 0 14 0.1294 -0.0236
0 0 15 1.0071 -0.0296
0 0 16 -1.5784 0.0377
0 1 2 38.9846 0.8875
0 1 3 -30.8752 -0.5623
0 1 4 16.0476 -0.0837
0 1 5 -3.8180 0.3164
0 1 6 -0.2983 -0.1466
0 1 7 -0.8689 -0.0227
0 1 8 1.6219 0.0741
0 1 9 -0.7904 -0.1057
0 1 10 -0.0894 0.0773
0 1 11 0.6712 0.0359
0 1 12 -0.8043 -0.0981
0 1 13 0.4759 0.0567
0 1 14 -0.3583 0.0072
0 1 15 0.3584 -0.0591
0 1 16 -0.2215 0.0867
0 2 0 -13.7736 -1.9056
0 2 1 6.0558 0.6005
0 2 2 4.3843 0.6162
0 2 3 -10.2303 -0.6271
0 2 4 8.7112 -0.0374
0 2 5 -3.6371 0.3664
0 2 6 -0.3812 -0.1875
0 2 7 1.1501 -0.0626
0 2 8 0.5392 0.1202
0 2 9 -1.8943 -0.0730
0 2 10 1.5582 0.0296
0 2 11 -0.2305 0.0328
0 2 12 -1.2664 -0.0888
0 2 13 2.0633 0.0525
0 2 14 -1.7549 0.0365
0 2 15 1.0941 -0.0721
0 2 16 -0.5912 0.0450
0 3 0 -10.4120 -1.1870
0 3 1 13.3695 0.4849
0 3 2 -11.2162 0.5108
0 3 3 5.1203 -0.6207
0 3 4 -0.5265 -0.0637
0 3 5 -0.3298 0.4526
0 3 6 -0.2179 -0.1961
0 3 7 0.8048 -0.1289
0 3 8 -0.8773 0.1609
0 3 9 -0.2123 -0.0573
0 3 10 1.1288 -0.0133
0 3 11 -0.6888 0.0539
0 3 12 -0.0105 -0.0725
0 3 13 0.2148 0.0349
0 3 14 -0.3870 0.0373
0 3 15 0.6808 -0.0628
0 3 16 -0.8696 0.0245
0 4 0 6.4394 -0.0289
0 4 1 -4.0802 -0.1811
0 4 2 0.3503 0.4199
0 4 3 1.5091 -0.3446
0 4 4 -0.2694 -0.0859
0 4 5 -0.8867 0.3580
0 4 6 0.9457 -0.1384
0 4 7 -1.5190 -0.1757
0 4 8 1.5787 0.1692
0 4 9 -0.3139 -0.0084
0 4 10 -0.4100 -0.0524
0 4 11 0.2156 0.0544
0 4 12 0.0049 -0.0512
0 4 13 -0.5662 -0.0008
0 4 14 1.0601 0.0617
0 4 15 -0.5497 -0.0441
0 4 16 -0.1707 -0.0284
0 5 0 4.0079 -0.0393
0 5 1 -4.7522 -0.1568
0 5 2 4.2717 0.2709
0 5 3 -2.3851 -0.1194
0 5 4 0.8890 -0.1331
0 5 5 -1.0979 0.2199
0 5 6 1.2977 -0.0610
0 5 7 -1.2147 -0.1477
0 5 8 1.8242 0.1481
0 5 9 -1.3871 0.0136
0 5 10 -0.6016 -0.0934
0 5 11 1.4136 0.0585
0 5 12 -0.5788 -0.0207
0 5 13 -0.1930 -0.0216
0 5 14 0.6575 0.0679
0 5 15 -0.6501 -0.0393
0 5 16 -0.1186 -0.0408
0 6 0 -0.9222 -0.0531
0 6 1 0.9047 0.0959
0 6 2 -0.4102 -0.0087
0 6 3 -0.8595 -0.0640
0 6 4 1.0691 -0.0252
0 6 5 -0.1676 0.1128
0 6 6 -0.1338 -0.0409
0 6 7 0.0863 -0.0965
0 6 8 -0.0245 0.1235
0 6 9 -0.4407 -0.0096
0 6 10 0.1539 -0.0993
0 6 11 0.9169 0.0810
0 6 12 -0.7781 0.0039
0 6 13 -0.2611 -0.0536
0 6 14 0.6047 0.0554
0 6 15 -0.5776 -0.0124
0 6 16 0.3860 -0.0482
0 7 0 -0.7778 -0.3197
0 7 1 0.9721 0.2852
0 7 2 -1.2010 -0.2681
0 7 3 1.0051 0.0753
0 7 4 0.2303 0.0981
0 7 5 -0.7525 -0.0606
0 7 6 -0.0175 -0.0273
0 7 7 0.3118 0.0043
0 7 8 -0.0305 0.0398
0 7 9 -0.0837 0.0022
0 7 10 0.4905 -0.0712
0 7 11 -0.8526 0.0532
0 7 12 0.5684 0.0438
0 7 13 -0.1906 -0.0946
0 7 14 -0.2410 0.0428
0 7 15 0.7220 0.0351
0 8 0 0.3516 -0.9868
0 8 1 0.1051 0.7120
0 8 2 -0.2708 -0.3491
0 8 3 0.5715 -0.0230
0 8 4 -0.6925 0.2411
0 8 5 -0.3497 -0.1620
0 8 6 1.0817 -0.0544
0 8 7 -0.3972 0.1096
0 8 8 -0.0218 -0.0017
0 8 9 -0.3398 -0.0477
0 8 10 0.4396 -0.0096
0 8 11 -0.5683 0.0366
0 8 12 0.9277 0.0230
0 8 13 -0.7329 -0.0805
0 8 14 -0.0240 0.0523
0 8 15 0.7840 0.0200
0 9 0 0.3577 -1.1934
0 9 1 -0.9271 0.8098
0 9 2 0.4281 -0.3212
0 9 3 0.0000 -0.1394
0 9 4 -0.4143 0.3549
0 9 5 0.8012 -0.2104
0 9 6 -0.0621 -0.0817
0 9 7 -0.6906 0.1907
0 9 8 0.0431 -0.0637
0 9 9 0.4777 -0.0631
0 9 10 -0.0499 0.0394
0 9 11 -0.1327 0.0307
0 9 12 0.2599 -0.0253
0 9 13 -0.9728 -0.0278
0 9 14 1.3763 0.0605
0 10 0 -1.3359 -1.5138
0 10 1 0.6455 0.8521
0 10 2 0.0005 -0.1847
0 10 3 0.1749 -0.2041
0 10 4 0.0282 0.3212
0 10 5 -0.1915 -0.1840
0 10 6 -0.2426 -0.0830
0 10 7 -0.0391 0.2139
0 10 8 0.5029 -0.1106
0 10 9 0.3196 -0.0500
0 10 10 -0.9335 0.0919
0 10 11 0.1708 -0.0345
0 10 12 0.4775 -0.0180
0 10 13 -0.5012 0.0318
0 11 0 -0.6192 -1.4273
0 11 1 1.5174 0.8193
0 11 2 -1.2942 -0.0624
0 11 3 0.6232 -0.3148
0 11 4 -0.1722 0.2764
0 11 5 -0.7724 -0.0747
0 11 6 1.3207 -0.1259
0 11 7 -0.8062 0.2038
0 11 8 0.8274 -0.0740
0 11 9 -1.1531 -0.1280
0 11 10 0.1819 0.1794
0 11 11 0.7519 -0.0688
0 11 12 -0.2782 -0.0533
0 12 0 0.2170 -1.0462
0 12 1 -0.0850 0.5563
0 12 2 -0.7356 0.0381
0 12 3 0.8996 -0.2886
0 12 4 -0.7443 0.1438
0 12 5 0.6651 0.0812
0 12 6 0.1317 -0.1498
0 12 7 -0.8925 0.1127
0 12 8 0.7236 -0.0388
0 12 9 -0.7241 -0.0755
0 12 10 0.7730 0.1316
0 12 11 0.2457 -0.0461
0 13 0 0.3160 -0.7641
0 13 1 -0.6557 0.4286
0 13 2 0.4020 0.0744
0 13 3 0.1745 -0.3187
0 13 4 -0.0940 0.2100
0 13 5 -0.0373 0.0242
0 13 6 -0.2492 -0.1114
0 13 7 0.0866 0.0287
0 13 8 0.1622 0.0310
0 13 9 0.2358 -0.0032
0 14 1 -0.2540 0.0490
0 14 2 -0.0452 0.0575
0 14 3 0.3363 -0.1142
0 14 4 -0.2745 0.1143
0 14 5 -0.4520 -0.0823
1 -13 0 -0.0477 -0.1081
1 -13 1 0.5677 0.1736
1 -13 2 -0.4428 -0.2100
1 -13 3 0.1745 0.0610
1 -12 0 0.8295 -0.6564
1 -12 1 -0.7157 0.4781
1 -12 2 0.0386 -0.2180
1 -12 3 0.3233 -0.0378
1 -12 4 -0.4076 0.2212
1 -12 5 0.0007 -0.2118
1 -11 0 0.5765 -0.3030
1 -11 1 -1.3254 0.2064
1 -11 2 1.0736 -0.0753
1 -11 3 -0.0442 -0.0275
1 -11 4 -0.6922 0.1056
1 -11 5 1.0309 -0.1362
1 -11 6 -0.4968 0.0795
1 -11 7 -0.7302 0.0184
1 -10 0 0.7595 0.0603
1 -10 1 -0.4212 -0.0771
1 -10 2 0.7650 0.0847
1 -10 3 -0.6532 0.0134
1 -10 4 0.2970 -0.0686
1 -10 5 -0.1824 0.0130
1 -10 6 -0.2919 0.0160
1 -10 7 0.4851 0.0530
1 -10 8 0.2815 -0.1053
1 -10 9 -0.6656 0.0391
1 -9 0 0.5085 0.7169
1 -9 1 -0.4884 -0.3444
1 -9 2 0.4945 0.0987
1 -9 3 -1.1180 0.0358
1 -9 4 1.4892 -0.1071
1 -9 5 -1.6793 0.0556
1 -9 6 1.6136 0.0424
1 -9 7 -0.3555 -0.0342
1 -9 8 -0.9832 -0.0246
1 -9 9 0.7605 -0.0174
1 -9 10 0.0315 0.1248
1 -8 0 -0.9823 1.3337
1 -8 1 0.5071 -0.6970
1 -8 2 -0.2052 0.0460
1 -8 3 -0.0373 0.2461
1 -8 4 0.4701 -0.2064
1 -8 5 -0.4767 0.0396
1 -8 6 0.4218 0.1050
1 -8 7 -0.5197 -0.1272
1 -8 8 -0.1331 0.0274
1 -8 9 0.9621 0.0494
1 -8 10 -0.7264 -0.0197
1 -8 11 0.1146 -0.0248
1 -7 0 -0.0190 1.6757
1 -7 1 0.6686 -0.7091
1 -7 2 -0.6602 -0.1529
1 -7 3 0.6122 0.4317
1 -7 4 -0.6805 -0.2503
1 -7 5 0.4561 -0.0388
1 -7 6 -0.2982 0.1799
1 -7 7 0.1793 -0.1281
1 -7 8 0.0705 -0.0196
1 -7 9 0.1250 0.1267
1 -7 10 -0.5407 -0.0942
1 -7 11 0.4506 -0.0347
1 -7 12 -0.1917 0.1157
1 -6 0 2.0825 2.1375
1 -6 1 -1.2822 -0.8915
1 -6 2 0.1326 -0.3485
1 -6 3 0.2124 0.5937
1 -6 4 -0.2928 -0.1638
1 -6 5 0.4205 -0.1851
1 -6 6 0.0805 0.2176
1 -6 7 -0.6130 -0.0883
1 -6 8 0.3452 -0.0459
1 -6 9 0.1249 0.1055
1 -6 10 -0.0574 -0.0688
1 -6 11 -0.5430 -0.0302
1 -6 12 1.0398 0.0992
1 -6 13 -0.7821 -0.0570
1 -5 0 2.9626 1.5448
1 -5 1 -3.0680 -0.5662
1 -5 2 1.8284 -0.5196
1 -5 3 -0.3604 0.6983
1 -5 4 0.1824 -0.1100
1 -5 5 -0.4243 -0.3111
1 -5 6 0.2835 0.2172
1 -5 7 -0.6525 -0.0004
1 -5 8 1.1104 -0.0789
1 -5 9 -0.5874 0.0882
1 -5 10 0.0516 -0.0673
1 -5 11 -0.6161 0.0080
1 -5 12 1.4605 0.0346
1 -5 13 -1.2943 -0.0029
1 -5 14 0.2381 -0.0881
1 -4 0 -4.4950 1.0134
1 -4 1 1.5317 -0.0752
1 -4 2 0.8639 -0.7117
1 -4 3 -1.4806 0.6052
1 -4 4 0.9131 0.0569
1 -4 5 -1.0813 -0.4296
1 -4 6 1.3617 0.2193
1 -4 7 -0.7389 0.1020
1 -4 8 0.4616 -0.1395
1 -4 9 -0.7187 0.0511
1 -4 10 0.3563 -0.0209
1 -4 11 0.0819 -0.0308
1 -4 12 0.2013 0.0987
1 -4 13 -0.3967 -0.0618
1 -4 14 -0.0863 -0.0439
1 -3 0 -4.6753 0.7614
1 -3 1 5.7065 -0.1109
1 -3 2 -3.6004 -0.6603
1 -3 3 0.2224 0.5631
1 -3 4 1.2788 0.1406
1 -3 5 -0.4114 -0.4967
1 -3 6 -0.1290 0.2215
1 -3 7 -0.0572 0.1734
1 -3 8 -0.1280 -0.2265
1 -3 9 -0.0888 0.0472
1 -3 10 0.6328 0.0418
1 -3 11 -0.1867 -0.0376
1 -3 12 -0.5824 0.0741
1 -3 13 0.5150 -0.0589
1 -3 14 -0.1341 -0.0722
1 -3 15 -0.0128 0.1394
1 -2 0 23.9947 -0.2811
1 -2 1 -13.7211 0.3341
1 -2 2 4.7015 -0.5365
1 -2 3 -0.0754 0.4087
1 -2 4 -0.0442 0.1537
1 -2 5 -0.1277 -0.4762
1 -2 6 -1.4834 0.1973
1 -2 7 2.1152 0.2094
1 -2 8 -0.8783 -0.2619
1 -2 9 -0.2796 0.0469
1 -2 10 0.8637 0.1083
1 -2 11 -0.7604 -0.0954
1 -2 12 -0.3560 0.0493
1 -2 13 1.0986 -0.0309
1 -2 14 -0.5278 -0.0613
1 -2 15 -0.2622 0.1930
1 -1 0 38.1360 -0.5366
1 -1 1 -35.0580 0.4403
1 -1 2 23.6433 -0.2700
1 -1 3 -9.8025 0.1364
1 -1 4 0.9278 0.1172
1 -1 5 0.6485 -0.3312
1 -1 6 -0.1046 0.1555
1 -1 8 -1.6709 -0.2645
1 -1 9 0.4809 0.0237
1 -1 10 0.3599 0.1474
1 -1 11 -0.4758 -0.1180
1 -1 12 0.3723 0.0143
1 -1 13 0.0977 0.0467
1 -1 14 -0.2534 -0.0657
1 -1 15 -0.2287 0.0993
1 -1 16 0.5419 -0.1216
1 0 2 15.7660 0.1087
1 0 3 -10.5550 -0.0058
1 0 4 2.2241 -0.0609
1 0 5 2.2813 -0.0705
1 0 6 -1.3827 0.1298
1 0 7 -0.1606 0.0696
1 0 8 -0.5175 -0.2035
1 0 9 1.0602 0.0303
1 0 10 -0.4302 0.1632
1 0 11 0.1059 -0.1135
1 0 12 0.1982 -0.0353
1 0 13 -1.0368 0.0943
1 0 14 1.4804 -0.0612
1 0 15 -1.3871 -0.0086
1 0 16 1.1504 0.0633
1 1 1 28.3521 -0.1734
1 1 2 -16.8694 0.1995
1 1 3 7.0520 -0.0226
1 1 4 -2.8845 -0.1328
1 1 5 3.2978 0.0422
1 1 6 -4.1696 0.0987
1 1 7 2.8558 -0.0250
1 1 8 -0.7935 -0.1294
1 1 9 -0.0173 0.0643
1 1 10 0.1669 0.1309
1 1 11 -0.2051 -0.1317
1 1 12 -0.0331 -0.0362
1 1 13 -0.3695 0.1000
1 1 14 1.4067 -0.0272
1 1 15 -1.6139 -0.0376
1 1 16 0.9724 0.0583
1 2 0 -23.0256 1.2130
1 2 1 26.6576 -0.6612
1 2 2 -23.0615 0.2489
1 2 3 13.4366 0.0672
1 2 4 -4.6813 -0.2383
1 2 5 1.5453 0.1091
1 2 6 -2.4564 0.1084
1 2 7 3.3956 -0.0941
1 2 8 -2.1793 -0.0647
1 2 9 0.1380 0.0800
1 2 10 0.5439 0.0496
1 2 11 -0.3644 -0.0833
1 2 12 0.6082 -0.0380
1 2 13 -0.9826 0.1090
1 2 14 1.0312 -0.0301
1 2 15 -0.5917 -0.0588
1 2 16 -0.2891 0.0625
1 3 0 3.3893 2.3199
1 3 1 -1.6084 -1.2637
1 3 2 -1.0069 0.1716
1 3 3 1.7448 0.3085
1 3 4 0.0497 -0.3255
1 3 5 -1.2908 0.1323
1 3 6 1.1927 0.1200
1 3 7 -1.2140 -0.1938
1 3 8 0.9272 0.0440
1 3 9 0.0691 0.0715
1 3 10 -0.7982 -0.0287
1 3 11 0.7716 -0.0219
1 3 12 0.0832 -0.0121
1 3 13 -1.1776 0.0429
1 3 14 1.1096 -0.0029
1 3 15 0.0661 -0.0515
1 3 16 -0.9275 0.0611
1 4 0 2.1332 2.5085
1 4 1 -4.9601 -1.3241
1 4 2 5.6992 -0.0480
1 4 3 -3.3945 0.5966
1 4 4 0.7699 -0.3553
1 4 5 -0.2830 0.0051
1 4 6 0.9306 0.1392
1 4 7 -2.1709 -0.1559
1 4 8 3.3282 0.0689
1 4 9 -2.0891 0.0684
1 4 10 -0.7560 -0.1012
1 4 11 1.9381 0.0274
1 4 12 -1.3873 0.0268
1 4 13 0.9145 -0.0328
1 4 14 -0.9230 0.0256
1 4 15 1.1828 -0.0041
1 4 16 -1.1698 -0.0239
1 5 0 -6.2197 2.4522
1 5 1 5.3555 -1.2142
1 5 2 -3.1834 -0.0921
1 5 3 0.7952 0.5936
1 5 4 -0.4879 -0.3491
1 5 5 1.2392 -0.0397
1 5 6 -1.2096 0.1841
1 5 7 0.8446 -0.1546
1 5 8 0.1366 0.0805
1 5 9 -1.5905 0.0509
1 5 10 1.2446 -0.1529
1 5 11 0.6086 0.0885
1 5 12 -1.4491 0.0567
1 5 13 1.4419 -0.1090
1 5 14 -1.5042 0.0607
1 5 15 1.0196 0.0041
1 5 16 -0.2350 -0.0367
1 6 0 -4.2992 2.2821
1 6 1 5.1266 -1.0975
1 6 2 -5.0285 -0.2215
1 6 3 3.5913 0.6080
1 6 4 -1.3157 -0.2437
1 6 5 0.5778 -0.1284
1 6 6 -1.2461 0.2119
1 6 7 1.7324 -0.1429
1 6 8 -1.8819 0.0448
1 6 9 0.9728 0.0793
1 6 10 0.9978 -0.1727
1 6 11 -1.5546 0.1089
1 6 12 0.2442 0.0720
1 6 13 0.7427 -0.1521
1 6 14 -0.8272 0.0628
1 6 15 0.3461 0.0424
1 6 16 0.6361 -0.0576
1 7 0 -0.6152 1.4581
1 7 1 1.7273 -0.6955
1 7 2 -2.0032 -0.3018
1 7 3 2.2051 0.6198
1 7 4 -1.6247 -0.2062
1 7 5 -0.0140 -0.2148
1 7 6 0.6063 0.2342
1 7 7 0.1850 -0.0709
1 7 8 -0.7822 -0.0382
1 7 9 0.9483 0.1013
1 7 10 -0.5530 -0.1269
1 7 11 -0.4351 0.0552
1 7 13 0.6357 -0.1307
1 7 14 -1.2997 0.0306
1 7 15 1.0550 0.0912
1 8 0 1.3290 0.7707
1 8 1 -0.9506 -0.3051
1 8 2 0.0116 -0.2445
1 8 3 0.2537 0.3825
1 8 4 -0.4297 -0.0903
1 8 5 0.2937 -0.2020
1 8 6 0.6522 0.1889
1 8 7 -0.8933 -0.0140
1 8 8 0.0451 -0.0728
1 8 9 0.4918 0.0681
1 8 10 -0.8035 -0.0520
1 8 11 1.2624 0.0009
1 8 12 -1.1625 0.0841
1 8 13 0.7197 -0.1141
1 8 14 -0.5656 0.0490
1 8 15 0.5323 0.0423
1 9 0 0.2281 0.2415
1 9 1 -1.1361 -0.0701
1 9 2 0.8756 -0.2175
1 9 3 0.1052 0.2734
1 9 4 -0.3621 -0.0256
1 9 5 0.7620 -0.1952
1 9 6 -1.3302 0.1402
1 9 7 0.7531 0.0528
1 9 8 -0.0260 -0.1298
1 9 9 0.3114 0.0626
1 9 10 -0.6662 0.0139
1 9 11 0.8194 -0.0488
1 9 12 -1.1219 0.0740
1 9 13 0.9214 -0.0700
1 9 14 -0.2385 0.0158
1 10 0 -0.3214 -0.1935
1 10 1 0.1894 0.1472
1 10 2 0.3969 -0.0896
1 10 3 -0.2194 0.0567
1 10 4 -0.2690 0.0282
1 10 5 0.0283 -0.1220
1 10 6 -0.4315 0.0750
1 10 7 1.4537 0.0631
1 10 8 -0.9793 -0.0899
1 10 9 -0.2487 -0.0106
1 10 10 0.3103 0.0683
1 10 11 0.1223 -0.0153
1 10 12 -0.3475 -0.0504
1 10 13 0.7688 0.0623
1 11 0 -0.0627 -0.1301
1 11 1 -0.5186 0.0994
1 11 2 0.4898 -0.0195
1 11 3 -0.4281 -0.0669
1 11 4 -0.1136 0.0883
1 11 5 0.3699 -0.0528
1 11 6 0.3954 -0.0015
1 11 7 -0.3405 0.0548
1 11 8 -0.7843 -0.0449
1 11 9 0.6511 -0.0354
1 11 10 0.3424 0.0489
1 11 11 -0.2463 0.0723
1 11 12 -0.2723 -0.1863
1 12 0 -0.9704 -0.0464
1 12 1 -0.2216 -0.0725
1 12 2 0.8865 0.0933
1 12 3 -0.6383 -0.0019
1 12 4 0.1441 -0.0554
1 12 5 0.6516 0.0426
1 12 6 -0.8944 -0.0107
1 12 7 -0.0315 0.0036
1 12 8 0.2908 -0.0375
1 12 9 0.6114 0.0601
1 12 10 -0.6272 -0.0357
1 12 11 -0.1593 0.0324
1 13 0 -0.6971 0.2235
1 13 1 0.6729 -0.2479
1 13 2 0.0012 0.2394
1 13 3 -0.3202 -0.0925
1 13 4 0.1880 -0.0853
1 13 5 -0.0537 0.1134
1 13 6 -0.4780 -0.0344
1 13 7 0.8662 -0.0221
1 13 8 -0.1895 0.0139
1 13 9 -0.4521 0.0401
1 14 1 0.3944 -0.2542
1 14 2 -0.3602 0.1024
1 14 3 0.1941 0.0260
1 14 4 -0.3664 -0.1142
1 14 5 0.5094 0.1081
2 -13 0 -0.3235 -0.5032
2 -13 1 0.7421 0.1040
2 -13 2 -0.6519 0.0817
2 -12 0 0.5198 -0.7709
2 -12 1 -0.5175 0.3170
2 -12 2 -0.2743 0.1835
2 -12 3 0.8307 -0.2752
2 -12 4 -0.6681 0.0971
2 -12 5 0.3289 -0.0166
2 -11 0 -0.0676 -0.4323
2 -11 1 0.0728 0.1281
2 -11 2 -0.0152 0.2205
2 -11 3 0.6452 -0.2547
2 -11 4 -1.0806 0.0367
2 -11 5 0.9320 0.0947
2 -11 6 -0.7932 -0.0212
2 -11 7 0.4416 -0.0583
2 -10 0 0.2582 -0.2027
2 -10 1 0.2758 -0.0140
2 -10 2 -0.2972 0.3195
2 -10 3 -0.2335 -0.3142
2 -10 4 0.3726 0.0034
2 -10 5 -0.4204 0.2076
2 -10 6 0.1817 -0.1395
2 -10 7 0.9032 0.0073
2 -10 8 -1.6733 -0.0029
2 -10 9 1.2791 0.0631
2 -9 0 -0.3576 0.3691
2 -9 1 -0.0032 -0.3171
2 -9 2 -0.1283 0.3188
2 -9 3 -0.1047 -0.2542
2 -9 4 0.5522 -0.0190
2 -9 5 -0.4040 0.2617
2 -9 6 0.0827 -0.1676
2 -9 7 0.5446 -0.1029
2 -9 8 -1.9051 0.1836
2 -9 9 2.5980 -0.0516
2 -9 10 -1.7007 -0.0660
2 -8 0 -0.6574 0.6362
2 -8 1 0.7463 -0.5235
2 -8 2 -0.1612 0.3128
2 -8 3 -0.1573 -0.0785
2 -8 4 -0.0268 -0.1497
2 -8 5 0.7185 0.2719
2 -8 6 -1.5380 -0.1485
2 -8 7 1.4663 -0.1321
2 -8 8 -0.9584 0.2359
2 -8 9 1.1863 -0.0476
2 -8 10 -1.4585 -0.1519
2 -8 11 0.9490 0.1429
2 -7 0 0.6713 0.8517
2 -7 1 -0.4276 -0.5289
2 -7 2 0.2767 0.1995
2 -7 3 -0.7704 -0.0269
2 -7 4 0.9300 -0.1178
2 -7 5 -0.3061 0.2073
2 -7 6 -0.5505 -0.0999
2 -7 7 1.0137 -0.1212
2 -7 8 -0.7881 0.1967
2 -7 9 0.5678 -0.0410
2 -7 10 -0.9986 -0.1244
2 -7 11 1.3244 0.0785
2 -7 12 -1.0071 0.0779
2 -6 0 0.8478 0.7198
2 -6 1 -1.1846 -0.5010
2 -6 2 0.5960 0.0879
2 -6 3 0.0482 0.1022
2 -6 4 0.3419 -0.0959
2 -6 5 -0.8755 0.1062
2 -6 6 0.7884 -0.0609
2 -6 7 -0.5460 -0.1067
2 -6 8 0.3387 0.1761
2 -6 9 0.0444 -0.0215
2 -6 10 -0.5678 -0.1482
2 -6 11 0.8940 0.1226
2 -6 12 -0.7255 0.0265
2 -6 13 0.4116 -0.0924
2 -5 0 -1.2467 -0.0829
2 -5 1 0.6986 -0.0284
2 -5 2 -0.5827 0.0395
2 -5 3 0.9966 0.0284
2 -5 4 -0.9941 -0.0642
2 -5 5 -0.1946 0.0554
2 -5 6 1.1965 -0.0228
2 -5 7 -1.0793 -0.0720
2 -5 8 0.7887 0.1337
2 -5 9 -0.7233 -0.0150
2 -5 10 0.4368 -0.1463
2 -5 11 -0.1278 0.1126
2 -5 12 0.1877 0.0496
2 -5 13 -0.3336 -0.1218
2 -5 14 0.0976 0.0686
2 -4 0 -4.0831 -0.6525
2 -4 1 3.6666 0.3112
2 -4 2 -2.8665 -0.0487
2 -4 3 1.7026 -0.0820
2 -4 4 -0.8396 0.0722
2 -4 5 0.3860 -0.0065
2 -4 6 0.2985 -0.0181
2 -4 7 -0.5474 -0.0094
2 -4 8 0.0471 0.0473
2 -4 9 0.0226 -0.0198
2 -4 10 0.4433 -0.0706
2 -4 11 -0.5731 0.0729
2 -4 12 0.5405 0.0471
2 -4 13 -0.6798 -0.0999
2 -4 14 0.5475 0.0173
2 -3 0 3.0426 -1.6663
2 -3 1 0.3574 0.7079
2 -3 2 -2.5680 0.0024
2 -3 3 2.9798 -0.1673
2 -3 4 -1.5926 0.1093
2 -3 5 0.7571 -0.0323
2 -3 6 -1.4398 -0.0372
2 -3 7 1.7519 0.0666
2 -3 8 -1.1689 -0.0402
2 -3 9 0.5823 -0.0113
2 -3 10 0.0415 0.0234
2 -3 11 -0.5213 0.0140
2 -3 12 0.4628 -0.0166
2 -3 13 -0.4322 -0.0165
2 -3 14 0.5932 -0.0251
2 -3 15 -0.3570 0.1116
2 -2 0 9.1782 -2.3890
2 -2 1 -7.3756 1.1446
2 -2 2 2.4337 0.1565
2 -2 3 2.0049 -0.5123
2 -2 4 -3.1754 0.2303
2 -2 5 1.3348 0.0091
2 -2 6 -0.2407 -0.0909
2 -2 7 1.1919 0.1212
2 -2 8 -1.6392 -0.0724
2 -2 9 0.9593 -0.0373
2 -2 10 -0.4847 0.1003
2 -2 11 0.0843 -0.0642
2 -2 12 0.3918 -0.0119
2 -2 13 -0.3466 0.0298
2 -2 14 0.0268 -0.0043
2 -2 15 0.1942 0.0341
2 -1 0 -9.2588 -2.2651
2 -1 1 2.6853 1.0433
2 -1 2 -0.5427 0.2714
2 -1 3 1.9811 -0.6612
2 -1 4 -3.9782 0.2491
2 -1 5 3.5591 0.1286
2 -1 6 -0.7641 -0.1595
2 -1 7 -0.8415 0.1066
2 -1 8 0.0452 -0.0581
2 -1 9 0.6590 -0.0577
2 -1 10 -0.4748 0.1262
2 -1 11 0.2205 -0.0494
2 -1 12 0.4201 -0.0638
2 -1 13 -0.9682 0.0914
2 -1 14 0.2903 -0.0278
2 -1 15 0.7950 -0.0523
2 -1 16 -1.0060 0.0683
2 0 0 -26.8570 -2.1658
2 0 1 22.8019 1.0322
2 0 2 -14.0287 0.2699
2 0 3 6.1489 -0.7007
2 0 4 -3.1006 0.2640
2 0 5 4.1546 0.2268
2 0 6 -5.0193 -0.2639
2 0 7 3.2457 0.0760
2 0 8 -1.0817 0.0278
2 0 9 0.3971 -0.0900
2 0 10 -0.0748 0.1355
2 0 11 -0.2297 -0.0486
2 0 12 0.1457 -0.0947
2 0 13 -0.4205 0.1098
2 0 14 0.7322 -0.0201
2 0 15 -0.0883 -0.0508
2 0 16 -0.6334 0.0748
2 1 0 -12.4387 -1.4708
2 1 1 16.9867 0.8330
2 1 2 -13.3471 0.2150
2 1 3 3.9457 -0.7204
2 1 4 2.6170 0.3603
2 1 5 -1.7168 0.2254
2 1 6 -3.1075 -0.3753
2 1 7 5.5310 0.1244
2 1 8 -3.7232 0.1123
2 1 9 1.2641 -0.1592
2 1 10 -0.6768 0.1072
2 1 11 0.6954 -0.0024
2 1 12 -0.4496 -0.1208
2 1 13 0.2194 0.1275
2 1 14 0.3984 -0.0074
2 1 15 -0.9751 -0.0634
2 1 16 0.6054 0.0198
2 2 0 5.6855 -0.5076
2 2 1 -2.8684 0.3269
2 2 2 0.6845 0.1807
2 2 3 -2.0718 -0.5535
2 2 4 5.4231 0.2963
2 2 5 -5.9719 0.2527
2 2 6 3.1607 -0.4046
2 2 7 -0.2720 0.1002
2 2 8 -0.8223 0.1903
2 2 9 0.8133 -0.2002
2 2 10 -1.1057 0.0561
2 2 11 1.4974 0.0642
2 2 12 -0.7079 -0.1209
2 2 13 -0.6062 0.0963
2 2 14 0.9894 0.0237
2 2 15 -0.8282 -0.1324
2 2 16 0.6245 0.1087
2 3 0 -1.0490 -0.0317
2 3 1 -0.4607 0.0936
2 3 2 -0.0323 0.0733
2 3 3 2.2797 -0.3619
2 3 4 -2.8534 0.2917
2 3 5 0.5130 0.1620
2 3 6 1.9849 -0.3868
2 3 7 -3.1137 0.1047
2 3 8 2.9071 0.2222
2 3 9 -1.2656 -0.2002
2 3 10 -0.6250 -0.0011
2 3 11 1.3694 0.1019
2 3 12 -1.0481 -0.0883
2 3 13 0.1942 0.0420
2 3 14 0.4143 0.0314
2 3 15 -0.2136 -0.1065
2 3 16 -0.1489 0.0938
2 4 0 -9.1515 0.2573
2 4 1 9.7751 -0.0846
2 4 2 -9.1720 0.0580
2 4 3 8.0855 -0.1743
2 4 4 -7.6748 0.1583
2 4 6 -3.2900 -0.2734
2 4 7 0.8779 0.0976
2 4 8 0.7944 0.1899
2 4 9 -1.8722 -0.1859
2 4 10 1.1730 -0.0324
2 4 11 0.5830 0.1334
2 4 12 -1.5863 -0.0777
2 4 13 1.6292 0.0176
2 4 14 -0.9069 0.0202
2 4 15 -0.1496 -0.0583
2 4 16 0.4786 0.0369
2 5 0 -3.7347 0.3552
2 5 1 5.1427 -0.2018
2 5 2 -6.1741 0.0654
2 5 4 -3.6082 0.0031
2 5 5 2.9192 0.1226
2 5 6 -3.0132 -0.1402
2 5 7 2.8329 -0.0172
2 5 8 -2.3073 0.1714
2 5 9 0.5600 -0.1259
2 5 10 1.4808 -0.0495
2 5 11 -1.1880 0.1132
2 5 12 -0.5429 -0.0263
2 5 13 0.9431 -0.0420
2 5 14 0.0084 0.0410
2 5 15 -1.0686 -0.0435
2 5 16 1.4239 0.0311
2 6 0 0.4657 -0.0297
2 6 1 -0.6723 -0.0183
2 6 2 0.6463 -0.0548
2 6 3 0.4546 0.0598
2 6 4 -0.6243 -0.0012
2 6 5 -0.4894 0.0136
2 6 6 0.7308 -0.0432
2 6 7 -0.0367 -0.0158
2 6 8 -0.6687 0.0809
2 6 9 1.1693 -0.0385
2 6 10 -0.5515 -0.0562
2 6 11 -0.6978 0.0743
2 6 12 0.6575 -0.0021
2 6 13 -0.0489 -0.0479
2 6 14 0.4657 0.0160
2 6 15 -1.0573 0.0279
2 6 16 0.9903 -0.0398
2 7 0 0.8331 -0.5640
2 7 1 -1.0046 0.3068
2 7 2 1.3434 -0.1069
2 7 3 -1.7241 0.0318
2 7 4 1.2023 0.0164
2 7 5 -0.9915 -0.0530
2 7 6 1.6126 0.0298
2 7 7 -1.6862 0.0036
2 7 8 1.2576 0.0011
2 7 9 -0.7965 0.0061
2 7 10 -0.0959 -0.0420
2 7 11 0.6501 0.0467
2 7 12 -0.3450 -0.0018
2 7 13 0.2055 -0.0406
2 7 14 -0.2483 0.0309
2 7 15 -0.0348 0.0215
2 8 0 -0.0944 -0.9145
2 8 1 -0.4984 0.5583
2 8 2 0.2517 -0.1877
2 8 3 -0.2815 -0.0493
2 8 4 0.8809 0.1445
2 8 5 -0.5005 -0.1301
2 8 6 -0.3522 0.0408
2 8 7 0.3688 0.0506
2 8 8 0.0279 -0.0647
2 8 9 -0.5662 0.0217
2 8 10 1.0221 0.0003
2 8 11 -0.5126 -0.0028
2 8 12 -0.4188 0.0278
2 8 13 0.6507 -0.0520
2 8 14 -0.5306 0.0356
2 8 15 0.4693 0.0116
2 9 0 -0.5367 -1.2339
2 9 1 0.6434 0.7568
2 9 2 -0.1464 -0.2276
2 9 3 0.4067 -0.0820
2 9 4 -0.5827 0.1970
2 9 5 0.1272 -0.1741
2 9 6 -0.5864 0.0235
2 9 7 1.5283 0.1354
2 9 8 -1.2182 -0.1384
2 9 9 0.1789 0.0042
2 9 10 0.5545 0.0891
2 9 11 -0.7870 -0.0616
2 9 12 0.1663 0.0098
2 9 13 0.8071 -0.0073
2 9 14 -1.0284 0.0084
2 10 0 0.5463 -1.2341
2 10 1 0.1285 0.7839
2 10 2 -0.3332 -0.1450
2 10 3 -0.1324 -0.2672
2 10 4 -0.0939 0.2984
2 10 5 0.1548 -0.1169
2 10 6 0.5067 -0.0769
2 10 7 -0.0648 0.1793
2 10 8 -1.1690 -0.1222
2 10 9 1.1250 -0.0469
2 10 10 -0.4481 0.1367
2 10 11 0.5883 -0.0487
2 10 12 -1.1148 -0.0764
2 10 13 1.4114 0.0684
2 10 14 -1.2394 0.0367
2 11 0 -0.1670 -1.1158
2 11 1 -0.0560 0.6885
2 11 2 -0.2353 -0.1205
2 11 3 0.3249 -0.2600
2 11 4 -0.1047 0.3182
2 11 5 0.3890 -0.1173
2 11 6 -0.2264 -0.1224
2 11 7 -0.5465 0.2103
2 11 8 -0.1390 -0.1182
2 11 9 1.8200 -0.0648
2 11 10 -2.0640 0.1870
2 11 11 1.3933 -0.1343
2 11 12 -1.3159 -0.0227
2 12 0 -0.3460 -0.8489
2 12 1 0.5177 0.5922
2 12 2 -0.1427 -0.0575
2 12 3 0.1425 -0.2571
2 12 4 -0.1955 0.2114
2 12 5 0.1483 -0.0208
2 12 6 -0.5744 -0.1322
2 12 7 0.6276 0.1677
2 12 8 0.0224 -0.0715
2 12 9 0.2394 -0.0856
2 12 10 -1.2039 0.2027
2 12 11 1.0818 -0.2013
2 13 0 -0.0223 -0.2992
2 13 1 -0.2401 0.3971
2 13 2 0.4104 -0.1428
2 13 3 -0.3819 -0.2485
2 13 4 -0.0156 0.3076
2 13 5 0.1073 -0.0492
2 13 6 0.0808 -0.1560
2 13 7 0.3010 0.1423
2 13 8 -0.5341 0.0045
2 13 9 -0.1466 -0.1390
2 14 2 1.0934 -0.2552
2 14 3 -0.9036 0.0253
2 14 4 0.3687 0.2340
2 14 5 0.0744 -0.2008
3 -13 0 1.1327 -0.7007
3 -13 1 -0.5165 0.2129
3 -13 2 -0.2411 0.2293
3 -12 0 0.6431 -0.6202
3 -12 1 -0.3475 0.4914
3 -12 2 -0.1816 -0.0760
3 -12 3 0.6531 -0.2308
3 -12 4 -0.3470 0.2068
3 -12 5 -0.2487 -0.0532
3 -11 0 -0.1110 -0.3180
3 -11 1 0.4064 0.2804
3 -11 2 -0.0820 -0.1130
3 -11 3 -0.2674 -0.0883
3 -11 4 0.2034 0.1600
3 -11 5 -0.3306 -0.0562
3 -11 6 0.4572 -0.1074
3 -11 7 -0.1872 0.2004
3 -10 0 0.1418 0.0489
3 -10 1 0.0048 0.0767
3 -10 2 -0.4103 -0.0333
3 -10 3 -0.1667 -0.0876
3 -10 4 0.9563 0.1007
3 -10 5 -1.0206 -0.0002
3 -10 6 0.8396 -0.0928
3 -10 7 -0.4248 0.1266
3 -10 8 -0.3401 -0.1040
3 -9 0 -0.1403 0.6143
3 -9 1 0.1447 -0.2858
3 -9 2 -0.4175 -0.0149
3 -9 3 0.8031 0.0875
3 -9 4 -0.5184 -0.0240
3 -9 5 0.0838 0.0045
3 -9 6 0.1668 -0.0112
3 -9 7 -0.7628 -0.0235
3 -9 8 1.1272 0.0285
3 -9 9 -0.5796 0.0313
3 -9 10 -0.0899 -0.0659
3 -8 0 0.6029 0.8787
3 -8 1 -0.2037 -0.4924
3 -8 2 0.0964 0.0563
3 -8 3 -0.0828 0.1997
3 -8 4 -0.2653 -0.1885
3 -8 5 0.5728 0.0240
3 -8 6 -0.5361 0.0920
3 -8 7 -0.1054 -0.0914
3 -8 8 1.1900 0.0283
3 -8 9 -1.4076 0.0486
3 -8 10 0.2913 -0.0780
3 -8 11 0.7701 0.0260
3 -7 0 0.5096 1.1164
3 -7 1 -0.6954 -0.5980
3 -7 2 0.0197 -0.0223
3 -7 3 0.3060 0.3171
3 -7 4 0.2241 -0.2381
3 -7 5 -0.6343 0.0054
3 -7 6 0.3949 0.1642
3 -7 7 0.0381 -0.1532
3 -7 8 -0.0895 0.0117
3 -7 9 -0.0562 0.0925
3 -7 10 -0.3295 -0.0745
3 -7 11 0.9965 -0.0110
3 -7 12 -0.9763 0.0647
3 -6 0 -0.8130 0.9457
3 -6 1 0.8831 -0.6051
3 -6 2 -1.0652 -0.0383
3 -6 3 1.5080 0.4837
3 -6 4 -1.1792 -0.3646
3 -6 5 -0.1238 -0.0461
3 -6 6 0.8401 0.2659
3 -6 7 -0.3140 -0.1794
3 -6 8 -0.2842 -0.0309
3 -6 9 0.1193 0.1655
3 -6 10 0.2502 -0.1319
3 -6 11 -0.1814 0.0029
3 -6 12 0.0489 0.0752
3 -6 13 -0.2650 -0.0558
3 -5 0 -0.7232 0.5567
3 -5 1 1.1233 -0.3756
3 -5 2 -1.3199 -0.0545
3 -5 3 0.9376 0.4298
3 -5 4 -0.5028 -0.3572
3 -5 5 -0.0038 -0.0864
3 -5 6 0.7234 0.3632
3 -5 7 -0.7797 -0.1996
3 -5 8 0.0732 -0.1072
3 -5 9 0.1590 0.2148
3 -5 10 0.3629 -0.1059
3 -5 11 -0.6532 -0.0722
3 -5 12 0.3702 0.1713
3 -5 13 -0.1069 -0.1186
3 -5 14 0.0829 -0.0076
3 -4 0 0.9097 0.0562
3 -4 1 -0.7226 -0.0966
3 -4 2 0.2758 -0.1773
3 -4 3 0.3494 0.4420
3 -4 4 -0.2856 -0.2724
3 -4 5 0.1161 -0.1762
3 -4 6 -0.1101 0.3889
3 -4 7 -0.3217 -0.1611
3 -4 8 0.6159 -0.1800
3 -4 9 -0.1490 0.2466
3 -4 10 -0.3372 -0.0739
3 -4 11 0.3347 -0.0772
3 -4 12 -0.1603 0.1188
3 -4 13 -0.0726 -0.0770
3 -4 14 0.3195 -0.0377
3 -3 0 2.7201 -0.5508
3 -3 1 -3.3035 0.2906
3 -3 2 2.5715 -0.1633
3 -3 3 -0.5562 0.2849
3 -3 4 -1.3117 -0.1879
3 -3 5 1.3706 -0.2009
3 -3 6 -0.6444 0.3641
3 -3 7 0.2342 -0.0899
3 -3 8 0.2676 -0.2286
3 -3 9 -0.4065 0.2239
3 -3 10 -0.3703 0.0026
3 -3 11 1.0093 -0.1330
3 -3 12 -0.6549 0.0872
3 -3 13 -0.2983 -0.0260
3 -3 14 1.1566 0.0097
3 -3 15 -1.2928 0.0262
3 -2 0 -1.1504 -0.6764
3 -2 1 -3.0029 0.4787
3 -2 2 3.6013 -0.1771
3 -2 3 -1.5722 0.0619
3 -2 4 -1.0916 -0.0222
3 -2 5 1.8130 -0.1625
3 -2 6 0.0788 0.2680
3 -2 7 -1.5969 -0.0356
3 -2 8 0.9965 -0.2464
3 -2 9 0.0413 0.1974
3 -2 10 -0.4558 0.0605
3 -2 11 0.5545 -0.1806
3 -2 12 -0.2258 0.0864
3 -2 13 -0.3365 0.0373
3 -2 14 0.6389 -0.0420
3 -2 15 -0.7387 -0.0316
3 -1 0 -5.7208 -0.6941
3 -1 1 1.6899 0.4885
3 -1 2 2.4026 -0.1859
3 -1 3 -3.1000 0.0123
3 -1 4 1.1608 0.0335
3 -1 5 0.9186 -0.0952
3 -1 6 -0.9256 0.1461
3 -1 7 -0.7426 -0.0059
3 -1 8 1.1950 -0.2176
3 -1 9 -0.0781 0.1838
3 -1 10 -0.2045 0.0789
3 -1 11 -0.5072 -0.1974
3 -1 12 0.7276 0.0639
3 -1 13 -0.4417 0.0913
3 -1 14 0.1041 -0.1056
3 -1 15 0.1303 0.0101
3 -1 16 0.0191 0.0997
3 0 0 -0.4641 -0.3021
3 0 1 1.1777 0.2817
3 0 2 2.2556 -0.0230
3 0 3 -6.2658 -0.1507
3 0 4 6.7848 0.1032
3 0 5 -3.9842 -0.0143
3 0 6 0.5320 0.0200
3 0 7 1.1938 -0.0096
3 0 8 -1.0566 -0.0989
3 0 9 0.8146 0.1238
3 0 10 -0.7338 0.0515
3 0 11 0.0091 -0.1851
3 0 12 0.3826 0.0733
3 0 13 0.1011 0.0960
3 0 14 -0.0640 -0.1001
3 0 15 -0.6450 0.0079
3 0 16 0.8354 0.0461
3 1 0 1.9747 0.4131
3 1 1 -1.2078 -0.1669
3 1 2 1.1026 0.0743
3 1 3 -3.3281 -0.0863
3 1 4 6.0831 0.0040
3 1 5 -6.5144 0.0968
3 1 6 4.6497 -0.0460
3 1 7 -2.0767 -0.0593
3 1 8 0.1082 0.0302
3 1 9 0.7681 0.0634
3 1 10 -1.0253 -0.0245
3 1 11 0.7088 -0.0897
3 1 12 0.1792 0.0564
3 1 13 -0.5056 0.0880
3 1 14 0.2724 -0.1028
3 1 15 -0.8022 -0.0206
3 1 16 1.5057 0.0807
3 2 0 -7.5938 0.9804
3 2 1 6.5520 -0.5358
3 2 2 -6.6204 0.1205
3 2 3 7.4663 0.0812
3 2 4 -5.8966 -0.1571
3 2 5 1.7884 0.1625
3 2 6 1.6384 -0.0291
3 2 8 2.1013 0.1102
3 2 9 -0.8813 0.0540
3 2 10 0.3089 -0.0864
3 2 11 -0.4235 -0.0408
3 2 12 0.8123 0.0870
3 2 13 -1.1739 0.0253
3 2 14 0.7799 -0.0877
3 2 15 0.0506 -0.0114
3 2 16 -0.0332 0.1043
3 3 0 -9.7510 1.5822
3 3 1 11.2121 -0.9250
3 3 2 -10.7545 0.1998
3 3 3 10.2602 0.2054
3 3 4 -10.1878 -0.2462
3 3 5 8.2323 0.1163
3 3 6 -4.6511 0.0426
3 3 7 1.8835 -0.1623
3 3 8 -0.0856 0.1293
3 3 9 -1.2754 0.0470
3 3 10 1.6642 -0.1377
3 3 11 -1.1098 0.0336
3 3 12 0.2396 0.0714
3 3 13 0.2347 -0.0208
3 3 14 0.0272 -0.0610
3 3 15 -0.1516 0.0268
3 3 16 -0.2965 0.0432
3 4 0 0.7163 1.7532
3 4 1 1.7500 -1.0856
3 4 2 -2.7389 0.1708
3 4 3 1.7172 0.4257
3 4 5 2.5080 0.1193
3 4 6 -3.9156 0.1774
3 4 7 3.6647 -0.2237
3 4 8 -2.1663 0.0857
3 4 9 -0.2340 0.0855
3 4 10 1.8698 -0.1570
3 4 11 -1.0650 0.0725
3 4 12 -0.6294 0.0561
3 4 13 0.9970 -0.0757
3 4 14 -0.0898 0.0119
3 4 15 -0.8669 0.0129
3 4 16 0.7666 0.0064
3 5 0 5.2365 1.5895
3 5 1 -5.5144 -1.0056
3 5 2 5.1201 0.0982
3 5 3 -4.1261 0.4959
3 5 4 3.9103 -0.4562
3 5 5 -3.3801 0.0365
3 5 6 1.3355 0.2845
3 5 7 0.3642 -0.2603
3 5 8 -0.7419 0.0212
3 5 9 0.6093 0.1590
3 5 10 -0.0657 -0.1586
3 5 11 -0.2417 0.0342
3 5 12 -0.2971 0.0962
3 5 13 0.3520 -0.1266
3 5 14 0.4997 0.0482
3 5 15 -0.8018 0.0349
3 5 16 0.2304 -0.0509
3 6 0 2.5391 1.2524
3 6 1 -3.2787 -0.8549
3 6 2 3.8342 0.0753
3 6 3 -3.3561 0.5009
3 6 4 1.8880 -0.4312
3 6 5 -1.5758 -0.0386
3 6 6 2.2270 0.3326
3 6 7 -2.1836 -0.2346
3 6 8 1.6077 -0.0276
3 6 9 -0.5590 0.1752
3 6 10 -0.9378 -0.1404
3 6 11 1.4222 0.0197
3 6 12 -0.7645 0.0844
3 6 13 0.2465 -0.1187
3 6 14 0.1534 0.0645
3 6 15 -0.4601 0.0257
3 6 16 0.1235 -0.0542
3 7 0 0.5683 0.7371
3 7 1 -0.4266 -0.5646
3 7 2 0.0335 0.0537
3 7 3 -0.2180 0.4122
3 7 4 0.0572 -0.4025
3 7 5 1.0089 -0.0080
3 7 6 -1.2437 0.3161
3 7 7 0.3272 -0.2309
3 7 8 0.4258 -0.0444
3 7 9 -0.7280 0.1907
3 7 10 0.2780 -0.1343
3 7 11 0.9434 -0.0060
3 7 12 -1.4751 0.1027
3 7 13 0.9382 -0.1026
3 7 14 -0.3569 0.0310
3 7 15 -0.1894 0.0407
3 8 0 -0.0952 0.2366
3 8 1 0.5044 -0.2642
3 8 2 -0.6004 0.0206
3 8 3 0.9836 0.2779
3 8 4 -0.7909 -0.2589
3 8 5 0.4402 -0.0546
3 8 6 -1.0305 0.2722
3 8 7 1.5937 -0.1673
3 8 8 -1.2426 -0.0811
3 8 9 0.4557 0.1904
3 8 11 -0.6851 -0.0478
3 8 12 -0.0846 0.1298
3 8 13 0.7430 -0.0718
3 8 14 -0.5827 -0.0882
3 8 15 0.1928 0.1976
3 9 0 0.8761 -0.1336
3 9 1 0.0419 0.0106
3 9 2 -0.0291 -0.0005
3 9 3 -0.4631 0.1456
3 9 4 0.2734 -0.1906
3 9 5 -0.5761 -0.0057
3 9 6 1.4083 0.1976
3 9 7 -1.0937 -0.1288
3 9 8 0.1363 -0.0843
3 9 9 -0.0329 0.1707
3 9 10 0.5909 -0.0773
3 9 11 -1.0583 -0.0567
3 9 12 0.9126 0.1278
3 9 13 -0.1131 -0.1111
3 9 14 -0.4217 0.0024
3 10 0 0.4845 -0.1637
3 10 1 -0.5058 0.0690
3 10 2 -0.0544 0.0016
3 10 3 -0.4089 0.0124
3 10 4 1.1710 -0.0480
3 10 5 -0.9315 0.0013
3 10 6 0.9287 0.1027
3 10 7 -1.4617 -0.1047
3 10 8 1.0070 -0.0328
3 10 9 -0.1911 0.1349
3 10 10 0.4795 -0.0774
3 10 11 -1.0879 -0.0610
3 10 12 1.0026 0.1573
3 10 13 -0.5305 -0.1789
3 11 0 -0.2915 -0.0900
3 11 1 -0.0838 0.0081
3 11 2 0.1868 0.0509
3 11 3 0.1750 -0.0025
3 11 4 0.2337 -0.0415
3 11 5 -0.7991 -0.0041
3 11 6 0.3503 0.0637
3 11 7 -0.0764 -0.0501
3 11 8 0.4999 -0.0247
3 11 9 -0.3478 0.0737
3 11 10 0.0448 -0.0297
3 11 11 -0.6412 -0.0632
3 11 12 1.1366 0.1086
3 12 0 0.5698 0.1428
3 12 1 -0.4201 -0.0546
3 12 2 0.5358 0.0589
3 12 3 -0.2979 -0.0763
3 12 4 -0.2495 -0.0120
3 12 5 -0.0006 0.0845
3 12 6 0.6153 -0.0424
3 12 7 -0.5870 -0.0132
3 12 8 0.7529 0.0062
3 12 9 -1.3545 0.0231
3 12 10 1.1105 -0.0419
3 12 11 -0.3401 0.0609
3 13 0 0.6574 0.2089
3 13 1 -0.6205 -0.1283
3 13 2 0.3410 -0.0183
3 13 3 -0.1324 -0.0041
3 13 4 -0.0868 0.0910
3 13 5 0.2543 -0.0310
3 13 6 0.2993 -0.0681
3 13 7 -1.1600 0.0396
3 13 8 1.3406 0.0441
3 13 9 -1.2279 -0.0610
4 -12 0 1.0466 -0.2333
4 -12 1 -0.5062 0.1606
4 -12 2 -0.0068 -0.0610
4 -12 3 0.4616 -0.1016
4 -12 4 -0.6463 0.1408
4 -11 0 1.2412 -0.0804
4 -11 1 -1.2835 -0.0580
4 -11 2 0.7075 0.1663
4 -11 3 -0.2055 -0.1686
4 -11 4 -0.4787 0.0769
4 -11 5 1.1704 0.0718
4 -11 6 -1.2669 -0.1791
4 -10 0 -0.1413 0.3014
4 -10 1 -0.3241 -0.1712
4 -10 2 0.2035 0.1521
4 -10 3 0.0539 -0.1792
4 -10 4 0.1115 0.0810
4 -10 5 0.0807 0.1103
4 -10 6 -0.6655 -0.1939
4 -10 7 0.7936 0.1008
4 -10 8 -0.4709 0.0220
4 -9 0 -0.7277 0.6675
4 -9 1 0.6035 -0.4278
4 -9 2 0.0322 0.1601
4 -9 3 -0.1083 -0.0394
4 -9 4 -0.0698 0.0026
4 -9 5 -0.0919 0.0771
4 -9 6 0.1176 -0.1486
4 -9 7 0.0228 0.0772
4 -9 8 0.0803 0.0650
4 -9 9 -0.1154 -0.0739
4 -8 0 0.2651 0.8517
4 -8 1 -0.2184 -0.5368
4 -8 2 -0.0418 0.1709
4 -8 3 -0.0505 0.0202
4 -8 4 0.2705 -0.0744
4 -8 5 -0.3995 0.0945
4 -8 6 0.3125 -0.0925
4 -8 7 0.1738 0.0242
4 -8 8 -0.6753 0.0981
4 -8 9 0.8427 -0.1466
4 -8 10 -0.9090 0.0410
4 -8 11 0.8094 0.0821
4 -7 0 0.3940 0.9196
4 -7 1 -0.3095 -0.6154
4 -7 2 -0.5231 0.1200
4 -7 3 1.4250 0.1320
4 -7 4 -1.1341 -0.0936
4 -7 5 0.0243 0.0383
4 -7 6 0.3755 -0.0488
4 -7 7 0.4071 -0.0033
4 -7 8 -1.2917 0.1109
4 -7 9 1.2368 -0.1193
4 -7 10 -0.5988 -0.0259
4 -7 11 0.1955 0.1873
4 -7 12 0.0461 -0.1860
4 -6 0 0.1768 0.5991
4 -6 1 -0.0498 -0.4873
4 -6 2 0.1481 0.1227
4 -6 3 0.0877 0.1759
4 -6 4 -0.7268 -0.1634
4 -6 5 0.9031 0.0062
4 -6 6 -0.5561 0.0259
4 -6 7 0.6664 0.0057
4 -6 8 -1.1663 0.0558
4 -6 9 0.8780 -0.1009
4 -6 10 0.1604 -0.0065
4 -6 11 -0.5337 0.1426
4 -6 12 -0.0906 -0.1308
4 -6 13 0.5095 -0.0017
4 -5 0 -0.1424 0.1533
4 -5 1 -0.0865 -0.2022
4 -5 2 0.6632 0.0512
4 -5 3 -1.1439 0.1042
4 -5 4 1.1222 -0.0974
4 -5 5 -0.2860 -0.0132
4 -5 6 -0.5818 0.0591
4 -5 7 0.7229 -0.0138
4 -5 8 -0.6494 0.0053
4 -5 9 0.6337 -0.0472
4 -5 10 -0.1762 0.0107
4 -5 11 -0.2844 0.0752
4 -5 12 -0.2226 -0.0454
4 -5 13 1.1508 -0.0703
4 -4 0 -0.0469 -0.4633
4 -4 1 -0.1822 0.1543
4 -4 2 0.7267 -0.0046
4 -4 3 -0.5287 0.0286
4 -4 4 -0.0639 -0.0233
4 -4 5 0.1316 -0.0389
4 -4 6 -0.0836 0.0384
4 -4 7 0.1009 0.0147
4 -4 8 0.2186 -0.0204
4 -4 9 -0.3546 -0.0146
4 -4 10 -0.0616 -0.0043
4 -4 11 0.2904 0.0740
4 -4 12 -0.0911 -0.0574
4 -4 13 -0.0055 -0.0772
4 -4 14 -0.0013 0.1495
4 -3 0 0.4535 -0.9723
4 -3 1 -1.5471 0.5228
4 -3 2 1.5505 -0.0159
4 -3 3 -0.8367 -0.1932
4 -3 4 -0.5373 0.1071
4 -3 5 1.2041 -0.0051
4 -3 6 -0.2485 -0.0201
4 -3 7 -0.7322 0.0428
4 -3 8 0.7233 -0.0425
4 -3 9 -0.5478 -0.0089
4 -3 10 0.2840 0.0353
4 -3 11 0.4112 -0.0019
4 -3 12 -0.8108 -0.0153
4 -3 13 0.4020 -0.0400
4 -3 14 0.3072 0.1048
4 -3 15 -0.6828 -0.0848
4 -2 0 0.1387 -1.2902
4 -2 1 -1.7190 0.7388
4 -2 2 2.2992 -0.0617
4 -2 3 -1.3120 -0.3430
4 -2 4 0.1413 0.2779
4 -2 5 0.5922 0.0029
4 -2 6 -0.3727 -0.1291
4 -2 7 -0.5743 0.0823
4 -2 8 0.6822 -0.0236
4 -2 9 -0.0510 -0.0223
4 -2 10 0.1878 0.0579
4 -2 11 -0.5779 -0.0314
4 -2 12 -0.0099 -0.0301
4 -2 13 0.9058 0.0505
4 -2 14 -0.9981 -0.0328
4 -2 15 0.3473 0.0192
4 -1 0 -0.1060 -1.3175
4 -1 1 0.5822 0.7920
4 -1 2 1.0164 -0.0144
4 -1 3 -2.3174 -0.4600
4 -1 4 2.2350 0.3658
4 -1 5 -1.6037 0.0316
4 -1 6 0.6810 -0.2558
4 -1 7 0.0631 0.1599
4 -1 8 -0.1576 0.0181
4 -1 9 0.2276 -0.0977
4 -1 10 -0.2130 0.1080
4 -1 11 -0.3955 -0.0611
4 -1 12 0.6154 -0.0420
4 -1 13 0.1453 0.0935
4 -1 14 -0.7654 -0.0410
4 -1 15 0.6327 -0.0130
4 0 0 -2.7190 -0.9214
4 0 1 4.1571 0.5993
4 0 2 -4.2775 0.0334
4 0 3 1.7322 -0.5083
4 0 4 1.2639 0.4111
4 0 5 -2.6851 0.0596
4 0 6 2.5824 -0.3427
4 0 7 -1.4667 0.2068
4 0 8 0.3750 0.0717
4 0 9 -0.0273 -0.1744
4 0 10 -0.2480 0.1050
4 0 11 0.5494 -0.0063
4 0 12 -0.2713 -0.0779
4 0 13 -0.1001 0.1113
4 0 14 0.1399 -0.0362
4 0 15 -0.1679 -0.0677
4 0 16 -0.0226 0.0631
4 1 0 -6.2069 -0.6079
4 1 1 6.9255 0.4171
4 1 2 -8.4942 0.0063
4 1 3 9.2165 -0.3819
4 1 4 -6.9328 0.3493
4 1 5 3.0902 0.0543
4 1 6 -0.1715 -0.3557
4 1 7 -1.2509 0.2405
4 1 8 1.4451 0.0810
4 1 9 -1.0780 -0.2279
4 1 10 0.7150 0.1202
4 1 11 -0.1866 0.0521
4 1 12 -0.1594 -0.1390
4 1 13 -0.0726 0.1217
4 1 14 0.0876 -0.0239
4 1 15 0.3250 -0.0805
4 1 16 -0.4110 0.0813
4 2 0 -1.2269 -0.0380
4 2 1 2.5746 0.0974
4 2 2 -3.7182 0.0714
4 2 3 5.5447 -0.3174
4 2 4 -6.9584 0.3093
4 2 5 6.1391 0.0226
4 2 6 -4.0922 -0.3240
4 2 7 2.2703 0.2460
4 2 10 1.6624 0.1495
4 2 11 -0.9372 0.0622
4 2 12 -0.2370 -0.1569
4 2 13 0.7793 0.1023
4 2 14 -0.4921 0.0298
4 2 15 0.4558 -0.1372
4 2 16 -0.7030 0.1189
4 3 0 7.3827 0.3748
4 3 1 -5.4836 -0.2267
4 3 2 4.1399 0.1065
4 3 3 -3.9437 -0.1454
4 3 4 3.0508 0.1648
4 3 5 -0.6999 0.0200
4 3 6 -1.4100 -0.2514
4 3 7 2.3673 0.2055
4 3 8 -1.8834 0.1028
4 3 9 -0.0791 -0.2845
4 3 10 1.5804 0.1261
4 3 11 -0.9607 0.1363
4 3 12 -0.5984 -0.2009
4 3 13 1.1461 0.0676
4 3 14 -0.1270 0.0877
4 3 15 -1.2848 -0.1591
4 3 16 1.4023 0.1239
4 4 0 6.8705 0.3262
4 4 1 -6.2407 -0.2250
4 4 2 5.2128 0.0574
4 4 3 -4.8535 -0.0059
4 4 4 5.5315 0.0402
4 4 5 -5.0601 0.0141
4 4 6 2.7016 -0.1499
4 4 7 -0.5306 0.1505
4 4 8 -0.5377 0.0571
4 4 9 0.6802 -0.2220
4 4 10 0.0479 0.1113
4 4 11 -0.4336 0.1264
4 4 12 -0.2256 -0.1828
4 4 13 0.6474 0.0348
4 4 14 -0.0296 0.0947
4 4 15 -1.0241 -0.0897
4 4 16 1.5775 0.0169
4 5 0 1.4907 0.3156
4 5 1 -1.9395 -0.2331
4 5 2 1.9886 0.0408
4 5 3 -1.2655 0.0348
4 5 4 0.6939 0.0312
4 5 5 -1.5226 -0.0420
4 5 6 2.2429 -0.0620
4 5 7 -1.6875 0.0983
4 5 8 0.8338 0.0300
4 5 9 -0.0005 -0.1500
4 5 10 -0.6022 0.0760
4 5 11 0.2554 0.1017
4 5 12 0.1419 -0.1463
4 5 13 0.4066 0.0256
4 5 14 -1.0422 0.0669
4 5 15 1.0844 -0.0262
4 5 16 -0.7481 -0.0553
4 6 0 -0.9440 -0.0721
4 6 1 0.5478 -0.0298
4 6 2 0.0612 -0.0295
4 6 3 -0.1526 0.1052
4 6 4 -1.1456 -0.0563
4 6 5 2.3307 -0.0229
4 6 6 -1.4599 0.0014
4 6 7 -0.0791 0.0422
4 6 8 0.6156 0.0130
4 6 9 -0.6178 -0.0850
4 6 10 0.3274 0.0361
4 6 11 0.0544 0.0764
4 6 12 0.0974 -0.0867
4 6 13 -0.1072 -0.0247
4 6 14 -0.5637 0.1096
4 6 15 0.9646 -0.0727
4 6 16 -0.8002 -0.0119
4 7 0 -1.0949 -0.4798
4 7 1 0.9989 0.2566
4 7 2 0.0593 -0.0815
4 7 3 -0.8282 0.0140
4 7 4 0.6713 0.0294
4 7 5 0.6909 -0.0675
4 7 6 -1.8363 0.0428
4 7 7 1.2207 0.0223
4 7 8 -0.0454 -0.0365
4 7 9 -0.3117 0.0012
4 7 10 0.2899 0.0038
4 7 11 -0.1005 0.0195
4 7 12 -0.1129 -0.0033
4 7 13 -0.1888 -0.0425
4 7 14 0.4473 0.0496
4 7 15 -0.1404 -0.0075
4 8 0 0.4877 -0.7251
4 8 1 0.0827 0.4169
4 8 2 0.1995 -0.0912
4 8 3 -0.8167 -0.0699
4 8 4 1.1427 0.1025
4 8 5 -1.4854 -0.0944
4 8 6 1.4006 0.0399
4 8 7 -0.7931 0.0454
4 8 8 0.5302 -0.0679
4 8 9 -0.4971 0.0100
4 8 10 0.2691 0.0261
4 8 11 -0.1768 0.0072
4 8 12 0.1287 -0.0335
4 8 13 -0.0025 0.0104
4 8 14 0.0965 -0.0010
4 8 15 -0.0464 0.0328
4 9 0 1.4886 -0.9425
4 9 1 -1.1032 0.5972
4 9 2 -0.1083 -0.1371
4 9 3 0.4430 -0.1424
4 9 4 -0.2439 0.1501
4 9 5 0.0476 -0.0459
4 9 6 0.7447 -0.0228
4 9 7 -1.4928 0.0623
4 9 8 1.2100 -0.0757
4 9 9 -0.6294 0.0179
4 9 10 0.4902 0.0623
4 9 11 -0.5577 -0.0612
4 9 12 0.5969 0.0028
4 9 13 -0.3884 -0.0025
4 9 14 -0.0018 0.0663
4 10 0 0.5233 -0.8654
4 10 1 -1.2616 0.5598
4 10 2 0.4904 -0.1181
4 10 3 0.7003 -0.1998
4 10 4 -0.6659 0.2552
4 10 5 0.4379 -0.1027
4 10 6 -0.8292 -0.0657
4 10 7 0.5923 0.1181
4 10 8 0.1741 -0.0780
4 10 9 -0.1463 0.0013
4 10 10 -0.2256 0.0810
4 10 11 -0.0086 -0.1073
4 10 12 0.4734 0.0434
4 10 13 -0.6016 0.0347
4 11 0 -0.1900 -0.7168
4 11 1 -0.5045 0.4712
4 11 2 1.0340 -0.0776
4 11 3 -0.4285 -0.1890
4 11 4 -0.2767 0.2017
4 11 5 -0.0766 -0.0584
4 11 6 0.3201 -0.0968
4 11 7 0.2213 0.1589
4 11 8 -0.2352 -0.0870
4 11 9 -0.2151 -0.0436
4 11 10 -0.1288 0.1033
4 11 11 0.6874 -0.0354
4 11 12 -0.4713 -0.1015
4 12 0 -0.1793 -0.4113
4 12 1 0.4554 0.3175
4 12 2 -0.0581 -0.0747
4 12 3 -0.5397 -0.1685
4 12 4 0.3290 0.1978
4 12 5 0.1266 -0.0213
4 12 6 0.3817 -0.1228
4 12 7 -1.1772 0.1043
4 12 8 1.2340 0.0088
4 12 9 -0.9963 -0.1115
4 12 10 0.5957 0.1247
4 13 0 0.2471 -0.1568
4 13 1 0.6232 0.1116
4 13 2 -1.0538 -0.0147
4 13 3 0.5041 -0.0542
4 13 4 0.2638 0.0925
4 13 5 -0.1479 -0.0466
4 13 6 -0.3637 -0.0458
4 13 7 0.0143 0.0227
4 13 8 0.7221 0.1203
5 -12 0 0.4386 -0.3442
5 -12 1 -0.8801 0.0824
5 -12 2 0.6862 0.1232
5 -11 0 -0.5945 -0.3998
5 -11 1 -0.4894 0.3594
5 -11 2 1.2817 -0.0508
5 -11 3 -1.5792 -0.1729
5 -11 4 1.5125 0.1422
5 -11 5 -1.0320 -0.0100
5 -10 0 -1.3198 0.0305
5 -10 1 1.0990 0.1243
5 -10 2 0.5189 -0.0918
5 -10 3 -1.7411 -0.0942
5 -10 4 2.2298 0.1546
5 -10 5 -2.0756 -0.0172
5 -10 6 1.2277 -0.1146
5 -10 7 -0.3151 0.1104
5 -9 0 -0.1639 0.2898
5 -9 1 0.4055 -0.1215
5 -9 2 0.2258 -0.0193
5 -9 3 -1.0081 0.0326
5 -9 4 1.0255 0.0133
5 -9 5 -0.7499 0.0070
5 -9 6 0.5338 -0.0759
5 -9 7 -0.1767 0.0694
5 -9 8 -0.0931 0.0346
5 -9 9 0.1107 -0.1200
5 -8 0 0.0360 0.5215
5 -8 1 0.0782 -0.2468
5 -8 2 -0.5787 -0.0387
5 -8 3 0.5512 0.1325
5 -8 4 -0.0282 -0.0662
5 -8 5 -0.3271 -0.0049
5 -8 6 0.3199 0.0241
5 -8 7 -0.0223 -0.0268
5 -8 8 -0.2808 0.0324
5 -8 9 0.2319 -0.0278
5 -8 10 -0.0618 -0.0045
5 -7 0 0.5145 0.5216
5 -7 1 -0.1925 -0.2965
5 -7 2 -0.1515 -0.0443
5 -7 3 0.4757 0.2317
5 -7 4 -0.3294 -0.1378
5 -7 5 -0.3322 -0.0486
5 -7 6 0.8574 0.1139
5 -7 7 -0.6627 -0.0737
5 -7 8 0.0100 0.0111
5 -7 9 0.2824 0.0626
5 -7 10 -0.1111 -0.1152
5 -7 11 0.1548 0.1008
5 -6 0 0.8771 0.3109
5 -6 1 -1.0660 -0.1435
5 -6 2 1.2957 -0.0835
5 -6 3 -1.2270 0.2448
5 -6 4 0.7320 -0.1984
5 -6 5 -0.2265 -0.0238
5 -6 6 0.2471 0.1751
5 -6 7 -0.5227 -0.1107
5 -6 8 0.2552 -0.0358
5 -6 9 0.3790 0.1025
5 -6 10 -0.4772 -0.0757
5 -6 11 0.2083 -0.0047
5 -6 12 -0.3394 0.0731
5 -5 0 0.0404 0.0700
5 -5 1 -0.1120 -0.0141
5 -5 2 0.3261 -0.1151
5 -5 3 -0.3911 0.2111
5 -5 4 0.3588 -0.1557
5 -5 5 -0.3616 -0.0454
5 -5 6 0.2281 0.2165
5 -5 7 -0.0556 -0.1706
5 -5 8 -0.0938 -0.0437
5 -5 9 0.4723 0.1794
5 -5 10 -0.6054 -0.1173
5 -5 11 -0.1843 -0.0261
5 -5 12 1.0911 0.1027
5 -5 13 -1.0202 -0.0572
5 -4 0 0.1172 -0.3604
5 -4 1 0.0007 0.2533
5 -4 2 -0.1864 -0.1631
5 -4 3 0.2079 0.1630
5 -4 4 -0.3700 -0.1328
5 -4 5 0.2692 -0.0386
5 -4 6 0.3363 0.2100
5 -4 7 -0.5775 -0.1637
5 -4 8 0.1296 -0.0616
5 -4 9 0.4526 0.2026
5 -4 10 -0.8855 -0.1076
5 -4 11 0.7391 -0.0863
5 -4 12 0.3172 0.1593
5 -4 13 -1.2900 -0.0762
5 -4 14 1.1318 -0.0444
5 -3 0 0.0165 -0.6291
5 -3 1 -0.4971 0.4543
5 -3 2 0.7032 -0.2022
5 -3 3 -0.5518 0.0480
5 -3 4 0.2985 -0.0162
5 -3 5 0.2162 -0.0483
5 -3 6 -0.3501 0.1738
5 -3 7 -0.2093 -0.1479
5 -3 8 0.3920 -0.0843
5 -3 9 0.0913 0.2387
5 -3 10 -0.4960 -0.1109
5 -3 11 0.8088 -0.1270
5 -3 12 -1.0627 0.1961
5 -3 13 0.7769 -0.0622
5 -3 14 -0.1985 -0.0896
5 -2 0 -1.0572 -0.7732
5 -2 1 1.3256 0.5345
5 -2 2 -0.0405 -0.1721
5 -2 3 -0.9495 -0.0497
5 -2 4 0.9676 0.0813
5 -2 5 -0.5999 -0.0587
5 -2 6 0.0461 0.0896
5 -2 7 0.1239 -0.0863
5 -2 8 0.2863 -0.0617
5 -2 9 -0.3829 0.1999
5 -2 10 0.1634 -0.1036
5 -2 11 -0.2497 -0.1166
5 -2 12 0.1037 0.1687
5 -2 13 0.5879 -0.0251
5 -2 14 -0.9240 -0.1000
5 -2 15 0.4856 0.0856
5 -1 1 3.1270 0.5120
5 -1 2 -2.6830 -0.1582
5 -1 3 0.5059 -0.1132
5 -1 4 0.9144 0.1218
5 -1 5 -0.9369 -0.0193
5 -1 6 0.8330 -0.0059
5 -1 7 -1.0235 -0.0154
5 -1 8 1.3641 -0.0398
5 -1 9 -1.3606 0.1255
5 -1 10 0.4410 -0.0647
5 -1 11 0.3907 -0.1244
5 -1 12 0.0392 0.1849
5 -1 13 -0.8077 -0.0236
5 -1 14 0.7792 -0.1303
5 -1 15 -0.3314 0.0948
5 0 0 -1.3713 -0.2189
5 0 1 1.6422 0.2395
5 0 2 -2.8602 -0.0817
5 0 3 3.6181 -0.1095
5 0 4 -2.9602 0.1325
5 0 5 1.9437 -0.0122
5 0 6 -0.8126 -0.0472
5 0 7 -0.7781 -0.0038
5 0 8 1.8947 0.0180
5 0 9 -1.8136 0.0552
5 0 10 0.8146 -0.0717
5 0 11 0.3864 -0.0482
5 0 12 -0.4657 0.1438
5 0 13 -0.8808 -0.0414
5 0 14 1.9240 -0.1568
5 0 15 -1.5772 0.2091
5 1 0 2.7261 0.1780
5 1 1 -3.7749 -0.0174
5 1 2 3.4981 0.0122
5 1 3 -0.7710 -0.0778
5 1 4 -2.4405 0.0656
5 1 5 3.5606 0.0359
5 1 6 -2.6356 -0.0889
5 1 7 0.7687 0.0186
5 1 8 0.8581 0.0573
5 1 9 -1.0514 -0.0244
5 1 10 0.2717 -0.0331
5 1 11 0.1757 -0.0056
5 1 12 -0.1187 0.0750
5 1 13 -0.2130 -0.0361
5 1 14 0.5574 -0.0864
5 1 15 -0.4070 0.1429
5 1 16 0.0424 -0.0821
5 2 0 5.8695 0.7130
5 2 1 -6.9093 -0.3316
5 2 2 7.5570 0.0293
5 2 3 -7.4194 0.0395
5 2 4 5.3458 -0.0258
5 2 5 -2.2918 0.0611
5 2 6 0.3123 -0.0754
5 2 7 0.3003 -0.0117
5 2 8 -0.0778 0.0977
5 2 9 -0.3187 -0.0456
5 2 10 0.0996 -0.0683
5 2 11 0.2499 0.0636
5 2 12 0.0701 0.0357
5 2 13 -0.4756 -0.0478
5 2 14 0.3714 -0.0406
5 2 15 0.0649 0.0634
5 2 16 -0.5511 0.0170
5 3 0 3.0752 0.9692
5 3 1 -3.0473 -0.5621
5 3 2 2.9861 0.0469
5 3 3 -3.7846 0.2088
5 3 4 5.1947 -0.1637
5 3 5 -5.2533 0.0454
5 3 6 3.6381 0.0157
5 3 7 -1.6585 -0.0662
5 3 8 -0.0311 0.1059
5 3 9 0.7761 -0.0411
5 3 10 -0.2690 -0.0974
5 3 11 -0.4919 0.1230
5 3 12 0.9569 0.0151
5 3 13 -1.3352 -0.1149
5 3 14 1.3520 0.0359
5 3 15 -0.9319 0.0744
5 3 16 0.3733 -0.0430
5 4 0 0.2347 1.0716
5 4 1 0.2241 -0.6433
5 4 2 -0.6779 0.0653
5 4 3 1.0776 0.2691
5 4 4 -0.7219 -0.2321
5 4 5 -0.5738 0.0271
5 4 6 1.3587 0.1031
5 4 7 -1.1065 -0.1078
5 4 8 0.3345 0.0549
5 4 9 0.7161 0.0177
5 4 10 -1.0357 -0.0869
5 4 11 0.0294 0.0855
5 4 12 0.8208 0.0156
5 4 13 -0.4710 -0.1115
5 4 14 -0.3317 0.0812
5 4 15 0.7773 0.0278
5 4 16 -0.5981 -0.0669
5 5 0 0.1771 0.9767
5 5 1 -0.3156 -0.6433
5 5 2 0.1521 0.0531
5 5 3 0.4589 0.3416
5 5 4 -1.7679 -0.3032
5 5 5 2.6230 0.0202
5 5 6 -2.2281 0.1781
5 5 7 1.5458 -0.1690
5 5 8 -0.9138 0.0419
5 5 9 0.1754 0.0809
5 5 10 0.0493 -0.1275
5 5 11 0.0215 0.0801
5 5 12 0.1602 0.0176
5 5 13 0.1444 -0.0844
5 5 14 -1.1087 0.0751
5 5 15 1.6927 -0.0281
5 6 0 -0.7464 0.5470
5 6 1 0.3148 -0.4069
5 6 2 0.6084 0.0355
5 6 3 -1.2649 0.3055
5 6 4 0.9453 -0.3127
5 6 5 0.4784 0.0208
5 6 6 -1.5051 0.2258
5 6 7 1.3325 -0.1964
5 6 8 -0.9792 -0.0031
5 6 9 0.6243 0.1426
5 6 10 0.0746 -0.1238
5 6 11 -0.4135 0.0029
5 6 12 0.3712 0.1028
5 6 13 -0.5827 -0.1122
5 6 14 0.6426 0.0440
5 6 15 -0.2658 0.0153
5 7 0 -0.8113 0.3185
5 7 1 0.8874 -0.2368
5 7 2 -0.2520 0.0255
5 7 3 -1.2429 0.1963
5 7 4 2.7689 -0.2207
5 7 5 -3.1071 0.0006
5 7 6 1.9668 0.2223
5 7 7 -0.8736 -0.1945
5 7 8 0.6051 -0.0269
5 7 9 -0.1550 0.1765
5 7 10 -0.4929 -0.1217
5 7 11 0.5150 -0.0365
5 7 12 -0.1668 0.1311
5 7 13 -0.2951 -0.0833
5 7 14 0.9070 -0.0530
5 7 15 -1.0680 0.1415
5 8 0 0.2326 0.0397
5 8 1 -0.0743 -0.0772
5 8 2 -0.8007 -0.0009
5 8 3 0.7114 0.1476
5 8 4 0.5826 -0.1964
5 8 5 -2.0171 0.0430
5 8 6 2.4182 0.1630
5 8 7 -1.5236 -0.1720
5 8 8 0.5688 -0.0159
5 8 9 -0.3535 0.1564
5 8 10 0.1504 -0.1082
5 8 11 0.2709 -0.0246
5 8 12 -0.3959 0.0914
5 8 13 0.2762 -0.0558
5 8 14 0.0483 -0.0416
5 9 0 0.3826 -0.1544
5 9 1 -0.7270 0.0800
5 9 2 0.0561 -0.0160
5 9 3 0.7020 0.0343
5 9 4 -0.6777 -0.0788
5 9 5 0.3484 0.0355
5 9 6 0.0294 0.0926
5 9 7 -0.5259 -0.1333
5 9 8 0.5470 -0.0072
5 9 9 -0.0338 0.1544
5 9 10 -0.2356 -0.1097
5 9 11 0.0948 -0.0559
5 9 12 0.1107 0.1327
5 9 13 -0.1759 -0.0630
5 9 14 0.0664 -0.0511
5 10 0 -0.0357 -0.0812
5 10 1 -0.5225 0.0482
5 10 2 0.7127 0.0031
5 10 3 -0.3635 -0.0062
5 10 4 0.1298 -0.0166
5 10 5 -0.0716 0.0079
5 10 6 -0.4053 0.0370
5 10 7 0.6970 -0.0683
5 10 8 -0.0840 0.0254
5 10 9 -0.3355 0.0718
5 10 10 -0.2370 -0.1106
5 10 11 0.7044 0.0510
5 10 12 -0.3046 -0.0002
5 10 13 -0.2720 0.0475
5 11 0 -0.0897 -0.0598
5 11 1 0.2706 0.0050
5 11 2 0.0356 0.0431
5 11 3 -0.1689 -0.0267
5 11 4 -0.1147 -0.0351
5 11 5 0.0678 0.0486
5 11 6 0.3521 -0.0010
5 11 7 -0.2130 -0.0271
5 11 8 -0.2110 0.0121
5 11 9 -0.0333 0.0081
5 11 10 0.3581 -0.0287
5 11 11 0.0139 0.0652
5 12 0 1.0664 0.0910
5 12 1 -0.1142 -0.0783
5 12 2 -0.4398 0.0714
5 12 3 0.0812 -0.0288
5 12 4 0.2696 -0.0271
5 12 5 -0.1756 0.0351
5 12 6 0.4073 0.0352
5 12 7 -1.0603 -0.1064
5 12 8 1.0237 0.0816
5 12 9 -0.2651 -0.0085
5 12 10 -0.0548 -0.0035
5 13 1 -0.8033 -0.1042
5 13 2 -0.0220 0.0461
5 13 3 0.4088 0.0272
5 13 4 0.0319 -0.0834
5 13 5 -0.5091 0.0395
5 13 6 0.3942 0.0798
5 13 7 -0.1017 -0.1705
6 -11 0 -1.5650 0.1905
6 -11 1 0.5643 -0.0226
6 -11 2 0.8478 -0.0373
6 -11 3 -1.4916 -0.0564
6 -11 4 1.4063 0.0849
6 -10 0 -0.0835 0.4540
6 -10 1 0.1394 -0.3862
6 -10 2 0.4599 0.1710
6 -10 3 -0.5840 -0.0387
6 -10 4 -0.1318 0.0154
6 -10 5 0.7362 0.0427
6 -10 6 -0.7825 -0.1145
6 -9 0 1.0298 0.5825
6 -9 1 -1.1610 -0.4295
6 -9 2 0.3609 0.1662
6 -9 3 0.6549 0.0507
6 -9 4 -1.8618 -0.1037
6 -9 5 2.6444 0.0712
6 -9 6 -2.2665 -0.0733
6 -9 7 1.2495 0.0729
6 -9 8 -0.4264 0.0001
6 -8 0 -0.1090 0.7924
6 -8 1 0.0188 -0.5563
6 -8 2 -0.3108 0.1625
6 -8 3 0.7145 0.1106
6 -8 4 -0.9703 -0.1331
6 -8 5 1.2901 0.0233
6 -8 6 -1.3943 0.0327
6 -8 7 1.0249 -0.0039
6 -8 8 -0.5881 -0.0242
6 -8 9 0.3070 0.0199
6 -7 0 -0.1111 0.6659
6 -7 1 0.0899 -0.5078
6 -7 2 0.0509 0.1598
6 -7 3 0.1719 0.1452
6 -7 4 -0.3854 -0.1995
6 -7 5 0.1966 0.0517
6 -7 6 0.2448 0.0625
6 -7 7 -0.6523 -0.0501
6 -7 8 0.6667 0.0237
6 -7 9 -0.2724 -0.0387
6 -7 10 -0.0035 0.0294
6 -6 0 -0.4260 0.4842
6 -6 1 0.0162 -0.3842
6 -6 2 0.3942 0.1181
6 -6 3 -0.2123 0.1246
6 -6 4 -0.4602 -0.1844
6 -6 5 0.5611 0.0571
6 -6 6 0.3213 0.0805
6 -6 7 -1.4875 -0.0728
6 -6 8 1.9827 -0.0026
6 -6 9 -1.4685 0.0012
6 -6 10 0.7480 0.0254
6 -6 11 -0.6675 0.0230
6 -5 0 -0.7478 0.1740
6 -5 1 0.8893 -0.2439
6 -5 2 -0.5493 0.1062
6 -5 3 -0.1152 0.0845
6 -5 4 0.2725 -0.1317
6 -5 5 -0.0667 0.0219
6 -5 6 0.3709 0.0920
6 -5 7 -1.1150 -0.0805
6 -5 8 1.5364 -0.0157
6 -5 9 -1.1877 0.0558
6 -5 10 0.3813 -0.0163
6 -5 11 -0.1465 0.0116
6 -5 12 0.7474 -0.0551
6 -4 0 -0.0785 -0.2522
6 -4 1 0.2791 0.0581
6 -4 2 -0.0999 0.0348
6 -4 3 -0.3267 0.0176
6 -4 4 0.7148 -0.0761
6 -4 5 -0.5529 0.0300
6 -4 6 0.3129 0.0525
6 -4 7 -0.6240 -0.0461
6 -4 8 0.9555 -0.0295
6 -4 9 -0.6704 0.0505
6 -4 10 -0.1332 0.0083
6 -4 11 0.8727 -0.0467
6 -4 12 -0.7323 0.0152
6 -4 13 -0.1556 0.0054
6 -3 0 0.1622 -0.4542
6 -3 1 0.2771 0.2003
6 -3 2 0.2333 0.0408
6 -3 3 -0.6500 -0.1016
6 -3 4 0.6239 0.0353
6 -3 5 -0.4447 0.0122
6 -3 6 0.0357 0.0115
6 -3 7 0.2185 -0.0317
6 -3 8 0.0852 -0.0106
6 -3 9 -0.5084 0.0476
6 -3 10 0.6591 -0.0103
6 -3 11 -0.4251 -0.0341
6 -3 12 -0.2005 0.0093
6 -3 13 0.5733 0.0302
6 -3 14 -0.2656 -0.0137
6 -2 0 -0.0283 -0.6651
6 -2 1 0.8627 0.3569
6 -2 2 -0.9740 0.0345
6 -2 3 -0.0485 -0.2025
6 -2 4 0.7577 0.1065
6 -2 5 -0.7466 0.0423
6 -2 6 0.5925 -0.0819
6 -2 7 -0.3246 0.0307
6 -2 8 0.1408 0.0137
6 -2 9 -0.3254 -0.0141
6 -2 10 0.6243 0.0180
6 -2 11 -0.8571 -0.0380
6 -2 12 0.7503 0.0085
6 -2 13 0.0284 0.0672
6 -2 14 -0.7941 -0.0874
6 -1 0 0.6794 -0.5848
6 -1 1 -0.5467 0.3660
6 -1 2 -0.4401 0.0110
6 -1 3 0.9546 -0.2635
6 -1 4 -0.3557 0.2036
6 -1 5 -0.0881 0.0273
6 -1 6 0.1076 -0.1503
6 -1 7 -0.3687 0.0919
6 -1 8 0.7002 0.0129
6 -1 9 -0.8028 -0.0518
6 -1 10 0.6505 0.0379
6 -1 11 -0.3297 -0.0291
6 -1 12 0.3476 0.0156
6 -1 13 -0.6638 0.0543
6 -1 14 0.4855 -0.1439
6 -1 15 0.0974 0.1502
6 0 0 1.4936 -0.2968
6 0 1 -2.4809 0.1644
6 0 2 2.5565 0.0775
6 0 3 -0.8324 -0.2514
6 0 4 -0.8915 0.2068
6 0 5 1.1012 0.0142
6 0 6 -0.6913 -0.1796
6 0 7 0.4665 0.1283
6 0 8 -0.3420 0.0347
6 0 9 0.2202 -0.1123
6 0 10 0.1912 0.0643
6 0 11 -0.7214 0.0138
6 0 12 0.7463 -0.0442
6 0 13 -0.5434 0.0297
6 0 14 0.5949 -0.0209
6 0 15 -0.5804 0.0418
6 1 0 0.2515 -0.0768
6 1 1 -1.2349 0.0567
6 1 2 2.3735 0.0639
6 1 3 -2.7698 -0.1876
6 1 4 1.4958 0.1512
6 1 5 0.0091 0.0429
6 1 6 -0.2582 -0.2044
6 1 7 -0.0094 0.1634
6 1 8 -0.1771 0.0272
6 1 9 0.7887 -0.1551
6 1 10 -1.1500 0.1123
6 1 11 0.5088 0.0148
6 1 12 0.4423 -0.1023
6 1 13 -0.2751 0.0903
6 1 14 -0.6021 0.0224
6 1 15 0.8294 -0.1436
6 2 0 -0.9541 0.2532
6 2 1 1.5114 -0.1582
6 2 2 -1.8324 0.0709
6 2 3 1.0336 -0.0947
6 2 4 0.2954 0.1201
6 2 5 -0.5343 -0.0085
6 2 6 -0.0275 -0.1486
6 2 7 0.2374 0.1467
6 2 8 -0.1071 0.0264
6 2 9 0.0094 -0.1609
6 2 10 -0.1993 0.1062
6 2 11 0.5164 0.0457
6 2 12 -0.1698 -0.1251
6 2 13 -0.5873 0.1029
6 2 14 0.5449 -0.0356
6 2 15 0.1313 -0.0523
6 3 0 -0.2505 0.3683
6 3 1 0.5914 -0.2805
6 3 2 -1.3667 0.1141
6 3 3 2.5271 -0.0205
6 3 4 -2.8496 0.0284
6 3 5 1.9384 -0.0073
6 3 6 -0.9358 -0.0937
6 3 7 0.4054 0.1287
6 3 8 -0.2346 0.0065
6 3 9 0.2044 -0.1691
6 3 10 0.1915 0.1486
6 3 11 -0.6689 0.0308
6 3 12 0.5459 -0.1416
6 3 13 -0.3850 0.0738
6 3 14 0.7089 0.0362
6 3 15 -0.8940 -0.0424
6 4 0 -0.1635 0.3180
6 4 1 -1.0433 -0.2327
6 4 2 1.8434 0.0672
6 4 3 -1.3209 0.0300
6 4 4 -0.6503 -0.0173
6 4 5 2.3174 -0.0023
6 4 6 -2.3408 -0.0477
6 4 7 1.2746 0.0862
6 4 8 -0.1576 -0.0091
6 4 9 -0.1636 -0.1159
6 4 10 -0.2763 0.1199
6 4 11 0.3330 0.0252
6 4 12 0.0902 -0.1491
6 4 13 -0.0049 0.0983
6 4 14 -0.3186 0.0614
6 4 15 0.1147 -0.1313
6 5 0 -1.8971 0.1840
6 5 1 1.1461 -0.1702
6 5 2 0.0171 0.0396
6 5 3 -1.1134 0.0721
6 5 4 1.3109 -0.0506
6 5 5 -0.3251 -0.0273
6 5 6 -0.7971 0.0189
6 5 7 1.2702 0.0439
6 5 8 -1.1084 -0.0209
6 5 9 0.3624 -0.0703
6 5 10 0.2405 0.0708
6 5 11 -0.0445 0.0483
6 5 12 -0.1433 -0.1313
6 5 13 -0.1717 0.0687
6 5 14 0.2728 0.0606
6 5 15 -0.0525 -0.1084
6 6 0 -2.2401 -0.0931
6 6 1 2.8838 0.0080
6 6 2 -2.8891 0.0078
6 6 3 1.6992 0.0410
6 6 4 0.1214 -0.0486
6 6 5 -1.4378 -0.0186
6 6 6 1.8005 0.0470
6 6 7 -1.5947 0.0225
6 6 8 0.8060 -0.0629
6 6 9 0.2555 -0.0154
6 6 10 -0.3576 0.0814
6 6 11 -0.4078 -0.0110
6 6 12 0.6693 -0.0837
6 6 13 -0.3474 0.0464
6 6 14 0.1095 0.0651
6 6 15 0.0633 -0.0860
6 7 0 -0.5222 -0.2941
6 7 1 1.4335 0.1581
6 7 2 -2.6565 -0.0451
6 7 3 2.7158 0.0056
6 7 4 -1.4173 0.0032
6 7 5 -0.0634 -0.0305
6 7 6 0.7515 0.0440
6 7 7 -1.0181 0.0031
6 7 8 1.4643 -0.0538
6 7 9 -1.3466 0.0212
6 7 10 0.2623 0.0424
6 7 11 0.4550 -0.0162
6 7 12 -0.2328 -0.0631
6 7 13 0.0952 0.0471
6 7 14 -0.3305 0.0608
6 8 0 0.0806 -0.5132
6 8 1 0.3044 0.2783
6 8 2 -0.7072 -0.0415
6 8 3 1.0996 -0.0596
6 8 4 -1.2171 0.0533
6 8 5 1.0058 -0.0349
6 8 6 -0.7165 0.0258
6 8 7 0.5237 0.0133
6 8 8 -0.0553 -0.0578
6 8 9 -0.8961 0.0315
6 8 10 1.3027 0.0457
6 8 11 -0.4249 -0.0643
6 8 12 -0.6307 0.0130
6 8 13 0.7964 -0.0108
6 8 14 -0.4178 0.0962
6 9 0 -0.3856 -0.5835
6 9 1 0.4425 0.3795
6 9 2 0.2242 -0.0651
6 9 3 -0.9794 -0.1237
6 9 4 0.8728 0.1219
6 9 5 0.0862 -0.0413
6 9 6 -0.8661 -0.0038
6 9 7 0.6337 0.0106
6 9 8 0.1638 -0.0255
6 9 9 -0.6374 0.0274
6 9 10 0.6803 0.0249
6 9 11 -0.4215 -0.0766
6 9 12 -0.1366 0.0524
6 9 13 0.5719 0.0005
6 10 0 -0.5093 -0.4502
6 10 1 0.3232 0.3266
6 10 2 0.0044 -0.0823
6 10 3 -0.1618 -0.1060
6 10 4 0.2509 0.1279
6 10 5 -0.0910 -0.0407
6 10 6 -0.6709 -0.0464
6 10 7 1.4963 0.0694
6 10 8 -1.2239 -0.0290
6 10 9 0.0120 -0.0184
6 10 10 0.6712 0.0250
6 10 11 -0.3341 0.0101
6 10 12 -0.1611 -0.0678
6 11 0 1.2042 -0.3378
6 11 1 -1.0956 0.2289
6 11 2 1.0690 -0.0316
6 11 3 -0.3985 -0.1170
6 11 4 -0.5850 0.1199
6 11 5 0.6502 -0.0295
6 11 6 0.1011 -0.0559
6 11 7 -0.1910 0.1169
6 11 8 -0.6120 -0.1375
6 11 9 0.7270 0.0727
6 11 10 0.3480 0.0324
6 11 11 -1.0449 -0.0600
6 12 0 2.2088 -0.1466
6 12 1 -2.4837 0.1910
6 12 2 2.0616 -0.0768
6 12 3 -1.4504 -0.0796
6 12 4 0.6304 0.1263
6 12 5 0.0482 -0.0592
6 12 6 0.1616 -0.0090
6 12 7 -0.9758 0.0389
6 12 8 1.1508 -0.0903
7 -11 0 -2.1107 -0.1401
7 -11 1 1.6791 -0.0074
7 -10 0 -0.5555 -0.2101
7 -10 1 0.9516 0.1337
7 -10 2 -1.0078 0.0128
7 -10 3 0.5194 -0.0778
7 -10 4 -0.1814 0.0702
7 -10 5 0.0354 0.0051
7 -9 0 -0.0920 0.0707
7 -9 1 0.4177 0.0612
7 -9 2 -1.1464 -0.0626
7 -9 3 1.0145 -0.0098
7 -9 4 -0.1223 0.0457
7 -9 5 -0.4286 -0.0106
7 -9 6 0.4875 -0.0821
7 -9 7 -0.2865 0.1462
7 -8 0 -0.3676 0.2238
7 -8 1 0.8965 -0.0862
7 -8 2 -1.4169 -0.0367
7 -8 3 1.4364 0.0317
7 -8 4 -0.3489 0.0306
7 -8 5 -0.8028 -0.0362
7 -8 6 0.8560 -0.0274
7 -8 7 -0.2913 0.0796
7 -8 8 -0.1693 -0.0488
7 -7 0 0.2490 0.0952
7 -7 1 -0.2310 -0.0078
7 -7 2 -0.3416 -0.0882
7 -7 3 1.4291 0.1003
7 -7 4 -1.8544 -0.0324
7 -7 5 0.6459 -0.0307
7 -7 6 0.9515 0.0310
7 -7 7 -1.3784 0.0038
7 -7 8 0.7933 -0.0022
7 -7 9 -0.0068 -0.0381
7 -7 10 -0.4357 0.0355
7 -6 0 -0.1964 0.0013
7 -6 1 -0.4191 0.0420
7 -6 2 0.6814 -0.1128
7 -6 3 -0.4193 0.1211
7 -6 4 -0.5299 -0.0405
7 -6 5 1.0329 -0.0575
7 -6 6 -0.0940 0.0973
7 -6 7 -1.1315 -0.0538
7 -6 8 1.0890 -0.0333
7 -6 9 0.1485 0.0770
7 -6 10 -1.4497 -0.0491
7 -6 11 1.7341 0.0155
7 -5 0 -1.1442 -0.2497
7 -5 1 0.5022 0.1745
7 -5 2 0.0439 -0.1143
7 -5 3 -0.5040 0.0867
7 -5 4 0.8272 -0.0288
7 -5 5 -0.3935 -0.0546
7 -5 6 -0.2582 0.0951
7 -5 7 0.1274 -0.0603
7 -5 8 0.2654 -0.0249
7 -5 9 0.1957 0.0936
7 -5 10 -1.5228 -0.0667
7 -5 11 2.5644 -0.0477
7 -5 12 -2.1390 0.1329
7 -4 0 -0.3419 -0.4875
7 -4 1 0.1625 0.3500
7 -4 2 0.0945 -0.1347
7 -4 3 0.2558 0.0135
7 -4 4 -0.4301 0.0182
7 -4 5 -0.0673 -0.0471
7 -4 6 0.3002 0.0728
7 -4 7 -0.0347 -0.0387
7 -4 8 0.0270 -0.0453
7 -4 9 -0.2841 0.0961
7 -4 10 0.1368 -0.0509
7 -4 11 0.6121 -0.0681
7 -4 12 -1.1902 0.1630
7 -3 0 0.8984 -0.5566
7 -3 1 -0.4338 0.4046
7 -3 2 -0.2676 -0.1340
7 -3 3 0.5779 -0.0388
7 -3 4 -0.7993 0.0599
7 -3 5 0.6383 -0.0469
7 -3 6 0.0104 0.0630
7 -3 7 -0.2316 -0.0444
7 -3 8 -0.1341 -0.0470
7 -3 9 0.2409 0.1220
7 -3 10 0.1547 -0.0718
7 -3 11 -0.4313 -0.0697
7 -3 12 0.0369 0.1529
7 -3 13 0.5785 -0.1000
7 -2 0 0.3573 -0.6104
7 -2 1 -0.6117 0.4510
7 -2 2 -0.3809 -0.1434
7 -2 3 1.2323 -0.0844
7 -2 4 -1.0236 0.1061
7 -2 5 0.7218 -0.0292
7 -2 6 -0.5370 0.0037
7 -2 7 -0.0021 -0.0132
7 -2 8 0.3613 -0.0241
7 -2 9 -0.0073 0.0786
7 -2 10 -0.6185 -0.0523
7 -2 11 0.8254 -0.0588
7 -2 12 -0.5211 0.1254
7 -2 13 0.3235 -0.0437
7 -2 14 -0.4799 -0.1015
7 -1 0 -0.1509 -0.4006
7 -1 1 -0.5605 0.3464
7 -1 2 1.1628 -0.1243
7 -1 3 -0.6081 -0.0992
7 -1 4 -0.2085 0.1532
7 -1 5 0.4981 -0.0465
7 -1 6 -0.8044 -0.0459
7 -1 7 0.8744 0.0340
7 -1 8 -0.1517 -0.0077
7 -1 9 -0.5828 0.0292
7 -1 10 0.4651 -0.0330
7 -1 11 0.1554 -0.0220
7 -1 12 -0.3215 0.0685
7 -1 13 -0.2646 -0.0279
7 -1 14 0.7229 -0.0784
7 0 0 -1.2857 -0.1541
7 0 1 1.0366 0.1799
7 0 2 0.1905 -0.0890
7 0 3 -1.6594 -0.0506
7 0 4 1.6916 0.1058
7 0 5 -0.7712 -0.0330
7 0 6 0.0383 -0.0619
7 0 7 0.5584 0.0561
7 0 8 -0.8684 0.0140
7 0 9 0.4714 -0.0267
7 0 10 0.3124 -0.0106
7 0 11 -0.8499 0.0043
7 0 12 0.7525 0.0353
7 0 13 -0.2553 -0.0402
7 0 14 0.0506 0.0215
7 1 0 -0.8565 0.0705
7 1 1 2.2471 0.0194
7 1 2 -2.9573 -0.0351
7 1 3 1.9212 -0.0391
7 1 4 -0.2692 0.0879
7 1 5 0.0268 -0.0289
7 1 6 -0.6803 -0.0604
7 1 7 0.7460 0.0580
7 1 8 -0.2916 0.0247
7 1 9 0.0124 -0.0589
7 1 10 -0.1382 0.0021
7 1 11 0.3407 0.0309
7 1 12 -0.2181 0.0204
7 1 13 0.1653 -0.0525
7 1 14 -0.5686 0.0174
7 2 0 2.4794 0.3777
7 2 1 -0.6242 -0.1965
7 2 2 -1.5690 0.0154
7 2 3 3.1669 0.0356
7 2 4 -3.1066 0.0114
7 2 5 2.2147 -0.0155
7 2 6 -2.0346 -0.0430
7 2 7 2.0697 0.0483
7 2 8 -1.1562 0.0296
7 2 9 -0.3313 -0.0692
7 2 10 1.0861 -0.0057
7 2 11 -0.3946 0.0865
7 2 12 -0.7902 -0.0366
7 2 13 0.9068 -0.0728
7 2 14 -0.2044 0.0622
7 2 15 -0.0209 0.0388
7 3 0 0.9440 0.4334
7 3 1 -1.8008 -0.2656
7 3 2 2.1762 0.0207
7 3 3 -1.2506 0.1287
7 3 4 -0.4939 -0.1095
7 3 5 1.4373 0.0266
7 3 6 -1.2527 0.0003
7 3 7 0.9330 0.0024
7 3 8 -0.8066 0.0302
7 3 9 0.5691 -0.0520
7 3 10 -0.0715 -0.0040
7 3 11 -0.3582 0.0821
7 3 12 0.0130 -0.0671
7 3 13 0.7778 -0.0431
7 3 14 -0.7284 0.1116
7 3 15 -0.0305 -0.0520
7 4 0 -3.2862 0.4826
7 4 1 2.3017 -0.3037
7 4 2 0.1191 0.0359
7 4 3 -2.3158 0.1461
7 4 4 2.7194 -0.1311
7 4 5 -1.4760 -0.0008
7 4 6 0.1944 0.0774
7 4 7 0.1860 -0.0573
7 4 8 -0.0005 0.0267
7 4 9 0.0006 -0.0106
7 4 10 -0.6525 -0.0307
7 4 11 1.2982 0.0636
7 4 12 -0.9866 -0.0264
7 4 13 0.2871 -0.0393
7 4 14 -0.1121 0.0489
7 4 15 0.1151 -0.0057
7 5 0 -2.8502 0.4051
7 5 1 3.7146 -0.2965
7 5 2 -3.3481 0.0459
7 5 3 1.5938 0.1704
7 5 4 0.5250 -0.1810
7 5 5 -1.8150 0.0112
7 5 6 1.8788 0.1260
7 5 7 -1.1546 -0.0931
7 5 8 0.3394 -0.0063
7 5 9 -0.1285 0.0335
7 5 10 0.4245 -0.0213
7 5 11 -0.2122 0.0291
7 5 12 -0.4672 -0.0050
7 5 13 0.4443 -0.0552
7 5 14 0.1504 0.0404
7 6 0 0.0180 0.1059
7 6 1 0.4822 -0.1098
7 6 2 -1.6273 0.0196
7 6 3 2.4744 0.1195
7 6 4 -2.2877 -0.1572
7 6 5 1.2171 0.0339
7 6 6 0.1961 0.1231
7 6 7 -1.3565 -0.1353
7 6 8 1.4928 0.0032
7 6 9 -0.4125 0.0932
7 6 10 -0.5381 -0.0603
7 6 11 0.1836 -0.0045
7 6 12 0.5562 0.0254
7 6 13 -0.5649 -0.0379
7 6 14 0.2813 0.0347
7 7 0 1.3180 0.0332
7 7 1 -1.5078 -0.0201
7 7 2 1.2588 0.0032
7 7 3 -0.0636 0.0545
7 7 4 -1.3652 -0.0872
7 7 5 2.2275 0.0241
7 7 6 -2.4066 0.0824
7 7 7 1.7866 -0.1131
7 7 8 -0.3588 0.0252
7 7 9 -0.6788 0.0941
7 7 10 0.0170 -0.1204
7 7 11 1.2623 0.0387
7 7 12 -1.0143 0.0532
7 7 13 -0.5174 -0.0803
7 7 14 1.4600 0.0408
7 8 0 0.0848 -0.0674
7 8 1 -0.4868 0.0277
7 8 2 1.2827 0.0102
7 8 3 -1.5306 0.0192
7 8 4 0.6984 -0.0800
7 8 5 0.3979 0.0644
7 8 6 -0.9683 0.0317
7 8 7 1.1787 -0.0806
7 8 8 -1.0738 0.0133
7 8 9 0.2807 0.0820
7 8 10 0.5532 -0.0919
7 8 11 -0.1641 0.0110
7 8 12 -0.8860 0.0830
7 8 13 0.7961 -0.1182
7 9 0 -1.9568 -0.1068
7 9 1 1.2075 0.0899
7 9 2 -0.5530 -0.0079
7 9 3 0.0824 -0.0277
7 9 4 0.3868 -0.0219
7 9 5 -0.5591 0.0579
7 9 6 0.3979 0.0031
7 9 7 -0.2052 -0.0876
7 9 8 -0.0578 0.0634
7 9 9 0.4862 0.0499
7 9 10 -0.6927 -0.0969
7 9 11 0.5019 0.0188
7 9 12 -0.4066 0.0753
7 10 0 -2.3704 -0.0044
7 10 1 1.8391 0.0008
7 10 2 -1.2932 0.0103
7 10 3 1.5099 -0.0161
7 10 4 -1.2394 -0.0141
7 10 5 -0.2247 0.0345
7 10 6 1.3371 0.0073
7 10 7 -0.8508 -0.0695
7 10 8 -0.2421 0.0725
7 10 9 0.5944 -0.0048
7 10 10 -0.4081 -0.0588
7 10 11 0.4083 0.0445
7 11 0 -0.4434 -0.1043
7 11 1 0.6652 0.0276
7 11 2 -0.4812 0.0249
7 11 3 0.3821 -0.0150
7 11 4 -0.6736 -0.0380
7 11 5 0.2210 0.0524
7 11 6 1.4437 0.0348
7 11 7 -2.5592 -0.1348
7 11 8 1.7852 0.1128
7 11 9 -0.3583 -0.0093
7 12 1 -0.7830 0.1313
7 12 2 0.4197 -0.0668
7 12 3 -0.1477 -0.0105
7 12 4 0.1223 0.0245
7 12 5 0.1864 0.0041
7 12 6 -0.2141 0.0308
8 -10 0 1.3066 0.3074
8 -10 1 -0.8038 -0.1526
8 -10 2 -0.2792 0.0267
8 -9 0 0.3604 0.5333
8 -9 1 -0.4252 -0.3527
8 -9 2 0.1120 0.0827
8 -9 3 0.0627 0.0670
8 -9 4 0.4848 -0.1044
8 -9 5 -0.8553 0.0840
8 -8 0 -0.1224 0.5090
8 -8 1 0.0621 -0.3866
8 -8 2 0.3317 0.1088
8 -8 3 -0.2344 0.0878
8 -8 4 0.2367 -0.1089
8 -8 5 -0.7769 0.0506
8 -8 6 0.8227 0.0039
8 -8 7 -0.1828 -0.0340
8 -7 0 0.6346 0.4191
8 -7 1 -0.9688 -0.3546
8 -7 2 1.3679 0.1173
8 -7 3 -1.3056 0.1193
8 -7 4 0.4970 -0.1655
8 -7 5 -0.2505 0.0445
8 -7 6 1.0622 0.0694
8 -7 7 -1.3608 -0.0699
8 -7 8 0.5151 -0.0035
8 -6 0 -0.0208 0.3130
8 -6 1 -0.6812 -0.2750
8 -6 2 0.9451 0.1045
8 -6 3 -1.1234 0.1002
8 -6 4 0.8539 -0.1618
8 -6 5 0.3015 0.0489
8 -6 6 -0.9637 0.0824
8 -6 7 0.2205 -0.0885
8 -6 8 0.5066 -0.0128
8 -6 9 -0.0746 0.0942
8 -6 10 -0.8161 -0.0694
8 -5 0 -0.9703 0.1155
8 -5 1 0.3614 -0.1439
8 -5 2 -0.1557 0.0833
8 -5 3 0.6275 0.0515
8 -5 4 -0.7685 -0.1201
8 -5 5 0.5970 0.0432
8 -5 6 -0.9354 0.0680
8 -5 7 0.9915 -0.0840
8 -5 8 0.1695 0.0288
8 -5 9 -1.4751 0.0139
8 -5 10 1.5596 -0.0316
8 -5 11 -0.6243 0.0473
8 -4 0 0.4750 -0.0539
8 -4 1 -0.0829 -0.0163
8 -4 2 0.0422 0.0492
8 -4 3 -0.0595 0.0030
8 -4 4 -0.4721 -0.0724
8 -4 5 0.6521 0.0435
8 -4 6 -0.0655 0.0495
8 -4 7 -0.3237 -0.0649
8 -4 8 0.4368 -0.0057
8 -4 9 -1.0241 0.0366
8 -4 10 1.8260 -0.0075
8 -4 11 -1.8851 0.0259
8 -3 0 1.0344 -0.1304
8 -3 1 -0.6572 0.0473
8 -3 2 -0.0247 0.0206
8 -3 3 -0.1348 -0.0315
8 -3 4 0.6014 -0.0091
8 -3 5 -0.1149 0.0256
8 -3 6 -0.4240 0.0216
8 -3 7 -0.0771 -0.0514
8 -3 8 0.6481 -0.0035
8 -3 9 -0.3602 0.0654
8 -3 10 -0.1683 -0.0389
8 -3 11 0.2073 -0.0185
8 -3 12 -0.0455 -0.0013
8 -2 0 -0.0090 -0.2043
8 -2 1 -0.1531 0.0913
8 -2 2 0.5506 0.0359
8 -2 3 -0.3414 -0.0962
8 -2 4 0.0982 0.0537
8 -2 5 -0.0666 0.0324
8 -2 6 -0.2704 -0.0530
8 -2 7 0.2711 -0.0024
8 -2 8 0.5028 0.0351
8 -2 9 -0.7465 -0.0069
8 -2 10 -0.3268 -0.0136
8 -2 11 1.5044 -0.0115
8 -2 12 -1.4803 0.0325
8 -2 13 0.6592 -0.0121
8 -1 0 -0.1871 -0.1039
8 -1 1 0.6447 0.0716
8 -1 2 0.0300 0.0191
8 -1 3 -1.1865 -0.1039
8 -1 4 1.0982 0.0883
8 -1 5 -0.3805 0.0240
8 -1 6 0.0391 -0.1022
8 -1 7 0.3306 0.0525
8 -1 8 -0.6692 0.0380
8 -1 9 0.4837 -0.0413
8 -1 10 -0.2696 -0.0109
8 -1 11 0.6095 0.0198
8 -1 12 -1.0559 0.0051
8 -1 13 0.9196 -0.0076
8 0 0 -0.1875 0.0259
8 0 1 0.7090 -0.0273
8 0 2 -1.4115 0.0379
8 0 3 0.8711 -0.0729
8 0 4 0.4873 0.0730
8 0 5 -0.9768 0.0028
8 0 6 0.7345 -0.0845
8 0 7 -0.3572 0.0656
8 0 8 -0.5008 0.0330
8 0 9 1.4669 -0.0701
8 0 10 -1.5810 0.0051
8 0 11 0.9939 0.0381
8 0 12 -0.6339 -0.0037
8 0 13 0.7786 -0.0139
8 1 0 1.6277 0.1542
8 1 1 -0.8406 -0.1049
8 1 2 -0.3249 0.0624
8 1 3 1.5725 -0.0606
8 1 4 -1.5054 0.0538
8 1 5 0.3885 0.0103
8 1 6 0.2555 -0.0855
8 1 7 -0.3549 0.0774
8 1 8 0.3316 0.0197
8 1 9 0.2222 -0.0952
8 1 10 -1.2758 0.0569
8 1 11 1.9397 0.0329
8 1 12 -1.6121 -0.0486
8 1 13 0.6805 0.0073
8 1 14 -0.0333 -0.0104
8 2 0 1.0098 0.2734
8 2 1 -1.3248 -0.1769
8 2 2 1.2180 0.0416
8 2 3 -0.5090 0.0152
8 2 4 -0.3994 0.0072
8 2 5 0.4690 -0.0050
8 2 6 -0.0271 -0.0524
8 2 7 0.0973 0.0703
8 2 8 -0.4289 0.0026
8 2 9 0.4580 -0.0819
8 2 10 -0.4719 0.0684
8 2 11 0.7896 0.0249
8 2 12 -1.0578 -0.0901
8 2 13 0.6326 0.0561
8 2 14 0.3424 0.0155
8 3 0 -2.8263 0.2237
8 3 1 1.6339 -0.1889
8 3 2 0.1397 0.0805
8 3 3 -1.3738 0.0164
8 3 4 1.4321 -0.0209
8 3 5 -0.8085 -0.0207
8 3 6 0.4529 0.0039
8 3 7 -0.3316 0.0433
8 3 8 -0.1157 -0.0145
8 3 9 0.8254 -0.0637
8 3 10 -1.3177 0.0730
8 3 11 1.2040 -0.0031
8 3 12 -0.6179 -0.0525
8 3 13 0.1825 0.0330
8 3 14 -0.0122 0.0425
8 4 0 -1.3842 0.2192
8 4 1 2.2242 -0.1590
8 4 2 -1.8344 0.0580
8 4 3 0.5408 0.0181
8 4 4 0.4646 -0.0320
8 4 5 -0.5398 -0.0017
8 4 6 0.0801 0.0048
8 4 7 0.1299 0.0473
8 4 8 0.1872 -0.0493
8 4 9 -0.5937 -0.0410
8 4 10 0.3104 0.0807
8 4 11 0.7449 0.0087
8 4 12 -1.3960 -0.0845
8 4 13 0.9394 0.0294
8 4 14 -0.3188 0.0718
8 5 0 1.8871 0.0739
8 5 1 -1.1299 -0.0970
8 5 2 -0.6164 0.0186
8 5 3 1.7760 0.0627
8 5 4 -1.6405 -0.0631
8 5 5 0.8470 0.0115
8 5 6 -0.0970 0.0160
8 5 7 -0.3181 0.0171
8 5 8 0.3670 -0.0500
8 5 9 -0.4370 -0.0059
8 5 10 0.8634 0.0796
8 5 11 -0.9608 -0.0141
8 5 12 0.0129 -0.1202
8 5 13 1.0545 0.0896
8 5 14 -1.0708 0.0956
8 6 0 1.9982 -0.0856
8 6 1 -2.3562 0.0215
8 6 2 1.8414 0.0177
8 6 3 -0.5671 0.0092
8 6 4 -0.3812 -0.0232
8 6 5 0.6505 -0.0140
8 6 6 -0.5165 0.0399
8 6 7 -0.0935 -0.0185
8 6 8 0.8369 -0.0151
8 6 9 -0.6356 0.0090
8 6 10 -0.4733 0.0408
8 6 11 0.9706 -0.0505
8 6 12 -0.4112 -0.0275
8 6 13 0.0168 0.0641
8 7 0 1.0319 -0.1191
8 7 1 -1.2745 0.0805
8 7 2 1.5703 -0.0308
8 7 3 -1.8746 0.0035
8 7 4 1.8161 -0.0028
8 7 5 -1.3627 -0.0221
8 7 6 0.5029 0.0480
8 7 7 0.2935 -0.0117
8 7 8 0.0463 -0.0410
8 7 9 -1.2694 0.0273
8 7 10 1.3666 0.0298
8 7 11 0.2775 -0.0507
8 7 12 -1.5359 0.0108
8 7 13 0.9255 0.0324
8 8 0 0.2045 -0.3250
8 8 1 -1.0520 0.1791
8 8 2 0.9046 -0.0291
8 8 3 -0.6899 -0.0430
8 8 4 1.0370 0.0302
8 8 5 -1.5608 -0.0063
8 8 6 1.8030 0.0252
8 8 7 -1.3958 -0.0222
8 8 8 0.4756 -0.0451
8 8 9 -0.0965 0.0636
8 8 10 0.6784 0.0383
8 8 11 -0.9178 -0.1267
8 8 12 -0.0688 0.0735
8 9 0 0.1726 -0.2853
8 9 1 -1.0656 0.2158
8 9 2 1.1408 -0.0344
8 9 3 -0.3376 -0.1045
8 9 4 0.0322 0.1017
8 9 5 -0.5611 -0.0133
8 9 6 0.9542 -0.0383
8 9 7 -0.7933 0.0230
8 9 8 0.2505 -0.0193
8 9 9 0.5604 0.0474
8 9 10 -1.1025 -0.0116
8 9 11 0.7739 -0.0952
8 10 0 -0.1530 -0.1576
8 10 1 0.1601 0.1112
8 10 2 0.2838 -0.0317
8 10 3 -0.6222 -0.0550
8 10 4 0.3313 0.0683
8 10 5 -0.0897 0.0001
8 10 6 0.1009 -0.0587
8 10 7 0.3146 0.0532
8 10 8 -0.9452 -0.0235
8 10 9 0.9371 0.0200
8 11 0 -0.2668 -0.1897
8 11 1 0.7337 0.1195
8 11 2 -0.7336 -0.0068
8 11 3 -0.1751 -0.0719
8 11 4 0.7477 0.0725
8 11 5 -0.1248 0.0006
8 11 6 -0.4341 -0.0538
8 11 7 0.1444 0.0155
9 -9 0 -1.4860 -0.0715
9 -9 1 0.8269 0.0981
9 -9 2 0.0206 -0.0945
9 -8 0 -1.0435 -0.0157
9 -8 1 0.7154 0.0079
9 -8 2 -0.0560 -0.0215
9 -8 3 -0.2119 0.0201
9 -8 4 -0.0998 0.0481
9 -8 5 -0.1343 -0.0880
9 -7 0 0.4019 -0.0710
9 -7 1 -0.6510 0.0220
9 -7 2 0.3572 -0.0030
9 -7 3 -0.2463 0.0348
9 -7 4 0.0750 -0.0244
9 -7 5 0.1553 -0.0396
9 -7 6 0.5094 0.0293
9 -7 7 -1.4956 0.0817
9 -6 0 0.6986 -0.1571
9 -6 1 -0.7356 0.1355
9 -6 2 0.3813 -0.0713
9 -6 3 0.2582 0.0205
9 -6 4 -0.4759 0.0114
9 -6 5 0.6500 -0.0413
9 -6 6 -0.9986 0.0326
9 -6 7 0.5164 0.0292
9 -6 8 0.5786 -0.0585
9 -5 0 0.3600 -0.2424
9 -5 1 0.3844 0.1812
9 -5 2 0.2013 -0.0806
9 -5 3 -0.8627 -0.0038
9 -5 4 0.6767 0.0297
9 -5 5 -0.4946 -0.0259
9 -5 6 0.3875 0.0220
9 -5 7 0.1951 -0.0123
9 -5 8 -0.5265 0.0240
9 -5 9 0.0435 -0.0832
9 -4 0 0.4524 -0.3160
9 -4 1 0.6774 0.2457
9 -4 2 -0.4214 -0.1091
9 -4 3 -1.3494 -0.0289
9 -4 4 2.3505 0.0739
9 -4 5 -1.4361 -0.0252
9 -4 6 0.2844 -0.0180
9 -4 7 0.1981 0.0170
9 -4 8 -0.8361 -0.0136
9 -4 9 1.5133 0.0019
9 -4 10 -1.3209 0.0485
9 -3 0 0.0210 -0.3360
9 -3 1 -0.0476 0.2673
9 -3 2 0.3067 -0.1220
9 -3 3 -0.6391 -0.0336
9 -3 4 1.3527 0.1095
9 -3 5 -1.4888 -0.0653
9 -3 6 0.3721 -0.0168
9 -3 7 0.5891 0.0389
9 -3 8 -0.5348 -0.0236
9 -3 9 0.4986 0.0285
9 -3 10 -0.9520 -0.0109
9 -3 11 1.0506 -0.0745
9 -2 0 -0.2588 -0.3392
9 -2 1 0.0511 0.2694
9 -2 2 0.8033 -0.0947
9 -2 3 -1.1549 -0.0658
9 -2 4 0.4944 0.1045
9 -2 5 -0.2604 -0.0326
9 -2 6 0.5854 -0.0390
9 -2 7 -0.2357 0.0331
9 -2 8 -0.4074 0.0049
9 -2 9 0.3352 -0.0021
9 -2 10 -0.0339 -0.0102
9 -2 11 0.2189 -0.0401
9 -2 12 -0.4755 0.1175
9 -1 0 -0.2149 -0.1972
9 -1 1 0.0741 0.1865
9 -1 2 -0.3316 -0.0835
9 -1 3 0.1183 -0.0547
9 -1 4 0.0447 0.1114
9 -1 5 0.5667 -0.0474
9 -1 6 -0.8809 -0.0392
9 -1 7 0.5126 0.0421
9 -1 8 -0.4442 0.0051
9 -1 9 0.5380 -0.0007
9 -1 10 -0.0681 -0.0350
9 -1 11 -0.3873 -0.0019
9 -1 12 0.0718 0.0865
9 0 0 -0.0484 -0.1007
9 0 1 -0.8658 0.0910
9 0 2 1.0123 -0.0411
9 0 3 0.1952 -0.0215
9 0 4 -0.9134 0.0557
9 0 5 0.8094 -0.0325
9 0 6 -0.8690 -0.0255
9 0 7 0.6460 0.0509
9 0 8 0.2145 -0.0142
9 0 9 -0.7107 -0.0231
9 0 10 0.4544 0.0062
9 0 11 -0.0815 0.0030
9 0 12 -0.1547 0.0572
9 1 0 -0.2436 0.0306
9 1 1 -0.1497 0.0255
9 1 2 1.2106 -0.0269
9 1 3 -1.3247 -0.0154
9 1 4 0.1064 0.0413
9 1 5 0.7049 -0.0128
9 1 6 -0.6433 -0.0363
9 1 7 0.5254 0.0472
9 1 8 -0.2166 -0.0093
9 1 9 -0.3415 -0.0354
9 1 10 0.3275 0.0354
9 1 11 0.2796 0.0089
9 1 12 -0.5293 -0.0296
9 1 13 0.1395 -0.0031
9 2 0 -1.9733 0.1444
9 2 1 1.9927 -0.0865
9 2 2 -1.2962 0.0090
9 2 3 -0.0597 0.0296
9 2 4 1.0051 0.0019
9 2 5 -0.9939 -0.0356
9 2 6 0.5965 0.0041
9 2 7 0.0767 0.0364
9 2 8 -1.0904 -0.0116
9 2 9 1.6613 -0.0339
9 2 10 -1.3039 0.0266
9 2 11 0.5488 0.0173
9 2 12 0.0630 -0.0399
9 2 13 -0.4456 0.0240
9 3 0 -0.9439 0.1182
9 3 1 1.4748 -0.0820
9 3 2 -1.4419 0.0328
9 3 3 0.8607 0.0340
9 3 4 0.0763 -0.0644
9 3 5 -0.9320 0.0177
9 3 6 1.2683 0.0252
9 3 7 -0.9183 0.0033
9 3 8 -0.0908 -0.0207
9 3 9 1.2609 -0.0272
9 3 10 -1.7614 0.0423
9 3 11 1.2944 0.0191
9 3 12 -0.3326 -0.0514
9 3 13 -0.3577 0.0076
9 4 0 2.0699 0.1630
9 4 1 -1.5631 -0.0933
9 4 2 0.1786 -0.0026
9 4 3 0.8656 0.0543
9 4 4 -1.2638 -0.0568
9 4 5 1.2313 0.0236
9 4 6 -0.7801 0.0317
9 4 7 0.1411 -0.0460
9 4 8 0.2316 0.0050
9 4 9 -0.3182 0.0045
9 4 10 0.4064 0.0173
9 4 11 -0.4032 0.0337
9 4 12 0.1578 -0.1203
9 4 13 -0.0075 0.1014
9 5 0 1.9619 0.0716
9 5 1 -2.2085 -0.0995
9 5 2 1.3702 0.0435
9 5 3 -0.0736 0.0603
9 5 4 -0.7483 -0.0840
9 5 5 1.2427 0.0174
9 5 6 -1.5657 0.0528
9 5 7 1.2236 -0.0741
9 5 8 -0.3668 0.0328
9 5 9 -0.2807 0.0277
9 5 10 0.7991 -0.0247
9 5 11 -1.4789 -0.0146
9 5 12 1.6095 -0.0048
9 6 0 0.8345 -0.0127
9 6 1 -0.4594 0.0006
9 6 2 0.5474 0.0298
9 6 3 -1.0651 0.0096
9 6 4 1.2120 -0.0794
9 6 5 -0.5336 0.0483
9 6 6 -0.9113 0.0484
9 6 7 1.9754 -0.0725
9 6 8 -1.3412 0.0094
9 6 9 -0.3048 0.0613
9 6 10 1.1549 -0.0693
9 6 11 -1.0413 -0.0109
9 6 12 0.9360 0.1048
9 7 0 0.1910 -0.0351
9 7 1 -0.0835 0.0231
9 7 2 -0.5170 -0.0154
9 7 3 0.3289 0.0087
9 7 4 0.5171 -0.0356
9 7 5 -0.9027 0.0428
9 7 6 0.1966 0.0307
9 7 7 1.3573 -0.0763
9 7 8 -2.3021 -0.0044
9 7 9 1.1933 0.1025
9 7 10 0.9791 -0.0983
9 7 11 -1.8011 0.0264
9 8 0 0.7828 -0.0759
9 8 1 -0.9548 0.0377
9 8 2 0.5971 0.0076
9 8 3 0.2742 -0.0136
9 8 4 -0.4385 -0.0103
9 8 5 -0.3609 0.0368
9 8 6 1.1596 -0.0107
9 8 7 -0.9348 -0.0626
9 8 8 -0.6049 0.0648
9 8 9 2.1918 0.0227
9 8 10 -1.9812 -0.0504
9 9 0 1.3196 0.0785
9 9 1 -0.7832 -0.0043
9 9 2 0.9493 -0.0360
9 9 3 -1.0535 0.0205
9 9 4 0.4814 -0.0041
9 9 5 0.0121 0.0139
9 9 6 0.0737 -0.0265
9 9 7 -0.3616 0.0010
9 9 8 0.3667 0.0451
9 9 9 0.2073 -0.0361
9 10 0 -0.1474 0.0849
9 10 1 0.3081 -0.0584
9 10 2 0.0137 -0.0346
9 10 3 -0.7281 0.0696
9 10 4 0.6025 -0.0251
9 10 5 0.6086 -0.0122
9 10 6 -1.4501 0.0016
9 10 7 1.2080 0.0262
10 -8 0 -0.5177 0.3201
10 -7 0 0.4854 0.2660
10 -7 1 0.1382 -0.1820
10 -7 2 -0.3715 0.0519
10 -7 3 0.3056 0.0622
10 -7 4 -0.0533 -0.0969
10 -6 0 0.2002 0.1821
10 -6 1 0.6623 -0.1156
10 -6 2 -0.0617 0.0215
10 -6 3 -0.6880 0.0418
10 -6 4 0.8781 -0.0661
10 -6 5 -0.8014 0.0246
10 -6 6 0.3065 0.0815
10 -5 0 -1.5225 0.0848
10 -5 1 2.0873 -0.0888
10 -5 2 -1.3854 0.0377
10 -5 3 -0.4201 0.0214
10 -5 4 1.4169 -0.0686
10 -5 5 -1.0885 0.0650
10 -5 6 0.5013 0.0325
10 -5 7 0.1225 -0.1432
10 -5 8 -0.7551 0.1216
10 -4 0 -1.5376 0.0196
10 -4 1 0.9590 -0.0422
10 -4 2 -1.1092 0.0238
10 -4 3 1.0197 0.0091
10 -4 4 -0.1913 -0.0227
10 -4 5 0.0583 0.0206
10 -4 6 -0.9935 0.0043
10 -4 7 1.4626 -0.0463
10 -4 8 -1.0065 0.0347
10 -4 9 0.4833 0.0483
10 -3 0 -0.7038 -0.0321
10 -3 1 -0.6143 -0.0013
10 -3 2 1.1130 0.0285
10 -3 3 -0.4537 -0.0043
10 -3 4 -0.1490 -0.0305
10 -3 5 -0.2135 0.0209
10 -3 6 0.2791 0.0119
10 -3 7 0.6077 -0.0187
10 -3 8 -0.9396 -0.0052
10 -3 9 0.0998 0.0284
10 -3 10 0.6163 -0.0077
10 -2 0 -1.1758 -0.0234
10 -2 1 0.6297 0.0096
10 -2 2 -0.1238 0.0387
10 -2 3 -0.6499 -0.0558
10 -2 4 0.9990 0.0059
10 -2 5 -0.7048 0.0478
10 -2 6 0.5683 -0.0325
10 -2 7 -0.3756 -0.0221
10 -2 8 -0.3185 0.0386
10 -2 9 0.6229 -0.0167
10 -2 10 -0.0680 0.0208
10 -1 0 -0.7831 0.0440
10 -1 1 0.4363 -0.0355
10 -1 2 -0.4458 0.0282
10 -1 3 0.5451 -0.0262
10 -1 4 0.2414 0.0232
10 -1 5 -0.7690 0.0004
10 -1 6 0.1855 -0.0345
10 -1 7 0.0316 0.0329
10 -1 8 0.7701 0.0111
10 -1 9 -1.3173 -0.0420
10 -1 10 1.0396 0.0366
10 -1 11 -0.5267 -0.0395
10 0 0 0.6307 0.0568
10 0 1 -1.1542 -0.0457
10 0 2 1.6253 0.0344
10 0 3 -1.0090 -0.0121
10 0 4 -0.1120 -0.0087
10 0 5 0.1503 0.0114
10 0 6 0.2719 -0.0102
10 0 7 -0.1764 0.0175
10 0 8 0.4869 -0.0072
10 0 9 -1.4405 -0.0267
10 0 10 1.6295 0.0296
10 0 11 -0.7248 0.0140
10 1 0 0.4545 0.1460
10 1 1 -0.2207 -0.1046
10 1 2 0.1572 0.0524
10 1 3 -0.5663 -0.0210
10 1 4 0.3108 0.0119
10 1 5 0.5496 0.0019
10 1 6 -0.7428 -0.0184
10 1 7 0.5829 0.0071
10 1 8 -0.8700 0.0238
10 1 9 0.8819 -0.0293
10 1 10 -0.1709 -0.0127
10 1 11 -0.3892 0.0816
10 2 0 0.2393 0.1336
10 2 1 0.2390 -0.1140
10 2 2 -0.7262 0.0514
10 2 3 0.5174 0.0272
10 2 4 0.2615 -0.0533
10 2 5 -0.4634 0.0183
10 2 6 -0.1447 -0.0034
10 2 7 0.7181 0.0271
10 2 8 -1.0791 -0.0129
10 2 9 1.3151 -0.0369
10 2 10 -0.9431 0.0303
10 2 11 0.0752 0.0383
10 2 12 0.4013 -0.0784
10 3 0 0.9172 0.1022
10 3 1 -1.2412 -0.0630
10 3 2 0.8391 0.0296
10 3 3 -0.2373 -0.0079
10 3 4 -0.2990 -0.0203
10 3 5 0.6272 0.0227
10 3 6 -0.7008 0.0115
10 3 7 0.5560 -0.0132
10 3 8 -0.3089 -0.0180
10 3 9 0.2116 -0.0088
10 3 10 -0.3007 0.0669
10 3 11 0.3699 -0.0380
10 3 12 -0.4085 -0.0483
10 4 0 0.5532 0.0915
10 4 1 -1.0571 -0.0774
10 4 2 0.9901 0.0367
10 4 3 -0.2555 -0.0121
10 4 4 -0.5865 0.0215
10 4 5 1.3107 -0.0140
10 4 6 -1.4859 -0.0106
10 4 7 0.7376 0.0141
10 4 8 0.3002 -0.0197
10 4 9 -0.6832 0.0248
10 4 10 0.3835 0.0205
10 4 11 0.0284 -0.0556
10 5 0 0.2644 -0.0471
10 5 1 0.2103 0.0007
10 5 2 0.2747 0.0431
10 5 3 -0.8228 -0.0064
10 5 4 0.9833 -0.0491
10 5 5 -0.9593 0.0342
10 5 6 0.6648 -0.0050
10 5 7 -0.3957 0.0170
10 5 8 0.6088 -0.0245
10 5 9 -0.7661 0.0032
10 5 10 0.2674 0.0368
10 5 11 0.3086 -0.0868
10 6 0 -0.3489 -0.0444
10 6 1 0.0848 0.0303
10 6 2 -0.0145 0.0081
10 6 3 -0.4306 -0.0338
10 6 4 0.9353 -0.0158
10 6 5 -1.2363 0.0517
10 6 6 1.1727 0.0077
10 6 7 -0.4535 -0.0526
10 6 8 -0.2763 0.0168
10 6 9 0.1334 -0.0049
10 6 10 0.2714 0.0577
10 7 0 -1.2688 -0.0766
10 7 1 -0.0948 0.0084
10 7 2 0.4215 0.0104
10 7 3 0.4776 -0.0035
10 7 4 -1.0033 -0.0055
10 7 5 0.4701 0.0336
10 7 6 0.4181 -0.0175
10 7 7 -0.4881 -0.0633
10 7 8 -0.6127 0.0879
10 7 9 1.4912 -0.0370
10 7 10 -0.8948 0.0341
10 8 0 -0.2940 -0.1289
10 8 1 0.1746 0.0654
10 8 2 0.4104 0.0072
10 8 3 -0.3094 -0.0234
10 8 4 -0.3424 0.0102
10 8 5 0.3083 -0.0125
10 8 6 0.5279 0.0312
10 8 7 -1.1749 -0.0929
10 8 8 0.7979 0.1720
10 9 1 0.0313 0.0517
10 9 2 0.0167 -0.0379
10 9 3 -0.4330 -0.0264
10 9 4 0.5391 0.0706
10 9 5 -0.1224 -0.0720
10 9 6 -0.1479 0.0642
11 -6 0 -2.0413 -0.1638
11 -6 1 1.9758 0.0951
11 -6 2 -1.3107 0.0013
11 -5 0 -2.0160 -0.1618
11 -5 1 2.0017 0.0982
11 -5 2 -2.2956 -0.0233
11 -5 3 1.9263 -0.0263
11 -5 4 -0.9212 0.0446
11 -5 5 0.4590 -0.0257
11 -4 0 0.8189 -0.1712
11 -4 1 -0.7778 0.1077
11 -4 2 -0.0603 -0.0314
11 -4 3 1.2373 -0.0020
11 -4 4 -1.5402 0.0334
11 -4 5 1.0182 -0.0670
11 -4 6 -0.8296 0.0330
11 -3 0 0.7752 -0.2071
11 -3 1 -1.0077 0.1564
11 -3 2 0.8134 -0.0389
11 -3 3 -0.4968 -0.0315
11 -3 4 -0.0631 0.0235
11 -3 5 0.4807 -0.0082
11 -3 6 -0.4722 0.0119
11 -3 7 0.5606 0.0131
11 -2 0 -1.7594 -0.1226
11 -2 1 1.2398 0.1035
11 -2 2 -0.7885 -0.0383
11 -2 3 0.4034 -0.0422
11 -2 4 0.0579 0.0697
11 -2 5 0.1509 -0.0184
11 -2 6 -0.8047 -0.0404
11 -2 7 0.7969 0.0280
11 -2 8 -0.2941 0.0308
11 -1 0 -1.3806 -0.0786
11 -1 1 0.9662 0.0650
11 -1 2 -0.2244 -0.0427
11 -1 3 0.1630 0.0080
11 -1 4 -0.4164 0.0357
11 -1 5 0.1430 -0.0463
11 -1 6 -0.0039 -0.0065
11 -1 7 0.2441 0.0579
11 -1 8 0.0924 -0.0194
11 -1 9 -0.8253 -0.0671
11 0 0 -0.6186 -0.0473
11 0 1 0.4783 0.0518
11 0 2 -0.0280 -0.0259
11 0 3 -0.5899 -0.0136
11 0 4 0.3088 0.0332
11 0 5 0.2523 -0.0212
11 0 6 0.0245 -0.0007
11 0 7 -0.1715 0.0136
11 0 8 -0.5811 -0.0103
11 0 9 1.0226 -0.0073
11 1 0 -0.6279 0.0384
11 1 1 1.4145 -0.0093
11 1 2 -1.0386 -0.0104
11 1 3 -0.3882 0.0026
11 1 4 1.5142 0.0195
11 1 5 -0.9623 -0.0137
11 1 6 -0.2640 -0.0285
11 1 7 0.5573 0.0487
11 1 8 -0.4981 -0.0208
11 1 9 0.8707 0.0049
11 1 10 -0.8552 -0.0424
11 2 0 0.9352 0.0413
11 2 1 0.0409 -0.0076
11 2 2 -0.2877 -0.0187
11 2 3 -0.6233 0.0238
11 2 4 1.6047 -0.0162
11 2 5 -1.3412 -0.0104
11 2 6 -0.1882 0.0316
11 2 7 1.2204 -0.0089
11 2 8 -0.5594 -0.0207
11 2 9 -0.5988 0.0097
11 2 10 0.8293 -0.0024
11 3 0 1.8158 0.0355
11 3 1 -1.4284 -0.0167
11 3 2 0.1742 0.0037
11 3 3 0.8896 -0.0115
11 3 4 -1.1471 0.0154
11 3 5 1.1456 0.0018
11 3 6 -1.2919 0.0077
11 3 7 1.2008 -0.0470
11 3 8 -0.3739 0.0433
11 3 9 -0.7954 0.0004
11 3 10 1.2158 -0.0166
11 4 0 2.3365 -0.0128
11 4 1 -0.8298 0.0121
11 4 2 -0.3221 0.0036
11 4 3 1.4198 0.0110
11 4 4 -1.8177 -0.0367
11 4 5 1.1837 0.0470
11 4 6 -0.3739 -0.0492
11 4 7 -0.1018 0.0193
11 4 8 0.4968 0.0341
11 4 9 -0.8047 -0.0320
11 5 0 2.4906 0.0223
11 5 1 -1.3706 0.0203
11 5 2 0.3322 -0.0164
11 5 3 -0.3139 -0.0144
11 5 4 0.7916 -0.0013
11 5 5 -1.4046 0.0160
11 5 6 1.7202 0.0194
11 5 7 -1.1602 -0.0504
11 5 8 0.2630 0.0631
11 5 9 0.0474 -0.0820
11 6 0 0.2747 0.0580
11 6 1 -1.3949 -0.0181
11 6 2 1.0902 -0.0274
11 6 3 -0.4015 -0.0052
11 6 4 0.4660 0.0573
11 6 5 -0.8737 -0.0194
11 6 6 1.0092 -0.0380
11 6 7 -0.5917 0.0284
11 6 8 -0.2589 -0.0050
11 7 0 -0.7643 -0.0781
11 7 1 0.2639 0.0670
11 7 2 0.2920 -0.0395
11 7 3 -0.0543 0.0155
11 7 4 -0.3899 0.0263
11 7 5 0.3324 -0.0179
11 7 6 -0.0713 -0.0880
11 7 7 -0.0523 0.1590
12 -3 0 -1.1629 -0.0182
12 -3 1 -0.2767 0.0445
12 -3 2 0.7809 -0.0170
12 -3 3 -0.4335 -0.0278
12 -3 4 -0.0584 0.0079
12 -2 0 -1.1282 0.0890
12 -2 1 -0.4675 -0.0576
12 -2 2 1.5003 0.0052
12 -2 3 -0.7201 0.0045
12 -2 4 -0.7091 0.0142
12 -2 5 1.0726 0.0032
12 -1 0 0.4998 0.0397
12 -1 1 -1.3368 -0.0357
12 -1 2 1.4738 0.0106
12 -1 3 -0.6839 0.0120
12 -1 4 -1.0502 -0.0094
12 -1 5 2.0340 -0.0175
12 -1 6 -1.1787 0.0400
12 0 0 -0.3321 0.0572
12 0 1 -0.3940 -0.0401
12 0 2 0.4969 0.0221
12 0 3 0.0065 -0.0093
12 0 4 -0.8331 -0.0029
12 0 5 1.7830 0.0089
12 0 6 -1.7868 0.0155
12 0 7 0.6116 -0.0646
12 1 0 -0.5621 0.0982
12 1 1 0.6904 -0.0678
12 1 2 0.0914 0.0193
12 1 3 -0.6459 0.0163
12 1 4 0.5161 -0.0274
12 1 5 0.1890 0.0112
12 1 6 -1.0722 0.0130
12 1 7 1.0551 -0.0329
12 2 0 0.6093 0.0534
12 2 1 -0.8051 -0.0483
12 2 2 0.5532 0.0183
12 2 3 -0.5071 0.0053
12 2 4 0.7013 -0.0148
12 2 5 -0.7275 0.0084
12 2 6 0.2792 0.0249
12 2 7 0.3726 -0.0548
12 3 0 0.5287 0.0340
12 3 1 -0.8869 -0.0403
12 3 2 0.6591 0.0328
12 3 3 0.3804 -0.0029
12 3 4 -0.7316 -0.0242
12 3 5 -0.2025 0.0474
12 3 6 1.2683 -0.0668
12 3 7 -1.3314 0.0489
12 4 0 1.1318 0.0840
12 4 1 -0.3416 -0.0394
12 4 2 0.5229 0.0050
12 4 3 -1.0769 -0.0026
12 4 4 1.1227 0.0081
12 4 5 -1.1864 -0.0227
12 4 6 1.5095 0.0235
12 5 1 -0.9077 -0.0877
12 5 2 0.7635 0.0054
12 5 3 -1.5597 -0.0115
12 5 4 2.4945 0.0958
12 5 5 -2.2006 -0.1483
0 0 0 0.0 0.0
;
_shelx_fab_checksum              18262
_olex2_submission_special_instructions 'No special instructions were received'
loop_
_space_group_symop_operation_xyz
'x, y, z'
'-x, -y, -z'
loop_
_atom_site_label
_atom_site_type_symbol
_atom_site_fract_x
_atom_site_fract_y
_atom_site_fract_z
_atom_site_U_iso_or_equiv
_atom_site_adp_type
_atom_site_occupancy
_atom_site_site_symmetry_order
_atom_site_calc_flag
_atom_site_refinement_flags_posn
_atom_site_refinement_flags_adp
_atom_site_refinement_flags_occupancy
_atom_site_disorder_assembly
_atom_site_disorder_group
Cr1 Cr 0.27593(5) 0.53979(4) 0.82881(4) 0.03585(15) Uani 1 1 d . . . . .
Cl1 Cl 0.08669(9) 0.41443(8) 0.82708(7) 0.0438(2) Uani 1 1 d . . . . .
Cl2 Cl 0.24932(9) 0.49940(9) 1.01672(7) 0.0488(2) Uani 1 1 d . . . . .
Cl3 Cl 0.46810(9) 0.66538(8) 0.82184(8) 0.0480(2) Uani 1 1 d . . . . .
N1 N 0.3003(3) 0.5794(3) 0.6590(2) 0.0452(7) Uani 1 1 d . . . . .
N2 N 0.4105(4) 0.6373(4) 0.5962(3) 0.0742(11) Uani 1 1 d . . . . .
H2 H 0.482923 0.661104 0.620521 0.089 Uiso 1 1 calc R . . . .
N3 N 0.4111(3) 0.3804(3) 0.8309(2) 0.0414(6) Uani 1 1 d . . . . .
N4 N 0.5267(3) 0.3639(3) 0.8836(2) 0.0456(7) Uani 1 1 d . . . . .
H4 H 0.560456 0.423741 0.908906 0.055 Uiso 1 1 calc R . . . .
N5 N 0.1367(3) 0.6965(3) 0.8308(2) 0.0428(7) Uani 1 1 d . . . . .
N6 N 0.0022(3) 0.6859(3) 0.8768(3) 0.0502(8) Uani 1 1 d . . . . .
H6 H -0.039494 0.614195 0.898223 0.060 Uiso 1 1 calc R . . . .
C1 C 0.2161(4) 0.5586(4) 0.5894(3) 0.0585(10) Uani 1 1 d . . . . .
H1 H 0.130627 0.517514 0.609819 0.070 Uiso 1 1 calc R . . . .
C2 C 0.2684(4) 0.6036(5) 0.4852(3) 0.0626(11) Uani 1 1 d . . . . .
C3 C 0.3943(5) 0.6535(6) 0.4921(4) 0.0896(18) Uani 1 1 d . . . . .
H3 H 0.457391 0.691981 0.434043 0.108 Uiso 1 1 calc R . . . .
C4 C 0.3971(4) 0.2668(3) 0.8047(3) 0.0465(8) Uani 1 1 d . . . . .
H4A H 0.325512 0.248411 0.766983 0.056 Uiso 1 1 calc R . . . .
C5 C 0.5016(4) 0.1803(3) 0.8404(3) 0.0500(9) Uani 1 1 d . . . . .
C6 C 0.5830(4) 0.2459(4) 0.8925(3) 0.0517(9) Uani 1 1 d . . . . .
H6A H 0.661890 0.213686 0.927107 0.062 Uiso 1 1 calc R . . . .
C7 C 0.1581(4) 0.8222(3) 0.8097(3) 0.0524(9) Uani 1 1 d . . . . .
H7 H 0.243146 0.858778 0.777420 0.063 Uiso 1 1 calc R . . . .
C8 C 0.0386(4) 0.8905(3) 0.8419(4) 0.0566(10) Uani 1 1 d . . . . .
C9 C -0.0592(4) 0.8007(4) 0.8854(4) 0.0599(10) Uani 1 1 d . . . . .
H9 H -0.151638 0.816326 0.915444 0.072 Uiso 1 1 calc R . . . .
I1 I 0.17686(16) 0.59175(11) 0.34396(12) 0.0739(4) Uani 0.664(7) 1 d . . P A 2
I2 I 0.5164(3) -0.0148(2) 0.83313(17) 0.0680(3) Uani 0.664(7) 1 d . . P A 2
I3 I 0.0269(3) 1.08689(17) 0.84230(17) 0.0780(4) Uani 0.664(7) 1 d . . P A 2
I1A I 0.1724(5) 0.6220(9) 0.3546(4) 0.178(2) Uani 0.330(7) 1 d . . P A 3
I2A I 0.5374(7) 0.0004(5) 0.8140(6) 0.1024(16) Uani 0.330(7) 1 d . . P A 3
I3A I -0.0051(5) 1.0826(4) 0.8079(7) 0.1012(13) Uani 0.330(7) 1 d . . P A 3
loop_
_atom_site_aniso_label
_atom_site_aniso_U_11
_atom_site_aniso_U_22
_atom_site_aniso_U_33
_atom_site_aniso_U_23
_atom_site_aniso_U_13
_atom_site_aniso_U_12
Cr1 0.0381(3) 0.0255(2) 0.0459(3) -0.0084(2) -0.0075(2) -0.0060(2)
Cl1 0.0432(5) 0.0351(4) 0.0557(5) -0.0102(4) -0.0086(4) -0.0109(3)
Cl2 0.0447(5) 0.0544(5) 0.0500(5) -0.0120(4) -0.0075(4) -0.0122(4)
Cl3 0.0428(5) 0.0352(4) 0.0690(6) -0.0099(4) -0.0124(4) -0.0108(3)
N1 0.0394(16) 0.0472(17) 0.0486(17) -0.0051(14) -0.0051(13) -0.0116(13)
N2 0.049(2) 0.111(3) 0.063(2) -0.008(2) -0.0030(16) -0.039(2)
N3 0.0393(15) 0.0340(14) 0.0545(18) -0.0141(13) -0.0090(13) -0.0038(11)
N4 0.0385(16) 0.0406(16) 0.064(2) -0.0196(14) -0.0119(14) -0.0041(12)
N5 0.0372(15) 0.0338(14) 0.0574(18) -0.0070(13) -0.0067(13) -0.0047(12)
N6 0.0460(17) 0.0345(15) 0.068(2) -0.0044(14) -0.0047(15) -0.0046(13)
C1 0.051(2) 0.074(3) 0.052(2) -0.003(2) -0.0123(18) -0.020(2)
C2 0.058(2) 0.077(3) 0.049(2) -0.001(2) -0.0051(18) -0.017(2)
C3 0.076(3) 0.134(5) 0.053(3) 0.005(3) 0.000(2) -0.045(3)
C4 0.049(2) 0.0408(19) 0.056(2) -0.0212(17) -0.0100(17) -0.0037(16)
C5 0.055(2) 0.0311(17) 0.067(3) -0.0150(17) -0.0102(18) 0.0013(15)
C6 0.046(2) 0.043(2) 0.068(3) -0.0143(18) -0.0138(18) 0.0066(16)
C7 0.053(2) 0.0287(17) 0.072(3) -0.0012(17) -0.0041(19) -0.0070(16)
C8 0.058(2) 0.0324(18) 0.077(3) -0.0088(18) -0.006(2) 0.0016(17)
C9 0.049(2) 0.046(2) 0.080(3) -0.007(2) 0.000(2) 0.0028(17)
I1 0.0843(6) 0.0914(9) 0.0460(5) 0.0002(3) -0.0183(4) -0.0228(4)
I2 0.0826(7) 0.0319(4) 0.0949(7) -0.0187(4) -0.0223(5) 0.0011(4)
I3 0.0882(9) 0.0299(3) 0.1124(8) -0.0144(4) 0.0005(5) 0.0022(4)
I1A 0.145(3) 0.335(6) 0.0523(12) 0.016(2) -0.0358(13) -0.104(3)
I2A 0.0885(18) 0.0419(15) 0.191(4) -0.052(2) -0.030(2) 0.0132(13)
I3A 0.0937(18) 0.0321(7) 0.170(4) -0.0122(14) -0.0009(17) 0.0084(9)
loop_
_atom_type_symbol
_atom_type_description
_atom_type_scat_dispersion_real
_atom_type_scat_dispersion_imag
_atom_type_scat_source
C C 0.0033 0.0016 'International Tables Vol C Tables 4.2.6.8 and 6.1.1.4'
H H 0.0000 0.0000 'International Tables Vol C Tables 4.2.6.8 and 6.1.1.4'
Cl Cl 0.1484 0.1585 'International Tables Vol C Tables 4.2.6.8 and 6.1.1.4'
Cr Cr 0.3209 0.6236 'International Tables Vol C Tables 4.2.6.8 and 6.1.1.4'
I I -0.4742 1.8119 'International Tables Vol C Tables 4.2.6.8 and 6.1.1.4'
N N 0.0061 0.0033 'International Tables Vol C Tables 4.2.6.8 and 6.1.1.4'
O O 0.0106 0.0060 'International Tables Vol C Tables 4.2.6.8 and 6.1.1.4'
loop_
_geom_angle_atom_site_label_1
_geom_angle_atom_site_label_2
_geom_angle_atom_site_label_3
_geom_angle
_geom_angle_site_symmetry_1
_geom_angle_site_symmetry_3
Cl1 Cr1 Cl3 177.29(4) . .
Cl2 Cr1 Cl1 91.26(4) . .
Cl2 Cr1 Cl3 91.40(4) . .
N1 Cr1 Cl1 89.38(8) . .
N1 Cr1 Cl2 179.07(8) . .
N1 Cr1 Cl3 87.97(8) . .
N3 Cr1 Cl1 89.89(8) . .
N3 Cr1 Cl2 89.23(9) . .
N3 Cr1 Cl3 89.58(8) . .
N3 Cr1 N1 91.45(12) . .
N3 Cr1 N5 178.26(11) . .
N5 Cr1 Cl1 89.07(8) . .
N5 Cr1 Cl2 89.41(9) . .
N5 Cr1 Cl3 91.53(8) . .
N5 Cr1 N1 89.93(12) . .
N2 N1 Cr1 125.1(2) . .
C1 N1 Cr1 130.6(2) . .
C1 N1 N2 104.2(3) . .
N1 N2 H2 124.3 . .
C3 N2 N1 111.5(3) . .
C3 N2 H2 124.3 . .
N4 N3 Cr1 122.7(2) . .
C4 N3 Cr1 131.8(2) . .
C4 N3 N4 104.3(3) . .
N3 N4 H4 123.6 . .
C6 N4 N3 112.8(3) . .
C6 N4 H4 123.6 . .
N6 N5 Cr1 122.5(2) . .
C7 N5 Cr1 131.5(2) . .
C7 N5 N6 104.9(3) . .
N5 N6 H6 124.3 . .
C9 N6 N5 111.4(3) . .
C9 N6 H6 124.3 . .
N1 C1 H1 123.9 . .
N1 C1 C2 112.2(3) . .
C2 C1 H1 123.9 . .
C1 C2 C3 104.6(4) . .
C1 C2 I1 127.1(3) . .
C1 C2 I1A 128.1(3) . .
C3 C2 I1 128.2(3) . .
C3 C2 I1A 126.5(4) . .
N2 C3 C2 107.5(4) . .
N2 C3 H3 126.3 . .
C2 C3 H3 126.3 . .
N3 C4 H4A 124.3 . .
N3 C4 C5 111.3(3) . .
C5 C4 H4A 124.3 . .
C4 C5 C6 105.3(3) . .
C4 C5 I2 126.4(3) . .
C4 C5 I2A 127.6(3) . .
C6 C5 I2 127.9(3) . .
C6 C5 I2A 126.9(3) . .
N4 C6 C5 106.2(3) . .
N4 C6 H6A 126.9 . .
C5 C6 H6A 126.9 . .
N5 C7 H7 124.4 . .
N5 C7 C8 111.2(3) . .
C8 C7 H7 124.4 . .
C7 C8 I3 125.2(3) . .
C7 C8 I3A 129.2(3) . .
C9 C8 C7 105.2(3) . .
C9 C8 I3 129.0(3) . .
C9 C8 I3A 124.6(3) . .
N6 C9 C8 107.3(4) . .
N6 C9 H9 126.4 . .
C8 C9 H9 126.4 . .
loop_
_geom_bond_atom_site_label_1
_geom_bond_atom_site_label_2
_geom_bond_distance
_geom_bond_site_symmetry_2
Cr1 Cl1 2.3103(9) .
Cr1 Cl2 2.3083(11) .
Cr1 Cl3 2.3127(9) .
Cr1 N1 2.086(3) .
Cr1 N3 2.059(3) .
Cr1 N5 2.064(3) .
N1 N2 1.336(4) .
N1 C1 1.319(5) .
N2 H2 0.8600 .
N2 C3 1.318(6) .
N3 N4 1.342(4) .
N3 C4 1.330(4) .
N4 H4 0.8600 .
N4 C6 1.322(5) .
N5 N6 1.338(4) .
N5 C7 1.332(4) .
N6 H6 0.8600 .
N6 C9 1.336(5) .
C1 H1 0.9300 .
C1 C2 1.349(5) .
C2 C3 1.360(6) .
C2 I1 2.109(4) .
C2 I1A 1.956(6) .
C3 H3 0.9300 .
C4 H4A 0.9300 .
C4 C5 1.370(5) .
C5 C6 1.376(5) .
C5 I2 2.087(4) .
C5 I2A 2.004(6) .
C6 H6A 0.9300 .
C7 H7 0.9300 .
C7 C8 1.370(5) .
C8 C9 1.361(5) .
C8 I3 2.082(4) .
C8 I3A 2.029(5) .
C9 H9 0.9300 .
loop_
_smtbx_masks_void_nr
_smtbx_masks_void_average_x
_smtbx_masks_void_average_y
_smtbx_masks_void_average_z
_smtbx_masks_void_volume
_smtbx_masks_void_count_electrons
1 -0.618 0.000 0.500 312.4 69.1
