#------------------------------------------------------------------------------
#$Date: 2022-03-06 06:37:54 +0200 (Sun, 06 Mar 2022) $
#$Revision: 273468 $
#$URL: file:///home/coder/svn-repositories/cod/cif/1/56/59/1565956.cif $
#------------------------------------------------------------------------------
#
# This file is available in the Crystallography Open Database (COD),
# http://www.crystallography.net/
#
# All data on this site have been placed in the public domain by the
# contributors.
#
data_1565956
loop_
_publ_author_name
'Wildner, Manfred'
'Zakharov, Boris A.'
'Bogdanov, Nikita E.'
'Talla, Dominik'
'Boldyreva, Elena V.'
'Miletich, Ronald'
_publ_section_title
;
 Crystallography relevant to Mars and Galilean icy moons: crystal behavior
 of kieserite-type monohydrate sulfates at extraterrestrial conditions
 down to 15 K
;
_journal_issue                   2
_journal_name_full               IUCrJ
_journal_page_first              194
_journal_page_last               203
_journal_paper_doi               10.1107/S2052252521012720
_journal_volume                  9
_journal_year                    2022
_chemical_formula_sum            'Co H2 O5 S'
_chemical_formula_weight         173.01
_space_group_crystal_system      monoclinic
_space_group_IT_number           15
_space_group_name_Hall           '-C 2yc'
_space_group_name_H-M_alt        'C 1 2/c 1'
_atom_sites_solution_hydrogens   difmap
_audit_creation_method           SHELXL-2017/1
_cell_angle_alpha                90
_cell_angle_beta                 118.497(10)
_cell_angle_gamma                90
_cell_formula_units_Z            4
_cell_length_a                   6.9526(10)
_cell_length_b                   7.6051(10)
_cell_length_c                   7.6184(10)
_cell_measurement_temperature    233(2)
_cell_volume                     354.02(9)
_computing_structure_refinement  'SHELXL-2017/1 (Sheldrick, 2017)'
_diffrn_ambient_temperature      233(2)
_diffrn_measured_fraction_theta_full 0.997
_diffrn_measured_fraction_theta_max 0.999
_diffrn_radiation_type           MoK\a
_diffrn_radiation_wavelength     0.71073
_diffrn_reflns_av_R_equivalents  0.0197
_diffrn_reflns_av_unetI/netI     0.0085
_diffrn_reflns_Laue_measured_fraction_full 0.997
_diffrn_reflns_Laue_measured_fraction_max 0.999
_diffrn_reflns_limit_h_max       12
_diffrn_reflns_limit_h_min       -12
_diffrn_reflns_limit_k_max       13
_diffrn_reflns_limit_k_min       -13
_diffrn_reflns_limit_l_max       13
_diffrn_reflns_limit_l_min       -13
_diffrn_reflns_number            11496
_diffrn_reflns_point_group_measured_fraction_full 0.997
_diffrn_reflns_point_group_measured_fraction_max 0.999
_diffrn_reflns_theta_full        25.242
_diffrn_reflns_theta_max         39.968
_diffrn_reflns_theta_min         4.229
_exptl_absorpt_coefficient_mu    5.317
_exptl_absorpt_correction_T_max  0.7479
_exptl_absorpt_correction_T_min  0.5767
_exptl_absorpt_correction_type   multi-scan
_exptl_absorpt_process_details
;
 SADABS 2016/2: Krause, L., Herbst-Irmer, R., Sheldrick G.M. & Stalke D.,
 J. Appl. Cryst. 48 (2015) 3-10
;
_exptl_crystal_density_diffrn    3.246
_exptl_crystal_F_000             340
_refine_diff_density_max         0.468
_refine_diff_density_min         -0.406
_refine_diff_density_rms         0.076
_refine_ls_extinction_coef       0.0223(10)
_refine_ls_extinction_expression Fc^*^=kFc[1+0.001xFc^2^\l^3^/sin(2\q)]^-1/4^
_refine_ls_extinction_method     'SHELXL-2017/1 (Sheldrick 2017)'
_refine_ls_goodness_of_fit_ref   1.161
_refine_ls_hydrogen_treatment    refall
_refine_ls_matrix_type           full
_refine_ls_number_parameters     40
_refine_ls_number_reflns         1101
_refine_ls_number_restraints     0
_refine_ls_restrained_S_all      1.161
_refine_ls_R_factor_all          0.0123
_refine_ls_R_factor_gt           0.0122
_refine_ls_shift/su_max          0.001
_refine_ls_shift/su_mean         0.000
_refine_ls_structure_factor_coef Fsqd
_refine_ls_weighting_details
'w=1/[\s^2^(Fo^2^)+(0.0130P)^2^+0.2800P] where P=(Fo^2^+2Fc^2^)/3'
_refine_ls_weighting_scheme      calc
_refine_ls_wR_factor_gt          0.0318
_refine_ls_wR_factor_ref         0.0319
_reflns_Friedel_coverage         0.000
_reflns_number_gt                1095
_reflns_number_total             1101
_reflns_threshold_expression     'I > 2\s(I)'
_cod_data_source_file            lt5044.cif
_cod_data_source_block           CoSO4H2O_N2_233K
_cod_depositor_comments
'Adding full bibliography for 1565934--1565967.cif.'
_cod_original_sg_symbol_H-M      'C 2/c'
_cod_database_code               1565956
_shelx_shelxl_version_number     2017/1
_shelx_space_group_comment
;
The symmetry employed for this shelxl refinement is uniquely defined
by the following loop, which should always be used as a source of
symmetry information in preference to the above space-group names.
They are only intended as comments.
;
_shelx_res_file
;
TITL 217a03x (nach Umkleben) 233K Apex in C2/c kieserite cell
    latt_corr_for_Nonius20C_217a03x_233_0m.res
    created by SHELXL-2017/1 at 21:35:30 on 10-Feb-2021
REM meas. mon  6.9389(1) 7.5927(1) 7.4592(1)   90  116.3825(4)   90
REM trans. cryscomp  6.9389 7.5927 7.6019    90 118.474 90
REM meas.trcl  6.9388(1) 7.5927(1) 7.4592(1) 90.0029(5) 116.3826(4) 89.9980(5)
REM CELL 0.71073   6.9389 7.5927 7.6019    90 118.474 90
REM latt corr for Nonius20C +0.0137 +0.0124 +0.0165    +0.0226
CELL 0.71073  6.9526 7.6051 7.6184 90 118.4966 90
ZERR    4.00   0.001   0.001   0.001   0.00   0.01   0.00
LATT  7
SYMM -X, Y, .5-Z
SFAC O H S CO
UNIT 20 8 4 4
SHEL 20 0.55285
OMIT -2 2 2
REM DAMP 10000
L.S. 10
CONN 12 1.8 $O
EQIV $9 -x+1/2, y+1/2, -z+1/2
BOND $H
FMAP 2
PLAN 20
ACTA
HTAB O3 O2_$9
HTAB
WGHT    0.013000    0.280000
EXTI    0.022280
FVAR       0.72698
CO    4    0.000000    0.500000    0.000000    10.50000    0.00537    0.00567 =
         0.00604    0.00038    0.00275   -0.00009
S     3    0.000000    0.154333    0.250000    10.50000    0.00412    0.00475 =
         0.00634    0.00000    0.00242    0.00000
O1    1    0.172423    0.043548    0.400798    11.00000    0.00670    0.01221 =
         0.01247    0.00609    0.00380    0.00322
O2    1    0.098019    0.267222    0.154430    11.00000    0.00939    0.00810 =
         0.01282    0.00394    0.00722    0.00123
O3    1    0.000000    0.638192    0.250000    10.50000    0.00832    0.00873 =
         0.00833    0.00000    0.00431    0.00000
H     2    0.103417    0.704447    0.294415    11.00000    0.02558
HKLF 4 1  1 0 0 0 -1 0 -1 0 -1




REM  217a03x (nach Umkleben) 233K Apex in C2/c kieserite cell
REM R1 =  0.0122 for    1095 Fo > 4sig(Fo)  and  0.0123 for all    1101 data
REM     40 parameters refined using      0 restraints

END

WGHT      0.0133      0.2878

REM Instructions for potential hydrogen bonds
EQIV $5 x+1/2, y+1/2, z
HTAB O3 S_$5
HTAB O3 O2_$9

REM Highest difference peak  0.468,  deepest hole -0.406,  1-sigma level  0.076
Q1    1   0.0414  0.2202  0.1947  11.00000  0.05    0.47
Q2    1  -0.0721  0.5545 -0.0104  11.00000  0.05    0.42
Q3    1   0.0631  0.5477  0.0582  11.00000  0.05    0.39
Q4    1   0.1025  0.0995  0.3319  11.00000  0.05    0.35
Q5    1   0.0172  0.5357 -0.0614  11.00000  0.05    0.32
Q6    1   0.0004  0.5880  0.3051  11.00000  0.05    0.26
Q7    1   0.0794  0.3632  0.1824  11.00000  0.05    0.23
Q8    1   0.0514  0.3171  0.1138  11.00000  0.05    0.20
Q9    1   0.2513  0.0378  0.3801  11.00000  0.05    0.20
Q10   1   0.0219  0.2309  0.0811  11.00000  0.05    0.18
Q11   1  -0.1266  0.3292  0.0237  11.00000  0.05    0.16
Q12   1   0.1023 -0.0088  0.4785  11.00000  0.05    0.16
Q13   1   0.2236  0.1514  0.4312  11.00000  0.05    0.15
Q14   1   0.2500  0.7500  0.5000  10.50000  0.05    0.15
Q15   1   0.0051 -0.0637  0.4495  11.00000  0.05    0.14
Q16   1   0.1160  0.0896  0.4534  11.00000  0.05    0.14
Q17   1   0.1049  0.3592  0.2810  11.00000  0.05    0.13
Q18   1   0.0079  0.8021  0.2986  11.00000  0.05    0.13
Q19   1  -0.0205  0.5291  0.1191  11.00000  0.05    0.13
Q20   1   0.0000 -0.0734  0.2500  10.50000  0.05    0.13
;
_shelx_res_checksum              30988
_shelx_hkl_file
;
   2   0   0 17.2213 0.64008   6
   2   0   0 18.0153 0.96706  13
  -2   0   0 18.0756 1.00109   8
  -2   0   0 18.6858 0.92992   2
  -2   0   0 16.4608 1.08776   3
  -2   0   0 21.0227 1.18429   5
   4   0   0 8974.12 165.616   6
  -4   0   0 9111.84 172.092   8
   4   0   0 8611.04 169.181   1
  -4   0   0 9369.61 174.237   5
   4   0   0 9087.82 173.334  13
  -4   0   0 9083.50 168.886   2
  -4   0   0 8946.19 172.749   3
   6   0   0 38.7930 2.18157   6
   6   0   0 37.0460 3.07053  11
   6   0   0 35.9460 2.57940  13
  -6   0   0 38.6705 2.20488   2
  -6   0   0 37.4123 3.16892   3
  -6   0   0 34.1194 2.87832   5
  -6   0   0 40.5723 2.60202   8
   6   0   0 39.1885 2.40108   1
  -8   0   0 1501.86 31.1956   8
   8   0   0 1459.27 32.3727  11
   8   0   0 1497.21 30.3795   1
  -8   0   0 1470.13 32.3310   5
   8   0   0 1474.80 30.0067   6
  10   0   0 12.4304 2.31714   6
 -10   0   0 13.0072 3.15232   5
 -10   0   0 12.1374 2.35603   8
  10   0   0 14.3205 3.73515  11
  10   0   0 12.6683 2.35392   1
  -1  -1   0 1498.99 29.0537  13
  -3  -1   0 24.8729 1.45764   8
  -3  -1   0 33.9035 1.75340   5
  -3  -1   0 29.0974 1.42804   2
   3  -1   0 28.8720 1.23479   1
   3  -1   0 28.3033 1.70557  13
   3  -1   0 29.9052 0.76306   6
   3   1   0 30.0064 1.36693   6
  -3   1   0 27.0196 1.26889   2
   3   1   0 25.6085 1.49838   1
  -3   1   0 30.7244 1.77601   5
  -3   1   0 24.5626 1.54847   3
   3   1   0 29.8475 1.67254  11
  -3   1   0 25.5785 1.40841   8
   3   1   0 28.4825 1.28753  13
  -5  -1   0 912.713 18.9895   8
   5  -1   0 930.622 18.0720   1
   5  -1   0 905.121 17.3742   6
  -5  -1   0 905.479 19.3422   5
   5  -1   0 905.926 19.4712  13
  -5  -1   0 931.933 18.4507   2
   5   1   0 891.114 18.1982   6
  -5   1   0 892.685 17.9089   2
   5   1   0 855.930 17.9623  13
   5   1   0 911.997 19.5971  11
  -5   1   0 924.877 19.5684   3
  -5   1   0 913.308 19.7076   5
   5   1   0 906.317 18.7639   1
  -5   1   0 940.187 18.7929   8
   7  -1   0 35.0299 2.22917   6
  -7  -1   0 36.2406 3.11366   8
  -7  -1   0 37.6164 2.56949   2
  -7  -1   0 43.1349 3.48014   5
   7  -1   0 34.1519 2.39899   1
   7  -1   0 34.9315 3.42295  11
  -7   1   0 37.8591 3.54569   5
   7   1   0 35.6298 2.60503   6
  -7   1   0 33.0453 2.72846   8
  -7   1   0 35.0592 3.38770   3
   7   1   0 33.7128 2.76304   1
   7   1   0 37.3100 3.83175  11
   9  -1   0 67.5784 3.91245   6
  -9  -1   0 64.1347 4.81498   8
  -9  -1   0 72.1994 5.30393   5
   9  -1   0 64.3249 3.80027   1
   9  -1   0 70.4989 5.67051  11
  -9   1   0 67.5102 5.45750   5
   9   1   0 73.8157 5.90932  11
   9   1   0 73.1310 4.60755   6
   9   1   0 63.7877 4.23720   1
  -9   1   0 61.8637 4.37117   8
 -11  -1   0 93.2880 6.18275   8
 -11  -1   0 84.5620 6.45626   5
  11  -1   0 95.8783 7.49154  11
  11   1   0 94.0838 7.03076  11
 -11   1   0 93.0627 5.55890   8
 -11   1   0 89.1069 6.94503   5
   0  -2   0 1761.81 34.1448   6
   0  -2   0 1690.77 33.7687   1
   0   2   0 1812.16 34.6057   7
   0   2   0 1778.95 31.8238  11
   0   2   0 1759.14 33.5520   4
   0   2   0 1752.38 33.1669  10
  -2  -2   0 608.922 11.4291  13
  -2  -2   0 601.183 12.1546   1
   2  -2   0 598.328 12.9740  13
  -2  -2   0 608.062 12.1004   8
   2  -2   0 601.134 11.4422   1
  -2   2   0 621.639 12.4317   5
   2   2   0 607.181 12.3154  11
  -2   2   0 616.419 12.2501   3
  -2   2   0 602.836 12.1073   4
   2   2   0 610.056 12.3841   1
   2   2   0 624.269 12.0302   6
  -2   2   0 598.677 13.0738   7
  -4  -2   0 2141.17 39.7185   5
  -4  -2   0 2090.69 39.4497   2
   4  -2   0 2073.25 38.4968   1
   4  -2   0 2077.85 38.8171   6
  -4  -2   0 2125.05 39.7913   8
   4  -2   0 2153.69 40.9704  13
  -4  -2   0 2049.56 39.0738   1
   4  -2   0 2069.43 38.9627   6
   4   2   0 2090.90 40.1954  11
  -4   2   0 2134.89 38.6289  14
  -4   2   0 2128.64 39.2269   8
  -4   2   0 2153.26 38.6853   2
  -4   2   0 2198.24 40.3172   3
   4   2   0 2095.41 39.9621   1
  -4   2   0 2120.43 40.4135   5
   4   2   0 2182.13 39.4671   6
   6  -2   0 1516.13 32.2500  13
  -6  -2   0 1539.58 31.3071   8
  -6  -2   0 1580.65 30.7332   2
   6  -2   0 1539.79 29.1242   6
   6  -2   0 1556.47 29.6864   1
  -6  -2   0 1555.27 31.5186   5
  -6   2   0 1600.16 32.4063   5
   6   2   0 1537.62 30.7284   6
   6   2   0 1534.92 31.2687   1
   6   2   0 1552.59 32.2943  11
  -6   2   0 1612.89 32.1496   3
  -6   2   0 1541.07 30.6101   8
   8  -2   0 804.849 17.4973   1
   8  -2   0 796.354 17.1613   6
  -8  -2   0 789.577 19.5456   5
  -8  -2   0 813.109 18.2611   2
  -8  -2   0 802.859 19.3630   8
  -8   2   0 797.084 18.4530   8
  -8   2   0 825.652 20.3195   3
  -8   2   0 788.893 20.3343   5
   8   2   0 790.850 19.0409   1
   8   2   0 796.893 20.5819  11
   8   2   0 784.381 18.6237   6
 -10  -2   0 703.236 19.6853   5
 -10  -2   0 719.941 19.3688   8
  10  -2   0 746.124 17.5180   6
  10  -2   0 731.952 20.6117  11
  10   2   0 717.550 18.7276   6
  10   2   0 728.860 21.3685  11
 -10   2   0 762.892 21.0691   5
  10   2   0 731.742 18.8999   1
  -1  -3   0 159.950 3.88490   8
  -1  -3   0 162.511 3.99615   6
   1  -3   0 160.821 3.82912  10
  -1  -3   0 164.341 4.39954   1
   1  -3   0 168.252 4.03723   1
   1  -3   0 165.065 3.64678   6
  -1   3   0 157.637 4.87200   7
  -1   3   0 165.367 3.80093   9
   1   3   0 157.781 4.34253   1
  -1   3   0 164.558 4.03812   5
  -1   3   0 161.212 4.19125   3
   1   3   0 163.956 3.87260   4
  -1   3   0 165.880 4.35585   4
   1   3   0 157.592 3.71620   9
   1   3   0 163.165 4.33106  11
   3  -3   0 1133.69 21.2927   1
  -3  -3   0 1123.02 22.2467   8
   3  -3   0 1139.89 23.7422  13
  -3  -3   0 1130.00 22.3447   1
  -3  -3   0 1123.09 21.5573   5
   3  -3   0 1117.41 21.3563   6
   3  -3   0 1111.35 20.6507   6
  -3   3   0 1134.52 23.8822   7
  -3   3   0 1175.26 22.5924   3
   3   3   0 1132.63 22.7721   1
  -3   3   0 1121.46 22.6877   5
  -3   3   0 1155.24 21.4135   8
   3   3   0 1191.80 22.3056   6
  -3   3   0 1199.07 21.3844   2
   3   3   0 1150.86 22.0720   7
   3   3   0 1131.98 22.6637  11
  -5  -3   0 12.7440 1.66653   5
   5  -3   0 16.5892 2.40705  13
  -5  -3   0 16.1861 1.54169   1
   5  -3   0 15.5838 1.20405   1
  -5  -3   0 13.6879 1.76675   8
  -5  -3   0 20.6602 1.32247  14
  -5  -3   0 18.9377 2.02774   2
   5  -3   0 15.4544 1.03029   6
   5  -3   0 15.8168 0.95171   6
   5   3   0 14.5134 2.27362  11
   5   3   0 14.5074 1.98057   1
   5   3   0 15.1634 1.86147   6
  -5   3   0 18.2822 1.45025   8
  -5   3   0 16.3596 1.30456   2
  -5   3   0 15.2201 2.05489   3
  -5   3   0 16.8827 2.17438   5
  -7  -3   0 131.932 5.43187   2
   7  -3   0 130.346 4.22638   6
  -7  -3   0 132.192 5.63191   5
  -7  -3   0 129.104 5.71014   8
   7  -3   0 118.057 6.22443  13
   7  -3   0 120.163 4.33948   1
   7   3   0 140.831 5.97566   1
   7   3   0 126.783 5.56543   6
  -7   3   0 133.071 6.27309   3
  -7   3   0 124.748 6.28430   5
   7   3   0 129.435 6.65201  11
  -7   3   0 124.229 4.94490   8
  -9  -3   0 6.82886 1.89057   2
  -9  -3   0 15.8021 3.02880   8
   9  -3   0 6.87762 1.48298   6
   9  -3   0 13.2432 3.18305  11
   9   3   0 9.53557 3.42776  11
  -9   3   0 6.23203 2.59807   5
   9   3   0 7.89144 2.16973   6
  -9   3   0 7.93799 2.25370   3
   9   3   0 4.85425 2.06425   1
  11  -3   0 7.56897 2.71230  11
 -11  -3   0 3.54576 2.53625   8
  11  -3   0 1.68845 1.25076   6
 -11   3   0 4.49265 2.89059   5
  11   3   0 6.66985 2.37890   6
  11   3   0 1.81420 1.85856   1
  11   3   0 9.11422 3.18232  11
   0  -4   0 2930.65 57.7633   1
   0  -4   0 3091.47 60.6479   6
   0   4   0 3060.83 57.9733  11
   0   4   0 3136.90 56.3908  10
   0   4   0 3102.72 57.2529   9
   0   4   0 3055.07 56.9935   1
   0   4   0 3026.33 57.6341   4
   0   4   0 3074.85 59.6847   7
  -2  -4   0 6277.78 123.150   1
   2  -4   0 6096.53 119.881   1
   2  -4   0 6303.52 122.579  10
  -2  -4   0 6325.73 118.065   6
   2  -4   0 6097.51 115.476   6
  -2  -4   0 6401.43 118.925   8
   2   4   0 6476.94 119.327   6
  -2   4   0 6176.25 122.046   4
   2   4   0 6300.45 122.204   1
  -2   4   0 6176.40 117.284   3
  -2   4   0 6333.21 119.891   5
  -2   4   0 6471.84 125.656   7
   2   4   0 6629.89 122.000  11
   2   4   0 6132.88 120.185   7
   4  -4   0 546.793 10.7609   6
   4  -4   0 563.010 14.4736  13
  -4  -4   0 549.633 11.6892   5
   4  -4   0 562.500 11.4463   1
   4  -4   0 539.822 10.7352   6
  -4  -4   0 550.778 12.6873   1
  -4  -4   0 553.935 12.6878   8
  -4   4   0 559.289 13.2202   5
   4   4   0 543.580 12.1785   7
  -4   4   0 569.141 13.0720   3
   4   4   0 563.043 12.7451   6
  -4   4   0 557.084 11.4384   8
   4   4   0 552.785 13.3485   1
  -4   4   0 537.075 14.4108   7
   4   4   0 561.730 13.4096  11
  -6  -4   0 1417.35 31.5161   5
   6  -4   0 1577.03 29.6432   6
  -6  -4   0 1604.24 32.5676   8
  -6  -4   0 1634.09 32.2362   2
   6  -4   0 1575.70 30.1962   1
   6  -4   0 1596.97 34.6988  13
  -6   4   0 1640.44 33.0209   3
   6   4   0 1590.39 32.4456   6
   6   4   0 1596.63 33.6510  11
  -6   4   0 1600.96 30.9878   8
   6   4   0 1596.42 33.1728   1
  -6   4   0 1656.60 33.6330   5
  -8  -4   0 22.5571 2.94339   2
  -8  -4   0 11.7893 2.40352   8
  -8   4   0 12.8246 2.71788   3
   8   4   0 20.8751 3.88045  11
   8   4   0 11.4070 2.37757   6
   8   4   0 15.5536 2.81772   1
  -8   4   0 12.2410 2.76091   5
 -10  -4   0 485.536 15.3348   8
  10  -4   0 477.233 15.4575  11
  10   4   0 482.386 16.7866  11
  10   4   0 486.289 14.8907   6
 -10   4   0 484.538 15.5075   3
 -10   4   0 470.205 16.1221   5
  10   4   0 470.199 14.9024   1
   1  -5   0 89.2006 3.35978   1
   1  -5   0 92.4046 3.03711   6
  -1  -5   0 99.1410 3.80183   1
  -1  -5   0 88.9467 3.15749   6
   1  -5   0 80.5030 1.96467  10
  -1  -5   0 96.1995 2.93133   8
   1   5   0 89.9896 2.65982  10
  -1   5   0 90.6803 2.97139   5
   1   5   0 92.1122 3.55269  11
  -1   5   0 85.0003 4.04606   7
  -1   5   0 94.3917 3.42148   3
   1   5   0 91.4429 3.50935   1
  -1   5   0 89.2233 2.70856   9
  -1   5   0 99.4396 3.73918   4
   1   5   0 86.3023 3.69485   7
  -1   5   0 87.2398 2.94641   1
   1   5   0 87.9104 2.65485   9
  -3  -5   0 146.510 5.25659   1
  -3  -5   0 150.309 4.84268   8
   3  -5   0 140.538 5.10357  10
   3  -5   0 152.298 6.37230  13
   3  -5   0 154.336 4.05915   6
  -3  -5   0 147.034 4.53398   6
  -3   5   0 152.083 5.13723   5
   3   5   0 150.464 4.95705   6
  -3   5   0 146.058 6.31513   7
   3   5   0 147.192 5.42439  11
   3   5   0 151.913 5.54205   1
  -3   5   0 152.740 5.08268   3
   3   5   0 142.469 4.82747   7
  -5  -5   0 15.5212 2.01631   1
   5  -5   0 15.1365 1.35259   1
   5  -5   0 14.3389 2.67696  13
   5  -5   0 13.0666 1.15411   6
  -5  -5   0 15.2665 2.04650   8
   5   5   0 13.8586 2.03864   6
  -5   5   0 14.7393 2.25743   5
  -5   5   0 12.6031 2.42535   7
   5   5   0 13.6205 2.51671  11
  -5   5   0 23.5207 2.71049   3
   7  -5   0 114.796 6.91994  13
  -7  -5   0 118.524 5.55476   2
  -7  -5   0 116.551 5.79407   8
   7  -5   0 120.653 4.08702   6
   7   5   0 121.019 6.98191  11
  -7   5   0 119.563 6.08504   3
   7   5   0 115.923 6.31839   1
  -7   5   0 118.876 6.19495   5
   7   5   0 119.444 5.75579   6
  -9  -5   0 45.4746 4.35414   8
   9  -5   0 43.6800 2.90747   6
  -9  -5   0 44.5442 4.15276   2
   9   5   0 56.1800 5.99500  11
   9   5   0 44.4822 4.61943   1
   9   5   0 40.8696 4.36976   6
  -9   5   0 48.0956 5.29813   5
  -9   5   0 56.3485 5.05379   3
   0  -6   0 2375.07 45.8506   1
   0  -6   0 2403.76 43.7625   8
   0  -6   0 2413.48 45.1231   6
   0   6   0 2436.02 45.3323   1
   0   6   0 2411.34 43.8459   9
   0   6   0 2501.06 45.9575  11
   0   6   0 2490.96 45.8160   3
   0   6   0 2382.57 47.0916   7
   2  -6   0 77.5389 4.62930  13
  -2  -6   0 72.0168 3.00989   8
  -2  -6   0 72.6554 3.16727   6
  -2  -6   0 77.9080 3.85909   1
   2  -6   0 74.2337 2.99324   6
   2  -6   0 93.5263 3.60466   1
   2   6   0 74.3322 3.10103  10
   2   6   0 74.0771 2.78170   9
  -2   6   0 71.3608 4.27578   7
   2   6   0 76.9375 3.76920   1
  -2   6   0 77.6168 3.24558   5
   2   6   0 87.6406 3.91157  11
  -2   6   0 78.3223 3.59263   3
   4  -6   0 2270.11 42.9231   6
  -4  -6   0 2341.22 44.6086   8
   4  -6   0 2308.89 43.4375   1
  -4  -6   0 2349.22 45.3093   1
   4  -6   0 2323.04 47.9761  13
  -4   6   0 2370.42 48.1292   7
   4   6   0 2362.14 46.2369   1
  -4   6   0 2307.61 45.2092   5
  -4   6   0 2291.70 45.0808   3
   4   6   0 2338.48 45.7957  11
   4   6   0 2293.30 44.7638   6
   6  -6   0 175.877 5.50915   1
  -6  -6   0 201.957 7.50103   2
   6  -6   0 195.261 8.89494  13
   6  -6   0 183.335 5.45080   6
  -6  -6   0 176.703 7.16958   8
  -6   6   0 191.361 7.47633   3
   6   6   0 188.032 7.38740   6
  -6   6   0 188.862 7.74373   5
   6   6   0 187.586 8.22141  11
   6   6   0 185.818 7.99193   1
   8  -6   0 1305.53 33.0278  13
  -8  -6   0 1347.18 30.7199   8
   8  -6   0 1377.23 27.0685   6
  -8  -6   0 1387.78 30.3453   2
  -8   6   0 1332.63 31.4786   5
   8   6   0 1334.23 32.5532  11
   8   6   0 1377.47 31.9328   1
   8   6   0 1322.06 30.5979   6
  -8   6   0 1343.88 30.7292   3
  10  -6   0 121.425 5.14366   6
 -10  -6   0 112.659 6.50425   2
 -10  -6   0 122.666 7.56130   8
  10   6   0 128.315 7.88829   1
 -10   6   0 121.643 7.88001   5
 -10   6   0 123.218 7.58069   3
  10   6   0 139.180 9.33626  11
  -1  -7   0 337.040 8.74747   6
  -1  -7   0 347.140 9.65228   1
   1  -7   0 329.438 9.17707   1
   1  -7   0 335.652 8.64871   6
  -1  -7   0 326.241 7.75719   8
  -1   7   0 332.519 10.7015   7
   1   7   0 347.261 9.52258  11
   1   7   0 334.866 9.16817   1
  -1   7   0 333.962 9.10160   3
   1   7   0 331.500 9.96522   7
  -3  -7   0 637.019 15.6932   1
   3  -7   0 642.978 13.9652   6
  -3  -7   0 647.502 14.4604   8
   3  -7   0 640.386 17.7105  13
  -3   7   0 627.248 17.5507   7
   3   7   0 600.617 15.0792   7
  -3   7   0 635.387 14.7491   5
   3   7   0 659.364 16.0335   1
   3   7   0 628.852 15.7171  11
  -3   7   0 647.105 15.2069   3
  -5  -7   0 56.9836 3.86014   1
   5  -7   0 53.8759 5.11905  13
   5  -7   0 52.3515 2.80328   6
   5  -7   0 56.6268 2.97500   1
  -5  -7   0 59.9210 3.95377   8
  -5   7   0 55.3680 4.01087   5
   5   7   0 53.3506 4.50989  11
  -5   7   0 52.9440 5.11338   7
   5   7   0 57.4080 3.57936   9
   5   7   0 62.4460 4.69007   1
  -5   7   0 56.9666 4.13504   3
  -7  -7   0 190.933 8.16040   2
   7  -7   0 198.563 6.23886   6
  -7  -7   0 205.201 8.31711   8
   7  -7   0 200.447 10.2128  13
  -7   7   0 204.224 8.81658   5
   7   7   0 211.611 9.26115   1
   7   7   0 194.798 9.45537  11
  -7   7   0 200.596 8.60454   3
  -9  -7   0 27.5416 3.80174   8
   9  -7   0 42.0924 3.13269   6
  -9  -7   0 29.3104 3.80487   2
   9   7   0 38.5833 5.74867  11
  -9   7   0 36.1346 4.64418   3
   9   7   0 33.8367 4.91568   1
  -9   7   0 36.0428 4.85207   5
   0  -8   0 1455.95 31.3760  13
   0  -8   0 1432.62 28.7632   6
   0  -8   0 1437.81 29.8500   1
   0   8   0 1383.67 31.1933   7
   0   8   0 1409.65 29.2774   3
   0   8   0 1408.04 29.5696  11
  -2  -8   0 1174.35 25.6755   1
  -2  -8   0 1141.32 24.2059   6
   2  -8   0 1150.46 27.5965  13
   2  -8   0 1184.22 24.6476   1
   2  -8   0 1144.79 23.8729   6
   2   8   0 1119.83 25.5614   7
  -2   8   0 1183.25 24.8227   3
   2   8   0 1160.09 25.2482   1
   2   8   0 1146.25 25.2770  11
  -2   8   0 1141.81 27.4945   7
  -4  -8   0 786.284 19.3310   1
   4  -8   0 782.636 17.0683   6
   4  -8   0 750.831 21.4563  13
   4  -8   0 779.026 17.4054   1
  -4  -8   0 780.107 17.9436   8
  -4   8   0 758.231 18.4276   3
   4   8   0 801.337 19.6878  11
  -4   8   0 770.136 21.7227   7
   4   8   0 784.470 19.8341   1
  -4   8   0 769.430 18.2219   5
  -6  -8   0 323.212 10.8755   1
   6  -8   0 323.833 13.4226  13
   6  -8   0 330.000 9.03362   6
  -6  -8   0 328.622 10.8837   8
  -6  -8   0 322.721 10.9418   2
  -6   8   0 327.985 11.1021   3
   6   8   0 332.801 12.2665   1
  -6   8   0 315.609 10.9758   5
   6   8   0 337.387 12.3468  11
  -8  -8   0 241.860 9.92978   2
  -8  -8   0 237.602 9.94328   8
   8  -8   0 236.357 7.59986   6
  -8   8   0 253.371 10.1326   3
  -8   8   0 226.679 10.0950   5
   8   8   0 234.770 11.3958  11
   8   8   0 241.979 10.9515   1
  -1  -9   0 165.553 6.38574   6
   1  -9   0 167.412 6.84066   1
  -1  -9   0 168.812 7.36511  13
  -1  -9   0 172.301 7.24963   1
   1  -9   0 166.675 6.29090   6
   1  -9   0 166.041 8.10964  13
   1   9   0 155.642 6.29807   1
   1   9   0 157.998 6.74259   3
  -1   9   0 157.320 8.04230   7
   1   9   0 161.947 7.54043   7
  -1   9   0 161.272 6.66160   3
   1   9   0 164.469 7.05178  11
   3  -9   0 36.4791 3.08881   1
   3  -9   0 39.2017 3.04190   6
   3  -9   0 41.6738 4.78307  13
  -3  -9   0 39.6843 3.96858   1
   3   9   0 43.1785 4.42098  11
  -3   9   0 42.4122 3.72430   3
   3   9   0 38.5068 3.84553   1
  -3   9   0 37.1022 4.27002   7
   5  -9   0 130.898 5.41491   6
  -5  -9   0 141.211 7.12883   1
   5  -9   0 132.859 5.49812   1
  -5  -9   0 126.341 6.11407   8
   5  -9   0 126.719 8.33288  13
  -5   9   0 126.910 8.52782   7
  -5   9   0 135.133 6.74466   3
   5   9   0 141.114 7.39935   1
   5   9   0 131.702 7.47346  11
  -7  -9   0 10.2248 2.71556   8
   7  -9   0 12.3208 2.05375   6
  -7  -9   0 9.51791 2.52669   2
   7   9   0 8.26119 3.67949  11
   7   9   0 10.2069 3.25801   1
  -7   9   0 12.8509 3.19256   3
  -7   9   0 8.44064 2.21554   5
   0 -10   0 17.5859 2.55202   6
   0 -10   0 15.7101 2.67739   1
   0 -10   0 19.8434 3.21057  13
   0  10   0 30.6815 4.24685   7
   0  10   0 16.4087 2.85438   3
   2 -10   0 1770.04 40.6843  13
   2 -10   0 1740.91 36.6067   1
  -2 -10   0 1799.64 38.1672   1
   2 -10   0 1734.00 35.8474   6
   2  10   0 1724.43 37.4837  11
   2  10   0 1709.24 36.7998   1
  -2  10   0 1741.14 40.4431   7
   2  10   0 1775.34 37.3515   3
  -2  10   0 1719.71 36.4819   3
   4 -10   0 5.89183 2.37058  13
   4 -10   0 9.25941 2.01712   1
   4 -10   0 3.32189 1.51057   6
  -4 -10   0 8.64903 2.75721   1
  -4  10   0 14.9505 3.42813   7
   4  10   0 4.22163 2.18252   1
   4  10   0 5.33248 2.16645  11
  -4  10   0 3.64680 2.10453   3
  -6 -10   0 1175.20 28.3811   2
   6 -10   0 1228.48 26.0125   6
   6  10   0 1160.08 29.8383   1
  -6  10   0 1197.56 28.1149   3
   6  10   0 1135.20 29.3588  11
   1 -11   0 144.148 8.26600  13
   1 -11   0 139.320 7.13529   1
  -1 -11   0 132.138 7.30342   1
   1  11   0 134.586 7.34028  11
   1  11   0 129.922 6.92409   3
   1  11   0 136.340 7.89957   7
  -1  11   0 143.639 8.68394   7
  -1  11   0 133.163 6.86357   3
   3 -11   0 71.3404 4.94540   1
   3 -11   0 68.9089 6.66045  13
   3 -11   0 75.0062 4.79428   6
  -3 -11   0 81.1855 5.79436   1
  -3  11   0 68.7384 6.36790   7
  -3  11   0 64.4199 5.07291   3
   3  11   0 69.0575 5.77555  11
  -5 -11   0 139.817 8.03796   1
  -5 -11   0 141.917 7.93810   2
   5 -11   0 153.782 6.64761   6
   5 -11   0 133.130 6.22140   1
   5  11   0 143.206 8.60276  11
  -5  11   0 134.745 9.32460   7
  -5  11   0 138.800 7.54085   3
   5  11   0 132.217 7.85585   1
   0 -12   0 426.361 14.3071   1
   0 -12   0 427.014 13.2412   6
   0  12   0 422.041 13.7414   3
   0  12   0 401.080 15.4854   7
   2 -12   0 373.095 12.5738   1
  -2 -12   0 371.037 13.5220   1
   2 -12   0 359.976 11.8941   6
  -2  12   0 331.370 14.7174   7
   2  12   0 364.689 12.7632   3
   2  12   0 352.643 13.0412  11
  -2  12   0 353.047 12.2472   3
  -4 -12   0 342.612 13.0889   1
   4 -12   0 325.737 11.0294   6
  -4 -12   0 313.808 12.1919   2
   4 -12   0 333.287 11.1164   1
   4  12   0 322.744 12.9332  11
  -4  12   0 317.767 15.0102   7
   4  12   0 320.822 12.5873   3
  -4  12   0 333.196 12.0811   3
   1 -13   0 2.03594 2.01476   6
   1 -13   0 5.02411 2.01338   1
  -1 -13   0 9.39347 3.06544   1
   1  13   0 2.12201 2.33425   3
  -1  13   0 3.11094 2.84608   7
  -1  13   0 3.08501 1.93687   3
  -3 -13   0 0.62081 2.40789   2
   3 -13   0 1.86648 1.99818   1
   3 -13   0 0.71569 1.76767   6
  -3 -13   0 -0.1487 2.36763   1
   3  13   0 -0.1293 2.76951  11
   3  13   0 2.34008 2.51292   3
  -3  13   0 -0.3761 1.96038   7
  -3  13   0 0.49682 2.19249   3
  10   0  -1 0.70443 2.65089  11
  10   0  -1 0.71289 1.35473   1
 -10   0   1 1.51222 2.00879   5
  10   0  -1 0.86960 1.44333   6
 -10   0   1 7.40358 1.99957   8
  -8   0   1 0.44641 1.42594   5
   8   0  -1 0.40978 1.05417   1
   8   0  -1 5.34346 1.89487  11
   8   0  -1 3.15680 1.24181   6
  -8   0   1 5.47568 1.49324   8
  -6   0   1 0.85186 0.65644   8
  -6   0   1 3.81075 0.83228   2
   6   0  -1 1.41194 1.18520  11
  -6   0   1 4.62952 1.39504   5
   6   0  -1 0.54088 0.67686   6
   6   0  -1 0.87237 0.86712  13
  -6   0   1 4.44869 1.40808   3
   6   0  -1 0.65811 0.75828   1
  -4   0   1 0.60124 0.40955   8
  -4   0   1 0.03197 0.53105   5
  -4   0   1 0.95312 0.56471  12
   4   0  -1 0.95534 0.45778   6
  -4   0   1 0.65260 0.36704   2
  -4   0   1 1.40891 0.46962   1
  -4   0   1 1.35680 0.68684   3
   4   0  -1 0.67082 0.50349   1
   2   0  -1 1.00275 0.30009   6
  -2   0   1 0.79935 0.28935  12
   2   0  -1 0.25909 0.38071  13
   2   0  -1 0.46043 0.31655   1
   0   0   1 2.12855 0.38565  10
   0   0  -1 1.84262 0.31557  10
  -2   0  -1 4.26043 0.68172   8
  -2   0  -1 3.43267 0.56479   2
   2   0   1 4.32393 0.48501   1
   4   0   1 0.85680 0.47897   1
   4   0   1 0.79441 0.35420   6
  -4   0  -1 1.24723 0.54242  14
  -4   0  -1 1.32107 0.85179   5
   4   0   1 1.18251 0.37257   6
  -4   0  -1 0.55886 0.58501   2
   4   0   1 0.87934 0.58134  13
  -4   0  -1 2.05491 0.82135   8
  -6   0  -1 2.42664 1.21397   8
   6   0   1 1.11383 1.45312  11
  -8   0  -1 3.55531 1.99844   5
   8   0   1 0.31545 0.95829   1
   8   0   1 3.57007 1.30241   6
   8   0   1 0.80422 2.08691  11
  -8   0  -1 3.70194 1.81030   8
 -10   0  -1 2.81995 2.15268   8
  10   0   1 4.63597 3.14566  11
 -10   0  -1 1.25454 2.33551   5
  10   0   1 3.84264 1.87817   6
  11  -1  -1 272.693 11.7965  11
 -11  -1   1 270.886 10.3481   8
  11  -1  -1 270.293 9.43614   6
 -11  -1   1 252.065 10.7681   5
  11   1  -1 266.311 9.70246   6
  11   1  -1 260.191 11.6331  11
 -11   1   1 259.509 9.54501   8
  11   1  -1 259.251 9.72627   1
 -11   1   1 261.715 11.2315   5
  -9  -1   1 400.834 12.0222   8
   9  -1  -1 406.557 11.0026   6
  -9  -1   1 386.998 12.4522   5
   9  -1  -1 388.135 12.7636  11
   9  -1  -1 400.683 11.1299   1
   9   1  -1 395.001 11.4729   6
  -9   1   1 396.848 11.4973   8
   9   1  -1 399.818 13.4826  11
  -9   1   1 381.424 12.8245   5
   9   1  -1 383.472 11.6231   1
   7  -1  -1 1176.14 23.7133   1
  -7  -1   1 1160.42 24.9719   5
  -7  -1   1 1207.41 24.5142   8
   7  -1  -1 1102.81 25.2772  13
   7  -1  -1 1112.62 23.0576   6
   7   1  -1 1161.94 25.5240  11
  -7   1   1 1134.07 23.8736   8
   7   1  -1 1123.29 23.8086   6
  -7   1   1 1162.08 25.3071   5
  -7   1   1 1179.55 25.3778   3
   7   1  -1 1132.21 24.2937   1
  -5  -1   1 1351.77 25.6159   2
   5  -1  -1 1305.02 25.7603   1
  -5  -1   1 1302.05 25.4830   1
  -5  -1   1 1364.16 26.6401   5
  -5  -1   1 1339.65 26.2820   8
   5  -1  -1 1348.38 25.3186   6
   5  -1  -1 1343.43 27.4242  13
  -5   1   1 1350.38 24.9967   2
  -5   1   1 1352.03 26.9408   5
   5   1  -1 1285.80 26.2236  13
   5   1  -1 1357.17 26.4997   1
   5   1  -1 1338.67 26.9566  11
  -5   1   1 1353.29 25.9127   8
  -5   1   1 1346.77 26.9667   3
   5   1  -1 1381.18 26.0082   6
   3  -1  -1 5014.38 91.2787   6
  -3  -1   1 5102.34 93.6864   1
  -3  -1   1 4918.28 92.7559  12
  -3  -1   1 4982.03 92.6689   5
   3  -1  -1 4735.73 93.0714   1
   3  -1  -1 4939.10 98.9605  13
   3   1  -1 4835.66 95.7495  13
   3   1  -1 4793.30 93.6437  11
  -3   1   1 4765.77 94.1490   3
   3   1  -1 4878.50 95.0911   1
   3   1  -1 4705.28 91.1981   6
  -3   1   1 4971.41 93.0555   8
  -3   1   1 4938.16 95.4278   5
  -3   1   1 5083.73 93.6180  12
  -1  -1   1 2170.61 43.4013  10
   1  -1  -1 2204.71 44.2245  10
   1  -1  -1 2111.12 43.6675  13
   1   1  -1 2159.48 43.5726  10
  -1   1   1 2148.92 44.6343  10
  -1  -1  -1 7689.24 142.002   8
  -1  -1  -1 7598.63 143.178   2
   1   1   1 7822.63 142.727   1
  -1   1  -1 8029.98 145.182   7
  -1   1  -1 8250.71 145.879   5
  -1   1  -1 8058.93 142.780   8
  -1   1  -1 7937.97 142.639   3
  -1   1  -1 7584.38 142.723  14
  -1   1  -1 7576.54 142.236   4
  -1   1  -1 7196.02 141.432   2
   1   1   1 7544.54 142.092  11
  -3  -1  -1 552.214 11.7543   8
  -3  -1  -1 531.654 11.7927   5
  -3  -1  -1 539.211 11.4453   2
  -3  -1  -1 531.416 10.7666  14
   3  -1   1 544.034 11.7946  13
   3  -1   1 533.594 10.3186   1
  -3   1  -1 538.130 12.1730   5
  -3   1  -1 548.872 11.5558   8
  -3   1  -1 561.163 11.3367   2
   3   1   1 525.728 11.2162   1
   3   1   1 551.206 10.8175   6
  -3   1  -1 542.205 11.7571   3
  -3   1  -1 547.586 10.9844  14
   3   1   1 526.659 10.1347  13
   3   1   1 537.948 11.6426  11
  -3   1  -1 558.995 12.1533   7
  -3   1  -1 534.570 10.8514   4
  -5  -1  -1 2888.10 53.4859   2
  -5  -1  -1 2849.32 52.1833  14
   5  -1   1 2863.36 52.3809   1
   5  -1   1 2671.65 51.7807   6
   5  -1   1 2810.02 53.2817   6
  -5  -1  -1 3072.76 54.3133   8
   5  -1   1 2855.89 54.0805  13
  -5  -1  -1 2901.41 54.6670   5
   5   1   1 2907.68 52.8710   6
   5   1   1 2861.45 54.4723  11
  -5   1  -1 2834.08 52.3097  14
  -5   1  -1 2965.10 55.1549   5
   5   1   1 2853.77 53.3856   1
  -5   1  -1 2906.39 54.5262   3
  -5   1  -1 2947.35 53.9302   8
  -5   1  -1 2877.75 53.1622   2
  -7  -1  -1 142.905 5.43834   2
   7  -1   1 132.822 4.68037   1
   7  -1   1 136.359 6.24432  11
  -7  -1  -1 134.638 6.36668   5
   7  -1   1 133.401 4.47244   6
  -7  -1  -1 132.700 5.92797   8
  -7   1  -1 140.446 6.67060   5
  -7   1  -1 142.715 5.82058   8
   7   1   1 133.322 5.13086   6
   7   1   1 135.067 5.35423   1
   7   1   1 126.637 6.40505  11
  -7   1  -1 125.888 4.88412   2
   9  -1   1 860.392 22.0380  11
   9  -1   1 842.655 18.9713   6
  -9  -1  -1 839.693 22.0616   5
  -9  -1  -1 840.248 21.0000   8
  -9   1  -1 838.407 22.3268   5
  -9   1  -1 840.625 20.5757   8
   9   1   1 847.775 19.7858   6
   9   1   1 819.025 19.6741   1
   9   1   1 840.253 22.3613  11
 -10  -2   1 131.029 6.73869   8
  10  -2  -1 136.997 5.93446   1
 -10  -2   1 133.959 7.19596   5
  10  -2  -1 132.417 7.61761  11
  10  -2  -1 136.424 6.04076   6
  10   2  -1 143.707 8.58047  11
  10   2  -1 141.848 6.80021   6
 -10   2   1 135.869 7.66340   5
  10   2  -1 131.972 6.78595   1
   8  -2  -1 342.351 9.13139   6
  -8  -2   1 340.760 10.7309   5
  -8  -2   1 338.302 9.35381   2
   8  -2  -1 342.721 9.45440   1
  -8  -2   1 347.225 10.4552   8
   8   2  -1 352.475 10.6804   1
  -8   2   1 347.539 9.75554   8
   8   2  -1 341.405 10.2097   6
  -8   2   1 345.543 11.3866   5
  -8   2   1 360.538 11.3640   3
   8   2  -1 339.842 11.6628  11
   6  -2  -1 429.266 9.66839   6
  -6  -2   1 421.170 10.8736   5
   6  -2  -1 429.555 10.0486   1
  -6  -2   1 427.373 10.2200   2
   6  -2  -1 418.547 12.0272  13
  -6  -2   1 428.794 10.8426   8
  -6   2   1 433.886 11.4083   3
   6   2  -1 435.776 10.7302   6
   6   2  -1 435.961 11.7631  11
  -6   2   1 434.985 11.6120   5
   6   2  -1 429.790 11.1433   1
  -6   2   1 441.270 10.2560   8
  -4  -2   1 1302.52 24.6949  12
  -4  -2   1 1323.06 24.9206   8
   4  -2  -1 1257.71 26.0790  13
   4  -2  -1 1264.07 23.6301   6
   4  -2  -1 1245.63 24.2005   1
  -4  -2   1 1301.99 24.6220   5
  -4  -2   1 1269.74 24.5784   1
  -4   2   1 1282.06 25.2664   5
  -4   2   1 1279.42 25.1679   3
   4   2  -1 1273.02 25.2220  11
  -4   2   1 1280.23 24.0191   8
   4   2  -1 1284.50 24.5762  13
   4   2  -1 1239.02 25.1235   1
   4   2  -1 1299.12 24.6892   6
   2  -2  -1 2789.11 58.4547  10
  -2  -2   1 2731.45 52.1761  12
  -2  -2   1 2830.09 53.4304   1
   2  -2  -1 2878.54 53.6393  13
   2  -2  -1 2745.57 54.2636   1
   2  -2  -1 2737.04 53.2977   6
   2   2  -1 2770.92 54.1871   6
  -2   2   1 2814.39 53.7312   3
   2   2  -1 2800.76 53.3512  11
  -2   2   1 2880.49 53.3718  12
  -2   2   1 2773.64 53.8971   7
  -2   2   1 2779.20 54.2796   9
   2   2  -1 2812.92 53.9924   1
   0  -2  -1 2853.22 57.6778   1
   0  -2  -1 3070.14 60.7706  10
   0  -2   1 3016.57 55.1578   6
   0  -2   1 2930.90 56.7780   1
   0  -2  -1 2954.25 59.7744  13
   0   2   1 3012.83 58.4161   1
   0   2  -1 3041.76 55.5663  11
   0   2  -1 3181.66 57.8450   3
   0   2  -1 2881.03 59.0904   7
   0   2  -1 3054.79 55.5197  14
   0   2   1 3040.64 57.2683  11
   0   2  -1 2874.30 57.3909   4
   0   2   1 2977.48 57.6437   9
   0   2   1 2986.30 60.6402  10
  -2  -2  -1 3258.61 62.0954   2
  -2  -2  -1 3337.84 60.7082   8
  -2  -2  -1 3185.77 58.2622   1
  -2  -2  -1 3361.94 63.3703   5
  -2   2  -1 3088.16 58.4116   3
  -2   2  -1 3291.46 61.9756   2
  -2   2  -1 3149.43 60.0608   4
   2   2   1 3181.85 62.2643   6
  -2   2  -1 3271.00 59.8964  14
  -2   2  -1 3212.88 61.6164   8
  -2   2  -1 3293.59 63.8199   5
  -2   2  -1 3253.20 62.1245   7
   2   2   1 3211.57 65.2732   1
   2   2   1 3208.64 58.5697  11
  -4  -2  -1 1176.99 22.6331  14
  -4  -2  -1 1219.81 24.1069   8
   4  -2   1 1187.28 24.6269  13
  -4  -2  -1 1192.36 23.6938   2
  -4  -2  -1 1175.71 22.7934   1
   4  -2   1 1188.21 21.9897   1
  -4  -2  -1 1173.29 23.9067   5
  -4   2  -1 1190.92 22.9602  14
  -4   2  -1 1208.43 23.1793   4
   4   2   1 1189.54 24.2447  11
   4   2   1 1221.21 23.2952   6
  -4   2  -1 1184.29 24.0322   3
  -4   2  -1 1207.67 24.7643   5
   4   2   1 1163.42 23.7894   1
  -4   2  -1 1228.36 23.6245   8
  -4   2  -1 1210.09 25.0956   7
  -4   2  -1 1184.84 23.1687   2
  -6  -2  -1 691.635 16.4395   5
   6  -2   1 654.980 13.8878   1
   6  -2   1 649.371 16.2478  13
   6  -2   1 676.952 13.3417   6
  -6  -2  -1 669.255 15.9463   8
  -6  -2  -1 669.361 15.4593   2
  -6   2  -1 689.138 16.9965   5
  -6   2  -1 675.638 14.7526   2
   6   2   1 676.784 15.7636   1
   6   2   1 687.811 15.2550   6
  -6   2  -1 670.314 15.4616   8
  -6   2  -1 697.194 16.4677   3
   6   2   1 684.745 16.8377  11
   8  -2   1 458.434 13.6045  11
  -8  -2  -1 454.231 13.4042   8
  -8  -2  -1 457.486 12.3981   2
   8  -2   1 460.985 10.8967   6
  -8  -2  -1 440.647 13.5066   5
  -8   2  -1 458.939 14.3908   5
  -8   2  -1 468.945 14.0084   3
   8   2   1 446.993 12.4611   6
   8   2   1 444.344 14.3644  11
  -8   2  -1 458.835 12.6546   8
   8   2   1 441.753 12.5706   1
  10  -2   1 168.681 6.57307   6
 -10  -2  -1 171.587 8.08102   8
  10  -2   1 155.482 8.52123  11
  10   2   1 169.921 9.16110  11
 -10   2  -1 165.461 9.18707   5
  10   2   1 162.378 7.32863   1
  10   2   1 169.135 7.53728   6
  11  -3  -1 79.5705 4.68748   6
 -11  -3   1 76.9866 5.96361   8
  11  -3  -1 82.6374 6.82291  11
 -11   3   1 68.1803 6.27659   5
  11   3  -1 86.5387 5.59010   6
  11   3  -1 77.8046 5.70957   1
  11   3  -1 66.8847 6.38964  11
  -9  -3   1 1233.54 27.8525   8
  -9  -3   1 1118.37 27.3905   5
   9  -3  -1 1237.31 25.5389   6
  -9  -3   1 1200.12 26.1750   2
   9   3  -1 1260.60 30.0487  11
  -9   3   1 1265.63 28.7900   3
  -9   3   1 1199.55 28.8736   5
   9   3  -1 1240.06 28.1229   1
   9   3  -1 1243.07 27.6849   6
   7  -3  -1 190.757 5.71187   6
  -7  -3   1 197.388 6.55335   2
   7  -3  -1 207.756 6.08303   1
  -7  -3   1 185.009 6.71264   5
  -7  -3   1 193.694 6.97683   8
   7  -3  -1 184.526 8.03885  13
   7   3  -1 187.176 7.64540  11
   7   3  -1 194.697 6.86603   6
  -7   3   1 187.468 6.04406   8
  -7   3   1 201.512 7.58507   3
   7   3  -1 207.210 7.51918   1
  -7   3   1 205.472 7.78598   5
  -5  -3   1 2510.20 47.2190   8
  -5  -3   1 2544.64 46.6835   5
   5  -3  -1 2461.82 45.4874   6
   5  -3  -1 2522.12 46.1853   1
  -5  -3   1 2447.88 46.8088   1
   5  -3  -1 2502.83 49.2182  13
  -5   3   1 2510.54 47.8229   5
   5   3  -1 2497.15 47.8357   1
   5   3  -1 2471.24 46.9612   6
   5   3  -1 2519.61 47.9659  11
  -5   3   1 2532.58 47.6452   3
  -5   3   1 2490.06 45.9043   8
  -3  -3   1 958.040 18.7752   6
   3  -3  -1 967.865 18.8693   1
  -3  -3   1 977.109 18.4055   5
  -3  -3   1 952.092 19.4032   1
   3  -3  -1 980.463 18.3839   6
   3  -3  -1 1002.53 20.9272  13
   3  -3  -1 992.389 20.6631  10
  -3  -3   1 997.976 19.0190  12
   3   3  -1 958.667 19.5354  11
  -3   3   1 973.275 19.4499   3
  -3   3   1 961.071 20.8952   7
   3   3  -1 1012.58 19.2415   6
  -3   3   1 982.526 19.3622   9
   3   3  -1 969.586 18.0277   4
  -3   3   1 992.086 19.5097   5
   3   3  -1 976.225 19.7894   1
   1  -3  -1 2966.24 59.1463  10
   1  -3  -1 2984.32 56.9698   6
   1  -3  -1 2800.96 61.0312  13
  -1  -3   1 3064.85 55.6340  12
  -1  -3   1 2928.07 56.5826   1
  -1  -3   1 2906.14 56.7640   6
   1  -3  -1 2855.27 56.4467   1
   1   3  -1 3026.72 57.1329  11
  -1   3   1 2836.89 55.9247   3
  -1   3   1 2960.16 56.7896   9
   1   3  -1 2884.44 56.8397   1
  -1   3   1 3048.65 60.9566  10
   1   3  -1 2891.54 56.6994   4
  -1   3   1 2901.33 58.0269   7
   1   3  -1 2915.13 57.8546   7
   1   3  -1 2957.19 56.9496  10
  -1   3   1 2981.29 55.4728   1
  -1  -3  -1 2770.62 52.7173   1
  -1  -3  -1 2693.98 54.0832  13
   1  -3   1 2796.14 50.6411   6
   1  -3   1 2788.15 50.7136   6
  -1  -3  -1 2716.75 51.7062   8
   1  -3   1 2647.99 53.8919   1
  -1   3  -1 2854.63 53.1716  14
  -1   3  -1 2886.05 50.3440   3
   1   3   1 2859.96 61.0577  10
   1   3   1 2820.39 52.5720  11
  -1   3  -1 2781.36 50.7057   4
   1   3   1 2803.80 53.0624   6
   1   3   1 2797.28 51.9758   9
  -1   3  -1 2747.54 51.5517   7
  -1   3  -1 2772.07 52.2795   5
   1   3   1 2779.86 53.2012   1
  -3  -3  -1 2641.85 49.4222   8
  -3  -3  -1 2654.57 48.8110   5
   3  -3   1 2628.99 49.6989   1
  -3  -3  -1 2624.60 49.1095   1
  -3  -3  -1 2653.93 49.4023   2
   3   3   1 2663.97 49.8331   1
  -3   3  -1 2678.16 48.7274   8
  -3   3  -1 2642.42 49.0757  14
  -3   3  -1 2665.14 50.1221   5
   3   3   1 2717.14 49.2245   6
  -3   3  -1 2702.82 48.7847   2
  -3   3  -1 2726.90 49.5200   3
  -3   3  -1 2713.08 50.9401   7
   3   3   1 2661.01 49.7265  11
  -3   3  -1 2653.88 49.2667   4
  -5  -3  -1 987.465 21.2215   5
  -5  -3  -1 1018.01 21.7665   8
  -5  -3  -1 1037.98 21.4312   2
   5  -3   1 975.493 19.1227   1
  -5  -3  -1 990.047 19.8980  14
   5  -3   1 1016.61 22.8143  13
  -5   3  -1 1026.52 20.4395   2
  -5   3  -1 1044.66 23.3370   7
   5   3   1 970.955 21.0416   6
  -5   3  -1 1021.92 22.5178   5
  -5   3  -1 1003.47 20.3732  14
  -5   3  -1 1054.44 21.8955   3
   5   3   1 1004.23 22.3002  11
   5   3   1 1020.12 21.8108   1
  -5   3  -1 1026.82 20.9176   8
  -7  -3  -1 1090.52 24.6265   5
  -7  -3  -1 1093.96 24.8163   8
  -7  -3  -1 1124.81 24.1432   2
   7  -3   1 1100.78 21.3593   6
  -7   3  -1 1100.44 23.6953   8
  -7   3  -1 1105.81 25.9374   5
   7   3   1 1094.95 25.9816  11
   7   3   1 1080.23 24.0482   6
  -7   3  -1 1108.17 25.0140   3
   7   3   1 1127.89 24.7456   1
   9  -3   1 222.322 6.87040   6
  -9  -3  -1 227.572 9.44612   8
   9  -3   1 215.165 9.40353  11
  -9  -3  -1 230.020 8.46131   2
   9   3   1 210.011 10.2791  11
   9   3   1 219.233 8.71331   1
  -9   3  -1 221.913 10.0733   5
   9   3   1 229.414 8.80503   6
 -10  -4   1 94.9971 5.93627   8
  10  -4  -1 100.904 4.97684   6
  10  -4  -1 112.609 7.07562  11
  10   4  -1 103.770 6.27715   1
 -10   4   1 95.4822 6.83180   5
  10   4  -1 103.065 6.22952   6
  10   4  -1 104.212 7.98497  11
 -10   4   1 102.106 6.85006   3
  -8  -4   1 289.815 9.90596   8
   8  -4  -1 295.187 8.10006   6
  -8  -4   1 290.067 9.16447   2
   8  -4  -1 271.508 11.0931  13
   8  -4  -1 288.896 8.15952   1
   8   4  -1 289.810 10.3291   1
  -8   4   1 301.779 10.4411   3
   8   4  -1 286.598 9.73709   6
  -8   4   1 279.543 10.4223   5
   8   4  -1 289.860 11.1066  11
  -6  -4   1 101.179 4.15158   5
   6  -4  -1 105.807 3.95025   1
   6  -4  -1 103.687 3.58780   6
  -6  -4   1 109.183 4.86287   8
  -6  -4   1 106.604 4.41477   1
   6  -4  -1 104.623 5.94738  13
   6   4  -1 111.190 4.83866   6
  -6   4   1 108.345 5.16311   3
   6   4  -1 109.900 5.35582  11
   6   4  -1 100.863 5.14152   1
  -6   4   1 104.873 5.15867   5
  -4  -4   1 350.844 7.91748   5
  -4  -4   1 363.154 9.22035   1
   4  -4  -1 366.996 7.99440   6
  -4  -4   1 352.742 8.94426   8
   4  -4  -1 360.749 10.6869  13
   4  -4  -1 361.990 8.40372   1
  -4   4   1 354.303 9.23759   5
   4   4  -1 356.933 8.95949   6
   4   4  -1 366.394 9.56946  11
  -4   4   1 358.449 10.8517   7
  -4   4   1 367.153 7.53810   8
  -4   4   1 382.928 9.47400   3
   4   4  -1 347.435 9.21694   7
   4   4  -1 354.780 9.62523   1
  -2  -4   1 281.062 6.22068  12
   2  -4  -1 270.394 6.95375  10
  -2  -4   1 279.786 6.63350   6
   2  -4  -1 279.090 6.38645   6
   2  -4  -1 281.213 8.12776  13
  -2  -4   1 279.760 7.18682   1
   2   4  -1 271.783 6.54901   6
  -2   4   1 278.306 6.58981   9
  -2   4   1 276.142 6.38138   1
  -2   4   1 274.483 8.03362   7
  -2   4   1 276.797 6.60724   5
   2   4  -1 284.820 7.20334   1
   2   4  -1 278.306 7.12353  11
   2   4  -1 278.306 7.36898   7
  -2   4   1 286.680 7.01376   3
   2   4  -1 287.831 6.47818   4
   0  -4  -1 3.77508 0.85535  13
   0  -4  -1 3.92440 0.79983   1
   0  -4   1 4.54533 0.75216   1
   0  -4  -1 4.86269 0.72980   6
   0  -4  -1 6.60698 0.59568   8
   0  -4   1 4.35304 0.63785   6
   0   4   1 4.48785 0.87159   1
   0   4  -1 4.28964 0.92491   4
   0   4   1 3.85133 0.66389  10
   0   4   1 5.37538 0.77864   9
   0   4  -1 5.63788 0.77003   1
   0   4  -1 3.94717 0.76210   3
   0   4  -1 4.77618 0.89485  11
   0   4   1 6.05964 1.01441  11
  -2  -4  -1 221.599 5.26700  13
   2  -4   1 224.123 5.27304   1
   2  -4   1 227.544 4.56973   6
   2  -4   1 230.203 4.57891   6
  -2  -4  -1 217.101 6.27867   1
  -2  -4  -1 227.175 5.99921   8
  -2   4  -1 232.107 7.32536   7
   2   4   1 228.594 5.57225   7
  -2   4  -1 230.729 6.39530   5
  -2   4  -1 235.119 6.13151   3
   2   4   1 237.808 7.02958  10
  -2   4  -1 234.444 5.32734   8
   2   4   1 236.498 6.14854   6
  -2   4  -1 234.902 6.44231   4
   2   4   1 228.091 6.42834  11
   2   4   1 260.630 6.86411   1
   4  -4   1 4.69221 1.53193  13
  -4  -4  -1 1.95505 0.69765   5
  -4  -4  -1 1.21196 0.71952   8
   4  -4   1 3.90277 0.60645   1
  -4  -4  -1 1.87805 0.83686   1
  -4  -4  -1 2.94633 1.14994   2
  -4   4  -1 1.35063 0.83543   5
   4   4   1 0.81253 0.79303   6
  -4   4  -1 8.49973 1.16723   2
  -4   4  -1 5.85311 1.05266   8
   4   4   1 2.30567 1.41958  11
  -4   4  -1 1.79146 1.25708   7
  -4   4  -1 1.95979 1.04169   3
  -4   4  -1 1.87837 0.97016   4
  -6  -4  -1 27.9956 3.02217   2
   6  -4   1 26.9760 1.32096   6
  -6  -4  -1 25.1725 2.87554   8
   6  -4   1 25.5581 3.12863  13
  -6   4  -1 24.4198 2.15669   8
  -6   4  -1 35.7285 3.51773   5
  -6   4  -1 31.3284 3.07531   3
   6   4   1 26.3536 3.51915  11
   6   4   1 22.9713 2.65429   6
   6   4   1 34.1717 3.22978   1
  -8  -4  -1 38.8525 4.27193   8
   8  -4   1 35.3886 2.31044   6
  -8  -4  -1 38.3959 3.66882   2
   8   4   1 37.1914 4.15835   1
   8   4   1 43.4310 3.96896   6
  -8   4  -1 43.6788 4.56433   3
   8   4   1 40.2074 5.02118  11
  -8   4  -1 37.5785 4.51428   5
 -10  -4  -1 0.09992 2.16042   8
  10  -4   1 3.34423 2.79208  11
  10  -4   1 4.20102 1.48937   6
  10   4   1 0.89875 1.90179   1
  10   4   1 -0.8368 3.10454  11
 -10   4  -1 3.08499 2.76010   5
  10   4   1 1.95355 1.89997   6
  -9  -5   1 224.402 9.21866   8
  -9  -5   1 230.835 8.69516   2
   9  -5  -1 240.448 7.54691   6
   9   5  -1 240.521 10.0633   1
   9   5  -1 226.612 10.9430  11
  -9   5   1 244.956 10.0947   5
  -9   5   1 237.388 9.76087   3
   9   5  -1 213.971 9.16779   6
   7  -5  -1 758.494 16.9132   1
   7  -5  -1 778.761 16.6862   6
  -7  -5   1 798.610 18.5435   2
   7  -5  -1 770.578 21.3737  13
  -7  -5   1 787.907 18.9055   8
  -7   5   1 776.890 19.6214   5
  -7   5   1 814.706 19.6102   3
   7   5  -1 787.994 20.3087  11
   7   5  -1 770.598 18.9209   6
   7   5  -1 781.746 19.8254   1
   5  -5  -1 1067.73 25.3042  13
   5  -5  -1 1074.57 21.6159   1
   5  -5  -1 1066.15 21.1031   6
  -5  -5   1 1047.70 22.7035   1
  -5  -5   1 1098.20 22.7668   8
   5   5  -1 1078.04 22.8545   7
   5   5  -1 1040.74 22.5864   6
  -5   5   1 1057.08 23.1046   5
  -5   5   1 1082.28 23.1504   3
   5   5  -1 1067.03 23.6791   1
   5   5  -1 1096.80 23.6753  11
  -3  -5   1 3052.96 55.1171   8
   3  -5  -1 3031.12 57.8678  13
   3  -5  -1 3014.34 56.6380   6
  -3  -5   1 2913.19 54.7500   6
   3  -5  -1 3053.30 55.0980   1
   3  -5  -1 2879.26 55.7043  10
  -3  -5   1 2997.11 55.8810   1
  -3   5   1 2930.99 54.8285   9
   3   5  -1 3017.32 55.8672  11
  -3   5   1 3057.40 55.5839   3
  -3   5   1 2996.15 57.8446   7
  -3   5   1 2883.40 55.0947   5
   3   5  -1 2952.39 55.0218   6
   3   5  -1 2923.09 54.0525   4
   3   5  -1 3041.86 56.1986   1
   3   5  -1 3004.58 56.0126   7
   1  -5  -1 1976.90 40.2904  10
  -1  -5   1 2099.18 38.5123   6
  -1  -5   1 1995.53 37.1726  12
   1  -5  -1 2118.80 40.4701  13
   1  -5  -1 2051.89 39.1921   1
  -1  -5   1 2113.06 39.2635   1
   1  -5  -1 2051.04 38.4913   6
   1   5  -1 2088.32 39.1218  11
  -1   5   1 2089.03 38.1708   9
   1   5  -1 2095.93 40.1413   7
  -1   5   1 2066.75 37.7721   5
  -1   5   1 2055.28 40.3012   7
  -1   5   1 2082.64 38.6577   1
  -1   5   1 2109.20 39.1753  11
  -1   5   1 2064.10 39.0079   3
   1   5  -1 2102.53 38.8795   1
   1   5  -1 2078.51 38.8072   4
  -1   5   1 2083.85 40.6145  10
   1  -5   1 2804.97 52.6939   1
   1  -5   1 2926.93 55.3925   6
  -1  -5  -1 2850.97 52.3632   8
  -1  -5  -1 2911.67 53.7958   1
  -1  -5  -1 2871.00 53.2811  13
  -1  -5  -1 2829.55 52.8218   6
   1   5   1 2898.14 52.6111   9
   1   5   1 3026.65 53.9493   1
   1   5   1 2852.62 59.2549  10
  -1   5  -1 2859.16 53.6239   4
   1   5   1 2868.33 53.4575  11
  -1   5  -1 2862.06 54.9713   7
  -1   5  -1 2890.15 52.9895   3
   1   5   1 2852.26 52.7750   6
   1   5   1 2880.91 53.4451   7
  -1   5  -1 2949.88 52.7957   5
  -3  -5  -1 737.735 15.7186   8
   3  -5   1 687.240 14.3144   1
   3  -5   1 691.288 13.6307   6
  -3  -5  -1 708.897 13.9438  13
  -3  -5  -1 709.207 15.9806   1
   3  -5   1 709.298 13.6698   6
  -3   5  -1 733.660 16.2602   5
   3   5   1 716.270 15.7717   6
  -3   5  -1 751.094 15.9307   3
  -3   5  -1 732.278 17.9068   7
   3   5   1 727.488 16.4446  11
   3   5   1 740.813 16.7683   1
  -3   5  -1 709.934 16.1896   4
   3   5   1 729.309 17.2902  10
  -3   5  -1 709.621 14.2756   8
  -5  -5  -1 855.554 19.5076   1
   5  -5   1 909.690 22.4287  13
  -5  -5  -1 907.813 20.3186   2
  -5  -5  -1 906.454 20.4297   8
   5  -5   1 907.723 17.0543   6
   5  -5   1 878.300 17.6533   1
  -5   5  -1 938.749 20.5187   3
  -5   5  -1 914.657 22.6203   7
   5   5   1 907.748 21.3143  11
   5   5   1 918.810 21.3094   1
  -5   5  -1 925.606 21.2024   5
   5   5   1 918.391 20.3816   6
  -7  -5  -1 206.708 8.38652   8
  -7  -5  -1 208.317 8.10148   2
   7  -5   1 205.071 5.57207   6
   7  -5   1 257.729 10.2470  13
   7   5   1 211.376 8.77383   1
   7   5   1 200.357 8.92999  11
  -7   5  -1 214.583 8.49166   3
  -7   5  -1 207.811 8.90515   5
   7   5   1 205.310 8.14984   6
  -9  -5  -1 378.556 13.1074   8
   9  -5   1 380.332 9.71092   6
  -9  -5  -1 402.843 12.5590   2
  -9   5  -1 382.804 13.1376   3
   9   5   1 370.825 14.1603  11
  -9   5  -1 364.295 13.6491   5
   9   5   1 372.452 13.1567   1
  10  -6  -1 124.592 5.71555   6
 -10  -6   1 124.496 7.37139   8
 -10   6   1 118.862 7.37127   3
  10   6  -1 124.791 8.83560  11
 -10   6   1 119.767 7.40115   5
  10   6  -1 130.429 7.64655   1
  -8  -6   1 60.4506 4.54710   8
   8  -6  -1 61.2064 5.93780  13
   8  -6  -1 70.7638 3.66992   6
  -8  -6   1 62.5174 4.28853   2
  -8   6   1 67.7674 5.39616   5
   8   6  -1 72.4330 5.68937  11
  -8   6   1 67.9202 5.14048   3
   8   6  -1 63.1857 5.31728   1
   8   6  -1 66.3399 4.91888   6
   6  -6  -1 330.099 12.3683  13
   6  -6  -1 331.924 8.83656   1
  -6  -6   1 326.242 9.93214   1
   6  -6  -1 328.772 8.50082   6
  -6  -6   1 352.104 10.2964   8
   6   6  -1 329.811 11.0281   1
  -6   6   1 336.543 10.4916   5
  -6   6   1 336.475 10.4079   3
   6   6  -1 339.437 11.0505  11
   6   6  -1 332.204 10.1579   6
   4  -6  -1 103.375 5.96308  13
  -4  -6   1 100.756 4.25105   8
   4  -6  -1 95.1899 3.71071   6
  -4  -6   1 105.546 4.71270   1
   4  -6  -1 104.652 4.14167   1
   4   6  -1 107.846 5.15158  11
  -4   6   1 102.744 4.66181   3
  -4   6   1 107.591 4.57502   5
  -4   6   1 107.367 6.04572   7
   4   6  -1 100.883 4.31258   6
   4   6  -1 99.7358 4.59245   7
   4   6  -1 118.160 5.14913   1
  -2  -6   1 79.9613 3.33185   6
   2  -6  -1 72.7420 3.12722  10
   2  -6  -1 74.5618 3.51382   1
   2  -6  -1 75.5849 3.20208   6
  -2  -6   1 73.2999 3.65430   1
   2  -6  -1 85.5747 4.75565  13
  -2  -6   1 76.7791 3.08233   8
  -2   6   1 73.8401 3.01891   5
   2   6  -1 75.1774 2.53350  10
   2   6  -1 74.0640 3.87616   7
   2   6  -1 73.1779 3.59150   1
   2   6  -1 73.0626 2.45361  10
   2   6  -1 86.1608 3.36070   4
   2   6  -1 73.8206 3.57268  11
  -2   6   1 72.6309 2.90490   1
  -2   6   1 76.9130 3.60301   3
  -2   6   1 71.5824 4.35777   7
  -2   6   1 82.0517 3.06586   9
   0  -6   1 222.292 5.94630   6
   0  -6  -1 216.828 6.71321   1
   0  -6  -1 214.685 6.09478   6
   0  -6  -1 221.736 7.10694  13
   0  -6   1 205.289 6.23254   1
   0  -6  -1 209.814 4.97269   8
   0   6   1 216.225 5.35397  10
   0   6  -1 218.259 6.18213   3
   0   6   1 209.246 5.54746   9
   0   6  -1 218.661 6.51126  11
   0   6  -1 222.698 6.56411   4
   0   6   1 218.329 6.54041  11
   0   6   1 212.311 7.02591   7
   0   6   1 207.692 6.33228   1
   0   6  -1 212.699 5.08197   5
   0   6  -1 211.366 5.73956   1
   0   6  -1 215.142 7.49515   7
  -2  -6  -1 12.7064 1.80726   1
   2  -6   1 10.6779 1.38808   1
  -2  -6  -1 15.2466 1.67005   8
   2  -6   1 8.28139 0.97569  10
   2  -6   1 11.2868 1.14079   6
  -2  -6  -1 8.57869 1.21630  13
  -2   6  -1 12.8043 1.73251   3
   2   6   1 10.8714 1.56408  10
  -2   6  -1 20.2374 2.37631   4
   2   6   1 8.91324 1.34390   9
   2   6   1 9.78808 1.45560   6
   2   6   1 8.66190 1.37155   7
   2   6   1 10.5801 1.67732   1
  -2   6  -1 9.09211 1.92132   7
  -2   6  -1 16.9457 1.71213   5
   2   6   1 8.65257 1.76695  11
  -4  -6  -1 59.1904 3.41406   8
  -4  -6  -1 58.3628 3.55636   2
   4  -6   1 57.2509 2.27022   6
   4  -6   1 55.1633 2.52001   1
  -4  -6  -1 55.3620 3.37278   1
   4  -6   1 61.4172 4.66782  13
   4   6   1 58.0922 3.54762   6
   4   6   1 60.1396 3.55708   9
   4   6   1 57.2660 4.29418  10
  -4   6  -1 59.6092 4.76425   7
   4   6   1 60.1439 3.98600   1
   4   6   1 53.5705 4.07291  11
  -4   6  -1 61.8469 3.87381   5
  -4   6  -1 68.1329 3.87820   3
  -6  -6  -1 18.5285 2.90572   8
   6  -6   1 19.2633 1.51955   6
   6  -6   1 26.6021 3.91182  13
  -6  -6  -1 16.8657 2.56190   2
  -6   6  -1 16.8713 3.45950   7
   6   6   1 18.3516 2.59240   6
  -6   6  -1 20.8362 3.05771   3
   6   6   1 18.5220 3.09168   1
   6   6   1 15.8582 3.29329  11
  -6   6  -1 21.5603 3.22122   5
   6   6   1 13.5595 2.94432  10
  -8  -6  -1 2.79223 2.03907   2
   8  -6   1 1.78227 0.95898   6
  -8  -6  -1 3.85131 2.40604   8
   8   6   1 7.72032 2.66924   1
  -8   6  -1 2.27481 2.08749   3
  -8   6  -1 1.57935 2.14297   5
   8   6   1 2.24729 1.49179   6
   8   6   1 -4.1347 2.48031  11
  -9  -7   1 172.073 8.58862   8
  -9  -7   1 171.333 8.10407   2
   9  -7  -1 182.311 6.64691   6
   9   7  -1 171.534 9.60732  11
  -9   7   1 181.681 9.11219   5
   9   7  -1 178.472 9.02077   1
  -9   7   1 174.517 8.67733   3
  -7  -7   1 961.410 22.3963   2
   7  -7  -1 896.194 20.0090   1
   7  -7  -1 945.473 20.0687   6
  -7  -7   1 922.291 22.2621   8
   7  -7  -1 908.612 25.7021  13
   7   7  -1 932.676 23.9172   1
  -7   7   1 944.453 22.6867   3
   7   7  -1 899.181 23.8045  11
  -7   7   1 936.345 22.8605   5
  -5  -7   1 165.529 6.76588   1
   5  -7  -1 162.133 8.40529  13
   5  -7  -1 178.575 5.96563   1
   5  -7  -1 188.174 5.85443   6
  -5  -7   1 168.811 6.51338   8
  -5   7   1 165.418 6.65746   5
  -5   7   1 165.928 6.67612   3
   5   7  -1 167.429 7.35861  11
  -5   7   1 172.186 8.60270   7
   5   7  -1 161.310 7.21656   1
  -3  -7   1 1201.04 25.6306   1
  -3  -7   1 1169.78 24.0455   8
   3  -7  -1 1182.36 24.6227   1
   3  -7  -1 1216.20 27.8937  13
  -3  -7   1 1161.13 24.2724   6
  -3   7   1 1209.55 25.1074   3
   3   7  -1 1182.10 25.5910   1
  -3   7   1 1146.18 24.0828   5
   3   7  -1 1201.87 25.4346  11
  -3   7   1 1162.20 27.4868   7
   3   7  -1 1193.68 25.7893   7
   1  -7  -1 340.084 8.89744   6
  -1  -7   1 342.850 8.88261   6
   1  -7  -1 361.520 10.8537  13
  -1  -7   1 342.863 9.61290   1
   1  -7  -1 339.882 9.57249   1
  -1  -7   1 333.116 7.95645   8
   1   7  -1 344.468 8.98986   1
  -1   7   1 347.909 9.45308   3
   1   7  -1 346.813 9.22089   4
   1   7  -1 329.052 10.3477   7
   1   7  -1 348.772 9.50626  11
  -1   7   1 323.141 7.92893   9
  -1   7   1 336.578 8.79015   1
  -1   7   1 342.928 10.6946   7
  -1  -7  -1 1671.89 33.8871   1
  -1  -7  -1 1656.57 32.5653   6
  -1  -7  -1 1623.34 31.4722   8
  -1  -7  -1 1710.56 33.6880  13
   1  -7   1 1690.99 32.1700   6
   1  -7   1 1623.94 32.6315   1
   1   7   1 1663.34 31.7326   9
  -1   7  -1 1643.02 32.7198   3
   1   7   1 1692.15 33.5960   1
   1   7   1 1705.74 33.6003  11
  -1   7  -1 1645.79 35.3411   7
  -1   7  -1 1687.59 33.6970   4
   1   7   1 1635.77 33.7523   7
  -3  -7  -1 660.255 16.0096   1
   3  -7   1 658.944 18.0704  13
   3  -7   1 629.778 13.5923   6
   3  -7   1 641.633 14.1753   1
  -3  -7  -1 622.500 14.7180   8
   3   7   1 622.213 17.6973  10
  -3   7  -1 639.898 17.7597   7
  -3   7  -1 640.559 15.3046   5
   3   7   1 653.007 16.3440   1
  -3   7  -1 634.099 15.0837   3
   3   7   1 623.085 14.5556   9
   3   7   1 641.763 15.9814  11
   5  -7   1 1382.84 26.4505   6
  -5  -7  -1 1417.23 29.7388   2
  -5  -7  -1 1377.55 29.2631   8
  -5  -7  -1 1339.39 29.1424   1
   5  -7   1 1339.35 32.3786  13
  -5   7  -1 1299.13 29.0618   3
   5   7   1 1395.14 30.7175  11
  -5   7  -1 1341.11 32.2437   7
   5   7   1 1340.16 30.6859   1
   5   7   1 1352.25 29.4141   6
  -5   7  -1 1427.42 30.2393   5
   5   7   1 1317.76 29.0335   9
   7  -7   1 341.812 13.7690  13
  -7  -7  -1 355.598 11.7623   2
  -7  -7  -1 352.282 11.8904   8
   7  -7   1 355.187 8.79617   6
   7   7   1 324.641 12.7595  11
  -7   7  -1 361.613 12.4449   5
   7   7   1 350.459 11.7802   6
   7   7   1 330.391 11.7505   9
  -7   7  -1 350.986 11.5149   3
   7   7   1 347.443 12.7329   1
  -9  -7  -1 417.824 13.7481   2
  -9  -7  -1 429.418 14.3102   8
   9  -7   1 429.593 10.6786   6
  -9   7  -1 418.908 13.9919   3
  -9   7  -1 419.944 15.1175   5
   9   7   1 416.857 14.9985   1
   9   7   1 440.567 16.2670  11
  -8  -8   1 37.7922 4.49116   8
   8  -8  -1 36.9176 3.06444   6
  -8  -8   1 41.6993 4.76835   2
   8   8  -1 34.3205 4.89189   1
  -8   8   1 42.0547 4.96139   3
  -8   8   1 33.2439 4.26512   5
   8   8  -1 39.7618 5.17008  11
  -6  -8   1 417.144 12.6449   1
   6  -8  -1 407.529 15.4689  13
  -6  -8   1 433.499 12.5520   8
   6  -8  -1 420.014 11.2080   1
   6  -8  -1 419.851 11.0418   6
  -6   8   1 425.980 13.0195   3
   6   8  -1 425.503 14.0386   1
   6   8  -1 419.506 13.8795  11
  -6   8   1 403.895 12.5210   5
   4  -8  -1 251.886 8.03416   1
   4  -8  -1 260.502 7.81214   6
  -4  -8   1 258.275 7.98879   8
  -4  -8   1 258.572 9.15498   1
   4  -8  -1 251.871 10.8275  13
  -4   8   1 250.296 10.7770   7
   4   8  -1 264.223 9.32521   1
  -4   8   1 250.857 8.64452   3
   4   8  -1 255.168 9.06559  11
  -4   8   1 260.561 8.22918   5
   4   8  -1 251.751 9.81999   7
  -2  -8   1 466.892 12.6283   1
   2  -8  -1 440.297 13.9168  13
   2  -8  -1 443.160 11.9805   1
  -2  -8   1 431.649 11.3971   6
  -2  -8   1 434.189 10.5378   8
  -2   8   1 440.712 13.9597   7
  -2   8   1 471.298 12.1627   3
   2   8  -1 437.607 11.8648   1
   2   8  -1 447.870 12.2557  11
   2   8  -1 433.058 12.8917   7
   0  -8   1 1007.95 21.8496   6
   0  -8   1 1029.60 22.7699   1
   0  -8  -1 1050.61 22.3106   6
   0  -8  -1 1057.96 24.1725  13
   0  -8  -1 1076.37 23.5629   1
   0   8   1 1063.66 23.1103  11
   0   8   1 1024.12 22.4705   1
   0   8  -1 1054.21 22.5508   3
   0   8  -1 1078.67 23.1066  11
   0   8   1 1023.79 24.1058   7
   0   8  -1 1045.55 24.8803   7
   0   8   1 1067.24 23.1682   3
   2  -8   1 334.180 9.25795   1
  -2  -8  -1 330.383 10.4367   1
   2  -8   1 318.936 8.57820   6
   2   8   1 330.013 10.2454  11
   2   8   1 330.282 10.3371   1
  -2   8  -1 317.207 11.6520   7
  -2   8  -1 330.663 9.60025   3
   4  -8   1 781.494 21.8644  13
  -4  -8  -1 740.068 17.9411   8
   4  -8   1 766.973 16.6399   6
   4  -8   1 743.327 16.7900   1
  -4  -8  -1 766.521 18.9531   2
  -4  -8  -1 787.211 19.2354   1
  -4   8  -1 770.257 18.6895   5
  -4   8  -1 776.466 21.7686   7
  -4   8  -1 765.110 18.4217   3
   4   8   1 799.029 20.3314   1
   4   8   1 769.973 19.6633  11
   6  -8   1 355.643 14.0948  13
  -6  -8  -1 357.408 12.0919   2
   6  -8   1 377.832 9.57213   6
  -6  -8  -1 381.512 11.9537   8
  -6   8  -1 377.851 14.6053   7
  -6   8  -1 364.084 11.8680   3
   6   8   1 368.869 13.3393  11
   6   8   1 382.233 13.4785   1
  -6   8  -1 356.125 12.2169   5
  -8  -8  -1 149.994 7.84373   2
   8  -8   1 158.440 5.52895   6
  -8  -8  -1 151.019 7.71822   8
   8   8   1 156.040 8.99457  11
  -8   8  -1 159.159 8.54080   5
   8   8   1 149.198 8.44056   1
  -8   8  -1 152.515 7.87843   3
  -7  -9   1 116.311 6.33059   8
   7  -9  -1 118.318 5.33660   6
  -7  -9   1 122.729 6.68498   2
   7   9  -1 104.863 7.40740  11
  -7   9   1 118.290 6.86914   3
   7   9  -1 115.961 7.58549   1
  -7   9   1 117.514 6.37695   5
   5  -9  -1 1275.19 33.1607  13
  -5  -9   1 1356.11 29.9770   1
  -5  -9   1 1292.11 28.1409   8
   5  -9  -1 1297.18 27.4525   6
   5  -9  -1 1308.29 27.8045   1
  -5   9   1 1307.04 29.2628   3
   5   9  -1 1281.61 30.0404  11
   5   9  -1 1278.51 30.2800   1
  -5   9   1 1290.78 33.1453   7
   3  -9  -1 343.448 10.0688   6
   3  -9  -1 351.719 10.6104   1
  -3  -9   1 351.189 11.3735   1
   3  -9  -1 340.209 13.0816  13
   3   9  -1 358.961 11.3810  11
  -3   9   1 352.799 10.8869   3
   3   9  -1 351.238 11.6572   7
   3   9  -1 340.270 10.9816   1
  -3   9   1 333.596 12.8092   7
   1  -9  -1 2330.55 45.9667   1
   1  -9  -1 2307.72 47.7843  13
  -1  -9   1 2271.33 44.4943   6
  -1  -9   1 2274.20 45.7077   1
  -1   9   1 2278.32 45.3435   3
   1   9  -1 2227.17 47.3900   7
  -1   9   1 2143.89 47.2972   7
   1   9  -1 2308.00 45.6281  11
   1   9  -1 2292.28 45.0488   3
   1  -9   1 124.823 5.18958   6
  -1  -9  -1 133.304 6.50060   1
  -1  -9  -1 133.432 6.29385  13
   1  -9   1 121.864 5.61408   1
   1   9   1 125.707 6.17855  11
   1   9   1 123.628 5.70358   1
  -1   9  -1 134.187 7.51736   7
  -1   9  -1 131.177 5.61570   3
   1   9   1 127.111 6.32844   7
   3  -9   1 1286.80 26.7726   6
   3  -9   1 1270.77 31.8862  13
  -3  -9  -1 1325.70 29.5331   1
  -3   9  -1 1319.88 32.1003   7
   3   9   1 1309.17 29.7037   1
   3   9   1 1287.74 29.3329  11
  -3   9  -1 1272.75 27.9776   3
  -5  -9  -1 5.11192 2.10693   1
   5  -9   1 6.38618 2.77473  13
  -5  -9  -1 8.55055 2.25289   8
  -5  -9  -1 4.73215 2.33347   2
   5   9   1 6.27457 2.23081   1
   5   9   1 6.96532 2.89405  11
  -5   9  -1 4.28897 2.07071   3
  -5   9  -1 4.16196 2.38366   5
  -5   9  -1 7.86349 3.23351   7
  -7  -9  -1 580.117 17.1334   2
   7  -9   1 585.561 13.9140   6
  -7  -9  -1 558.372 16.5940   8
   7   9   1 559.264 18.2571  11
   7   9   1 583.251 18.7285   1
  -7   9  -1 567.553 17.0597   5
  -8 -10   1 7.84224 2.72817   8
  -8 -10   1 6.67896 2.34231   2
   8 -10  -1 5.24411 1.79916   6
   8  10  -1 3.05270 2.73383   1
  -8  10   1 4.62544 2.71640   3
   8  10  -1 5.63519 3.59498  11
   6 -10  -1 46.3998 3.65302   6
   6 -10  -1 42.0899 3.55598   1
  -6 -10   1 54.1761 5.06484   1
   6  10  -1 53.1461 5.58545  11
   6  10  -1 45.4736 5.29252   1
  -6  10   1 45.9085 4.78312   3
   4 -10  -1 5.79637 1.80938   6
  -4 -10   1 12.6116 2.84672   1
   4 -10  -1 -0.1345 1.31897   1
   4 -10  -1 3.10911 2.03784  13
  -4  10   1 1.22386 2.46328   7
   4  10  -1 9.85033 2.57575   1
  -4  10   1 5.19951 2.15999   3
   4  10  -1 5.75510 2.54161  11
   2 -10  -1 2.78177 1.77815  13
   2 -10  -1 1.42221 1.39602   6
  -2 -10   1 4.82280 2.00274   1
  -2 -10   1 1.24428 1.33890   6
  -2  10   1 3.72593 1.88380   7
  -2  10   1 3.34143 1.56308   3
   2  10  -1 3.70642 1.63119   3
   2  10  -1 1.95005 1.74929   7
   2  10  -1 2.14501 2.05604  11
   0 -10  -1 23.8541 3.50523  13
   0 -10   1 35.8924 3.22235   6
   0 -10   1 34.3460 3.75327   1
   0 -10   1 30.3299 3.72055  13
   0 -10  -1 29.1997 3.75679   1
   0 -10  -1 28.5590 2.80373   6
   0  10  -1 26.5690 4.13286   7
   0  10   1 29.7527 3.96573   7
   0  10  -1 30.1247 3.45540   3
   0  10   1 33.8798 3.84873   3
   2 -10   1 59.8445 4.16285   1
  -2 -10  -1 60.3720 4.69597   1
   2 -10   1 56.8728 3.88912   6
   2 -10   1 63.0203 5.56542  13
   2  10   1 56.8405 4.94038  11
   2  10   1 61.3215 4.71823   1
  -2  10  -1 52.9879 3.88576   3
  -2  10  -1 52.5165 5.64000   7
   4 -10   1 6.39275 1.67849   1
  -4 -10  -1 12.2745 2.98035   2
  -4 -10  -1 7.88066 2.63751   1
   4 -10   1 5.06174 2.89938  13
   4  10   1 10.1984 2.60263   1
  -4  10  -1 5.16843 2.97823   7
   4  10   1 7.66393 2.50396  11
  -4  10  -1 6.06091 2.31444   3
  -6 -10  -1 2.38063 1.84460   2
   6 -10   1 1.16039 1.48084   6
  -6  10  -1 2.29176 1.67958   3
   6  10   1 1.21014 2.84991  11
   6  10   1 2.00797 2.48427   1
  -7 -11   1 262.100 11.1351   2
   7 -11  -1 273.625 9.50326   6
   7  11  -1 275.322 12.3571   1
  -7  11   1 260.925 10.8727   3
   7  11  -1 263.028 12.2737  11
   5 -11  -1 215.894 8.49373   6
   5 -11  -1 210.919 8.35968   1
  -5 -11   1 221.941 9.86546   1
   5  11  -1 210.979 9.82786  11
  -5  11   1 209.265 9.36690   3
   3 -11  -1 132.889 6.84385   1
  -3 -11   1 148.697 7.93322   1
   3 -11  -1 137.861 6.62969   6
   3 -11  -1 135.915 8.63470  13
  -3  11   1 138.928 8.71155   7
  -3  11   1 129.177 6.94588   3
   3  11  -1 129.278 7.05981   3
   3  11  -1 133.540 7.40706  11
  -1 -11   1 349.647 12.2749   1
  -1 -11   1 345.859 13.0590  13
   1 -11  -1 351.331 13.3679  13
   1 -11  -1 357.408 11.3531   6
  -1 -11   1 364.889 11.3260   6
  -1  11   1 357.001 11.9643   3
   1  11  -1 354.018 13.6159   7
   1  11  -1 352.013 11.5975   3
  -1  11   1 342.660 13.4893   7
  -1 -11  -1 214.481 9.34514   1
   1 -11   1 214.033 10.6741  13
   1 -11   1 202.147 7.90759   6
   1 -11   1 213.985 8.66061   1
   1  11   1 214.088 9.07242   3
  -1  11  -1 202.392 8.34564   3
   1  11   1 187.615 8.59334  11
  -1  11  -1 212.362 10.7579   7
  -3 -11  -1 744.011 20.6023   1
   3 -11   1 759.445 18.4585   1
  -3 -11  -1 716.654 19.4237   2
   3 -11   1 714.092 22.7291  13
  -3  11  -1 721.750 18.8515   3
  -3  11  -1 701.562 22.6766   7
   3  11   1 696.228 20.1064  11
   3  11   1 724.456 20.1943   1
   5 -11   1 283.315 9.41357   6
  -5 -11  -1 294.513 11.5362   2
  -5 -11  -1 275.243 11.2981   1
  -5  11  -1 292.220 14.0871   7
   5  11   1 276.257 12.0629   1
   5  11   1 279.968 11.8663  11
   4 -12  -1 172.695 7.99333   1
   4 -12  -1 183.921 8.14651   6
  -4 -12   1 178.389 9.45813   1
   4  12  -1 184.893 9.08980  11
   4  12  -1 176.147 8.77399   3
  -4  12   1 174.676 8.48436   3
  -2 -12   1 184.906 9.08566   1
   2 -12  -1 182.282 8.45774   1
   2 -12  -1 187.936 12.1292  13
   2 -12  -1 167.244 7.65680   6
   2  12  -1 167.654 8.68032  11
   2  12  -1 171.820 8.25290   3
  -2  12   1 162.692 9.89065   7
  -2  12   1 154.118 8.02980   3
   0 -12   1 45.7680 5.05575  13
   0 -12   1 49.2368 4.31362   6
   0 -12   1 48.9059 4.74581   1
   0  12   1 45.8280 4.34894   3
   0  12  -1 45.6384 4.47712   3
   0  12  -1 46.7214 5.19213   7
  -2 -12  -1 291.692 11.9734   1
  -2 -12  -1 288.952 11.0327   2
  -2  12  -1 283.147 13.5365   7
  -2  12  -1 288.027 10.6645   3
   2  12   1 282.777 11.6142  11
   2  12   1 271.666 11.1254   3
  -4 -12  -1 43.9294 5.04832   2
   4 -12   1 47.6695 4.07029   6
  -4 -12  -1 45.5747 5.49968   1
   4  12   1 35.4832 5.20096  11
  -4  12  -1 37.8956 4.32738   3
  -4  12  -1 40.0102 5.92157   7
   3 -13  -1 855.261 21.8919   6
  -3 -13   1 832.601 23.6508   1
   3 -13  -1 835.660 22.2544   1
   3  13  -1 823.181 23.1906  11
   3  13  -1 812.697 22.0819   3
  -3  13   1 820.712 22.1989   3
  -1 -13   1 194.715 9.56809   1
   1 -13  -1 185.979 9.35897   1
  -1  13   1 174.322 8.85884   3
   1  13  -1 191.966 8.60662   3
   1 -13   1 542.992 16.0002   6
   1  13   1 534.021 16.9683   3
  -1  13  -1 553.612 19.8705   7
  -1  13  -1 521.561 15.7531   3
   3 -13   1 63.1172 4.89685   1
   3 -13   1 66.4985 5.05413   6
  -3 -13  -1 63.4352 5.71881   2
   3  13   1 64.2564 5.50715   3
  -3  13  -1 69.9159 5.59797   3
   3  13   1 58.2630 6.18436  11
  -3  13  -1 63.9301 7.37506   7
 -12   0   2 16.2802 3.05864   8
  12   0  -2 16.4464 2.97654   6
 -12   0   2 21.1688 4.00977   5
  12   0  -2 27.4305 4.51575  11
  12   0  -2 20.9532 3.24437   1
 -10   0   2 880.135 22.4488   5
  10   0  -2 861.195 22.7471  11
 -10   0   2 850.581 20.6879   8
  10   0  -2 863.295 20.6959   6
  10   0  -2 857.979 20.8267   1
   8   0  -2 430.740 11.8904   1
  -8   0   2 439.917 11.6807   8
   8   0  -2 456.502 13.0882  11
   8   0  -2 446.266 11.6882   6
  -8   0   2 458.229 12.8757   5
   6   0  -2 4227.36 77.0678   1
  -6   0   2 4311.38 77.5565   5
   6   0  -2 4187.92 76.4315   6
  -6   0   2 4145.44 76.5228   8
  -6   0   2 4086.69 77.5556   3
  -6   0   2 4220.51 75.2880   2
   6   0  -2 4187.40 78.2267  13
  -6   0   2 4189.70 76.6277  12
   6   0  -2 4200.37 77.5900  11
  -4   0   2 2774.33 49.2410  12
   4   0  -2 2692.29 50.5220  13
   4   0  -2 2655.08 49.5879   1
  -4   0   2 2746.42 49.1453   1
  -4   0   2 2636.69 49.6689   3
   4   0  -2 2694.09 50.8960   6
  -2   0   2 9455.50 171.298   9
  -2   0   2 8827.88 170.094   1
   2   0  -2 8751.11 168.791   6
   2   0  -2 9915.09 178.312  10
  -2   0   2 9999.99 180.743  10
   2   0  -2 9680.05 177.784  13
  -2   0   2 9402.55 169.343  12
   2   0  -2 8358.58 171.236   1
   0   0  -2 64.0138 2.09811  14
   0   0  -2 64.4540 2.25640  13
   0   0   2 64.4284 1.60981   6
   0   0  -2 63.6766 1.90274   4
   0   0   2 68.9020 1.88028   1
   0   0  -2 62.4184 2.45133  10
   0   0  -2 67.8581 2.08492   8
   0   0   2 65.4818 2.59183  10
   0   0  -2 62.3234 2.10740   2
   2   0   2 4618.26 87.8942   1
  -2   0  -2 4882.90 90.7243   7
  -2   0  -2 4548.94 89.5169  14
  -2   0  -2 4552.64 83.8222   2
  -2   0  -2 4880.54 86.3696   8
  -2   0  -2 4541.82 87.6558   4
  -2   0  -2 4649.81 89.8672   5
   4   0   2 63.8218 2.47495   1
  -4   0  -2 63.5189 3.44891   5
  -4   0  -2 63.6743 3.24384   8
  -4   0  -2 63.0022 2.62826  14
   4   0   2 65.1914 2.10299   6
  -4   0  -2 64.4612 2.98750   2
   4   0   2 61.5730 2.57214  13
   4   0   2 62.0450 3.01089  11
  -4   0  -2 63.0889 2.16599   4
  -6   0  -2 2263.84 44.2000   2
  -6   0  -2 2313.36 46.1966   5
   6   0   2 2272.69 42.8364   6
   6   0   2 2276.41 43.2904   1
   6   0   2 2319.34 45.4867  11
  -6   0  -2 2339.23 45.1952   8
   8   0   2 6.00961 1.58095   6
  -8   0  -2 15.5556 3.20649   5
   8   0   2 4.80957 2.50856  11
  -8   0  -2 9.75032 2.15759   8
  10   0   2 1239.34 30.1074  11
 -10   0  -2 1160.22 28.2346   8
  10   0   2 1212.86 26.6832   6
 -10   0  -2 1248.31 30.5229   5
  11  -1  -2 116.724 7.77170  11
  11  -1  -2 113.114 5.97267   6
 -11  -1   2 121.380 6.69133   8
 -11  -1   2 106.717 6.81521   5
  11   1  -2 118.085 6.46486   6
 -11   1   2 110.049 7.17933   5
  11   1  -2 125.203 8.28896  11
 -11   1   2 115.162 5.90729   8
  11   1  -2 115.520 6.37330   1
   9  -1  -2 2.88408 2.17591  11
   9  -1  -2 2.38102 1.38588   1
  -9  -1   2 0.05772 1.56795   5
  -9  -1   2 0.15218 1.52417   8
   9  -1  -2 1.12314 1.31569   6
   9   1  -2 1.25161 1.84015  11
  -9   1   2 1.13469 1.34152   5
   9   1  -2 -0.2242 1.34991   6
  -9   1   2 4.70844 2.18062   3
   9   1  -2 1.22607 1.50533   1
  -9   1   2 6.19857 1.67951   8
   7  -1  -2 191.452 7.57164  13
  -7  -1   2 200.269 6.90017   5
  -7  -1   2 203.695 6.57820   8
   7  -1  -2 196.847 6.12930   6
  -7  -1   2 194.324 5.64376   2
   7  -1  -2 193.342 6.45867   1
   7   1  -2 196.673 6.77354   1
   7   1  -2 196.331 6.50875   6
  -7   1   2 196.768 7.17590   5
  -7   1   2 192.412 7.12193   3
  -7   1   2 199.553 6.20657   8
   7   1  -2 205.076 7.52474  11
   5  -1  -2 134.376 5.34954  13
  -5  -1   2 135.536 4.53251   5
   5  -1  -2 132.562 4.38919   1
  -5  -1   2 132.861 4.36447   8
   5  -1  -2 132.796 4.09873   6
  -5  -1   2 134.972 4.19597   1
  -5  -1   2 138.190 4.43556  12
   5   1  -2 126.472 4.67824  11
  -5   1   2 143.831 4.81518   5
   5   1  -2 129.616 3.33848   4
  -5   1   2 134.602 3.19886   2
  -5   1   2 128.225 4.59766   3
   5   1  -2 128.137 4.28163   6
   5   1  -2 132.365 4.68488   1
  -5   1   2 133.603 4.19477  12
  -5   1   2 129.692 3.79883   1
   5   1  -2 128.723 4.82655  13
  -5   1   2 126.588 3.98119   8
  -3  -1   2 219.748 5.27733  12
   3  -1  -2 221.764 5.55120   1
  -3  -1   2 220.927 5.44917   1
   3  -1  -2 222.600 5.19452   6
   3  -1  -2 228.120 6.74535  10
   3  -1  -2 223.213 6.26311  13
   3   1  -2 227.767 4.97250   4
  -3   1   2 224.595 5.25568   1
   3   1  -2 223.460 5.35111   6
   3   1  -2 224.982 5.38638  11
   3   1  -2 226.344 6.08663  13
  -3   1   2 220.622 5.13958  12
   3   1  -2 222.250 6.61566  10
  -3   1   2 229.525 5.74084   9
   3   1  -2 225.961 5.73859   1
  -3   1   2 224.763 5.50863   3
   1  -1  -2 2074.68 42.4034  10
   1  -1  -2 2027.69 38.8149   1
  -1  -1   2 2063.06 39.6682   6
  -1  -1   2 2058.08 38.9878  12
   1  -1  -2 2122.79 44.2750  13
  -1  -1   2 2009.09 40.8818   1
  -1  -1   2 2122.32 44.4226  10
   1   1  -2 1979.15 39.5195  14
   1   1  -2 2073.19 38.7529   2
  -1   1   2 2139.73 41.2373   6
  -1   1   2 2084.93 43.3475  10
  -1   1   2 2024.30 39.2530  12
  -1   1   2 2035.53 39.7700   9
   1   1  -2 2154.27 43.8735  10
  -1   1   2 2127.65 40.9326   1
   1   1  -2 2115.99 38.7331   4
  -1  -1  -2 207.869 5.00313  14
  -1  -1  -2 210.797 5.21806   2
   1  -1   2 216.775 6.05021  10
  -1  -1  -2 210.229 4.55676   4
  -1  -1  -2 211.614 5.21665   5
  -1  -1  -2 206.214 5.21863   8
  -1   1  -2 212.500 5.47114   5
   1   1   2 209.040 4.57074   6
   1   1   2 203.678 4.89155   1
  -1   1  -2 213.485 5.17781  14
  -1   1  -2 206.684 4.75963   3
  -1   1  -2 215.387 5.18783   8
   1   1   2 210.675 4.71727  11
   1   1   2 218.421 6.33048  10
  -1   1  -2 208.763 5.20997   2
  -1   1  -2 213.921 4.94744   4
  -1   1  -2 206.076 5.17685   7
  -3  -1  -2 186.660 4.20794   4
  -3  -1  -2 189.769 5.90201   5
  -3  -1  -2 188.529 5.01781  14
   3  -1   2 190.674 4.22601   1
  -3  -1  -2 215.229 5.97766   8
  -3  -1  -2 192.221 5.53368   2
   3   1   2 189.978 5.13718   1
   3   1   2 186.425 5.43094  11
  -3   1  -2 194.394 5.65066   8
   3   1   2 186.280 4.10167  13
  -3   1  -2 200.789 5.29659  14
   3   1   2 192.360 4.23299  13
  -3   1  -2 192.023 5.46395   2
  -3   1  -2 207.473 5.84338   7
  -3   1  -2 187.832 5.50082   3
  -3   1  -2 198.969 4.95399   4
   3   1   2 195.665 4.75532   6
  -3   1  -2 190.393 6.15022   5
  -5  -1  -2 327.144 8.82679   2
   5  -1   2 310.122 8.59575  13
   5  -1   2 322.695 6.78452   6
  -5  -1  -2 320.858 7.82280  14
   5  -1   2 332.028 7.50263   1
  -5  -1  -2 328.553 9.26948   8
  -5  -1  -2 328.853 9.71710   5
   5   1   2 325.166 8.39585   1
  -5   1  -2 339.976 8.80470   2
   5   1   2 314.589 9.16799  11
   5   1   2 324.786 8.00950   6
  -5   1  -2 334.520 10.0930   5
  -5   1  -2 333.479 9.42896   3
  -5   1  -2 323.126 9.04018   8
  -5   1  -2 332.810 8.05111  14
  -7  -1  -2 9.00629 1.81713   2
  -7  -1  -2 5.16022 2.00418   5
   7  -1   2 5.03633 1.70837  11
   7  -1   2 4.35602 1.13559   6
  -7  -1  -2 9.49119 1.97709   8
  -7   1  -2 4.37875 1.72271   8
   7   1   2 5.64613 2.34554  11
  -7   1  -2 4.36040 2.08089   5
  -7   1  -2 5.61407 1.49472   2
   7   1   2 13.7949 1.89797   6
   9  -1   2 174.823 6.38211   6
  -9  -1  -2 165.803 8.05887   8
   9  -1   2 173.854 8.55485  11
  -9   1  -2 171.655 7.44754   8
   9   1   2 180.704 9.09399  11
  -9   1  -2 176.638 8.79164   5
   9   1   2 170.563 6.94550   6
  10  -2  -2 104.218 6.71589  11
  10  -2  -2 97.5522 5.12697   6
 -10  -2   2 91.4883 5.84362   5
  10  -2  -2 94.6732 5.12152   1
 -10  -2   2 106.750 6.11381   8
 -10   2   2 101.787 6.63019   3
  10   2  -2 93.1094 7.07931  11
 -10   2   2 109.495 6.82624   5
  10   2  -2 106.621 6.13474   1
  10   2  -2 96.1751 5.71015   6
   8  -2  -2 1130.79 27.4825  13
  -8  -2   2 1177.62 24.2113   2
  -8  -2   2 1180.19 25.7635   5
   8  -2  -2 1155.66 24.8205   1
   8  -2  -2 1261.95 24.6615   6
  -8  -2   2 1171.92 25.4712   8
  -8   2   2 1155.04 26.5535   5
  -8   2   2 1190.96 26.4802   3
   8   2  -2 1175.98 25.5518   6
   8   2  -2 1200.45 27.1236  11
  -8   2   2 1139.57 24.4300   8
   8   2  -2 1174.76 26.0512   1
   6  -2  -2 37.0858 2.38492   1
  -6  -2   2 43.3305 2.41999   1
   6  -2  -2 37.2658 2.19511   6
  -6  -2   2 35.5660 2.57405  12
  -6  -2   2 35.7413 2.43845   8
  -6  -2   2 34.0056 2.43023   5
   6  -2  -2 32.2985 3.15589  13
   6   2  -2 34.3134 3.02266  11
  -6   2   2 36.6418 2.68368   5
  -6   2   2 35.4376 2.08332   8
   6   2  -2 35.6170 2.78745   1
   6   2  -2 35.8073 2.51727   6
   6   2  -2 34.3250 2.52578  13
  -6   2   2 35.2039 2.75943   3
   4  -2  -2 2856.21 52.8863  13
   4  -2  -2 2675.04 50.9016   1
  -4  -2   2 2767.20 51.1091   1
   4  -2  -2 2783.02 52.6114   6
  -4  -2   2 2811.61 50.8319  12
   4   2  -2 2751.62 50.9627   6
  -4   2   2 2745.36 50.3126  12
  -4   2   2 2741.32 52.2697   8
  -4   2   2 2826.37 51.3831   3
   4   2  -2 2773.28 51.6220   1
  -4   2   2 2858.72 51.5376   9
   4   2  -2 2750.66 51.2537  11
   4   2  -2 2808.03 51.7182  13
   4   2  -2 2758.63 50.5306   4
  -4   2   2 2759.69 51.4589   1
   2  -2  -2 435.007 9.90936  13
   2  -2  -2 417.962 9.87916  10
   2  -2  -2 476.140 8.84124   6
   2  -2  -2 406.312 9.04347   1
  -2  -2   2 412.533 8.67441   6
  -2  -2   2 410.351 8.57857  12
  -2  -2   2 412.035 9.02789   1
  -2   2   2 440.659 9.89626  10
   2   2  -2 430.177 8.70165  14
   2   2  -2 423.019 8.82205  11
  -2   2   2 426.629 8.35912  12
  -2   2   2 424.348 8.88037   3
   2   2  -2 428.744 9.17705   1
   2   2  -2 423.662 8.70441   4
  -2   2   2 424.134 8.90900   1
  -2   2   2 419.697 9.08189   9
   2   2  -2 423.213 9.47337  10
   0  -2   2 8051.77 143.428  12
   0  -2  -2 7786.54 144.622   8
   0  -2  -2 7844.33 146.748  13
   0  -2  -2 7235.94 146.111   1
   0  -2   2 7487.97 142.929   1
   0  -2  -2 8034.99 151.244  10
   0  -2  -2 7496.77 144.973   2
   0   2  -2 8219.17 147.230   5
   0   2  -2 7285.95 145.733   4
   0   2   2 8071.13 153.397  10
   0   2   2 7817.19 148.184   1
   0   2   2 7859.12 144.664   6
   0   2  -2 7815.10 149.220   7
   0   2   2 7919.98 144.275  11
   0   2  -2 7775.92 148.009  14
   0   2  -2 7651.12 145.391   2
   0   2   2 8095.77 145.961   9
   0   2  -2 8184.07 148.418  10
  -2  -2  -2 3213.55 60.7012   4
  -2  -2  -2 3240.94 59.1660   2
  -2  -2  -2 3213.95 58.9600   5
  -2  -2  -2 3211.10 59.2548   8
  -2  -2  -2 3166.08 60.4997  14
  -2   2  -2 3313.76 58.9870   8
  -2   2  -2 3204.53 61.3643   2
  -2   2  -2 3364.21 59.8162   7
  -2   2  -2 3292.59 61.3341  14
  -2   2  -2 3280.73 59.8313   5
  -2   2  -2 3209.73 60.9209   4
   2   2   2 3263.08 58.8737  11
  -2   2  -2 3259.72 60.9360   3
   2   2   2 3232.72 66.6268  10
   2   2   2 3255.89 61.9255   6
   2   2   2 3147.81 59.0102   1
  -4  -2  -2 3090.58 59.1173   5
  -4  -2  -2 3155.15 59.1334   8
  -4  -2  -2 3109.49 57.6604  14
   4  -2   2 3028.14 58.5363   1
   4  -2   2 3153.01 59.3743  13
  -4  -2  -2 3172.64 58.7674   2
  -4   2  -2 3186.45 58.8189   8
   4   2   2 3173.77 57.9953   6
  -4   2  -2 3173.66 59.6535   7
   4   2   2 3134.51 58.5679   1
  -4   2  -2 3281.12 59.1254   3
  -4   2  -2 3232.28 58.4630   2
  -4   2  -2 3195.54 58.1038  14
   4   2   2 3151.33 59.1139  11
  -4   2  -2 3102.99 57.7585   4
  -4   2  -2 3232.52 60.1768   5
  -6  -2  -2 885.852 21.1172   5
  -6  -2  -2 910.730 20.9178   8
   6  -2   2 932.201 17.4509   6
  -6  -2  -2 941.739 20.5384   2
  -6   2  -2 915.551 21.9333   5
   6   2   2 895.002 19.7016   6
   6   2   2 922.714 21.5188  11
  -6   2  -2 954.772 21.2550   3
  -6   2  -2 907.263 19.6751   2
   6   2   2 906.967 20.1311   1
  -6   2  -2 908.505 20.4462   8
   8  -2   2 473.411 14.0067  11
  -8  -2  -2 449.599 12.7470   2
  -8  -2  -2 446.794 14.0772   5
  -8  -2  -2 495.349 14.2470   8
   8  -2   2 456.315 10.9611   6
  -8   2  -2 456.363 13.1436   8
   8   2   2 444.605 14.5502  11
  -8   2  -2 465.448 15.0786   5
   8   2   2 461.289 12.9156   1
   8   2   2 476.783 12.9376   6
  10  -2   2 122.996 5.39054   6
 -10  -2  -2 135.098 7.64403   8
  10   2   2 135.554 6.73314   6
 -10   2  -2 141.928 8.58168   5
  10   2   2 132.911 8.65420  11
  11  -3  -2 64.2381 5.51443  11
  11  -3  -2 72.3659 4.64022   6
 -11  -3   2 65.2018 4.96086   8
 -11   3   2 64.3528 5.99322   5
  11   3  -2 81.7642 7.42248  11
  11   3  -2 61.8837 5.08978   6
  11   3  -2 61.6726 4.98002   1
  -9  -3   2 9.79003 2.28654   5
  -9  -3   2 14.3584 2.73452   8
   9  -3  -2 12.1779 1.94146   6
   9  -3  -2 10.3318 1.89551   1
  -9   3   2 9.90218 2.58290   3
   9   3  -2 6.93011 2.25278   1
   9   3  -2 10.7223 2.83743  11
  -9   3   2 7.14497 2.54055   5
   9   3  -2 10.7324 2.32382   6
  -7  -3   2 104.161 4.32016   2
   7  -3  -2 108.954 4.44969   1
  -7  -3   2 107.224 4.71107   5
   7  -3  -2 112.021 4.28357   6
  -7  -3   2 109.482 4.90339   8
   7  -3  -2 114.053 6.33135  13
   7   3  -2 110.064 4.95016   6
  -7   3   2 106.652 5.29291   3
  -7   3   2 102.471 4.00767   8
  -7   3   2 113.442 5.53977   5
   7   3  -2 112.343 5.43967   1
   7   3  -2 111.189 5.53243  11
  -5  -3   2 111.531 4.27375   1
  -5  -3   2 112.548 3.93690   5
  -5  -3   2 119.308 4.32160  12
   5  -3  -2 137.078 6.00313  13
   5  -3  -2 132.795 4.33946   1
   5  -3  -2 117.994 3.82356   6
  -5  -3   2 115.227 4.42932   8
   5   3  -2 115.386 4.65985  11
  -5   3   2 118.009 4.70452   5
  -5   3   2 112.013 3.68531  12
  -5   3   2 117.481 4.60639   3
   5   3  -2 119.637 4.85056   1
  -5   3   2 110.962 3.40493   8
   5   3  -2 114.756 4.29514   6
   3  -3  -2 23.3249 1.95207  10
   3  -3  -2 27.9726 1.51569   6
  -3  -3   2 27.4026 1.50143  12
   3  -3  -2 25.3878 2.23867  13
   3  -3  -2 29.2795 1.68739   1
  -3  -3   2 31.1942 1.57614   6
   3   3  -2 25.8873 1.82891   1
   3   3  -2 25.6462 2.01946   7
   3   3  -2 27.1553 1.38572   4
  -3   3   2 27.6461 1.70114   9
  -3   3   2 29.2108 1.26673  12
   3   3  -2 27.7727 2.01442  10
  -3   3   2 29.5353 1.54024   1
  -3   3   2 27.5206 1.76773   3
   3   3  -2 27.8776 1.84448  11
   3   3  -2 27.7033 1.57063   6
  -1  -3   2 1362.15 24.9896   6
  -1  -3   2 1320.67 25.4098   1
  -1  -3   2 1339.99 26.2689  10
   1  -3  -2 1320.88 25.2720   6
   1  -3  -2 1361.11 25.0301   2
   1  -3  -2 1364.01 26.2287  13
   1  -3  -2 1310.44 25.7858   1
  -1  -3   2 1342.83 24.7594  12
   1  -3  -2 1326.27 26.0271  10
  -1   3   2 1346.42 24.5380  12
  -1   3   2 1381.69 25.5938   9
  -1   3   2 1390.43 26.2791  10
  -1   3   2 1355.26 25.6884   1
   1   3  -2 1388.87 25.7525  14
   1   3  -2 1354.86 26.3772   7
   1   3  -2 1344.30 25.9783  10
  -1   3   2 1386.47 26.0706   7
   1   3  -2 1372.03 25.5953   4
   1   3  -2 1372.17 25.3019  11
  -1   3   2 1360.33 25.3848  11
   1   3  -2 1326.40 25.2327   1
  -1   3   2 1387.05 25.5658   3
  -1  -3  -2 227.696 5.92609   2
   1  -3   2 225.265 4.91978   1
  -1  -3  -2 232.131 5.84109   8
   1  -3   2 228.637 6.12700  10
  -1  -3  -2 229.451 5.28630  13
  -1  -3  -2 229.374 6.00819   1
  -1   3  -2 241.054 6.02708   2
  -1   3  -2 237.716 5.57227   3
   1   3   2 235.634 5.73716   6
   1   3   2 240.068 6.27608   1
  -1   3  -2 234.235 6.07181   4
  -1   3  -2 232.646 6.17854   5
  -1   3  -2 231.612 6.62358   7
   1   3   2 229.873 5.81434  11
  -1   3  -2 234.373 5.61006   8
   1   3   2 236.677 6.93592  10
   1   3   2 228.952 6.03086   9
  -1   3  -2 240.657 6.16749  14
  -3  -3  -2 1.69789 0.69867   5
  -3  -3  -2 1.39075 0.72427   8
  -3  -3  -2 1.36326 0.85882   2
  -3  -3  -2 0.98539 0.65344  14
   3   3   2 1.82711 0.79441   6
  -3   3  -2 1.12839 0.79061   3
  -3   3  -2 1.99726 0.69797   8
  -3   3  -2 2.44274 0.83543  14
  -3   3  -2 2.65997 0.89786   2
   3   3   2 0.86730 0.78085   1
   3   3   2 4.15993 1.46059  10
   3   3   2 0.17434 0.89734  11
  -3   3  -2 -0.2931 0.84542   5
  -3   3  -2 5.30215 1.37862   7
  -5  -3  -2 0.29109 0.87718   8
  -5  -3  -2 1.56760 0.78319  14
   5  -3   2 1.06365 1.09790  13
  -5  -3  -2 0.53137 1.07617   2
  -5  -3  -2 1.53010 1.07631   5
  -5   3  -2 1.30730 0.82131  14
  -5   3  -2 1.56545 1.24374   3
   5   3   2 1.51066 1.05490   1
  -5   3  -2 0.79097 0.96092   8
  -5   3  -2 1.56349 0.92006   2
  -5   3  -2 2.11470 1.41222   5
  -5   3  -2 1.93037 0.88656   4
   5   3   2 3.86462 1.21932   6
   5   3   2 2.70616 1.67354  11
  -5   3  -2 3.60182 1.59841   7
  -7  -3  -2 112.192 5.84542   5
  -7  -3  -2 108.080 5.52066   2
  -7  -3  -2 115.490 6.08504   8
   7  -3   2 113.596 3.52061   6
   7   3   2 108.794 5.56400   1
  -7   3  -2 109.281 5.76454   3
  -7   3  -2 113.776 5.29592   8
   7   3   2 105.862 5.29991   6
   7   3   2 110.813 6.50922  11
  -7   3  -2 105.499 6.09610   5
   9  -3   2 0.76877 1.75503  11
  -9  -3  -2 6.25385 2.14707   2
   9  -3   2 3.07066 1.17708   6
  -9  -3  -2 3.43541 2.45140   8
   9   3   2 0.16448 2.82299  11
   9   3   2 4.28610 1.94942   6
   9   3   2 0.73177 1.53635   1
  -9   3  -2 4.06752 2.63614   5
  10  -4  -2 23.0757 2.66096   1
 -10  -4   2 24.5662 3.45259   8
  10  -4  -2 38.0943 3.22890   6
  10   4  -2 27.5928 4.91818  11
  10   4  -2 27.9173 3.79408   6
 -10   4   2 24.8492 3.88661   3
 -10   4   2 20.5765 3.83705   5
  10   4  -2 28.7053 3.81029   1
   8  -4  -2 2291.57 43.6231   6
   8  -4  -2 2221.06 48.5848  13
   8  -4  -2 2277.64 43.9439   1
  -8  -4   2 2276.63 45.4998   8
  -8  -4   2 2309.21 44.5082   2
   8   4  -2 2203.26 46.3392   1
  -8   4   2 2338.22 46.3438   3
  -8   4   2 2281.70 46.5559   5
   8   4  -2 2257.52 47.2472  11
   8   4  -2 2179.88 45.3805   6
   6  -4  -2 325.290 8.38700   6
  -6  -4   2 320.286 8.52737   5
   6  -4  -2 364.748 11.8646  13
  -6  -4   2 333.073 9.33077   1
   6  -4  -2 340.659 8.90298   1
  -6  -4   2 337.072 9.47154   8
  -6   4   2 343.380 9.88734   3
   6   4  -2 338.990 10.1543   1
   6   4  -2 328.068 9.43264   6
   6   4  -2 353.782 10.2728  11
  -6   4   2 337.428 9.85761   5
  -4  -4   2 6346.37 117.816  12
   4  -4  -2 6768.88 121.929   6
   4  -4  -2 6741.77 130.669  13
   4  -4  -2 6378.01 118.135   1
  -4  -4   2 6439.53 121.627   5
  -4  -4   2 6189.09 118.160   6
  -4  -4   2 6532.40 125.318   1
   4   4  -2 6388.96 118.475   4
  -4   4   2 6356.06 120.975   1
   4   4  -2 6522.86 119.974   6
  -4   4   2 6528.99 126.666   9
  -4   4   2 6505.29 120.595  12
   4   4  -2 6265.07 120.521   7
   4   4  -2 6368.29 120.755   1
   4   4  -2 6494.15 120.173  11
  -4   4   2 6490.42 124.839   5
  -4   4   2 6598.19 123.564   3
  -2  -4   2 496.693 10.6140   6
   2  -4  -2 476.277 11.3422  10
   2  -4  -2 503.733 11.2392   1
  -2  -4   2 494.040 11.1540   1
   2  -4  -2 494.613 10.6449   6
   2  -4  -2 492.076 12.1665  13
  -2  -4   2 483.821 10.0667  12
  -2   4   2 494.158 10.8371   9
   2   4  -2 500.263 11.8027   7
   2   4  -2 515.793 11.0636  11
  -2   4   2 504.984 12.1387   7
  -2   4   2 543.446 9.73592  12
  -2   4   2 502.990 10.7833   1
   2   4  -2 490.602 10.5028  10
   2   4  -2 512.005 11.1239   1
   2   4  -2 477.198 10.6471   4
  -2   4   2 501.176 11.4087  10
  -2   4   2 485.415 10.9341   3
   0  -4   2 4958.70 93.4586   6
   0  -4  -2 4762.66 97.9381  10
   0  -4   2 5160.24 93.1759  10
   0  -4  -2 4882.58 91.9689   8
   0  -4   2 4858.98 91.4818  12
   0  -4  -2 4926.82 99.7680  13
   0  -4   2 4538.92 89.0255   1
   0  -4  -2 4797.60 93.7708   6
   0  -4  -2 4898.59 94.7458   1
   0   4   2 5014.02 94.3691  11
   0   4  -2 4705.28 91.6268   4
   0   4   2 5010.36 93.7342   6
   0   4   2 5027.18 102.690  10
   0   4   2 5154.77 89.9626   9
   0   4  -2 4930.92 96.7746  14
   0   4  -2 4944.69 93.9947   3
   0   4  -2 5070.85 93.8512   5
   0   4   2 4987.32 98.1048   1
   0   4  -2 4855.46 93.9761   7
   0   4   2 4820.49 96.6413   7
   0   4  -2 5137.70 92.3564  11
   2  -4   2 29.1536 2.13435  10
  -2  -4  -2 32.7126 1.32334  13
  -2  -4  -2 30.9567 2.00336   1
  -2  -4  -2 28.4621 1.96112   2
  -2  -4  -2 29.8477 1.94293   8
   2  -4   2 29.5555 1.28223   1
  -2   4  -2 32.7371 2.22199  14
  -2   4  -2 34.8438 2.11831   2
   2   4   2 28.3853 1.92523   6
  -2   4  -2 31.4462 1.79018   8
  -2   4  -2 26.6319 2.15761   5
   2   4   2 28.7975 2.16522   9
  -2   4  -2 36.0503 2.06944   3
   2   4   2 28.6244 2.20952   1
  -2   4  -2 29.5076 2.15544   4
   2   4   2 28.3244 2.14449  11
  -2   4  -2 26.7412 2.30435   7
   2   4   2 31.0618 2.67652  10
  -4  -4  -2 1566.88 32.3497   1
  -4  -4  -2 1684.85 33.4613   2
  -4  -4  -2 1679.39 32.4668  14
  -4  -4  -2 1661.87 33.5649   8
  -4   4  -2 1646.31 32.9724   4
  -4   4  -2 1675.14 33.0485  14
  -4   4  -2 1692.40 32.7499   2
   4   4   2 1657.58 33.9347   1
  -4   4  -2 1691.27 34.5192   5
  -4   4  -2 1683.38 32.5807   8
  -4   4  -2 1748.08 33.4708   3
   4   4   2 1691.27 36.8558  10
   4   4   2 1687.74 33.2187   6
  -4   4  -2 1716.61 35.2743   7
   4   4   2 1696.82 33.9799  11
  -6  -4  -2 47.9254 3.67176   8
   6  -4   2 46.6220 4.05229  13
  -6  -4  -2 57.6257 3.74118   2
   6  -4   2 50.5037 1.51572   6
   6   4   2 54.3558 3.75119   6
   6   4   2 50.6672 3.93805   1
  -6   4  -2 47.2698 4.23833   5
  -6   4  -2 51.6973 3.34234   8
  -6   4  -2 52.1243 3.71022   3
   6   4   2 47.2709 4.03010  11
   8  -4   2 849.533 17.1585   6
  -8  -4  -2 835.135 20.5867   2
  -8  -4  -2 850.966 21.6707   8
   8   4   2 840.796 20.8959   6
  -8   4  -2 842.595 22.7423   5
  -8   4  -2 852.627 21.4883   3
   8   4   2 820.987 22.6794  11
   8   4   2 832.704 21.2901   1
  11  -5  -2 49.5685 3.81129   6
  11  -5  -2 49.5578 5.50597  11
  11   5  -2 47.6590 6.65043  11
  11   5  -2 43.0829 5.17767   1
 -11   5   2 54.9555 5.77916   3
 -11   5   2 48.5958 5.74318   5
   9  -5  -2 431.112 11.6586   6
   9  -5  -2 416.511 15.5202  13
  -9  -5   2 449.474 13.5937   8
   9  -5  -2 424.788 11.6112   1
  -9  -5   2 448.570 12.6883   2
   9   5  -2 414.257 14.0032   1
   9   5  -2 428.366 14.8875  11
   9   5  -2 407.022 13.2235   6
  -9   5   2 445.799 14.3268   5
  -9   5   2 430.395 13.7068   3
   7  -5  -2 263.423 7.61169   6
   7  -5  -2 260.631 7.81716   1
   7  -5  -2 256.458 10.8055  13
  -7  -5   2 253.837 8.40592   1
  -7  -5   2 263.996 8.85310   8
  -7   5   2 251.597 9.06432   3
   7   5  -2 269.602 8.83085   6
   7   5  -2 262.030 9.47912   1
   7   5  -2 259.711 9.62303  11
  -7   5   2 260.301 9.27311   5
  -5  -5   2 467.322 11.6220   8
   5  -5  -2 459.041 10.7421   6
   5  -5  -2 457.758 11.1240   1
  -5  -5   2 464.676 11.8707   1
   5  -5  -2 461.150 13.9194  13
   5   5  -2 455.768 12.1997  11
   5   5  -2 439.140 11.3788   6
   5   5  -2 464.805 12.4925   1
  -5   5   2 462.162 11.9375   3
   5   5  -2 473.847 12.4776   7
  -5   5   2 444.945 11.7086   5
  -3  -5   2 1241.77 24.7320   1
   3  -5  -2 1278.88 26.1253  10
   3  -5  -2 1191.74 26.3027  13
   3  -5  -2 1237.93 23.7907   6
   3  -5  -2 1198.43 24.2502   1
  -3  -5   2 1195.90 23.1789  12
  -3  -5   2 1197.23 23.7473   6
   3   5  -2 1200.60 24.0877  10
  -3   5   2 1225.57 24.0021   9
  -3   5   2 1207.61 23.4230   1
  -3   5   2 1226.56 24.4073   3
   3   5  -2 1227.44 24.7521   1
   3   5  -2 1177.59 23.3702   4
  -3   5   2 1188.74 23.8063   5
  -3   5   2 1177.65 26.2100   7
   3   5  -2 1214.55 25.3005   7
   3   5  -2 1184.62 23.6017   6
   3   5  -2 1229.27 24.5772  11
  -3   5   2 1167.61 22.0131  12
  -1  -5   2 45.8268 2.17001   6
  -1  -5   2 42.1713 2.36924   1
   1  -5  -2 52.0313 2.40114   6
   1  -5  -2 42.8395 2.31162  10
   1  -5  -2 47.2176 2.67970   1
  -1  -5   2 44.9610 1.62442  12
   1  -5  -2 43.6715 2.84608  13
  -1   5   2 46.2113 2.33018   9
   1   5  -2 48.3870 3.04145   7
  -1   5   2 50.0691 2.83560   7
   1   5  -2 43.8005 2.44117  11
  -1   5   2 45.4772 2.39548   1
   1   5  -2 44.9810 2.20944   1
  -1   5   2 48.2754 2.54643  11
  -1   5   2 49.2171 2.54534   3
  -1   5   2 47.5869 2.47722  10
   1   5  -2 43.9327 2.38889   4
  -1  -5  -2 760.356 15.6296   8
   1  -5   2 788.175 14.8209   6
   1  -5   2 742.157 14.4325  12
  -1  -5  -2 780.420 16.7825   1
   1  -5   2 774.948 14.9742  10
   1  -5   2 751.572 15.3873   1
  -1  -5  -2 751.262 15.7397  13
   1  -5   2 764.919 15.4098   6
  -1  -5  -2 726.231 15.6226   6
   1   5   2 764.524 16.3086  11
   1   5   2 759.642 16.9641  10
   1   5   2 757.800 15.9594   6
  -1   5  -2 765.154 17.7960   7
  -1   5  -2 810.571 15.9014   3
  -1   5  -2 784.045 16.7412   4
   1   5   2 731.165 15.4895   7
   1   5   2 769.623 16.1665   9
   1   5   2 765.249 16.8211   1
  -1   5  -2 772.207 16.1850   5
  -3  -5  -2 128.296 4.89583   1
   3  -5   2 125.456 3.50279   1
   3  -5   2 135.158 2.54733   6
  -3  -5  -2 139.480 5.25577   2
   3  -5   2 132.799 5.38768  10
   3  -5   2 128.194 2.53964   6
  -3  -5  -2 130.115 4.96924   8
  -3   5  -2 133.997 5.35641   5
  -3   5  -2 137.541 5.01074   3
   3   5   2 134.783 4.99983   6
   3   5   2 134.574 6.30797  10
  -3   5  -2 132.246 5.18175  14
  -3   5  -2 132.889 6.15996   7
   3   5   2 127.924 5.28671  11
  -3   5  -2 132.455 5.17380   4
   3   5   2 133.285 5.27945   9
   3   5   2 127.478 5.46292   1
  -3   5  -2 132.025 4.29498   8
  -5  -5  -2 25.6686 3.07962   2
   5  -5   2 19.9114 3.00856  13
  -5  -5  -2 20.0005 1.85418  14
  -5  -5  -2 18.5494 2.47189   8
   5   5   2 19.3795 3.37701  10
   5   5   2 23.2201 3.06704   1
  -5   5  -2 26.8480 3.33689   5
   5   5   2 28.1360 3.24947  11
   5   5   2 19.3353 2.55638   6
  -5   5  -2 22.7050 3.38211   7
  -5   5  -2 22.2847 2.74262   3
  -7  -5  -2 149.991 6.83828   2
  -7  -5  -2 149.875 7.32813   8
   7  -5   2 150.299 4.15729   6
  -7   5  -2 164.869 7.35350   3
   7   5   2 152.526 8.24659  11
  -7   5  -2 148.069 7.81647   5
   7   5   2 146.136 6.84426   6
   7   5   2 172.133 7.85946   1
  -9  -5  -2 4.92503 2.69048   8
  -9  -5  -2 1.65701 2.05979   2
   9  -5   2 3.99914 2.71531  11
   9  -5   2 1.93506 0.93974   6
   9   5   2 2.18874 2.06515   1
  -9   5  -2 4.04961 2.60455   5
   9   5   2 1.85505 3.27425  11
   9   5   2 3.64988 2.25145   6
  -9   5  -2 4.07200 1.98228   3
  10  -6  -2 787.415 18.6040   6
 -10  -6   2 750.219 19.5386   2
 -10  -6   2 790.602 21.1668   8
  10   6  -2 759.200 21.7778   1
 -10   6   2 781.883 21.2048   3
 -10   6   2 765.230 21.6921   5
  10   6  -2 786.015 23.4162  11
  -8  -6   2 13.0707 2.75639   8
   8  -6  -2 19.1430 2.31197   6
   8  -6  -2 13.5226 2.03874   1
   8  -6  -2 13.3506 3.36730  13
  -8   6   2 16.2918 2.84745   5
   8   6  -2 15.0448 3.12302  11
  -8   6   2 27.9254 3.80772   3
   8   6  -2 16.6789 3.32906   1
   6  -6  -2 1352.05 27.6367   6
  -6  -6   2 1433.67 29.3377   8
   6  -6  -2 1359.89 32.7271  13
   6  -6  -2 1389.82 28.2480   1
  -6  -6   2 1417.92 29.6436   1
  -6   6   2 1411.62 29.7789   3
  -6   6   2 1409.51 29.6860   5
   6   6  -2 1324.95 29.5787   7
   6   6  -2 1358.69 30.1762  11
   6   6  -2 1370.71 30.4759   1
   4  -6  -2 27.8937 2.34187   1
  -4  -6   2 29.8405 2.09695   6
  -4  -6   2 31.0194 2.46613   8
  -4  -6   2 27.3532 2.47582   1
   4  -6  -2 28.6290 3.14960  13
   4  -6  -2 29.6753 2.17823   6
  -4   6   2 25.0005 3.29449   7
   4   6  -2 31.3330 2.65521   1
   4   6  -2 29.8230 1.83730   4
   4   6  -2 28.4123 2.95616  11
  -4   6   2 29.1491 2.29760   9
   4   6  -2 27.2732 2.77463   7
  -4   6   2 29.1827 2.63670   3
  -4   6   2 29.3835 2.35822   5
   2  -6  -2 3081.12 58.8778   1
   2  -6  -2 3092.21 58.0263   6
   2  -6  -2 3232.39 60.7357  13
  -2  -6   2 3082.47 56.6057  12
  -2  -6   2 3196.17 58.0334   6
  -2  -6   2 3083.28 58.9177   1
  -2   6   2 3226.28 57.9743   9
   2   6  -2 3277.57 58.8654  11
  -2   6   2 3228.03 58.1584   1
   2   6  -2 2895.29 57.7209  10
   2   6  -2 3185.56 58.3003   4
  -2   6   2 3074.45 57.2969   5
   2   6  -2 3133.34 58.4475   1
  -2   6   2 3121.44 60.4725   7
  -2   6   2 3242.75 58.8086   3
   2   6  -2 3139.63 59.9889   7
   0  -6   2 370.576 9.25209   1
   0  -6  -2 351.146 7.96266   8
   0  -6  -2 375.051 9.90249  13
   0  -6   2 388.530 8.79194   6
   0  -6  -2 374.114 10.0294   1
   0  -6  -2 367.510 9.08799   6
   0   6   2 368.853 9.73617   1
   0   6  -2 372.895 9.81857   4
   0   6   2 356.988 9.70170   7
   0   6  -2 370.674 8.99869   3
   0   6   2 369.889 9.02072   9
   0   6   2 369.094 9.31513  10
   0   6  -2 375.429 8.48813   5
   0   6  -2 374.199 9.41202  11
   0   6   2 378.047 9.64270  11
   0   6  -2 369.189 10.8553   7
  -2  -6  -2 3736.23 72.4465  13
   2  -6   2 3794.03 71.0747   1
  -2  -6  -2 3896.03 72.0873   8
  -2  -6  -2 3872.26 73.2189   1
  -2  -6  -2 3946.19 72.8384   2
   2  -6   2 3763.78 74.5434   6
  -2   6  -2 4061.79 75.3609   7
   2   6   2 4065.80 73.9454   1
   2   6   2 3957.68 72.5745   9
   2   6   2 4040.65 74.2560  10
  -2   6  -2 3982.87 72.2154   3
   2   6   2 3910.67 72.4797   6
  -2   6  -2 3887.95 73.2228   4
  -2   6  -2 4014.03 72.9525   5
   2   6   2 3979.15 73.1454  11
   4  -6   2 298.787 11.0170  13
  -4  -6  -2 309.740 9.21291   1
  -4  -6  -2 311.470 9.50190   2
   4  -6   2 314.932 6.70755   6
  -4  -6  -2 322.360 9.54307   8
   4   6   2 319.112 10.3081   1
  -4   6  -2 312.381 9.58141   4
   4   6   2 315.245 11.4380  10
  -4   6  -2 314.485 10.0467   5
  -4   6  -2 313.720 11.2332   7
  -4   6  -2 309.232 9.18362   3
   4   6   2 310.619 9.76526   9
   4   6   2 308.896 9.48450   6
   4   6   2 307.562 9.97051  11
  -6  -6  -2 1667.29 35.4211   8
   6  -6   2 1645.22 37.7966  13
  -6  -6  -2 1675.56 35.3327   2
   6   6   2 1580.02 35.1225   6
   6   6   2 1635.31 36.5822  11
  -6   6  -2 1705.04 38.1700   7
  -6   6  -2 1652.00 34.8311   3
   6   6   2 1646.14 36.2470   1
  -6   6  -2 1671.40 36.4076   5
   8  -6   2 51.6651 2.53262   6
  -8  -6  -2 50.2663 4.75559   2
  -8  -6  -2 46.5260 4.44728   8
   8   6   2 43.3329 5.07857   1
  -8   6  -2 42.0914 4.85888   5
   8   6   2 47.5669 5.91247  11
  -8   6  -2 48.2691 4.21522   3
   8   6   2 52.1646 4.77554   6
   9  -7  -2 29.0515 3.10239   6
  -9  -7   2 27.3210 3.95576   8
  -9  -7   2 24.5903 3.39047   2
  -9   7   2 25.8977 3.89625   3
   9   7  -2 23.0434 3.97212   1
   9   7  -2 30.9831 5.15018  11
  -9   7   2 34.8385 4.63832   5
   7  -7  -2 3.75851 1.56807   1
   7  -7  -2 4.97090 2.28594  13
  -7  -7   2 3.50780 1.65020   8
  -7  -7   2 4.01220 1.83968   1
   7  -7  -2 1.99234 1.24952   6
  -7   7   2 2.00941 1.73021   5
  -7   7   2 3.42440 2.03749   3
   7   7  -2 3.76797 2.10614   1
   7   7  -2 5.89624 2.62914  11
   5  -7  -2 0.43892 0.95929   1
   5  -7  -2 0.89284 0.93443   6
  -5  -7   2 1.91937 1.39154   1
   5  -7  -2 3.16268 2.08303  13
  -5  -7   2 3.88355 1.26720   8
   5   7  -2 1.29283 1.03470   7
  -5   7   2 2.48777 1.19929   3
   5   7  -2 3.12711 1.88592  11
   5   7  -2 2.32711 1.52027   1
  -5   7   2 2.80419 1.39509   5
  -3  -7   2 96.9726 4.19649   6
  -3  -7   2 101.812 4.92300   1
   3  -7  -2 100.020 4.26833   6
   3  -7  -2 99.3888 4.54776   1
   3  -7  -2 96.4208 5.73764  13
   3   7  -2 106.401 5.32699   7
  -3   7   2 95.6074 4.46846   3
  -3   7   2 96.4585 4.01989   9
  -3   7   2 93.6051 3.93817   5
  -3   7   2 91.7270 5.46869   7
   3   7  -2 94.4132 4.58955   1
   3   7  -2 97.1374 3.92316   4
   3   7  -2 98.1998 4.62488  11
   1  -7  -2 10.1699 1.60060   6
   1  -7  -2 10.3249 2.02054  13
   1  -7  -2 19.7500 2.44013   1
  -1  -7   2 9.87488 1.70097   1
  -1  -7   2 8.68993 1.44179   6
   1   7  -2 11.0411 1.87742  11
  -1   7   2 10.5399 1.53527  10
  -1   7   2 9.85286 1.43269   9
   1   7  -2 11.8658 1.72249   4
  -1   7   2 11.9909 1.63682   1
  -1   7   2 9.24947 1.59888   3
   1   7  -2 9.44774 1.62811   3
   1   7  -2 10.8103 1.46053   1
  -1   7   2 12.1811 2.17175   7
  -1  -7  -2 232.667 7.84511   1
  -1  -7  -2 216.347 6.68052   6
  -1  -7  -2 224.764 7.13641  13
   1  -7   2 212.503 6.16032   6
   1  -7   2 228.174 6.76778   1
  -1  -7  -2 206.187 5.99459   8
  -1   7  -2 234.995 8.78721   7
  -1   7  -2 224.334 6.54652   5
   1   7   2 234.439 7.70272   1
   1   7   2 229.365 6.81821   9
  -1   7  -2 232.035 6.89607   3
   1   7   2 223.600 7.15926  10
   1   7   2 211.777 6.87860   7
  -1   7  -2 225.281 7.57094   4
   1   7   2 228.425 7.44732  11
   3  -7   2 62.2118 2.64244   6
  -3  -7  -2 64.1126 4.08429   1
   3  -7   2 63.3907 2.92844   1
  -3  -7  -2 59.9684 4.01108   2
  -3  -7  -2 65.8949 3.55767   8
   3   7   2 63.7415 3.78459   9
   3   7   2 60.2421 3.73542   6
   3   7   2 64.3176 4.41732  10
  -3   7  -2 62.6749 3.76526   3
   3   7   2 65.3883 4.50274   1
  -3   7  -2 65.9319 5.18501   7
  -3   7  -2 71.4360 4.18705   5
   3   7   2 66.1666 4.41328  11
  -3   7  -2 61.5999 3.92357   4
  -5  -7  -2 64.5492 4.68359   2
   5  -7   2 73.6302 5.89848  13
   5  -7   2 66.2199 2.64724   6
  -5  -7  -2 66.1869 4.59557   8
  -5   7  -2 64.4168 4.38559   3
   5   7   2 69.6089 5.22061   1
  -5   7  -2 68.0795 4.93339   5
   5   7   2 67.2113 4.57859   6
   5   7   2 62.6328 4.74242   9
  -5   7  -2 69.6129 5.92387   7
   5   7   2 63.0990 5.18509  11
  -7  -7  -2 156.083 7.60022   8
   7  -7   2 167.802 4.97177   6
  -7  -7  -2 160.109 7.70311   2
   7   7   2 161.533 9.05952  11
  -7   7  -2 156.238 8.33297   5
  -7   7  -2 164.366 7.70187   3
   7   7   2 168.866 8.66137   1
   7   7   2 156.984 8.36449   9
   7   7   2 155.796 7.65561   6
   8  -8  -2 224.547 7.86461   1
   8  -8  -2 219.950 7.90501   6
  -8  -8   2 229.873 9.32240   2
  -8  -8   2 230.385 9.45400   8
   8  -8  -2 209.434 11.6376  13
  -8   8   2 229.087 9.67685   5
  -8   8   2 226.398 9.65278   3
   8   8  -2 234.745 10.6701   1
   8   8  -2 228.978 10.7043  11
  -6  -8   2 1249.43 28.6528   1
   6  -8  -2 1289.46 26.9103   6
   6  -8  -2 1218.75 32.1038  13
  -6  -8   2 1262.70 27.7406   8
   6  -8  -2 1275.63 27.1436   1
  -6   8   2 1252.60 28.4873   3
  -6   8   2 1258.42 28.0655   5
   6   8  -2 1274.83 29.7807   1
   6   8  -2 1284.78 29.5238  11
   4  -8  -2 514.603 13.5272   1
  -4  -8   2 529.473 14.4123   1
   4  -8  -2 523.578 16.6063  13
  -4  -8   2 510.524 12.9781   8
   4  -8  -2 527.227 13.0686   6
  -4   8   2 510.542 12.9064   5
  -4   8   2 500.000 16.3441   7
  -4   8   2 518.431 13.9117   3
   4   8  -2 511.694 14.7809   7
   4   8  -2 517.698 14.2006  11
   4   8  -2 511.880 14.2999   1
   2  -8  -2 1602.75 33.5513   1
  -2  -8   2 1696.48 33.8119   1
   2  -8  -2 1669.90 32.7162   6
   2  -8  -2 1667.82 35.7057  13
  -2  -8   2 1635.19 32.5390   6
  -2   8   2 1578.94 33.1607   3
  -2   8   2 1543.63 35.1104   7
   2   8  -2 1592.32 32.6874   4
   2   8  -2 1611.23 34.8846   7
   2   8  -2 1619.70 33.2568  11
   2   8  -2 1558.58 32.5115   1
   0  -8  -2 402.312 11.6843   1
   0  -8   2 391.417 10.1383   6
   0  -8  -2 396.576 11.5262  13
   0  -8  -2 388.018 10.4143   6
   0  -8   2 396.390 10.8039   1
   0   8   2 370.168 11.2036   7
   0   8   2 376.495 10.9953  11
   0   8  -2 401.461 10.4544   3
   0   8   2 381.192 9.74524   9
   0   8  -2 388.003 11.2544   4
   0   8   2 381.875 10.9096   1
   0   8  -2 382.715 12.5565   7
   0   8   2 398.959 11.2235   3
  -2  -8  -2 788.475 19.1544   1
   2  -8   2 781.254 17.2428   1
  -2  -8  -2 784.501 18.5444   2
   2  -8   2 792.767 16.8953   6
   2   8   2 773.935 19.2639   1
   2   8   2 745.953 17.4746   9
  -2   8  -2 797.759 21.2597   7
  -2   8  -2 783.665 19.0880   4
   2   8   2 772.453 18.8643  11
  -2   8  -2 777.976 17.8250   3
  -4  -8  -2 194.497 7.88291   1
   4  -8   2 197.361 9.62444  13
   4  -8   2 188.825 5.75841   6
  -4  -8  -2 198.500 8.00881   2
  -4  -8  -2 186.405 7.26410   8
  -4   8  -2 188.705 9.58620   7
  -4   8  -2 180.623 7.13717   3
   4   8   2 193.834 7.57453   9
  -4   8  -2 187.223 7.73696   5
   4   8   2 197.703 8.23561  11
   4   8   2 208.524 8.94289   1
   6  -8   2 354.496 8.75789   6
  -6  -8  -2 355.139 12.2111   2
   6  -8   2 334.701 13.7687  13
  -6  -8  -2 340.483 11.6918   8
   6   8   2 346.236 13.0500  11
   6   8   2 337.034 12.8055   1
  -6   8  -2 344.841 14.1795   7
  -6   8  -2 350.604 12.3108   5
  -6   8  -2 372.697 11.8949   3
  -8  -8  -2 170.295 8.60155   2
   8  -8   2 187.778 5.76538   6
  -8  -8  -2 191.125 9.07346   8
   8   8   2 175.297 9.51884   1
  -8   8  -2 183.354 8.29786   3
   8   8   2 177.191 9.67863  11
  -8   8  -2 175.811 9.26869   5
   9  -9  -2 3.74776 1.63977   6
  -9  -9   2 4.82783 2.51303   2
  -9  -9   2 3.59542 2.47132   8
  -9   9   2 6.14111 2.97331   3
   9   9  -2 2.99459 2.85788   1
   9   9  -2 1.63956 3.42395  11
  -9   9   2 3.98669 2.37772   5
   7  -9  -2 8.83498 2.04017   6
   7  -9  -2 5.38433 1.72776   1
  -7  -9   2 7.39049 2.10706   1
  -7  -9   2 3.63697 2.07138   8
  -7   9   2 6.96496 2.57406   3
   7   9  -2 6.72568 3.06533  11
   7   9  -2 11.3514 2.90052   1
  -7   9   2 6.39653 2.21572   5
   5  -9  -2 7.44932 2.00600   1
  -5  -9   2 13.9499 2.90132   1
   5  -9  -2 10.3273 3.25461  13
  -5  -9   2 7.90468 1.97266   8
   5  -9  -2 7.30685 1.87698   6
   5   9  -2 11.0697 2.41805   1
   5   9  -2 15.1601 3.23406  11
  -5   9   2 5.75178 2.23069   3
   3  -9  -2 2.62001 1.42705   6
  -3  -9   2 2.11580 1.15675   6
  -3  -9   2 2.29254 1.65403   1
   3  -9  -2 10.1873 2.17021   1
   3  -9  -2 0.81751 1.90419  13
  -3   9   2 5.23287 1.91331   3
  -3   9   2 3.23301 2.32738   7
   3   9  -2 2.38062 1.85351  11
   3   9  -2 4.31753 1.71532   1
   3   9  -2 4.29264 1.90210   7
   1  -9  -2 90.8242 5.64363  13
   1  -9  -2 83.3669 4.54995   6
  -1  -9   2 87.5481 4.47084   6
  -1  -9   2 85.3992 4.95319   1
  -1   9   2 81.3834 5.38951   7
   1   9  -2 80.7410 4.32728   3
   1   9  -2 77.5634 4.56409  11
  -1   9   2 86.2621 5.03674   3
   1   9  -2 84.0156 4.64842   4
   1   9  -2 85.2567 5.84272   7
   1  -9   2 4.54226 1.35696   6
  -1  -9  -2 6.72129 2.11897   1
   1   9   2 2.44988 1.50922   1
  -1   9  -2 8.45469 2.33963   4
  -1   9  -2 4.97462 2.03944   7
   1   9   2 5.41549 1.76774  11
  -1   9  -2 3.56779 1.29665   3
   3  -9   2 52.7089 3.24732   1
   3  -9   2 52.7798 5.39653  13
  -3  -9  -2 55.6139 4.16795   2
   3  -9   2 54.6416 3.27112   6
  -3  -9  -2 60.0769 4.49485   1
   3   9   2 61.5211 4.69857   1
   3   9   2 60.8508 4.90294  11
  -3   9  -2 57.7715 4.14418   3
  -3   9  -2 55.0442 5.52860   7
  -5  -9  -2 59.8801 4.56621   8
  -5  -9  -2 69.6680 5.47507   2
   5  -9   2 60.8095 3.43044   6
   5  -9   2 63.7127 5.89723  13
   5   9   2 64.5596 5.39885   1
  -5   9  -2 65.2529 4.80540   3
  -5   9  -2 59.5392 4.90482   5
   5   9   2 73.3519 6.13052  11
  -5   9  -2 63.4771 5.96070   7
  -7  -9  -2 9.78627 2.38872   8
   7  -9   2 5.89305 1.43414   6
  -7  -9  -2 6.44332 2.23839   2
  -7   9  -2 5.75816 2.54230   5
  -7   9  -2 5.97219 2.51319   3
   7   9   2 5.58421 3.36070  11
   7   9   2 6.19262 2.40502   1
   8 -10  -2 477.041 13.4273   6
  -8 -10   2 449.136 14.8843   2
  -8 -10   2 451.525 14.5826   8
   8  10  -2 468.959 16.5427   1
  -8  10   2 424.254 14.5161   3
   8  10  -2 435.993 16.1218  11
   6 -10  -2 47.6929 4.01848   1
   6 -10  -2 53.4658 4.14364   6
  -6 -10   2 48.0348 4.27353   8
  -6 -10   2 61.9256 5.35779   1
   6  10  -2 41.3842 5.12836  11
   6  10  -2 48.8937 4.71396   1
  -6  10   2 45.9662 4.30887   3
   4 -10  -2 843.046 20.2853   6
   4 -10  -2 850.796 20.7460   1
  -4 -10   2 850.409 21.8273   1
   4 -10  -2 864.344 25.0615  13
   4  10  -2 779.525 21.6905   1
  -4  10   2 831.958 20.8551   3
   4  10  -2 842.265 21.5712  11
  -2 -10   2 71.3509 4.84476   1
   2 -10  -2 80.5162 4.79013   6
   2 -10  -2 79.4428 5.32407   1
   2 -10  -2 87.9918 6.43477  13
  -2 -10   2 79.8831 4.55167   6
   2  10  -2 74.3422 5.24931  11
   2  10  -2 82.7169 4.70726   3
  -2  10   2 73.4728 5.67929   7
  -2  10   2 89.4023 5.44098   3
   2  10  -2 73.2813 5.55125   7
   0 -10  -2 1388.31 32.1232  13
   0 -10   2 1424.05 31.0906   1
   0 -10   2 1429.75 30.3135   6
   0  10  -2 1444.76 34.3943   7
   0  10   2 1443.46 31.6544   3
   0  10  -2 1427.14 30.3933   3
  -2 -10  -2 86.7140 5.62363   1
  -2 -10  -2 92.8125 5.36813   2
   2 -10   2 82.4798 4.50135   6
   2 -10   2 89.2359 4.77735   1
   2 -10   2 84.8458 6.86978  13
  -2  10  -2 84.7191 4.97465   3
  -2  10  -2 83.8249 6.59258   7
   2  10   2 95.3933 5.98555   1
   2  10   2 87.5011 5.92271  11
   4 -10   2 1352.97 27.7606   6
  -4 -10  -2 1321.81 30.4282   2
   4 -10   2 1275.30 34.0927  13
   4  10   2 1265.62 31.1198  11
   4  10   2 1345.61 32.1745   1
  -4  10  -2 1324.68 29.5216   3
  -4  10  -2 1320.32 33.9832   7
   6 -10   2 35.4811 2.94679   6
  -6 -10  -2 34.0432 4.35307   2
   6  10   2 31.3665 4.64227  11
   6  10   2 43.5588 5.47942   1
  -6  10  -2 31.5706 3.97670   3
  -6  10  -2 41.4710 6.13757   7
  -7 -11   2 109.442 7.21850   1
  -7 -11   2 105.446 7.06045   2
   7 -11  -2 103.466 5.80453   6
   7 -11  -2 91.1197 5.37040   1
  -7  11   2 99.0354 6.93343   3
   7  11  -2 103.764 7.59798   1
   7  11  -2 97.8141 7.58018  11
  -5 -11   2 148.654 8.17361   1
   5 -11  -2 119.989 6.45695   1
   5 -11  -2 122.708 6.37391   6
   5  11  -2 124.088 7.64172  11
  -5  11   2 125.666 6.84909   3
   3 -11  -2 99.2428 5.74506   6
   3 -11  -2 100.206 7.70832  13
  -3 -11   2 92.3848 6.11518   1
   3 -11  -2 92.2536 5.87345   1
   3  11  -2 96.5233 5.61508   3
   3  11  -2 114.692 7.38124   7
  -3  11   2 91.2461 7.35699   7
   3  11  -2 98.7519 6.44620  11
  -3  11   2 96.4744 5.87200   3
   1 -11  -2 183.544 9.30845  13
  -1 -11   2 187.584 7.64915   6
   1 -11  -2 201.429 8.99766   1
  -1 -11   2 184.362 8.40704   1
   1 -11  -2 180.899 7.69154   6
  -1  11   2 178.780 9.18707   7
   1  11  -2 192.446 10.0108   7
   1  11  -2 196.167 8.00226   3
  -1  11   2 195.620 8.59870   3
   1 -11   2 69.0694 6.51161  13
   1 -11   2 78.3395 4.55736   6
   1 -11   2 77.9001 5.06581   1
  -1 -11  -2 64.9640 4.94004   2
  -1  11  -2 72.7497 6.80490   7
   1  11   2 65.0792 5.46162   3
   1  11   2 73.3548 5.36366  11
  -1  11  -2 71.9727 4.90734   3
   3 -11   2 107.679 5.48054   1
   3 -11   2 104.386 5.54688   6
  -3 -11  -2 109.064 6.72365   2
   3  11   2 107.337 6.75878   1
  -3  11  -2 113.606 8.60879   7
  -3  11  -2 117.521 6.43925   3
   3  11   2 99.8213 6.99125  11
   5 -11   2 62.3988 3.99962   6
  -5 -11  -2 55.5756 5.60733   2
  -5  11  -2 56.3540 4.93597   3
   5  11   2 62.6684 5.83832   1
  -5  11  -2 69.2033 7.36044   7
   5  11   2 71.5626 7.08407  11
   6 -12  -2 594.849 16.6206   6
  -6 -12   2 622.525 19.0994   1
   6 -12  -2 611.663 16.9178   1
  -6  12   2 572.028 17.6404   3
   6  12  -2 588.319 18.8954  11
  -4 -12   2 105.341 7.24515   1
   4 -12  -2 105.895 6.19879   6
   4 -12  -2 113.982 6.70832   1
   4  12  -2 101.008 7.12440  11
   4  12  -2 97.7191 6.41714   3
  -4  12   2 100.801 6.69362   3
   2 -12  -2 692.382 19.5939   1
  -2 -12   2 686.391 19.7542   1
   2 -12  -2 690.664 18.5066   6
   2 -12  -2 690.192 21.9917  13
  -2  12   2 683.923 19.0442   3
  -2  12   2 662.810 21.2887   7
   2  12  -2 656.849 21.0442   7
   2  12  -2 698.169 18.5749   3
   0 -12  -2 136.078 7.98549   1
   0 -12   2 128.307 7.13513   1
   0 -12   2 137.513 6.85438   6
   0  12  -2 137.076 9.15278   7
   0  12  -2 123.205 6.69518   3
   0  12   2 133.544 7.64606   3
  -2 -12  -2 450.506 15.3609   1
  -2 -12  -2 420.084 13.8438   2
   2 -12   2 421.246 13.0683   6
  -2  12  -2 417.092 13.3351   3
  -2  12  -2 449.347 17.3953   7
   2  12   2 462.147 15.3912   3
   2  12   2 428.235 14.9817  11
   4 -12   2 123.505 6.06741   6
  -4 -12  -2 123.553 7.73652   1
  -4  12  -2 122.382 9.41094   7
   4  12   2 107.198 7.35078   1
   4  12   2 108.876 7.75449  11
  -4  12  -2 111.871 6.65156   3
   3 -13  -2 10.9947 2.70586   1
  -3 -13   2 12.6286 3.61476   1
   3 -13  -2 15.9471 3.12924   6
  -3  13   2 9.48785 3.19032   3
   3  13  -2 10.2988 2.85904   3
  -1 -13   2 24.0437 3.73896   1
  -1 -13   2 23.9757 3.34750   6
   1 -13  -2 26.7525 4.48858   1
   1  13  -2 29.4589 5.31311   7
   1  13  -2 24.9279 3.38191   3
  -1  13   2 26.9638 4.23978   3
   1 -13   2 8.06484 2.46625   6
  -1 -13  -2 13.8789 3.72183   1
  -1  13  -2 6.98205 2.48648   3
   1  13   2 8.35311 3.19155   3
  -1  13  -2 11.0877 3.46281   7
 -12   0   3 -1.2865 2.15360   5
  12   0  -3 -0.0925 1.77999   1
  12   0  -3 0.80839 3.19110  11
 -12   0   3 0.38961 1.78457   8
  12   0  -3 1.82860 2.03331   6
  10   0  -3 0.39530 1.54442   1
  10   0  -3 0.62982 2.20113  11
 -10   0   3 0.88616 1.60247   8
 -10   0   3 0.14343 1.85949   5
  10   0  -3 1.01992 1.62677   6
  -8   0   3 0.42395 0.82715   8
  -8   0   3 0.23887 1.35834   3
   8   0  -3 0.94693 1.26267   1
   8   0  -3 -0.6843 1.65519  11
  -8   0   3 -0.7336 1.25310   5
   8   0  -3 0.95363 1.18139   6
   8   0  -3 -0.6596 1.17640  13
  -6   0   3 0.50538 0.84140   3
   6   0  -3 1.54285 1.02203   1
   6   0  -3 0.62687 0.79580  11
   6   0  -3 -0.4904 0.67244   6
  -6   0   3 0.96298 0.82615   8
  -6   0   3 0.58251 0.61986   1
  -6   0   3 1.53973 0.70815  12
   6   0  -3 1.79018 1.24927  13
   4   0  -3 1.13236 0.54266   1
  -4   0   3 0.40570 0.51939   1
  -4   0   3 0.51981 0.40545  12
  -4   0   3 7.39797 1.16008   9
   2   0  -3 3.48963 0.65928   1
   2   0  -3 4.42049 0.67961  14
  -2   0   3 4.16595 0.58471   6
  -2   0   3 3.16808 0.80264  10
   0   0  -3 1.38903 0.57686   8
   0   0   3 2.22351 0.81464  10
   0   0  -3 0.27395 0.43266  14
   0   0  -3 2.38141 0.49639   4
   0   0  -3 1.42693 0.52593  10
   0   0   3 1.87518 0.34632   6
   0   0   3 1.22847 0.53377   9
  -2   0  -3 0.32117 0.62780   2
   2   0   3 0.36188 0.47642  11
   2   0   3 0.44424 0.23121   6
  -2   0  -3 -0.1006 0.70529   5
   2   0   3 0.38250 0.23252   6
  -2   0  -3 0.06240 0.36787   4
  -2   0  -3 0.92424 0.50822   7
   2   0   3 0.68163 0.37460   1
   2   0   3 0.38603 0.87695  10
   4   0   3 1.07833 0.52131   6
   4   0   3 0.71327 0.96386  11
  -4   0  -3 0.50293 0.64929   2
   4   0   3 2.04097 1.52253  10
   4   0   3 0.17417 0.51911   1
  -4   0  -3 0.28437 0.44755   4
  -4   0  -3 1.08646 0.73359  14
  -4   0  -3 0.06009 1.04757   5
  -4   0  -3 2.21130 1.14189   8
  -6   0  -3 -0.2660 1.46199   5
   6   0   3 0.50085 0.81661   6
   6   0   3 0.95051 1.50534  11
  -6   0  -3 1.20015 1.06102   8
   6   0   3 0.42154 0.65186   1
  -6   0  -3 1.18040 1.23363   2
   6   0   3 1.04025 1.71011  10
   8   0   3 6.24143 1.52251   6
  -8   0  -3 3.56873 2.30826   5
  -8   0  -3 7.63842 2.03024   8
   8   0   3 2.27315 2.51470  11
  11  -1  -3 266.287 9.76464   1
  11  -1  -3 266.630 11.3760  11
 -11  -1   3 254.467 10.2996   5
  11  -1  -3 258.748 9.58946   6
 -11  -1   3 258.599 9.83478   8
 -11   1   3 264.657 10.7653   5
  11   1  -3 258.074 10.1088   1
 -11   1   3 259.430 9.35912   8
  11   1  -3 254.440 9.85336   6
  11   1  -3 266.096 11.7001  11
   9  -1  -3 666.920 16.3558   6
  -9  -1   3 669.589 16.5653   8
   9  -1  -3 673.911 16.7757   1
   9  -1  -3 659.849 17.7112  11
  -9  -1   3 669.554 17.3257   5
  -9   1   3 683.133 17.9253   3
  -9   1   3 662.782 17.7822   5
   9   1  -3 669.482 18.3216  11
   9   1  -3 653.563 17.1543   1
  -9   1   3 656.397 15.9771   8
   9   1  -3 657.626 16.7396   6
   7  -1  -3 1248.67 25.7558   1
   7  -1  -3 1189.41 27.6917  13
  -7  -1   3 1203.01 25.3086   8
  -7  -1   3 1234.91 25.8962   5
  -7  -1   3 1254.27 25.4314  12
   7  -1  -3 1231.59 25.1625   6
   7   1  -3 1237.33 25.5291   6
  -7   1   3 1208.07 24.7551   8
   7   1  -3 1208.50 26.9859  13
   7   1  -3 1278.26 26.5658  11
  -7   1   3 1228.19 26.2407   5
   7   1  -3 1238.88 26.2448   1
  -7   1   3 1221.42 26.1977   3
  -7   1   3 1253.05 25.1577  12
  -5  -1   3 1270.97 24.7108  12
  -5  -1   3 1238.24 25.0403   3
   5  -1  -3 1257.75 26.7831  13
  -5  -1   3 1300.64 24.9975   1
   5  -1  -3 1253.88 25.2698   1
   5  -1  -3 1300.00 24.7983   6
  -5   1   3 1267.70 25.4755   9
   5   1  -3 1256.89 23.9710   4
   5   1  -3 1282.68 26.4561  13
   5   1  -3 1258.52 25.5626   1
  -5   1   3 1289.03 24.5615  12
   5   1  -3 1269.56 25.1828  11
   5   1  -3 1269.77 24.9466   6
  -5   1   3 1264.66 24.5070   1
  -5   1   3 1228.20 25.1040   3
   3  -1  -3 5056.54 101.699  13
  -3  -1   3 5009.22 92.7267  12
   3  -1  -3 4784.24 92.8654   6
  -3  -1   3 4924.30 95.2979   1
   3  -1  -3 4998.81 96.8819  10
  -3  -1   3 4905.24 92.3677   6
  -3  -1   3 5192.90 103.663  10
   3  -1  -3 4788.68 94.7865   1
  -3  -1   3 4939.55 92.4192   9
   3  -1  -3 4904.55 92.7367  14
  -3   1   3 4840.42 95.5984   9
   3   1  -3 4778.26 93.1016   1
   3   1  -3 4942.40 97.9740  10
  -3   1   3 4733.87 93.6867   3
   3   1  -3 4805.79 92.4330  14
   3   1  -3 4967.49 93.0200  11
   3   1  -3 5048.17 100.805  13
  -3   1   3 4997.15 103.189  10
   3   1  -3 4871.62 93.0548   4
  -3   1   3 4929.42 94.4608   1
  -3   1   3 5063.70 93.0523  12
   3   1  -3 4883.80 92.6177   6
  -1  -1   3 1125.77 21.0090  12
   1  -1  -3 1142.17 21.9370  13
  -1  -1   3 1104.39 20.6180   6
   1  -1  -3 1082.34 22.2496  10
  -1  -1   3 1126.23 20.9277   9
   1  -1  -3 1147.75 21.0804   8
   1  -1  -3 1124.71 21.2371  14
   1  -1  -3 1114.89 21.0939   2
   1  -1  -3 1097.96 21.2738   1
  -1  -1   3 1081.93 20.9958   1
  -1  -1   3 1148.69 22.3953  10
  -1   1   3 1122.02 20.8822   6
  -1   1   3 1140.16 22.7787  10
  -1   1   3 1112.33 21.3255   1
  -1   1   3 1113.15 20.9249  12
   1   1  -3 1090.13 21.9281  10
   1   1  -3 1122.16 21.2967   2
   1   1  -3 1102.79 21.6935   7
  -1   1   3 1130.84 21.4660   9
   1   1  -3 1136.13 21.2153   4
   1   1  -3 1115.60 21.3873  14
   1  -1   3 3868.18 71.3573   1
  -1  -1  -3 3913.00 75.4421  14
  -1  -1  -3 3813.17 73.0982   4
  -1  -1  -3 3846.80 74.9490   5
  -1  -1  -3 3781.00 72.6040   8
  -1  -1  -3 3729.12 72.5486   2
   1  -1   3 4182.79 76.2300  10
  -1   1  -3 3846.36 72.6826  14
   1   1   3 3756.14 72.0901  11
   1   1   3 3981.70 82.1409  10
  -1   1  -3 3877.97 75.5909   7
  -1   1  -3 3950.48 73.5474   5
  -1   1  -3 3947.32 74.1674   3
   1   1   3 3855.37 73.0312   6
   1   1   3 3864.31 75.6367   1
  -1   1  -3 3700.72 72.5590   4
  -1   1  -3 3843.12 72.3495   8
  -1   1  -3 3673.09 74.9445   2
  -3  -1  -3 1244.30 25.9051   5
  -3  -1  -3 1254.54 25.3664   2
   3  -1   3 1301.74 28.2783  10
   3  -1   3 1240.04 23.2946   1
  -3  -1  -3 1243.46 24.6298  14
  -3  -1  -3 1261.75 25.6678   8
   3   1   3 1240.77 24.4913   1
  -3   1  -3 1317.71 25.2284   7
  -3   1  -3 1283.05 25.6004   8
  -3   1  -3 1279.56 25.3902   2
  -3   1  -3 1233.29 24.1400   4
   3   1   3 1242.79 24.8473  11
   3   1   3 1263.23 23.9051   6
  -3   1  -3 1241.99 24.9616   3
   3   1   3 1268.34 28.3874  10
  -3   1  -3 1279.19 24.9155  14
  -3   1  -3 1250.63 26.2987   5
   5  -1   3 800.922 15.0700   6
  -5  -1  -3 754.171 18.7523   5
   5  -1   3 789.649 21.5428  10
  -5  -1  -3 791.179 18.3484   8
   5  -1   3 765.593 15.6684   1
  -5  -1  -3 761.353 16.5964  14
   5  -1   3 782.397 17.6684  11
  -5  -1  -3 791.624 17.8740   2
   5   1   3 763.097 16.8419   1
   5   1   3 787.229 18.0803  11
  -5   1  -3 784.800 18.1040   8
   5   1   3 799.333 16.5459   6
  -5   1  -3 796.636 17.7275   2
   5   1   3 802.367 22.0823  10
  -5   1  -3 780.603 19.2364   5
   7  -1   3 653.602 17.0486  11
  -7  -1  -3 680.146 18.3489   5
  -7  -1  -3 696.926 17.6663   8
   7  -1   3 648.093 14.4045   6
  -7  -1  -3 659.791 16.5383   2
   7   1   3 641.793 15.5840   1
   7   1   3 676.264 15.6644   6
  -7   1  -3 656.833 17.0592   8
  -7   1  -3 647.449 18.3680   5
   7   1   3 621.164 17.3170  11
  -7   1  -3 706.719 16.4664   2
   9  -1   3 196.971 6.82816   6
  -9  -1  -3 198.933 8.90828   8
   9  -1   3 204.227 9.46767  11
  -9  -1  -3 191.038 9.12254   5
  -9   1  -3 178.013 9.54710   5
  -9   1  -3 185.930 8.18485   8
   9   1   3 194.039 9.53876  11
   9   1   3 195.617 7.61914   6
 -12  -2   3 88.2602 6.04572   8
  12  -2  -3 88.9833 5.52167   1
  12  -2  -3 85.2519 5.56058   6
  12  -2  -3 87.6571 7.20986  11
  12   2  -3 95.7385 6.36501   6
  12   2  -3 97.0157 7.51369  11
 -12   2   3 91.7451 7.03486   5
  10  -2  -3 214.805 8.15308   1
  10  -2  -3 207.784 9.28775  11
 -10  -2   3 210.857 8.69236   5
  10  -2  -3 211.790 7.96913   6
 -10  -2   3 213.665 8.52252   8
 -10   2   3 210.758 9.35569   5
 -10   2   3 207.591 9.27517   3
  10   2  -3 219.851 8.73543   6
  10   2  -3 210.447 9.71368  11
  10   2  -3 217.382 9.02154   1
  -8  -2   3 277.292 8.80927   8
  -8  -2   3 265.738 8.77996   5
   8  -2  -3 278.996 8.31438   6
   8  -2  -3 278.840 8.65859   1
   8  -2  -3 261.013 10.3711  13
  -8  -2   3 268.919 7.57148   2
  -8   2   3 282.127 9.56442   5
   8   2  -3 290.979 9.10943   6
  -8   2   3 264.042 9.18306   3
   8   2  -3 289.524 9.84182  11
   8   2  -3 270.605 9.28069   1
  -8   2   3 275.897 7.92739   8
  -6  -2   3 296.874 8.05223   5
  -6  -2   3 302.533 8.10445  12
  -6  -2   3 292.009 8.05703   1
   6  -2  -3 301.811 7.83081   6
   6  -2  -3 300.026 8.26901   1
   6  -2  -3 306.132 10.1123  13
  -6   2   3 300.347 7.65674  12
   6   2  -3 298.027 8.25333   6
  -6   2   3 296.754 7.37436   8
  -6   2   3 292.420 8.55324   5
   6   2  -3 297.690 8.80838   1
  -6   2   3 283.244 8.46065   3
   6   2  -3 301.183 8.72851  11
   6   2  -3 288.280 8.97917  13
   4  -2  -3 714.583 16.4169  13
   4  -2  -3 699.056 14.3383   6
  -4  -2   3 685.663 14.8039   1
  -4  -2   3 683.568 14.0967   6
   4  -2  -3 683.499 14.8807   1
  -4  -2   3 700.132 14.3884  12
  -4   2   3 696.951 14.3221   1
   4   2  -3 701.186 15.2735   1
  -4   2   3 705.009 14.7457   3
   4   2  -3 704.774 14.6194  11
   4   2  -3 715.631 13.9928   4
   4   2  -3 712.147 15.9459  13
  -4   2   3 704.233 15.0343   9
   4   2  -3 697.939 14.5160   6
  -4   2   3 691.008 14.0145  12
   2  -2  -3 443.546 9.83367   1
  -2  -2   3 440.703 9.18852  12
  -2  -2   3 468.463 8.84693   9
  -2  -2   3 425.414 9.48560   1
   2  -2  -3 422.974 10.5724  10
   2  -2  -3 427.113 8.73293   2
   2  -2  -3 443.850 10.4681  13
  -2  -2   3 446.118 10.3312  10
  -2  -2   3 432.217 9.10000   6
   2  -2  -3 430.928 9.24072   6
   2   2  -3 448.612 9.43188   4
  -2   2   3 447.494 9.18515   3
   2   2  -3 458.388 9.59266   1
  -2   2   3 432.510 9.09720   6
   2   2  -3 438.823 9.38474  14
  -2   2   3 430.716 8.93449  12
   2   2  -3 425.314 10.0378  10
   2   2  -3 442.810 8.95376  11
   2   2  -3 431.762 10.3250   7
  -2   2   3 444.440 10.7926  10
  -2   2   3 433.458 9.71489   9
  -2   2   3 447.303 9.64431   1
   0  -2   3 718.676 12.8063   6
   0  -2   3 691.377 12.7921   6
   0  -2   3 689.564 13.4281   1
   0  -2  -3 710.459 14.2043  13
   0  -2   3 706.388 13.6007   9
   0  -2  -3 678.598 15.2781  10
   0  -2  -3 708.718 14.0602   8
   0  -2   3 696.995 13.7682  12
   0  -2  -3 701.030 14.2268   2
   0  -2   3 716.026 15.1095  10
   0  -2  -3 710.116 14.1945   1
   0   2  -3 684.315 13.3184   3
   0   2   3 698.479 15.6927  10
   0   2  -3 694.782 14.1828   8
   0   2  -3 684.916 14.3613   2
   0   2  -3 698.220 14.6448   7
   0   2   3 701.313 14.5117   9
   0   2   3 688.390 13.3655  11
   0   2  -3 722.377 14.2741   4
   0   2  -3 707.812 14.5826   5
   0   2  -3 679.545 14.5432  10
   0   2   3 699.420 14.3676   1
   0   2  -3 691.898 14.4610  14
   0   2   3 685.476 13.8051   6
   2  -2   3 639.390 12.0722   1
  -2  -2  -3 645.241 12.7651   4
   2  -2   3 676.198 16.1597  10
  -2  -2  -3 634.111 13.2745   1
  -2  -2  -3 666.834 14.4646   8
  -2  -2  -3 640.340 13.7792  14
  -2  -2  -3 649.740 14.2588   2
  -2  -2  -3 650.298 14.3292   5
   2   2   3 670.593 16.6425  10
  -2   2  -3 664.718 14.5469   7
  -2   2  -3 658.855 14.2069  14
   2   2   3 670.906 13.5853   6
   2   2   3 651.382 14.0915   1
  -2   2  -3 669.743 14.3395   2
  -2   2  -3 678.255 13.9179   4
  -2   2  -3 656.705 14.2240   8
   2   2   3 647.712 13.6879  11
  -2   2  -3 658.171 13.6558   3
  -2   2  -3 652.588 15.0040   5
  -4  -2  -3 275.774 8.42985   8
   4  -2   3 281.750 10.3195  10
  -4  -2  -3 258.897 8.23473   5
  -4  -2  -3 276.772 8.14038   2
  -4  -2  -3 271.094 7.36628  14
  -4   2  -3 279.589 8.02392   3
  -4   2  -3 272.607 7.22365   4
   4   2   3 284.072 7.48308   6
  -4   2  -3 288.743 9.22352   5
   4   2   3 274.653 7.85564   1
   4   2   3 274.494 10.6333  10
  -4   2  -3 281.828 8.18342   8
  -4   2  -3 283.224 7.98526   2
   4   2   3 265.797 8.08356  11
  -4   2  -3 276.495 7.66037  14
  -4   2  -3 290.650 8.56746   7
  -6  -2  -3 336.742 10.1317   2
   6  -2   3 329.885 7.13756   6
   6  -2   3 319.798 12.8534  10
  -6  -2  -3 319.844 10.4514   8
  -6  -2  -3 333.766 10.8395   5
   6  -2   3 335.253 10.0502  11
   6   2   3 340.355 9.74850   1
   6   2   3 326.784 9.32592   6
   6   2   3 326.614 10.6300  11
  -6   2  -3 330.217 9.58797   2
  -6   2  -3 322.044 11.2979   5
  -6   2  -3 330.056 9.97115   8
  -8  -2  -3 147.837 6.82913   2
   8  -2   3 144.533 5.06369   6
   8  -2   3 148.567 7.39671  11
  -8  -2  -3 142.335 7.16726   8
  -8  -2  -3 146.939 7.66944   5
   8   2   3 153.407 6.54037   6
   8   2   3 135.928 7.72776  11
   8   2   3 145.362 6.29786   1
  -8   2  -3 149.314 8.30843   5
  11  -3  -3 658.817 19.2782  11
  11  -3  -3 657.588 17.1151   6
 -11  -3   3 644.695 18.0681   8
  11  -3  -3 619.899 16.8456   1
  11   3  -3 661.671 18.9000   1
  11   3  -3 662.338 18.4937   6
 -11   3   3 657.097 19.5585   5
  11   3  -3 662.754 20.3554  11
 -11   3   3 658.065 19.1833   3
  -9  -3   3 53.1623 3.91964   8
   9  -3  -3 61.6412 4.01452   1
  -9  -3   3 49.4016 3.91506   5
   9  -3  -3 45.0673 4.87637  13
   9  -3  -3 48.3674 3.49766   6
  -9   3   3 49.8022 4.22898   5
   9   3  -3 45.9655 4.81385  11
  -9   3   3 63.3152 4.86527   3
   9   3  -3 50.6405 4.13268   6
   9   3  -3 53.8966 4.28590   1
   7  -3  -3 1965.82 42.9294  13
  -7  -3   3 2058.42 39.6543   5
  -7  -3   3 2057.73 40.1062   8
  -7  -3   3 1989.88 39.5065   1
   7  -3  -3 2010.84 39.1064   6
   7  -3  -3 2016.04 39.6903   1
  -7  -3   3 2035.00 39.7458  12
   7   3  -3 2036.76 41.0406  11
  -7   3   3 1980.23 38.1951   8
   7   3  -3 2050.96 40.1881   6
   7   3  -3 2018.62 41.0323   1
  -7   3   3 2069.39 40.9243   5
  -7   3   3 2051.71 40.7033   3
  -5  -3   3 180.072 5.40886  12
   5  -3  -3 171.780 5.29159   6
   5  -3  -3 175.250 5.70192   1
   5  -3  -3 182.624 7.18393  13
  -5  -3   3 173.741 5.73495   1
  -5   3   3 202.994 6.20081   9
  -5   3   3 171.588 4.94365   1
  -5   3   3 172.556 4.49756   8
   5   3  -3 184.636 5.68418   6
  -5   3   3 176.501 4.91281  12
   5   3  -3 164.660 4.50840   4
   5   3  -3 176.030 5.81714  11
   5   3  -3 181.153 6.27027   1
  -5   3   3 178.470 5.91034   3
  -3  -3   3 5795.34 113.326   6
   3  -3  -3 6254.12 119.411  13
  -3  -3   3 5875.40 116.161   1
  -3  -3   3 5803.59 109.285  12
   3  -3  -3 5654.14 114.864   1
   3  -3  -3 6104.47 116.552   6
   3   3  -3 6128.42 114.195  11
  -3   3   3 6126.60 125.352  10
   3   3  -3 6086.02 114.723   1
  -3   3   3 5883.33 110.001   1
   3   3  -3 6071.36 117.079  10
  -3   3   3 5949.38 114.998   3
  -3   3   3 5908.50 110.566  12
   3   3  -3 6036.80 116.176   7
   3   3  -3 5915.20 113.252   4
  -3   3   3 6109.03 116.811   9
   3   3  -3 6092.56 114.283  14
   1  -3  -3 745.101 15.1076   6
   1  -3  -3 795.206 15.1576   2
  -1  -3   3 752.268 15.2763   1
  -1  -3   3 784.828 14.7619   6
  -1  -3   3 750.002 14.8596  12
   1  -3  -3 734.719 16.4356  10
   1  -3  -3 723.653 15.7560   1
  -1  -3   3 782.802 15.7932  10
   1  -3  -3 775.056 14.7478   8
   1  -3  -3 774.521 16.1186  13
   1   3  -3 750.361 16.3500   7
  -1   3   3 739.702 15.1103   6
  -1   3   3 764.279 16.7513  10
   1   3  -3 759.193 14.3912   3
  -1   3   3 750.972 14.6966  12
  -1   3   3 803.086 15.8762   1
   1   3  -3 782.768 15.2117   1
   1   3  -3 774.786 15.8347  14
   1   3  -3 767.780 14.8520  11
   1   3  -3 796.323 15.7628   4
  -1   3   3 752.599 14.9920  11
   1   3  -3 760.674 15.4349  10
  -1   3   3 768.918 15.8316   9
   1  -3   3 5418.36 103.700   1
  -1  -3  -3 5693.29 108.306  13
  -1  -3  -3 5658.25 107.663   8
  -1  -3  -3 5380.55 103.752   1
  -1  -3  -3 5554.35 106.669   2
   1  -3   3 5774.29 114.742  10
  -1   3  -3 5560.31 112.359   7
   1   3   3 5797.42 117.147  10
  -1   3  -3 5757.16 107.419   3
   1   3   3 5668.44 109.510   9
   1   3   3 5444.30 102.819  11
  -1   3  -3 5417.79 107.959   4
   1   3   3 5520.26 106.419   6
   1   3   3 5553.18 111.387   1
  -1   3  -3 5714.90 100.935   2
  -1   3  -3 5707.96 106.949   8
  -1   3  -3 5560.63 101.186   5
  -1   3  -3 5527.78 109.513  14
  -3  -3  -3 385.174 10.0755   5
  -3  -3  -3 417.142 9.81451  14
  -3  -3  -3 389.734 10.3590   8
  -3  -3  -3 417.975 10.4448   1
  -3  -3  -3 401.136 10.2841   2
   3  -3   3 400.727 11.8425  10
  -3   3  -3 397.446 10.0824   8
   3   3   3 389.852 10.2784   1
   3   3   3 402.227 9.84709   6
   3   3   3 409.766 12.9726  10
   3   3   3 414.423 10.2966  11
  -3   3  -3 407.962 10.2387   2
  -3   3  -3 400.999 10.9190   7
  -3   3  -3 408.391 11.2300   5
  -3   3  -3 414.997 10.2770  14
  -3   3  -3 413.609 9.92283   4
  -3   3  -3 402.441 9.82723   3
  -5  -3  -3 1762.05 35.2079   2
   5  -3   3 1669.73 38.2880  10
  -5  -3  -3 1661.15 35.1775   5
  -5  -3  -3 1715.62 33.6379  14
  -5  -3  -3 1717.52 35.4860   8
   5  -3   3 1682.59 35.6054  13
   5   3   3 1755.16 40.0065  10
  -5   3  -3 1773.62 35.0117   3
  -5   3  -3 1750.51 34.9600   8
  -5   3  -3 1777.80 36.8771   5
   5   3   3 1718.65 35.0023   1
  -5   3  -3 1778.84 36.2673   7
   5   3   3 1740.80 34.4835   6
  -5   3  -3 1711.92 33.7151   4
  -5   3  -3 1713.28 34.0935  14
  -5   3  -3 1729.15 34.4784   2
   5   3   3 1695.09 35.4871  11
   7  -3   3 85.3206 5.19671  11
  -7  -3  -3 86.2246 5.19496   2
  -7  -3  -3 82.3553 5.43761   5
   7  -3   3 88.7105 2.96450   6
  -7  -3  -3 89.2799 5.43479   8
   7   3   3 80.4837 5.79250  11
  -7   3  -3 80.1514 4.73989   8
   7   3   3 82.1084 4.83065   1
   7   3   3 89.1666 4.97331   6
  -7   3  -3 84.2954 6.11339   5
   9  -3   3 429.430 10.6278   6
  -9  -3  -3 410.032 14.0456   8
  -9  -3  -3 423.257 13.3544   2
   9  -3   3 426.979 14.0449  11
   9   3   3 431.988 13.1467   1
   9   3   3 450.003 13.5350   6
  -9   3  -3 432.288 15.5362   5
 -10  -4   3 191.945 8.27558   8
  10  -4  -3 188.033 7.48270   1
  10  -4  -3 187.923 7.40309   6
 -10   4   3 194.344 9.23240   5
  10   4  -3 198.055 10.0604  11
  10   4  -3 202.807 9.24426   1
  10   4  -3 188.189 8.23881   6
 -10   4   3 185.143 8.80596   3
  -8  -4   3 274.113 9.32617   8
   8  -4  -3 285.008 11.5182  13
   8  -4  -3 273.418 8.68475   1
   8  -4  -3 297.610 8.62971   6
   8   4  -3 285.814 10.2116   1
   8   4  -3 276.252 10.3861  11
   8   4  -3 288.641 9.51630   6
  -8   4   3 274.617 9.71341   3
  -8   4   3 273.174 9.92966   5
  -6  -4   3 356.921 10.0878   1
  -6  -4   3 378.097 10.2906   8
   6  -4  -3 397.643 10.1711   1
   6  -4  -3 384.395 9.62324   6
  -6  -4   3 388.181 9.94461  12
  -6  -4   3 363.325 9.25986   5
   6  -4  -3 372.721 12.4543  13
   6   4  -3 374.200 11.0217   1
   6   4  -3 378.874 10.1506   6
  -6   4   3 365.932 10.5277   5
  -6   4   3 372.832 10.4715   3
  -6   4   3 367.202 8.88920  12
   6   4  -3 377.753 10.7140  11
  -4  -4   3 1341.12 26.2294   6
  -4  -4   3 1383.49 26.2216  12
   4  -4  -3 1366.79 27.0226   1
  -4  -4   3 1337.57 27.1632   1
   4  -4  -3 1351.40 26.3279   6
   4  -4  -3 1346.62 29.0914  13
  -4   4   3 1353.89 26.9593   9
   4   4  -3 1370.95 28.2463   7
   4   4  -3 1288.83 25.7047   4
  -4   4   3 1373.34 26.9048   3
   4   4  -3 1309.74 26.2662   6
   4   4  -3 1345.34 26.8515  11
  -4   4   3 1367.31 25.2849  12
   4   4  -3 1359.54 27.4721   1
  -2  -4   3 903.297 18.1385   6
   2  -4  -3 885.516 18.3744   6
   2  -4  -3 934.106 19.2000   1
  -2  -4   3 909.564 18.7470   1
   2  -4  -3 926.190 17.7565   2
   2  -4  -3 914.354 19.9372  13
  -2  -4   3 903.471 17.7770  12
  -2   4   3 940.823 18.8625   9
   2   4  -3 922.303 19.8588   7
   2   4  -3 912.486 18.5003   1
   2   4  -3 936.626 18.6909   4
  -2   4   3 932.643 18.8247   1
   2   4  -3 936.839 18.3830  11
  -2   4   3 911.304 17.3318  12
   2   4  -3 937.771 18.8423  14
   2   4  -3 926.395 18.3718  10
  -2   4   3 918.914 18.6005   3
  -2   4   3 926.836 19.7759  10
   0  -4   3 1345.01 25.2910  12
   0  -4  -3 1347.90 26.2369   2
   0  -4   3 1297.73 25.5107   1
   0  -4  -3 1337.50 25.6591   8
   0  -4   3 1341.29 24.9353   6
   0  -4  -3 1301.55 26.6587   1
   0  -4  -3 1295.42 25.6957   6
   0  -4   3 1385.50 26.2221  10
   0  -4  -3 1371.38 26.3937  13
   0   4   3 1313.02 25.9885   6
   0   4  -3 1384.20 26.7336   4
   0   4  -3 1372.51 26.9161  14
   0   4   3 1383.96 26.6679   9
   0   4  -3 1339.95 27.5781   7
   0   4   3 1378.13 26.8967   1
   0   4  -3 1380.06 26.4163   5
   0   4  -3 1386.59 25.4188   3
   0   4   3 1395.08 27.9985  10
   0   4   3 1357.26 25.9887  11
   2  -4   3 881.221 16.9214   1
   2  -4   3 875.940 20.0762  10
  -2  -4  -3 919.891 19.3962   2
  -2  -4  -3 874.931 18.8364   1
  -2  -4  -3 889.290 19.1066   8
  -2   4  -3 922.832 18.5761   3
   2   4   3 885.493 18.9179  11
   2   4   3 916.531 19.7678   1
  -2   4  -3 922.867 19.2940   4
  -2   4  -3 918.138 19.4886  14
  -2   4  -3 918.593 20.0066   5
  -2   4  -3 917.388 18.7990   8
  -2   4  -3 922.254 19.3235   2
  -2   4  -3 911.021 20.4016   7
   2   4   3 909.895 19.7384   9
   2   4   3 950.688 21.9088  10
   2   4   3 908.562 18.9136   6
  -4  -4  -3 242.442 7.87181   2
   4  -4   3 242.564 9.20964  10
  -4  -4  -3 253.075 8.23547   8
  -4  -4  -3 240.167 7.52118   5
  -4  -4  -3 244.912 7.23755  14
   4   4   3 259.758 10.6113  10
   4   4   3 257.366 7.88314   6
  -4   4  -3 250.174 7.73968   2
  -4   4  -3 255.001 8.90113   5
   4   4   3 233.423 7.95761  11
  -4   4  -3 249.180 8.89326   7
  -4   4  -3 252.372 7.64193   8
  -4   4  -3 256.437 7.83300  14
   4   4   3 247.303 8.19416   1
  -4   4  -3 250.982 7.48848   4
  -4   4  -3 253.966 7.61284   3
   6  -4   3 220.992 10.0698  10
  -6  -4  -3 240.975 9.11638   8
  -6  -4  -3 268.825 9.19285   2
   6   4   3 251.928 9.67623  11
   6   4   3 263.636 9.16791   1
   6   4   3 249.797 8.73001   6
  -6   4  -3 242.952 9.67883   5
  -6   4  -3 242.924 8.26687   8
  -6   4  -3 246.476 8.70703   3
  -8  -4  -3 75.2925 5.45179   8
   8  -4   3 78.1911 3.02910   6
   8  -4   3 79.8040 5.55700  11
  -8  -4  -3 71.2893 4.94543   2
  -8   4  -3 75.6174 6.25380   5
   8   4   3 71.7528 5.12230   1
   8   4   3 70.6875 6.27708  11
   8   4   3 75.3474 5.24786   6
 -11  -5   3 249.234 10.2108   8
  11  -5  -3 259.050 9.12343   6
  11   5  -3 256.084 12.3412  11
 -11   5   3 248.217 11.2646   5
  11   5  -3 246.930 11.0111   1
 -11   5   3 231.752 10.2541   3
  -9  -5   3 700.276 17.3056   2
   9  -5  -3 715.356 17.2385   1
  -9  -5   3 676.601 18.2458   8
   9  -5  -3 712.228 17.0359   6
   9  -5  -3 653.829 21.2270  13
   9   5  -3 710.393 20.1768  11
  -9   5   3 716.417 19.0473   3
   9   5  -3 713.551 19.7096   1
  -9   5   3 697.747 19.2405   5
   7  -5  -3 805.866 18.5702   1
  -7  -5   3 809.890 19.1803   1
   7  -5  -3 826.555 18.2244   6
  -7  -5   3 816.402 19.2574   8
   7  -5  -3 814.211 22.5337  13
   7   5  -3 825.985 20.2685  11
   7   5  -3 789.275 19.0697   6
   7   5  -3 828.301 20.6211   7
   7   5  -3 824.852 20.4406   1
  -7   5   3 817.517 19.7491   5
  -7   5   3 812.246 19.4696   3
   5  -5  -3 1572.43 33.9504  13
   5  -5  -3 1501.31 30.4458   1
  -5  -5   3 1539.89 29.8967  12
   5  -5  -3 1516.74 29.9063   6
  -5  -5   3 1533.96 31.0268   1
  -5   5   3 1480.38 28.4441  12
   5   5  -3 1516.35 30.9105  11
   5   5  -3 1511.58 31.4952   1
  -5   5   3 1570.14 30.9874   3
  -5   5   3 1479.84 30.5684   9
  -5   5   3 1536.15 30.7458   5
   5   5  -3 1439.52 31.7741   7
   3  -5  -3 1169.68 25.5199  13
  -3  -5   3 1166.53 22.3809  12
   3  -5  -3 1142.61 22.9727   6
   3  -5  -3 1044.56 21.5699   2
  -3  -5   3 1201.37 23.9412   1
  -3  -5   3 1174.10 22.9798   6
   3  -5  -3 1115.22 23.6639   1
   3   5  -3 1128.76 22.9198   4
   3   5  -3 1158.31 23.6351   1
  -3   5   3 1160.04 23.4612   3
   3   5  -3 1162.13 23.0917  10
  -3   5   3 1138.55 21.3300  12
  -3   5   3 1133.67 22.9877   1
  -3   5   3 1169.14 24.4036  10
  -3   5   3 1185.51 23.4947   9
   3   5  -3 1189.56 23.4889  11
   3   5  -3 1156.95 24.7931   7
  -1  -5   3 1395.50 27.4259   1
  -1  -5   3 1446.91 26.8224   6
   1  -5  -3 1375.13 26.9820   2
  -1  -5   3 1383.65 26.1176  12
   1  -5  -3 1387.13 25.8329   8
   1  -5  -3 1357.48 27.1419   6
   1  -5  -3 1426.10 28.4913  13
   1  -5  -3 1440.00 28.3537   1
   1   5  -3 1434.03 27.9401   4
   1   5  -3 1438.83 27.2919  11
  -1   5   3 1426.75 28.0066   1
  -1   5   3 1411.12 28.5576  10
   1   5  -3 1400.37 26.6085   3
  -1   5   3 1361.43 26.8896   6
  -1   5   3 1410.41 27.6685   9
  -1   5   3 1402.70 27.4148  11
   1   5  -3 1421.62 28.1511  14
  -1   5   3 1402.16 27.7253   3
   1   5  -3 1404.85 29.0600   7
   1   5  -3 1369.86 26.5520   1
  -1   5   3 1377.89 25.8547  12
  -1  -5  -3 789.115 16.7826   8
   1  -5   3 794.377 16.8934  10
   1  -5   3 799.227 16.0377   1
   1  -5   3 800.912 15.3827   6
   1  -5   3 783.352 15.8240  12
  -1  -5  -3 803.104 17.3455   2
  -1   5  -3 799.253 17.9470  14
  -1   5  -3 831.423 17.7988   4
   1   5   3 803.038 18.0193   1
  -1   5  -3 825.665 16.5626   3
   1   5   3 825.082 17.7338   9
   1   5   3 811.143 18.8506  10
  -1   5  -3 796.517 18.7768   7
   1   5   3 809.243 17.0739   6
   1   5   3 790.728 17.1449  11
  -1   5  -3 813.995 17.5635   5
  -3  -5  -3 954.234 20.9299   8
   3  -5   3 919.497 21.7757  10
  -3  -5  -3 1000.91 21.3112   2
   3   5   3 933.648 21.6498   1
  -3   5  -3 950.887 21.7022   5
  -3   5  -3 958.905 22.4997   7
   3   5   3 975.531 23.9107  10
  -3   5  -3 962.781 21.1821  14
   3   5   3 964.844 20.7971   6
  -3   5  -3 953.787 20.8632   4
   3   5   3 960.282 21.6121   9
  -3   5  -3 967.153 20.2614   3
  -3   5  -3 942.117 20.0304   8
   3   5   3 954.126 21.1145  11
  -3   5  -3 950.506 20.7109   2
  -5  -5  -3 486.425 13.3197   2
  -5  -5  -3 482.550 13.5488   8
   5  -5   3 480.699 14.6031  13
  -5  -5  -3 487.208 12.1953  14
   5   5   3 475.947 13.8592  11
  -5   5  -3 499.246 14.8991   7
   5   5   3 475.765 16.6910  10
  -5   5  -3 478.549 12.3920   8
  -5   5  -3 473.037 12.8111   3
  -5   5  -3 493.228 14.4065   5
  -5   5  -3 485.443 12.8372  14
  -5   5  -3 479.988 12.5928   4
   5   5   3 485.680 13.8248   1
   5   5   3 474.900 13.2446   6
  -7  -5  -3 604.944 17.3852   8
   7  -5   3 622.645 12.2006   6
  -7  -5  -3 615.807 17.1156   2
  -7   5  -3 621.499 18.4553   5
   7   5   3 613.103 17.4553   1
  -7   5  -3 641.887 17.0488   3
   7   5   3 620.128 18.1663  11
   7   5   3 628.271 17.1650   6
  -9   5  -3 217.079 10.6953   5
  10  -6  -3 61.4475 4.31481   6
  10  -6  -3 58.0093 4.09225   1
 -10  -6   3 62.1374 5.41118   8
 -10  -6   3 54.5512 4.15591   2
 -10   6   3 61.6755 5.72410   3
  10   6  -3 58.8817 5.74198   1
 -10   6   3 57.5688 5.61686   5
  10   6  -3 61.5750 6.81211  11
   8  -6  -3 207.209 7.44895   1
   8  -6  -3 197.293 10.5173  13
   8  -6  -3 204.157 7.21639   6
  -8  -6   3 200.285 8.24056   8
   8   6  -3 216.274 9.53508  11
   8   6  -3 208.311 9.26594   1
  -8   6   3 195.088 8.52832   5
  -8   6   3 202.027 8.42492   3
   6  -6  -3 554.661 17.3903  13
   6  -6  -3 573.743 13.6803   6
  -6  -6   3 567.172 14.4606   8
  -6  -6   3 576.812 14.9429   1
   6  -6  -3 586.418 14.2517   1
   6   6  -3 565.779 15.1789  11
  -6   6   3 573.811 14.9077   3
   6   6  -3 554.071 15.5010   7
  -6   6   3 560.383 14.6766   5
   6   6  -3 555.106 15.3768   1
  -4  -6   3 304.085 8.45674   6
   4  -6  -3 324.267 11.2015  13
   4  -6  -3 333.549 8.79452   6
  -4  -6   3 303.765 7.95922  12
  -4  -6   3 330.472 9.51820   1
   4  -6  -3 324.348 9.27192   1
   4   6  -3 320.391 9.47656   1
   4   6  -3 334.776 8.31061   4
  -4   6   3 315.055 8.89042   9
   4   6  -3 314.765 10.0539   7
  -4   6   3 328.591 9.28100   3
   4   6  -3 323.679 9.26412  11
  -4   6   3 310.929 8.66456   5
  -2  -6   3 1124.69 23.5634   1
   2  -6  -3 1107.52 22.1964   2
   2  -6  -3 1148.96 23.1525   6
   2  -6  -3 1149.44 25.0714  13
   2  -6  -3 1165.70 24.1268   1
  -2  -6   3 1143.28 22.8155   6
  -2  -6   3 1063.67 21.4957  12
  -2   6   3 1133.85 23.4630   3
   2   6  -3 1137.62 24.9840   7
   2   6  -3 1154.42 23.2469  11
  -2   6   3 1147.40 23.3743   1
  -2   6   3 1116.22 23.6549  10
   2   6  -3 1131.64 22.9279   1
   2   6  -3 1118.53 23.3179   4
  -2   6   3 1122.93 23.1032   9
   0  -6  -3 608.123 14.6521   1
   0  -6   3 618.356 13.0182   6
   0  -6  -3 599.589 12.7460   8
   0  -6  -3 593.266 13.6030   6
   0  -6  -3 618.687 13.9526   2
   0  -6   3 623.949 13.6429   1
   0  -6  -3 604.389 14.2756  13
   0   6  -3 641.710 15.9425   7
   0   6   3 641.171 14.3320   9
   0   6  -3 628.465 14.6578   4
   0   6   3 623.104 15.0099  10
   0   6   3 598.381 13.5615   6
   0   6   3 602.465 14.0814  11
   0   6   3 601.114 14.6547   1
   0   6  -3 601.675 13.2077   3
   2  -6   3 291.295 6.66794   6
   2  -6   3 293.257 7.14865   1
  -2  -6  -3 290.915 8.33805   8
  -2  -6  -3 311.569 9.01555   2
   2   6   3 292.907 9.41983   1
  -2   6  -3 297.471 10.2015   7
  -2   6  -3 301.801 9.34466  14
   2   6   3 305.220 8.86661  11
  -2   6  -3 291.788 9.05416   4
  -2   6  -3 301.511 8.20119   3
   2   6   3 301.587 10.1910  10
   2   6   3 296.512 9.00571   9
  -2   6  -3 303.585 9.07345   5
   2   6   3 291.672 8.57141   6
   4  -6   3 471.775 9.21473   6
  -4  -6  -3 499.333 13.2412   8
  -4  -6  -3 468.404 12.3404  14
  -4  -6  -3 461.404 13.0590   2
   4   6   3 485.331 15.9727  10
  -4   6  -3 473.333 14.6338   7
  -4   6  -3 486.248 13.1131   4
   4   6   3 481.259 13.8506   9
  -4   6  -3 499.632 14.0673   5
   4   6   3 473.903 13.1220   6
   4   6   3 484.053 14.0100   1
   4   6   3 481.201 13.5188  11
  -4   6  -3 486.655 12.6411   3
  -6  -6  -3 44.9901 3.97222   2
   6  -6   3 45.0356 1.68449   6
   6  -6   3 44.7895 4.72209  13
  -6  -6  -3 54.4630 4.67519   8
   6   6   3 55.3344 5.40322  11
  -6   6  -3 47.0042 5.10157   7
  -6   6  -3 48.6666 4.90965   5
   6   6   3 48.6833 4.71675   1
   6   6   3 43.2564 4.95542   9
  -6   6  -3 51.1364 4.21274   3
   6   6   3 49.4258 4.31409   6
   8  -6   3 80.3351 3.00524   6
  -8  -6  -3 80.7086 5.83085   8
  -8  -6  -3 90.6477 6.14764   2
  -8   6  -3 81.4743 6.70764   5
  -8   6  -3 82.0285 5.68744   3
   8   6   3 79.8929 6.96735   9
   8   6   3 95.9770 6.47061   1
   8   6   3 75.6572 6.08400  11
   8   6   3 76.2017 5.87441   6
  -9  -7   3 508.446 14.7282   2
  -9  -7   3 511.077 15.4477   8
   9  -7  -3 514.118 13.9674   6
   9  -7  -3 523.384 14.0041   1
  -9   7   3 501.367 15.9432   5
  -9   7   3 506.904 15.7030   3
   9   7  -3 505.495 16.6770   1
   9   7  -3 501.510 16.8538  11
   7  -7  -3 52.3418 3.78359   1
  -7  -7   3 58.4047 4.55788   1
  -7  -7   3 55.0962 4.32540   8
   7  -7  -3 58.6576 3.79352   6
   7  -7  -3 55.4522 5.48589  13
   7   7  -3 61.4009 4.78440   1
   7   7  -3 52.5111 4.44703  11
  -7   7   3 60.5268 4.59118   5
  -7   7   3 56.8433 4.64255   3
   5  -7  -3 1426.17 28.9748   6
   5  -7  -3 1406.64 29.4307   1
   5  -7  -3 1395.71 33.2931  13
  -5  -7   3 1432.44 30.4435   1
  -5  -7   3 1404.01 29.2745   8
  -5   7   3 1411.88 29.8437   3
   5   7  -3 1405.13 30.1642  11
  -5   7   3 1352.15 29.0415   9
   5   7  -3 1394.10 30.5288   1
  -5   7   3 1426.70 29.3246   5
   5   7  -3 1363.35 30.9549   7
   3  -7  -3 381.036 12.4933  13
  -3  -7   3 409.330 11.3331   1
  -3  -7   3 392.189 10.1958   6
   3  -7  -3 409.951 11.2071   1
   3  -7  -3 389.982 10.3882   6
   3   7  -3 397.018 12.0101   7
   3   7  -3 369.555 10.1321   4
   3   7  -3 390.074 10.7764  11
  -3   7   3 388.521 9.69909   5
  -3   7   3 378.651 9.97039   1
  -3   7   3 398.585 10.8897   3
  -3   7   3 388.683 10.2528   9
   3   7  -3 393.883 10.6358   1
   1  -7  -3 2808.56 54.1142  13
   1  -7  -3 2683.95 52.2297   6
  -1  -7   3 2741.68 52.7153   1
  -1  -7   3 2809.22 51.9814   6
   1  -7  -3 2888.03 53.9028   1
   1   7  -3 2828.12 55.2872   7
  -1   7   3 2731.13 52.9429   1
  -1   7   3 2731.48 52.6655  10
   1   7  -3 2752.85 53.2062   4
   1   7  -3 2698.76 51.6282   3
   1   7  -3 2809.86 52.5732  11
  -1   7   3 2677.38 53.4488   7
  -1   7   3 2767.79 52.3316   9
  -1   7   3 2845.02 53.2819   3
  -1  -7  -3 537.640 13.3001   2
  -1  -7  -3 493.760 11.9393   8
  -1  -7  -3 510.895 12.8698  13
   1  -7   3 530.168 11.8064   6
   1  -7   3 542.524 12.4098   1
   1   7   3 529.212 14.2112  10
   1   7   3 547.237 14.2498   1
  -1   7  -3 545.966 15.3025   7
   1   7   3 523.228 13.1701   9
  -1   7  -3 527.032 12.4870   3
  -1   7  -3 532.319 12.9161   5
  -1   7  -3 541.794 13.9264   4
   1   7   3 518.550 13.3979  11
  -3  -7  -3 1723.42 34.9948   8
   3  -7   3 1690.26 32.2605   6
  -3  -7  -3 1735.81 35.7511   2
  -3   7  -3 1777.00 36.1996   5
  -3   7  -3 1731.99 35.9338   4
  -3   7  -3 1781.33 38.3699   7
   3   7   3 1706.77 38.0454  10
   3   7   3 1701.91 35.3639   6
   3   7   3 1661.36 35.7177  11
   3   7   3 1694.68 36.8653   1
   3   7   3 1720.33 35.9275   9
  -3   7  -3 1762.68 34.8283   3
  -5  -7  -3 118.920 6.26310   8
  -5  -7  -3 125.843 6.54257   2
   5  -7   3 120.052 7.44837  13
  -5  -7  -3 111.052 5.44648  14
   5  -7   3 120.364 3.56005   6
  -5   7  -3 121.621 7.31842   7
   5   7   3 116.140 6.18149   6
   5   7   3 117.280 6.82558  11
  -5   7  -3 120.412 6.77852   5
   5   7   3 114.810 6.61879   1
   5   7   3 118.270 6.83322   9
  -5   7  -3 123.240 5.73376   3
  -7  -7  -3 451.243 14.3715   2
   7  -7   3 452.323 9.73012   6
  -7  -7  -3 448.247 14.5513   8
  -7   7  -3 432.305 14.9005   5
   7   7   3 451.379 15.5377  11
  -7   7  -3 446.175 13.7085   3
   7   7   3 440.925 15.1524   1
   7   7   3 467.071 15.8445   9
   7   7   3 444.023 14.5044   6
  10  -8  -3 41.2719 3.89698   6
 -10  -8   3 35.2928 4.30044   2
 -10  -8   3 36.1217 4.35300   8
 -10   8   3 39.6602 4.65591   3
 -10   8   3 39.7694 4.74775   5
  10   8  -3 38.4766 5.46253   1
  10   8  -3 37.9056 5.79445  11
   8  -8  -3 106.356 8.47553  13
   8  -8  -3 105.533 5.50389   6
   8  -8  -3 105.821 5.51597   1
  -8  -8   3 108.145 6.52075   1
  -8  -8   3 106.379 6.29764   8
   8   8  -3 104.930 7.35064  11
  -8   8   3 102.743 6.39594   5
   8   8  -3 113.486 7.02184   1
  -8   8   3 111.680 6.72057   3
   6  -8  -3 249.679 8.67246   1
   6  -8  -3 240.987 11.6618  13
  -6  -8   3 245.992 9.47019   1
  -6  -8   3 247.299 8.82923   8
   6  -8  -3 244.249 8.26222   6
  -6   8   3 234.029 8.60662   5
   6   8  -3 245.927 9.63175  11
   6   8  -3 244.020 9.59739   1
  -6   8   3 245.501 9.11189   3
   6   8  -3 246.604 9.76180   7
   4  -8  -3 28.8751 2.78394   6
   4  -8  -3 28.7035 2.81503   1
   4  -8  -3 32.7668 4.50773  13
  -4  -8   3 39.0878 3.05313   6
  -4  -8   3 27.9367 3.29772   1
   4   8  -3 30.6512 2.54577   4
   4   8  -3 32.9851 3.43795  11
  -4   8   3 38.3490 2.79887   9
  -4   8   3 30.2777 2.67931   5
  -4   8   3 27.7178 3.03884   3
   4   8  -3 30.8646 3.41922   1
   4   8  -3 35.3560 3.81860   7
   2  -8  -3 337.399 10.5733   1
   2  -8  -3 333.286 9.58200   6
  -2  -8   3 349.448 9.54318   6
   2  -8  -3 300.020 9.75394   2
  -2  -8   3 336.809 10.2268   1
   2  -8  -3 353.766 11.6428  13
   2   8  -3 341.958 9.94194  11
   2   8  -3 329.934 9.79577   4
  -2   8   3 327.142 11.1228   7
   2   8  -3 320.192 11.4133   7
  -2   8   3 322.807 9.14769   9
   2   8  -3 325.930 9.26107   3
  -2   8   3 326.995 9.53749   1
  -2   8   3 325.487 10.0801   3
   0  -8   3 130.874 4.94548   6
   0  -8   3 140.892 5.51550   1
   0  -8  -3 131.295 5.48363   2
   0  -8  -3 136.434 5.98696  13
   0  -8  -3 142.186 6.40851   1
   0   8  -3 143.316 6.14694   4
   0   8  -3 130.868 7.06803   7
   0   8  -3 133.275 5.17156   3
   0   8   3 133.535 5.88034   1
   0   8   3 132.773 6.14638   3
   0   8   3 130.586 5.31948   9
   0   8   3 135.709 5.79562  11
   2  -8   3 94.7927 4.03548   1
  -2  -8  -3 99.0718 5.04454   2
   2  -8   3 97.9472 3.93532   6
   2   8   3 93.4993 4.92262   9
   2   8   3 95.4311 5.50727   1
   2   8   3 95.8282 5.41340  11
  -2   8  -3 94.4317 4.85806   5
  -2   8  -3 96.8735 5.30608   4
  -2   8  -3 89.4634 4.47275   3
  -2   8  -3 107.012 6.77727   7
  -4  -8  -3 297.750 9.94900   8
   4  -8   3 313.727 12.7087  13
   4  -8   3 308.306 7.81232   6
  -4  -8  -3 309.516 10.6706   2
  -4   8  -3 317.166 10.9215   5
  -4   8  -3 305.997 10.6646   4
   4   8   3 303.160 11.6172   1
   4   8   3 284.755 10.7316  11
  -4   8  -3 302.538 9.78258   3
   4   8   3 298.090 10.7054   9
  -4   8  -3 325.457 12.6249   7
  -6  -8  -3 58.4856 4.77723   2
  -6  -8  -3 61.9816 4.75575   8
   6   8   3 59.6829 5.78770  11
  -6   8  -3 66.5054 6.45392   7
   6   8   3 62.5930 5.64084   9
  -6   8  -3 55.2691 4.62030   3
   6   8   3 58.8805 5.57738   1
  -6   8  -3 63.4531 5.45801   5
   9  -9  -3 178.068 11.3883   1
  -9  -9   3 220.669 9.63364   2
  -9  -9   3 239.323 9.85529   8
   9  -9  -3 243.189 8.91140   6
  -9   9   3 230.487 10.4332   3
   9   9  -3 249.540 11.3347   1
   9   9  -3 226.206 11.3173  11
  -9   9   3 218.583 9.87667   5
   7  -9  -3 841.221 26.2687  13
   7  -9  -3 898.414 21.1401   6
  -7  -9   3 888.090 21.8206   8
   7  -9  -3 854.824 20.9948   1
  -7  -9   3 887.461 22.7155   1
  -7   9   3 879.861 22.6169   3
   7   9  -3 885.396 23.7003   1
  -7   9   3 851.535 21.6785   5
   7   9  -3 885.680 23.2382  11
  -5  -9   3 352.830 10.7731   8
   5  -9  -3 371.729 14.7842  13
   5  -9  -3 379.028 11.5998   1
  -5  -9   3 361.532 12.1825   1
   5  -9  -3 365.354 11.1288   6
  -5   9   3 347.231 11.4728   3
   5   9  -3 365.323 12.9117   7
   5   9  -3 364.047 12.0991   1
   5   9  -3 359.463 12.0502  11
   3  -9  -3 815.010 20.2270   1
  -3  -9   3 813.003 20.2719   1
   3  -9  -3 831.167 22.5607  13
   3  -9  -3 813.592 19.3822   6
  -3  -9   3 833.545 19.2618   6
  -3   9   3 813.477 19.9422   3
   3   9  -3 796.068 21.6706   7
   3   9  -3 822.142 19.9112  11
   3   9  -3 812.141 19.0985   4
  -1  -9   3 176.821 7.08308   1
   1  -9  -3 164.899 7.46308   1
   1  -9  -3 171.895 6.72505   6
   1  -9  -3 180.622 7.94196  13
   1  -9  -3 164.952 6.28357   2
  -1  -9   3 176.157 6.57069   6
   1   9  -3 167.751 8.29677   7
  -1   9   3 187.416 7.55322   3
   1   9  -3 156.064 6.96893   4
  -1   9   3 170.976 6.84575   1
  -1   9   3 165.090 7.41613   7
   1   9  -3 169.470 6.36070   3
  -1  -9  -3 538.483 14.5450   2
   1  -9   3 553.744 13.8786   1
   1  -9   3 548.045 13.5196   6
  -1  -9  -3 572.812 15.7750   1
  -1   9  -3 551.607 15.5636   4
   1   9   3 559.534 15.2472  11
  -1   9  -3 546.409 13.9348   3
   1   9   3 548.169 15.6049   1
  -1   9  -3 551.959 17.2240   7
  -3  -9  -3 130.375 6.83009   2
   3  -9   3 144.749 5.38582   6
  -3   9  -3 152.563 8.84740   7
   3   9   3 158.002 7.84025   1
   3   9   3 140.471 7.31921  11
  -3   9  -3 134.726 6.16313   3
  -3   9  -3 130.225 7.12577   4
  -5  -9  -3 550.663 16.7109   2
   5  -9   3 598.510 13.4265   6
   5   9   3 594.424 18.4884   1
  -5   9  -3 605.746 17.3207   5
   5   9   3 563.602 17.6247  11
  -5   9  -3 573.543 19.3655   7
  -5   9  -3 574.588 15.9585   3
   8 -10  -3 2.54450 1.69008   1
   8 -10  -3 2.68427 1.86003   6
  -8 -10   3 1.78768 2.23882   8
   8  10  -3 1.68888 2.54992   1
   8  10  -3 6.06797 3.24015  11
  -8  10   3 2.74028 2.56479   3
  -6 -10   3 52.1864 4.65888   1
   6 -10  -3 50.4660 4.09795   1
   6 -10  -3 50.9390 4.20916   6
  -6 -10   3 53.0882 4.38329   8
  -6  10   3 51.1739 4.93254   3
   6  10  -3 46.6027 5.06072  11
   6  10  -3 50.9742 4.64067   1
   4 -10  -3 6.90821 2.18779   1
  -4 -10   3 10.6593 2.90520   1
   4 -10  -3 6.12787 2.52586  13
   4 -10  -3 5.35964 1.63467   6
  -4  10   3 5.29300 2.32336   3
   4  10  -3 3.54539 2.23268   7
   4  10  -3 8.28115 2.29625  11
  -2 -10   3 84.5482 4.88030   6
   2 -10  -3 81.1794 4.81219   6
   2 -10  -3 84.5664 6.23121  13
   2 -10  -3 95.0765 5.90599   1
  -2 -10   3 80.4183 5.15011   1
   2  10  -3 85.3681 5.20887   4
   2  10  -3 85.5056 6.48954   7
   2  10  -3 82.3859 4.75592   3
   2  10  -3 85.4924 5.16639  11
  -2  10   3 87.6685 5.62924   3
   0 -10   3 8.36003 2.04469   1
   0 -10  -3 6.30956 2.00918   1
   0 -10   3 7.48622 1.97094   6
   0 -10  -3 7.18107 2.08815   2
   0  10   3 9.74095 2.33402   3
   0  10  -3 7.40269 1.86210   3
   0  10   3 8.71068 2.31995   1
   0  10  -3 5.83617 2.73370   7
   0  10  -3 7.73206 2.07563   4
  -2 -10  -3 2.96050 1.69775   1
  -2 -10  -3 1.92409 1.99361   2
   2 -10   3 8.59288 1.94959   1
   2 -10   3 0.66022 1.30920   6
   2  10   3 -0.2547 1.87249  11
  -2  10  -3 0.94278 1.47524   3
  -2  10  -3 1.28538 1.76232   7
   2  10   3 2.30265 2.08517   1
   4 -10   3 49.3095 3.27001   6
  -4 -10  -3 51.7387 5.15173   2
   4  10   3 44.4811 5.24254   1
   4  10   3 50.4011 5.27830  11
  -4  10  -3 49.0176 4.29841   3
  -4  10  -3 53.8706 6.38538   7
  -6 -10  -3 18.0725 3.35738   2
   6 -10   3 17.0806 2.08591   6
   6  10   3 19.1017 4.19394  11
   6  10   3 26.6768 4.41007   1
  -6  10  -3 16.3976 4.43711   7
  -7 -11   3 77.5991 5.98277   1
   7 -11  -3 90.8697 5.67431   6
   7 -11  -3 69.8011 5.04613   1
  -7  11   3 71.4231 6.17293   3
   7  11  -3 72.8295 6.69262  11
   5 -11  -3 385.318 12.3919   6
  -5 -11   3 381.854 13.8153   1
   5 -11  -3 386.535 12.8374   1
   5  11  -3 380.721 13.4806  11
  -5  11   3 396.811 13.2895   3
   3 -11  -3 261.499 9.72190   6
   3 -11  -3 287.513 12.7952  13
   3 -11  -3 281.366 10.8504   1
  -3 -11   3 280.184 10.7874   1
   3  11  -3 262.138 9.61289   3
  -3  11   3 272.736 10.3088   3
   3  11  -3 256.503 10.1152  11
   1 -11  -3 851.173 22.8480   1
  -1 -11   3 845.892 21.0465   6
  -1 -11   3 894.813 22.1468   1
   1  11  -3 875.947 20.8327   3
  -1  11   3 884.501 22.4759   3
   1  11  -3 856.766 24.7560   7
   1 -11   3 422.537 12.6658   1
   1 -11   3 427.227 12.5403   6
  -1 -11  -3 428.623 13.3128   2
  -1 -11  -3 434.693 14.5947   1
   1  11   3 440.570 14.3230   3
  -1  11  -3 417.867 12.3783   3
   1  11   3 404.863 13.8385  11
  -1  11  -3 420.399 16.1993   7
   1  11   3 401.951 13.6366   1
   3 -11   3 583.227 14.7497   6
  -3 -11  -3 584.676 17.5086   1
  -3 -11  -3 581.759 17.0473   2
  -3  11  -3 554.408 19.6261   7
  -3  11  -3 542.788 15.4439   3
   3  11   3 515.985 16.7964  11
   3  11   3 555.740 17.9415   1
  -5 -11  -3 163.587 8.67996   2
   5 -11   3 172.130 6.49414   6
   5  11   3 161.342 9.29424  11
   5  11   3 167.013 9.36525   1
  -5  11  -3 177.219 10.8723   7
  -6 -12   3 30.9667 4.67476   1
   6 -12  -3 34.3506 3.97202   6
   6  12  -3 36.2665 4.92116  11
  -6  12   3 35.1473 4.73467   3
  -4 -12   3 252.776 11.1254   1
   4 -12  -3 236.951 10.1953   1
   4 -12  -3 226.774 9.37209   6
   4  12  -3 246.188 10.5984  11
  -4  12   3 239.427 10.2840   3
  -2 -12   3 37.3827 4.45707   1
  -2 -12   3 32.5253 3.77688   6
   2 -12  -3 38.7969 4.98402   1
  -2  12   3 37.2083 4.48119   3
   2  12  -3 38.2696 5.73787   7
   2  12  -3 41.9860 4.36156   3
   0 -12   3 120.493 6.36057   6
   0 -12   3 127.544 6.95479   1
   0 -12  -3 127.981 7.64656   1
   0  12  -3 121.668 6.39035   3
   0  12   3 135.441 7.87217   3
   0  12  -3 134.134 9.25613   7
   2 -12   3 134.948 6.59001   6
  -2 -12  -3 146.232 8.46426   1
  -2 -12  -3 132.816 7.49687   2
   2  12   3 130.331 7.71606  11
   2  12   3 138.451 8.06682   3
  -2  12  -3 137.838 9.74172   7
  -3 -13   3 7.72341 2.94873   1
   3 -13  -3 7.25699 2.93793   1
  -3  13   3 4.78042 2.78447   3
  -1 -13   3 574.460 16.6998   6
  -1 -13   3 570.180 17.4557   1
   1 -13  -3 575.731 18.3566   1
  -1  13   3 570.602 17.7385   3
   1  13  -3 541.187 19.6693   7
   1 -13   3 4.97529 2.21753   6
   1 -13   3 2.18438 1.77727   1
  -1 -13  -3 14.3017 3.57371   1
   1  13   3 3.91111 2.72584   3
  -1  13  -3 6.95040 3.00508   7
  12   0  -4 1383.56 31.9212   1
  12   0  -4 1411.54 31.9809   6
 -12   0   4 1373.02 31.0108   8
 -12   0   4 1382.10 33.0411   5
  12   0  -4 1402.82 34.3322  11
 -10   0   4 72.8596 5.08568   5
 -10   0   4 70.8045 4.32865   8
  10   0  -4 74.4336 5.79443  11
  10   0  -4 75.5443 4.93055   6
  10   0  -4 59.5041 4.66862   1
   8   0  -4 3074.29 59.7079  11
   8   0  -4 3105.86 58.9142   6
   8   0  -4 3092.99 59.5682   1
   8   0  -4 2970.46 61.4037  13
  -8   0   4 3125.41 58.3243   8
  -8   0   4 3035.70 59.5700   3
  -8   0   4 3093.84 59.6095   5
  -8   0   4 3145.24 58.5833  12
  -6   0   4 91.6737 3.83376  12
  -6   0   4 93.1122 3.93996   3
   6   0  -4 92.3012 4.30541   1
   6   0  -4 96.1652 5.15825  13
  -6   0   4 87.8528 3.69430   1
   6   0  -4 96.0283 3.98509  11
   6   0  -4 87.3422 3.81616   6
  -4   0   4 3295.28 58.5456   1
  -4   0   4 3181.86 58.4506   9
  -4   0   4 3069.66 57.5375   3
   4   0  -4 3229.88 60.1669  13
   4   0  -4 3162.31 59.3280  11
  -4   0   4 3253.11 57.9539  12
   4   0  -4 3185.19 58.0031   6
   4   0  -4 3132.76 58.7801   1
  -4   0   4 3101.93 57.5772   6
   4   0  -4 3059.73 59.2044  14
  -4   0   4 3313.16 60.8525  10
  -2   0   4 31.0835 2.36731  10
   2   0  -4 32.1221 1.76903  14
  -2   0   4 29.8456 1.80185   9
  -2   0   4 27.0936 1.70455   1
   2   0  -4 35.0060 1.68463   2
  -2   0   4 31.4482 1.58180   6
   2   0  -4 30.8320 1.77433   1
   2   0  -4 28.0960 2.17236  13
   2   0  -4 27.5049 1.58834   4
   0   0   4 2680.08 50.3757   1
   0   0  -4 2787.43 51.0416   8
   0   0  -4 2768.60 51.1644   2
   0   0   4 2770.84 51.0061   9
   0   0   4 2766.06 51.8820   6
   0   0   4 2798.28 53.1224  10
   0   0  -4 2791.23 50.9869  14
   0   0  -4 2746.79 50.3299   7
   0   0  -4 2774.68 50.4207   4
   2   0   4 518.660 10.3129   6
  -2   0  -4 516.126 12.2718   2
  -2   0  -4 521.691 11.0114   7
   2   0   4 528.729 14.7677  10
  -2   0  -4 516.488 11.0377   4
  -2   0  -4 516.596 11.8509  14
  -2   0  -4 517.441 12.3765   8
   2   0   4 501.804 10.8765  11
   2   0   4 513.603 11.0032   1
  -2   0  -4 528.950 12.8963   5
   2   0   4 498.007 10.2149   6
   4   0   4 2461.21 51.9780  10
  -4   0  -4 2516.95 47.7816   8
  -4   0  -4 2480.92 47.2234   2
  -4   0  -4 2385.15 48.3592   5
  -4   0  -4 2365.80 46.1736  14
   4   0   4 2382.54 45.1323   1
  -6   0  -4 356.057 10.8194   2
   6   0   4 352.308 10.9267  11
  -6   0  -4 362.078 11.4302   8
  -6   0  -4 354.168 12.2110   5
   6   0   4 362.829 9.17916   6
  -8   0  -4 970.674 25.5957   5
   8   0   4 997.581 21.6898   6
  -8   0  -4 973.072 24.1357   8
  11  -1  -4 66.3346 4.94073   6
  11  -1  -4 65.7758 5.03761   1
 -11  -1   4 65.1529 5.35690   5
  11  -1  -4 64.9191 5.42398  11
 -11  -1   4 65.9178 4.88534   8
 -11   1   4 62.5480 4.47389   8
 -11   1   4 60.9694 5.14229   5
  11   1  -4 64.4200 6.21863  11
  11   1  -4 57.1550 4.91263   6
  11   1  -4 56.4718 5.02112   1
  -9  -1   4 26.6882 3.24854   5
   9  -1  -4 25.0398 3.34115  11
   9  -1  -4 19.8146 3.41080  13
   9  -1  -4 22.4380 2.81231   6
  -9  -1   4 18.5444 2.63186   8
   9  -1  -4 21.0979 2.92078   1
   9   1  -4 19.6316 2.78912   1
   9   1  -4 26.5662 3.08202   6
  -9   1   4 18.6920 3.02366   5
   9   1  -4 21.9747 3.28657  11
  -9   1   4 21.9808 3.19007   3
  -9   1   4 24.5388 2.33537   8
  -7  -1   4 515.153 12.3535  12
   7  -1  -4 517.364 15.0317  13
   7  -1  -4 506.274 12.9707   1
  -7  -1   4 479.650 12.0434   1
   7  -1  -4 501.464 12.3502   6
   7   1  -4 489.375 14.1192  13
  -7   1   4 503.295 12.0532  12
   7   1  -4 510.679 13.3244   1
  -7   1   4 496.329 11.7993   8
  -7   1   4 509.344 12.9571   3
   7   1  -4 502.683 12.9179  11
   7   1  -4 507.564 12.6310   6
   5  -1  -4 5.52276 1.71270  13
  -5  -1   4 5.94708 0.97302   6
  -5  -1   4 6.82983 1.17572  12
  -5  -1   4 7.89228 1.35446   9
   5  -1  -4 8.90980 0.75395  14
   5  -1  -4 7.66529 1.42476   1
  -5  -1   4 8.58675 1.31290   1
   5  -1  -4 9.27573 1.27104   6
   5   1  -4 6.28786 1.35408   1
   5   1  -4 6.85057 1.20834   6
  -5   1   4 11.4691 1.57788   9
   5   1  -4 8.41774 1.78177  13
   5   1  -4 6.98920 1.10692   4
   5   1  -4 10.7563 0.75695  14
  -5   1   4 6.10694 1.02969  12
  -5   1   4 6.26935 1.15010   3
   5   1  -4 6.52602 1.11115  11
  -5   1   4 7.53871 1.16069   1
   3  -1  -4 327.552 9.03993  13
  -3  -1   4 323.437 7.55696   9
  -3  -1   4 318.233 7.47469  12
   3  -1  -4 327.880 7.38977  14
  -3  -1   4 305.643 7.27502   6
   3  -1  -4 326.470 6.88873   2
  -3  -1   4 318.794 7.85681   1
  -3  -1   4 324.379 9.08764  10
   3  -1  -4 302.118 7.34202   6
   3  -1  -4 321.228 8.03422   1
  -3   1   4 313.665 7.04074   3
   3   1  -4 330.153 7.59290   4
   3   1  -4 315.964 7.88000   1
  -3   1   4 328.906 7.47610  12
  -3   1   4 323.047 7.92639   9
   3   1  -4 320.156 6.86691  11
   3   1  -4 324.255 7.40327  14
  -3   1   4 315.825 7.29612   6
  -3   1   4 327.512 9.36805  10
   3   1  -4 327.782 9.01722  13
  -3   1   4 322.458 7.88376   1
  -1  -1   4 290.635 6.99481  12
   1  -1  -4 298.915 7.21956   2
  -1  -1   4 319.419 6.60781   6
  -1  -1   4 295.038 6.97524   9
   1  -1  -4 291.176 7.05550   1
  -1  -1   4 305.371 7.02528   1
   1  -1  -4 297.207 7.10700   8
   1  -1  -4 297.201 7.22664  14
   1  -1  -4 300.360 7.83000  13
  -1  -1   4 302.601 8.57935  10
  -1   1   4 307.918 8.91752  10
   1   1  -4 293.605 8.69138  10
  -1   1   4 288.830 7.37362   9
  -1   1   4 292.620 6.78961   6
   1   1  -4 301.017 7.56812   7
   1   1  -4 288.836 7.28648   2
  -1   1   4 291.082 7.26235   1
  -1   1   4 297.114 6.96822  12
   1   1  -4 281.602 6.59269   1
   1   1  -4 298.462 7.12437   4
   1   1  -4 301.931 7.42128  14
  -1  -1  -4 90.2181 3.04120   4
   1  -1   4 92.7751 4.68492  10
  -1  -1  -4 91.6846 3.48084  14
   1  -1   4 88.4831 2.22953   6
   1  -1   4 96.7668 2.27632   6
   1  -1   4 92.2991 2.90082   1
  -1  -1  -4 90.4732 3.64637   2
  -1  -1  -4 90.8179 3.73276   8
  -1   1  -4 87.1280 3.58833   8
   1   1   4 96.7516 4.01151   9
  -1   1  -4 97.2173 3.76376  14
  -1   1  -4 90.0135 3.35389   7
   1   1   4 92.4311 2.74448  11
  -1   1  -4 87.7722 3.72892   2
  -1   1  -4 88.5326 4.00273   5
   1   1   4 92.3846 2.98709   6
  -1   1  -4 87.6130 3.20386   4
   1   1   4 92.8315 3.37738   1
   1   1   4 91.4558 4.81612  10
  -3  -1  -4 400.381 10.4284   8
   3  -1   4 375.715 7.18506   6
   3  -1   4 381.754 12.5354  10
   3  -1   4 377.553 8.21539   1
  -3  -1  -4 372.669 10.5316   5
   3  -1   4 369.054 9.01490  11
  -3  -1  -4 363.548 9.36838  14
  -3  -1  -4 384.007 10.1343   2
   3  -1   4 367.385 7.14425   6
   3   1   4 383.518 9.37797  11
  -3   1  -4 383.226 9.72513  14
  -3   1  -4 376.886 10.2239   8
  -3   1  -4 387.351 11.0390   5
  -3   1  -4 376.832 9.44863   7
  -3   1  -4 384.501 9.04588   4
   3   1   4 372.811 9.19138   1
  -3   1  -4 392.241 10.2576   2
   3   1   4 365.524 12.6818  10
   3   1   4 384.744 8.75959   6
  -5  -1  -4 4.21506 1.24074  14
   5  -1   4 2.79828 1.41415  11
  -5  -1  -4 1.84184 1.38942   2
   5  -1   4 3.03463 1.87355  10
  -5  -1  -4 2.76192 1.56838   8
   5  -1   4 3.72504 0.76453   6
  -5  -1  -4 2.63168 1.69759   5
  -5   1  -4 2.11452 1.20168   8
   5   1   4 4.45387 1.23984   6
  -5   1  -4 2.68714 1.41569   2
   5   1   4 5.90586 1.25999   1
   5   1   4 6.44723 1.84778  11
  -5   1  -4 2.28327 1.78110   5
  -7  -1  -4 34.9134 3.89976   8
  -7  -1  -4 29.0664 3.96798   5
  -7  -1  -4 32.6845 3.68418   2
   7  -1   4 27.0508 2.28417   6
   7  -1   4 26.5051 3.52431  11
  -7   1  -4 30.3844 3.37565   2
  -7   1  -4 31.1503 4.41773   5
   7   1   4 34.9306 4.05968  11
  -7   1  -4 32.1608 3.70024   8
   7   1   4 25.0287 2.71506   6
   9  -1   4 53.4774 3.58412   6
  -9  -1  -4 52.2674 5.18972   8
  -9  -1  -4 57.4342 5.75542   5
   9   1   4 55.3353 4.12415   6
  -9   1  -4 50.4809 4.49838   8
  12  -2  -4 129.706 7.76259  11
 -12  -2   4 100.838 6.38395   8
  12  -2  -4 88.3905 5.78582   1
  12   2  -4 107.067 6.92482   1
  12   2  -4 96.6928 8.05421  11
  12   2  -4 103.963 6.46091   6
 -12   2   4 91.2561 6.59499   5
  10  -2  -4 280.878 9.68771   6
 -10  -2   4 277.417 10.1712   5
  10  -2  -4 284.016 10.8787  11
 -10  -2   4 271.764 9.75657   8
  10  -2  -4 275.269 9.81234   1
 -10   2   4 280.229 10.9005   5
  10   2  -4 292.434 10.8324   1
  10   2  -4 287.595 10.2944   6
  10   2  -4 292.986 11.4506  11
 -10   2   4 284.258 10.7790   3
  -8  -2   4 295.884 9.21800   8
   8  -2  -4 297.668 9.40254   1
   8  -2  -4 284.691 11.2847  13
  -8  -2   4 304.751 9.37450   5
  -8  -2   4 286.245 9.07339  12
   8  -2  -4 344.411 9.45057   6
  -8   2   4 297.844 8.27456   8
   8   2  -4 301.621 10.0795  11
  -8   2   4 305.391 9.90101   3
   8   2  -4 271.823 10.0355  13
   8   2  -4 298.511 10.0503   1
  -8   2   4 300.968 9.86342   5
  -8   2   4 301.392 8.74255  12
   8   2  -4 302.533 9.54011   6
   6  -2  -4 2152.39 44.5161  13
   6  -2  -4 2218.51 41.5631   6
  -6  -2   4 2206.70 41.8143   1
   6  -2  -4 2214.43 42.2788   1
  -6  -2   4 2171.42 41.3108  12
   6   2  -4 2086.05 40.1962   4
   6   2  -4 2179.11 41.6815   6
  -6   2   4 2197.28 42.0831   3
   6   2  -4 2154.10 41.8027  11
  -6   2   4 2107.12 40.7114  12
  -6   2   4 2157.45 42.3209   9
   6   2  -4 2196.28 42.8387   1
  -6   2   4 2178.47 40.9757   1
   6   2  -4 2135.48 43.4928  13
  -4  -2   4 1845.79 34.4312   9
   4  -2  -4 1842.70 34.6682   6
   4  -2  -4 1837.52 33.9752  14
   4  -2  -4 1850.27 36.8969  13
  -4  -2   4 1816.55 35.1953   1
  -4  -2   4 1857.31 34.5457  12
   4  -2  -4 1856.56 35.4314   1
  -4  -2   4 1810.79 34.2804   6
   4   2  -4 1814.05 36.6762  13
  -4   2   4 1819.15 34.7770   1
  -4   2   4 1839.46 34.5692   3
   4   2  -4 1813.44 35.3644   1
  -4   2   4 1868.17 37.3407  10
  -4   2   4 1818.59 35.2331   9
   4   2  -4 1838.15 34.3230  11
   4   2  -4 1842.61 34.3929   4
   4   2  -4 1790.67 34.4066   6
  -4   2   4 1800.66 34.0730  12
   4   2  -4 1817.91 33.8256  14
   2  -2  -4 8025.39 151.754   6
   2  -2  -4 7749.62 151.939   2
   2  -2  -4 7965.70 156.817   1
   2  -2  -4 8062.07 150.893  14
   2  -2  -4 8211.63 162.223  13
  -2  -2   4 8207.48 160.326  10
  -2  -2   4 7901.51 154.445   1
  -2  -2   4 8299.40 151.816   9
  -2  -2   4 7998.48 151.949   6
  -2  -2   4 8240.14 154.025  12
   2   2  -4 7767.44 148.517   1
   2   2  -4 8059.27 148.900  11
  -2   2   4 8395.88 158.264   9
   2   2  -4 8020.46 153.831  14
  -2   2   4 8203.35 153.283  12
  -2   2   4 8236.08 149.644   3
  -2   2   4 8289.42 157.288   1
  -2   2   4 8165.36 152.845   6
   2   2  -4 8125.56 153.866   4
   2   2  -4 8226.57 160.753  10
   2   2  -4 8095.29 161.531   7
  -2   2   4 8378.99 166.249  10
   0  -2  -4 1328.73 25.9269  14
   0  -2  -4 1387.54 26.0052  13
   0  -2   4 1342.45 25.5475  12
   0  -2  -4 1350.88 26.0884   2
   0  -2  -4 1311.75 25.7885   8
   0  -2   4 1295.67 24.2832   6
   0  -2   4 1352.99 27.6149  10
   0  -2  -4 1312.80 25.5924   1
   0  -2   4 1285.08 25.3258   9
   0  -2   4 1279.44 24.9290   1
   0  -2   4 1363.26 24.3170   6
   0   2   4 1352.98 28.2915  10
   0   2  -4 1339.50 26.0650   8
   0   2   4 1328.07 24.5229  11
   0   2  -4 1316.04 24.2912   3
   0   2   4 1326.10 26.0622   1
   0   2  -4 1308.55 26.2448   2
   0   2  -4 1340.40 26.2967   7
   0   2  -4 1342.97 26.3149  14
   0   2  -4 1370.98 25.8843   4
   0   2   4 1332.25 26.4263   9
   0   2   4 1330.83 25.4060   6
   2  -2   4 3466.79 63.9942   1
  -2  -2  -4 3629.34 66.6286   2
  -2  -2  -4 3543.77 64.6183   4
  -2  -2  -4 3558.87 66.5937   8
  -2  -2  -4 3621.62 66.0018  14
   2  -2   4 3611.12 69.2114  10
  -2   2  -4 3580.27 67.5588   5
   2   2   4 3652.54 67.4250   9
  -2   2  -4 3579.44 65.2981   3
  -2   2  -4 3546.94 65.6320   4
  -2   2  -4 3655.48 66.4901   7
   2   2   4 3517.13 65.3361   6
  -2   2  -4 3621.71 66.5643   8
   2   2   4 3690.13 70.3798  10
  -2   2  -4 3567.59 66.6304   2
  -2   2  -4 3640.45 66.4222  14
   2   2   4 3619.67 66.1193   1
   2   2   4 3484.94 65.2739  11
  -4  -2  -4 87.8827 4.91571   5
  -4  -2  -4 88.1866 3.95810  14
  -4  -2  -4 94.0760 4.66939   2
  -4  -2  -4 98.1495 4.96720   8
   4  -2   4 86.8410 5.97823  10
  -4   2  -4 91.9855 4.67837   8
   4   2   4 90.7204 3.91369   6
   4   2   4 99.2989 4.56378  11
   4   2   4 84.0213 6.17904  10
  -4   2  -4 92.1872 4.32034   3
  -4   2  -4 84.9461 3.63149   4
  -4   2  -4 93.5170 4.49226   7
  -4   2  -4 87.8340 4.42399   2
   4   2   4 91.4393 4.17015   1
  -4   2  -4 99.1149 4.24258  14
  -4   2  -4 89.9262 5.09869   5
  -6  -2  -4 664.976 18.1160   5
  -6  -2  -4 699.015 17.9802   8
   6  -2   4 689.315 13.6903   6
  -6  -2  -4 685.803 17.2363   2
  -6   2  -4 677.746 16.7716   2
  -6   2  -4 686.815 19.1046   5
  -6   2  -4 703.634 17.5842   8
   6   2   4 657.911 17.4090  11
   6   2   4 677.331 16.2025   6
   6   2   4 656.217 16.2680   1
   8  -2   4 29.3833 2.33684   6
  -8  -2  -4 29.1202 3.88177   8
  -8  -2  -4 18.0912 3.51525   5
  -8  -2  -4 28.7409 3.79404   2
   8   2   4 24.5423 2.94773   6
  -8   2  -4 27.1191 4.34758   5
  -8   2  -4 26.5788 3.66550   8
  11  -3  -4 13.2147 3.00286  11
  11  -3  -4 20.8210 3.17933   1
 -11  -3   4 11.0230 2.47303   8
  11  -3  -4 13.6591 2.72675   6
 -11   3   4 14.3244 3.02706   3
  11   3  -4 13.3528 2.78929   1
  11   3  -4 8.69256 2.56384   6
  11   3  -4 12.3734 3.23817  11
 -11   3   4 17.2543 3.74559   5
   9  -3  -4 48.4024 5.39939  13
  -9  -3   4 67.4211 4.34826   8
   9  -3  -4 67.5955 4.24133   6
   9  -3  -4 61.9921 4.28911   1
  -9  -3   4 65.9723 4.34482   5
  -9   3   4 66.8566 5.01753   5
   9   3  -4 69.0822 4.51681   6
   9   3  -4 67.6908 5.57040  11
   9   3  -4 70.4413 4.87531   1
   7  -3  -4 67.1985 3.69385   6
  -7  -3   4 67.0455 3.60404   5
   7  -3  -4 69.2921 5.39037  13
  -7  -3   4 74.8941 3.79699  12
  -7  -3   4 65.7395 3.79712   1
   7  -3  -4 68.7476 4.01771   1
  -7   3   4 65.6585 4.12909   3
   7   3  -4 66.7919 4.06766  11
  -7   3   4 73.9294 3.06537   8
  -7   3   4 70.9630 3.44796  12
  -7   3   4 71.3550 4.32559   5
   7   3  -4 68.6316 3.95668   6
   7   3  -4 68.3642 4.28160   1
   5  -3  -4 101.150 4.38337   1
  -5  -3   4 93.8493 3.58810   6
   5  -3  -4 98.5470 3.88183   6
  -5  -3   4 102.773 4.24882   1
  -5  -3   4 99.6425 3.86102  12
   5  -3  -4 99.8469 5.46734  13
   5   3  -4 101.265 4.57897   1
   5   3  -4 94.6147 3.47595   4
  -5   3   4 104.326 4.22435   3
  -5   3   4 93.4419 4.17694   9
   5   3  -4 100.940 4.06943  11
  -5   3   4 98.1563 3.71980   1
   5   3  -4 99.7917 3.94325   6
  -5   3   4 108.739 3.59287  12
   3  -3  -4 164.437 5.35460   1
   3  -3  -4 167.002 3.94006   2
  -3  -3   4 160.310 4.67129   6
  -3  -3   4 150.732 4.96676   1
  -3  -3   4 158.449 5.66468  10
   3  -3  -4 158.003 6.05694  13
   3  -3  -4 155.823 4.75119   6
  -3  -3   4 162.150 4.20659   9
  -3  -3   4 154.850 4.59455  12
  -3   3   4 158.455 4.38069  12
   3   3  -4 164.724 4.56712  11
  -3   3   4 153.319 4.41562   6
  -3   3   4 159.516 4.71381   3
   3   3  -4 162.591 5.91480   7
  -3   3   4 161.635 6.19345  10
   3   3  -4 165.214 4.93348   4
  -3   3   4 158.223 5.02014   1
  -3   3   4 153.870 5.16424   9
   3   3  -4 160.700 5.07544   1
   3   3  -4 157.935 4.73831  14
  -1  -3   4 265.930 6.11576   6
   1  -3  -4 262.373 6.39262   8
   1  -3  -4 266.609 6.76712   2
  -1  -3   4 263.723 6.47085  12
  -1  -3   4 251.212 6.49899   1
   1  -3  -4 268.250 7.43478  13
  -1  -3   4 268.911 7.61190  10
  -1  -3   4 260.061 5.90698   9
   1  -3  -4 257.530 7.06589   1
   1   3  -4 251.447 7.00780  10
   1   3  -4 272.076 7.07693   4
  -1   3   4 268.064 7.29992   9
  -1   3   4 257.019 6.31538  12
  -1   3   4 266.517 8.45285  10
   1   3  -4 264.579 7.64217   7
  -1   3   4 267.683 7.18117   1
   1   3  -4 270.900 5.99585  11
   1   3  -4 279.799 7.32156   2
   1   3  -4 269.977 7.27871  14
  -1   3   4 255.927 6.58680   6
  -1  -3  -4 24.7451 2.10640   2
  -1  -3  -4 22.7644 1.82695  14
   1  -3   4 21.1098 2.33597  10
  -1  -3  -4 23.3713 1.54351  13
  -1  -3  -4 19.8600 1.90961   8
  -1  -3  -4 30.1735 1.94252   1
  -1   3  -4 23.6827 1.98144   4
  -1   3  -4 22.1600 1.84632   8
  -1   3  -4 32.9820 2.37328   7
  -1   3  -4 20.3329 2.02464   2
  -1   3  -4 22.9379 2.10204   5
   1   3   4 22.6229 1.62911  11
  -1   3  -4 25.1045 2.03602  14
  -1   3  -4 23.4364 1.52025   3
   1   3   4 24.2526 2.12941   9
   1   3   4 23.5428 1.71588   6
   1   3   4 19.2909 1.94232   1
   1   3   4 20.5227 2.69826  10
  -3  -3  -4 242.647 7.71885   2
   3  -3   4 239.111 9.27322  10
  -3  -3  -4 226.460 6.95299  14
  -3  -3  -4 235.060 7.66721   8
  -3   3  -4 236.710 6.85269   3
   3   3   4 234.269 7.48366   1
  -3   3  -4 234.113 7.47427   8
   3   3   4 240.497 7.07170   6
   3   3   4 235.181 8.40102   9
  -3   3  -4 245.417 7.50557  14
  -3   3  -4 228.264 8.29010   5
  -3   3  -4 243.415 7.06883   4
   3   3   4 227.376 9.82946  10
  -3   3  -4 233.598 7.47784   2
  -3   3  -4 229.195 7.68562   7
   3   3   4 233.650 7.15796  11
   5  -3   4 0.22441 1.53075  10
  -5  -3  -4 0.10444 0.98287  14
  -5  -3  -4 4.95123 1.89240   2
  -5  -3  -4 -0.4577 1.21370   5
  -5  -3  -4 0.42162 1.13553   8
  -5   3  -4 0.88887 1.09463  14
   5   3   4 2.83186 1.30465   6
  -5   3  -4 1.48980 1.33565   3
  -5   3  -4 2.53600 1.53197   7
   5   3   4 1.38766 1.24971   1
  -5   3  -4 5.69895 1.67201   2
   5   3   4 1.64052 2.32756  10
  -5   3  -4 0.24904 1.31690   8
  -5   3  -4 -0.3687 1.51713   5
   5   3   4 -0.0824 1.47798  11
  -7  -3  -4 2.78934 2.35637   8
   7  -3   4 7.75898 2.35956  11
   7  -3   4 6.11920 1.00824   6
  -7  -3  -4 6.93449 2.32140   2
  -7  -3  -4 4.99235 2.28973   5
   7   3   4 8.51336 2.18001   6
  -7   3  -4 7.04791 2.21257   8
   7   3   4 7.95042 2.84858  11
  -7   3  -4 8.82138 2.90538   5
   7   3   4 4.94506 1.74842   1
 -10  -4   4 1284.44 29.2270   8
  10  -4  -4 1199.71 32.8414  13
  10  -4  -4 1311.62 28.8664   1
  10  -4  -4 1281.70 28.2954   6
  10   4  -4 1303.41 30.8283   1
 -10   4   4 1296.03 30.1626   3
 -10   4   4 1290.96 30.7092   5
  10   4  -4 1304.00 31.5392  11
  -8  -4   4 187.521 7.17805  12
   8  -4  -4 191.604 9.78061  13
   8  -4  -4 193.675 6.97603   6
  -8  -4   4 196.811 7.27331   1
   8  -4  -4 191.047 7.29646   1
  -8  -4   4 189.237 7.31830   8
  -8   4   4 201.995 7.90464   3
   8   4  -4 188.095 7.51019   6
   8   4  -4 197.030 8.30586  11
   8   4  -4 192.710 8.27715   1
  -8   4   4 187.601 7.92770   5
   6  -4  -4 2474.95 51.3335  13
   6  -4  -4 2504.49 47.1898   6
  -6  -4   4 2490.89 47.1701  12
   6  -4  -4 2509.83 48.0052   1
  -6  -4   4 2508.66 48.1240   1
  -6   4   4 2454.94 48.1115   9
  -6   4   4 2445.30 47.9092   3
   6   4  -4 2450.94 48.7457   1
   6   4  -4 2534.44 48.1102  11
  -6   4   4 2455.03 46.0054  12
   6   4  -4 2408.51 47.3605   6
   4  -4  -4 15.3515 1.72218   6
  -4  -4   4 14.9903 1.64535  12
   4  -4  -4 14.3908 2.44828  13
  -4  -4   4 14.0083 1.60654   6
  -4  -4   4 14.9412 1.80950   1
  -4   4   4 16.1561 1.26828  12
  -4   4   4 15.8388 1.53269   1
   4   4  -4 14.2302 1.61418   4
  -4   4   4 15.9823 1.95405   9
  -4   4   4 15.0779 1.82851   3
   4   4  -4 24.5632 2.66682   7
  -4   4   4 12.8790 2.10474  10
   4   4  -4 15.8901 1.96470   1
   4   4  -4 15.4380 1.71286  11
   2  -4  -4 3101.12 58.0956   6
   2  -4  -4 3269.58 59.9675  13
   2  -4  -4 3117.33 57.6238   2
  -2  -4   4 3148.47 58.4695   1
  -2  -4   4 3256.44 57.9127   6
  -2  -4   4 3149.49 57.6458  12
   2  -4  -4 3116.23 59.0892   1
  -2  -4   4 3111.73 61.5265  10
  -2   4   4 3165.40 57.2842  12
   2   4  -4 3202.65 58.6910   4
  -2   4   4 3273.37 60.7089  10
  -2   4   4 3168.78 58.2496   3
   2   4  -4 3081.20 57.8454   1
  -2   4   4 3191.07 58.9462   9
   2   4  -4 3156.75 56.8560   3
   2   4  -4 3134.01 58.3171  10
  -2   4   4 3074.89 57.8005   6
  -2   4   4 3230.01 58.9258   1
   2   4  -4 3182.37 58.8315  14
   2   4  -4 3238.18 57.7208  11
   2   4  -4 3180.56 60.0140   7
   0  -4   4 13.9535 1.70668  10
   0  -4   4 8.43582 0.91843   6
   0  -4   4 10.4671 1.29365  12
   0  -4   4 9.94422 1.02698   1
   0  -4  -4 7.11465 1.30448  13
   0  -4  -4 15.9401 1.52103   2
   0  -4   4 8.14691 0.93257   9
   0   4   4 9.01754 1.24822  11
   0   4   4 8.26613 1.56631   9
   0   4  -4 9.59899 1.63100   4
   0   4  -4 10.5231 1.70255   7
   0   4   4 6.39771 1.40371   1
   0   4  -4 6.90631 1.33832  14
   0   4   4 12.6061 2.09605  10
   0   4   4 15.5733 1.65968   6
   0   4  -4 8.05518 0.99824   3
  -2  -4  -4 3286.68 60.9699   2
  -2  -4  -4 3238.43 60.4629  14
  -2  -4  -4 3223.61 60.8735   8
   2  -4   4 3116.28 62.4183  10
   2  -4   4 3055.24 58.3830   1
  -2   4  -4 3260.29 59.5924   3
   2   4   4 3319.53 64.6827  10
  -2   4  -4 3315.61 62.0309   7
  -2   4  -4 3244.10 61.9180   5
  -2   4  -4 3232.80 60.5481   8
  -2   4  -4 3324.37 61.3373  14
   2   4   4 3192.89 60.1009  11
   2   4   4 3284.32 60.4296   6
   2   4   4 3177.38 61.6836   9
   2   4   4 3194.69 61.2358   1
  -2   4  -4 3300.34 61.2369   2
  -2   4  -4 3268.35 60.6404   4
   4  -4   4 117.310 6.74239  10
  -4  -4  -4 132.917 5.12885  14
  -4  -4  -4 133.799 5.77506   2
  -4  -4  -4 119.388 5.84899   8
   4   4   4 118.583 6.37635   9
   4   4   4 122.595 5.64153   1
  -4   4  -4 135.672 5.37289   3
  -4   4  -4 130.529 5.63452   2
   4   4   4 124.830 5.40222   6
  -4   4  -4 120.985 5.26033  14
  -4   4  -4 129.295 5.50331   8
  -4   4  -4 117.708 5.10957   4
  -4   4  -4 129.745 6.55404   5
   4   4   4 125.946 7.80118  10
   4   4   4 120.827 5.58001  11
  -4   4  -4 127.395 6.21150   7
  -6  -4  -4 1759.38 37.1850   2
  -6  -4  -4 1744.87 37.5539   8
  -6   4  -4 1827.74 36.8374   3
  -6   4  -4 1733.36 38.9490   5
   6   4   4 1736.70 36.9957   1
   6   4   4 1725.11 36.6161   6
   6   4   4 1685.35 37.4080  11
  -6   4  -4 1748.55 36.5230   8
  -8  -4  -4 111.104 6.60734   8
   8  -4   4 98.9566 3.45379   6
   8   4   4 108.980 6.26139   6
   8   4   4 88.8013 6.88901   9
  -8   4  -4 87.0322 6.96805   5
  11  -5  -4 26.9207 3.56906   6
 -11  -5   4 22.9198 3.51214   8
  11  -5  -4 29.3802 3.62762   1
  11   5  -4 19.2274 3.80753   1
 -11   5   4 15.3675 3.14199   3
 -11   5   4 18.0572 3.88440   5
  11   5  -4 23.0437 5.03489  11
   9  -5  -4 147.027 9.30217  13
   9  -5  -4 146.011 6.41600   6
   9  -5  -4 142.343 6.51191   1
  -9  -5   4 141.483 7.00603   8
   9   5  -4 138.400 7.72590   1
  -9   5   4 141.347 7.52376   5
  -9   5   4 140.099 7.21455   3
   9   5  -4 150.191 8.19884  11
   7  -5  -4 15.7490 2.16720   6
  -7  -5   4 18.5071 2.59428   1
   7  -5  -4 21.6624 3.65919  13
   7  -5  -4 22.2095 2.74416   1
  -7  -5   4 17.6211 2.45532  12
  -7  -5   4 16.1421 2.40806   8
   7   5  -4 21.4749 2.99517   1
   7   5  -4 20.2928 3.08469  11
  -7   5   4 18.2842 2.77726   3
   7   5  -4 18.0162 3.10273   7
  -7   5   4 19.4166 2.83243   5
   5  -5  -4 592.451 13.8799   6
  -5  -5   4 586.019 13.5632   6
   5  -5  -4 594.887 14.5546   1
   5  -5  -4 595.808 16.8237  13
  -5  -5   4 579.709 13.3998  12
  -5  -5   4 598.515 14.7396   1
  -5   5   4 593.464 14.4270   9
  -5   5   4 589.824 12.3200  12
   5   5  -4 593.631 13.1453   4
  -5   5   4 572.089 13.2589   1
   5   5  -4 597.533 14.8476   1
  -5   5   4 587.367 14.2138   3
   5   5  -4 597.616 15.8328   7
   5   5  -4 609.990 14.3741  11
  -3  -5   4 275.023 7.25177   6
   3  -5  -4 257.994 6.36494   2
  -3  -5   4 263.746 6.83475  12
   3  -5  -4 265.779 7.37085   6
  -3  -5   4 272.090 7.89381   1
   3  -5  -4 267.438 8.12281   1
   3  -5  -4 273.943 9.10822  13
  -3   5   4 273.664 7.65310   3
   3   5  -4 268.235 7.54318   1
  -3   5   4 277.600 7.72140   1
  -3   5   4 262.852 6.18803  12
  -3   5   4 277.310 8.77550  10
   3   5  -4 284.670 9.00508   7
   3   5  -4 236.927 8.32981  10
   3   5  -4 261.770 7.25518  11
  -3   5   4 259.958 7.68887   9
   3   5  -4 272.940 7.65740   4
  -1  -5   4 366.479 8.40085   6
   1  -5  -4 354.725 9.68927   1
   1  -5  -4 344.301 7.93317   8
   1  -5  -4 343.287 8.61564   6
   1  -5  -4 358.221 8.89260   2
   1  -5  -4 361.069 9.72764  13
  -1  -5   4 342.848 8.08620  12
  -1  -5   4 361.447 8.91416   1
  -1  -5   4 345.001 8.59671  10
  -1   5   4 359.299 10.4961  10
  -1   5   4 359.249 9.64246   1
  -1   5   4 339.218 8.69261   6
   1   5  -4 342.758 7.87253   3
   1   5  -4 345.145 9.60684  14
  -1   5   4 343.074 8.73586  11
   1   5  -4 371.904 9.63259   4
  -1   5   4 350.381 7.95040  12
   1   5  -4 367.686 10.5203   7
   1   5  -4 357.095 8.54316  11
  -1   5   4 355.073 9.49888   9
  -1  -5  -4 1027.22 21.9661   2
  -1  -5  -4 991.010 21.3845   8
   1  -5   4 1010.68 22.2688  10
   1  -5   4 1007.88 20.1838   1
  -1  -5  -4 1035.96 21.9873   1
   1  -5   4 1015.50 20.6392  12
   1  -5   4 1025.28 19.5611   6
  -1   5  -4 1073.16 22.3564   4
   1   5   4 1053.94 24.4522  10
  -1   5  -4 1075.27 22.7014   5
   1   5   4 1041.90 21.7200   6
   1   5   4 1030.91 21.4804  11
  -1   5  -4 1044.48 22.7260  14
   1   5   4 1028.97 22.5726   9
  -1   5  -4 1055.28 20.7597   3
   1   5   4 1058.72 22.8534   1
  -1   5  -4 1071.91 23.6234   7
  -3  -5  -4 131.700 5.77380   8
  -3  -5  -4 140.293 6.00318   2
  -3  -5  -4 133.031 5.49149  14
   3  -5   4 138.891 7.61943  10
  -3   5  -4 178.879 7.20504   5
  -3   5  -4 132.549 5.76091   2
  -3   5  -4 142.306 6.05035  14
   3   5   4 160.568 6.77969   9
  -3   5  -4 138.973 5.21887   3
  -3   5  -4 135.656 5.45475   8
  -3   5  -4 139.774 6.69528   7
  -3   5  -4 144.990 5.75512   4
   3   5   4 139.288 6.21092   1
   3   5   4 133.238 5.73463  11
   3   5   4 140.931 5.77693   6
  -5  -5  -4 432.091 11.8106  14
  -5  -5  -4 456.803 13.4514   8
   5  -5   4 430.951 13.8359  13
  -5  -5  -4 440.415 13.1163   2
  -5   5  -4 438.620 12.1685   3
  -5   5  -4 438.317 12.3001   8
   5   5   4 439.673 13.3695  11
  -5   5  -4 433.579 14.1058   5
  -5   5  -4 442.909 12.2145   4
   5   5   4 449.454 14.5691   9
  -5   5  -4 438.702 12.4855   2
   5   5   4 438.651 13.4018   1
  -5   5  -4 468.004 14.3030   7
  -5   5  -4 443.773 12.5605  14
   5   5   4 426.581 12.8011   6
  -7  -5  -4 130.093 7.15121   8
  -7  -5  -4 140.099 7.30598   2
   7  -5   4 130.228 3.29698   6
   7   5   4 130.102 7.06776   1
   7   5   4 123.463 8.23701   9
   7   5   4 132.416 7.01583   6
  -7   5  -4 124.390 6.69314   3
  -7   5  -4 126.435 7.88247   5
  10  -6  -4 7.14855 2.23693   6
 -10  -6   4 10.9758 3.08570   8
  10  -6  -4 9.45665 2.33748   1
  10   6  -4 9.14050 3.22243   1
 -10   6   4 13.6448 3.36721   3
 -10   6   4 10.0721 3.11498   5
  10   6  -4 6.94639 3.66962  11
  -8  -6   4 1113.95 25.3958   8
  -8  -6   4 1111.19 25.5183   1
   8  -6  -4 1105.32 24.4178   6
   8  -6  -4 1060.10 29.4509  13
   8  -6  -4 1087.90 24.7655   1
  -8   6   4 1099.97 25.7532   3
   8   6  -4 1061.31 26.9570   7
   8   6  -4 1117.16 26.4217  11
  -8   6   4 1105.73 25.9709   5
   8   6  -4 1096.13 26.8909   1
  -6  -6   4 144.203 5.64189  12
  -6  -6   4 144.096 6.31235   1
   6  -6  -4 150.786 6.26998   1
   6  -6  -4 146.653 5.88236   6
   6  -6  -4 140.186 8.04649  13
  -6   6   4 142.806 6.33242   3
   6   6  -4 148.197 6.51877  11
  -6   6   4 167.429 6.61493   5
   6   6  -4 145.909 7.19932   7
   6   6  -4 157.528 6.97373   1
  -6   6   4 166.071 6.56117   9
   4  -6  -4 3269.55 60.3138   6
   4  -6  -4 3169.54 61.0963   1
   4  -6  -4 3325.41 64.0074  13
  -4  -6   4 3147.99 59.9808   6
  -4  -6   4 3145.34 59.1194  12
  -4  -6   4 3201.12 61.2226   1
  -4   6   4 3150.93 59.8671   1
   4   6  -4 3264.71 62.7711   7
   4   6  -4 3209.61 60.8911   1
   4   6  -4 3090.34 59.7588   4
  -4   6   4 3293.93 60.8148   3
   4   6  -4 3243.53 60.4099  11
   2  -6  -4 581.640 14.3700   1
   2  -6  -4 573.649 14.8983  13
   2  -6  -4 562.314 12.6176   2
   2  -6  -4 535.271 12.9877   6
  -2  -6   4 561.872 13.6274   1
  -2  -6   4 584.298 13.0020   6
  -2  -6   4 555.059 12.0514  12
   2   6  -4 577.227 13.8161   4
  -2   6   4 561.989 14.5702  10
   2   6  -4 565.018 13.0537  11
  -2   6   4 576.067 13.9076   1
   2   6  -4 574.647 12.2939   3
   2   6  -4 591.501 15.2255   7
  -2   6   4 573.644 13.6316   3
  -2   6   4 560.936 13.6524   9
   0  -6  -4 3474.17 63.9734  13
   0  -6   4 3449.83 62.3327   6
   0  -6  -4 3385.67 63.8218   2
   0  -6  -4 3305.46 62.4889   8
   0  -6  -4 3402.26 64.6565   1
   0  -6   4 3349.11 62.9285   1
   0   6  -4 3485.16 66.3627   7
   0   6   4 3409.58 66.0694  10
   0   6   4 3377.67 63.6340  11
   0   6  -4 3380.34 64.9572  14
   0   6   4 3457.46 64.5764   9
   0   6  -4 3468.47 64.6804   4
   0   6  -4 3369.46 62.3905   3
   0   6   4 3512.22 65.0312   1
  -2  -6  -4 152.008 6.00710   1
  -2  -6  -4 143.397 5.75856   8
   2  -6   4 156.171 4.09097   6
   2  -6   4 151.075 4.40967   1
  -2  -6  -4 162.222 6.26977   2
  -2   6  -4 161.955 6.71471  14
   2   6   4 157.474 6.56900   9
  -2   6  -4 154.720 7.05734   7
   2   6   4 170.447 6.25568  11
   2   6   4 152.149 6.75229   1
  -2   6  -4 156.763 6.25091   4
   2   6   4 151.016 5.97389   6
   2   6   4 147.185 7.45776  10
  -2   6  -4 152.396 5.34506   3
   4  -6   4 1232.11 22.5035   6
  -4  -6  -4 1255.24 26.8752  14
  -4  -6  -4 1227.81 27.7771   8
  -4  -6  -4 1217.88 27.8102   2
   4   6   4 1220.02 27.9304  11
  -4   6  -4 1278.70 27.4624   4
   4   6   4 1244.77 29.1490   9
  -4   6  -4 1272.22 26.6516   3
   4   6   4 1282.39 29.0250   1
  -4   6  -4 1293.45 29.1927   5
   4   6   4 1229.06 32.0679  10
   4   6   4 1271.24 27.8720   6
  -4   6  -4 1264.26 27.9161  14
  -4   6  -4 1293.85 29.7452   7
  -6  -6  -4 15.8789 3.15190   8
  -6  -6  -4 10.5748 2.53829   2
   6   6   4 9.19385 3.05608   9
  -6   6  -4 6.25731 1.78210   3
  -6   6  -4 10.2616 3.12185   5
   6   6   4 8.22072 2.66002   1
   6   6   4 4.89507 2.60809  11
   6   6   4 8.35687 2.48749   6
  -6   6  -4 8.71170 2.45176   7
   9  -7  -4 126.883 6.27208   6
  -9  -7   4 125.452 6.68519   8
   9  -7  -4 109.474 5.80484   1
  -9   7   4 122.641 7.20195   5
   9   7  -4 115.948 7.78608  11
  -9   7   4 123.573 7.33396   3
   9   7  -4 110.502 7.45466   1
  -7  -7   4 12.2150 2.70411   1
  -7  -7   4 6.50858 2.19393   8
   7  -7  -4 6.58343 2.91625  13
   7  -7  -4 6.70175 1.91314   1
   7  -7  -4 7.66069 1.89247   6
   7   7  -4 6.50505 2.33367   7
  -7   7   4 4.68335 1.62461   5
   7   7  -4 6.26386 2.13237  11
  -7   7   4 7.73378 2.43438   3
   7   7  -4 10.8243 2.72313   1
   5  -7  -4 156.553 6.19299   6
  -5  -7   4 153.964 5.56179  12
   5  -7  -4 162.505 6.77427   1
  -5  -7   4 161.628 6.87917   1
   5  -7  -4 158.980 8.51080  13
   5   7  -4 165.186 6.94337   1
   5   7  -4 178.209 6.72135  11
   5   7  -4 160.805 7.71709   7
  -5   7   4 156.800 6.21262   5
  -5   7   4 155.527 6.43389   9
  -5   7   4 161.797 6.68823   3
   3  -7  -4 5.41210 1.43908   6
   3  -7  -4 9.15611 1.99212   1
  -3  -7   4 6.41825 1.76709   1
  -3  -7   4 8.89458 1.64233   6
   3  -7  -4 10.9975 2.42900  13
  -3   7   4 6.23864 1.51487   1
   3   7  -4 11.0241 1.85108  11
  -3   7   4 7.48383 1.80670   3
  -3   7   4 11.6875 1.97760  10
   3   7  -4 10.7167 2.41795   7
   3   7  -4 7.28286 1.56003   1
  -3   7   4 6.29333 1.62583   9
   3   7  -4 9.89757 1.84079   4
   1  -7  -4 0.04023 0.89329   2
  -1  -7   4 1.69939 1.02824   1
   1  -7  -4 1.87489 1.30098  13
   1  -7  -4 1.52991 1.03007   1
  -1  -7   4 0.69429 0.86808   6
   1   7  -4 0.87867 0.95953   4
   1   7  -4 2.04593 1.67382   7
  -1   7   4 2.25169 1.31692   3
  -1   7   4 0.14440 1.19985   1
  -1   7   4 6.42228 1.62947  10
  -1   7   4 2.68356 1.28573   9
   1   7  -4 0.81788 0.75342   3
  -1  -7  -4 52.3762 3.85977   1
   1  -7   4 48.1768 2.71756   1
  -1  -7  -4 50.0942 2.92551   8
   1  -7   4 48.0119 2.55125   6
  -1  -7  -4 52.4346 3.67086   2
  -1   7  -4 47.1607 3.77840   4
   1   7   4 48.1425 3.47725   9
  -1   7  -4 53.2945 4.56910   7
   1   7   4 45.9554 3.38091  11
  -1   7  -4 47.7813 3.50252   5
   1   7   4 49.9037 4.00334   1
   1   7   4 47.4827 4.09905  10
  -1   7  -4 47.7230 2.84345   3
  -3  -7  -4 17.1781 2.82499   2
  -3  -7  -4 18.0323 2.65685   8
   3  -7   4 16.6763 1.40525   6
   3   7   4 19.8163 3.38266  10
   3   7   4 20.5695 2.79087   6
   3   7   4 24.6851 3.17904  11
  -3   7  -4 17.2703 2.32689   3
  -3   7  -4 14.0634 3.10423   7
  -3   7  -4 17.8006 2.86793   5
   3   7   4 19.0993 3.16216   9
  -3   7  -4 18.5121 2.93388   4
   3   7   4 16.9034 3.07485   1
  -5  -7  -4 15.1759 2.69647   8
  -5  -7  -4 15.1757 2.43507  14
  -5  -7  -4 17.8227 3.24854   2
   5  -7   4 13.2799 3.12195  13
   5  -7   4 14.1808 1.10281   6
   5   7   4 14.1450 3.13405  11
   5   7   4 15.5772 2.90161   6
  -5   7  -4 18.6753 3.46695   7
  -5   7  -4 17.2500 2.66981   3
   5   7   4 18.3217 3.61676   9
   5   7   4 18.9502 3.24392   1
  -5   7  -4 18.5759 3.01697   4
  -5   7  -4 15.4777 3.20474   5
  -7  -7  -4 3.43960 2.57983   2
  -7  -7  -4 2.54447 2.46833   8
   7  -7   4 3.23511 0.85725   6
   7   7   4 2.76612 1.69024   6
   7   7   4 5.76569 2.63796   1
   7   7   4 4.18184 2.81738   9
  -7   7  -4 0.80494 1.81637   5
  10  -8  -4 304.727 10.5646   6
 -10  -8   4 293.155 11.6057   8
  10   8  -4 309.388 12.7499   1
  10   8  -4 307.825 13.0326  11
 -10   8   4 298.904 11.8932   3
 -10   8   4 284.821 11.8667   5
   8  -8  -4 586.456 15.9613   1
   8  -8  -4 575.757 15.5384   6
   8  -8  -4 585.978 21.3892  13
  -8  -8   4 568.975 16.6882   1
  -8  -8   4 593.988 16.5851   8
  -8   8   4 571.526 16.6699   3
   8   8  -4 552.889 17.1700  11
   8   8  -4 575.402 17.8321   1
  -8   8   4 563.835 16.5522   5
  -6  -8   4 310.110 10.9582   1
   6  -8  -4 283.388 10.0090   1
   6  -8  -4 289.891 12.8195  13
  -6  -8   4 291.442 9.80652   8
   6  -8  -4 301.862 9.76427   6
   6   8  -4 293.137 10.5566   1
  -6   8   4 297.091 9.80146   5
   6   8  -4 304.849 10.6035  11
  -6   8   4 321.922 10.8074   3
   6   8  -4 297.790 11.4499   7
  -4  -8   4 766.976 17.6471   6
   4  -8  -4 736.735 17.5573   6
   4  -8  -4 741.576 21.0391  13
   4  -8  -4 748.527 18.6372   1
  -4  -8   4 733.830 18.6524   1
   4   8  -4 736.342 20.0313   7
   4   8  -4 743.542 18.0675  11
  -4   8   4 741.014 18.2121   3
   4   8  -4 720.161 17.1499   4
  -4   8   4 734.434 17.5965   9
   4   8  -4 726.473 17.8385   1
   2  -8  -4 198.292 8.26391  13
  -2  -8   4 195.472 6.84439   6
   2  -8  -4 199.666 7.95586   1
   2  -8  -4 195.200 7.01864   6
   2   8  -4 193.649 7.35395   4
  -2   8   4 186.172 6.87520   9
  -2   8   4 188.614 7.20139   1
   2   8  -4 201.678 8.92032   7
   2   8  -4 197.020 7.10199  11
  -2   8   4 195.951 7.49592   3
   2   8  -4 198.784 6.34399   3
   0  -8  -4 876.083 21.0463   1
   0  -8   4 873.431 19.3199   1
   0  -8  -4 872.512 19.8163   2
   0  -8   4 852.636 18.7188   6
   0   8   4 824.552 19.8870  11
   0   8  -4 868.025 22.5797   7
   0   8  -4 852.501 18.5966   3
   0   8   4 858.571 19.9947   9
   0   8   4 871.955 21.0106   1
   0   8  -4 864.890 20.7161   4
   2  -8   4 199.484 6.11576   6
  -2  -8  -4 215.076 8.29456   1
   2  -8   4 191.789 6.10541   1
  -2  -8  -4 204.119 8.04912   2
  -2   8  -4 206.861 7.96613   5
   2   8   4 191.165 7.88619  11
  -2   8  -4 203.881 9.40658   7
   2   8   4 195.647 8.48004   1
  -2   8  -4 195.477 6.89660   3
   2   8   4 201.391 8.12054   9
  -2   8  -4 211.836 8.45720   4
  -4  -8  -4 799.794 19.5905  14
  -4  -8  -4 766.384 19.6663   8
   4  -8   4 782.772 16.3313   6
  -4  -8  -4 787.521 20.3263   2
   4  -8   4 760.678 22.7950  13
  -4   8  -4 810.188 21.0569   5
   4   8   4 796.273 21.9128   1
  -4   8  -4 803.999 22.8831   7
   4   8   4 785.402 20.7237  11
   4   8   4 816.818 21.3737   9
  -4   8  -4 821.303 20.5287   4
  -6  -8  -4 191.968 8.81222   8
  -6  -8  -4 178.672 8.52972   2
   6   8   4 198.693 9.85186   1
   6   8   4 148.849 8.73032  11
  -6   8  -4 187.737 10.2029   7
  -6   8  -4 189.948 9.37528   5
   6   8   4 191.374 9.96194   9
   9  -9  -4 5.47697 2.13701   6
  -9  -9   4 5.32785 2.68845   8
   9  -9  -4 5.42862 2.07464   1
   9   9  -4 5.83958 3.12972   1
   9   9  -4 7.69235 2.86497  11
  -9   9   4 4.23714 2.40263   5
  -9   9   4 4.81869 2.27426   3
  -7  -9   4 63.2487 5.40078   1
   7  -9  -4 66.0113 4.70142   6
  -7  -9   4 62.9788 5.02026   8
   7  -9  -4 68.4340 4.93832   1
   7  -9  -4 64.9787 6.59260  13
   7   9  -4 69.1053 5.79439  11
  -7   9   4 62.3200 5.36600   3
   7   9  -4 72.2860 5.89045   1
  -5  -9   4 -0.0163 1.67968   1
  -5  -9   4 0.01827 1.40907   8
   5  -9  -4 6.25077 1.99329   6
   5  -9  -4 0.17518 1.54067  13
   5  -9  -4 0.25958 1.52478   1
   5   9  -4 -0.2824 1.86634  11
   5   9  -4 6.19545 2.20125   7
  -5   9   4 -0.3139 1.10026   3
  -5   9   4 0.40809 1.22416   9
   3  -9  -4 22.0222 3.64551  13
   3  -9  -4 28.4521 2.81125   6
  -3  -9   4 21.5851 3.11586   1
   3  -9  -4 18.6181 3.11170   1
  -3  -9   4 21.0414 2.59448   6
   3   9  -4 22.1060 2.88783   4
  -3   9   4 18.5524 3.04266   3
   3   9  -4 23.7444 2.62850   3
  -3   9   4 16.3629 2.36110   9
   3   9  -4 22.1514 3.09050  11
   1  -9  -4 10.7385 2.26819   1
  -1  -9   4 8.78001 1.93701   1
  -1  -9   4 9.54687 1.79541   6
   1  -9  -4 12.3661 2.14615   2
  -1   9   4 6.92143 1.83868   9
   1   9  -4 6.93202 2.68434   7
  -1   9   4 8.09618 2.22227   3
   1   9  -4 7.19276 1.65662   3
   1   9  -4 9.51132 2.07803   4
  -1   9   4 10.1468 2.28277   1
  -1  -9  -4 5.71685 1.76178   2
   1  -9   4 7.25398 1.58142   1
  -1  -9  -4 8.55957 2.40254   1
   1  -9   4 6.91604 1.55345   6
  -1   9  -4 7.02220 2.73609   7
  -1   9  -4 5.75061 2.23367   4
  -1   9  -4 4.67420 1.52214   3
   1   9   4 7.62928 2.05483   9
   1   9   4 6.26872 2.22615  11
   1   9   4 7.85702 2.39913   1
   3  -9   4 27.8712 2.47665   6
  -3  -9  -4 30.7177 3.77554   2
  -3   9  -4 29.0836 4.85413   7
  -3   9  -4 25.4572 3.74451   4
   3   9   4 27.8663 4.03583  11
   3   9   4 32.0432 3.95962   9
   3   9   4 26.7842 3.82559   1
  -5  -9  -4 6.01167 2.19038   2
  -5  -9  -4 5.32078 1.64214  14
   5  -9   4 7.08236 1.33055   6
   5   9   4 8.00609 3.01372   1
   5   9   4 5.99807 2.79520  11
  -5   9  -4 6.90101 2.70573   5
  -5   9  -4 3.23967 2.79223   7
  -8 -10   4 12.4390 3.14188   1
   8 -10  -4 15.6753 2.95553   6
   8 -10  -4 12.3365 2.79793   1
  -8 -10   4 11.2619 2.85565   8
   8  10  -4 11.2661 3.50687   1
  -8  10   4 15.0717 3.58928   3
   8  10  -4 11.6224 3.75708  11
   6 -10  -4 1017.72 24.4725   6
  -6 -10   4 1016.78 24.1466   8
  -6 -10   4 1048.30 26.2889   1
   6 -10  -4 1050.37 25.1335   1
  -6  10   4 1010.21 25.4010   3
   6  10  -4 988.677 25.2960  11
   4 -10  -4 96.4510 5.52365   6
  -4 -10   4 105.026 6.36293   1
   4 -10  -4 102.572 6.05448   1
   4 -10  -4 100.376 7.25270  13
  -4  10   4 95.5074 6.06156   3
   4  10  -4 102.951 5.37460   3
   4  10  -4 93.9293 6.97092   7
   4  10  -4 96.7196 6.04645  11
  -2 -10   4 1414.72 29.6288   6
  -2 -10   4 1327.82 30.2097   1
   2 -10  -4 1362.81 31.3698   1
   2 -10  -4 1333.28 32.1724  13
   2  10  -4 1355.00 33.3221   7
   2  10  -4 1298.87 30.1220   4
  -2  10   4 1334.85 30.4489   3
   0 -10   4 164.669 6.83395   1
   0 -10  -4 159.965 7.14186   2
   0 -10  -4 161.522 8.09792   1
   0 -10   4 168.830 6.77198   6
   0  10  -4 166.669 9.35765   7
   0  10   4 161.447 7.58686   1
   0  10  -4 167.563 7.91358   4
   0  10   4 167.964 8.00007   3
   2 -10   4 870.200 19.9766   6
  -2 -10  -4 892.418 22.9036   1
  -2 -10  -4 880.432 22.2546   2
   2  10   4 888.562 23.5695   1
  -2  10  -4 877.261 23.0451   4
  -2  10  -4 883.089 25.4070   7
   4 -10   4 73.9207 3.84784   6
  -4 -10  -4 75.2123 5.87667   2
   4  10   4 73.9134 6.02213  11
   4  10   4 70.2647 6.45969   1
  -4  10  -4 78.9369 7.29865   7
   7 -11  -4 113.088 6.69519   1
   7 -11  -4 122.600 6.79464   6
  -7 -11   4 130.070 7.63116   1
  -7  11   4 122.644 7.63321   3
   7  11  -4 107.356 7.45879  11
  -5 -11   4 79.7148 6.28150   1
   5 -11  -4 75.4211 5.35417   6
   5 -11  -4 80.3992 5.83723   1
   5  11  -4 76.0141 6.01849  11
  -5  11   4 71.1690 5.84979   3
   5  11  -4 72.3649 6.59752   7
  -3 -11   4 170.065 7.42978   6
   3 -11  -4 165.335 8.45777   1
  -3 -11   4 165.694 8.11724   1
   3 -11  -4 150.215 9.19367  13
   3  11  -4 175.028 8.14092  11
   3  11  -4 158.429 9.37256   7
  -3  11   4 163.325 8.18047   3
  -1 -11   4 150.997 7.13748   1
   1 -11  -4 156.304 8.35029   1
  -1 -11   4 149.619 6.71580   6
  -1  11   4 146.974 7.86026   3
   1  11  -4 138.505 7.36113   4
   1  11  -4 135.161 8.95414   7
  -1 -11  -4 102.689 6.52184   1
   1 -11   4 95.9601 5.26048   6
   1 -11   4 93.0109 5.24218   1
  -1 -11  -4 96.1876 5.77802   2
  -1  11  -4 97.5118 7.50598   7
   1  11   4 99.6840 6.54513   3
   1  11   4 93.2928 6.52334   1
   3 -11   4 135.689 5.82886   6
  -3 -11  -4 120.024 7.11972   2
   3  11   4 131.554 8.33431   1
   3  11   4 116.412 7.19992  11
  -3  11  -4 136.817 9.54882   7
   6 -12  -4 105.709 6.84103   1
  -6 -12   4 116.660 7.80301   1
   6 -12  -4 109.737 6.64855   6
   6  12  -4 103.540 7.41803  11
  -6  12   4 109.257 7.38088   3
   4 -12  -4 490.025 15.7110   1
  -4 -12   4 487.841 16.0662   1
   4  12  -4 466.606 15.0913  11
  -4  12   4 473.348 15.5941   3
   4  12  -4 459.305 17.0716   7
  -2 -12   4 63.9446 5.40438   1
   2 -12  -4 64.1298 5.89850   1
  -2 -12   4 67.4307 5.08428   6
   2  12  -4 63.2982 6.67384   7
  -2  12   4 67.8492 5.87214   3
   0 -12  -4 576.761 18.2517   1
   0 -12   4 587.822 16.2300   6
   0  12   4 544.092 17.4903   3
   0  12  -4 568.024 20.2298   7
  -2 -12  -4 48.7685 5.19996   2
  -2 -12  -4 45.2638 4.73124   1
   2 -12   4 39.9126 3.71849   6
  -2  12  -4 43.5703 6.25835   7
   2  12   4 47.8760 5.57177   1
   2  12   4 46.4568 5.44484   3
  -3 -13   4 13.5646 3.42239   1
   3 -13  -4 12.2743 2.95116   1
   3  13  -4 6.91019 3.33645   7
  -3  13   4 15.1371 3.49757   3
  -1 -13   4 6.93828 2.65445   1
  -1 -13   4 9.29126 2.59032   6
   1 -13  -4 13.2875 3.68000   1
  -1  13   4 7.41970 3.02788   3
   1  13  -4 8.66271 3.18136   7
  12   0  -5 2.30359 2.26334   1
 -12   0   5 1.22984 2.32306   5
  12   0  -5 5.80881 3.33357  11
  12   0  -5 1.91019 2.16100   6
 -12   0   5 1.40871 1.73553   8
 -10   0   5 2.37214 1.55263   8
  10   0  -5 2.90413 1.56820   1
 -10   0   5 1.14469 1.86522   5
  10   0  -5 1.59662 1.69064  11
  10   0  -5 0.62191 1.71448   6
   8   0  -5 1.73759 1.58440  11
  -8   0   5 1.45808 0.91533   8
  -8   0   5 1.44246 1.33340   3
   8   0  -5 -0.6232 1.53296  13
   8   0  -5 0.11566 1.27378   1
   8   0  -5 1.15907 1.32329   6
  -8   0   5 1.36122 1.22360  12
   6   0  -5 0.65502 1.41362  13
  -6   0   5 -0.3350 0.63453   3
   6   0  -5 1.82327 0.93877   1
  -6   0   5 -0.0417 0.73436   1
  -6   0   5 0.76710 0.97040   9
   6   0  -5 0.07101 0.80068   6
   6   0  -5 0.01077 0.82808  11
  -6   0   5 0.79558 0.67113  12
  -4   0   5 1.65517 1.14481  10
  -4   0   5 2.04145 0.61044   6
  -4   0   5 2.06253 0.91477   1
  -4   0   5 2.28759 0.83571  12
  -4   0   5 -0.0314 0.70180   9
   4   0  -5 0.22796 0.53527   1
   4   0  -5 0.84971 1.13018  13
  -4   0   5 3.33482 0.65042   3
   4   0  -5 0.26810 0.48570  14
   4   0  -5 0.09327 0.52423   6
   4   0  -5 1.40375 0.54280  11
  -2   0   5 0.48411 0.68096   9
   2   0  -5 4.65822 1.19542  13
  -2   0   5 0.31863 0.98192  10
   2   0  -5 3.17014 0.89918  14
   0   0  -5 1.41077 0.90243   2
   0   0   5 0.83915 0.71767   9
   0   0  -5 0.91006 0.55157   7
   0   0   5 0.63086 1.06463  10
   0   0   5 0.85858 0.62728   1
   0   0  -5 3.49856 1.08340   8
   0   0   5 0.14108 0.44525   6
   0   0  -5 0.58308 0.62953   4
   0   0  -5 3.78478 0.92917  14
  -2   0  -5 -0.0482 1.14581   5
  -2   0  -5 5.22986 1.31819  14
   2   0   5 1.98737 0.68776   6
   2   0   5 3.12880 0.83687   1
   2   0   5 2.97000 1.33886   9
   2   0   5 0.37889 1.31103  10
  -2   0  -5 -0.4488 0.93634   2
  -4   0  -5 0.63427 1.15542   5
  -4   0  -5 2.36044 1.16621  14
   4   0   5 1.06966 0.82677   1
   4   0   5 0.66912 0.75648   6
  -4   0  -5 0.39271 1.39350   8
  -4   0  -5 10.4771 1.93101   2
   4   0   5 1.08567 1.70325  10
   6   0   5 0.34194 0.99472   6
  -6   0  -5 -1.0395 1.75781   8
  -6   0  -5 -0.3237 1.00765   2
  -6   0  -5 1.04430 2.10618   5
  -8   0  -5 0.42459 2.37799   5
   8   0   5 1.73462 1.45737   6
  -8   0  -5 1.28931 1.68453   8
  11  -1  -5 856.975 23.0709  11
  11  -1  -5 910.984 22.7473   1
 -11  -1   5 874.414 22.6094   5
 -11  -1   5 847.739 21.2648   8
  11  -1  -5 892.194 22.0660   6
  11   1  -5 888.700 23.6909  11
  11   1  -5 873.662 22.9439   1
 -11   1   5 861.732 22.9073   5
  11   1  -5 868.082 22.2642   6
 -11   1   5 861.235 20.7103   8
   9  -1  -5 114.537 7.27590  13
   9  -1  -5 111.197 6.03430  11
   9  -1  -5 112.459 5.65677   6
  -9  -1   5 118.499 5.66295  12
  -9  -1   5 114.065 5.91445   5
  -9  -1   5 109.696 5.40106   8
   9  -1  -5 116.459 6.10065   1
  -9   1   5 112.226 6.08737   5
   9   1  -5 115.309 6.32117   1
   9   1  -5 98.7368 6.55044  13
  -9   1   5 110.353 5.34271  12
  -9   1   5 109.182 4.96688   8
   9   1  -5 109.884 6.28046  11
   9   1  -5 116.959 5.70134   6
  -9   1   5 107.115 5.84398   3
   7  -1  -5 2005.46 40.7037   1
  -7  -1   5 1997.21 39.8010   1
   7  -1  -5 2037.64 43.2629  13
   7  -1  -5 2077.91 39.9779   6
  -7  -1   5 2032.25 39.5017  12
   7   1  -5 2072.40 41.1428   1
   7   1  -5 2062.66 40.0697  11
  -7   1   5 1951.02 39.8808   3
   7   1  -5 2028.09 38.7729   4
   7   1  -5 2009.23 42.6395  13
  -7   1   5 2031.46 39.5400   1
   7   1  -5 2065.67 40.0741   6
  -7   1   5 2073.81 39.3766  12
  -5  -1   5 445.994 10.9078   9
   5  -1  -5 451.026 9.79056  14
   5  -1  -5 460.025 10.7833   6
  -5  -1   5 437.879 10.2378   6
   5  -1  -5 461.340 12.9317  13
   5  -1  -5 446.130 11.5229   1
  -5  -1   5 447.381 10.6661  12
  -5  -1   5 465.522 11.2519   1
   5   1  -5 453.195 9.65343  14
  -5   1   5 450.439 10.9718   1
  -5   1   5 443.138 10.4371  12
   5   1  -5 468.996 12.9739  13
  -5   1   5 443.271 10.4461   3
   5   1  -5 481.345 11.7607   1
  -5   1   5 451.745 11.2388   9
   5   1  -5 442.061 10.5941   6
   5   1  -5 445.995 10.5623   4
   5   1  -5 455.296 10.2703  11
  -5   1   5 457.324 13.3061  10
  -3  -1   5 3278.94 60.1303   6
   3  -1  -5 3353.21 60.4138  14
  -3  -1   5 3324.20 60.3598  12
  -3  -1   5 3342.00 60.3900   9
  -3  -1   5 3364.06 63.1177  10
   3  -1  -5 3428.51 62.6566  13
   3  -1  -5 3355.95 61.0622   1
  -3  -1   5 3277.92 60.9061   1
   3  -1  -5 3257.64 59.7345   2
   3  -1  -5 3125.16 59.7842   6
  -3   1   5 3306.92 60.2342  12
   3   1  -5 3299.28 60.4704   4
  -3   1   5 3401.47 61.0271   1
  -3   1   5 3160.24 60.2191   3
   3   1  -5 3363.11 62.7196  13
   3   1  -5 3263.77 61.3645  11
  -3   1   5 3323.92 60.9804   9
   3   1  -5 3225.24 60.3775  14
   3   1  -5 3260.03 60.6416   1
  -3   1   5 3284.83 63.3298  10
   3   1  -5 3298.42 60.3196   2
  -3   1   5 3266.48 60.0780   6
  -1  -1   5 1227.42 24.4316   9
   1  -1  -5 1258.31 24.7276  14
   1  -1  -5 1262.71 24.2006   1
  -1  -1   5 1239.03 26.9314  10
   1  -1  -5 1244.44 24.6120   8
   1  -1  -5 1249.42 24.2924   4
  -1  -1   5 1244.71 24.4148  12
  -1  -1   5 1219.72 24.2944   1
  -1  -1   5 1271.18 23.7056   6
   1  -1  -5 1283.07 25.6289  13
   1  -1  -5 1230.16 24.7060   2
  -1   1   5 1247.29 24.7870   1
  -1   1   5 1254.05 24.3751  12
   1   1  -5 1244.65 24.4312   4
  -1   1   5 1271.43 27.5227  10
   1   1  -5 1206.07 24.7755   7
   1   1  -5 1263.01 24.9794  14
  -1   1   5 1244.90 25.0109   9
   1   1  -5 1200.83 23.4814   1
  -1   1   5 1225.84 23.9945   6
   1   1  -5 1227.68 24.8564   2
   1  -1   5 1970.62 36.7218   1
  -1  -1  -5 1931.91 38.1899   8
  -1  -1  -5 1943.93 36.8276   4
  -1  -1  -5 1966.23 38.3148   2
  -1  -1  -5 1915.36 37.7877  14
   1  -1   5 1970.98 35.8759   6
   1  -1   5 1971.41 41.2343  10
   1  -1   5 1914.70 38.0917   9
  -1   1  -5 2015.15 37.4245   7
  -1   1  -5 2012.96 38.2205  14
   1   1   5 2012.03 36.8336   6
  -1   1  -5 2017.29 38.5426   2
   1   1   5 2002.60 41.7469  10
  -1   1  -5 1938.02 38.3336   8
   1   1   5 1898.88 37.3964   1
   1   1   5 1939.12 38.6671   9
  -1   1  -5 1975.83 37.2666   4
   3  -1   5 832.295 16.5663   1
  -3  -1  -5 788.849 19.6400   5
   3  -1   5 818.170 22.4651  10
  -3  -1  -5 824.225 18.9852   2
   3  -1   5 797.254 15.8329   6
  -3  -1  -5 805.756 18.1405  14
  -3  -1  -5 825.559 19.2288   8
  -3  -1  -5 889.746 16.9119   4
  -3   1  -5 838.387 18.9872   2
  -3   1  -5 812.593 17.3121   4
   3   1   5 817.055 17.1841   6
  -3   1  -5 865.615 19.2626   8
   3   1   5 830.267 22.9723  10
  -3   1  -5 808.869 20.0878   5
   3   1   5 779.958 17.5426   1
  -3   1  -5 804.243 18.3171  14
  -5  -1  -5 610.006 17.4847   5
  -5  -1  -5 639.331 16.4120   2
   5  -1   5 638.264 13.3872   6
  -5  -1  -5 639.545 16.7779   8
  -5  -1  -5 627.554 15.2156  14
  -5   1  -5 612.591 17.6814   5
  -5   1  -5 643.162 16.7390   8
   5   1   5 614.890 14.6433   1
  -5   1  -5 606.396 15.1689  14
   5   1   5 646.804 14.7303   6
  -5   1  -5 630.972 16.1593   2
  -7  -1  -5 322.022 12.4915   5
  -7  -1  -5 330.679 11.5867   8
   7  -1   5 325.675 8.77557   6
  -7  -1  -5 316.019 10.8714   2
  -7   1  -5 311.187 10.6583   2
  -7   1  -5 305.189 12.6192   5
   7   1   5 319.120 9.75233   6
  -7   1  -5 316.608 11.3648   8
  12  -2  -5 192.196 8.75942   1
  12  -2  -5 189.630 8.64123   6
 -12  -2   5 184.269 8.28215   8
  12  -2  -5 198.577 9.65447  11
  12   2  -5 225.885 10.8420  11
 -12   2   5 196.249 9.81271   5
  12   2  -5 187.662 9.43417   1
  10  -2  -5 438.372 13.0334   6
  10  -2  -5 441.753 13.4988   1
  10  -2  -5 394.185 15.4404  13
 -10  -2   5 428.830 12.8632   8
 -10  -2   5 425.332 13.0985   5
  10  -2  -5 446.834 14.0160  11
  10   2  -5 441.782 13.5923   6
  10   2  -5 439.867 14.2289   1
 -10   2   5 427.938 13.5953   3
 -10   2   5 438.938 14.0889   5
  10   2  -5 463.513 14.7990  11
  -8  -2   5 493.898 12.9372  12
  -8  -2   5 493.732 12.9603   1
   8  -2  -5 507.320 13.2183   6
   8  -2  -5 510.009 13.8083   1
   8  -2  -5 492.328 16.2984  13
   8   2  -5 482.576 15.0768  13
  -8   2   5 520.204 12.6434  12
  -8   2   5 496.813 13.6032   3
   8   2  -5 495.950 14.2467   1
   8   2  -5 499.456 13.4463   6
   8   2  -5 517.789 13.9272  11
  -8   2   5 507.862 13.8525   5
  -8   2   5 501.718 12.0645   8
   6  -2  -5 890.568 20.1168   1
   6  -2  -5 885.045 22.2131  13
  -6  -2   5 922.235 19.1903  12
  -6  -2   5 915.461 19.7548   1
   6  -2  -5 911.664 19.3634   6
   6   2  -5 893.148 19.1214  11
   6   2  -5 878.586 18.5272   4
  -6   2   5 868.061 19.0360   1
   6   2  -5 885.532 19.1699   6
  -6   2   5 864.771 19.2323   3
   6   2  -5 915.212 20.4668   1
   6   2  -5 889.861 21.6035  13
  -6   2   5 875.113 18.6030  12
  -6   2   5 934.494 20.1618   9
  -4  -2   5 1148.24 23.4150   1
   4  -2  -5 1101.94 22.6691   6
   4  -2  -5 1129.34 23.6760   1
  -4  -2   5 1147.87 22.8003  12
   4  -2  -5 1157.12 25.2901  13
   4  -2  -5 1147.10 22.4780  14
  -4  -2   5 1152.05 22.5821   9
   4  -2  -5 1142.55 21.3453   2
  -4  -2   5 1150.58 25.3055  10
  -4  -2   5 1113.00 22.5280   6
   4   2  -5 1141.61 23.4553   1
  -4   2   5 1111.44 22.2895   6
  -4   2   5 1147.82 23.5173   9
  -4   2   5 1145.77 22.4017   3
   4   2  -5 1170.33 25.2403  13
   4   2  -5 1138.26 21.9884  11
   4   2  -5 1115.09 22.3513  14
  -4   2   5 1139.64 22.4524  12
  -4   2   5 1140.23 25.6340  10
  -4   2   5 1172.92 23.3750   1
   4   2  -5 1133.58 22.4991   6
   4   2  -5 1139.48 22.8168   4
  -2  -2   5 858.843 18.2232   1
   2  -2  -5 880.728 18.0132   2
   2  -2  -5 901.645 18.4587  14
  -2  -2   5 879.056 17.7644   9
   2  -2  -5 900.018 19.5660  13
  -2  -2   5 900.291 20.3292  10
   2  -2  -5 891.936 18.5973   1
  -2  -2   5 899.778 18.1790  12
  -2  -2   5 903.636 17.7973   6
  -2   2   5 863.193 17.9240   6
  -2   2   5 891.890 20.8360  10
   2   2  -5 887.321 18.6292  14
  -2   2   5 903.105 18.9821   9
   2   2  -5 898.168 18.6563   2
   2   2  -5 894.313 18.3833   4
   2   2  -5 902.256 17.8749   1
  -2   2   5 888.425 17.3076   3
  -2   2   5 882.988 17.9269  12
   2   2  -5 895.604 19.4001   7
   2   2  -5 886.375 16.5142  11
  -2   2   5 909.035 18.8113   1
   0  -2  -5 978.998 20.7523   2
   0  -2   5 1021.30 18.9980   6
   0  -2   5 950.644 20.2082  12
   0  -2   5 960.548 20.1788   9
   0  -2  -5 985.352 20.6040   8
   0  -2  -5 984.993 19.9687   1
   0  -2  -5 1003.00 20.6714  14
   0  -2  -5 969.717 18.9545   7
   0  -2   5 994.948 19.6694   1
   0  -2  -5 1014.71 20.7084  13
   0  -2   5 1017.35 22.9889  10
   0  -2  -5 1028.05 19.9914   4
   0   2  -5 982.421 20.7832   7
   0   2   5 1008.11 21.3849   9
   0   2   5 970.803 19.0503  11
   0   2   5 981.349 20.6846   1
   0   2  -5 1022.70 20.9973   8
   0   2   5 1004.33 20.0489   6
   0   2  -5 1035.59 21.1878  14
   0   2   5 1011.50 23.6929  10
   0   2  -5 1018.68 20.4913   4
   0   2  -5 1001.80 21.1569   2
   2  -2   5 432.811 8.40043   6
  -2  -2  -5 433.895 11.4904   2
   2  -2   5 420.123 8.34732   6
  -2  -2  -5 429.335 11.5963   8
  -2  -2  -5 426.662 9.78495   4
   2  -2   5 436.267 13.8234  10
   2  -2   5 424.606 9.30643   1
  -2  -2  -5 444.397 11.0869  14
   2   2   5 450.052 12.3443   9
  -2   2  -5 441.009 11.6857   2
   2   2   5 452.201 10.5560   6
  -2   2  -5 435.979 11.3209  14
  -2   2  -5 442.647 11.1344   7
   2   2   5 438.302 11.0678   1
  -2   2  -5 441.588 10.6344   4
   2   2   5 439.442 14.4906  10
  -2   2  -5 448.945 11.6907   8
  -2   2  -5 438.472 12.4675   5
   4  -2   5 285.070 11.8775  10
  -4  -2  -5 281.991 10.0049   5
   4  -2   5 300.684 6.20915   6
  -4  -2  -5 289.152 8.72620  14
  -4  -2  -5 311.540 9.71010   2
  -4  -2  -5 294.490 9.73281   8
  -4   2  -5 310.557 9.87405   8
   4   2   5 293.860 8.81938   1
  -4   2  -5 277.543 10.4629   5
  -4   2  -5 299.814 9.06037  14
   4   2   5 292.050 12.8040  10
  -4   2  -5 311.066 9.62657   2
   4   2   5 298.850 8.57345   6
  -4   2  -5 296.250 8.21603   4
  -6  -2  -5 182.474 8.19386   8
  -6  -2  -5 191.913 7.81330   2
   6  -2   5 180.636 5.08434   6
  -6  -2  -5 185.407 8.72647   5
  -6   2  -5 171.958 7.22320   2
  -6   2  -5 175.404 8.94176   5
   6   2   5 185.499 7.02836   6
  -6   2  -5 169.405 7.53236   8
   6   2   5 173.416 6.75821   1
  -8  -2  -5 65.2936 5.26063   8
   8  -2   5 67.5877 3.44290   6
  -8  -2  -5 71.4173 5.01874   2
   8   2   5 70.9502 4.66602   6
  -8   2  -5 60.2624 5.10817   8
   8   2   5 69.4601 6.23169   9
  -8   2  -5 69.5764 6.11269   5
 -11  -3   5 151.919 7.63200   8
  11  -3  -5 160.744 7.67407   1
  11  -3  -5 147.318 7.09883   6
  11  -3  -5 148.213 7.91039  11
  11   3  -5 162.994 9.18656  11
 -11   3   5 168.057 8.81083   5
 -11   3   5 162.569 8.36539   3
  11   3  -5 172.815 8.90679   1
  -9  -3   5 800.405 19.4969   5
  -9  -3   5 823.031 19.9102   8
   9  -3  -5 790.873 23.5104  13
   9  -3  -5 813.241 19.5977   6
   9  -3  -5 811.315 20.0628   1
  -9  -3   5 828.744 19.7417  12
   9   3  -5 816.649 20.2333   6
  -9   3   5 788.405 20.2605   3
  -9   3   5 863.983 18.9914  12
   9   3  -5 812.111 21.2049   1
  -9   3   5 830.922 20.9198   5
   9   3  -5 832.750 21.1089  11
  -7  -3   5 604.590 14.9112   1
   7  -3  -5 602.450 14.5488   6
   7  -3  -5 587.299 17.6413  13
  -7  -3   5 595.543 14.3186  12
   7  -3  -5 595.472 15.1198   1
   7   3  -5 598.450 14.8113  11
   7   3  -5 585.967 14.4725   6
  -7   3   5 575.796 12.9044   8
  -7   3   5 600.491 14.8765   3
   7   3  -5 599.326 15.7409   1
  -7   3   5 580.822 13.5287  12
  -7   3   5 555.053 14.9799   9
   5  -3  -5 2376.81 46.0830   1
  -5  -3   5 2382.55 44.8790  12
   5  -3  -5 2365.03 45.1017   6
  -5  -3   5 2347.45 44.6076   6
   5  -3  -5 2314.93 44.1419  14
  -5  -3   5 2400.27 45.8065   1
   5  -3  -5 2405.27 48.2930  13
   5   3  -5 2361.82 44.6681  11
  -5   3   5 2375.38 45.1342   1
   5   3  -5 2366.72 44.0395  14
   5   3  -5 2339.89 44.7024   4
  -5   3   5 2377.05 45.0244   3
  -5   3   5 2359.24 48.2198  10
  -5   3   5 2384.69 44.2308  12
  -5   3   5 2404.39 45.9723   9
   5   3  -5 2396.61 46.0726   1
  -3  -3   5 1111.21 22.1127  12
  -3  -3   5 1106.63 21.3967   9
   3  -3  -5 1091.87 22.0785   6
   3  -3  -5 1123.83 23.2108   1
  -3  -3   5 1118.13 22.7798   1
   3  -3  -5 1133.26 24.4173  13
   3  -3  -5 1099.13 22.3547  14
   3  -3  -5 1087.06 21.3097   2
  -3  -3   5 1095.29 21.9779   6
  -3  -3   5 1108.95 24.1359  10
   3   3  -5 1144.59 24.1786   7
  -3   3   5 1121.91 22.9549   1
   3   3  -5 1112.92 22.5284   4
   3   3  -5 1098.64 22.3463   1
  -3   3   5 1094.85 21.9432   6
  -3   3   5 1101.84 21.7454  12
   3   3  -5 1109.71 22.5577  14
  -3   3   5 1129.08 23.1549   9
   3   3  -5 1085.97 21.2066  11
  -3   3   5 1097.76 21.8324   3
  -3   3   5 1133.97 25.1159  10
   1  -3  -5 2919.96 54.0125   8
   1  -3  -5 2833.64 54.2827   2
   1  -3  -5 2859.54 54.5551   1
  -1  -3   5 2946.00 56.2918  10
  -1  -3   5 2891.05 53.3524   9
   1  -3  -5 3023.25 55.2397  13
  -1  -3   5 2988.52 53.2511   6
  -1  -3   5 2796.11 53.7628   1
   1  -3  -5 2937.82 54.6204  14
  -1  -3   5 2946.64 54.0330  12
  -1   3   5 2911.71 53.8271  12
   1   3  -5 2901.60 55.4640   7
   1   3  -5 2898.15 55.0288   2
   1   3  -5 2993.66 54.6533   4
  -1   3   5 2937.22 55.2891   9
  -1   3   5 2934.68 54.0583   6
  -1   3   5 2901.52 54.9743   1
   1   3  -5 2938.29 55.0651  14
  -1   3   5 3002.10 57.6951  10
  -1  -3  -5 343.399 8.14195   4
  -1  -3  -5 356.725 9.46620   8
   1  -3   5 354.252 8.83743   9
   1  -3   5 321.144 6.81592   6
   1  -3   5 322.909 7.51860   1
  -1  -3  -5 336.963 9.37665   2
  -1  -3  -5 334.412 9.03421  14
  -1  -3  -5 319.694 8.32250   1
   1  -3   5 334.624 6.86518   6
   1   3   5 320.295 7.86203  11
  -1   3  -5 326.541 7.59441   3
   1   3   5 335.965 9.93447   9
   1   3   5 338.308 8.75659   6
  -1   3  -5 340.047 9.58118   2
  -1   3  -5 341.214 9.48909  14
  -1   3  -5 321.980 9.41196   7
   1   3   5 338.181 11.6077  10
  -1   3  -5 338.677 8.99068   4
  -1   3  -5 341.090 10.1910   5
   1   3   5 326.914 9.31222   1
  -1   3  -5 335.811 9.34272   8
   3  -3   5 1551.86 35.7217  10
  -3  -3  -5 1543.30 31.5088  14
  -3  -3  -5 1565.68 32.6449   8
  -3  -3  -5 1569.04 32.4504   2
   3   3   5 1511.17 33.5696   9
  -3   3  -5 1570.44 32.1229  14
  -3   3  -5 1563.21 32.3722   7
   3   3   5 1539.56 31.4336   6
   3   3   5 1550.46 37.1304  10
   3   3   5 1547.38 32.1020   1
  -3   3  -5 1563.33 31.2399   4
  -3   3  -5 1515.83 33.5647   5
  -3   3  -5 1621.91 32.6825   2
  -3   3  -5 1590.17 32.4514   8
  -3   3  -5 1579.89 30.9014   3
  -5  -3  -5 64.3299 3.95501  14
   5  -3   5 62.0810 1.78518   6
  -5  -3  -5 64.8902 4.66938   2
  -5  -3  -5 65.8639 4.97318   8
   5   3   5 56.9662 5.30719   9
   5   3   5 62.4696 4.15320   1
  -5   3  -5 61.0631 4.99951   5
  -5   3  -5 58.9052 4.26766   2
  -5   3  -5 65.1042 4.14464  14
  -5   3  -5 55.9737 4.13152   8
   5   3   5 68.6738 4.23505   6
  -7  -3  -5 680.242 19.1963   8
  -7  -3  -5 664.849 18.3110   2
   7  -3   5 688.191 14.2131   6
   7   3   5 714.711 18.0565   6
   7   3   5 714.165 21.3767   9
  -7   3  -5 653.735 20.0402   5
  -7   3  -5 688.563 18.5155   8
  12  -4  -5 2.56579 2.90916  11
  12  -4  -5 2.49857 2.05654   6
 -12  -4   5 3.06253 2.44625   8
  12  -4  -5 2.02356 1.92967   1
  12   4  -5 2.01557 2.49562   1
 -12   4   5 1.60136 2.74909   5
 -12   4   5 -0.8402 2.46410   3
  12   4  -5 3.50910 2.84288  11
  10  -4  -5 38.7251 3.94195   1
  10  -4  -5 40.4728 5.60336  13
 -10  -4   5 46.8717 4.49697   8
  10  -4  -5 39.1476 3.84695   6
 -10   4   5 45.3809 4.78388   5
  10   4  -5 39.0758 4.59461   1
 -10   4   5 40.4385 4.54301   3
  10   4  -5 50.0981 5.64269  11
  -8  -4   5 2.16136 1.77859   8
   8  -4  -5 2.68523 1.64239   1
  -8  -4   5 3.46949 1.33348   1
  -8  -4   5 2.75806 1.28755  12
  -8  -4   5 4.60288 1.45378   5
   8  -4  -5 2.19286 2.22665  13
   8   4  -5 5.10077 2.18460  11
  -8   4   5 5.07103 1.44557  12
  -8   4   5 3.70061 1.94828   5
  -8   4   5 2.98270 1.77104   3
   6  -4  -5 72.2666 5.53134  13
   6  -4  -5 66.9657 4.13695   1
  -6  -4   5 71.6765 4.22088   1
   6  -4  -5 77.1185 4.00364   6
  -6  -4   5 70.7889 3.64622  12
   6   4  -5 72.7598 5.16168   7
   6   4  -5 69.3825 3.70299  11
  -6   4   5 73.1989 3.26238  12
   6   4  -5 67.7677 3.21639   4
  -6   4   5 74.1409 4.20549   9
   6   4  -5 74.7065 4.47302   1
  -6   4   5 75.0294 3.56817   1
  -6   4   5 72.0744 3.99027   3
  -4  -4   5 118.398 4.39492   6
  -4  -4   5 117.467 4.96719   1
  -4  -4   5 123.135 4.35137  12
   4  -4  -5 126.098 6.19501  13
   4  -4  -5 118.287 4.49591   6
   4  -4  -5 124.180 5.24357   1
  -4   4   5 114.661 3.84773  12
  -4   4   5 124.298 5.02215   9
  -4   4   5 120.400 4.65362   1
   4   4  -5 132.446 4.45527  11
  -4   4   5 121.043 5.99747  10
   4   4  -5 120.583 4.62802   4
   4   4  -5 127.608 5.94383   7
   4   4  -5 122.722 4.51826  14
  -4   4   5 120.351 4.54600   3
   4   4  -5 121.484 4.84087   1
   2  -4  -5 52.7812 2.64382   2
  -2  -4   5 53.8639 2.66925  12
  -2  -4   5 55.4839 2.96283   1
  -2  -4   5 52.8880 2.60621   6
  -2  -4   5 51.3751 3.25322  10
   2  -4  -5 54.0364 3.10104   1
   2  -4  -5 54.9950 3.56053  13
   2  -4  -5 55.4746 2.67888   6
   2   4  -5 58.2690 3.27494  14
   2   4  -5 52.6290 3.45004   7
   2   4  -5 53.5766 2.45766   1
   2   4  -5 55.8709 3.14815   4
  -2   4   5 51.6574 3.15398   9
  -2   4   5 53.3188 2.43228  12
  -2   4   5 51.2932 3.04958   1
  -2   4   5 50.6735 2.66702   6
  -2   4   5 54.8887 2.75639   3
   2   4  -5 68.8497 2.55110  11
  -2   4   5 55.1535 4.03869  10
   0  -4  -5 378.160 9.59616   8
   0  -4   5 368.441 8.87975   1
   0  -4  -5 375.878 9.85178   1
   0  -4  -5 386.698 9.84149  13
   0  -4  -5 383.882 10.0605   2
   0  -4  -5 378.453 9.97863  14
   0  -4   5 386.688 8.40663   6
   0  -4   5 385.278 11.1469  10
   0  -4   5 391.749 9.46154  12
   0   4   5 394.178 12.5105  10
   0   4   5 379.446 9.70849   6
   0   4  -5 386.208 10.5135   2
   0   4   5 372.664 8.87525  11
   0   4   5 373.195 10.6133   9
   0   4   5 383.168 10.5086   1
   0   4  -5 382.162 10.0626   4
   0   4  -5 380.716 10.8718   7
   0   4  -5 403.435 10.7618  14
   2  -4   5 177.033 7.84970  10
   2  -4   5 180.975 3.63308   6
  -2  -4  -5 182.105 6.49214  14
   2  -4   5 180.366 3.62927   6
  -2  -4  -5 185.138 5.32550   4
  -2  -4  -5 179.997 6.70228   8
  -2  -4  -5 181.009 6.79870   2
  -2   4  -5 189.381 7.08909   2
   2   4   5 173.084 5.92396  11
  -2   4  -5 187.035 6.68231   8
  -2   4  -5 184.969 7.19475   7
   2   4   5 199.163 6.64885   6
  -2   4  -5 188.821 5.67792   3
  -2   4  -5 194.206 6.61026   4
   2   4   5 189.562 9.13328  10
  -2   4  -5 189.712 6.90648  14
   2   4   5 192.887 7.64285   9
   2   4   5 180.521 6.95399   1
  -2   4  -5 191.697 7.68449   5
  -4  -4  -5 150.300 7.04346   8
  -4  -4  -5 165.628 6.42392  14
  -4  -4  -5 155.969 6.93469   2
   4  -4   5 156.679 8.37208  10
  -4   4  -5 154.899 7.78309   5
  -4   4  -5 163.643 6.94469   2
  -4   4  -5 157.345 6.18538   4
  -4   4  -5 158.132 6.48701  14
   4   4   5 158.776 6.79127   1
  -4   4  -5 160.208 6.81603   8
  -4   4  -5 164.932 7.25695   7
   4   4   5 169.305 6.72210   6
  -4   4  -5 163.262 6.13679   3
   4   4   5 158.275 7.95732   9
   6  -4   5 205.707 4.38615   6
  -6  -4  -5 203.895 9.09673   8
  -6  -4  -5 202.827 8.68695   2
   6   4   5 203.334 10.2801   9
  -6   4  -5 197.375 8.30408   8
   6   4   5 216.429 8.47176   6
   6   4   5 191.776 8.18297   1
  -6   4  -5 203.542 9.84435   5
 -11  -5   5 487.399 15.2651   8
  11  -5  -5 466.990 14.5737   1
  11  -5  -5 508.041 14.6792   6
  11   5  -5 492.840 16.5454   1
  11   5  -5 491.467 17.1175  11
 -11   5   5 504.837 16.6019   5
 -11   5   5 483.024 15.6496   3
   9  -5  -5 268.294 9.69860   1
   9  -5  -5 265.219 12.7273  13
  -9  -5   5 260.883 9.83700   8
   9  -5  -5 282.486 9.60250   6
   9   5  -5 276.021 11.5560   7
   9   5  -5 274.928 10.7996  11
  -9   5   5 265.889 10.4923   5
  -9   5   5 263.732 9.84583   3
   9   5  -5 278.127 11.0849   1
   7  -5  -5 789.484 18.4940   6
   7  -5  -5 774.296 22.4915  13
   7  -5  -5 791.847 19.0808   1
  -7  -5   5 774.903 19.1131   1
  -7  -5   5 777.433 18.0844  12
  -7   5   5 746.898 18.8603   5
   7   5  -5 776.946 18.8893  11
   7   5  -5 818.094 20.1711   1
  -7   5   5 834.180 19.5426   9
   7   5  -5 772.193 21.0179   7
  -7   5   5 764.083 18.8937   3
  -7   5   5 781.138 16.7599  12
   5  -5  -5 385.056 13.0098  13
  -5  -5   5 380.521 10.1676   6
  -5  -5   5 399.970 11.2743   1
  -5  -5   5 397.636 10.1355  12
   5  -5  -5 393.102 11.2750   1
   5  -5  -5 407.838 10.6561   6
   5   5  -5 387.621 10.4083  11
  -5   5   5 396.318 10.7121   3
   5   5  -5 445.904 12.8342   7
   5   5  -5 383.356 10.0691   4
  -5   5   5 394.469 9.17969  12
  -5   5   5 386.203 10.3051   1
   5   5  -5 394.476 11.1137   1
  -5   5   5 390.774 11.1010   9
  -3  -5   5 1314.83 25.8918   6
  -3  -5   5 1270.25 25.4114  12
   3  -5  -5 1242.23 25.9131   6
  -3  -5   5 1272.05 26.6112   1
   3  -5  -5 1295.22 27.1841   1
   3  -5  -5 1332.17 25.4824   2
   3  -5  -5 1327.40 28.5508  13
  -3   5   5 1274.27 26.8991   9
   3   5  -5 1283.64 28.1833   7
  -3   5   5 1266.36 26.0234   3
   3   5  -5 1296.60 25.4954  11
  -3   5   5 1288.35 28.6468  10
   3   5  -5 1251.42 26.5130  14
  -3   5   5 1309.41 26.7847   1
   3   5  -5 1287.88 26.4875   4
   1  -5  -5 845.379 19.1218   1
  -1  -5   5 862.314 18.1357   1
  -1  -5   5 820.111 17.5620  12
  -1  -5   5 845.784 17.4289   6
   1  -5  -5 827.729 17.4300   8
  -1  -5   5 834.712 18.8766  10
   1  -5  -5 860.786 19.2731  13
   1  -5  -5 821.491 18.2532   2
  -1   5   5 860.051 21.0990  10
   1   5  -5 870.698 20.2102   7
   1   5  -5 900.992 19.2681   4
  -1   5   5 838.982 17.3964  12
  -1   5   5 852.789 19.3640   9
   1   5  -5 863.812 19.4284  14
  -1   5   5 839.186 18.2138   6
  -1   5   5 875.916 19.3921   1
  -1  -5  -5 1272.34 26.8064  14
   1  -5   5 1245.61 28.2373  10
  -1  -5  -5 1320.96 27.1081   2
  -1  -5  -5 1231.48 26.4292   1
   1  -5   5 1255.15 25.7203  12
   1  -5   5 1258.84 24.7151   1
  -1  -5  -5 1231.49 26.3610   8
   1  -5   5 1275.71 24.1884   6
   1   5   5 1244.77 25.8491  11
  -1   5  -5 1318.83 27.7386  14
   1   5   5 1292.64 26.6622   6
  -1   5  -5 1318.64 28.4621   7
  -1   5  -5 1310.50 27.9826   5
   1   5   5 1301.56 28.0159   9
  -1   5  -5 1328.98 27.2077   4
   1   5   5 1321.41 27.9259   1
   1   5   5 1282.82 30.3910  10
  -3  -5  -5 749.902 18.6623   2
  -3  -5  -5 781.250 18.1149  14
  -3  -5  -5 751.702 18.6602   8
  -3   5  -5 769.855 19.7068   7
   3   5   5 766.798 22.8193  10
  -3   5  -5 787.312 18.9423  14
  -3   5  -5 785.799 18.2221   4
  -3   5  -5 767.215 18.8727   2
   3   5   5 749.548 18.3442   6
  -3   5  -5 772.367 20.0936   5
   3   5   5 785.004 19.4337   1
   3   5   5 771.974 20.0548   9
   3   5   5 725.949 17.7806  11
  -5  -5  -5 614.854 17.0214   8
  -5  -5  -5 597.753 16.6698   2
  -5  -5  -5 598.359 15.3613  14
  -5   5  -5 590.496 15.8097   8
   5   5   5 584.917 16.1921   6
  -5   5  -5 580.924 15.8374  14
  -5   5  -5 603.027 17.4438   7
   5   5   5 601.766 16.8651   1
  -5   5  -5 582.885 17.8173   5
   5   5   5 595.960 18.4374   9
  -5   5  -5 590.046 16.0701   2
  -5   5  -5 618.394 15.4148   4
  -7  -5  -5 244.989 10.2127   8
  -7  -5  -5 234.698 9.94206   2
   7   5   5 257.192 12.1117   9
  -7   5  -5 242.880 11.3457   5
   7   5   5 250.785 10.0540   1
   7   5   5 250.886 9.98413   6
  10  -6  -5 2.92284 1.88846   1
 -10  -6   5 1.93995 1.79352   8
  10  -6  -5 2.48545 1.51807   6
  10   6  -5 3.08966 3.28186  11
  10   6  -5 0.63468 2.34233   1
 -10   6   5 4.41494 2.59585   3
 -10   6   5 5.18603 2.60277   5
   8  -6  -5 50.4884 4.20471   1
   8  -6  -5 47.1261 6.00445  13
  -8  -6   5 46.7863 3.92346   8
  -8  -6   5 49.9361 4.43016   1
   8  -6  -5 52.0170 4.03308   6
  -8  -6   5 51.0196 3.69952  12
   8   6  -5 54.6378 4.97895   1
   8   6  -5 53.8027 5.33661   7
  -8   6   5 45.2769 3.91415   3
   8   6  -5 54.9856 4.47617  11
  -8   6   5 50.5995 4.54727   5
   6  -6  -5 9.40487 2.79352  13
   6  -6  -5 14.1024 2.27716   6
   6  -6  -5 9.97532 2.13390   1
  -6  -6   5 9.71068 2.01923   1
  -6  -6   5 7.91793 1.70133  12
   6   6  -5 8.97325 2.11998  11
   6   6  -5 8.55043 2.22880   1
   6   6  -5 9.96153 2.37267   7
  -6   6   5 7.36916 1.98322   3
  -6   6   5 9.77794 2.20204   9
   4  -6  -5 32.1159 3.12955   1
  -4  -6   5 28.7691 2.70435   1
   4  -6  -5 24.7588 2.44733   6
  -4  -6   5 26.5009 2.16375  12
  -4  -6   5 23.9089 2.20989   6
  -4   6   5 36.7830 2.98850   3
   4   6  -5 26.3995 2.46813   1
  -4   6   5 28.7918 2.89167   9
  -4   6   5 25.8905 2.49419   1
   4   6  -5 34.5736 2.74149   4
  -4   6   5 24.3220 3.03755  10
   4   6  -5 25.9521 3.44901   7
   4   6  -5 29.2859 2.34242  11
  -2  -6   5 229.020 6.50859  12
   2  -6  -5 250.834 8.71773  13
   2  -6  -5 226.518 6.83619   2
  -2  -6   5 240.592 7.61066   1
   2  -6  -5 246.675 8.33904   1
  -2  -6   5 236.907 7.01070   6
   2   6  -5 258.882 8.04604   4
  -2   6   5 229.407 8.81398  10
  -2   6   5 234.009 6.13990  12
   2   6  -5 244.139 6.96436  11
  -2   6   5 244.592 8.02884   9
  -2   6   5 242.692 8.06686   1
   2   6  -5 228.594 8.00726  14
   2   6  -5 240.363 8.84702   7
  -2   6   5 251.978 7.73922   3
   0  -6   5 33.6110 2.34184   1
   0  -6  -5 34.2714 2.96372   1
   0  -6  -5 33.6751 2.24146   8
   0  -6  -5 35.3213 2.67523  13
   0  -6   5 37.3436 2.46395  12
   0  -6   5 36.2691 2.19723   6
   0  -6  -5 36.2231 2.75476   2
   0   6   5 32.8929 3.29370   9
   0   6  -5 38.0654 3.28299   4
   0   6   5 34.2529 2.73288   6
   0   6   5 41.9108 3.54314   1
   0   6  -5 35.1432 3.11625  14
   0   6   5 39.5941 3.87921  10
   0   6  -5 35.6735 3.44208   7
   0   6   5 31.5616 2.52790  11
  -2  -6  -5 235.057 8.14386   8
  -2  -6  -5 252.080 8.51763  14
  -2  -6  -5 254.101 8.71194   2
   2  -6   5 250.364 5.99826   6
  -2   6  -5 262.718 9.76003   7
  -2   6  -5 257.156 9.20198  14
   2   6   5 247.612 9.25079   9
   2   6   5 253.685 9.42093   1
   2   6   5 243.431 10.8548  10
  -2   6  -5 247.455 9.16854   5
  -2   6  -5 268.472 8.88829   4
   2   6   5 239.705 8.40813   6
   2   6   5 233.688 8.01577  11
  -4  -6  -5 146.735 6.95021   2
  -4  -6  -5 152.780 7.01288   8
   4  -6   5 138.525 3.25769   6
  -4  -6  -5 146.977 6.46417  14
   4   6   5 148.147 7.53467   1
   4   6   5 147.145 8.15844   9
   4   6   5 146.213 6.94268   6
  -4   6  -5 146.275 6.40666   4
  -4   6  -5 134.164 7.48774   7
  -4   6  -5 138.691 7.73418   5
  -4   6  -5 153.697 7.10117  14
  -6  -6  -5 66.7162 5.49524   2
  -6  -6  -5 65.6697 5.55595   8
  -6   6  -5 65.2444 6.17849   5
   6   6   5 68.1813 5.34970   6
   6   6   5 68.0549 5.53193   1
   6   6   5 63.4772 6.52673   9
   9  -7  -5 204.659 8.55563   1
   9  -7  -5 192.405 7.88035   6
  -9  -7   5 195.915 8.56320   8
  -9   7   5 190.986 9.03229   5
   9   7  -5 191.734 9.42112   1
  -9   7   5 193.170 9.00373   3
   9   7  -5 188.526 9.27339  11
   7  -7  -5 1047.43 29.0196  13
  -7  -7   5 1057.11 24.6281   8
  -7  -7   5 1056.14 25.3436   1
   7  -7  -5 1041.54 23.9715   6
  -7  -7   5 1009.35 23.2395  12
   7  -7  -5 1073.86 24.8705   1
   7   7  -5 1071.27 24.9478  11
  -7   7   5 1054.07 24.5315   5
  -7   7   5 1062.21 24.7525   9
   7   7  -5 1065.01 25.8019   1
  -7   7   5 1070.99 24.9771   3
   7   7  -5 1040.81 26.7297   7
   5  -7  -5 606.446 18.5582  13
   5  -7  -5 605.873 16.0987   1
  -5  -7   5 605.663 16.0757   1
  -5  -7   5 591.014 14.8054   6
  -5  -7   5 580.542 13.9179  12
   5  -7  -5 596.170 15.1291   6
   5   7  -5 605.834 15.5532   1
  -5   7   5 599.220 15.5047   9
   5   7  -5 607.453 17.3954   7
  -5   7   5 619.138 15.5760   3
   5   7  -5 596.853 15.0623  11
   5   7  -5 561.033 14.3293   4
   3  -7  -5 1649.93 35.7566  13
  -3  -7   5 1610.25 33.6814   1
   3  -7  -5 1596.48 34.2699   1
   3  -7  -5 1600.07 32.8520   6
  -3  -7   5 1655.67 32.7970   6
  -3   7   5 1638.77 33.6018   9
  -3   7   5 1567.34 33.3261   1
  -3   7   5 1597.16 34.8344  10
   3   7  -5 1602.28 33.4009   4
   3   7  -5 1669.68 32.7007  11
   3   7  -5 1619.84 35.5967   7
  -3   7   5 1630.34 33.3445   3
  -1  -7   5 425.348 11.0823   1
  -1  -7   5 405.714 10.4675   6
   1  -7  -5 418.807 12.1575   1
   1  -7  -5 407.510 11.9067  13
   1  -7  -5 403.062 10.9419   2
   1   7  -5 392.599 13.0514   7
  -1   7   5 407.757 12.9191  10
  -1   7   5 415.282 11.9303   9
  -1   7   5 400.806 11.9798   1
  -1   7   5 413.333 11.7167   3
   1   7  -5 424.368 12.0804   4
  -1  -7  -5 903.118 20.9092   2
   1  -7   5 909.127 18.9139   1
   1  -7   5 888.662 18.5063   6
  -1  -7  -5 856.339 19.8403   8
  -1  -7  -5 899.161 21.0512   1
  -1   7  -5 858.692 22.5474   7
  -1   7  -5 931.609 21.4411   4
   1   7   5 904.290 23.8195  10
   1   7   5 854.106 20.1907  11
  -1   7  -5 911.207 22.0301  14
   1   7   5 923.765 21.8165   9
   1   7   5 887.490 21.9218   1
  -3  -7  -5 80.4478 4.71269   8
   3  -7   5 83.9829 3.05927   6
  -3  -7  -5 83.4121 5.10366   2
  -3  -7  -5 84.2015 5.12271  14
  -3   7  -5 87.3639 5.34327   4
   3   7   5 80.2381 5.11874   6
  -3   7  -5 84.8575 5.65530  14
  -3   7  -5 87.3923 5.95606   5
  -3   7  -5 81.7998 6.09902   7
   3   7   5 89.3923 5.77307   1
   3   7   5 80.5986 5.09876  11
   3   7   5 82.1192 5.92607   9
  -5  -7  -5 415.662 12.5272  14
  -5  -7  -5 426.370 13.9322   2
   5  -7   5 437.296 8.93503   6
  -5  -7  -5 448.583 14.0651   8
  -5   7  -5 420.801 13.1143   4
  -5   7  -5 447.719 15.3491   5
   5   7   5 437.665 14.7351   1
   5   7   5 443.539 15.5245   9
   5   7   5 419.751 13.6288   6
  -5   7  -5 443.674 15.3656   7
 -10  -8   5 122.156 7.02629   8
  10  -8  -5 116.398 6.56475   1
  10  -8  -5 120.971 6.69986   6
  10   8  -5 111.525 7.96452   1
 -10   8   5 122.439 7.15871   3
 -10   8   5 119.243 7.21920   5
  10   8  -5 116.631 8.17349  11
   8  -8  -5 504.042 14.9266   1
  -8  -8   5 484.696 15.3137   1
   8  -8  -5 483.421 14.2642   6
  -8  -8   5 488.577 14.8936   8
   8   8  -5 514.162 16.4458   1
   8   8  -5 481.399 16.4415   7
  -8   8   5 524.433 15.6338   3
  -8   8   5 492.102 15.0636   5
   8   8  -5 480.364 15.3424  11
   6  -8  -5 318.001 11.1095   1
  -6  -8   5 331.204 11.6419   1
   6  -8  -5 337.397 14.1312  13
   6  -8  -5 322.396 10.5393   6
   6   8  -5 323.187 10.7802  11
  -6   8   5 313.104 10.6190   3
  -6   8   5 317.874 10.6621   9
   6   8  -5 314.529 12.1938   7
  -6   8   5 300.956 10.0785   5
   6   8  -5 336.139 11.4024   1
  -4  -8   5 334.233 11.1830   1
   4  -8  -5 350.672 13.1018  13
  -4  -8   5 357.020 10.4511   6
   4  -8  -5 340.493 10.5090   6
   4  -8  -5 345.215 11.2884   1
   4   8  -5 320.621 10.1863   4
  -4   8   5 348.731 10.8078   9
   4   8  -5 340.363 12.3538   7
   4   8  -5 359.168 10.5494  11
  -4   8   5 332.395 10.7133   3
  -2  -8   5 608.740 14.9910   6
   2  -8  -5 636.901 16.9039   1
   2  -8  -5 609.310 16.9808  13
  -2  -8   5 620.860 15.8303   1
  -2   8   5 642.923 16.1778   3
   2   8  -5 622.786 18.1405   7
  -2   8   5 607.828 16.0088   1
  -2   8   5 618.375 15.8404   9
   2   8  -5 591.237 15.9238   4
   2   8  -5 613.009 15.1111  11
   0  -8  -5 129.824 6.52911   1
   0  -8   5 118.218 4.89889   6
   0  -8   5 119.406 5.11618   1
   0  -8  -5 116.574 5.56507   2
   0   8   5 117.225 5.64090  11
   0   8  -5 124.101 6.43223   4
   0   8  -5 110.703 7.02769   7
   0   8   5 122.398 6.20249   9
   0   8   5 123.149 6.35290   1
  -2  -8  -5 249.172 9.40491   2
  -2  -8  -5 264.449 9.53773  14
   2  -8   5 255.298 7.23617   6
  -2   8  -5 251.632 9.67920   4
  -2   8  -5 248.958 10.8136   7
   2   8   5 257.398 9.94335   9
   2   8   5 259.200 10.5398   1
  -4  -8  -5 127.100 6.56780  14
  -4  -8  -5 123.968 6.82457   2
   4  -8   5 132.376 4.35834   6
  -4  -8  -5 133.878 6.80130   8
  -4   8  -5 133.763 7.42646   5
   4   8   5 142.203 8.24500   9
  -4   8  -5 132.772 8.09169   7
  -4   8  -5 136.169 7.12974   4
   4   8   5 135.596 7.98583   1
  -6  -8  -5 14.0099 2.95438   2
   6   8   5 10.0210 3.20547   1
   6   8   5 10.4755 2.92894   9
  -6   8  -5 15.1525 3.67203   5
  -9  -9   5 747.489 20.3487   8
   9  -9  -5 725.648 19.6228   1
   9  -9  -5 735.686 19.5593   6
  -9   9   5 737.495 20.8002   3
   9   9  -5 711.913 20.9875  11
  -9   9   5 732.061 20.2255   5
   9   9  -5 744.541 22.0903   1
   7  -9  -5 6.74014 2.08030   1
   7  -9  -5 7.07741 2.30892   6
  -7  -9   5 7.38824 2.49390   8
  -7  -9   5 4.72628 2.46766   1
   7   9  -5 13.0431 3.14222  11
   7   9  -5 11.8211 3.09122   1
   7   9  -5 7.54500 2.90687   7
  -7   9   5 12.2866 3.07449   3
   5  -9  -5 840.262 24.8854  13
   5  -9  -5 878.019 22.1165   1
   5  -9  -5 878.101 21.1012   6
  -5  -9   5 852.006 22.1929   1
  -5   9   5 863.458 21.0037   9
   5   9  -5 851.811 23.6819   7
   5   9  -5 847.842 21.0911  11
  -5   9   5 865.787 21.5278   3
  -3  -9   5 18.0512 3.00736   1
  -3  -9   5 18.7209 2.56920   6
   3  -9  -5 22.5304 3.49113   1
   3  -9  -5 24.7652 3.96854  13
  -3   9   5 18.9523 2.82869   3
   3   9  -5 30.4263 3.42099   4
   3   9  -5 21.4953 2.96925  11
  -3   9   5 22.8677 2.86745   9
  -1  -9   5 1142.37 24.8842   6
  -1  -9   5 1121.03 25.3612   1
   1  -9  -5 1146.64 27.0216   1
   1   9  -5 1140.45 26.5939   4
  -1   9   5 1160.58 26.0275   9
  -1   9   5 1131.42 26.3530   3
   1   9  -5 1117.14 28.7246   7
  -1   9   5 1150.69 26.7749   1
   1  -9   5 178.776 6.51644   1
  -1  -9  -5 192.593 8.00810   2
  -1  -9  -5 193.237 8.31048   1
   1  -9   5 188.396 6.65401   6
   1   9   5 174.031 7.72733  11
   1   9   5 194.648 8.41430   9
  -1   9  -5 182.763 9.71167   7
  -1   9  -5 191.107 8.34012   4
   1   9   5 188.904 8.75611   1
  -3  -9  -5 929.914 23.1291  14
  -3  -9  -5 949.617 23.7638   2
   3  -9   5 943.837 20.0287   6
   3   9   5 914.479 24.2974   9
  -3   9  -5 955.501 26.4798   7
  -3   9  -5 965.919 24.2132   4
   3   9   5 947.110 25.3983   1
   5  -9   5 191.120 5.51068   6
  -5  -9  -5 194.959 9.35612   2
  -5   9  -5 126.010 10.8582   5
   5   9   5 136.988 10.7777   9
  -5   9  -5 191.261 10.0400   7
   5   9   5 188.779 9.97194   1
   8 -10  -5 14.1168 3.16565   1
  -8 -10   5 12.5017 2.67425   8
  -8 -10   5 11.5803 2.83737   1
   8 -10  -5 14.1278 2.95684   6
  -8  10   5 13.2421 3.34805   3
   8  10  -5 13.2799 3.63298  11
   6 -10  -5 6.09749 2.28162   6
  -6 -10   5 9.37632 3.05425   1
  -6 -10   5 8.99500 2.54982   8
   6 -10  -5 8.53038 2.73049   1
   6  10  -5 7.31332 2.71537  11
   6  10  -5 9.95939 3.33834   7
  -6  10   5 7.30806 2.26447   3
   4 -10  -5 1.24743 1.99227   1
  -4 -10   5 2.63137 2.12201   1
   4 -10  -5 3.66046 2.64748  13
  -4 -10   5 1.72324 1.66402   6
   4  10  -5 1.58340 2.03716  11
   4  10  -5 6.73779 2.95750   7
   4  10  -5 2.40390 1.64177   4
  -4  10   5 11.1888 2.85380   3
  -2 -10   5 50.8218 4.40341   1
   2 -10  -5 47.9765 4.94398   1
  -2 -10   5 40.9368 3.78281   6
  -2  10   5 51.2428 4.74239   3
   2  10  -5 40.4047 4.41956   4
   2  10  -5 57.2586 5.50687   7
   0 -10   5 11.4524 2.16307   6
   0 -10   5 13.5618 2.26609   1
   0 -10  -5 13.2270 3.05423   1
   0 -10  -5 8.72190 2.20508   2
   0  10   5 12.1786 2.96311   3
   0  10  -5 13.8342 3.83172   7
   0  10  -5 17.1343 3.34981   4
   0  10   5 10.8321 2.88095   1
   2 -10   5 41.1206 3.18155   6
  -2 -10  -5 33.0449 4.22435   2
   2  10   5 34.8739 4.11285  11
  -2  10  -5 44.9960 5.08310   4
   2  10   5 31.8569 4.60277   1
  -2  10  -5 34.3052 5.30866   7
  -4 -10  -5 5.38774 2.35583  14
   4 -10   5 4.72517 1.47185   6
  -4 -10  -5 8.11423 2.94773   2
  -4  10  -5 7.76704 3.44086   7
   4  10   5 7.42482 2.59486   1
   7 -11  -5 220.833 9.76624   1
  -7 -11   5 230.161 10.5232   1
  -7  11   5 236.660 10.4644   3
   7  11  -5 221.254 10.2455  11
  -5 -11   5 731.165 20.8087   1
   5 -11  -5 719.963 20.4040   1
   5  11  -5 715.201 22.1260   7
   5  11  -5 695.241 19.3719  11
  -5  11   5 682.213 19.5765   3
   3 -11  -5 382.409 13.7817   1
  -3 -11   5 400.799 13.4563   1
  -3 -11   5 376.899 12.1398   6
  -3  11   5 356.412 12.6423   3
   3  11  -5 348.807 12.3060   4
   3  11  -5 378.427 15.2665   7
  -1 -11   5 425.502 13.2638   1
  -1 -11   5 432.426 13.0188   6
   1 -11  -5 433.383 14.9206   1
   1  11  -5 436.016 14.5259   4
   1  11  -5 415.087 16.3773   7
  -1  11   5 415.405 14.0673   3
   1 -11   5 204.695 7.86604   6
  -1 -11  -5 202.856 9.34494   1
  -1 -11  -5 200.925 8.85997   2
  -1  11  -5 197.631 11.1799   7
  -1  11  -5 198.686 9.69029   4
   1  11   5 196.715 9.73553   1
   1  11   5 201.106 9.86648   3
   3 -11   5 99.7389 5.15247   6
  -3 -11  -5 94.1411 6.25187   2
  -3 -11  -5 104.077 6.72769  14
   3  11   5 100.040 7.65256   1
  -3  11  -5 97.8506 8.34137   7
  -4 -12   5 163.758 8.56840   1
   4 -12  -5 160.448 8.76552   1
   4  12  -5 154.373 9.38366   7
  -4  12   5 162.121 8.32553   3
  -2 -12   5 48.6180 4.35084   6
  -2 -12   5 50.7792 4.82014   1
   2 -12  -5 54.4906 5.66134   1
   2  12  -5 39.9774 5.82112   7
  -2  12   5 48.8577 5.50997   3
   0 -12  -5 255.847 11.1374   1
   0 -12   5 242.503 9.23079   6
   0 -12   5 241.060 9.36233   1
   0  12  -5 245.314 12.9704   7
   0  12   5 249.186 11.1274   3
 -12   0   6 1.25920 2.41014   5
  12   0  -6 4.47450 2.29768   6
 -12   0   6 3.30050 1.55165   8
  12   0  -6 3.76752 3.05900  11
  12   0  -6 4.77793 2.06794   1
  10   0  -6 1480.26 32.7637   6
  10   0  -6 1494.14 33.7346   1
 -10   0   6 1484.80 31.8647  12
 -10   0   6 1487.00 33.2198   5
 -10   0   6 1487.83 31.5728   8
   8   0  -6 141.222 5.53401   4
   8   0  -6 147.840 7.89450  13
  -8   0   6 140.344 5.72884  12
  -8   0   6 137.078 5.77416   3
   8   0  -6 146.086 6.11911  11
  -8   0   6 142.437 5.78856   1
   8   0  -6 141.484 6.73317   1
   8   0  -6 150.671 6.17538   6
   6   0  -6 3475.77 65.0801   4
  -6   0   6 3297.57 63.9848   3
  -6   0   6 3591.76 65.0734  12
   6   0  -6 3543.88 66.5373   1
  -6   0   6 3518.82 65.8770   9
   6   0  -6 3475.83 65.0780   6
   6   0  -6 3473.03 64.2686  11
   6   0  -6 3497.11 68.7548  13
  -6   0   6 3598.58 65.8298   1
   4   0  -6 68.6460 3.52825   1
  -4   0   6 75.1363 3.31795  12
   4   0  -6 65.6075 2.20640  11
  -4   0   6 70.4374 3.13863   6
   4   0  -6 71.5549 3.35044   4
  -4   0   6 68.7423 4.65150  10
  -4   0   6 70.2138 3.50642   9
   4   0  -6 69.6500 3.15666  14
   4   0  -6 67.8769 4.35300  13
  -4   0   6 70.7887 3.58621   1
   2   0  -6 7100.16 134.541   2
   2   0  -6 7465.46 147.274  13
  -2   0   6 7527.92 141.843   6
   2   0  -6 7337.11 138.899   1
  -2   0   6 7448.54 142.934  12
  -2   0   6 7470.29 158.237  10
  -2   0   6 7146.26 141.675   1
   2   0  -6 7219.14 140.428   4
   2   0  -6 7525.97 140.156  14
  -2   0   6 7240.47 134.715   9
   0   0   6 120.038 6.61966  10
   0   0  -6 123.807 4.40932   4
   0   0  -6 121.108 4.21884   7
   0   0  -6 118.256 4.92410   8
   0   0   6 115.409 4.02085   6
   0   0  -6 128.294 5.18954   2
   0   0  -6 130.003 5.05612  14
   0   0   6 123.593 4.58367   1
   0   0   6 118.126 5.08400   9
   2   0   6 4341.94 79.6712   1
   2   0   6 4419.13 86.7726  10
  -2   0  -6 4197.36 79.4252   4
   2   0   6 4326.34 82.2403   9
  -2   0  -6 4457.06 81.9921   8
  -2   0  -6 4367.51 80.9144  14
   2   0   6 4282.28 81.8786   6
  -2   0  -6 4462.50 81.8386   2
   4   0   6 54.6441 2.94336   1
  -4   0  -6 43.6966 3.46919  14
  -4   0  -6 52.8152 4.35872   8
  -4   0  -6 53.4242 4.21189   2
  -4   0  -6 45.7817 4.39184   5
   4   0   6 51.3231 4.33069   9
   4   0   6 49.9460 2.99761   6
  -6   0  -6 999.022 26.7218   5
  -6   0  -6 1041.74 25.3923   8
   6   0   6 1020.49 22.0941   6
   6   0   6 1051.34 27.0121   9
  -6   0  -6 1038.87 24.7465   2
  11  -1  -6 5.16147 2.68565  11
  11  -1  -6 5.41580 2.31821   6
 -11  -1   6 7.57031 2.32283   8
  11  -1  -6 6.69271 2.17063   1
 -11  -1   6 9.35491 2.72361   5
  11   1  -6 4.51609 2.95921  11
 -11   1   6 3.55055 2.46996   5
  11   1  -6 6.81062 2.56097   6
  11   1  -6 4.19044 2.50036   1
   9  -1  -6 216.284 8.79777   1
  -9  -1   6 222.010 7.86861   8
   9  -1  -6 240.336 8.70931  11
   9  -1  -6 206.012 10.3467  13
  -9  -1   6 215.749 7.88707  12
   9  -1  -6 223.416 8.23672   6
  -9   1   6 211.089 8.14233   3
   9   1  -6 227.263 8.52446   6
   9   1  -6 209.225 9.97946  13
  -9   1   6 218.923 7.40780   8
   9   1  -6 222.321 8.58105  11
  -9   1   6 214.027 7.67396  12
   9   1  -6 207.859 8.72652   1
  -9   1   6 216.685 8.52277   5
   7  -1  -6 241.768 8.44127   1
  -7  -1   6 239.192 7.50755  12
   7  -1  -6 235.590 9.87613  13
   7  -1  -6 240.220 7.72152   6
  -7  -1   6 227.717 7.68326   1
   7  -1  -6 230.048 7.28576  11
   7   1  -6 239.134 7.22053   4
  -7   1   6 233.607 8.10093   9
  -7   1   6 222.059 7.22432   3
   7   1  -6 231.216 9.72810  13
   7   1  -6 240.963 8.59396   1
  -7   1   6 216.106 7.32348   1
   7   1  -6 233.737 7.37374  11
   7   1  -6 239.449 7.67917   6
  -7   1   6 237.644 7.30168  12
  -5  -1   6 34.7291 2.23046   6
   5  -1  -6 30.7099 2.10625   6
  -5  -1   6 39.5122 2.50805  12
   5  -1  -6 30.0262 2.49184   1
  -5  -1   6 32.9616 3.48164  10
   5  -1  -6 29.4895 1.97936  14
  -5  -1   6 30.0686 2.41557   1
   5  -1  -6 31.1347 3.15359  13
  -5  -1   6 33.5296 2.47086   9
  -5   1   6 32.4858 2.59007   1
  -5   1   6 33.2522 3.56574  10
   5   1  -6 35.0284 3.50960  13
   5   1  -6 35.8532 2.76080   1
   5   1  -6 32.4184 2.01564  14
  -5   1   6 34.8280 2.29461  12
  -5   1   6 31.1418 2.47520   9
   5   1  -6 32.9113 2.44134   4
  -5   1   6 30.4731 1.94679   3
   5   1  -6 34.3348 1.90447  11
  -5   1   6 28.8350 2.19193   6
  -3  -1   6 957.977 22.6497  10
   3  -1  -6 964.080 20.2419   1
   3  -1  -6 937.948 19.3383   2
  -3  -1   6 953.815 19.4585   6
  -3  -1   6 974.380 19.8642  12
   3  -1  -6 959.929 19.9691  14
   3  -1  -6 945.600 21.6723  13
  -3  -1   6 922.129 20.1331   1
  -3  -1   6 945.064 19.8197   9
   3   1  -6 961.316 19.8736   2
  -3   1   6 946.947 20.4193   9
  -3   1   6 971.056 23.0085  10
   3   1  -6 954.562 19.8891   4
   3   1  -6 953.113 20.0451  14
  -3   1   6 957.817 19.5228   6
   3   1  -6 946.630 21.9288  13
  -3   1   6 955.958 19.7058  12
   3   1  -6 972.475 19.9179   1
  -3   1   6 951.898 20.3996   1
   1  -1  -6 27.9169 2.10794   4
   1  -1  -6 27.6076 2.32803  14
   1  -1  -6 28.0043 1.80098   1
   1  -1  -6 31.0002 2.07313   7
  -1  -1   6 30.3868 1.93081   6
  -1  -1   6 29.5269 2.15564   1
   1  -1  -6 32.0702 2.76805  13
  -1  -1   6 30.1582 2.38276  12
   1  -1  -6 31.7372 2.46493   2
  -1  -1   6 33.9434 3.45230  10
  -1  -1   6 29.3758 2.31595   9
   1  -1  -6 30.1144 2.37202   8
   1   1  -6 31.3504 2.36108   7
  -1   1   6 28.2477 2.01397   6
  -1   1   6 32.1552 2.39606  12
  -1   1   6 30.3913 2.41905   9
  -1   1   6 29.4444 2.38212   1
   1   1  -6 31.3688 2.37246   2
   1   1  -6 31.1595 2.15429   4
   1   1  -6 29.8461 2.48375  14
  -1   1   6 29.2842 3.42145  10
  -1  -1  -6 199.373 6.65378  14
  -1  -1  -6 202.171 7.15703   8
   1  -1   6 190.321 6.89914   9
  -1  -1  -6 205.012 7.17674   2
   1  -1   6 199.310 5.34619   6
  -1  -1  -6 198.249 5.93488   4
   1  -1   6 195.499 8.76130  10
   1  -1   6 193.448 5.77405   1
  -1   1  -6 210.082 7.17656   2
   1   1   6 194.559 5.90295   6
  -1   1  -6 207.112 6.96895  14
  -1   1  -6 207.159 7.18671   8
  -1   1  -6 192.715 6.11941   4
   1   1   6 192.660 8.91730  10
  -1   1  -6 184.890 6.00910   7
   1   1   6 199.225 6.39860   1
   1   1   6 193.031 7.20078   9
   3  -1   6 214.499 6.10890   1
  -3  -1  -6 213.585 7.93170   2
   3  -1   6 221.980 8.57422   9
   3  -1   6 216.867 5.83843   6
   3  -1   6 215.402 10.4766  10
  -3  -1  -6 230.733 7.65236  14
  -3  -1  -6 217.012 8.27807   8
  -3   1  -6 220.623 9.06788   5
   3   1   6 213.373 6.95159   1
  -3   1  -6 218.463 7.62147  14
   3   1   6 216.023 8.73042   9
  -3   1  -6 220.131 8.37154   8
   3   1   6 220.794 6.72429   6
  -3   1  -6 216.789 6.71754   4
  -3   1  -6 219.342 8.11874   2
   3   1   6 216.623 10.8028  10
  -5  -1  -6 1.54084 1.44847   8
  -5  -1  -6 4.52504 2.17634   2
   5  -1   6 3.45719 1.07491   6
  -5  -1  -6 3.28200 1.45553  14
   5   1   6 3.10738 1.18827   1
   5   1   6 5.29813 2.68563   9
  -5   1  -6 7.06976 2.23329   2
   5   1   6 6.04959 1.58198   6
  -5   1  -6 3.61592 1.47256  14
  -5   1  -6 5.92305 2.25216   5
  -5   1  -6 3.53703 2.05121   8
   7  -1   6 106.651 7.50658   9
  -7  -1  -6 103.388 6.34424   2
   7  -1   6 92.4622 4.22243   6
  -7  -1  -6 92.8575 6.10691   8
  -7   1  -6 93.6388 6.35071   8
   7   1   6 90.8498 4.92198   6
   7   1   6 93.1662 7.02973   9
  -7   1  -6 89.0037 5.77490   2
  -7   1  -6 98.6935 7.68334   5
  12  -2  -6 322.585 11.8015   6
  12  -2  -6 307.443 11.8365   1
 -12  -2   6 305.926 11.9291   5
  12  -2  -6 335.254 12.9340  11
 -12  -2   6 322.056 11.4489   8
 -12   2   6 315.486 12.7220   5
  12   2  -6 338.157 12.9658   1
  12   2  -6 336.063 13.5851  11
  10  -2  -6 589.314 16.8787   1
 -10  -2   6 590.298 15.7952  12
 -10  -2   6 570.912 16.1135   5
  10  -2  -6 536.524 19.1039  13
  10  -2  -6 574.941 16.1076   6
 -10  -2   6 593.786 15.9330   8
  10  -2  -6 574.282 16.5257  11
 -10   2   6 571.993 16.2929   3
 -10   2   6 611.233 15.4716  12
 -10   2   6 596.097 17.1565   5
  10   2  -6 595.554 17.3895   1
  10   2  -6 619.715 17.3932  11
   8  -2  -6 1121.92 25.7402   1
   8  -2  -6 1097.99 28.5669  13
  -8  -2   6 1135.65 24.9196   1
  -8  -2   6 1132.65 24.5075  12
   8  -2  -6 1118.97 24.8372   6
  -8   2   6 1143.08 24.0146  12
   8   2  -6 1188.31 26.6818   1
   8   2  -6 1122.50 27.9975  13
  -8   2   6 1114.86 24.8732   3
   8   2  -6 1116.89 24.8501  11
   6  -2  -6 1840.41 40.1187  13
  -6  -2   6 1828.22 36.3753   9
  -6  -2   6 1888.92 37.1787   1
   6  -2  -6 1835.08 36.6020   6
  -6  -2   6 1876.23 36.3477  12
   6  -2  -6 1900.76 37.8095   1
  -6   2   6 1783.74 35.9518   3
   6   2  -6 1836.05 36.0441   4
   6   2  -6 1807.87 35.6539  11
   6   2  -6 1819.54 39.5406  13
  -6   2   6 1840.57 36.5659   1
  -6   2   6 1892.68 35.9469  12
  -6   2   6 1854.55 37.3153   9
   6   2  -6 1885.72 37.7368   1
   4  -2  -6 1439.71 30.7760  13
  -4  -2   6 1429.84 27.8632   6
  -4  -2   6 1422.39 31.0869  10
   4  -2  -6 1385.19 26.8342   2
  -4  -2   6 1425.36 27.8441   9
   4  -2  -6 1417.75 28.9983   1
   4  -2  -6 1407.45 27.9833  14
  -4  -2   6 1454.53 28.9040   1
  -4  -2   6 1458.51 28.2110  12
   4  -2  -6 1388.31 27.7987   6
   4   2  -6 1400.91 27.9594  14
   4   2  -6 1411.88 26.5494  11
   4   2  -6 1415.15 28.5169   1
   4   2  -6 1428.90 28.2783   4
  -4   2   6 1422.51 31.4924  10
  -4   2   6 1408.05 28.7507   1
  -4   2   6 1346.55 27.0340   3
  -4   2   6 1459.20 27.9638  12
  -4   2   6 1363.64 27.5992   6
  -4   2   6 1411.56 28.9223   9
   2  -2  -6 1327.41 27.3338  13
   2  -2  -6 1319.03 25.9910  14
   2  -2  -6 1298.22 25.8694   1
  -2  -2   6 1290.61 28.4563  10
  -2  -2   6 1258.73 25.2393   9
  -2  -2   6 1288.92 24.9879   6
  -2  -2   6 1266.91 25.7546   1
   2  -2  -6 1258.41 25.4606   2
  -2  -2   6 1251.93 25.5751  12
  -2   2   6 1252.45 26.4210   9
   2   2  -6 1252.85 26.0878   2
   2   2  -6 1290.66 26.7310   7
   2   2  -6 1206.41 24.6348   1
  -2   2   6 1253.46 24.1381   3
   2   2  -6 1280.92 25.7257   4
  -2   2   6 1259.87 26.1986   1
  -2   2   6 1272.73 25.3908  12
  -2   2   6 1279.74 28.9698  10
   2   2  -6 1293.86 26.2602  14
  -2   2   6 1296.62 25.3622   6
   0  -2  -6 584.358 14.2013   8
   0  -2  -6 609.537 14.4574   2
   0  -2   6 602.275 12.5636   6
   0  -2  -6 595.871 14.1508  14
   0  -2   6 591.628 16.8139  10
   0  -2   6 595.287 13.9666   9
   0  -2   6 595.076 13.9375  12
   0  -2  -6 588.739 13.2645   4
   0  -2   6 597.113 13.1725   1
   0   2   6 607.154 13.5920   6
   0   2  -6 580.532 14.0455   7
   0   2   6 573.199 14.1197   1
   0   2  -6 623.562 14.6740  14
   0   2  -6 614.594 14.8092   2
   0   2  -6 610.520 13.8872   4
   0   2   6 599.513 17.4158  10
   0   2   6 608.871 15.0354   9
   2  -2   6 313.870 7.09067   6
  -2  -2  -6 304.374 7.91077   4
   2  -2   6 295.453 11.9148  10
   2  -2   6 317.477 9.71017   9
  -2  -2  -6 315.166 9.81539   2
   2  -2   6 298.401 7.53268   1
  -2  -2  -6 308.102 9.82843   8
  -2  -2  -6 307.174 9.22387  14
   2   2   6 310.879 12.6601  10
  -2   2  -6 304.983 8.61994   4
   2   2   6 311.355 8.71100   6
  -2   2  -6 312.712 9.90257   8
  -2   2  -6 364.665 9.96795  14
   2   2   6 317.482 10.6195   9
  -2   2  -6 320.038 9.99109   2
  -2   2  -6 308.256 8.99531   7
   2   2   6 315.608 9.24376   1
  -4  -2  -6 502.670 14.1939   2
  -4  -2  -6 501.617 14.5821   8
   4  -2   6 505.837 10.6469   6
  -4  -2  -6 502.787 13.3615  14
  -4   2  -6 483.198 13.8935   2
   4   2   6 479.290 12.9080   1
   4   2   6 492.870 12.8193   6
  -4   2  -6 478.735 15.4467   5
  -4   2  -6 507.904 14.5225   8
   4   2   6 542.966 15.9993   9
  -4   2  -6 467.021 13.2179  14
   6  -2   6 209.943 6.10574   6
  -6  -2  -6 217.230 9.52448   8
  -6  -2  -6 207.930 8.94346   2
   6   2   6 209.187 7.90479   6
   6   2   6 196.428 8.92831   1
  -6   2  -6 207.811 10.3644   5
   6   2   6 212.580 10.6336   9
  -6   2  -6 219.210 9.26234   8
  11  -3  -6 95.0631 6.00933   6
 -11  -3   6 95.4646 6.06265   8
  11  -3  -6 90.8006 6.15594   1
  11  -3  -6 86.5442 6.25318  11
  11   3  -6 89.7962 6.41475  11
  11   3  -6 87.4482 6.58667   1
 -11   3   6 96.0411 6.43319   3
 -11   3   6 85.3657 6.10439   5
  -9  -3   6 4.42979 1.69424   5
   9  -3  -6 3.48916 2.71365  13
  -9  -3   6 5.22234 1.76236   8
   9  -3  -6 8.30563 1.98830   1
  -9  -3   6 5.16527 1.56887   1
   9  -3  -6 2.74120 1.70585   6
  -9  -3   6 5.84824 2.04298  12
  -9   3   6 8.05167 2.41035   5
  -9   3   6 5.50333 2.06721   3
   9   3  -6 6.04314 2.44500   1
  -9   3   6 8.08545 1.86278  12
   9   3  -6 5.93964 2.29326  11
  -7  -3   6 43.3609 3.34947  12
   7  -3  -6 39.8735 3.24875   6
   7  -3  -6 45.1420 4.47035  13
   7  -3  -6 42.1129 3.40339   1
  -7  -3   6 42.3287 3.47580   1
   7   3  -6 39.4475 3.12045  11
   7   3  -6 36.2252 2.63190   4
  -7   3   6 39.3206 3.37861   9
   7   3  -6 39.9899 3.75869   1
  -7   3   6 41.5981 2.88702  12
  -7   3   6 36.9237 2.78335   1
  -5  -3   6 323.187 9.35081   1
  -5  -3   6 314.614 8.23573   9
   5  -3  -6 309.008 8.26642  14
  -5  -3   6 310.660 8.60567  12
   5  -3  -6 316.270 10.9489  13
   5  -3  -6 303.240 8.61418   6
   5  -3  -6 323.745 9.69840   1
  -5  -3   6 305.348 8.34774   6
   5   3  -6 314.459 8.00180  11
  -5   3   6 320.717 8.46553   3
   5   3  -6 313.235 8.17982  14
  -5   3   6 318.819 9.04894   1
  -5   3   6 316.050 8.22636  12
   5   3  -6 318.879 8.76368   4
  -5   3   6 308.364 9.35250   9
   5   3  -6 298.511 9.12107   1
  -5   3   6 313.339 11.2352  10
  -3  -3   6 5.73639 1.00007   9
   3  -3  -6 6.18824 1.47805   1
   3  -3  -6 9.17277 1.44276  14
  -3  -3   6 6.58563 1.73904  10
  -3  -3   6 6.26280 1.38823   1
  -3  -3   6 6.25350 1.34467  12
   3  -3  -6 5.86840 1.06856   2
  -3  -3   6 10.6786 1.45461   6
   3  -3  -6 8.94817 1.96440  13
   3   3  -6 8.60098 1.35838   1
   3   3  -6 6.41313 1.28643   4
   3   3  -6 6.44313 0.90824  11
  -3   3   6 7.81268 1.73535   9
  -3   3   6 8.68888 2.11448  10
  -3   3   6 6.58679 1.45478   1
  -3   3   6 8.49289 1.36432  12
  -3   3   6 6.08089 1.05383   3
  -3   3   6 6.25632 1.11571   6
   3   3  -6 5.78785 1.25284  14
   1  -3  -6 292.473 8.43544   2
   1  -3  -6 311.293 9.02046  13
  -1  -3   6 276.000 7.65100   9
  -1  -3   6 302.689 8.27514  12
  -1  -3   6 306.908 10.2679  10
  -1  -3   6 304.612 7.52028   6
   1  -3  -6 290.083 8.18141   8
   1  -3  -6 294.015 8.28112   1
  -1  -3   6 291.911 7.91729   1
   1  -3  -6 287.309 8.49802  14
   1   3  -6 298.846 8.45798   4
  -1   3   6 309.352 9.34721   9
  -1   3   6 293.445 8.12224   6
  -1   3   6 299.867 8.92869   1
   1   3  -6 310.996 9.15131   2
   1   3  -6 308.978 9.16096   7
   1   3  -6 306.987 9.03909  14
  -1   3   6 309.214 11.0937  10
  -1   3   6 311.290 8.23729  12
  -1  -3  -6 40.3775 3.00525   2
   1  -3   6 38.9062 2.16191   1
   1  -3   6 35.1923 2.71301   9
   1  -3   6 53.2058 4.52424  10
  -1  -3  -6 48.3231 2.60620   4
   1  -3   6 39.0641 2.91912  12
   1  -3   6 42.4743 1.95991   6
  -1  -3  -6 37.9127 3.00535  14
  -1  -3  -6 37.3914 3.05882   8
   1   3   6 38.3958 3.10899   1
  -1   3  -6 41.8894 2.97366   4
  -1   3  -6 36.7467 3.05263   2
   1   3   6 37.9419 4.39591  10
  -1   3  -6 44.7291 3.38560  14
   1   3   6 39.5826 2.83506   6
  -1   3  -6 37.9478 2.84309   7
   1   3   6 38.1691 3.64902   9
  -3  -3  -6 3.01250 1.68331   2
   3  -3   6 0.40195 1.26696   9
   3  -3   6 0.44429 1.63788  10
  -3  -3  -6 2.59616 1.43133   8
   3  -3   6 1.86314 0.54612   6
  -3  -3  -6 0.86026 1.27195  14
   3   3   6 5.26232 1.56505   6
  -3   3  -6 0.12391 1.20400  14
   3   3   6 -0.2300 1.06557   1
  -3   3  -6 -0.4662 0.86184   8
   3   3   6 0.58903 1.84710   9
  -3   3  -6 0.70768 1.10611   4
  -3   3  -6 8.76363 2.25668   5
  -3   3  -6 1.27926 1.51543   2
  -5  -3  -6 80.3025 5.72050   8
  -5  -3  -6 80.2440 5.49312   2
  -5  -3  -6 76.3858 4.60659  14
   5  -3   6 70.5553 2.60360   6
  -5   3  -6 73.0767 6.13323   5
   5   3   6 71.0038 4.62823   6
   5   3   6 77.6803 4.77396   1
  -5   3  -6 71.4940 4.65844  14
   5   3   6 74.9421 6.39365   9
  -5   3  -6 76.6004 5.10265   2
  -5   3  -6 70.4975 5.17979   8
  -7  -3  -6 12.8209 3.30605   8
   7  -3   6 13.5456 1.53843   6
   7  -3   6 14.5952 3.31066   9
  -7  -3  -6 9.84568 2.94784   2
   7   3   6 13.4233 3.27929   9
   7   3   6 12.5235 2.49202   6
  -7   3  -6 15.4078 2.84901   8
  -7   3  -6 13.3063 3.21555   5
  12  -4  -6 561.274 16.5186   6
  12  -4  -6 536.288 16.4715   1
  12  -4  -6 559.320 17.2004  11
 -12  -4   6 548.593 16.4205   8
 -12   4   6 543.670 17.8339   5
  12   4  -6 565.417 18.2642   1
 -12   4   6 554.719 17.2806   3
  12   4  -6 579.876 19.0006  11
  10  -4  -6 31.9749 5.52837  13
 -10  -4   6 36.4467 4.08440  12
 -10  -4   6 46.1894 4.65987   8
  10  -4  -6 34.4911 4.08531   1
  10  -4  -6 35.2488 3.88290   6
  10   4  -6 38.7727 4.96760  11
 -10   4   6 36.8184 4.54304   5
  10   4  -6 36.2993 4.71205   1
 -10   4   6 38.6660 4.43312   3
   8  -4  -6 773.816 19.1083   6
  -8  -4   6 779.590 19.5987   1
   8  -4  -6 828.328 20.2098   1
  -8  -4   6 796.154 18.8443  12
   8  -4  -6 787.834 23.4193  13
  -8   4   6 804.580 19.6179   3
   8   4  -6 808.222 19.5918  11
   8   4  -6 790.593 20.5875   1
  -8   4   6 794.337 17.8096  12
  -6  -4   6 77.7961 4.04640  12
   6  -4  -6 82.3965 5.93822  13
  -6  -4   6 75.1978 4.33890   1
  -6   4   6 68.0410 4.39887   9
   6   4  -6 75.2339 5.40517   7
   6   4  -6 94.6534 4.16536   4
   6   4  -6 74.0252 3.83046  11
  -6   4   6 79.2703 3.59586  12
  -6   4   6 70.8953 3.99475   3
   6   4  -6 81.7256 4.55560   1
  -6   4   6 69.8227 3.76909   1
   4  -4  -6 1906.95 37.2151  14
   4  -4  -6 1930.59 38.3073   1
  -4  -4   6 1847.92 39.2036  10
   4  -4  -6 1831.64 36.8514   6
  -4  -4   6 1914.73 36.8895   6
  -4  -4   6 1885.50 36.8622  12
  -4  -4   6 1938.49 37.9627   1
   4  -4  -6 1939.32 40.1473  13
   4   4  -6 1889.85 39.4796   7
  -4   4   6 1946.52 38.2601   9
   4   4  -6 1844.69 37.1327   1
  -4   4   6 1884.96 36.1562  12
  -4   4   6 1935.12 37.8326   1
   4   4  -6 1847.04 37.1346  14
   4   4  -6 1932.11 35.9825  11
  -4   4   6 1907.58 36.7133   3
  -4   4   6 1915.38 40.6726  10
   4   4  -6 1902.37 37.3902   4
  -2  -4   6 512.223 11.8945   6
  -2  -4   6 522.293 14.1431  10
   2  -4  -6 518.506 12.3037   2
  -2  -4   6 522.189 12.3202  12
   2  -4  -6 525.277 12.9410  14
   2  -4  -6 500.334 12.9887   1
   2  -4  -6 547.256 13.9886  13
  -2  -4   6 518.115 12.5472   1
  -2   4   6 510.390 11.9882   3
   2   4  -6 522.283 13.2658  14
  -2   4   6 521.308 15.3878  10
  -2   4   6 535.950 13.5263   1
   2   4  -6 534.512 14.0495   7
   2   4  -6 527.353 12.9455   4
  -2   4   6 509.291 11.9161  12
  -2   4   6 523.333 13.5129   9
  -2   4   6 520.700 12.3795   6
   0  -4  -6 2857.98 54.5928  14
   0  -4   6 2867.31 52.3980   6
   0  -4  -6 2866.73 54.7564   2
   0  -4  -6 2804.32 54.2002   8
   0  -4  -6 2778.06 53.9525   1
   0  -4   6 2726.03 56.6943  10
   0  -4   6 2854.79 52.9446   1
   0  -4   6 2820.56 53.8804  12
   0   4   6 2929.81 55.9816   9
   0   4  -6 2861.18 54.5486   4
   0   4  -6 2879.30 55.5776   2
   0   4  -6 2927.31 55.8119   7
   0   4   6 2849.86 55.2646   1
   0   4  -6 2852.04 55.3770  14
   0   4   6 2958.13 59.4374  10
   0   4   6 2845.45 54.1815   6
   2  -4   6 355.074 13.0182  10
  -2  -4  -6 377.080 10.8650  14
   2  -4   6 378.307 8.03417   6
  -2  -4  -6 381.432 11.3309   2
   2  -4   6 376.759 11.5498   9
  -2  -4  -6 377.081 11.3859   8
   2  -4   6 370.480 10.5139  12
   2   4   6 367.911 11.2545   1
  -2   4  -6 367.741 11.4284   7
   2   4   6 377.036 14.4495  10
  -2   4  -6 377.334 11.6500   2
  -2   4  -6 393.392 11.5456  14
  -2   4  -6 393.008 10.8404   4
  -2   4  -6 393.546 12.6100   5
   2   4   6 383.813 10.8550   6
  -4  -4  -6 1392.61 29.5256  14
   4  -4   6 1351.08 24.9131   6
  -4  -4  -6 1346.19 30.7116   8
  -4  -4  -6 1374.18 30.5097   2
   4  -4   6 1321.31 30.1279   9
  -4   4  -6 1368.13 30.4601   2
  -4   4  -6 1348.90 28.8840   4
   4   4   6 1406.36 30.5933   1
  -4   4  -6 1387.46 30.5698   8
  -4   4  -6 1358.87 29.9904  14
  -4   4  -6 1385.97 32.6264   5
   4   4   6 1405.16 30.0093   6
   4   4   6 1353.36 32.7061   9
  -6  -4  -6 46.2536 5.23780   8
   6  -4   6 43.7131 1.90092   6
  -6  -4  -6 55.2931 5.58898   2
   6   4   6 45.6103 4.15974   1
   6   4   6 41.1792 4.19427   6
  -6   4  -6 46.0623 4.09854   8
   6   4   6 44.8067 5.75091   9
  -6   4  -6 51.7277 5.88020   5
  11  -5  -6 71.5634 5.36844   6
  11  -5  -6 79.9810 5.70764   1
 -11  -5   6 80.6534 5.63452   8
 -11   5   6 76.6274 6.50598   5
  11   5  -6 85.9936 7.06023  11
  11   5  -6 82.3838 6.86924   1
   9  -5  -6 1.88439 1.68553   6
  -9  -5   6 2.23422 2.02778   8
  -9  -5   6 2.67476 1.49296   1
  -9  -5   6 4.48294 2.00559  12
   9  -5  -6 0.63225 2.49112  13
   9  -5  -6 3.45809 1.63138   1
   9   5  -6 2.72006 2.50173   7
   9   5  -6 2.11712 2.25240   1
   9   5  -6 3.89916 2.43748  11
  -9   5   6 7.03862 2.19374   5
  -9   5   6 3.69883 1.99021   3
  -7  -5   6 5.13715 1.68884   1
  -7  -5   6 6.99886 1.59922  12
   7  -5  -6 9.18051 1.83016   6
   7  -5  -6 17.1351 3.72560  13
   7  -5  -6 7.17693 2.17388   1
  -7   5   6 3.95142 1.70348   3
  -7   5   6 5.97142 1.97982   9
   7   5  -6 4.54302 1.55720  11
   7   5  -6 9.23984 2.23853   1
   7   5  -6 9.40686 2.53734   7
  -7   5   6 5.92257 1.37051  12
   5  -5  -6 95.3540 4.95231   1
  -5  -5   6 86.5466 4.08160   6
   5  -5  -6 94.7339 4.41343  14
   5  -5  -6 88.3895 4.36192   6
  -5  -5   6 87.8848 4.20767  12
  -5  -5   6 87.2680 4.63717   1
   5  -5  -6 91.9333 5.85977  13
   5   5  -6 87.0740 5.73174   7
  -5   5   6 98.2919 4.42276   3
   5   5  -6 91.3614 4.67413   1
   5   5  -6 90.1819 4.02191  11
  -5   5   6 84.8466 4.62779   9
  -5   5   6 87.3802 5.56397  10
  -5   5   6 86.5564 4.40668   1
  -5   5   6 92.1799 3.65527  12
   5   5  -6 96.1754 4.38000   4
  -3  -5   6 38.7947 3.03989   1
   3  -5  -6 39.6670 3.31147   1
   3  -5  -6 39.5581 3.69859  13
   3  -5  -6 30.6720 2.07499   2
  -3  -5   6 34.6849 2.50953  12
  -3  -5   6 37.9771 2.66075   6
   3  -5  -6 30.5901 2.82003  14
  -3  -5   6 32.3440 2.91530  10
  -3   5   6 36.9241 3.73850  10
   3   5  -6 41.5287 3.78492   7
  -3   5   6 34.7370 2.82448   1
  -3   5   6 47.3941 2.90646   3
  -3   5   6 34.3842 2.95796   9
   3   5  -6 37.1655 2.22767  11
   3   5  -6 35.7116 3.04282   4
  -3   5   6 38.2540 2.30631  12
   3   5  -6 33.9837 2.91789  14
  -1  -5   6 104.074 4.35826  12
   1  -5  -6 116.800 5.23562  13
   1  -5  -6 110.814 4.78948   2
   1  -5  -6 111.492 5.07115  14
   1  -5  -6 102.376 4.19445   8
  -1  -5   6 96.2952 5.64339  10
  -1  -5   6 103.404 3.97760   6
   1  -5  -6 105.365 4.93917   1
  -1  -5   6 104.063 4.32824   1
  -1   5   6 100.730 5.22281   1
   1   5  -6 104.948 4.87929   4
   1   5  -6 111.899 5.76856   7
  -1   5   6 107.446 4.60389   6
  -1   5   6 104.907 6.23545  10
  -1   5   6 111.434 4.24285  12
   1   5  -6 103.654 5.24344  14
  -1   5   6 109.822 5.57536   9
  -1  -5  -6 19.4640 2.64960  14
  -1  -5  -6 13.7289 2.19019   8
   1  -5   6 16.5301 1.59184   1
  -1  -5  -6 18.3389 2.76856   2
   1  -5   6 24.9035 1.72323   6
   1  -5   6 16.6267 2.17038  12
  -1   5  -6 15.1504 2.40698  14
  -1   5  -6 18.2346 2.46139   4
   1   5   6 15.0482 3.22013  10
   1   5   6 15.3933 2.60988   1
  -1   5  -6 13.4807 2.32225   2
  -1   5  -6 17.9074 2.71458   7
   1   5   6 16.6662 2.23740   6
   1   5   6 10.0257 2.52529   9
   3  -5   6 20.3141 1.21509   6
  -3  -5  -6 16.1473 2.92890   2
  -3  -5  -6 17.0125 2.91708   8
   3  -5   6 15.2828 2.31736  12
  -3  -5  -6 14.0810 2.48096  14
   3   5   6 14.3075 3.25284   9
  -3   5  -6 18.5929 3.04359   2
  -3   5  -6 15.3204 2.88693   7
  -3   5  -6 10.9277 2.89153   5
   3   5   6 12.9928 2.73956   1
  -3   5  -6 19.4167 3.03210  14
   3   5   6 14.1076 2.47526   6
  -3   5  -6 12.6120 2.36832   4
  -5  -5  -6 99.2467 5.51641  14
  -5  -5  -6 99.8627 6.13692   8
  -5  -5  -6 104.640 6.37813   2
   5   5   6 107.658 7.33099   9
   5   5   6 107.345 6.36570   1
  -5   5  -6 101.192 5.95884   2
   5   5   6 101.775 5.86789   6
  -5   5  -6 110.700 6.07172  14
  -5   5  -6 97.7136 7.14817   5
  10  -6  -6 1053.23 25.1105   1
  10  -6  -6 1002.24 24.5375   6
 -10  -6   6 1029.05 25.2536   8
  10   6  -6 957.327 27.3779   7
 -10   6   6 1031.84 26.1070   5
 -10   6   6 992.134 25.1662   3
  10   6  -6 1025.98 26.8927   1
  10   6  -6 988.356 26.0231  11
  -8  -6   6 190.268 7.54139  12
   8  -6  -6 175.591 7.48159   6
  -8  -6   6 200.396 8.45005   1
   8  -6  -6 180.924 7.90973   1
   8  -6  -6 168.346 10.1763  13
   8   6  -6 189.553 8.82525   1
  -8   6   6 174.420 7.76857   3
   8   6  -6 176.508 9.44238   7
  -8   6   6 183.899 8.21195   5
   8   6  -6 168.909 7.74835  11
   6  -6  -6 2141.55 47.5528  13
   6  -6  -6 2129.70 42.6972   6
   6  -6  -6 2111.39 43.7673   1
  -6  -6   6 2088.19 41.7732  12
  -6  -6   6 2193.23 44.0474   1
  -6   6   6 2112.07 43.4850   9
   6   6  -6 2001.33 41.5688   4
   6   6  -6 2196.79 46.0314   7
  -6   6   6 2131.65 42.9745   3
   6   6  -6 2165.86 42.4338  11
   6   6  -6 2134.56 43.5674   1
   4  -6  -6 196.137 8.80883  13
  -4  -6   6 185.212 6.59511   6
   4  -6  -6 176.222 6.54695   6
   4  -6  -6 193.620 7.57914   1
  -4  -6   6 178.999 6.09587  12
  -4  -6   6 193.292 7.44365   1
  -4   6   6 188.525 8.50731  10
  -4   6   6 191.006 6.83438   3
   4   6  -6 191.588 8.30614   7
   4   6  -6 191.098 6.30404  11
  -4   6   6 186.520 7.05224   1
   4   6  -6 199.284 7.13300   4
  -4   6   6 192.478 7.48529   9
  -2  -6   6 1831.72 35.8990   1
  -2  -6   6 1701.90 34.5591  12
   2  -6  -6 1832.04 36.9858   1
   2  -6  -6 1719.81 35.0651   2
  -2  -6   6 1755.86 34.9488   6
   2  -6  -6 1829.13 37.5176  13
   2   6  -6 1849.43 36.7267   4
  -2   6   6 1765.49 36.9235   1
  -2   6   6 1766.70 39.1105  10
   2   6  -6 1813.20 38.2985   7
   2   6  -6 1742.47 36.8686  14
  -2   6   6 1812.87 37.0434   9
  -2   6   6 1757.59 35.6958   3
  -2   6   6 1764.19 34.2368  12
   0  -6  -6 34.1670 3.08410   1
   0  -6  -6 34.0245 2.91772   2
   0  -6  -6 38.5299 2.80384   8
   0  -6   6 35.4426 2.46674   1
   0  -6   6 32.5765 2.56272  12
   0  -6   6 41.6662 2.46726   6
   0  -6  -6 38.8258 3.17682  14
   0   6   6 32.1814 2.96527   6
   0   6   6 28.4283 2.28278  12
   0   6   6 31.3095 4.05304  10
   0   6  -6 36.4828 3.14887   4
   0   6  -6 50.5826 4.40638   7
   0   6   6 33.4869 3.26457   1
   0   6   6 39.2642 3.89673   9
   0   6  -6 35.9685 3.89882  14
  -2  -6  -6 918.935 21.8325   2
   2  -6   6 881.697 18.0167   6
  -2  -6  -6 927.269 21.4247  14
  -2  -6  -6 878.378 21.3038   8
   2   6   6 928.089 23.4317   9
   2   6   6 886.375 21.4497   6
   2   6   6 912.570 22.7462   1
  -2   6  -6 904.608 21.3946   4
  -2   6  -6 925.582 22.3821  14
  -2   6  -6 900.885 22.9817   7
   4  -6   6 30.6840 1.50772   6
  -4  -6  -6 33.6040 4.26727   2
  -4  -6  -6 31.8996 4.00175   8
  -4  -6  -6 27.6717 3.45418  14
   4   6   6 33.1605 3.84030   6
  -4   6  -6 28.3987 3.40919   4
  -4   6  -6 32.0647 3.71326  14
  -4   6  -6 30.1486 3.94646   7
   4   6   6 28.0851 4.68368   9
   4   6   6 32.6501 4.25607   1
  -4   6  -6 36.9011 4.84977   5
  -6  -6  -6 545.826 16.7669   2
   6   6   6 562.455 17.0883   1
   6   6   6 554.145 19.2605   9
  -6   6  -6 559.358 18.5709   5
  -9  -7   6 74.4348 5.82514   1
   9  -7  -6 69.6153 5.15662   6
  -9  -7   6 74.4820 5.74080   8
   9  -7  -6 71.3778 5.14303   1
  -9   7   6 79.4975 6.04350   5
  -9   7   6 69.3596 5.21426   3
   9   7  -6 77.0783 6.12094  11
   9   7  -6 83.8194 6.58061   1
   9   7  -6 72.3801 6.15635   7
  -7  -7   6 166.295 7.95730   1
   7  -7  -6 161.721 7.15717   6
   7  -7  -6 152.745 9.73207  13
   7  -7  -6 166.107 7.79096   1
  -7  -7   6 160.305 6.61170  12
   7   7  -6 163.725 7.29004  11
   7   7  -6 165.386 7.95843   1
  -7   7   6 162.857 7.25976   3
   7   7  -6 159.935 8.78937   7
  -7   7   6 164.153 7.62923   9
  -7   7   6 164.538 7.40440   5
  -5  -7   6 404.951 11.4488   6
  -5  -7   6 392.255 10.6915  12
   5  -7  -6 411.479 14.5953  13
   5  -7  -6 404.686 11.6734   6
   5  -7  -6 408.428 12.7293   1
  -5  -7   6 411.775 12.5974   1
   5   7  -6 400.576 13.7271   7
  -5   7   6 411.928 11.8742   3
   5   7  -6 373.113 11.1465   4
   5   7  -6 390.582 11.1708  11
  -5   7   6 394.939 12.2347   9
  -3  -7   6 100.782 5.31835   1
   3  -7  -6 111.622 5.77316   1
   3  -7  -6 98.6372 6.13147  13
  -3  -7   6 103.412 4.88856   6
  -3   7   6 98.8870 6.08265  10
  -3   7   6 103.141 5.20228   3
  -3   7   6 106.269 5.53943   1
   3   7  -6 105.759 4.64082  11
   3   7  -6 104.971 5.49037   4
   3   7  -6 107.415 6.57682   7
  -3   7   6 104.329 5.60570   9
  -1  -7   6 373.115 10.0781   6
   1  -7  -6 377.110 10.8315   2
  -1  -7   6 376.708 10.5216   1
   1  -7  -6 381.531 11.7482   1
  -1   7   6 381.523 12.0127   9
   1   7  -6 383.147 12.9639   7
   1   7  -6 382.170 12.2517  14
  -1   7   6 371.652 11.2469   3
  -1   7   6 362.840 13.1155  10
   1   7  -6 385.327 11.7768   4
  -1   7   6 385.158 12.1384   1
  -1  -7  -6 126.510 6.32391  14
   1  -7   6 115.491 4.44073   6
  -1  -7  -6 123.565 6.04357   2
   1   7   6 141.352 7.25964   1
   1   7   6 123.543 6.96075   9
  -1   7  -6 126.848 6.44266   4
  -1   7  -6 132.529 7.01403  14
  -1   7  -6 118.817 7.11705   7
   1   7   6 117.821 7.76869  10
   3  -7   6 39.1232 2.16030   6
  -3  -7  -6 37.0686 4.40693   2
  -3  -7  -6 38.4689 4.09710   8
  -3  -7  -6 35.3280 3.93379  14
   3   7   6 44.5678 4.95829   1
   3   7   6 38.4302 4.10781   6
   3   7   6 34.9348 4.67759   9
  -3   7  -6 44.3998 4.16322   4
  -3   7  -6 43.7653 4.90638   7
  -3   7  -6 35.9885 4.23961  14
  -5  -7  -6 104.872 6.53994   2
   5  -7   6 100.573 2.98704   6
   5   7   6 100.950 6.52730   6
  -5   7  -6 98.9042 7.49265   5
  -5   7  -6 101.993 5.98388   4
   5   7   6 106.931 8.05118   9
   5   7   6 101.923 6.96965   1
  10  -8  -6 230.787 9.50087   6
 -10   8   6 207.735 9.86121   5
  10   8  -6 217.526 10.9661   1
  10   8  -6 211.386 10.4682  11
 -10   8   6 211.583 9.81351   3
   8  -8  -6 213.124 8.78240   6
   8  -8  -6 198.716 8.95018   1
  -8  -8   6 198.408 8.62644   8
  -8  -8   6 193.695 9.28294   1
   8   8  -6 195.520 10.3638   7
  -8   8   6 189.193 8.49316   5
   8   8  -6 199.942 9.28559   1
   8   8  -6 189.124 8.71810  11
  -8   8   6 199.696 9.00906   3
   6  -8  -6 329.652 14.1408  13
  -6  -8   6 328.738 11.7047   1
   6  -8  -6 326.296 11.5114   1
   6  -8  -6 319.106 10.6427   6
  -6   8   6 308.738 10.8638   9
   6   8  -6 308.661 12.6556   7
  -6   8   6 309.333 10.7075   3
  -6   8   6 295.609 10.1203   5
   6   8  -6 322.904 10.5877  11
   4  -8  -6 434.656 13.7352   1
  -4  -8   6 446.370 13.4335   1
   4  -8  -6 442.876 15.2884  13
  -4  -8   6 451.495 12.5731   6
  -4   8   6 436.606 12.7277   3
  -4   8   6 431.020 12.6802   1
   4   8  -6 434.148 12.1385  11
  -4   8   6 449.937 13.2911   9
   4   8  -6 428.305 12.6697   4
   4   8  -6 443.353 15.0671   7
   2  -8  -6 605.107 16.9949  13
  -2  -8   6 608.661 15.2127   6
  -2  -8   6 607.465 15.7529   1
   2  -8  -6 616.878 16.8919   1
  -2   8   6 616.639 16.5780   9
   2   8  -6 618.693 18.4926   7
   2   8  -6 595.922 16.4205   4
  -2   8   6 595.265 16.5476   1
  -2   8   6 605.773 16.0875   3
   0  -8   6 639.286 15.3469   1
   0  -8  -6 632.534 17.1927   1
   0  -8   6 636.482 15.0622   6
   0  -8  -6 639.022 16.6218   2
   0   8  -6 643.132 19.1006   7
   0   8   6 642.758 17.9339   1
   0   8   6 631.370 17.5612   9
   0   8  -6 642.080 17.4552   4
   0   8   6 610.771 16.9245   3
  -2  -8  -6 571.928 16.3001  14
  -2  -8  -6 593.351 16.7322   2
   2  -8   6 588.401 13.6486   6
   2   8   6 609.085 18.1476   9
  -2   8  -6 618.447 19.0563   7
   2   8   6 598.612 18.2280   1
  -2   8  -6 609.493 17.0015   4
   4  -8   6 327.428 8.06479   6
  -4  -8  -6 325.986 12.0179   2
  -4  -8  -6 329.655 11.2085  14
  -4  -8  -6 349.858 13.1096   8
   4   8   6 322.443 12.9537   1
  -4   8  -6 341.018 11.9219   4
   4   8   6 323.907 13.5676   9
   9  -9  -6 64.3530 5.36002   1
  -9  -9   6 59.6452 5.78399   1
   9  -9  -6 63.3249 5.21522   6
  -9  -9   6 68.3380 5.77121   8
   9   9  -6 54.6816 5.30362   1
   9   9  -6 63.0388 5.87930  11
   7  -9  -6 74.6078 5.38399   1
  -7  -9   6 72.0716 6.02273   1
   7  -9  -6 69.9818 4.82755   6
  -7  -9   6 70.3264 5.05351   8
   7   9  -6 65.5920 5.34185  11
  -7   9   6 69.2724 5.01255   9
   7   9  -6 73.5770 6.64754   7
  -7   9   6 69.3223 5.16776   3
   5  -9  -6 45.7709 4.91354   1
  -5  -9   6 31.3063 3.95495   6
   5  -9  -6 40.8260 5.72801  13
  -5  -9   6 43.8612 4.54900   1
  -5   9   6 34.1022 3.86310   9
   5   9  -6 39.5235 3.82193  11
   5   9  -6 39.9351 3.99390   4
   5   9  -6 38.1332 4.93029   7
  -5   9   6 40.0056 3.78490   3
   3  -9  -6 165.301 8.67715  13
  -3  -9   6 147.602 7.29859   1
   3  -9  -6 152.026 7.62926   1
  -3  -9   6 153.853 6.67468   6
  -3   9   6 155.837 7.30503   9
   3   9  -6 159.563 7.33494   4
   3   9  -6 164.325 9.15543   7
  -3   9   6 150.519 7.18014   1
  -3   9   6 160.928 7.23879   3
  -1  -9   6 30.5971 3.17559   6
  -1  -9   6 20.2219 2.73719   1
   1  -9  -6 21.5558 3.23679   1
  -1   9   6 19.8591 3.34563   3
   1   9  -6 24.3275 3.98127   7
  -1   9   6 22.1147 3.32064   1
   1   9  -6 18.0041 3.14953   4
  -1   9   6 20.0639 3.26968   9
  -1  -9  -6 63.9528 5.33581  14
  -1  -9  -6 60.2761 4.83748   2
   1  -9   6 58.1186 3.62030   6
  -1   9  -6 62.3625 6.24681   7
   1   9   6 56.5641 5.37061   9
  -1   9  -6 62.6235 4.96927   4
   1   9   6 45.0521 4.64447   1
  -3  -9  -6 20.6283 3.38251  14
  -3  -9  -6 19.2424 3.50457   2
   3  -9   6 17.1405 2.10784   6
  -3   9  -6 21.9709 3.98601   7
   3   9   6 22.6434 4.19683   1
   3   9   6 20.3911 4.28293   9
  -3   9  -6 22.0049 3.60196   4
  -8 -10   6 1084.04 27.6476   1
   8 -10  -6 1060.32 26.0199   6
   8  10  -6 1070.06 26.6790  11
  -8  10   6 1028.59 26.5807   3
   6 -10  -6 15.3168 3.00905   1
  -6 -10   6 12.5191 3.24703   1
  -6 -10   6 11.7425 2.81742   8
  -6  10   6 14.5647 3.23079   3
   6  10  -6 17.1489 3.34927  11
  -6  10   6 12.7953 2.48878   9
   6  10  -6 10.0387 3.10950   7
  -4 -10   6 1478.43 32.6813   6
   4 -10  -6 1546.51 35.0953   1
   4 -10  -6 1482.03 36.8674  13
  -4 -10   6 1489.08 34.0909   1
  -4  10   6 1495.46 33.0099   9
   4  10  -6 1498.61 37.0338   7
   4  10  -6 1436.87 32.8210   4
  -4  10   6 1510.55 33.6868   3
   4  10  -6 1458.88 32.3541  11
  -2 -10   6 2.60432 1.71861   1
   2 -10  -6 7.79184 2.73763   1
  -2 -10   6 5.99627 1.98724   6
  -2  10   6 3.88324 2.19065   1
  -2  10   6 5.62539 2.49353   3
   2  10  -6 5.28590 2.35561   7
  -2  10   6 4.72108 2.07772   9
   2  10  -6 6.37933 2.10396   4
   0 -10   6 1086.10 24.8143   1
   0 -10  -6 1079.54 25.9617   2
   0 -10   6 1131.70 24.9366   6
   0 -10  -6 1122.37 27.5032   1
   0  10  -6 1117.63 29.9824   7
   0  10   6 1124.41 28.1455   1
   0  10   6 1076.81 27.1032   3
   0  10  -6 1116.96 27.4507   4
   2 -10   6 3.60600 1.56919   6
  -2 -10  -6 6.02876 2.20680   2
  -2 -10  -6 2.93740 2.43810  14
  -2  10  -6 1.87490 2.08413   7
   2  10   6 3.02099 2.62847   1
  -2  10  -6 7.08646 2.46840   4
   7 -11  -6 65.2514 5.72419   1
  -7 -11   6 62.9007 6.24789   1
  -7  11   6 56.9973 6.01861   3
   7  11  -6 56.3156 4.97276  11
   5 -11  -6 53.7285 5.46057   1
  -5 -11   6 52.6655 4.91497   1
   5  11  -6 42.9567 5.69008   7
   5  11  -6 50.4187 4.88130  11
  -5  11   6 45.0143 4.39615   3
   3 -11  -6 141.334 8.20163   1
  -3 -11   6 128.630 7.26351   1
  -3 -11   6 121.193 6.64802   6
   3  11  -6 122.798 6.90821   4
   3  11  -6 126.771 8.99487   7
  -3  11   6 118.560 7.25909   3
   1 -11  -6 51.7639 5.71981   1
  -1 -11   6 51.0750 4.31350   6
  -1 -11   6 56.1686 4.48528   1
  -1  11   6 48.9472 5.35763   3
  -1  11   6 57.5803 5.02259   1
   1  11  -6 55.9793 5.99436   7
   1  11  -6 61.5939 5.65564   4
   1 -11   6 106.129 5.52284   6
  -1 -11  -6 99.6591 6.95145  14
  -1 -11  -6 92.8671 6.00073   2
  -1  11  -6 102.909 8.41951   7
   1  11   6 96.0210 7.29583   1
   1  11   6 93.7077 6.51682   3
  -1  11  -6 95.0083 6.54018   4
  -4 -12   6 221.069 10.2707   1
   4 -12  -6 212.911 10.5921   1
  -4  12   6 210.218 9.96780   3
   2 -12  -6 249.548 11.4152   1
  -2 -12   6 244.150 9.84497   6
  -2 -12   6 261.287 10.3728   1
  -2  12   6 235.352 10.7717   3
   2  12  -6 252.300 10.9904   4
   2  12  -6 266.394 13.3133   7
   0 -12  -6 229.466 10.7692   1
   0 -12   6 231.452 9.04913   6
   0  12  -6 228.872 10.7995   4
   0  12  -6 223.498 12.4846   7
  12   0  -7 3.39850 2.85381  11
 -12   0   7 -0.2308 2.05040   5
 -12   0   7 1.22919 1.99007   8
  12   0  -7 1.20184 2.46490   1
 -10   0   7 5.11655 2.35410   5
  10   0  -7 3.27222 2.65762  13
  10   0  -7 -0.2053 1.83867  11
  10   0  -7 0.28816 1.91156   1
 -10   0   7 0.73727 1.43921   8
 -10   0   7 6.39917 1.79069  12
   8   0  -7 0.12681 0.82156   4
   8   0  -7 2.72108 1.45013  11
   8   0  -7 0.61248 1.56341   1
  -8   0   7 0.30256 1.20616   1
  -8   0   7 1.51856 1.39838  12
  -6   0   7 0.36896 1.43515  10
  -6   0   7 0.94419 0.87546  12
  -6   0   7 0.99195 0.90170   9
   6   0  -7 5.67336 1.40937   4
   6   0  -7 0.75917 0.89907   1
   6   0  -7 0.40696 1.61553  13
  -6   0   7 0.38485 0.78272   1
   4   0  -7 2.05195 1.22388  13
   4   0  -7 0.96279 0.87350  14
  -4   0   7 -0.5004 0.69891   6
   4   0  -7 0.25128 0.54318   2
  -4   0   7 0.77877 1.03243   9
  -4   0   7 0.96108 1.39204  10
  -4   0   7 -0.2771 0.91212   1
  -4   0   7 1.55638 0.80627  12
   4   0  -7 5.08190 1.42096   4
   2   0  -7 -0.3783 0.62243   1
  -2   0   7 -0.8793 0.88089  12
  -2   0   7 -0.0652 0.83840   1
  -2   0   7 -0.8218 0.93588   9
   2   0  -7 -0.2512 0.92519  14
   2   0  -7 -0.3644 0.61269   2
   2   0  -7 0.19065 0.92474   7
  -2   0   7 0.38051 0.85627   6
  -2   0   7 0.76785 1.03908  10
   0   0  -7 0.84220 0.94865   8
   0   0   7 1.11604 1.32581   9
   0   0  -7 0.38589 0.82692  14
   0   0   7 -0.2942 1.10629  10
   0   0  -7 -0.3870 1.12149   2
   0   0   7 2.93551 1.00186   6
   0   0  -7 3.99787 1.09199   4
  -2   0  -7 0.03314 1.25951  14
  -2   0  -7 0.75469 1.14058   2
   2   0   7 2.10865 1.00921   6
   2   0   7 3.87153 1.96355   9
  -2   0  -7 0.41706 1.51300   8
   2   0   7 1.57033 1.17818   1
   2   0   7 1.60109 1.64666  10
  -2   0  -7 0.68127 0.95140   4
   4   0   7 1.54973 1.07247   6
  -4   0  -7 0.88118 1.42572   8
  -4   0  -7 0.56989 1.79301   2
   4   0   7 0.36698 1.53824   9
  -4   0  -7 0.11232 1.30822  14
  -6   0  -7 2.33298 2.24460   8
  -6   0  -7 -1.3675 1.90450   2
   6   0   7 1.46347 1.40622   6
   6   0   7 -1.3902 2.43051   9
 -11  -1   7 217.640 9.22573   5
 -11  -1   7 226.287 8.64987   8
 -11  -1   7 207.877 8.76010  12
  11  -1  -7 219.861 9.71470  11
  11  -1  -7 223.872 9.78609   1
  11   1  -7 236.272 10.4640   1
  11   1  -7 220.986 9.88384  11
 -11   1   7 212.775 8.35401  12
 -11   1   7 209.605 9.55715   5
   9  -1  -7 745.034 22.8139  13
   9  -1  -7 719.657 18.0643   4
   9  -1  -7 753.322 18.8748   6
   9  -1  -7 779.724 20.2002   1
   9  -1  -7 752.563 18.6027  11
  -9  -1   7 761.557 18.3789  12
  -9  -1   7 777.658 18.7562   1
  -9   1   7 762.323 18.1334  12
   9   1  -7 755.279 20.2389   1
  -9   1   7 704.926 18.0441   3
   9   1  -7 766.419 18.7529  11
   9   1  -7 749.790 22.1985  13
   7  -1  -7 344.806 10.9234   1
   7  -1  -7 324.904 8.94383  11
   7  -1  -7 348.872 12.9541  13
  -7  -1   7 344.685 10.4262   1
  -7  -1   7 332.071 10.1162   9
  -7  -1   7 336.660 9.81563  12
  -7   1   7 337.242 10.1544   1
  -7   1   7 341.002 10.5164   9
   7   1  -7 346.956 10.9690   1
  -7   1   7 335.682 9.60417  12
   7   1  -7 335.283 12.4179  13
   7   1  -7 327.489 9.06461  11
   7   1  -7 344.268 9.74205   4
   5  -1  -7 2067.93 43.1583  13
  -5  -1   7 2073.66 40.6869   1
  -5  -1   7 2020.68 39.6380  12
   5  -1  -7 2030.97 39.3141  14
  -5  -1   7 1988.23 39.2583   6
   5  -1  -7 2002.65 40.6895   1
  -5  -1   7 2058.08 40.0403   9
  -5  -1   7 2050.97 43.8039  10
   5   1  -7 2053.53 40.5593   1
  -5   1   7 2017.57 43.9310  10
  -5   1   7 2074.86 39.6279  12
  -5   1   7 1993.21 40.4459   9
   5   1  -7 2033.16 39.8505   4
  -5   1   7 2073.01 40.5979   1
   5   1  -7 2057.03 43.2044  13
  -3  -1   7 411.958 10.6201  12
   3  -1  -7 412.278 12.2512  13
  -3  -1   7 411.334 11.0198   1
  -3  -1   7 396.655 10.5981   9
   3  -1  -7 437.088 10.8589   1
   3  -1  -7 461.048 11.0319  14
   3  -1  -7 405.986 10.6358   4
   3  -1  -7 399.305 10.2756   2
  -3  -1   7 415.890 13.3764  10
  -3  -1   7 420.743 10.3375   6
   3   1  -7 411.456 10.6699   4
  -3   1   7 409.341 10.2842   6
  -3   1   7 403.896 11.1293   9
  -3   1   7 407.683 11.0906   1
  -3   1   7 417.329 10.6014  12
   3   1  -7 396.685 10.1335   1
   3   1  -7 400.971 10.6394   2
   3   1  -7 409.102 10.9317  14
  -3   1   7 399.655 13.4776  10
   3   1  -7 418.776 11.6440   7
   1  -1  -7 2394.27 46.9537  14
  -1  -1   7 2523.63 47.0954  12
  -1  -1   7 2416.65 45.6933   6
  -1  -1   7 2387.52 47.0430   9
   1  -1  -7 2340.82 45.7000   7
   1  -1  -7 2446.32 46.2693   4
  -1  -1   7 2396.03 46.4520   1
   1  -1  -7 2454.05 47.2957   2
  -1  -1   7 2414.64 51.0587  10
  -1   1   7 2411.59 51.4538  10
   1   1  -7 2436.66 46.4521   4
   1   1  -7 2431.08 47.5539   2
  -1   1   7 2449.85 47.0876   1
  -1   1   7 2447.41 47.8318   9
   1   1  -7 2402.30 46.6859   7
   1   1  -7 2501.86 47.5535  14
  -1   1   7 2462.88 46.8599  12
  -1   1   7 2421.16 46.0984   6
   1  -1   7 202.234 6.40477   1
   1  -1   7 208.220 6.11435   6
  -1  -1  -7 202.987 7.26407  14
   1  -1   7 199.844 7.79559   9
  -1  -1  -7 212.212 7.88240   2
  -1  -1  -7 201.490 6.42304   4
   1  -1   7 189.786 9.77933  10
  -1  -1  -7 210.218 7.78209   8
   1   1   7 214.346 8.29472   9
   1   1   7 208.090 6.61323   6
   1   1   7 200.306 10.0908  10
  -1   1  -7 209.405 7.54844  14
  -1   1  -7 215.231 8.01396   2
  -1   1  -7 209.791 7.86283   8
  -1   1  -7 199.211 6.69479   4
   1   1   7 212.378 7.12375   1
   3  -1   7 1118.37 26.9497   9
   3  -1   7 1119.92 23.0356   6
  -3  -1  -7 1123.55 25.2783  14
  -3  -1  -7 1136.21 26.6299   8
  -3  -1  -7 1142.77 26.2847   2
   3   1   7 1149.69 24.1261   6
  -3   1  -7 1143.77 26.5464   8
  -3   1  -7 1152.62 26.3183   2
  -3   1  -7 1112.19 25.3161  14
   3   1   7 1121.20 24.3158   1
   3   1   7 1179.57 27.9508   9
  -5  -1  -7 91.7223 5.26865  14
   5  -1   7 77.1408 6.34094   9
   5  -1   7 95.6050 4.23896   6
  -5  -1  -7 86.3915 5.56697   2
  -5  -1  -7 84.6225 5.73738   8
   5   1   7 86.3864 4.81997   6
   5   1   7 101.569 7.34977   9
  -5   1  -7 97.7845 6.06412   2
  -5   1  -7 94.5346 5.33364  14
  -5   1  -7 93.5721 6.31066   8
  12  -2  -7 122.034 7.63742  11
 -12  -2   7 129.474 7.40127   5
 -12  -2   7 120.267 6.53637   8
  12  -2  -7 130.125 7.80798   1
 -12   2   7 124.412 7.89915   5
  12   2  -7 127.046 8.06003   1
  12   2  -7 121.951 8.02885  11
  10  -2  -7 217.073 11.6846  13
  10  -2  -7 214.093 8.72731   6
 -10  -2   7 215.060 8.44868   8
  10  -2  -7 212.239 9.25226   1
 -10  -2   7 218.505 8.89336   5
  10  -2  -7 228.381 9.12983  11
 -10  -2   7 244.479 9.07579  12
  10   2  -7 230.288 9.40054  11
 -10   2   7 208.615 7.99917  12
 -10   2   7 220.565 9.53231   5
 -10   2   7 205.366 8.59844   3
  10   2  -7 242.205 10.2238   1
   8  -2  -7 298.713 9.69282   6
   8  -2  -7 305.831 10.6059   1
   8  -2  -7 308.740 9.34618  11
  -8  -2   7 311.875 9.71877  12
  -8  -2   7 311.014 10.0573   1
   8  -2  -7 288.026 12.3956  13
   8   2  -7 312.812 10.9393   1
  -8   2   7 296.261 9.03262  12
  -8   2   7 301.453 10.3899   9
  -8   2   7 288.721 9.26419   3
   8   2  -7 304.658 9.43910  11
  -8   2   7 282.292 9.11738   1
   8   2  -7 300.408 12.2116  13
  -6  -2   7 628.871 15.1551   9
  -6  -2   7 650.460 15.2419  12
   6  -2  -7 621.486 18.1381  13
  -6  -2   7 643.019 15.9606   1
   6  -2  -7 640.776 16.3975   1
  -6   2   7 671.791 16.0174   1
   6   2  -7 647.401 15.1720   4
   6   2  -7 642.519 16.2017   1
   6   2  -7 610.933 13.8653  11
  -6   2   7 635.224 16.6550   3
  -6   2   7 647.165 16.1564   9
  -6   2   7 616.806 18.3698  10
  -6   2   7 620.640 14.6295  12
   6   2  -7 623.644 18.0509  13
  -4  -2   7 608.321 17.2109  10
   4  -2  -7 627.031 14.5694  14
  -4  -2   7 620.745 14.4991  12
  -4  -2   7 601.369 14.0649   6
  -4  -2   7 611.766 14.1779   9
   4  -2  -7 649.585 17.0778  13
   4  -2  -7 613.720 13.4392   2
   4  -2  -7 613.449 15.0273   1
  -4  -2   7 609.669 14.9376   1
   4   2  -7 615.011 14.5518  14
   4   2  -7 634.123 16.3135   7
  -4   2   7 594.504 13.9772   6
   4   2  -7 606.053 14.4139   1
  -4   2   7 601.625 17.5832  10
   4   2  -7 622.224 14.6806   4
  -4   2   7 603.905 15.0617   1
  -4   2   7 633.496 15.3424   9
  -4   2   7 622.994 14.2217  12
  -2  -2   7 740.094 19.9471  10
   2  -2  -7 730.261 16.6677   1
   2  -2  -7 745.919 16.9361   2
  -2  -2   7 777.474 17.1746  12
  -2  -2   7 740.006 16.6784   9
   2  -2  -7 736.423 17.2114  14
  -2  -2   7 746.093 16.9651   1
  -2  -2   7 743.475 16.2438   6
   2  -2  -7 786.931 18.5869  13
   2  -2  -7 756.068 16.8198   4
  -2   2   7 721.658 16.4733   6
  -2   2   7 774.591 16.9269  12
   2   2  -7 753.537 17.8048   7
   2   2  -7 768.770 17.0966   4
  -2   2   7 740.283 20.4470  10
   2   2  -7 733.613 17.5422   2
  -2   2   7 730.364 17.5040   1
   2   2  -7 734.765 17.5116  14
  -2   2   7 814.495 18.2663   9
   0  -2   7 709.382 15.7137   1
   0  -2  -7 693.115 17.0661   2
   0  -2   7 695.472 20.2289  10
   0  -2   7 700.558 16.6508  12
   0  -2   7 705.379 15.1897   6
   0  -2   7 671.258 16.5251   9
   0  -2  -7 711.777 16.8851  14
   0  -2  -7 726.275 17.2127   8
   0  -2  -7 696.516 15.7568   4
   0   2   7 706.874 17.9033   9
   0   2   7 714.080 16.7145  12
   0   2  -7 688.183 16.4700   7
   0   2   7 703.078 16.9340   1
   0   2   7 716.814 16.1886   6
   0   2  -7 730.227 17.6932   2
   0   2   7 712.703 21.1320  10
   0   2  -7 713.845 17.2481  14
   0   2  -7 736.757 16.4862   4
  -2  -2  -7 405.144 12.4368   8
  -2  -2  -7 384.084 11.0061   4
   2  -2   7 411.894 12.2392   9
   2  -2   7 346.888 10.2614   1
  -2  -2  -7 427.888 11.9081  14
  -2  -2  -7 404.849 12.1532   2
   2  -2   7 402.187 9.51304   6
   2  -2   7 372.461 14.7931  10
  -2   2  -7 420.425 12.5521   8
  -2   2  -7 410.016 10.9509   4
  -2   2  -7 416.092 12.4940   2
   2   2   7 423.967 11.1943   6
   2   2   7 398.389 11.3732   1
   2   2   7 409.387 13.2289   9
  -2   2  -7 416.637 11.9760  14
   4  -2   7 318.635 8.17628   6
  -4  -2  -7 329.767 11.5994   8
  -4  -2  -7 323.809 10.4620  14
  -4  -2  -7 327.664 11.2637   2
   4  -2   7 336.431 11.9775   9
   4   2   7 315.637 9.92791   1
  -4   2  -7 329.418 10.6827  14
  -4   2  -7 325.613 11.5050   8
   4   2   7 318.571 9.97502   6
  -4   2  -7 321.729 11.2524   2
   4   2   7 322.122 12.7918   9
  -6  -2  -7 180.660 8.89984   8
   6  -2   7 168.108 5.62974   6
  -6  -2  -7 180.322 8.60536   2
   6  -2   7 169.560 9.09748   9
   6   2   7 171.105 10.0933   9
  -6   2  -7 162.969 7.97103   2
  -6   2  -7 176.327 8.42796   8
   6   2   7 180.953 7.45794   6
  11  -3  -7 816.079 21.4901  11
 -11  -3   7 805.103 20.9991   8
  11  -3  -7 832.320 22.2290   1
  11  -3  -7 825.061 21.3967   6
 -11  -3   7 800.558 20.8280  12
 -11   3   7 780.564 21.2411   3
 -11   3   7 796.712 22.2373   5
  11   3  -7 830.382 23.0531   1
  11   3  -7 830.763 22.3485  11
   9  -3  -7 179.727 8.10422   1
  -9  -3   7 186.534 7.89294   1
   9  -3  -7 172.239 10.2920  13
  -9  -3   7 181.049 7.35673  12
   9  -3  -7 191.229 7.71413   6
  -9   3   7 184.135 7.69329   3
  -9   3   7 198.319 7.17928  12
   9   3  -7 191.153 8.94590   1
   9   3  -7 190.879 7.68923  11
  -7  -3   7 1366.07 28.7023  12
  -7  -3   7 1394.30 29.8972   1
   7  -3  -7 1372.44 30.3281   1
   7  -3  -7 1356.92 33.1868  13
   7   3  -7 1370.53 28.4261   4
  -7   3   7 1320.44 28.7612   1
   7   3  -7 1432.90 30.5674   1
  -7   3   7 1373.01 30.1133   9
  -7   3   7 1324.38 28.4107   3
   7   3  -7 1338.18 27.9363  11
  -7   3   7 1365.83 28.0081  12
   5  -3  -7 411.725 10.6053  14
  -5  -3   7 409.381 11.4800   1
  -5  -3   7 377.119 10.0485   9
   5  -3  -7 415.977 11.8498   1
   5  -3  -7 407.803 13.3260  13
  -5  -3   7 391.767 10.5154   6
  -5  -3   7 386.479 12.9184  10
  -5  -3   7 404.817 10.7260  12
   5   3  -7 396.646 10.4604  14
  -5   3   7 418.193 11.4706   1
  -5   3   7 402.245 11.6828   9
  -5   3   7 395.900 10.0138   3
   5   3  -7 418.593 12.9281   7
  -5   3   7 405.872 13.8233  10
   5   3  -7 403.888 10.9547   4
   5   3  -7 401.462 11.0650   1
  -5   3   7 400.879 10.2817  12
  -3  -3   7 1361.61 27.5208  12
   3  -3  -7 1350.90 29.6562  13
   3  -3  -7 1340.78 28.1407   1
   3  -3  -7 1299.32 26.7446   2
  -3  -3   7 1306.67 26.9416   6
   3  -3  -7 1344.53 27.8190  14
  -3  -3   7 1299.68 30.2754  10
  -3  -3   7 1350.87 27.9751   1
  -3   3   7 1339.30 27.1085  12
  -3   3   7 1364.16 28.5618   1
  -3   3   7 1379.79 28.8350   9
  -3   3   7 1307.20 27.1145   6
   3   3  -7 1350.19 27.7995   4
   3   3  -7 1332.18 28.0833  14
   3   3  -7 1377.77 29.4419   7
  -3   3   7 1345.92 31.6027  10
  -1  -3   7 459.656 11.7458  12
  -1  -3   7 457.034 10.7088   6
   1  -3  -7 435.242 11.8528   2
   1  -3  -7 449.959 11.9944  14
   1  -3  -7 419.084 11.1000   1
   1  -3  -7 447.106 12.2558  13
   1  -3  -7 429.318 11.1165   4
  -1  -3   7 436.229 11.0516   1
   1  -3  -7 447.670 11.6322   8
  -1  -3   7 437.085 11.2017   9
  -1  -3   7 411.643 13.8064  10
   1   3  -7 456.559 12.4747  14
   1   3  -7 446.346 12.4937   2
  -1   3   7 433.466 15.0205  10
  -1   3   7 454.580 12.4890   1
  -1   3   7 443.116 11.4427   6
   1   3  -7 472.831 12.5120   7
   1   3  -7 438.027 11.6415   4
  -1   3   7 442.079 12.7352   9
  -1   3   7 456.712 11.5885  12
   1  -3   7 914.908 18.9757   6
  -1  -3  -7 944.284 21.4813  14
  -1  -3  -7 941.840 21.8316   2
   1  -3   7 938.195 21.3571  12
   1  -3   7 936.124 19.4116   1
   1  -3   7 899.532 25.0112  10
  -1  -3  -7 940.134 19.8475   4
  -1  -3  -7 945.573 22.0212   8
   1  -3   7 884.821 21.1064   9
  -1   3  -7 983.003 21.1730   4
   1   3   7 958.837 21.0842   6
   1   3   7 924.660 26.4336  10
   1   3   7 942.614 23.1158   9
  -1   3  -7 935.675 21.5197   7
  -1   3  -7 944.498 21.9840  14
  -1   3  -7 992.308 22.7554   2
   1   3   7 961.571 21.8731   1
   3  -3   7 283.893 10.2189   9
  -3  -3  -7 296.609 9.72739  14
  -3  -3  -7 285.200 10.3717   8
   3  -3   7 290.996 7.21471   6
  -3  -3  -7 291.523 10.3627   2
  -3   3  -7 290.762 9.15831   4
   3   3   7 293.773 11.8085   9
  -3   3  -7 293.359 9.92693  14
  -3   3  -7 286.798 10.3685   8
   3   3   7 287.468 9.75768   1
   3   3   7 293.059 9.56879   6
  -3   3  -7 294.360 10.5205   2
  -5  -3  -7 536.861 16.0371   2
  -5  -3  -7 533.147 16.3263   8
  -5  -3  -7 508.857 14.5332  14
   5  -3   7 527.760 11.6035   6
  -5   3  -7 523.673 15.7914   8
   5   3   7 564.433 18.5029   9
  -5   3  -7 522.277 15.5564   2
   5   3   7 495.341 14.3805   1
   5   3   7 525.975 14.7306   6
  12  -4  -7 126.795 7.62090  11
  12  -4  -7 105.568 7.03721   1
 -12  -4   7 105.229 6.79652   8
  12  -4  -7 102.762 6.64775   6
  12   4  -7 107.502 7.82388  11
 -12   4   7 102.621 6.79047   3
  12   4  -7 98.2476 7.08488   1
 -12   4   7 107.340 7.63267   5
  10  -4  -7 114.428 6.81029   1
 -10  -4   7 104.666 6.09163   8
 -10  -4   7 109.266 6.00165  12
  10  -4  -7 97.8532 8.47790  13
  10  -4  -7 97.8874 5.77634   6
 -10   4   7 108.817 6.37135   3
  10   4  -7 107.320 6.64177  11
  10   4  -7 100.119 7.07374   1
 -10   4   7 110.548 5.29364  12
  10   4  -7 106.309 8.24871   7
 -10   4   7 112.896 7.03886   5
   8  -4  -7 70.2049 6.67437  13
  -8  -4   7 58.7056 4.18837  12
  -8  -4   7 65.6193 4.88138   1
   8  -4  -7 62.6626 4.62341   1
   8  -4  -7 68.2335 4.73203   6
   8   4  -7 68.8328 5.27215   1
   8   4  -7 61.6828 5.94014   7
  -8   4   7 86.7830 4.22531  12
   8   4  -7 61.4826 4.27975  11
  -8   4   7 57.3564 4.73591   9
  -8   4   7 68.6615 4.50337   3
  -6  -4   7 196.555 7.69163   1
   6  -4  -7 164.535 6.10124  14
   6  -4  -7 182.064 6.77981   6
  -6  -4   7 181.869 6.51312   6
   6  -4  -7 193.381 9.19914  13
   6  -4  -7 172.194 7.29984   1
  -6  -4   7 177.803 6.54139  12
   6   4  -7 180.522 8.60166   7
  -6   4   7 187.263 6.15424  12
  -6   4   7 162.842 6.26333   3
   6   4  -7 187.052 6.08028  11
   6   4  -7 175.640 6.47861   4
  -6   4   7 176.227 7.47876   9
  -6   4   7 181.073 6.97477   1
   6   4  -7 168.429 6.00046  14
  -6   4   7 178.422 8.82681  10
   6   4  -7 185.576 7.37659   1
  -4  -4   7 31.3649 2.46459   6
   4  -4  -7 35.0671 3.00851   1
   4  -4  -7 27.5438 2.63703  14
   4  -4  -7 32.7441 3.73924  13
  -4  -4   7 27.8753 3.28268  10
  -4  -4   7 27.6781 2.72356  12
  -4  -4   7 33.0426 3.05066   1
  -4   4   7 32.5001 3.27669   9
  -4   4   7 30.5834 3.57192  10
   4   4  -7 34.1392 3.41872   7
  -4   4   7 29.2164 2.41218   3
  -4   4   7 29.3343 2.41830  12
   4   4  -7 33.3806 2.98893   4
  -4   4   7 41.3599 3.28942   1
   4   4  -7 25.8350 2.40825  14
  -2  -4   7 48.2098 2.93267   6
   2  -4  -7 47.0946 3.12277   2
   2  -4  -7 45.6908 3.24272   1
  -2  -4   7 48.4594 3.22497  12
  -2  -4   7 48.9650 4.11171  10
  -2  -4   7 46.0409 3.14713   1
   2  -4  -7 54.2868 3.46362  14
   2  -4  -7 50.3466 3.85706  13
  -2   4   7 47.8944 3.01187   6
  -2   4   7 47.2192 2.78408   3
   2   4  -7 47.2053 3.95343   7
  -2   4   7 53.4590 4.65908  10
  -2   4   7 51.8255 3.11987  12
  -2   4   7 49.9133 3.72553   9
   2   4  -7 54.3466 3.87368  14
   2   4  -7 46.7644 3.42408   4
  -2   4   7 51.8288 3.84494   1
   0  -4   7 61.9051 5.05957  10
   0  -4  -7 70.6914 4.13356  14
   0  -4   7 65.0000 3.09129   6
   0  -4  -7 72.5241 4.41771   2
   0  -4  -7 65.9007 3.59897   4
   0  -4   7 67.8822 3.31057   1
   0  -4  -7 66.2038 4.00347   8
   0  -4   7 71.1377 3.90830  12
   0   4   7 68.1735 4.34333   1
   0   4  -7 65.0733 4.10620   4
   0   4  -7 66.1829 4.66028   2
   0   4  -7 70.9970 4.40793  14
   0   4   7 64.1668 3.92032  12
   0   4   7 64.2243 4.52920   9
   0   4  -7 62.5089 4.39124   7
   0   4   7 79.3122 6.42191  10
   0   4   7 70.5310 4.08210   6
  -2  -4  -7 -1.1591 1.48236   2
  -2  -4  -7 0.12875 1.50428   8
  -2  -4  -7 4.29666 1.85304  14
   2  -4   7 8.73160 1.88877  12
   2  -4   7 4.93629 1.03187   6
   2   4   7 2.32292 1.49886   6
  -2   4  -7 1.32181 1.26497  14
  -2   4  -7 2.00450 1.46883   4
  -2   4  -7 1.82524 1.52194   7
   2   4   7 7.37289 2.74055   9
  -2   4  -7 1.00755 1.31191   2
  -4  -4  -7 46.1727 4.29377   8
   4  -4   7 43.0510 2.11873   6
  -4  -4  -7 41.8613 4.65035   2
  -4  -4  -7 41.0026 3.95408  14
   4   4   7 44.4174 4.09718   6
  -4   4  -7 40.9287 3.71505  14
   4   4   7 49.6218 5.66677   9
   4   4   7 44.3729 3.85244   1
  -4   4  -7 48.1915 4.57086   8
  -4   4  -7 40.3403 4.35329   2
  -6  -4  -7 8.25110 2.97789   2
   6  -4   7 6.31216 1.05826   6
  -6  -4  -7 8.25370 2.99044   8
  -6   4  -7 5.54782 2.35582   8
   6   4   7 5.08363 3.22664   9
   6   4   7 2.90988 1.82930   1
   6   4   7 5.43339 2.21539   6
  11  -5  -7 132.106 7.43987  11
 -11  -5   7 122.812 7.00639   8
  11  -5  -7 142.843 7.83147   1
 -11   5   7 117.266 7.13328   3
  11   5  -7 135.655 8.59151   1
  11   5  -7 143.651 9.66441   7
  11   5  -7 139.728 8.20903  11
 -11   5   7 132.317 8.19620   5
  -9  -5   7 402.490 13.2551   1
   9  -5  -7 393.840 16.8928  13
   9  -5  -7 431.409 13.7324   1
   9  -5  -7 436.422 13.4394   6
  -9  -5   7 421.262 12.5919  12
  -9   5   7 397.540 12.7879   3
  -9   5   7 423.120 13.8199   5
   9   5  -7 415.272 15.8116   7
   9   5  -7 416.527 14.4182   1
   9   5  -7 413.790 13.0062  11
   7  -5  -7 325.207 11.1169   1
   7  -5  -7 300.845 13.0347  13
  -7  -5   7 312.955 10.7547   1
  -7  -5   7 309.193 9.82411  12
   7  -5  -7 300.329 9.98463   6
   7   5  -7 301.248 10.7627   1
   7   5  -7 349.770 12.8433   7
  -7   5   7 311.980 9.96047   3
  -7   5   7 313.675 10.9801   9
  -7   5   7 312.003 8.77039  12
   7   5  -7 298.382 9.41431  11
  -5  -5   7 1223.92 25.5414   6
  -5  -5   7 1172.01 26.6320   1
  -5  -5   7 1167.26 25.1884  12
   5  -5  -7 1180.76 25.5571  14
   5  -5  -7 1239.41 27.3086   1
   5  -5  -7 1197.55 29.1777  13
   5   5  -7 1217.85 26.0783   4
  -5   5   7 1169.97 24.2899  12
   5   5  -7 1209.57 28.5086   7
   5   5  -7 1155.31 25.4416  14
  -5   5   7 1176.23 25.1827   3
  -5   5   7 1224.99 26.3512   1
  -5   5   7 1144.46 29.1381  10
  -5   5   7 1228.08 27.0892   9
   3  -5  -7 655.277 15.9947  14
   3  -5  -7 661.352 16.5724   1
   3  -5  -7 619.372 14.6149   2
  -3  -5   7 615.605 15.6916   1
  -3  -5   7 655.042 15.2001   6
   3  -5  -7 646.400 17.4486  13
  -3  -5   7 649.705 15.2074  12
  -3   5   7 634.264 14.6051  12
  -3   5   7 622.482 14.8673   3
  -3   5   7 676.151 16.9781   9
   3   5  -7 654.809 17.6194   7
   3   5  -7 639.434 15.9713   4
  -3   5   7 644.742 18.9170  10
  -3   5   7 644.047 16.4667   1
   3   5  -7 624.096 16.2012  14
  -1  -5   7 1371.51 27.2361   6
   1  -5  -7 1364.63 28.7863   1
   1  -5  -7 1348.13 28.5909   2
   1  -5  -7 1300.97 27.7123   8
   1  -5  -7 1367.01 29.0049  14
  -1  -5   7 1339.85 28.0370  12
  -1  -5   7 1314.83 27.5155   1
  -1   5   7 1376.56 30.3351   9
   1   5  -7 1373.70 29.9236  14
  -1   5   7 1332.84 28.3987   6
  -1   5   7 1303.18 27.8250   3
   1   5  -7 1391.05 29.0857   4
  -1   5   7 1345.70 33.0452  10
  -1   5   7 1352.64 27.8609  12
   1   5  -7 1381.62 30.4256   7
  -1   5   7 1335.26 29.7902   1
  -1  -5  -7 435.163 12.6349   2
  -1  -5  -7 393.272 12.0171   8
  -1  -5  -7 419.042 12.2982  14
   1  -5   7 424.982 10.0699   6
   1  -5   7 413.972 11.7310  12
  -1   5  -7 424.556 13.0694  14
  -1   5  -7 414.994 13.0439   7
   1   5   7 424.068 13.8068   9
   1   5   7 411.584 12.9787   1
  -1   5  -7 435.188 13.2892   2
   1   5   7 418.722 12.2457   6
  -1   5  -7 424.308 12.1674   4
  -3  -5  -7 519.916 15.2936   2
   3  -5   7 525.760 11.1644   6
  -3  -5  -7 503.660 15.2089   8
   3  -5   7 502.056 14.2042  12
  -3  -5  -7 513.854 14.6592  14
  -3   5  -7 516.849 15.4661   2
  -3   5  -7 537.601 14.4594   4
   3   5   7 507.687 14.8496   6
   3   5   7 519.134 15.5685   1
   3   5   7 525.468 17.3019   9
  -3   5  -7 519.352 15.1984  14
  -5  -5  -7 130.881 7.48550   2
   5  -5   7 127.271 3.65924   6
  -5  -5  -7 141.057 7.53631   8
  -5   5  -7 134.485 7.22664   2
   5   5   7 131.061 7.23596   1
   5   5   7 127.760 7.08167   6
   5   5   7 139.457 8.83688   9
 -10  -6   7 53.0549 4.72732  12
 -10  -6   7 58.0485 5.32436   8
  10  -6  -7 62.6500 5.32669   6
  10  -6  -7 60.6828 5.35695   1
 -10   6   7 53.0131 5.06376   3
  10   6  -7 53.2599 5.94320   1
  10   6  -7 61.4047 5.60568  11
  10   6  -7 62.8077 6.24392   7
 -10   6   7 55.6104 5.08771   5
   8  -6  -7 129.490 9.24121  13
  -8  -6   7 114.051 5.94534  12
   8  -6  -7 128.711 7.06540   1
  -8  -6   7 118.570 6.87088   1
   8  -6  -7 126.210 6.49382   6
   8   6  -7 124.759 6.93444   1
  -8   6   7 118.977 6.85474   9
  -8   6   7 128.900 6.53769   3
   8   6  -7 133.950 8.20223   7
   8   6  -7 123.016 6.32082  11
   6  -6  -7 5.52349 2.22638   1
  -6  -6   7 9.17209 1.79071  12
   6  -6  -7 8.79793 1.89894  14
   6  -6  -7 7.42330 2.53148  13
  -6  -6   7 8.80701 2.12470   1
  -6   6   7 5.98166 1.91402   9
   6   6  -7 4.42239 1.72739   4
  -6   6   7 6.78778 1.93735   1
   6   6  -7 12.5992 2.09932  11
   6   6  -7 7.92014 2.13771   1
  -6   6   7 13.1024 2.26974   3
   6   6  -7 6.80933 2.35140   7
  -4  -6   7 78.9707 4.13278  12
   4  -6  -7 86.8709 4.87678  14
   4  -6  -7 102.979 6.43941  13
  -4  -6   7 74.8242 4.54867   1
   4  -6  -7 86.2139 5.32737   1
  -4  -6   7 79.4835 4.37875   6
  -4   6   7 82.8172 4.94073   1
  -4   6   7 76.5507 4.83143   9
  -4   6   7 79.2171 4.35415   3
   4   6  -7 83.6964 4.65527   4
   4   6  -7 76.8559 5.76554   7
  -4   6   7 80.9034 5.95776  10
   4   6  -7 85.7159 4.92530  14
   2  -6  -7 15.2104 2.62479  13
  -2  -6   7 13.7595 2.10519  12
  -2  -6   7 15.1487 2.28204   1
   2  -6  -7 13.0347 2.48091  14
  -2  -6   7 15.1225 2.06774   6
   2  -6  -7 14.2418 2.14590   2
   2  -6  -7 18.3022 2.74710   1
  -2   6   7 14.7184 3.05972  10
  -2   6   7 18.1610 2.49938   3
  -2   6   7 14.4234 2.57127   1
   2   6  -7 28.6514 3.81576   7
  -2   6   7 14.6712 2.94772   9
   2   6  -7 15.5844 2.69384   4
  -2   6   7 19.1352 2.15903  12
   2   6  -7 17.2511 2.81226  14
   0  -6  -7 -0.0095 1.35709   2
   0  -6   7 5.50662 1.30039   1
   0  -6   7 -0.4101 1.00863  12
   0  -6   7 4.27403 1.19874   6
   0  -6  -7 1.03654 1.51118  14
   0  -6  -7 1.77275 1.00303   8
   0   6   7 0.78378 1.42539   9
   0   6   7 1.67122 1.43052   6
   0   6  -7 -0.5010 1.63427   7
   0   6  -7 1.30720 1.64362  14
   0   6   7 0.83444 1.87288  10
   0   6  -7 0.54713 1.54948   4
   0   6   7 2.01607 1.34456  12
   0   6   7 0.85252 1.55334   1
  -2  -6  -7 39.7406 4.00145  14
  -2  -6  -7 34.4679 4.04886   2
  -2  -6  -7 33.3223 3.72397   8
   2  -6   7 36.4248 2.30533   6
  -2   6  -7 38.4687 3.51155   4
  -2   6  -7 38.2001 4.56925   7
   2   6   7 40.3254 3.93361   6
   2   6   7 39.3515 4.59658   1
  -2   6  -7 34.8384 4.28971  14
   2   6   7 37.6952 4.93995   9
  -4  -6  -7 0.99254 2.15647   8
   4  -6   7 1.89356 0.74131   6
  -4  -6  -7 5.99082 2.78577   2
  -4  -6  -7 0.91143 1.76983  14
  -4   6  -7 -0.5903 1.51186   4
   4   6   7 0.51689 1.78912   6
   4   6   7 1.94332 2.88040   9
  -4   6  -7 -1.1218 1.66231  14
   4   6   7 1.78947 1.63095   1
  -9  -7   7 845.865 22.0562   8
  -9  -7   7 829.563 22.4308   1
   9  -7  -7 854.353 21.6463   6
   9  -7  -7 838.414 22.3423   1
   9   7  -7 815.716 21.5280  11
  -9   7   7 821.966 21.7008   3
   9   7  -7 799.524 24.1849   7
   9   7  -7 833.813 23.1257   1
  -9   7   7 832.314 22.0743   5
  -7  -7   7 196.528 7.56630  12
   7  -7  -7 200.956 8.99273   1
   7  -7  -7 188.514 10.8983  13
  -7  -7   7 201.356 9.05205   1
   7   7  -7 196.719 9.84019   7
   7   7  -7 190.521 7.68720  11
  -7   7   7 202.216 8.91800   9
  -7   7   7 202.098 8.31180   3
  -5  -7   7 818.507 19.1563  12
   5  -7  -7 878.681 22.0152   1
   5  -7  -7 864.057 24.0296  13
   5  -7  -7 865.030 20.6996  14
  -5  -7   7 870.899 21.6724   1
  -5  -7   7 893.415 20.4832   6
   5   7  -7 836.903 20.4548   4
   5   7  -7 868.394 23.4223   7
  -5   7   7 876.317 20.9162   1
  -5   7   7 811.357 23.4745  10
  -5   7   7 843.674 21.1850   9
  -5   7   7 831.047 20.2264   3
  -3  -7   7 129.254 6.18749   1
   3  -7  -7 130.210 6.43563  14
   3  -7  -7 119.827 6.50837   1
   3  -7  -7 127.577 7.05539  13
  -3  -7   7 126.395 5.69405   6
  -3   7   7 130.957 6.78268   9
  -3   7   7 125.572 5.86294   3
   3   7  -7 132.629 6.47987   4
   3   7  -7 121.608 6.55253  14
  -3   7   7 128.670 6.37313   1
   3   7  -7 129.452 7.24290   7
  -3   7   7 128.738 7.54781  10
   1  -7  -7 631.090 16.8637  14
  -1  -7   7 655.095 15.3148   6
   1  -7  -7 643.777 17.0096   1
  -1  -7   7 621.824 15.5214   1
   1  -7  -7 654.878 16.4680   2
  -1   7   7 611.519 16.2747   3
  -1   7   7 644.932 17.9378   9
   1   7  -7 653.258 17.1976   4
   1   7  -7 632.645 17.7524  14
  -1   7   7 632.085 17.8372   1
   1   7  -7 669.438 19.0509   7
  -1   7   7 579.943 19.2471  10
   1  -7   7 146.744 5.45884   6
  -1  -7  -7 157.165 7.47956   2
  -1  -7  -7 167.746 7.43561  14
  -1   7  -7 157.716 8.18420  14
   1   7   7 157.027 8.11629   1
   1   7   7 155.799 6.54116  12
  -1   7  -7 159.464 7.33454   4
  -1   7  -7 160.068 8.53418   7
   1   7   7 201.925 9.51372   9
   3  -7   7 514.656 11.6027   6
  -3  -7  -7 533.612 15.9604   2
  -3  -7  -7 510.544 15.1544  14
  -3  -7  -7 501.108 15.2635   8
  -3   7  -7 529.475 15.2490   4
   3   7   7 504.242 16.4870   1
  -3   7  -7 505.299 16.5739   7
   3   7   7 498.329 15.5455   6
   3   7   7 518.719 17.7838   9
  -3   7  -7 521.380 16.0599  14
 -10  -8   7 99.9557 6.93217   8
  10  -8  -7 109.240 6.70911   6
 -10   8   7 106.903 6.94626   3
 -10   8   7 99.2324 6.94878   5
  10   8  -7 104.544 7.26897   1
  10   8  -7 97.5012 6.91362  11
  -8  -8   7 322.779 12.3661   1
   8  -8  -7 303.154 11.7246   1
   8   8  -7 282.957 13.0677   7
   8   8  -7 299.087 10.8017  11
  -8   8   7 301.072 11.3674   9
  -8   8   7 288.356 11.0852   3
   6  -8  -7 147.714 9.47844  13
   6  -8  -7 149.200 7.63610   1
  -6  -8   7 147.871 7.81820   1
  -6   8   7 157.557 7.27517   3
   6   8  -7 147.560 6.61324  11
  -6   8   7 155.157 7.49864   9
   6   8  -7 153.909 8.72132   7
   4  -8  -7 538.155 16.2765   1
  -4  -8   7 547.332 14.7788   6
  -4  -8   7 559.864 15.8466   1
   4  -8  -7 551.663 17.6252  13
  -4   8   7 522.092 14.8494   3
   4   8  -7 541.142 17.5620   7
  -4   8   7 534.033 15.3448   1
   4   8  -7 537.072 15.3886   4
  -4   8   7 554.439 15.9252   9
  -2  -8   7 403.577 11.5566   6
   2  -8  -7 413.479 12.9953  14
  -2  -8   7 403.005 11.9979   1
   2  -8  -7 406.222 13.2600   1
   2   8  -7 411.781 13.0406   4
  -2   8   7 394.035 12.1738   3
  -2   8   7 400.558 13.3777   1
   2   8  -7 380.168 14.2784   7
  -2   8   7 376.403 12.8723   9
   0  -8  -7 257.497 9.93731  14
   0  -8   7 249.658 8.16305   6
   0  -8   7 248.679 8.09432   1
   0  -8  -7 249.301 9.26333   2
   0   8  -7 258.504 11.3167   7
   0   8  -7 257.029 10.0278   4
   0   8   7 256.467 10.7059   9
   0   8   7 247.863 10.6007   1
   0   8   7 250.380 9.75931   3
  -2  -8  -7 446.998 14.1699  14
  -2  -8  -7 448.631 14.3889   2
   2  -8   7 443.323 11.2322   6
   2   8   7 443.905 15.3453   1
  -2   8  -7 449.898 16.0683   7
   2   8   7 454.534 16.2144   9
  -2   8  -7 461.216 14.4293   4
   4  -8   7 89.5511 3.47482   6
  -4  -8  -7 85.2026 5.79163  14
  -4  -8  -7 88.5507 6.48362   2
   4   8   7 86.8105 6.49064   1
  -4   8  -7 85.1872 5.90907   4
   4   8   7 79.9751 7.44184   9
  -9  -9   7 25.3570 4.12061   1
  -9  -9   7 24.9687 4.09382   8
   9  -9  -7 25.1610 3.89634   1
   9   9  -7 17.8130 6.47555   7
   9   9  -7 25.5708 3.93911  11
  -9   9   7 37.1358 4.67665   3
   7  -9  -7 636.359 18.7574   1
  -7  -9   7 649.062 19.2196   1
  -7   9   7 634.719 17.9732   3
  -7   9   7 609.947 17.9069   9
   7   9  -7 635.603 20.4640   7
   7   9  -7 610.059 17.0797  11
  -5  -9   7 103.875 6.66840   1
   5  -9  -7 100.491 7.76839  13
   5  -9  -7 103.745 7.00323   1
  -5  -9   7 107.532 5.99101   6
  -5   9   7 114.100 6.17333   3
  -5   9   7 109.893 6.55807   9
   5   9  -7 106.017 6.08830   4
   5   9  -7 104.960 7.38875   7
  -3  -9   7 1354.44 30.2871   1
   3  -9  -7 1386.23 31.8536   1
  -3  -9   7 1305.36 29.1697   6
  -3   9   7 1277.41 30.3946   1
   3   9  -7 1283.26 33.1235   7
  -3   9   7 1346.45 30.8231   9
   3   9  -7 1311.45 30.4134   4
  -3   9   7 1308.08 30.0391   3
   1  -9  -7 134.729 7.34541  14
  -1  -9   7 141.171 6.30440   6
  -1  -9   7 132.805 6.14076   1
   1  -9  -7 137.251 7.19704   1
   1   9  -7 131.961 8.59808   7
  -1   9   7 133.113 7.60254   9
  -1   9   7 126.433 7.52861   1
   1   9  -7 135.096 7.23528   4
  -1   9   7 131.008 7.08996   3
  -1  -9  -7 1014.25 25.0470  14
   1  -9   7 1023.57 22.2032   6
  -1   9  -7 1026.63 25.3801   4
   1   9   7 1002.46 26.2273   9
   1   9   7 990.263 26.4211   1
   1   9   7 943.413 25.1760   3
  -1   9  -7 972.268 27.1203   7
   3  -9   7 25.1001 2.41626   6
  -3  -9  -7 22.8680 3.34198  14
  -3  -9  -7 23.3725 3.71827   2
   3   9   7 23.3449 4.61420   9
   3   9   7 27.1107 4.65197   1
  -3   9  -7 23.1652 4.21258   7
  -3   9  -7 25.4014 4.04130   4
  -8 -10   7 13.7430 3.25357   8
   8 -10  -7 8.85498 3.18279   1
  -8 -10   7 8.80722 3.36470   1
   8  10  -7 6.61061 3.24140   7
  -8  10   7 15.6070 3.12382   3
   8  10  -7 7.40718 3.59726  11
  -6 -10   7 33.5249 4.87353   1
   6 -10  -7 29.8500 4.57036   1
   6  10  -7 32.2859 5.20213   7
  -6  10   7 35.6853 4.09587   9
  -6  10   7 30.1579 4.11419   3
   4 -10  -7 4.47660 2.82630  13
   4 -10  -7 11.4775 3.21721   1
  -4 -10   7 5.82321 1.81511   6
  -4 -10   7 6.67613 2.54862   1
   4  10  -7 7.38332 2.11168   4
  -4  10   7 10.7949 2.93322   3
  -4  10   7 4.10827 2.16941   9
   4  10  -7 15.1542 4.10106   7
  -2 -10   7 4.06862 1.91678   6
  -2 -10   7 3.70070 1.54661   1
   2 -10  -7 5.26727 2.70022  14
   2 -10  -7 4.59988 2.53867   1
  -2  10   7 5.03885 2.59222   1
   2  10  -7 5.00939 2.57421   7
  -2  10   7 7.54212 2.70528   3
  -2  10   7 4.49608 2.37524   9
   2  10  -7 5.27345 2.16558   4
   0 -10   7 11.4470 2.26669   6
   0 -10  -7 16.7073 3.55280  14
   0  10   7 17.9735 4.01251   1
   0  10   7 13.8144 3.44046   9
   0  10  -7 16.0603 3.79483   7
   0  10  -7 15.6421 3.56031   4
   0  10   7 18.4706 3.61818   3
  -2 -10  -7 9.71044 3.17802  14
   2 -10   7 5.12503 1.51341   6
  -2 -10  -7 7.57038 2.95005   2
   2  10   7 3.92833 2.74933   3
  -2  10  -7 7.65388 3.04518   4
  -2  10  -7 8.60058 3.44099   7
   2  10   7 6.01437 2.55541   1
   2  10   7 7.16836 2.95398   9
  -5 -11   7 141.561 8.27635   1
   5 -11  -7 141.801 8.61247   1
  -5  11   7 123.852 7.11718   3
   3 -11  -7 274.503 11.8691   1
  -3 -11   7 244.037 9.84425   6
  -3 -11   7 258.164 10.5154   1
   3  11  -7 244.781 10.5483   4
   3  11  -7 258.616 12.9074   7
  -3  11   7 253.323 10.6388   3
   1 -11  -7 57.7225 5.93940  14
   1 -11  -7 55.6309 5.67900   1
  -1 -11   7 53.9590 4.41210   1
  -1 -11   7 55.5838 4.44650   6
  -1  11   7 51.6628 4.82605   3
   1  11  -7 56.2765 6.98094   7
  -1  11   7 49.9350 5.82164   1
   1  11  -7 59.4007 6.12467   4
  12   0  -8 313.044 12.4918   1
 -12   0   8 309.949 11.9831   5
  10   0  -8 57.3454 5.37797   1
 -10   0   8 50.3099 3.94778  12
  10   0  -8 34.1401 5.12765  13
  10   0  -8 48.8822 4.33834  11
  -8   0   8 1464.53 30.5434  12
   8   0  -8 1469.36 32.7068   1
   8   0  -8 1431.68 30.6661   4
  -8   0   8 1445.05 31.2421   1
   8   0  -8 1390.45 35.1274  13
  -8   0   8 1444.91 31.5816   9
  -6   0   8 323.613 9.98839   9
  -6   0   8 330.121 9.58470  12
   6   0  -8 326.936 10.4102   1
   6   0  -8 305.625 8.78042  14
  -6   0   8 315.471 12.5629  10
   6   0  -8 320.297 12.1701  13
   6   0  -8 330.884 9.79505   4
  -6   0   8 335.702 10.4053   1
  -4   0   8 3463.90 64.4950   6
  -4   0   8 3394.72 69.6297  10
  -4   0   8 3464.19 65.5065   9
  -4   0   8 3498.62 64.9557  12
   4   0  -8 3427.10 64.9070   4
   4   0  -8 3346.34 64.7466   1
   4   0  -8 3487.85 68.2799  13
  -4   0   8 3472.38 65.9036   1
   4   0  -8 3457.47 65.1829  14
   4   0  -8 3385.05 64.4242   2
  -2   0   8 187.714 7.34480   9
   2   0  -8 196.341 7.21996   2
   2   0  -8 194.585 7.18891  14
  -2   0   8 205.398 7.29448  12
  -2   0   8 208.884 6.72756   6
  -2   0   8 186.313 9.39753  10
   2   0  -8 207.392 6.91601   4
  -2   0   8 198.988 7.25255   1
   2   0  -8 224.018 7.23246   7
   0   0   8 2351.95 48.1431   9
   0   0  -8 2364.09 47.8016   2
   0   0   8 2399.48 45.8786   6
   0   0  -8 2375.90 47.9241   8
   0   0   8 2313.45 52.9876  10
   0   0   8 2371.88 46.4511   1
   0   0  -8 2409.15 46.1666   4
   0   0  -8 2381.00 47.3561  14
   0   0   8 2395.06 47.3910  12
   2   0   8 7.44093 1.63664   6
   2   0   8 6.73532 1.73216   1
  -2   0  -8 9.11042 2.27782  14
  -2   0  -8 8.94114 2.27810   8
  -2   0  -8 10.1567 2.27232   2
   2   0   8 10.4828 2.46511   9
  -2   0  -8 8.86779 1.71570   4
   4   0   8 905.461 20.2484   6
  -4   0  -8 884.176 23.4091   8
  -4   0  -8 894.285 22.8629   2
  -4   0  -8 875.454 21.7130  14
   4   0   8 898.230 24.3751   9
  11  -1  -8 4.65405 2.67429   1
 -11  -1   8 3.29619 2.04480   8
  11  -1  -8 4.48220 1.97795  11
 -11  -1   8 1.89403 2.14468  12
 -11  -1   8 1.12198 2.07127   5
 -11   1   8 1.96520 2.34277   5
  11   1  -8 3.70950 2.46718  11
  11   1  -8 0.28753 1.61276   1
 -11   1   8 3.42753 1.99366  12
   9  -1  -8 202.920 9.10541   1
   9  -1  -8 178.373 10.2858  13
   9  -1  -8 181.851 7.45688   4
  -9  -1   8 192.467 7.74824  12
  -9  -1   8 189.609 8.00031   1
  -9   1   8 191.976 7.58804  12
   9   1  -8 189.588 10.4472  13
   9   1  -8 193.100 9.01580   1
   7  -1  -8 2.84318 1.62871   4
   7  -1  -8 1.01738 1.48474  13
  -7  -1   8 0.88990 1.40154   1
   7  -1  -8 1.31507 1.21517   1
  -7  -1   8 2.97056 1.56927   9
   7   1  -8 2.10943 1.66000   1
  -7   1   8 0.79212 1.02711  12
  -7   1   8 5.59834 1.75577   1
   7   1  -8 0.85831 1.30575   4
  -7   1   8 2.04350 1.31264   9
  -5  -1   8 140.779 5.74794   9
   5  -1  -8 140.605 6.13629   1
  -5  -1   8 145.293 6.36369   1
   5  -1  -8 139.232 5.57549  14
   5  -1  -8 140.537 7.34546  13
  -5  -1   8 137.868 7.66352  10
  -5  -1   8 140.642 5.71387  12
   5  -1  -8 150.613 6.09020   4
  -5  -1   8 140.901 5.35923   6
  -5   1   8 134.919 7.80079  10
   5   1  -8 140.260 5.73042   4
   5   1  -8 150.620 5.71676  14
   5   1  -8 141.352 7.31743  13
  -5   1   8 144.503 6.21690   1
  -5   1   8 147.558 5.67471  12
  -5   1   8 139.137 5.33379   6
  -5   1   8 139.648 6.18124   9
   5   1  -8 140.821 5.88143   1
  -3  -1   8 197.893 7.08055   9
   3  -1  -8 199.363 6.79441   4
  -3  -1   8 190.074 6.50932   6
   3  -1  -8 188.190 6.66894   2
   3  -1  -8 192.830 7.10539  14
  -3  -1   8 191.152 7.15461   1
   3  -1  -8 207.328 8.57387  13
   3  -1  -8 194.110 6.59171   1
  -3  -1   8 199.136 7.05849  12
  -3  -1   8 190.107 9.05802  10
  -3   1   8 203.383 7.42653   1
   3   1  -8 204.112 7.00418   4
   3   1  -8 183.419 6.92750   2
   3   1  -8 194.335 7.09633  14
   3   1  -8 186.455 7.40837   7
  -3   1   8 192.324 6.53832   6
  -3   1   8 194.554 7.44866   9
  -3   1   8 193.162 9.35035  10
  -3   1   8 196.167 6.82798  12
  -1  -1   8 6.74444 1.58814   1
  -1  -1   8 6.81586 1.44934   6
  -1  -1   8 5.66151 1.59026   9
   1  -1  -8 6.51758 1.57840  14
   1  -1  -8 9.80747 1.93271   2
   1  -1  -8 5.63478 1.39006   4
  -1  -1   8 8.43567 1.95369  12
  -1  -1   8 6.39413 2.33716  10
  -1   1   8 5.83717 1.44732   6
  -1   1   8 6.40731 1.52285   1
   1   1  -8 5.68395 1.43875   4
  -1   1   8 6.86762 2.68255  10
  -1   1   8 8.13776 1.92050  12
   1   1  -8 9.25248 1.76464   7
   1   1  -8 5.89132 1.81336  14
   1   1  -8 5.09241 1.91774   2
  -1   1   8 7.61745 2.16958   9
  -1  -1  -8 250.553 8.79944  14
   1  -1   8 250.849 7.58048   6
   1  -1   8 241.208 12.3266  10
   1  -1   8 238.363 7.59710   1
  -1  -1  -8 251.167 7.71610   4
   1  -1   8 256.351 9.02462  12
  -1  -1  -8 255.462 9.57936   8
   1  -1   8 235.650 9.32986   9
  -1  -1  -8 264.147 9.36626   2
   1   1   8 243.057 7.98726   6
   1   1   8 248.608 9.10030  12
   1   1   8 236.933 9.80092   9
  -1   1  -8 255.650 9.39095   2
  -1   1  -8 253.194 8.08750   4
  -1   1  -8 255.509 9.49627   8
   1   1   8 245.980 8.41811   1
  -1   1  -8 258.205 9.01781  14
  -3  -1  -8 22.3206 3.36714   8
   3  -1   8 20.2398 3.76581   9
  -3  -1  -8 26.5287 3.43907  14
  -3  -1  -8 22.7050 3.57867   2
   3   1   8 23.9220 2.93091   1
   3   1   8 22.7927 2.78423   6
  -3   1  -8 24.0827 3.70503   2
  -3   1  -8 20.5332 2.86015  14
   3   1   8 19.1487 3.84235   9
  -3   1  -8 28.8307 4.13396   8
   5  -1   8 27.4949 2.72095   6
  -5  -1  -8 31.4157 4.32291   2
   5  -1   8 34.3277 5.01718   9
  -5  -1  -8 27.6222 4.09901   8
  -5   1  -8 32.2045 4.12925   2
   5   1   8 33.1089 5.14062   9
  -5   1  -8 27.0899 3.92301   8
   5   1   8 28.2902 3.17041   6
 -12  -2   8 143.818 7.94805   5
 -12  -2   8 144.058 7.43549   8
  12  -2  -8 149.954 8.25696   1
  12  -2  -8 105.328 9.49243  11
 -12   2   8 146.049 8.52462   5
  12   2  -8 156.868 9.03797   1
  10  -2  -8 1052.04 26.4670   1
 -10  -2   8 1052.21 24.6019  12
  10  -2  -8 990.562 29.7487  13
 -10   2   8 1045.96 23.9220  12
  10   2  -8 1042.73 26.9097   1
  10   2  -8 1051.17 25.6711  11
  -8  -2   8 125.579 6.41373   1
  -8  -2   8 111.539 5.65611  12
   8  -2  -8 112.136 8.02875  13
   8  -2  -8 116.622 6.38041   1
  -8   2   8 121.260 6.58087   9
   8   2  -8 119.948 5.47653   4
   8   2  -8 118.080 6.80998   1
  -8   2   8 116.435 5.86965   1
  -8   2   8 122.479 5.56144  12
   6  -2  -8 926.294 20.5492  14
   6  -2  -8 972.900 22.7474   1
   6  -2  -8 955.543 25.1443  13
  -6  -2   8 973.495 22.4536   1
  -6  -2   8 933.427 20.9098   6
  -6  -2   8 938.741 21.2814  12
  -6  -2   8 951.982 21.3249   9
   6   2  -8 947.231 22.1890   1
  -6   2   8 979.870 21.1381  12
   6   2  -8 944.673 21.4840   4
  -6   2   8 1017.68 22.5231   1
   6   2  -8 906.948 20.3935  14
  -6   2   8 930.014 25.5942  10
  -6   2   8 957.790 22.4602   9
   4  -2  -8 126.229 5.50269  14
   4  -2  -8 125.391 4.81553   2
   4  -2  -8 124.192 5.62477   1
   4  -2  -8 131.109 5.58698   4
  -4  -2   8 126.691 5.75085   1
  -4  -2   8 128.723 7.31492  10
   4  -2  -8 134.292 6.80473  13
  -4  -2   8 132.614 5.61189  12
  -4  -2   8 155.218 5.53001   6
  -4  -2   8 129.607 5.28448   9
  -4   2   8 125.337 5.91208   9
  -4   2   8 128.721 5.17708   6
   4   2  -8 130.283 5.66321  14
   4   2  -8 131.358 6.36328   7
  -4   2   8 121.847 7.44493  10
  -4   2   8 139.233 5.55582  12
  -4   2   8 118.537 5.77327   1
   4   2  -8 131.827 5.65232   4
  -2  -2   8 804.879 18.2825   6
  -2  -2   8 783.016 22.4643  10
  -2  -2   8 796.470 18.8720   9
   2  -2  -8 860.362 18.9354   4
  -2  -2   8 850.822 19.2454   1
   2  -2  -8 837.791 19.2684   2
   2  -2  -8 846.733 20.6821  13
   2  -2  -8 846.698 19.6118  14
  -2  -2   8 841.125 19.3685  12
  -2   2   8 802.351 19.7159   1
   2   2  -8 845.842 19.8451   7
   2   2  -8 855.716 19.2275   4
  -2   2   8 816.263 23.2397  10
   2   2  -8 861.653 20.1515   2
   2   2  -8 842.586 19.8598  14
  -2   2   8 829.421 19.0470  12
  -2   2   8 843.645 20.4278   9
  -2   2   8 864.011 18.9473   6
   0  -2  -8 425.593 12.0595  14
   0  -2  -8 448.481 12.8084   2
   0  -2   8 411.695 10.6768   6
   0  -2   8 395.293 12.0454   9
   0  -2   8 409.027 15.3501  10
   0  -2  -8 424.480 12.5833   8
   0  -2   8 417.280 10.9771   1
   0  -2  -8 444.937 11.3162   4
   0  -2   8 424.854 12.3479  12
   0   2   8 456.785 12.6691   1
   0   2   8 433.367 13.5375   9
   0   2  -8 425.355 11.7275   4
   0   2   8 423.777 11.6451   6
   0   2   8 445.223 12.4824  12
   0   2  -8 408.914 11.6499   7
   0   2  -8 419.729 12.4790  14
   0   2  -8 432.934 13.0088   2
   0   2   8 406.850 16.1713  10
  -2  -2  -8 761.234 19.6531   2
  -2  -2  -8 743.588 18.7994  14
  -2  -2  -8 747.574 19.6864   8
   2  -2   8 771.132 16.6805   6
   2  -2   8 747.957 19.2255  12
   2  -2   8 699.740 19.3577   9
   2   2   8 735.143 21.0472   9
  -2   2  -8 739.242 17.7328   4
   2   2   8 759.106 18.5281   1
   2   2   8 738.082 18.0945   6
  -2   2  -8 756.803 19.9203   8
  -2   2  -8 756.484 19.1512  14
  -2   2  -8 766.316 19.8699   2
   4  -2   8 431.880 14.8163   9
   4  -2   8 457.570 11.2477   6
  -4  -2  -8 449.639 14.4388   2
  -4  -2  -8 450.572 13.5802  14
  -4  -2  -8 444.381 14.6772   8
  -4   2  -8 437.335 13.5243  14
   4   2   8 446.370 16.3107   9
  -4   2  -8 442.668 14.3782   2
   4   2   8 456.396 13.0518   6
   4   2   8 430.193 12.6569   1
  -4   2  -8 468.757 14.9796   8
  11  -3  -8 0.35989 2.18591   1
 -11  -3   8 5.35731 2.34050  12
 -11  -3   8 -0.1431 1.28409   8
  11  -3  -8 3.61204 2.77168  11
  11   3  -8 1.79179 1.89130   1
  11   3  -8 3.84608 2.62434  11
 -11   3   8 0.44182 2.39755   5
 -11   3   8 0.95375 1.23767  12
   9  -3  -8 84.6819 5.73799   1
   9  -3  -8 90.0562 7.40728  13
  -9  -3   8 83.5941 5.24847  12
  -9  -3   8 92.0005 5.84937   1
   9   3  -8 95.2792 6.17500   1
  -9   3   8 91.5713 6.09526   9
  -9   3   8 86.5638 4.83327  12
   7  -3  -8 12.1326 2.69997   1
   7  -3  -8 13.9089 3.52513  13
  -7  -3   8 11.9573 2.26264   1
  -7  -3   8 10.4116 2.17279  12
  -7   3   8 10.5665 2.01221  12
  -7   3   8 10.9418 2.54361   9
   7   3  -8 16.5250 2.44059   4
  -7   3   8 11.6098 2.22988   1
   7   3  -8 13.6044 2.69711   1
   5  -3  -8 16.7634 2.38465  14
   5  -3  -8 24.6221 2.98134   1
  -5  -3   8 24.1239 2.68517   6
  -5  -3   8 20.0635 3.41496  10
  -5  -3   8 19.7030 2.61051   1
  -5  -3   8 20.1692 2.60491  12
   5  -3  -8 21.9550 3.34570  13
   5   3  -8 25.3429 2.88383   1
   5   3  -8 24.4530 2.76374  14
  -5   3   8 27.1056 3.44833   9
   5   3  -8 17.2573 3.18343   7
  -5   3   8 24.2920 2.95927   1
  -5   3   8 20.9052 3.58836  10
   5   3  -8 23.1453 2.70914   4
  -5   3   8 21.8518 2.49636  12
   3  -3  -8 20.2209 2.92065  13
  -3  -3   8 12.8184 1.97020   6
  -3  -3   8 13.8361 2.69593  10
   3  -3  -8 12.3010 1.95407   1
   3  -3  -8 12.1160 2.16227  14
  -3  -3   8 11.8421 2.23392  12
   3  -3  -8 23.7336 2.31098   2
  -3   3   8 13.8891 2.37493   1
   3   3  -8 14.6019 2.15489   4
  -3   3   8 16.7279 2.25282  12
  -3   3   8 12.6460 1.93506   6
   3   3  -8 15.0888 2.45709  14
  -3   3   8 15.9580 3.25866  10
  -3   3   8 17.0444 2.66001   9
   3   3  -8 13.5510 2.45468   7
   1  -3  -8 69.8605 3.90598   4
   1  -3  -8 63.7760 4.27913   2
  -1  -3   8 68.9323 4.14944  12
  -1  -3   8 66.7803 3.74083   1
   1  -3  -8 64.9311 4.38094  14
  -1  -3   8 61.9113 5.42231  10
  -1   3   8 63.8902 3.93366   6
  -1   3   8 69.1960 4.29862  12
   1   3  -8 70.6937 4.12088   4
   1   3  -8 64.6450 4.31537   7
   1   3  -8 64.1515 4.69310   2
  -1   3   8 60.4459 5.86712  10
   1   3  -8 61.5040 4.48957  14
  -1   3   8 65.9574 4.56614   1
  -1   3   8 64.5432 4.78056   9
   1  -3   8 18.8840 2.05326   1
   1  -3   8 19.5581 4.06321  10
  -1  -3  -8 15.9003 2.71812   8
   1  -3   8 16.4890 1.98076   6
   1  -3   8 13.8390 2.67536  12
  -1  -3  -8 12.4647 2.45210  14
   1  -3   8 15.8553 2.61495   9
  -1  -3  -8 13.5320 1.96555   4
  -1  -3  -8 17.4897 3.07754   2
  -1   3  -8 20.8731 2.73916   4
   1   3   8 17.9783 3.55849   9
  -1   3  -8 18.1613 3.31802   2
   1   3   8 15.4156 2.49522   1
   1   3   8 16.0174 2.44660   6
  -1   3  -8 17.2765 2.93651  14
   1   3   8 19.0236 2.99837  12
  -3  -3  -8 41.3544 4.64537   8
   3  -3   8 44.9191 2.71784   6
  -3  -3  -8 46.0244 4.26815  14
  -3  -3  -8 41.6480 4.10344   2
   3  -3   8 48.5466 4.46206  12
   3   3   8 40.9067 5.14891   9
  -3   3  -8 38.3848 4.10460  14
   3   3   8 42.9180 3.90339   6
  -3   3  -8 44.0206 4.75497   2
   3   3   8 43.3069 3.96487   1
  -3   3  -8 49.1548 3.56573   4
   5  -3   8 9.19116 1.56952   6
  -5  -3  -8 11.8294 2.81562   2
  -5  -3  -8 14.1987 3.56926   8
   5  -3   8 5.05417 2.31977  12
  -5   3  -8 7.16902 2.58324   2
   5   3   8 6.34131 2.06669   1
   5   3   8 12.4319 2.63622   6
   5   3   8 5.77655 2.79297   9
  -5   3  -8 9.75865 2.93442   8
  10  -4  -8 889.051 23.2297   1
 -10  -4   8 827.164 21.3253  12
 -10  -4   8 859.248 22.2964   1
  10   4  -8 864.674 23.8013   1
  10   4  -8 867.145 26.2074   7
 -10   4   8 876.381 23.1664   5
  -8  -4   8 54.5219 4.32287  12
   8  -4  -8 55.4582 4.95781   1
  -8  -4   8 65.0303 4.69302   1
   8  -4  -8 61.9793 6.50103  13
  -8   4   8 57.1406 5.04543   9
   8   4  -8 75.2702 6.16070   7
   8   4  -8 65.0199 5.25433   1
  -8   4   8 61.5688 3.95005  12
  -6  -4   8 2169.88 43.1895  12
  -6  -4   8 2188.93 44.6906   1
   6  -4  -8 2151.03 47.6703  13
   6  -4  -8 2112.34 42.5614  14
  -6  -4   8 2188.87 43.0008   6
   6  -4  -8 2229.45 45.1388   1
  -6   4   8 2158.70 48.7560  10
   6   4  -8 2143.89 43.7194   1
   6   4  -8 2183.75 46.7747   7
   6   4  -8 2029.15 42.2329  14
  -6   4   8 2191.25 44.0450   1
  -6   4   8 2222.64 42.2523  12
   6   4  -8 2152.59 43.3912   4
  -6   4   8 2168.02 44.7806   9
  -4  -4   8 323.316 9.49086   6
  -4  -4   8 322.932 9.62257  12
  -4  -4   8 295.590 11.4305  10
   4  -4  -8 331.299 10.5387   1
  -4  -4   8 319.607 10.2748   1
   4  -4  -8 296.738 9.64161  14
   4  -4  -8 323.761 11.6804  13
   4   4  -8 304.709 9.82482   4
  -4   4   8 317.986 9.14987  12
   4   4  -8 313.715 10.0723  14
  -4   4   8 330.450 10.4229   1
  -4   4   8 314.131 10.6898   9
  -4   4   8 305.228 12.4256  10
   4   4  -8 315.725 11.3049   7
   2  -4  -8 2083.43 41.8580   2
   2  -4  -8 2126.32 42.4522  14
  -2  -4   8 2090.25 40.9924   6
  -2  -4   8 2102.74 41.9204  12
  -2  -4   8 2103.45 41.6543   1
   2  -4  -8 1998.37 41.6919   1
   2  -4  -8 2168.58 43.7203  13
   2   4  -8 2082.56 43.4977   7
  -2   4   8 2119.24 43.8010   9
  -2   4   8 2085.69 41.6278   6
   2   4  -8 2174.10 43.3758  14
   2   4  -8 2099.12 42.1034   4
  -2   4   8 2010.66 46.9945  10
  -2   4   8 2078.34 43.1606   1
  -2   4   8 2116.05 41.5494  12
   0  -4   8 150.687 5.42037   6
   0  -4  -8 132.675 6.34303   8
   0  -4  -8 152.094 6.60851  14
   0  -4   8 135.658 5.25842   1
   0  -4  -8 150.336 5.77768   4
   0  -4   8 142.390 6.26904  12
   0  -4  -8 154.382 6.98529   2
   0   4  -8 148.183 7.00352   7
   0   4   8 137.030 6.18303  12
   0   4  -8 147.227 7.36577   2
   0   4  -8 147.708 6.89711  14
   0   4   8 141.379 7.71641   9
   0   4   8 149.202 6.47047   6
   0   4  -8 143.093 6.24640   4
   0   4   8 148.772 7.13925   1
  -2  -4  -8 716.520 19.6536   8
  -2  -4  -8 757.225 19.7946   2
  -2  -4  -8 735.741 19.0861  14
   2  -4   8 737.176 19.0302  12
   2  -4   8 737.202 16.1362   6
   2   4   8 772.157 21.9466   9
  -2   4  -8 736.094 18.4308   4
  -2   4  -8 755.264 20.2913   2
  -2   4  -8 755.000 19.7428  14
   2   4   8 750.143 19.0929   6
   2   4   8 746.869 19.6182   1
  -4  -4  -8 26.8091 3.90486   8
  -4  -4  -8 21.9820 3.36817  14
   4  -4   8 27.7494 2.10096   6
   4  -4   8 20.1545 3.21900  12
  -4  -4  -8 31.2924 4.53776   2
   4   4   8 25.1572 4.96763   9
   4   4   8 25.7850 3.62873   6
  -4   4  -8 22.7834 3.56363  14
  -4   4  -8 21.0079 3.59846   2
   4   4   8 25.5170 3.38417   1
 -11  -5   8 255.656 10.1225  12
 -11  -5   8 224.834 9.78883   8
  11  -5  -8 240.016 10.4647   1
  11   5  -8 226.009 12.4197   7
  11   5  -8 262.449 11.8418   1
 -11   5   8 242.840 11.0413   5
  -9  -5   8 80.6441 5.06805  12
   9  -5  -8 83.3744 6.15820   1
  -9  -5   8 88.3171 6.18160   1
   9  -5  -8 73.6399 7.12152  13
   9   5  -8 80.5061 6.31557   1
  -9   5   8 83.5092 6.14849   9
   9   5  -8 90.7005 7.63684   7
  -9   5   8 100.820 7.33427   3
  -7  -5   8 429.991 13.4791   1
   7  -5  -8 399.873 15.7475  13
  -7  -5   8 406.837 11.9910  12
   7  -5  -8 408.703 13.4498   1
  -7   5   8 401.433 12.2013   1
   7   5  -8 403.372 12.0303   4
   7   5  -8 410.797 14.8714   7
   7   5  -8 414.344 12.9638   1
  -7   5   8 412.287 13.3368   9
  -7   5   8 411.127 11.0595  12
  -5  -5   8 143.481 6.03885  12
   5  -5  -8 157.359 6.58415  14
  -5  -5   8 153.450 6.40792   6
   5  -5  -8 141.932 8.16937  13
   5  -5  -8 157.758 7.40803   1
  -5  -5   8 156.514 7.20083   1
  -5   5   8 157.696 5.82255  12
  -5   5   8 148.080 8.47349  10
   5   5  -8 162.377 8.12424   7
  -5   5   8 155.710 7.21333   9
   5   5  -8 157.850 6.62714  14
  -5   5   8 163.395 7.16138   1
   5   5  -8 154.007 6.83349   4
   3  -5  -8 115.679 5.78129   1
   3  -5  -8 99.4548 6.07527  13
   3  -5  -8 106.752 5.59182  14
  -3  -5   8 103.623 4.95773   6
  -3  -5   8 102.123 5.13156  12
  -3  -5   8 101.343 5.11841   1
  -3   5   8 94.7520 4.60741  12
   3   5  -8 94.4126 5.56165  14
  -3   5   8 98.3886 5.56461   1
  -3   5   8 101.873 6.98379  10
  -3   5   8 114.383 6.39144   9
   3   5  -8 96.2200 5.94328   7
   3   5  -8 105.483 5.39600   4
   1  -5  -8 227.316 8.43738  14
  -1  -5   8 226.794 7.33803   6
  -1  -5   8 213.878 7.34202   1
   1  -5  -8 216.096 8.26484   2
  -1  -5   8 210.369 7.89366  12
   1  -5  -8 224.151 7.61487   4
  -1   5   8 230.997 9.31692   1
   1   5  -8 226.036 9.17957   7
  -1   5   8 215.243 7.97243   6
  -1   5   8 222.766 7.91145  12
   1   5  -8 221.230 9.13356  14
  -1   5   8 234.894 9.52364   9
   1   5  -8 232.980 8.40260   4
  -1  -5  -8 4.78013 2.17936   2
  -1  -5  -8 5.49778 1.84362  14
  -1  -5  -8 1.87909 1.70291   8
   1  -5   8 6.86714 1.47482   6
   1  -5   8 4.72690 1.55888  12
  -1   5  -8 5.08379 1.78990   4
  -1   5  -8 3.46693 2.27967   2
   1   5   8 4.26454 1.91775   6
  -1   5  -8 3.80201 2.00034   7
  -1   5  -8 7.53198 2.44545  14
   1   5   8 5.92020 2.32125   1
   1   5   8 4.11058 1.96243  12
   1   5   8 3.09028 2.48463   9
   3  -5   8 48.7909 4.39497  12
   3  -5   8 47.4299 2.65161   6
  -3  -5  -8 48.0840 5.26886   8
  -3  -5  -8 46.3130 5.16664   2
  -3  -5  -8 53.3571 4.33786  14
   3   5   8 48.3285 4.52343   6
   3   5   8 45.9327 4.54231   1
  -3   5  -8 56.6065 5.76903   2
  -3   5  -8 48.0020 4.70170  14
   3   5   8 50.0041 6.26821   9
  -3   5  -8 51.2716 3.98166   4
 -10  -6   8 58.6409 5.08117  12
 -10  -6   8 63.9800 5.62985   8
  10  -6  -8 69.5851 5.90237   1
 -10  -6   8 65.3235 5.63216   1
  10   6  -8 65.5653 5.72095   1
  10   6  -8 67.0247 7.05562   7
 -10   6   8 66.8803 5.55106   5
 -10   6   8 40.4641 6.26631   3
   8  -6  -8 1010.18 25.6852   1
  -8  -6   8 1011.99 23.8638  12
   8  -6  -8 997.656 29.8406  13
  -8  -6   8 1057.27 25.8928   1
  -8   6   8 1034.68 25.7956   9
   8   6  -8 1013.58 27.9362   7
   8   6  -8 1017.70 25.3877   1
   6  -6  -8 11.2766 2.77647   1
  -6  -6   8 11.8131 2.33500  12
  -6  -6   8 7.96468 2.02833   6
  -6  -6   8 11.9873 2.81179   1
   6  -6  -8 9.00894 2.12643  14
   6  -6  -8 12.9547 3.57307  13
  -6   6   8 8.45379 2.59563   9
  -6   6   8 10.0618 2.40117   1
   6   6  -8 10.1881 2.31457   4
  -6   6   8 8.69249 2.07039   3
   6   6  -8 10.8060 2.79877   7
   4  -6  -8 1143.49 25.5190  14
  -4  -6   8 1147.23 25.8666   1
   4  -6  -8 1109.18 26.2231   1
  -4  -6   8 1080.80 24.2359  12
  -4  -6   8 1115.79 24.7625   6
  -4   6   8 958.900 24.9569  12
  -4   6   8 1173.99 26.4068   1
  -4   6   8 1118.06 26.5870   9
   4   6  -8 1126.66 25.6057   4
   4   6  -8 1106.30 25.8480  14
   4   6  -8 1141.35 27.8004   7
  -2  -6   8 15.9594 2.26931   6
   2  -6  -8 13.7962 2.72692  14
  -2  -6   8 17.1306 2.48809  12
   2  -6  -8 12.0244 2.09486   2
   2  -6  -8 9.05542 2.25615   1
  -2  -6   8 14.5331 2.37047   1
   2   6  -8 13.7096 3.09990   7
  -2   6   8 13.7262 2.87458   1
   2   6  -8 14.3891 2.60532   4
   2   6  -8 13.8510 2.64731  14
  -2   6   8 13.2487 3.09634   9
  -2   6   8 15.4649 2.28302  12
   0  -6  -8 1163.44 26.8813  14
   0  -6  -8 1066.69 25.6072   8
   0  -6   8 1157.72 24.4298   6
   0  -6  -8 1159.53 25.0009   4
   0  -6  -8 1184.30 26.9434   2
   0   6   8 1169.07 28.8950   9
   0   6   8 1141.76 26.4981   6
   0   6  -8 1190.94 26.9760   4
   0   6   8 1163.87 25.8350  12
   0   6  -8 1174.18 28.3892   7
   0   6   8 1187.18 28.3673   1
   0   6  -8 1174.48 28.0228  14
   2  -6   8 68.3556 3.40805   6
  -2  -6  -8 75.6926 5.46597  14
  -2  -6  -8 66.9793 5.19510   8
  -2  -6  -8 73.2333 5.63171   2
   2   6   8 73.5598 6.57776   9
   2   6   8 65.9661 5.15363   6
  -2   6  -8 68.4311 4.74537   4
  -2   6  -8 66.3911 5.58125  14
   2   6   8 66.8097 5.28418   1
  -4  -6  -8 746.072 19.8573  14
  -4  -6  -8 810.331 21.7965   8
   4  -6   8 763.363 15.7710   6
  -4  -6  -8 773.745 21.3158   2
  -4   6  -8 764.516 20.6592  14
   4   6   8 749.130 21.1386   1
   4   6   8 774.148 24.0689   9
   9  -7  -8 9.22179 2.97042   1
  -9  -7   8 5.06686 2.35244  12
  -9  -7   8 8.80273 3.10985   1
  -9   7   8 7.38400 2.12930   3
   9   7  -8 4.72446 3.17655   7
  -9   7   8 6.07771 2.29957   5
   7  -7  -8 49.8905 6.57909  13
   7  -7  -8 49.9404 5.08222   1
  -7  -7   8 50.6306 5.09817   1
  -7  -7   8 45.8060 3.89820  12
  -7   7   8 53.3944 4.71392   9
   7   7  -8 47.4134 5.86090   7
  -7   7   8 49.4499 4.29787   3
   5  -7  -8 9.45593 2.71866  13
  -5  -7   8 8.67494 2.01189  12
   5  -7  -8 10.6579 2.56411   1
  -5  -7   8 10.1826 2.63826   1
   5  -7  -8 9.49968 2.37387  14
  -5  -7   8 9.50541 2.24602   6
   5   7  -8 11.1640 3.24059   7
  -5   7   8 21.3242 3.35709   1
  -5   7   8 9.97502 2.21858   3
   5   7  -8 11.2100 2.52872   4
  -5   7   8 15.3055 3.11153   9
  -3  -7   8 26.7459 3.41486   1
  -3  -7   8 34.9577 3.37752   6
   3  -7  -8 30.7445 3.73191  14
   3  -7  -8 23.6979 3.59718  13
   3  -7  -8 36.1912 4.11124   1
  -3   7   8 32.1803 3.89133   1
  -3   7   8 30.7773 3.42932   3
   3   7  -8 30.1696 3.79991   4
   3   7  -8 40.6094 4.39589  14
  -3   7   8 31.7263 3.98138   9
   3   7  -8 31.2616 4.40514   7
   1  -7  -8 139.046 6.73092   2
   1  -7  -8 145.061 7.29867  14
  -1  -7   8 151.430 6.13170   6
  -1  -7   8 147.004 6.12371   1
   1   7  -8 153.228 8.44140   7
  -1   7   8 147.944 8.03015   1
   1   7  -8 145.802 7.36470   4
  -1   7   8 144.347 7.83959   9
   1   7  -8 156.948 8.19025  14
   1  -7   8 17.9929 2.25995   6
  -1  -7  -8 13.9258 3.09039  14
  -1  -7  -8 15.9987 3.23216   2
   1   7   8 16.9388 3.63520   1
  -1   7  -8 26.0036 4.14642  14
  -1   7  -8 16.1441 2.91858   4
  -1   7  -8 15.9517 3.52384   7
   1   7   8 15.3640 2.43633  12
   1   7   8 17.6994 4.01807   9
   3  -7   8 110.344 4.24542   6
  -3  -7  -8 115.468 7.01969   8
  -3  -7  -8 115.059 6.86107  14
  -3  -7  -8 111.745 7.15603   2
   3   7   8 110.183 7.39127   1
  -3   7  -8 110.231 6.50175   4
  -3   7  -8 106.875 7.08715  14
   3   7   8 124.345 8.97908   9
  -8  -8   8 539.657 17.3242   1
   8  -8  -8 573.381 17.7496   1
  -8   8   8 570.462 17.3742   9
   8   8  -8 564.929 19.6366   7
   6  -8  -8 233.757 12.1006  13
   6  -8  -8 246.365 10.6908   1
   6  -8  -8 238.846 10.9717  14
  -6  -8   8 255.635 10.5810   1
   6   8  -8 255.042 11.8742   7
  -6   8   8 239.254 10.2087   9
   6   8  -8 253.209 9.53875   4
  -6   8   8 222.780 8.86085   3
   4  -8  -8 901.460 22.3874  14
   4  -8  -8 898.112 23.2808   1
  -4  -8   8 855.243 21.3454   6
  -4  -8   8 884.876 22.3648   1
   4  -8  -8 875.127 24.4252  13
  -4   8   8 856.869 21.3211   3
   4   8  -8 892.531 24.5986   7
  -4   8   8 872.168 22.4001   1
   4   8  -8 869.658 22.1378   4
  -4   8   8 883.706 22.9019   9
   2  -8  -8 324.716 11.8588   1
  -2  -8   8 373.325 11.1756   1
  -2  -8   8 328.326 10.5747   6
   2  -8  -8 324.462 11.6854  14
   2   8  -8 333.014 13.4956   7
  -2   8   8 323.494 12.4093   9
   2   8  -8 321.026 11.6077   4
  -2   8   8 328.138 12.4200   1
  -2   8   8 305.732 10.7528   3
   0  -8  -8 510.683 15.6984  14
   0  -8   8 504.842 13.4787   6
   0  -8  -8 525.308 15.3861   2
   0   8   8 523.752 16.9403   1
   0   8   8 537.304 17.4566   9
   0   8  -8 527.070 17.4657   7
   0   8  -8 534.077 16.0118   4
   0   8  -8 514.143 16.8341  14
  -2  -8  -8 151.999 8.11686   2
   2  -8   8 153.403 5.61470   6
  -2  -8  -8 151.912 7.99351  14
   2   8   8 164.405 9.14500   1
  -2   8  -8 143.350 8.71983   7
   2   8   8 163.388 9.97159   9
  -2   8  -8 144.123 7.81214   4
  -7  -9   8 -0.2793 2.36490   1
   7  -9  -8 3.12758 2.78497   1
  -7   9   8 2.60410 2.35255   9
   7   9  -8 1.68307 2.71018   7
  -7   9   8 1.74671 1.96366   3
  -5  -9   8 26.1600 3.58947   6
   5  -9  -8 26.9745 3.92142  14
  -5  -9   8 23.9858 3.68944   1
   5  -9  -8 29.2104 4.38683   1
   5   9  -8 21.6738 3.45217   4
   5   9  -8 23.9196 4.57260   7
  -5   9   8 28.0173 4.07869   9
  -5   9   8 24.4300 3.53579   3
   3  -9  -8 31.2732 4.30401  14
  -3  -9   8 24.3363 3.43763   1
   3  -9  -8 37.7202 4.48745   1
  -3  -9   8 30.1328 3.65539   6
   3   9  -8 33.7674 5.15746   7
   3   9  -8 30.3508 3.93299   4
  -3   9   8 31.9640 3.79915   3
  -3   9   8 26.9389 3.91875   1
  -3   9   8 27.1848 4.25157   9
  -1  -9   8 14.2682 2.48791   1
  -1  -9   8 11.7678 2.37153   6
   1  -9  -8 12.2647 2.77775  14
  -1   9   8 9.49105 2.70648   3
  -1   9   8 5.77013 2.82875   9
   1   9  -8 10.2929 3.10631   4
  -1   9   8 15.4637 3.23633   1
   1   9  -8 11.1589 3.61730   7
   1  -9   8 64.1168 4.01008   6
  -1  -9  -8 71.6628 5.54228   2
  -1  -9  -8 67.8334 5.81776  14
  -1   9  -8 63.7694 6.07703   7
  -1   9  -8 57.6807 5.52693   4
   1   9   8 59.3692 6.50320   9
   1   9   8 62.3905 6.34972   1
   6 -10  -8 532.295 17.3266   1
  -6 -10   8 539.166 17.4709   1
   6  10  -8 515.896 18.8865   7
  -6  10   8 546.399 16.8427   9
  -6  10   8 502.347 15.6668   3
  -4 -10   8 24.1667 3.70355   1
   4 -10  -8 23.8720 3.89267   1
  -4 -10   8 24.9932 3.62827   6
   4 -10  -8 19.5534 3.64007  14
  -4  10   8 16.7386 3.15510   3
   4  10  -8 25.7248 4.85650   7
  -4  10   8 15.8590 3.29776   9
   4  10  -8 21.0804 3.48870   4
  -2 -10   8 621.082 17.1902   6
  -2 -10   8 629.818 17.2984   1
   2 -10  -8 661.533 19.0379  14
   2 -10  -8 635.216 19.0920   1
  -2  10   8 634.514 19.2371   1
   2  10  -8 653.638 19.0853   4
  -2  10   8 592.685 17.8241   3
   2  10  -8 627.516 21.0628   7
  -2  10   8 629.207 18.8946   9
   0 -10  -8 15.2842 3.06862  14
   0 -10   8 14.9321 2.69825   6
   0  10   8 12.8812 3.59842   9
   0  10   8 17.0304 3.53302   3
   0  10   8 13.1535 3.69401   1
   0  10  -8 18.3562 3.79917   4
   0  10  -8 15.6583 4.04590   7
  -3 -11   8 43.8265 4.44490   6
  -3 -11   8 47.6419 4.71508   1
   3 -11  -8 43.6902 5.17185   1
   3 -11  -8 45.4022 5.12243  14
   3  11  -8 39.1163 5.95826   7
   3  11  -8 44.7093 5.00753   4
 -12   0   9 0.87180 1.92777  12
  12   0  -9 -0.8115 2.43820   1
 -12   0   9 0.92582 2.39240   5
  10   0  -9 0.17110 2.60976  13
  10   0  -9 3.39221 2.73319   1
 -10   0   9 1.68985 1.41566  12
  -8   0   9 0.22414 1.49540  12
   8   0  -9 0.61977 2.25259  13
  -8   0   9 1.92473 1.85093   9
   8   0  -9 0.24474 1.35443   1
  -8   0   9 -0.4373 1.48816   1
   8   0  -9 1.59659 1.33562   4
   6   0  -9 1.44082 1.19488   4
   6   0  -9 0.08122 0.89706   1
   6   0  -9 1.71238 1.18512  14
  -6   0   9 0.26057 1.93787  10
  -6   0   9 1.39711 1.51301   1
  -6   0   9 -0.6324 1.39764  12
   6   0  -9 0.59474 1.43856  13
   4   0  -9 0.92843 1.33069  14
   4   0  -9 9.47430 1.82091   2
  -4   0   9 1.34563 1.47101   1
  -4   0   9 1.76342 1.55086  12
  -4   0   9 2.21123 2.07853  10
  -4   0   9 2.39956 1.57699   9
  -4   0   9 0.96321 1.17602   6
   4   0  -9 1.04301 1.42272   4
   4   0  -9 8.25509 2.13932   7
  -2   0   9 1.25861 1.58562   9
  -2   0   9 -0.2671 0.80411   1
  -2   0   9 0.00279 1.03224   6
   2   0  -9 -0.7557 0.87694   2
   2   0  -9 -0.0109 1.00788   7
   2   0  -9 11.6999 2.42269  14
  -2   0   9 2.50209 1.73611  10
   2   0  -9 0.97035 1.40813   4
  -2   0   9 0.70503 1.51050  12
   0   0  -9 3.89833 1.73584   2
   0   0   9 0.88363 1.22092   6
   0   0   9 1.66124 1.77034   9
   0   0  -9 1.46815 1.07187   4
   0   0   9 0.55758 1.22565   1
   0   0  -9 0.20066 1.55693  14
   0   0   9 0.41936 1.17653  12
   2   0   9 -0.1081 1.06290   1
  -2   0  -9 0.76148 2.17454   8
   2   0   9 1.80046 1.30790   6
  -2   0  -9 0.40914 1.37346   2
   2   0   9 0.66644 2.36621   9
  -2   0  -9 0.53696 1.28954  14
   2   0   9 11.8091 2.91365  12
  -4   0  -9 0.44149 2.16451   2
   4   0   9 1.93039 2.15407  12
   4   0   9 0.83892 2.63890   9
  -4   0  -9 0.19746 1.74457  14
  -4   0  -9 0.18896 2.30876   8
   4   0   9 0.84917 1.50544   6
 -11  -1   9 265.598 10.2291  12
  11  -1  -9 263.008 11.6431   1
 -11  -1   9 283.626 10.2734   8
 -11   1   9 274.771 11.2059   5
  11   1  -9 261.877 11.7073   1
 -11   1   9 280.981 10.1547  12
  -9  -1   9 505.080 15.0209   1
   9  -1  -9 479.355 18.3746  13
   9  -1  -9 519.855 16.0371   1
   9  -1  -9 504.704 14.5045   4
  -9  -1   9 512.783 14.4627  12
  -9   1   9 503.512 15.3132   9
   9   1  -9 517.472 16.1811   1
   9   1  -9 472.271 17.9754  13
   9   1  -9 484.603 13.8659   4
  -9   1   9 488.958 14.5572   1
  -9   1   9 507.171 14.1502  12
   7  -1  -9 496.545 14.6523   1
  -7  -1   9 485.871 13.8596   9
  -7  -1   9 492.702 13.4502  12
   7  -1  -9 489.562 13.8803   4
  -7  -1   9 492.465 14.4278   1
   7  -1  -9 485.835 16.9860  13
  -7   1   9 484.120 14.2413   9
   7   1  -9 470.060 13.5486   4
   7   1  -9 484.314 16.7996  13
  -7   1   9 496.886 14.3728   1
  -7   1   9 479.750 13.1783  12
   7   1  -9 489.062 14.3715   1
   5  -1  -9 760.865 18.8037   1
  -5  -1   9 805.480 18.7763  12
  -5  -1   9 745.100 22.2637  10
   5  -1  -9 769.824 17.5308   2
   5  -1  -9 772.892 21.3299  13
   5  -1  -9 779.931 18.7495   4
  -5  -1   9 787.546 18.2294   6
   5  -1  -9 802.765 18.6741  14
  -5  -1   9 788.892 19.6199   1
  -5  -1   9 769.652 18.7482   9
   5   1  -9 768.401 18.5170  14
   5   1  -9 780.492 18.7348   4
  -5   1   9 807.654 18.6569  12
  -5   1   9 798.712 19.6688   1
  -5   1   9 793.019 18.3008   6
  -5   1   9 802.466 19.6492   9
   5   1  -9 709.310 18.4129   1
  -5   1   9 751.906 22.8015  10
   3  -1  -9 610.778 15.6623   7
   3  -1  -9 606.377 15.5555   2
  -3  -1   9 607.223 16.0241   1
   3  -1  -9 620.508 15.4682   4
   3  -1  -9 637.782 16.2299  14
  -3  -1   9 645.726 15.3802   6
  -3  -1   9 602.968 15.8562   9
  -3  -1   9 593.513 19.4222  10
  -3  -1   9 631.543 15.9726  12
   3   1  -9 598.957 16.0257  14
   3   1  -9 622.206 16.3433   7
  -3   1   9 621.870 15.7976  12
   3   1  -9 617.756 15.5245   4
   3   1  -9 608.739 15.9302   2
  -3   1   9 605.296 16.3742   9
  -3   1   9 578.348 19.5393  10
  -3   1   9 619.494 15.3176   6
  -3   1   9 610.457 16.2937   1
  -1  -1   9 530.883 14.1070   1
   1  -1  -9 548.131 13.9475   4
   1  -1  -9 537.032 15.0693   2
  -1  -1   9 499.827 21.1445  10
   1  -1  -9 532.885 14.7445  14
  -1  -1   9 531.045 14.8276  12
  -1  -1   9 498.269 14.8401   9
  -1  -1   9 530.281 13.5961   6
   1   1  -9 552.785 14.1288   4
  -1   1   9 522.026 13.8235   6
  -1   1   9 532.741 14.7198  12
   1   1  -9 536.818 15.0142  14
  -1   1   9 539.558 15.9646   9
   1   1  -9 544.096 15.3639   2
  -1   1   9 531.877 14.6348   1
   1  -1   9 478.154 14.4201  12
  -1  -1  -9 483.134 15.0627   8
  -1  -1  -9 482.354 12.7624   4
  -1  -1  -9 468.432 14.5074   2
   1  -1   9 467.303 12.6252   1
   1  -1   9 465.620 15.0076   9
  -1  -1  -9 478.961 14.1306  14
   1  -1   9 482.164 12.6521   6
   1   1   9 482.511 15.8289   9
  -1   1  -9 489.577 13.1956   4
  -1   1  -9 486.198 14.4033  14
   1   1   9 487.912 14.7441  12
  -1   1  -9 516.979 15.3672   2
   1   1   9 484.772 13.2957   6
   1   1   9 489.414 13.6152   1
  -3  -1  -9 214.976 8.95151  14
  -3  -1  -9 220.920 10.0914   8
   3  -1   9 217.071 7.52236   6
   3  -1   9 214.973 10.3497   9
   3  -1   9 214.963 9.49413  12
  -3  -1  -9 210.975 9.25225   2
  -3   1  -9 215.837 9.02445  14
  -3   1  -9 221.849 10.1333   8
  -3   1  -9 202.173 9.42027   2
   3   1   9 200.570 10.5545   9
   3   1   9 211.099 8.06559   6
   3   1   9 212.552 9.57636  12
 -12  -2   9 97.4589 6.78789   5
 -12  -2   9 109.238 6.28239   8
  12   2  -9 111.603 7.54511   1
 -12   2   9 110.714 7.59158   5
  10  -2  -9 91.7549 5.93496   4
  10  -2  -9 105.563 7.16071   1
 -10  -2   9 94.5701 5.85042   1
 -10  -2   9 103.651 6.17494  12
  10   2  -9 100.302 7.19406   1
 -10   2   9 101.961 5.73535  12
  -8  -2   9 175.496 7.83066   1
  -8  -2   9 175.734 7.52327  12
   8  -2  -9 152.373 9.20962  13
   8  -2  -9 188.252 8.61721   1
   8  -2  -9 169.224 7.69049   4
  -8   2   9 162.091 7.33488   1
  -8   2   9 158.521 7.90188   9
   8   2  -9 183.931 8.36266   1
   8   2  -9 164.558 7.16521   4
  -8   2   9 170.784 7.05111  12
  -6  -2   9 199.324 7.52371   9
   6  -2  -9 205.645 7.39800  14
  -6  -2   9 196.043 10.1085  10
   6  -2  -9 192.840 9.58133  13
  -6  -2   9 222.816 8.73955   1
  -6  -2   9 204.587 7.72638  12
   6  -2  -9 216.682 8.24739   4
  -6  -2   9 210.556 7.60071   6
   6  -2  -9 221.112 8.69672   1
  -6   2   9 209.542 7.54751  12
   6   2  -9 207.903 9.49202   7
  -6   2   9 208.098 8.46774   9
  -6   2   9 232.244 8.78319   1
   6   2  -9 210.774 7.99981   1
   6   2  -9 212.077 7.91180   4
   6   2  -9 199.096 7.21799  14
   4  -2  -9 166.083 6.73306   1
   4  -2  -9 165.771 6.97097  14
   4  -2  -9 168.286 6.27254   2
  -4  -2   9 159.661 8.96700  10
  -4  -2   9 170.717 6.55366   6
  -4  -2   9 170.684 6.99118  12
  -4  -2   9 171.938 7.20627   1
   4  -2  -9 163.459 6.82236   4
   4  -2  -9 174.799 8.44468  13
  -4  -2   9 159.570 6.43708   9
  -4   2   9 164.395 6.46954   6
   4   2  -9 168.971 7.74282   7
  -4   2   9 167.494 7.27260   1
   4   2  -9 161.083 6.98575  14
  -4   2   9 163.907 7.55494   9
  -4   2   9 165.826 9.43340  10
  -4   2   9 168.228 6.63508  12
   4   2  -9 170.073 6.90076   4
  -2  -2   9 249.577 11.7005  10
   2  -2  -9 253.487 9.09665  14
  -2  -2   9 251.094 8.14570   6
  -2  -2   9 250.825 8.65760   1
   2  -2  -9 237.804 8.71776   2
  -2  -2   9 256.065 9.11726  12
  -2  -2   9 251.727 8.75886   9
   2  -2  -9 253.184 8.30019   4
   2   2  -9 257.848 9.40605   2
  -2   2   9 236.873 9.61839   9
   2   2  -9 255.227 9.05318   7
   2   2  -9 247.368 8.47971   4
  -2   2   9 245.554 9.10151   1
  -2   2   9 246.431 8.79630  12
  -2   2   9 244.741 8.44968   6
   2   2  -9 240.118 8.95458  14
   0  -2   9 173.639 6.41815   6
   0  -2  -9 159.412 7.59300   2
   0  -2   9 170.913 7.53441  12
   0  -2  -9 158.811 7.69674   8
   0  -2  -9 168.049 6.57700   4
   0  -2   9 174.587 6.53624   1
   0  -2  -9 173.553 7.59192  14
   0  -2   9 163.397 7.54026   9
   0   2   9 168.432 8.37726   9
   0   2   9 175.780 7.79331  12
   0   2   9 177.295 7.17138   6
   0   2   9 182.833 7.67216   1
   0   2  -9 164.807 8.03814   2
   0   2  -9 171.797 7.70895  14
   0   2  -9 164.200 6.68007   4
  -2  -2  -9 138.536 7.70670   8
   2  -2   9 117.409 7.10608   9
  -2  -2  -9 121.298 6.80611   2
   2  -2   9 132.271 5.35817   6
  -2  -2  -9 126.861 6.79568  14
   2  -2   9 131.801 7.18313  12
   2   2   9 120.371 6.23351   1
  -2   2  -9 128.622 6.90414  14
  -2   2  -9 132.404 6.18872   4
   2   2   9 133.915 8.41038   9
   2   2   9 133.006 6.44802   6
   2   2   9 140.966 7.26469  12
  -2   2  -9 124.939 7.31090   2
  -4  -2  -9 127.658 7.19328   2
   4  -2   9 129.479 7.10365  12
   4  -2   9 115.759 5.02993   6
  -4  -2  -9 136.260 8.11855   8
   4  -2   9 120.214 8.19664   9
   4   2   9 115.257 8.59548   9
   4   2   9 119.835 6.35106   6
  -4   2  -9 132.328 6.79481  14
  -4   2  -9 112.655 6.83258   2
 -11  -3   9 29.3712 4.03883  12
  11  -3  -9 31.9805 4.68415   1
 -11  -3   9 30.0043 4.12974   8
 -11   3   9 24.0706 4.07295   5
  11   3  -9 29.1719 4.54394   1
 -11   3   9 25.7537 3.32696  12
   9  -3  -9 1046.07 26.0942   1
  -9  -3   9 984.263 24.1177  12
  -9  -3   9 1022.47 25.1915   1
   9  -3  -9 990.613 29.6700  13
  -9   3   9 1004.07 25.3649   9
  -9   3   9 1031.68 23.4213  12
   9   3  -9 1011.48 25.8665   1
   7  -3  -9 21.5644 3.42421   1
  -7  -3   9 22.1382 3.35209   1
   7  -3  -9 23.2784 4.34372  13
  -7  -3   9 23.9125 3.18605  12
   7   3  -9 23.6503 3.42367   1
   7   3  -9 23.2072 3.07145   4
  -7   3   9 25.7282 3.77717   9
   7   3  -9 21.0479 3.94140   7
  -7   3   9 22.8761 3.03819   1
  -7   3   9 20.5741 2.51541  12
  -5  -3   9 1549.78 33.4223   1
  -5  -3   9 1526.56 32.3729  12
   5  -3  -9 1523.00 32.3953  14
  -5  -3   9 1536.78 32.0081   6
   5  -3  -9 1482.54 35.3817  13
  -5  -3   9 1468.27 36.4174  10
   5  -3  -9 1528.04 33.2934   1
  -5   3   9 1573.15 33.6724   1
   5   3  -9 1569.89 32.6365   4
   5   3  -9 1518.41 34.7317   7
  -5   3   9 1591.04 32.0579  12
  -5   3   9 1566.47 33.9709   9
   5   3  -9 1458.14 32.3066  14
  -3  -3   9 84.1214 6.46039  10
  -3  -3   9 90.8073 4.69106   6
   3  -3  -9 103.958 5.29627   4
   3  -3  -9 80.8941 4.53527   2
   3  -3  -9 81.1212 4.82268  14
  -3  -3   9 83.9061 4.82470  12
   3  -3  -9 87.9029 5.78298  13
  -3  -3   9 87.0817 5.01098   1
  -3   3   9 86.0361 4.73391   6
  -3   3   9 89.4520 4.95606  12
   3   3  -9 87.2726 5.41004  14
  -3   3   9 89.2843 5.84054   9
   3   3  -9 83.2482 4.76742   4
  -3   3   9 85.6400 5.35947   1
   3   3  -9 86.0166 5.57611   7
   1  -3  -9 1405.46 29.2913   4
   1  -3  -9 1372.53 30.5418   2
  -1  -3   9 1366.77 29.1861   1
   1  -3  -9 1397.69 30.6331  14
  -1  -3   9 1350.77 30.2597  12
  -1  -3   9 1362.17 28.7778   6
  -1   3   9 1347.18 32.1416   9
   1   3  -9 1403.42 31.1514  14
   1   3  -9 1357.67 29.7310   4
  -1   3   9 1448.31 31.3671   1
   1   3  -9 1380.78 30.5166   7
  -1   3   9 1397.55 30.4087  12
   1   3  -9 1385.01 31.6899   2
  -1   3   9 1412.46 30.1621   6
  -1  -3  -9 135.692 7.38445   8
   1  -3   9 136.671 7.19780  12
   1  -3   9 138.014 5.64286   6
  -1  -3  -9 156.919 7.68451   2
  -1  -3  -9 138.990 7.10413  14
  -1   3  -9 139.781 7.01802  14
   1   3   9 153.486 7.00225   6
  -1   3  -9 146.635 6.65698   4
   1   3   9 139.555 7.29125  12
  -1   3  -9 142.187 7.74305   2
   1   3   9 142.482 8.49109   9
   1   3   9 134.146 7.03201   1
  -3  -3  -9 628.581 18.4158   2
   3  -3   9 644.083 14.9082   6
  -3  -3  -9 648.090 17.7348  14
   3  -3   9 626.821 17.8868  12
  -3  -3  -9 639.877 19.0082   8
  -3   3  -9 602.954 18.4060   2
   3   3   9 653.099 17.5351   6
   3   3   9 632.158 20.7620   9
   3   3   9 631.448 17.3881   1
  -3   3  -9 625.361 17.8840  14
 -10  -4   9 123.901 6.58928  12
 -10  -4   9 117.530 7.21985   1
  10  -4  -9 121.428 7.31485   1
  10   4  -9 114.025 8.99562   7
  10   4  -9 121.815 7.52524   1
 -10   4   9 119.875 5.95427  12
   8  -4  -9 284.696 13.4929  13
  -8  -4   9 262.356 9.74554  12
   8  -4  -9 286.518 11.2907   1
  -8  -4   9 290.856 11.1356   1
  -8   4   9 286.702 9.08293  12
   8   4  -9 269.402 9.49550   4
   8   4  -9 300.194 11.0998   1
  -8   4   9 279.617 10.5777   1
   8   4  -9 275.953 12.5851   7
  -8   4   9 262.320 10.6967   9
  -6  -4   9 356.386 11.9856   1
   6  -4  -9 354.172 10.7590  14
   6  -4  -9 358.533 12.1006   1
   6  -4  -9 348.797 13.8451  13
  -6  -4   9 349.424 10.7637   6
  -6  -4   9 345.263 10.8928  12
   6   4  -9 350.929 11.0856   4
   6   4  -9 339.904 10.5851  14
  -6   4   9 352.303 11.6627   1
  -6   4   9 336.792 11.9085   9
  -6   4   9 351.537 10.3659  12
   6   4  -9 339.113 12.8304   7
  -4  -4   9 223.538 8.54788   1
  -4  -4   9 229.031 8.07887   6
  -4  -4   9 228.108 8.39305  12
   4  -4  -9 227.052 8.58293  14
   4  -4  -9 212.944 8.49600   1
   4  -4  -9 226.574 9.88514  13
   4   4  -9 238.381 9.86141   7
  -4   4   9 219.356 7.70590  12
   4   4  -9 228.575 8.45802   4
  -4   4   9 228.267 9.11080   1
   4   4  -9 218.392 8.61251  14
  -4   4   9 233.043 9.56599   9
   2  -4  -9 350.359 10.6132   4
  -2  -4   9 354.706 10.6852   1
   2  -4  -9 335.339 10.8227   2
  -2  -4   9 338.087 11.0182  12
   2  -4  -9 353.085 11.3383  14
  -2  -4   9 357.486 10.3860   6
   2   4  -9 348.488 11.8996  14
   2   4  -9 343.637 11.7304   7
   2   4  -9 349.859 11.2445   4
  -2   4   9 358.745 11.0154   6
  -2   4   9 361.379 12.0343   1
  -2   4   9 356.594 10.9502  12
  -2   4   9 338.225 12.4406   9
   0  -4  -9 144.068 7.24771   2
   0  -4  -9 145.483 6.00829   4
   0  -4  -9 145.427 6.91626  14
   0  -4   9 138.364 6.91649  12
   0  -4   9 132.824 5.43521   1
   0  -4   9 142.713 5.72833   6
   0  -4  -9 130.859 6.62804   8
   0   4   9 136.638 6.67115  12
   0   4  -9 141.673 6.49860   4
   0   4   9 145.401 7.52981   1
   0   4  -9 140.421 7.37091  14
   0   4   9 136.537 6.71555   6
   0   4  -9 135.828 7.33801   2
   0   4  -9 134.603 6.85475   7
   0   4   9 141.662 8.49450   9
  -2  -4  -9 91.3588 6.00636   2
   2  -4   9 94.1885 4.40564   6
  -2  -4  -9 95.8111 6.19193  14
  -2  -4  -9 89.7619 6.07781   8
   2  -4   9 102.364 6.30919  12
   2   4   9 98.5123 6.42445  12
   2   4   9 100.413 6.29052   1
   2   4   9 98.4951 5.96505   6
  -2   4  -9 95.5491 6.71767   2
   2   4   9 93.1159 7.66426   9
  -2   4  -9 92.5133 5.83556  14
  -2   4  -9 95.3329 5.61941   4
   4  -4   9 66.1539 5.35276  12
  -4  -4  -9 71.4295 5.05996  14
  -4  -4  -9 62.8951 5.49124   8
   4  -4   9 69.7373 3.42181   6
  -4  -4  -9 69.1129 5.92815   2
  -4   4  -9 59.5090 5.66426   2
   4   4   9 77.5392 5.59015   6
   4   4   9 58.9583 6.86933   9
  -4   4  -9 60.8727 5.22909  14
   4   4   9 68.2903 5.19092   1
 -11  -5   9 291.357 11.3425   8
  11  -5  -9 284.882 12.0752   1
 -11  -5   9 287.086 11.1165  12
 -11   5   9 294.368 12.3623   5
  11   5  -9 285.341 12.3171   1
  11   5  -9 275.347 14.0152   7
  -9  -5   9 388.111 13.6833   1
   9  -5  -9 384.845 13.7439   1
  -9  -5   9 367.756 12.2790  12
  -9   5   9 371.455 13.4731   9
   9   5  -9 367.878 13.5994   1
   9   5  -9 401.782 16.0156   7
  -7  -5   9 652.089 17.0046  12
  -7  -5   9 651.148 18.4076   1
   7  -5  -9 642.516 18.6213   1
   7  -5  -9 606.955 20.5795  13
  -7   5   9 634.466 17.3227   1
  -7   5   9 663.175 15.8730  12
   7   5  -9 634.510 17.0971   4
  -7   5   9 635.195 18.2991   9
   7   5  -9 619.682 19.7859   7
  -5  -5   9 508.045 15.0364   1
   5  -5  -9 490.097 14.1144  14
   5  -5  -9 536.466 15.5052   1
  -5  -5   9 500.674 13.9600  12
  -5  -5   9 508.206 13.9662   6
   5  -5  -9 499.421 16.7672  13
  -5   5   9 506.356 13.2415  12
  -5   5   9 507.625 14.9574   1
   5   5  -9 477.445 14.2424  14
   5   5  -9 557.060 16.9585   7
   5   5  -9 494.130 14.5059   4
  -5   5   9 504.423 15.5688   9
  -3  -5   9 596.068 16.0575  12
  -3  -5   9 600.700 15.6436   6
   3  -5  -9 603.070 17.6739  13
   3  -5  -9 630.765 16.8205  14
   3  -5  -9 610.373 16.4678   1
  -3  -5   9 596.101 16.1304   1
  -3   5   9 616.603 17.9901   9
   3   5  -9 620.566 17.3100  14
   3   5  -9 634.132 18.1627   7
   3   5  -9 625.077 16.7047   4
  -3   5   9 631.658 15.6855  12
  -3   5   9 626.869 17.6417   1
   1  -5  -9 254.228 9.48119  14
  -1  -5   9 239.962 8.12301   1
  -1  -5   9 251.045 8.26505   6
   1  -5  -9 242.315 8.32089   4
   1  -5  -9 251.278 9.47455   2
  -1  -5   9 266.450 9.43170  12
   1   5  -9 255.964 10.3164   7
  -1   5   9 244.318 10.0392   1
  -1   5   9 243.847 9.00546  12
  -1   5   9 239.796 9.17822   6
  -1   5   9 256.780 10.8093   9
   1   5  -9 245.772 10.2281  14
   1   5  -9 237.979 9.29681   4
  -1  -5  -9 341.500 11.9497  14
  -1  -5  -9 347.141 12.3100   2
  -1  -5  -9 336.761 12.0527   8
   1  -5   9 333.978 11.6084  12
   1  -5   9 341.456 9.73857   6
   1   5   9 350.856 11.9893   6
  -1   5  -9 346.792 12.2855  14
   1   5   9 353.928 12.7548   1
   1   5   9 353.152 12.0455  12
   1   5   9 352.263 14.1827   9
  -1   5  -9 350.012 11.6354   4
  -3  -5  -9 123.954 7.06257  14
  -3  -5  -9 116.598 7.47820   2
   3  -5   9 125.424 4.84875   6
  -3  -5  -9 122.906 7.68901   8
   3   5   9 125.213 7.19090   6
  -3   5  -9 116.828 7.07996  14
   3   5   9 120.336 7.33033  12
   3   5   9 120.428 7.24094   1
  -3   5  -9 115.768 7.39177   2
   3   5   9 134.880 9.21645   9
  10  -6  -9 201.283 9.99410   1
 -10  -6   9 206.106 9.15691  12
 -10  -6   9 219.711 9.92023   1
 -10   6   9 218.750 10.2682   5
  10   6  -9 200.034 11.2769   7
  10   6  -9 218.363 10.7959   1
  -8  -6   9 185.162 9.14304   1
   8  -6  -9 167.536 8.89436   1
  -8  -6   9 173.546 7.78727  12
   8   6  -9 157.840 9.86927   7
  -8   6   9 168.116 8.82859   9
   6  -6  -9 180.261 8.76140   1
   6  -6  -9 174.789 7.59164  14
  -6  -6   9 173.075 7.46318  12
   6  -6  -9 194.521 10.3607  13
  -6  -6   9 178.308 8.58815   1
  -6  -6   9 171.547 7.46934   6
   6   6  -9 170.024 9.19270   7
  -6   6   9 192.785 8.39986   1
   6   6  -9 176.408 7.72493   4
  -6   6   9 183.702 8.88239   9
  -4  -6   9 328.970 10.8157   6
   4  -6  -9 355.493 12.0688   1
  -4  -6   9 357.539 11.8853   1
  -4  -6   9 362.487 11.1402  12
   4  -6  -9 345.081 11.4630  14
   4  -6  -9 336.501 13.0082  13
   4   6  -9 343.391 11.6567   4
  -4   6   9 368.491 12.4938   1
  -4   6   9 343.236 12.6121   9
   4   6  -9 358.736 13.4050   7
   4   6  -9 353.164 12.1607  14
   2  -6  -9 96.1378 5.26603   2
  -2  -6   9 106.216 5.40303   6
  -2  -6   9 99.9756 5.34782   1
  -2  -6   9 107.982 5.81210  12
   2  -6  -9 104.119 6.24476  14
   2   6  -9 107.549 6.81853  14
   2   6  -9 99.7616 6.22482   4
  -2   6   9 97.2623 6.53503   1
  -2   6   9 92.9431 5.20492  12
   2   6  -9 105.588 6.72991   7
  -2   6   9 103.391 7.02309   9
   0  -6  -9 161.736 7.84951  14
   0  -6   9 152.295 6.09651   6
   0  -6  -9 154.017 7.69735   2
   0   6  -9 145.690 7.21204   4
   0   6  -9 152.850 7.99395   7
   0   6  -9 151.091 8.23629  14
   0   6   9 141.957 7.97803   1
   0   6   9 154.800 8.74948   9
   0   6   9 160.817 7.36082  12
  -2  -6  -9 84.1152 6.20732   8
  -2  -6  -9 90.1837 6.29393  14
  -2  -6  -9 76.6375 6.12917   2
   2  -6   9 85.9943 4.13274   6
  -2   6  -9 90.7240 6.59880  14
  -2   6  -9 89.6985 5.82666   4
   2   6   9 92.4802 6.23551   6
   2   6   9 94.5610 8.00519   9
   2   6   9 82.6242 5.62512  12
   2   6   9 88.7421 6.49047   1
  -9  -7   9 35.9482 4.59588   1
  -9  -7   9 42.8196 4.49019  12
   9  -7  -9 45.7677 5.29885   1
   9   7  -9 32.0003 5.10625   7
  -9   7   9 45.1602 5.23665   5
  -9   7   9 46.9861 5.52810   9
  -7  -7   9 575.059 17.7453   1
   7  -7  -9 571.357 17.8010   1
  -7  -7   9 539.728 15.4874  12
   7   7  -9 542.000 18.9916   7
   7   7  -9 625.925 21.9289   4
  -7   7   9 553.569 17.3798   9
  -5  -7   9 45.0467 3.95854  12
   5  -7  -9 53.5249 4.32609  14
  -5  -7   9 56.5579 4.17573   6
   5  -7  -9 51.5505 5.60947  13
  -5  -7   9 60.6227 5.10403   1
   5  -7  -9 45.9656 4.50334   1
   5   7  -9 56.4849 4.52821   4
  -5   7   9 54.8072 4.56506   1
   5   7  -9 52.1947 5.74543   7
  -5   7   9 48.0498 4.71483   9
   3  -7  -9 842.948 21.9628   1
  -3  -7   9 843.951 21.1723   1
   3  -7  -9 840.752 21.6671  14
  -3  -7   9 881.355 20.9444   6
  -3   7   9 824.890 23.0249   9
   3   7  -9 868.470 23.9301   7
   3   7  -9 860.183 21.8640   4
  -3   7   9 871.200 22.9837   1
   3   7  -9 819.902 22.5631  14
   1  -7  -9 139.803 6.42326   4
   1  -7  -9 137.580 7.51484  14
  -1  -7   9 140.153 6.08651   1
  -1  -7   9 139.535 6.38430   6
  -1   7   9 139.050 8.62437   9
   1   7  -9 149.349 7.75221   4
  -1   7   9 153.028 8.63108   1
   1   7  -9 158.039 8.27647  14
   1   7  -9 145.638 8.56868   7
   1  -7   9 751.974 17.3832   6
  -1  -7  -9 745.878 20.4033   2
  -1  -7  -9 732.192 20.2128  14
  -1   7  -9 754.343 21.3506  14
  -1   7  -9 714.637 21.0518   7
   1   7   9 786.646 23.8994  12
   1   7   9 731.127 21.6471   1
   1   7   9 733.340 22.7219   9
  -1   7  -9 728.938 19.9458   4
  -8  -8   9 34.1539 4.46505   1
   8  -8  -9 45.3728 5.59873   1
   8   8  -9 32.2477 5.54894   7
  -8   8   9 33.8227 4.58264   9
  -8   8   9 37.8929 3.99715   5
  -6  -8   9 52.5492 5.62859   1
   6  -8  -9 41.2599 5.05255   1
   6   8  -9 38.8287 5.58786   7
  -6   8   9 48.4759 5.57392   9
   4  -8  -9 158.250 8.11368  14
  -4  -8   9 163.292 7.60418   6
  -4  -8   9 167.175 8.08156   1
   4  -8  -9 159.933 8.23552   1
   4   8  -9 171.730 8.37576   4
   4   8  -9 164.623 9.62648   7
  -4   8   9 168.058 8.32694   1
  -4   8   9 164.544 8.95702   9
  -2  -8   9 30.1838 3.53503   1
   2  -8  -9 32.6255 4.33048  14
  -2  -8   9 37.0352 3.72249   6
   2   8  -9 34.6143 4.21727   4
   2   8  -9 33.3070 4.82508  14
  -2   8   9 27.9559 4.44471   1
  -2   8   9 31.9837 4.70036   9
   2   8  -9 34.6166 4.96076   7
   0  -8   9 141.044 6.13559   6
   0  -8  -9 135.645 7.33104  14
   0  -8  -9 122.034 7.13835   2
   0   8  -9 135.536 7.96734  14
   0   8   9 140.767 9.13885   9
   0   8   9 131.368 8.57177   1
   0   8  -9 128.183 7.52502   4
   7  -9  -9 251.938 11.5906   1
  -7  -9   9 281.587 11.9203   1
   7   9  -9 260.869 12.9446   7
  -7   9   9 262.023 11.2101   9
  -5  -9   9 569.984 16.4102   6
   5  -9  -9 545.820 16.6787  14
   5  -9  -9 579.146 18.1460   1
  -5  -9   9 548.361 16.9276   1
   5   9  -9 523.031 19.0515   7
   5   9  -9 533.617 16.5556   4
  -5   9   9 543.711 17.3669   9
   3  -9  -9 182.470 9.08553   1
   3  -9  -9 189.031 9.08694  14
  -3  -9   9 182.376 8.14105   6
  -3  -9   9 171.170 7.97319   1
   3   9  -9 172.406 8.49647   4
  -3   9   9 183.757 9.20693   9
  -3   9   9 186.808 9.46957   1
   3   9  -9 168.582 10.1816   7
   1  -9  -9 301.419 11.6416  14
  -1  -9   9 319.861 10.4642   6
  -1   9   9 301.297 12.7409   9
  -1   9   9 306.653 12.7844   1
   1   9  -9 302.543 11.9788   4
   1   9  -9 284.035 13.0233   7
   4 -10  -9 42.1116 5.32225   1
  -4 -10   9 34.4929 4.46363   1
  -4 -10   9 35.2032 4.18855   6
   4 -10  -9 34.0423 4.58702  14
   4  10  -9 39.9880 6.19256   7
   4  10  -9 38.0962 4.99212   4
  -4  10   9 35.8185 4.83838   9
  -2 -10   9 5.45969 2.07752   1
  -2 -10   9 8.71526 2.51921   6
   2 -10  -9 8.18703 3.09589  14
  -2  10   9 5.17361 2.92443   1
   2  10  -9 8.37955 3.52573   7
  -2  10   9 4.54703 2.85071   9
   2  10  -9 7.11219 3.00405   4
 -10   0  10 1332.67 30.1993  12
  10   0 -10 1321.18 32.5949   1
  -8   0  10 144.951 7.34597   1
   8   0 -10 148.844 7.21024   4
  -8   0  10 152.467 7.61537   9
  -8   0  10 154.275 6.95062  12
   8   0 -10 145.362 7.58165   1
   8   0 -10 156.205 9.75482  13
  -6   0  10 1376.36 29.4218  12
   6   0 -10 1330.04 33.3047  13
  -6   0  10 1308.59 29.8835   9
  -6   0  10 1344.25 30.7004   1
   6   0 -10 1265.06 28.6441  14
   6   0 -10 1313.46 29.4233   4
   6   0 -10 1357.13 29.8416   1
  -4   0  10 79.6839 4.71933   6
   4   0 -10 72.4407 4.71118   2
  -4   0  10 71.6708 5.04489   9
   4   0 -10 70.7808 4.81321   7
   4   0 -10 96.3078 5.55101  14
  -4   0  10 68.7993 4.90603  12
  -4   0  10 77.2134 5.30475   1
   4   0 -10 76.4020 4.87163   4
   2   0 -10 713.861 17.9333   4
  -2   0  10 742.732 19.1116  12
  -2   0  10 703.593 19.4133   9
  -2   0  10 719.152 18.0085   6
   2   0 -10 732.387 19.2105   2
   2   0 -10 715.081 18.9241  14
  -2   0  10 736.302 18.8650   1
   0   0  10 30.7634 3.81533  12
   0   0 -10 33.5585 4.45309   2
   0   0 -10 32.2690 3.03373   4
   0   0  10 24.9351 3.05868   6
   0   0  10 32.3596 3.49478   1
   0   0 -10 29.4972 3.88272  14
   0   0  10 25.3192 4.18745   9
   2   0  10 496.175 15.7762  12
   2   0  10 489.411 13.6898   6
  -2   0 -10 506.310 15.9199   2
   2   0  10 484.824 16.7333   9
  -2   0 -10 484.758 14.9602  14
  11  -1 -10 87.0938 7.02332   1
 -11  -1  10 79.9679 5.42984  12
 -11   1  10 74.5096 5.10140  12
  11   1 -10 90.0441 7.09605   1
   9  -1 -10 74.9492 5.34207   4
  -9  -1  10 77.4233 5.02669  12
   9  -1 -10 75.9739 6.20314   1
  -9  -1  10 75.7319 5.68013   1
   9  -1 -10 66.9894 7.06573  13
  -9   1  10 76.7904 5.19966  12
  -9   1  10 69.8515 5.68082   9
   9   1 -10 76.2488 6.09588   1
  -9   1  10 74.1580 5.46513   1
   9   1 -10 72.8534 4.93631   4
  -7  -1  10 3.26703 2.15537   1
  -7  -1  10 6.51958 2.11205  12
   7  -1 -10 6.90486 2.03097   4
   7  -1 -10 5.03114 2.29091  13
  -7  -1  10 5.25086 1.94921   9
   7  -1 -10 15.9260 3.04550   1
  -7   1  10 5.66016 2.06841  12
   7   1 -10 6.74592 1.94884   1
   7   1 -10 7.34001 2.26932   4
  -7   1  10 3.51132 1.65763   1
  -7   1  10 10.1936 2.62528   9
   5  -1 -10 198.918 9.89727  13
   5  -1 -10 195.623 7.73949   4
  -5  -1  10 204.057 7.71176   6
  -5  -1  10 189.826 7.76696   9
  -5  -1  10 200.240 8.60085   1
   5  -1 -10 191.586 7.86955  14
  -5  -1  10 197.250 8.07173  12
  -5   1  10 204.462 8.13301  12
  -5   1  10 192.454 8.29162   9
   5   1 -10 200.482 8.81611   7
   5   1 -10 184.343 7.84250   4
  -5   1  10 199.959 8.59755   1
   5   1 -10 183.563 7.57914  14
  -3  -1  10 6.85579 2.11280   1
  -3  -1  10 7.90663 1.96820   6
   3  -1 -10 6.55102 2.12225   2
  -3  -1  10 5.52305 1.87126  12
  -3  -1  10 8.17674 2.32658   9
   3  -1 -10 8.39857 1.89704   4
   3  -1 -10 6.36585 2.17712  14
  -3   1  10 6.04580 2.22262   1
  -3   1  10 8.29692 2.53211   9
   3   1 -10 7.33606 1.81977   4
  -3   1  10 6.35056 1.91582   6
   3   1 -10 15.0704 2.57406  14
  -3   1  10 6.18820 1.79426  12
   3   1 -10 5.58196 2.16293   2
   3   1 -10 7.25927 1.85316   7
  -1  -1  10 44.8943 3.70560   6
   1  -1 -10 43.2801 3.71395   4
   1  -1 -10 45.6550 4.76131   2
  -1  -1  10 44.1775 4.59553  12
  -1  -1  10 38.2496 4.43597   9
  -1  -1  10 41.4106 3.72499   1
   1  -1 -10 44.7376 4.02613  14
  -1   1  10 50.6593 5.00199  12
  -1   1  10 42.0082 4.08381   1
   1   1 -10 40.3282 3.75605   4
  -1   1  10 44.5517 3.87115   6
   1   1 -10 45.8773 4.30693   2
   1   1 -10 68.5848 5.20759  14
  -1   1  10 39.2066 4.63664   9
   1  -1  10 63.4878 5.15446  12
   1  -1  10 62.8574 4.08104   1
  -1  -1 -10 63.2117 4.87547  14
   1  -1  10 67.7601 4.36066   6
  -1  -1 -10 62.4206 5.51798   2
  -1   1 -10 63.1199 4.84820  14
   1   1  10 69.0618 5.29073  12
   1   1  10 72.4681 4.77945   1
   1   1  10 71.2552 4.75704   6
  -1   1 -10 59.7740 5.48704   2
  -1   1 -10 59.1581 4.32993   4
   1   1  10 66.7351 6.30858   9
   3  -1  10 1.22080 2.59152   9
  -3  -1 -10 -1.4303 1.81977  14
   3  -1  10 1.60392 1.40348   6
  -3  -1 -10 1.53505 1.87129   8
  -3  -1 -10 2.13839 2.30519   2
   3  -1  10 -0.9994 1.44107  12
  -3   1 -10 0.54949 1.40751  14
   3   1  10 1.30421 1.50204   6
   3   1  10 -0.1496 1.60599  12
  -3   1 -10 -0.1193 2.26353   2
   3   1  10 1.39164 2.69995   9
  10  -2 -10 54.8434 5.73178   1
  10  -2 -10 42.7895 4.10559   4
 -10  -2  10 48.4871 4.97103   1
 -10  -2  10 58.6843 4.55547  12
  10   2 -10 47.3683 5.46727   1
 -10   2  10 58.1394 4.69337  12
  -8  -2  10 513.522 14.8810  12
   8  -2 -10 528.376 16.3314   1
   8  -2 -10 482.903 18.5980  13
   8  -2 -10 519.429 15.4811   4
  -8  -2  10 534.807 16.0711   1
   8   2 -10 545.535 16.2461   1
  -8   2  10 531.730 16.2853   9
  -8   2  10 534.951 15.7457   1
   8   2 -10 529.071 15.0860   4
  -8   2  10 517.796 14.4779  12
  -6  -2  10 114.163 6.62850   1
  -6  -2  10 102.487 5.68923  12
   6  -2 -10 111.485 5.65786  14
   6  -2 -10 107.051 7.61498  13
   6  -2 -10 103.046 5.72793   4
   6  -2 -10 115.149 6.35145   1
  -6   2  10 106.515 5.70029  12
   6   2 -10 116.770 6.16543   4
  -6   2  10 102.651 6.38836   9
   6   2 -10 105.712 5.54154  14
   6   2 -10 106.897 6.79931   7
  -6   2  10 115.883 6.58346   1
  -4  -2  10 1278.72 27.8527   6
   4  -2 -10 1265.56 28.6438  14
   4  -2 -10 1283.20 28.1214   4
  -4  -2  10 1257.47 29.0079   1
  -4  -2  10 1297.04 28.5832  12
   4  -2 -10 1219.62 27.3852   2
   4  -2 -10 1263.71 31.0124  13
   4   2 -10 1258.96 28.2622   4
   4   2 -10 1275.38 28.8501  14
  -4   2  10 1262.59 29.6480   9
  -4   2  10 1288.54 28.2680  12
   4   2 -10 1275.03 29.5929   7
  -4   2  10 1265.12 29.3932   1
  -4   2  10 1244.86 27.7020   6
   2  -2 -10 262.882 9.82398   2
  -2  -2  10 267.417 9.10332   6
  -2  -2  10 272.594 9.47313   1
   2  -2 -10 263.645 9.03994   4
   2  -2 -10 262.518 9.83318  14
  -2  -2  10 245.072 9.74882  12
  -2   2  10 277.675 9.98547  12
   2   2 -10 268.043 10.4830   2
  -2   2  10 267.615 10.9669   9
   2   2 -10 268.611 9.59457   7
   2   2 -10 271.420 9.54485   4
  -2   2  10 263.234 9.39870   6
   2   2 -10 258.142 10.0878  14
  -2   2  10 271.904 10.3082   1
   0  -2  10 1099.65 24.8457   1
   0  -2 -10 1091.51 27.0574   2
   0  -2  10 1125.20 25.0063   6
   0  -2  10 1097.01 26.9754  12
   0  -2 -10 1132.68 26.8073  14
   0  -2 -10 1117.30 25.0039   4
   0   2 -10 1152.28 27.2257  14
   0   2 -10 1121.67 25.8096   4
   0   2  10 1128.72 27.3498  12
   0   2  10 1136.97 26.6527   1
   0   2 -10 1129.27 27.8213   2
   0   2  10 1117.42 29.1531   9
   0   2  10 1147.55 26.2385   6
   2  -2  10 146.984 7.80790  12
  -2  -2 -10 127.727 7.64671   8
  -2  -2 -10 152.708 8.20558   2
   2  -2  10 144.630 6.15463   6
  -2  -2 -10 145.867 7.69663  14
   2   2  10 135.735 6.84332   1
   2   2  10 137.454 6.97152   6
  -2   2 -10 143.991 7.62951  14
  -2   2 -10 147.509 8.32951   2
   2   2  10 139.110 9.17094   9
   2   2  10 145.454 8.16817  12
 -11  -3  10 1.49495 1.64895  12
  11  -3 -10 0.29234 2.36399   1
  11   3 -10 8.35345 4.15440   7
 -11   3  10 2.80678 1.41045  12
  11   3 -10 5.06687 2.81177   1
   9  -3 -10 1.02353 2.40280   1
   9  -3 -10 4.26239 2.04288   4
  -9  -3  10 0.82493 2.09769   1
  -9  -3  10 1.26960 2.07638  12
  -9   3  10 3.55687 2.42293   9
  -9   3  10 3.47176 1.85543  12
   9   3 -10 6.13327 3.26494   7
   9   3 -10 0.17883 2.18459   1
  -7  -3  10 11.2573 2.75286  12
  -7  -3  10 13.6610 2.79629   1
   7  -3 -10 9.59739 2.76837   4
   7  -3 -10 15.3590 3.57573  13
   7  -3 -10 11.1481 2.83741   1
  -7   3  10 14.8760 3.20870   9
  -7   3  10 14.1481 2.55392  12
  -7   3  10 13.6584 2.70924   1
   7   3 -10 13.1132 3.62946   7
   7   3 -10 13.5704 2.86496   4
   5  -3 -10 68.6994 4.89875   1
  -5  -3  10 69.8597 4.99173  12
  -5  -3  10 65.2931 4.77828   1
   5  -3 -10 68.4426 6.04259  13
   5  -3 -10 68.8263 5.04069   4
   5  -3 -10 64.4254 4.71933  14
  -5  -3  10 74.8840 4.76752   6
  -5   3  10 65.2535 4.93220   1
  -5   3  10 67.2771 5.45789   9
  -5   3  10 72.9576 4.48708  12
   5   3 -10 66.1316 4.55847   4
   5   3 -10 72.3732 5.86172   7
   5   3 -10 74.5572 5.06465  14
   3  -3 -10 7.26525 1.97138   2
   3  -3 -10 7.90262 2.14817   4
  -3  -3  10 6.33667 1.94180   6
   3  -3 -10 2.10546 1.78021  14
  -3  -3  10 0.81886 1.68745  12
  -3  -3  10 2.73928 1.41837   1
   3  -3 -10 2.55917 2.06544  13
  -3   3  10 2.09333 1.62778   6
  -3   3  10 0.55442 1.27149  12
   3   3 -10 2.00838 1.86407   7
   3   3 -10 1.81694 1.74802   4
   3   3 -10 1.56707 1.88448  14
  -3   3  10 7.69092 2.19487   1
  -3   3  10 4.73105 2.43569   9
   1  -3 -10 13.7517 2.40010   4
   1  -3 -10 15.7308 2.83468   2
  -1  -3  10 15.6678 2.81691  12
   1  -3 -10 13.2647 2.91024  14
  -1  -3  10 18.6309 2.67786   1
  -1  -3  10 13.9217 2.29893   6
   1   3 -10 20.7144 3.93987   2
  -1   3  10 22.3744 3.24634   6
  -1   3  10 22.0515 4.03973   9
  -1   3  10 15.9157 3.16647   1
   1   3 -10 16.9772 2.72555   4
  -1   3  10 21.4459 3.41757  12
   1   3 -10 16.5606 3.21796  14
  -1  -3 -10 29.0279 3.76757  14
  -1  -3 -10 28.1638 3.84979   2
   1  -3  10 26.5912 2.98557   6
   1  -3  10 24.1453 3.94971  12
  -1  -3 -10 26.0382 4.04825   8
   1   3  10 27.8723 4.15751  12
   1   3  10 21.0882 4.36625   9
  -1   3 -10 26.3639 3.70079  14
  -1   3 -10 24.5415 4.18211   2
   1   3  10 31.0462 4.06891   1
  -1   3 -10 31.6841 3.78718   4
   1   3  10 29.5224 3.63189   6
  -3  -3 -10 2.21418 1.92196   8
  -3  -3 -10 0.82670 2.34751   2
  -3  -3 -10 3.76514 2.39534  14
   3  -3  10 0.99707 1.12352   6
   3  -3  10 1.30429 2.29482  12
   3   3  10 4.84562 2.25566   6
  -3   3 -10 4.34215 2.70174   2
   3   3  10 -0.4141 3.05047   9
   3   3  10 2.84586 2.64961  12
  -3   3 -10 1.96459 1.65391  14
   3   3  10 3.08185 1.97816   1
  10  -4 -10 103.971 6.48954   4
 -10  -4  10 97.5767 6.87060   1
 -10  -4  10 104.749 6.60076  12
  10  -4 -10 104.722 7.48376   1
 -10   4  10 106.593 5.81085  12
  10   4 -10 107.633 8.40047   7
  10   4 -10 106.483 7.36987   1
  -8  -4  10 1297.93 30.0188  12
  -8  -4  10 1371.84 32.2046   1
   8  -4 -10 1286.48 38.9157  13
   8  -4 -10 1383.38 32.4319   1
   8   4 -10 1318.25 30.1844   4
  -8   4  10 1381.19 29.3586  12
  -8   4  10 1316.76 30.7504   1
  -8   4  10 1339.64 31.9564   9
   8   4 -10 1332.67 34.1127   7
   6  -4 -10 56.8978 4.64850   1
   6  -4 -10 50.0313 5.61814  13
  -6  -4  10 49.3647 4.33218  12
   6  -4 -10 56.4499 4.24160  14
  -6  -4  10 46.0439 4.03791   6
  -6  -4  10 49.1836 4.74420   1
  -6   4  10 49.1147 3.89774  12
  -6   4  10 53.3520 4.87453   1
  -6   4  10 43.4445 4.40161   9
   6   4 -10 50.8315 3.90749  14
   6   4 -10 53.3959 5.57134   7
   6   4 -10 46.9638 4.39979   4
  -4  -4  10 1155.62 27.1971  12
   4  -4 -10 1222.45 27.9466  14
   4  -4 -10 1178.26 29.7487  13
   4  -4 -10 1221.02 27.4079   4
  -4  -4  10 1201.95 26.9880   6
  -4  -4  10 1191.05 27.8666   1
   4   4 -10 1207.07 29.3924   7
  -4   4  10 1202.29 26.8588  12
  -4   4  10 1224.19 28.9075   1
   4   4 -10 1185.96 28.0910  14
   4   4 -10 1208.12 27.6760   4
  -4   4  10 1220.54 29.4542   9
   2  -4 -10 4.43774 2.29772  14
   2  -4 -10 7.75442 1.96895   2
   2  -4 -10 4.71472 1.65763   4
  -2  -4  10 3.71435 2.08763  12
  -2  -4  10 4.18691 1.76955   1
  -2  -4  10 4.25715 1.70378   6
  -2   4  10 3.51785 2.64689   9
   2   4 -10 6.47027 2.49115  14
  -2   4  10 5.35515 2.05929   6
   2   4 -10 3.32469 2.02231   7
  -2   4  10 9.90088 2.51092  12
  -2   4  10 5.26050 2.35970   1
   2   4 -10 5.48159 2.24264   4
   0  -4 -10 732.270 19.6791  14
   0  -4 -10 696.938 19.6125   2
   0  -4  10 736.387 17.6566   6
   0  -4  10 707.732 19.5506  12
   0   4  10 741.329 19.8634  12
   0   4 -10 708.482 20.0073  14
   0   4 -10 713.652 20.6268   2
   0   4 -10 754.011 19.1805   4
   0   4  10 732.533 22.0274   9
   0   4  10 709.763 20.0247   1
   0   4  10 691.384 19.1120   6
   2  -4  10 10.6737 2.05641   6
   2  -4  10 9.14384 2.73725  12
  -2  -4 -10 15.7816 3.67869   8
  -2  -4 -10 10.9608 2.61425  14
  -2  -4 -10 13.5058 3.38705   2
  -2   4 -10 11.4242 2.86692   2
   2   4  10 15.9486 3.32684   1
   2   4  10 5.99993 3.58658   9
   2   4  10 11.6270 3.02726   6
  -2   4 -10 10.7971 2.62335  14
   2   4  10 13.8967 2.96276  12
  -2   4 -10 13.6408 2.82401   4
  -9  -5  10 77.3779 5.65134  12
  -9  -5  10 74.5643 6.28319   1
   9  -5 -10 77.2818 6.06361   1
   9   5 -10 79.7759 7.67978   7
  -9   5  10 76.7502 6.38565   9
   7  -5 -10 241.479 12.5166  13
   7  -5 -10 258.745 10.9613   1
  -7  -5  10 259.447 9.86014  12
  -7  -5  10 264.811 11.0150   1
  -7   5  10 248.957 10.8528   9
   7   5 -10 255.011 12.0230   7
  -7   5  10 263.535 10.3637   1
   7   5 -10 255.704 9.88700   4
  -7   5  10 254.033 8.82388  12
  -5  -5  10 76.3488 5.62313   1
  -5  -5  10 81.2310 5.19621   6
   5  -5 -10 71.7606 5.15636   1
   5  -5 -10 77.9297 5.41514  14
  -5  -5  10 77.6067 4.97302  12
   5  -5 -10 72.7726 6.26240  13
   5   5 -10 76.9927 5.56573  14
   5   5 -10 74.6756 5.19169   4
   5   5 -10 77.1438 6.46795   7
  -5   5  10 76.5628 4.72286  12
  -5   5  10 69.9242 5.60071   9
  -5   5  10 78.4836 5.87768   1
  -3  -5  10 319.015 10.4913   6
   3  -5 -10 317.607 11.3810  14
  -3  -5  10 305.170 10.8411  12
   3  -5 -10 304.836 10.5531   4
  -3  -5  10 306.913 10.5952   1
   3   5 -10 317.992 12.2114   7
   3   5 -10 298.284 10.7815   4
  -3   5  10 326.053 10.5816  12
  -3   5  10 314.352 12.3340   9
   3   5 -10 300.884 11.6037  14
  -3   5  10 301.840 11.6960   1
   1  -5 -10 143.304 7.37382  14
  -1  -5  10 154.916 7.61492  12
   1  -5 -10 158.809 6.82963   4
   1  -5 -10 144.719 7.44484   2
  -1  -5  10 148.387 6.41719   1
  -1  -5  10 158.697 6.68344   6
  -1   5  10 164.616 8.60437   1
  -1   5  10 150.468 7.43271   6
  -1   5  10 150.228 8.74061   9
   1   5 -10 159.552 7.56336   4
  -1   5  10 151.837 7.46375  12
   1   5 -10 157.790 8.07752   7
   1   5 -10 149.758 8.31698  14
   1  -5  10 79.2682 4.38117   6
   1  -5  10 71.4576 5.27966  12
  -1  -5 -10 72.7628 5.79485  14
  -1  -5 -10 71.7633 5.84158   2
   1   5  10 75.6277 5.92866  12
   1   5  10 72.7202 7.42480   9
   1   5  10 73.4736 5.56729   6
   1   5  10 73.1426 6.00345   1
  -1   5 -10 76.9043 6.13952  14
  -8  -6  10 16.7429 3.17916  12
   8  -6 -10 19.3731 3.83320   1
  -8  -6  10 14.9198 3.54516   1
   8   6 -10 19.6594 4.04208   7
  -8   6  10 21.9511 4.03478   9
  -6  -6  10 801.478 21.4785   1
   6  -6 -10 769.914 23.7529  13
   6  -6 -10 769.879 19.9642  14
  -6  -6  10 762.568 19.6730  12
   6  -6 -10 780.257 21.4764   1
   6   6 -10 732.955 19.8847  14
   6   6 -10 790.113 20.4673   4
  -6   6  10 766.666 21.4358   9
  -6   6  10 779.730 20.9721   1
   6   6 -10 763.211 22.9323   7
   4  -6 -10 81.4858 5.42404  14
   4  -6 -10 115.553 9.69028   1
  -4  -6  10 86.8044 5.45540   6
  -4  -6  10 92.2985 5.69113   1
  -4  -6  10 83.0066 5.12324  12
   4   6 -10 82.5859 6.12180  14
  -4   6  10 70.4820 6.14666   9
  -4   6  10 78.0046 6.14847   1
   4   6 -10 80.0832 5.75922   4
   4   6 -10 73.3254 6.41485   7
   2  -6 -10 1072.14 26.3379  14
  -2  -6  10 1040.79 25.4525  12
  -2  -6  10 1056.51 24.6475   1
   2  -6 -10 1082.84 24.9654   4
  -2  -6  10 1088.02 24.8632   6
   2   6 -10 1078.79 26.1271   4
  -2   6  10 1092.65 28.4713   9
   2   6 -10 1066.78 27.3385  14
  -2   6  10 1111.42 27.8977   1
   2   6 -10 1037.55 27.5336   7
   0  -6  10 109.179 5.36275   6
   0  -6 -10 96.1141 6.43827   2
   0  -6 -10 118.453 7.10152  14
   0   6  10 102.106 8.09228   9
   0   6 -10 106.695 6.64910   4
   0   6  10 98.5658 7.13881   1
   0   6 -10 103.556 7.18592  14
  -9  -7  10 7.42756 2.46352  12
  -9  -7  10 5.50283 2.45368   1
   9  -7 -10 10.5255 3.39581   1
   9   7 -10 6.58581 2.92852   7
  -9   7  10 16.0867 3.85990   9
  -7  -7  10 24.2451 3.55204  12
   7  -7 -10 23.9703 3.86829   1
  -7  -7  10 30.5140 4.33073   1
  -7   7  10 31.8990 4.45404   9
   7   7 -10 24.9972 4.69300   7
   7   7 -10 24.3278 3.69417   4
   5  -7 -10 7.96513 2.68970  14
  -5  -7  10 6.18858 2.17404   1
  -5  -7  10 2.66933 1.95247   6
   5  -7 -10 1.65536 2.31328   1
  -5   7  10 4.35180 2.39441   1
  -5   7  10 6.11762 2.97332   9
   5   7 -10 3.95463 2.80598   7
   5   7 -10 6.36649 2.17422   4
   3  -7 -10 16.9854 3.11051  14
  -3  -7  10 14.8526 2.58972   6
  -3  -7  10 13.3472 2.61781   1
   3   7 -10 16.4362 4.05811   7
  -3   7  10 15.0839 3.35560   9
  -3   7  10 13.7739 3.08224   1
   3   7 -10 20.9267 3.80913   4
   3   7 -10 14.9745 3.18643  14
  -1  -7  10 2.23236 1.49077   6
   1  -7 -10 1.95485 2.36154  14
   1   7 -10 1.09666 2.35159  14
  -1   7  10 5.40501 2.72799   1
   1   7 -10 0.59434 1.49616   4
   1   7 -10 1.42874 2.30899   7
  -1   7  10 1.86061 2.79772   9
  -8  -8  10 227.781 10.7369   1
   8  -8 -10 248.585 11.2148   1
  -8   8  10 221.098 10.4804   9
   8   8 -10 221.994 11.7934   7
  -6  -8  10 486.700 15.9590   1
   6  -8 -10 473.406 16.3113   1
   6   8 -10 461.363 15.1371   4
   6   8 -10 469.593 17.5775   7
  -6   8  10 490.242 16.6492   9
  -4  -8  10 129.427 7.22902   1
   4  -8 -10 133.841 7.62884  14
  -4  -8  10 137.976 7.11142   6
   4   8 -10 123.387 8.33842   7
   4   8 -10 119.889 7.30339   4
  -4   8  10 126.382 7.94401   9
  -4   8  10 106.049 7.29416   1
  -2  -8  10 366.546 11.8303   6
  -2  -8  10 321.215 10.9888   1
   2  -8 -10 361.094 13.1243  14
  -2   8  10 359.464 14.2436   9
  -2   8  10 362.292 14.1725   1
   2   8 -10 375.854 14.6375   7
   2   8 -10 344.483 13.8351  14
   2   8 -10 363.513 12.9711   4
  -5  -9  10 8.43611 2.82312   1
   5  -9 -10 8.92230 2.89587  14
   5  -9 -10 12.1222 3.02058   1
  -5  -9  10 8.97388 2.63218   6
  -5   9  10 10.7939 3.33743   9
   5   9 -10 11.9075 3.98846   7
   5   9 -10 9.90604 2.62993   4
   3  -9 -10 6.85219 2.92923  14
  -3  -9  10 2.88281 1.99364   1
  -3  -9  10 4.55180 2.19445   6
  -3   9  10 7.79787 3.10536   1
   3   9 -10 2.82119 3.08425   7
   3   9 -10 4.15243 2.13639   4
  -3   9  10 3.73502 2.39422   9
  10   0 -11 2.37667 2.03860   4
  10   0 -11 1.06776 2.34251   1
 -10   0  11 6.58383 2.02012  12
 -10   0  11 2.03317 2.25918   1
   8   0 -11 1.26277 1.82743   1
  -8   0  11 -0.2635 1.35168  12
  -8   0  11 4.80535 2.32798   9
  -8   0  11 2.87703 2.24457   1
   8   0 -11 0.67848 1.93755   4
  -6   0  11 3.69852 2.10974  12
  -6   0  11 0.55179 1.77875   9
  -6   0  11 0.61554 1.96103   1
   6   0 -11 1.28941 1.55497  14
   6   0 -11 2.02909 2.12107   7
   6   0 -11 6.40259 2.52008   4
   4   0 -11 0.41843 1.30054   4
   4   0 -11 -0.8346 1.07027  14
  -4   0  11 0.60036 1.32930  12
  -4   0  11 0.52391 1.81568   9
  -4   0  11 0.55661 1.95458   1
  -4   0  11 0.57648 1.56785   6
   4   0 -11 1.70478 1.35105   2
   2   0 -11 0.81318 1.74145   4
   2   0 -11 2.69821 2.27714   2
  -2   0  11 1.10735 1.81543   1
   2   0 -11 0.20458 1.94423  14
  -2   0  11 -0.3038 1.32237   9
  -2   0  11 1.80358 2.17370  12
  -2   0  11 0.82408 1.62714   6
   0   0 -11 9.17421 2.37431  14
   0   0  11 2.37086 1.80601   6
   0   0 -11 -0.3826 1.04989   4
   0   0  11 0.13143 1.46246   1
   0   0  11 2.27771 2.38547  12
   0   0  11 1.38381 2.45452   9
   0   0 -11 4.12574 2.48040   2
   2   0  11 1.51929 2.70136   9
  -2   0 -11 -0.3660 1.98389  14
  -2   0 -11 -0.3436 1.57782   2
   2   0  11 0.95600 2.38803  12
   2   0  11 0.80644 1.43385   6
 -11  -1  11 71.5780 5.71457  12
  11  -1 -11 73.0284 6.63978   1
  11   1 -11 68.2416 6.48219   1
 -11   1  11 64.7430 5.25363  12
  -9  -1  11 668.977 18.0854  12
   9  -1 -11 674.292 19.9370   1
   9  -1 -11 639.340 18.3802   4
  -9  -1  11 661.318 19.2825   1
  -9   1  11 677.520 19.2276   1
   9   1 -11 658.115 19.6693   1
  -9   1  11 653.082 17.9242  12
   9   1 -11 628.925 18.1378   4
  -9   1  11 650.145 19.0331   9
  -7  -1  11 158.027 7.29855  12
   7  -1 -11 153.728 9.66651  13
   7  -1 -11 150.933 7.37690   4
  -7  -1  11 143.661 7.35936   9
  -7  -1  11 158.562 8.11175   1
   7   1 -11 150.072 7.34459   4
  -7   1  11 152.804 7.74328   9
   7   1 -11 157.459 8.99685   7
  -7   1  11 150.993 7.34540  12
  -7   1  11 151.289 7.92766   1
  -5  -1  11 631.058 16.7438   6
   5  -1 -11 623.542 17.0101   4
  -5  -1  11 648.630 18.3535   1
   5  -1 -11 610.037 17.6665   7
  -5  -1  11 642.770 17.4968  12
  -5  -1  11 582.865 16.8679   9
   5  -1 -11 603.727 17.1321  14
  -5   1  11 620.657 17.2554  12
   5   1 -11 614.624 16.8314   4
   5   1 -11 614.700 17.9919   7
  -5   1  11 619.123 17.9098   9
  -5   1  11 636.246 18.2788   1
   5   1 -11 622.823 17.3328  14
  -3  -1  11 249.827 9.88887   1
   3  -1 -11 252.806 9.40808   4
  -3  -1  11 229.248 9.66078   9
   3  -1 -11 232.180 9.44415   2
  -3  -1  11 254.581 9.33277   6
  -3  -1  11 240.190 9.90585  12
   3  -1 -11 241.623 9.91767  14
  -3   1  11 240.108 9.94277   1
  -3   1  11 255.960 10.0279  12
   3   1 -11 237.407 9.06645   4
   3   1 -11 247.778 10.0469  14
  -3   1  11 245.897 9.30018   6
  -3   1  11 236.331 10.4443   9
   3   1 -11 239.807 9.95936   2
  -1  -1  11 375.024 13.6282   9
  -1  -1  11 386.666 12.3406   1
   1  -1 -11 392.769 13.2410  14
   1  -1 -11 390.718 11.9812   4
   1  -1 -11 400.815 13.8556   2
  -1  -1  11 394.080 13.6671  12
  -1   1  11 372.892 14.3356   9
  -1   1  11 397.383 13.0710   1
   1   1 -11 390.431 12.3786   4
   1   1 -11 396.320 14.0476   2
  -1   1  11 409.000 12.7952   6
   1   1 -11 411.985 13.5914  14
  -1   1  11 401.327 13.6649  12
   1  -1  11 232.325 10.3542  12
  -1  -1 -11 236.662 10.2304  14
  -1  -1 -11 234.779 10.6815   2
   1  -1  11 244.741 9.05261   6
   1   1  11 249.453 10.7748  12
  -1   1 -11 223.079 10.4060   2
   1   1  11 239.372 11.9000   9
   1   1  11 268.689 9.85104   6
  -1   1 -11 256.214 10.5887  14
   1   1  11 241.821 9.26579   1
 -10  -2  11 186.795 8.84009  12
 -10  -2  11 189.471 9.42552   1
  10  -2 -11 178.016 9.51773   1
  10   2 -11 181.537 9.66538   1
  10   2 -11 190.083 11.1148   7
 -10   2  11 182.109 8.29342  12
  -8  -2  11 280.523 10.4892  12
   8  -2 -11 292.085 11.0510   4
  -8  -2  11 277.858 11.5248   1
   8  -2 -11 284.193 11.5410   1
   8   2 -11 288.977 10.8349   4
  -8   2  11 274.722 11.1812   9
   8   2 -11 280.391 12.9356   7
  -8   2  11 290.220 11.3661   1
  -8   2  11 282.778 10.2629  12
   6  -2 -11 217.197 8.80577  14
   6  -2 -11 218.429 9.14607   4
   6  -2 -11 225.569 11.3967  13
  -6  -2  11 225.246 9.24130  12
  -6  -2  11 231.007 10.0069   1
   6   2 -11 221.447 9.03654   4
  -6   2  11 223.804 9.83713   1
  -6   2  11 224.885 8.76743  12
  -6   2  11 207.087 9.46757   9
   6   2 -11 225.226 8.89952  14
   6   2 -11 221.647 10.3876   7
   4  -2 -11 221.486 8.87027   4
  -4  -2  11 224.481 9.39233  12
  -4  -2  11 222.079 8.72405   6
  -4  -2  11 218.021 9.27277   1
   4  -2 -11 223.103 9.08318  14
  -4   2  11 226.563 9.24258  12
  -4   2  11 212.663 8.65035   6
   4   2 -11 231.490 9.53452   7
  -4   2  11 211.212 9.89797   9
  -4   2  11 215.925 9.66479   1
   4   2 -11 213.913 8.85831   4
   4   2 -11 218.052 9.41970  14
   2  -2 -11 198.350 8.92833  14
   2  -2 -11 195.967 8.09531   4
  -2  -2  11 199.636 8.30621   1
  -2  -2  11 184.930 8.86092  12
   2  -2 -11 197.496 8.86274   2
  -2  -2  11 193.798 8.03225   6
   2   2 -11 192.799 9.23707   2
  -2   2  11 195.853 8.79810  12
  -2   2  11 187.035 9.79108   9
   2   2 -11 189.007 8.04182   4
  -2   2  11 190.886 8.83961   1
   2   2 -11 192.908 8.82476  14
  -2   2  11 181.487 8.15392   6
   0  -2  11 101.722 5.57228   6
   0  -2  11 93.5488 6.70588  12
   0  -2 -11 94.7089 6.31272   2
   0  -2 -11 92.3852 6.37744  14
   0   2 -11 94.7558 5.54522   4
   0   2  11 85.8176 7.35809   9
   0   2  11 98.8806 6.09101   6
   0   2  11 102.261 6.60479  12
   0   2  11 98.4042 6.25386   1
   0   2 -11 93.9933 7.02923   2
   0   2 -11 91.2889 6.07969  14
   9  -3 -11 124.991 7.04717   4
  -9  -3  11 118.124 6.97966  12
   9  -3 -11 121.836 7.86795   1
  -9  -3  11 131.494 7.99028   1
  -9   3  11 112.262 7.62504   1
  -9   3  11 116.433 7.38740   9
  -9   3  11 121.825 6.42779  12
   9   3 -11 116.030 6.77427   4
   9   3 -11 119.716 8.92125   7
   7  -3 -11 719.020 20.1095   1
   7  -3 -11 743.897 19.7677   4
  -7  -3  11 722.518 19.4009  12
  -7  -3  11 739.587 20.7514   1
   7  -3 -11 749.508 26.2377  13
  -7   3  11 699.680 20.4636   9
  -7   3  11 735.686 18.6186  12
   7   3 -11 717.953 21.9354   7
   7   3 -11 722.623 19.5242   4
  -7   3  11 716.036 20.1515   1
  -5  -3  11 148.308 7.85584   1
  -5  -3  11 147.949 6.93050   6
   5  -3 -11 146.328 7.33179   4
   5  -3 -11 155.570 9.23353  13
   5  -3 -11 151.346 7.54293  14
  -5  -3  11 145.365 7.53100  12
  -5   3  11 158.759 8.01249   1
  -5   3  11 139.554 8.14894   9
   5   3 -11 149.605 8.07142   7
  -5   3  11 151.708 7.06208  12
   5   3 -11 171.411 8.12327  14
   5   3 -11 158.559 7.65213   4
  -3  -3  11 939.731 22.8333   1
   3  -3 -11 901.641 23.0734  14
  -3  -3  11 906.472 21.9778   6
   3  -3 -11 924.478 22.1218   4
  -3  -3  11 855.087 22.5710  12
   3  -3 -11 874.505 22.1748   2
  -3   3  11 923.307 22.8315  12
   3   3 -11 908.599 23.4239  14
   3   3 -11 897.616 22.4811   4
   3   3 -11 868.959 22.9271   7
  -3   3  11 887.490 24.5318   9
  -3   3  11 873.284 22.1898   6
  -3   3  11 924.571 23.9063   1
  -1  -3  11 79.1204 4.86185   1
   1  -3 -11 81.3325 5.64632  14
  -1  -3  11 89.9497 5.31865   6
  -1  -3  11 87.7392 6.26864  12
   1  -3 -11 80.7377 5.10524   4
   1  -3 -11 81.2151 5.99187   2
   1   3 -11 87.8171 5.96269  14
  -1   3  11 77.2490 5.66490  12
  -1   3  11 69.4929 5.29475   6
  -1   3  11 70.5583 6.21848   9
   1   3 -11 79.3655 6.38337   2
  -1   3  11 77.2934 5.82444   1
   1   3 -11 76.5579 5.45673   4
   1  -3  11 549.974 14.6115   6
   1  -3  11 541.596 17.1108  12
  -1  -3 -11 534.867 16.5999  14
  -1  -3 -11 524.472 16.8996   2
   1   3  11 560.112 17.3627  12
  -1   3 -11 518.739 15.0981   4
   1   3  11 538.989 16.2377   1
  -1   3 -11 513.164 17.3463   2
  -1   3 -11 532.494 16.7702  14
   1   3  11 527.917 16.0866   6
 -10  -4  11 4.60318 2.55722  12
  10  -4 -11 6.05160 2.96237   1
 -10  -4  11 4.46030 2.80407   1
  10  -4 -11 3.99216 2.12474   4
 -10   4  11 4.32860 2.30062   9
  10   4 -11 7.38166 3.89570   7
 -10   4  11 6.55537 1.96510  12
  -8  -4  11 55.1343 4.65366  12
  -8  -4  11 55.5400 5.73661   1
   8  -4 -11 53.0791 4.86928   4
   8  -4 -11 46.4402 5.33795   1
   8   4 -11 67.2239 6.91443   7
   8   4 -11 44.0378 4.59818   4
  -8   4  11 58.8643 4.98884   1
  -8   4  11 59.1741 6.30093   9
   6  -4 -11 30.7463 4.98374  13
   6  -4 -11 38.6405 4.42033   1
  -6  -4  11 30.9945 4.26341   1
   6  -4 -11 33.0503 3.89151  14
  -6  -4  11 32.5346 3.77936  12
  -6  -4  11 29.0204 3.55307   6
   6  -4 -11 30.0011 3.83427   4
  -6   4  11 33.4440 4.81624   9
  -6   4  11 38.0324 4.86972   1
  -6   4  11 30.7115 3.32417  12
   6   4 -11 28.1022 4.58083   7
   6   4 -11 29.1949 4.09393   4
  -4  -4  11 68.8224 4.99203  12
   4  -4 -11 64.7288 4.73671   4
  -4  -4  11 76.1656 5.56951   1
  -4  -4  11 66.8254 4.67113   6
   4  -4 -11 62.8650 5.26965  14
  -4   4  11 66.6528 5.80753   1
   4   4 -11 64.7249 4.79876   4
   4   4 -11 64.8109 5.77085   7
   4   4 -11 59.0631 5.43653  14
  -4   4  11 73.9014 5.15326  12
  -4   4  11 64.6985 6.09113   9
  -2  -4  11 103.224 5.81652   6
  -2  -4  11 105.420 5.82927   1
   2  -4 -11 101.871 5.81977   4
   2  -4 -11 111.177 6.92748  14
   2  -4 -11 108.248 6.46440   2
  -2  -4  11 102.840 6.34808  12
  -2   4  11 109.774 6.80335   1
  -2   4  11 113.289 6.67640   6
   2   4 -11 106.175 6.19595   4
  -2   4  11 116.395 8.14182   9
  -2   4  11 110.135 6.73851  12
   2   4 -11 108.967 7.16248  14
   0  -4 -11 53.1106 5.25250   2
   0  -4  11 57.2003 4.24215   6
   0  -4 -11 47.5914 5.23346  14
   0  -4  11 50.0635 5.33357  12
   0   4  11 59.4426 5.11256   6
   0   4  11 51.7948 5.17979   1
   0   4 -11 50.0830 4.82942   4
   0   4  11 50.9498 6.34333   9
   0   4  11 54.3307 5.43168  12
   0   4 -11 49.2762 4.74594  14
  -9  -5  11 353.805 12.6224  12
   9  -5 -11 359.721 13.9470   1
   9  -5 -11 359.206 13.1323   4
   9   5 -11 351.636 15.3986   7
  -9   5  11 340.773 13.7473   9
   7  -5 -11 201.953 9.76559   1
  -7  -5  11 206.245 9.07171  12
  -7  -5  11 209.694 9.84070   1
   7  -5 -11 202.717 9.13271   4
   7   5 -11 205.481 10.9235   7
   7   5 -11 204.662 9.23336   4
  -7   5  11 198.826 9.46646   1
  -7   5  11 206.300 10.2207   9
  -7   5  11 190.247 7.83631  12
   5  -5 -11 280.639 12.7442  13
   5  -5 -11 295.035 11.0427  14
  -5  -5  11 299.513 10.7412   6
  -5  -5  11 301.404 11.0501  12
  -5  -5  11 288.616 11.3813   1
   5  -5 -11 295.895 11.0722   4
  -5   5  11 277.852 11.9091   9
   5   5 -11 276.469 11.1769  14
   5   5 -11 288.381 12.2198   7
   5   5 -11 297.147 10.9993   4
  -5   5  11 289.389 11.8585   1
  -3  -5  11 225.122 8.94155   1
  -3  -5  11 187.952 8.81189  12
   3  -5 -11 206.625 9.34528  14
  -3  -5  11 209.033 8.60190   6
   3  -5 -11 202.163 8.52523   4
  -3   5  11 217.735 10.3722   1
  -3   5  11 194.966 10.3562   9
  -3   5  11 200.818 8.45684  12
   3   5 -11 202.846 9.87947   7
   3   5 -11 198.702 8.77584   4
   3   5 -11 207.442 9.80157  14
  -1  -5  11 292.305 9.86452   6
   1  -5 -11 253.329 10.7221  14
   1  -5 -11 242.759 10.1565   2
  -1   5  11 252.088 10.2297  12
   1   5 -11 271.763 10.4405   4
  -1   5  11 277.945 13.0058   9
  -1   5  11 269.084 11.5919   1
   1   5 -11 263.337 11.3385  14
  -8  -6  11 2.30335 2.55109   1
  -8  -6  11 -0.3027 1.91537  12
   8  -6 -11 1.55065 2.54548   1
  -8   6  11 1.27062 2.52972   9
   8   6 -11 0.66477 2.71767   7
  -6  -6  11 58.6776 5.58372   1
  -6  -6  11 63.5399 5.20814  12
   6  -6 -11 63.6982 5.77781   1
   6  -6 -11 58.9890 5.40473   4
  -6  -6  11 58.0793 5.86997   6
  -6   6  11 59.5191 5.65300   1
   6   6 -11 56.8494 6.31999   7
   6   6 -11 55.8067 6.07441  14
   6   6 -11 65.6136 5.45840   4
  -6   6  11 62.3691 6.03227   9
  -4  -6  11 47.8336 4.50796   6
  -4  -6  11 43.1219 4.45646  12
   4  -6 -11 52.5061 4.96820   4
   4  -6 -11 56.6129 5.34623  14
  -4  -6  11 59.3591 5.12947   1
   4   6 -11 53.8217 5.80081  14
   4   6 -11 57.3948 5.34975   4
  -4   6  11 57.2409 5.48292   9
  -4   6  11 60.1248 5.41131   1
   4   6 -11 55.6215 5.90557   7
   2  -6 -11 34.9121 4.78076  14
  -2  -6  11 37.1000 4.00233   6
   2  -6 -11 37.5630 3.98380   4
  -2   6  11 38.8545 5.86701   9
   2   6 -11 35.6406 4.47560   4
   2   6 -11 40.2494 5.12672   7
  -2   6  11 38.5791 4.31971  12
   2   6 -11 37.6169 4.85254  14
  -2   6  11 49.2108 5.84800   1
   7  -7 -11 179.309 9.67963   1
  -7  -7  11 187.553 9.81612   1
   7   7 -11 178.998 8.82921   4
  -7   7  11 173.403 9.68953   9
   7   7 -11 176.199 10.1832   7
   5  -7 -11 567.180 16.7002   4
  -5  -7  11 555.959 17.1120   1
   5   7 -11 555.068 17.0659   4
  -5   7  11 563.734 18.0436   1
   5   7 -11 550.216 18.9975   7
   5   7 -11 548.346 17.4861  14
  -5   7  11 542.831 18.3347   9
   3  -7 -11 216.057 9.91497  14
  -3  -7  11 190.030 8.41473   1
  -3  -7  11 212.138 8.93951   6
   3   7 -11 202.268 10.4269   7
  -3   7  11 199.352 10.2389   1
   3   7 -11 214.333 10.2442  14
  -3   7  11 197.667 10.7193   9
   3   7 -11 211.106 9.40484   4
   4  -8 -11 81.9942 6.40156  14
   4  -8 -11 77.7698 5.53244   4
  -4  -8  11 86.4041 5.96038   1
  -4  -8  11 86.7766 5.95161   6
   4   8 -11 84.5244 6.53560   4
  -4   8  11 91.1816 7.55986   9
  -4   8  11 89.1015 7.17045   1
   4   8 -11 89.2490 7.72450   7
  10   0 -12 10.7249 2.56567   4
 -10   0  12 7.74983 2.25971  12
 -10   0  12 15.0217 2.93872   1
  -8   0  12 1029.00 26.2203   9
  -8   0  12 1025.76 25.3867  12
  -8   0  12 1055.47 26.9620   1
   8   0 -12 1018.44 28.1091   7
   8   0 -12 1006.44 25.5612   4
  -6   0  12 40.4181 4.54855  12
  -6   0  12 40.2799 4.57231   9
   6   0 -12 42.0996 4.45171   4
  -6   0  12 43.2964 5.18897   1
   6   0 -12 41.2303 4.81647   7
   4   0 -12 1000.63 25.2967   2
  -4   0  12 1029.03 25.8048  12
   4   0 -12 993.104 24.6714   4
  -4   0  12 1057.94 25.3412   6
  -4   0  12 1056.75 26.3815   1
   4   0 -12 1039.68 25.9784  14
  -4   0  12 1014.48 26.2393   9
  -2   0  12 2.71543 1.80781  12
   2   0 -12 5.65868 2.79274   2
   2   0 -12 2.79404 2.44972  14
  -2   0  12 6.88498 2.28884   6
   2   0 -12 5.05116 1.81870   4
  -2   0  12 13.3832 3.14597   1
  -2   0  12 5.26568 2.68845   9
   0   0  12 868.884 21.7795   1
   0   0 -12 871.158 24.2669   2
   0   0 -12 838.693 22.9306  14
   0   0  12 881.173 24.2565  12
   0   0  12 919.144 22.5571   6
   9  -1 -12 14.0637 2.90328   4
  -9  -1  12 13.2509 3.05112   1
  -9  -1  12 13.2954 2.72997  12
   9   1 -12 9.90942 3.76289   7
  -9   1  12 16.9770 3.35879  12
  -9   1  12 15.8887 3.48199   9
   9   1 -12 13.9379 3.24092   4
   7  -1 -12 85.5425 5.78023   4
   7  -1 -12 89.2860 6.88284   7
  -7  -1  12 82.8125 5.96264  12
  -7  -1  12 104.440 7.21790   1
  -7   1  12 95.0941 6.83361   1
   7   1 -12 93.8533 6.26164   4
  -7   1  12 91.2634 6.15766  12
  -7   1  12 86.7997 6.09062   9
   7   1 -12 81.7085 6.88449   7
   5  -1 -12 102.840 6.27791  14
  -5  -1  12 110.872 7.11613   1
  -5  -1  12 105.069 6.41528  12
  -5  -1  12 92.2925 5.88795   6
   5  -1 -12 104.696 6.41720   4
   5   1 -12 98.7408 6.65559   7
  -5   1  12 107.785 6.42657  12
  -5   1  12 106.884 7.20620   1
  -5   1  12 90.3875 6.67133   9
   5   1 -12 97.4743 6.06166   4
   5   1 -12 109.819 6.49972  14
  -3  -1  12 6.37520 2.74840  12
  -3  -1  12 10.4938 2.43380   1
   3  -1 -12 14.3943 2.90619   4
   3  -1 -12 6.16296 2.57378   2
  -3  -1  12 13.5858 2.92974   6
   3  -1 -12 13.0205 3.19878  14
   3   1 -12 8.01298 2.76960  14
  -3   1  12 16.2276 3.45697   1
  -3   1  12 8.47713 3.04737  12
  -3   1  12 9.51982 2.52784   6
  -3   1  12 11.1915 3.31058   9
   3   1 -12 12.4996 2.60562   4
   3   1 -12 10.9560 3.10203   2
  -1  -1  12 105.210 6.17198   6
   1  -1 -12 95.1113 6.37119  14
   1  -1 -12 111.108 6.13092   4
   1  -1 -12 101.648 7.06951   2
  -1  -1  12 99.9258 7.11796  12
  -1  -1  12 103.794 5.98933   1
  -1   1  12 101.000 7.20311  12
  -1   1  12 97.4738 6.25882   6
  -1   1  12 105.928 8.04245   9
   1   1 -12 99.1839 6.83620   2
   1   1 -12 101.098 6.06740   4
  -1   1  12 103.435 6.56719   1
   1   1 -12 98.5957 6.90381  14
 -10   2  12 226.247 10.7488   9
   8  -2 -12 442.054 14.5702   4
  -8  -2  12 450.666 14.6398  12
  -8  -2  12 479.919 16.1772   1
  -8   2  12 437.217 13.9808  12
   8   2 -12 426.837 14.1875   4
  -8   2  12 464.513 15.5785   1
  -8   2  12 440.750 15.4199   9
   6  -2 -12 498.880 15.2637   4
  -6  -2  12 495.809 15.4276  12
  -6  -2  12 479.550 16.0223   1
   6   2 -12 502.510 15.3481   4
  -6   2  12 490.213 14.8950  12
   6   2 -12 494.418 16.6351   7
  -6   2  12 495.740 16.3531   1
   6   2 -12 473.505 14.9564  14
  -6   2  12 465.406 15.8909   9
   4  -2 -12 402.489 13.0050   4
  -4  -2  12 401.510 13.7673   1
  -4  -2  12 421.421 14.0988  12
   4  -2 -12 379.066 13.3112  14
  -4  -2  12 398.621 12.9676   6
  -4   2  12 376.434 14.4237   9
   4   2 -12 385.124 13.6959  14
   4   2 -12 382.526 12.9914   4
  -4   2  12 393.892 14.2968   1
  -4   2  12 404.821 13.5639  12
   2  -2 -12 337.602 12.7010  14
  -2  -2  12 324.954 12.7240  12
  -2  -2  12 361.921 11.9930   1
   2  -2 -12 331.489 12.5214   2
   2  -2 -12 332.424 11.3974   4
  -2  -2  12 350.936 11.9079   6
  -2   2  12 325.206 13.7731   9
   2   2 -12 319.043 12.5338  14
  -2   2  12 361.996 12.8652   1
   2   2 -12 319.848 12.7530   2
   2   2 -12 330.955 11.5101   4
  -2   2  12 359.756 13.1093  12
   0  -2  12 106.576 6.03650   6
   0  -2 -12 112.626 7.48234   2
   0  -2 -12 106.814 6.71389  14
   0  -2  12 105.808 7.42042  12
   0   2 -12 110.830 7.37354   2
   0   2  12 114.615 6.86545   6
   0   2 -12 100.342 5.82441   4
   0   2  12 110.494 7.25127  12
   0   2 -12 111.497 7.24518  14
   0   2  12 109.495 6.67537   1
   9  -3 -12 72.8174 6.05646   1
  -9  -3  12 78.1732 6.05651  12
  -9  -3  12 76.4742 6.16018   1
   9  -3 -12 61.6644 5.74844   4
   9   3 -12 70.9858 7.33830   7
  -9   3  12 79.6108 6.78241   9
  -9   3  12 73.3231 6.18200   1
   9   3 -12 64.9782 5.43711   4
   7  -3 -12 15.7427 3.41445   4
  -7  -3  12 13.7105 3.29229  12
  -7  -3  12 17.2320 3.28881   1
  -7   3  12 18.4684 3.59168   9
  -7   3  12 16.0883 3.03281  12
   7   3 -12 17.2016 3.68397   7
   7   3 -12 14.7319 3.11322   4
  -7   3  12 18.9939 3.76718   1
  -5  -3  12 5.16879 2.52139  12
  -5  -3  12 9.19500 2.63269   6
  -5  -3  12 7.22108 2.35077   1
   5  -3 -12 9.78770 2.85677  14
   5  -3 -12 6.37670 2.11515   4
   5   3 -12 9.78335 2.98230  14
   5   3 -12 7.42551 2.88619   7
   5   3 -12 8.95969 2.82186   4
  -5   3  12 7.62703 2.57554  12
  -5   3  12 9.98271 3.29134   1
  -5   3  12 8.34964 2.79615   9
   3  -3 -12 58.7495 5.00926  14
  -3  -3  12 59.1431 4.88339   6
   3  -3 -12 56.2258 4.81462   4
  -3  -3  12 52.5249 5.30397  12
   3  -3 -12 35.8637 6.97583   2
  -3  -3  12 60.0025 5.07138   1
   3   3 -12 58.3115 5.18673  14
  -3   3  12 62.2186 5.85406   1
  -3   3  12 56.9291 6.23023   9
  -3   3  12 59.0952 4.94968  12
   3   3 -12 63.3056 5.31501   4
   1  -3 -12 1.51434 2.32924   2
   1  -3 -12 1.92139 2.33738  14
  -1  -3  12 5.22908 2.16563   6
  -1  -3  12 2.54386 1.91351  12
  -1   3  12 -0.3016 2.74705   9
  -1   3  12 3.86429 2.69217  12
   1   3 -12 3.14108 2.45132  14
  -1   3  12 2.64964 2.44056   1
  -1   3  12 0.39397 1.32227   6
   1   3 -12 3.29138 2.09358   4
  -8  -4  12 31.7424 4.47185  12
  -8  -4  12 36.1762 4.74689   1
   8  -4 -12 32.6927 4.48576   4
   8  -4 -12 31.4748 4.31949   1
  -8   4  12 30.2474 4.45137   1
  -8   4  12 39.0100 5.05799   9
   8   4 -12 32.7635 5.24479   7
   8   4 -12 37.5071 4.62011   4
  -8   4  12 33.6006 3.86545  12
  -6  -4  12 435.634 14.7853   1
   6  -4 -12 413.292 13.8610   4
   6  -4 -12 376.242 13.4280  14
  -6  -4  12 400.385 13.7209  12
  -6   4  12 435.109 15.2310   1
  -6   4  12 424.804 15.2450   9
   6   4 -12 403.378 15.1449   7
  -6   4  12 416.338 12.9704  12
   4  -4 -12 32.9919 4.42348  14
  -4  -4  12 34.3392 4.15310   1
   4  -4 -12 30.0095 3.77473   4
  -4  -4  12 34.1639 4.18630   6
  -4  -4  12 32.4569 4.51496  12
   4   4 -12 35.7608 4.50038   4
  -4   4  12 41.4920 5.64955   9
  -4   4  12 30.9962 3.76301  12
   4   4 -12 29.6970 4.35509   7
   4   4 -12 31.4786 4.31309  14
   2  -4 -12 568.880 17.3446  14
  -2  -4  12 568.264 16.1472   6
   2  -4 -12 547.107 15.8439   4
  -2  -4  12 553.757 17.2049  12
  -2   4  12 596.405 17.5132  12
   2   4 -12 551.608 16.6413   4
   2   4 -12 569.280 17.9505  14
  -2   4  12 585.055 18.3010   1
  -2   4  12 551.187 19.1686   9
   7  -5 -12 0.96571 2.37148   4
  -7  -5  12 2.03708 1.77894  12
  -7  -5  12 -0.1933 1.59133   1
  -7   5  12 0.44110 2.32259   1
   7   5 -12 0.45969 1.53931   4
  -7   5  12 2.88838 2.81519   9
   7   5 -12 2.12700 2.92900   7
   5  -5 -12 1.97525 2.26091   4
  -5  -5  12 0.36560 2.12794  12
  -5  -5  12 2.75920 2.08040   6
  -5  -5  12 2.33970 1.89965   1
   5  -5 -12 3.11108 1.86173  14
   5   5 -12 2.77969 1.83740   4
  -5   5  12 0.94283 1.92950   1
   5   5 -12 1.04078 2.50487   7
  -5   5  12 0.87515 2.76655   9
  -5   5  12 2.19658 1.93267  12
   5   5 -12 5.42195 2.12874  14
  -3  -5  12 39.8807 4.42094  12
  -3  -5  12 42.7663 4.34541   1
   3  -5 -12 36.0124 4.43836  14
  -3  -5  12 42.5757 4.65803   6
  -3   5  12 41.9987 4.38409  12
   3   5 -12 40.3462 4.54847   7
  -3   5  12 41.9424 5.41163   1
   3   5 -12 40.5799 4.52834   4
   3   5 -12 48.7629 5.53984  14
  -6  -6  12 105.976 7.28229   1
  -6  -6  12 109.910 6.83235  12
   6  -6 -12 108.568 7.14265   4
   6   6 -12 106.333 6.65743   4
  -6   6  12 104.202 7.79259   9
   6   6 -12 99.0264 7.51173   7
  -6   6  12 117.888 7.93757   1
  -4  -6  12 659.370 18.7137   1
  -4  -6  12 629.727 18.5937  12
  -4  -6  12 694.016 18.8218   6
   4  -6 -12 642.315 19.1080  14
  -4   6  12 672.306 20.7144   1
  -4   6  12 645.373 20.9259   9
   4   6 -12 680.033 20.2527  14
   4   6 -12 657.681 19.3400   4
  -8   0  13 3.34267 2.59672  12
   8   0 -13 3.29201 1.87287   4
   8   0 -13 -0.9138 2.42037   7
  -8   0  13 0.82324 1.85850   1
  -6   0  13 2.83115 2.17564  12
  -6   0  13 0.17825 2.06760   1
   6   0 -13 -0.6693 1.41032   4
  -4   0  13 2.03302 2.10012   6
   4   0 -13 -0.2308 2.16619  14
  -4   0  13 -0.2379 2.03096   1
  -4   0  13 -2.4210 2.03436  12
   4   0 -13 3.01652 2.25636   4
  -7  -1  13 500.156 16.0682  12
   7  -1 -13 521.607 16.3354   4
  -7  -1  13 523.501 17.2005   1
  -7   1  13 522.615 17.3850   1
  -7   1  13 501.943 16.8304   9
   7   1 -13 515.986 17.6907   7
  -7   1  13 509.439 16.0191  12
   7   1 -13 501.520 16.1190   4
  -5  -1  13 67.7672 6.04716  12
   5  -1 -13 71.2032 5.29982   4
  -5  -1  13 75.3776 6.35690   1
   5  -1 -13 70.2016 5.85258  14
   5   1 -13 68.1941 5.84331  14
   5   1 -13 65.2165 5.14094   4
  -5   1  13 76.2241 6.42658   1
  -5   1  13 65.9251 6.13811   9
  -5   1  13 72.9463 6.05637  12
   3  -1 -13 536.689 17.0484  14
  -3  -1  13 496.594 16.6640  12
  -3  -1  13 564.295 16.5810   6
   3  -1 -13 527.775 15.7515   4
  -3  -1  13 543.565 16.6928   1
   3  -1 -13 487.893 16.2766   2
   3   1 -13 531.042 15.8424   4
  -3   1  13 534.905 16.9966   1
  -3   1  13 544.031 16.4487   6
  -3   1  13 515.397 16.8830  12
  -3   1  13 504.836 17.8177   9
   3   1 -13 500.809 16.7207  14
   8  -2 -13 155.275 8.19705   4
  -8  -2  13 158.319 8.93004   1
  -8  -2  13 160.210 8.58391  12
   8  -2 -13 157.303 10.6699   7
   8   2 -13 164.275 10.0087   7
   8   2 -13 159.393 8.49534   4
  -8   2  13 170.096 8.31246  12
  -8   2  13 166.911 9.01394   1
  -6  -2  13 161.505 9.00927   1
   6  -2 -13 146.068 7.92423   4
  -6  -2  13 155.017 8.50906  12
   6   2 -13 143.792 7.99168   4
  -6   2  13 154.744 8.16928  12
  -6   2  13 152.447 8.94664   1
   6   2 -13 142.179 8.21767   7
   4  -2 -13 193.662 8.81339   4
  -4  -2  13 195.018 9.44842   1
  -4  -2  13 185.522 9.22309  12
   4  -2 -13 186.513 9.26730  14
  -4  -2  13 198.920 8.97776   6
  -4   2  13 185.311 9.73839   1
  -4   2  13 181.642 9.22181  12
   4   2 -13 177.354 8.99472  14
   4   2 -13 183.163 8.88441   4
  -4   2  13 177.047 9.93900   9
  -7  -3  13 147.032 8.85121   1
   7  -3 -13 155.593 8.04057   4
  -7  -3  13 143.797 8.18857  12
  -7   3  13 168.945 9.40012   1
   7   3 -13 158.102 8.11784   4
  -7   3  13 154.692 9.27645   9
  -7   3  13 149.705 7.83659  12
  -5  -3  13 342.022 12.9175   1
  -5  -3  13 361.477 12.6945   6
  -5  -3  13 336.159 12.9114  12
   5  -3 -13 345.628 12.4268   4
  -5   3  13 347.223 12.4570  12
   5   3 -13 329.344 12.4949   4
   5   3 -13 343.237 13.0622  14
  -5   3  13 358.855 14.0003   1
  -5   3  13 356.107 14.3145   9
   0   0   0    0.00    0.00   0

 _exptl_absorpt_process_details
)
 SADABS 2016/2: Krause, L., Herbst-Irmer, R., Sheldrick G.M. & Stalke D.,
 J. Appl. Cryst. 48 (2015) 3-10
)
 _exptl_absorpt_correction_type   multi-scan
 _exptl_absorpt_correction_T_max  0.7479
 _exptl_absorpt_correction_T_min  0.5767
 _exptl_special_details
)
 The following wavelength and cell were deduced by SADABS from the
 direction cosines etc. They are given here for emergency use only:
 CELL 0.71065    6.940    7.597    7.460   90.004  116.399   90.007
)

;
_shelx_hkl_checksum              81141
loop_
_space_group_symop_operation_xyz
'x, y, z'
'-x, y, -z+1/2'
'x+1/2, y+1/2, z'
'-x+1/2, y+1/2, -z+1/2'
'-x, -y, -z'
'x, -y, z-1/2'
'-x+1/2, -y+1/2, -z'
'x+1/2, -y+1/2, z-1/2'
loop_
_atom_site_label
_atom_site_type_symbol
_atom_site_fract_x
_atom_site_fract_y
_atom_site_fract_z
_atom_site_U_iso_or_equiv
_atom_site_adp_type
_atom_site_occupancy
_atom_site_site_symmetry_order
_atom_site_calc_flag
_atom_site_refinement_flags_posn
_atom_site_refinement_flags_adp
_atom_site_refinement_flags_occupancy
_atom_site_disorder_assembly
_atom_site_disorder_group
Co Co 0.000000 0.500000 0.000000 0.00568(4) Uani 1 2 d S . P . .
S S 0.000000 0.15433(3) 0.250000 0.00510(4) Uani 1 2 d S T P . .
O1 O 0.17242(8) 0.04355(7) 0.40080(8) 0.01078(8) Uani 1 1 d . . . . .
O2 O 0.09802(8) 0.26722(6) 0.15443(7) 0.00931(8) Uani 1 1 d . . . . .
O3 O 0.000000 0.63819(9) 0.250000 0.00832(10) Uani 1 2 d S T P . .
H H 0.103(2) 0.704(2) 0.294(2) 0.026(4) Uiso 1 1 d . . . . .
loop_
_atom_site_aniso_label
_atom_site_aniso_U_11
_atom_site_aniso_U_22
_atom_site_aniso_U_33
_atom_site_aniso_U_23
_atom_site_aniso_U_13
_atom_site_aniso_U_12
Co 0.00537(5) 0.00567(5) 0.00604(5) 0.00038(3) 0.00275(4) -0.00009(3)
S 0.00412(7) 0.00475(7) 0.00634(7) 0.000 0.00242(5) 0.000
O1 0.00670(16) 0.01221(19) 0.01247(18) 0.00609(15) 0.00380(14) 0.00322(14)
O2 0.00939(17) 0.00810(17) 0.01282(18) 0.00394(14) 0.00722(15) 0.00123(13)
O3 0.0083(2) 0.0087(2) 0.0083(2) 0.000 0.00431(19) 0.000
loop_
_atom_type_symbol
_atom_type_description
_atom_type_scat_dispersion_real
_atom_type_scat_dispersion_imag
_atom_type_scat_source
O O 0.0106 0.0060 'International Tables Vol C Tables 4.2.6.8 and 6.1.1.4'
H H 0.0000 0.0000 'International Tables Vol C Tables 4.2.6.8 and 6.1.1.4'
S S 0.1246 0.1234 'International Tables Vol C Tables 4.2.6.8 and 6.1.1.4'
Co Co 0.3494 0.9721 'International Tables Vol C Tables 4.2.6.8 and 6.1.1.4'
loop_
_geom_angle_atom_site_label_1
_geom_angle_atom_site_label_2
_geom_angle_atom_site_label_3
_geom_angle
_geom_angle_site_symmetry_1
_geom_angle_site_symmetry_3
_geom_angle_publ_flag
O2 Co O2 180.0 . 5_565 ?
O2 Co O1 94.49(2) . 8_455 ?
O2 Co O1 85.50(2) 5_565 8_455 ?
O2 Co O1 85.51(2) . 4 ?
O2 Co O1 94.50(2) 5_565 4 ?
O1 Co O1 180.0 8_455 4 ?
O2 Co O3 86.93(2) . 5_565 ?
O2 Co O3 93.07(2) 5_565 5_565 ?
O1 Co O3 93.616(17) 8_455 5_565 ?
O1 Co O3 86.384(17) 4 5_565 ?
O2 Co O3 93.07(2) . . ?
O2 Co O3 86.93(2) 5_565 . ?
O1 Co O3 86.384(17) 8_455 . ?
O1 Co O3 93.616(17) 4 . ?
O3 Co O3 180.0 5_565 . ?
O2 Co O2 81.701(13) . 8_455 ?
O2 Co O2 98.299(14) 5_565 8_455 ?
O1 Co O2 43.188(17) 8_455 8_455 ?
O1 Co O2 136.812(17) 4 8_455 ?
O3 Co O2 52.000(13) 5_565 8_455 ?
O3 Co O2 128.000(13) . 8_455 ?
O2 Co O2 98.299(14) . 4 ?
O2 Co O2 81.701(14) 5_565 4 ?
O1 Co O2 136.812(17) 8_455 4 ?
O1 Co O2 43.188(17) 4 4 ?
O3 Co O2 127.999(13) 5_565 4 ?
O3 Co O2 52.001(13) . 4 ?
O2 Co O2 180.0 8_455 4 ?
O2 Co O2 137.452(18) . 6_565 ?
O2 Co O2 42.550(19) 5_565 6_565 ?
O1 Co O2 112.60(2) 8_455 6_565 ?
O1 Co O2 67.40(2) 4 6_565 ?
O3 Co O2 60.28(2) 5_565 6_565 ?
O3 Co O2 119.72(2) . 6_565 ?
O2 Co O2 95.840(16) 8_455 6_565 ?
O2 Co O2 84.159(16) 4 6_565 ?
O2 Co O2 42.548(18) . 2 ?
O2 Co O2 137.450(18) 5_565 2 ?
O1 Co O2 67.40(2) 8_455 2 ?
O1 Co O2 112.60(2) 4 2 ?
O3 Co O2 119.72(2) 5_565 2 ?
O3 Co O2 60.28(2) . 2 ?
O2 Co O2 84.160(16) 8_455 2 ?
O2 Co O2 95.841(16) 4 2 ?
O2 Co O2 180.0 6_565 2 ?
O1 S O1 109.91(5) 2 . ?
O1 S O2 110.05(3) 2 . ?
O1 S O2 108.74(3) . . ?
O1 S O2 108.74(3) 2 2 ?
O1 S O2 110.04(3) . 2 ?
O2 S O2 109.36(4) . 2 ?
S O1 Co 136.76(3) . 4_545 ?
S O1 O2 35.878(18) . . ?
Co O1 O2 100.92(2) 4_545 . ?
S O1 O1 35.05(2) . 2 ?
Co O1 O1 140.97(4) 4_545 2 ?
O2 O1 O1 60.50(2) . 2 ?
S O1 O2 35.220(19) . 2 ?
Co O1 O2 144.12(3) 4_545 2 ?
O2 O1 O2 60.38(3) . 2 ?
O1 O1 O2 59.69(2) 2 2 ?
S O1 O2 128.83(3) . 4_545 ?
Co O1 O2 47.218(15) 4_545 4_545 ?
O2 O1 O2 109.96(2) . 4_545 ?
O1 O1 O2 103.74(2) 2 4_545 ?
O2 O1 O2 163.09(3) 2 4_545 ?
S O1 O3 169.63(3) . 7_556 ?
Co O1 O3 48.535(13) 4_545 7_556 ?
O2 O1 O3 146.94(3) . 7_556 ?
O1 O1 O3 150.098(19) 2 7_556 ?
O2 O1 O3 134.47(3) 2 7_556 ?
O2 O1 O3 61.537(18) 4_545 7_556 ?
S O1 O2 114.38(3) . 8_556 ?
Co O1 O2 42.727(16) 4_545 8_556 ?
O2 O1 O2 86.70(2) . 8_556 ?
O1 O1 O2 147.01(2) 2 8_556 ?
O2 O1 O2 102.67(3) 2 8_556 ?
O2 O1 O2 89.95(2) 4_545 8_556 ?
O3 O1 O2 62.51(2) 7_556 8_556 ?
S O1 O3 92.69(3) . 3_545 ?
Co O1 O3 44.713(14) 4_545 3_545 ?
O2 O1 O3 57.682(19) . 3_545 ?
O1 O1 O3 102.77(3) 2 3_545 ?
O2 O1 O3 114.95(3) 2 3_545 ?
O2 O1 O3 62.78(2) 4_545 3_545 ?
O3 O1 O3 93.25(2) 7_556 3_545 ?
O2 O1 O3 56.953(17) 8_556 3_545 ?
S O1 O2 125.55(3) . 6_556 ?
Co O1 O2 97.30(2) 4_545 6_556 ?
O2 O1 O2 161.00(3) . 6_556 ?
O1 O1 O2 101.51(2) 2 6_556 ?
O2 O1 O2 106.50(2) 2 6_556 ?
O2 O1 O2 78.84(2) 4_545 6_556 ?
O3 O1 O2 52.038(16) 7_556 6_556 ?
O2 O1 O2 110.62(2) 8_556 6_556 ?
O3 O1 O2 138.32(2) 3_545 6_556 ?
S O1 O2 111.53(3) . 7_556 ?
Co O1 O2 77.58(2) 4_545 7_556 ?
O2 O1 O2 108.15(3) . 7_556 ?
O1 O1 O2 138.89(3) 2 7_556 ?
O2 O1 O2 80.06(2) 2 7_556 ?
O2 O1 O2 116.82(2) 4_545 7_556 ?
O3 O1 O2 58.88(2) 7_556 7_556 ?
O2 O1 O2 44.764(19) 8_556 7_556 ?
O3 O1 O2 101.47(2) 3_545 7_556 ?
O2 O1 O2 80.970(16) 6_556 7_556 ?
S O1 O3 103.76(3) . 1_545 ?
Co O1 O3 97.58(2) 4_545 1_545 ?
O2 O1 O3 118.80(3) . 1_545 ?
O1 O1 O3 68.713(11) 2 1_545 ?
O2 O1 O3 118.17(2) 2 1_545 ?
O2 O1 O3 51.994(17) 4_545 1_545 ?
O3 O1 O3 82.542(18) 7_556 1_545 ?
O2 O1 O3 138.50(2) 8_556 1_545 ?
O3 O1 O3 107.31(2) 3_545 1_545 ?
O2 O1 O3 52.710(14) 6_556 1_545 ?
O2 O1 O3 132.762(18) 7_556 1_545 ?
S O2 Co 132.44(3) . . ?
S O2 O1 35.383(17) . . ?
Co O2 O1 161.44(3) . . ?
S O2 O1 34.736(19) . 2 ?
Co O2 O1 119.25(3) . 2 ?
O1 O2 O1 59.81(3) . 2 ?
S O2 O2 35.32(2) . 2 ?
Co O2 O2 102.487(19) . 2 ?
O1 O2 O2 60.20(2) . 2 ?
O1 O2 O2 59.41(2) 2 2 ?
S O2 O3 108.32(3) . 3_545 ?
Co O2 O3 118.90(2) . 3_545 ?
O1 O2 O3 73.96(2) . 3_545 ?
O1 O2 O3 114.08(3) 2 3_545 ?
O2 O2 O3 129.90(3) 2 3_545 ?
S O2 O1 159.88(3) . 4 ?
Co O2 O1 47.276(17) . 4 ?
O1 O2 O1 136.61(2) . 4 ?
O1 O2 O1 163.09(3) 2 4 ?
O2 O2 O1 128.095(18) 2 4 ?
O3 O2 O1 73.90(2) 3_545 4 ?
S O2 O3 137.01(3) . 5_565 ?
Co O2 O3 48.272(17) . 5_565 ?
O1 O2 O3 149.03(3) . 5_565 ?
O1 O2 O3 102.69(3) 2 5_565 ?
O2 O2 O3 136.17(3) 2 5_565 ?
O3 O2 O3 93.693(19) 3_545 5_565 ?
O1 O2 O3 61.052(19) 4 5_565 ?
S O2 O1 92.89(3) . 8_455 ?
Co O2 O1 42.777(14) . 8_455 ?
O1 O2 O1 128.21(3) . 8_455 ?
O1 O2 O1 77.33(3) 2 8_455 ?
O2 O2 O1 73.97(3) 2 8_455 ?
O3 O2 O1 156.09(2) 3_545 8_455 ?
O1 O2 O1 90.05(2) 4 8_455 ?
O3 O2 O1 62.705(18) 5_565 8_455 ?
S O2 O3 102.08(3) . . ?
Co O2 O3 45.029(13) . . ?
O1 O2 O3 117.09(2) . . ?
O1 O2 O3 116.45(2) 2 . ?
O2 O2 O3 66.759(11) 2 . ?
O3 O2 O3 125.83(2) 3_545 . ?
O1 O2 O3 63.335(18) 4 . ?
O3 O2 O3 93.300(17) 5_565 . ?
O1 O2 O3 56.827(14) 8_455 . ?
S O2 O1 96.41(3) . 6 ?
Co O2 O1 112.96(2) . 6 ?
O1 O2 O1 85.031(18) . 6 ?
O1 O2 O1 73.50(2) 2 6 ?
O2 O2 O1 130.742(16) 2 6 ?
O3 O2 O1 57.333(17) 3_545 6 ?
O1 O2 O1 101.16(2) 4 6 ?
O3 O2 O1 64.74(2) 5_565 6 ?
O1 O2 O1 110.61(2) 8_455 6 ?
O3 O2 O1 157.88(2) . 6 ?
S O2 O1 81.91(2) . 7_556 ?
Co O2 O1 94.47(2) . 7_556 ?
O1 O2 O1 71.85(3) . 7_556 ?
O1 O2 O1 116.06(3) 2 7_556 ?
O2 O2 O1 61.26(2) 2 7_556 ?
O3 O2 O1 87.17(2) 3_545 7_556 ?
O1 O2 O1 78.204(17) 4 7_556 ?
O3 O2 O1 137.04(2) 5_565 7_556 ?
O1 O2 O1 107.16(2) 8_455 7_556 ?
O3 O2 O1 53.877(13) . 7_556 ?
O1 O2 O1 142.226(19) 6 7_556 ?
Co O3 Co 122.22(3) . 2 ?
Co O3 O2 111.718(15) . 3_455 ?
Co O3 O2 88.820(13) 2 3_455 ?
Co O3 O2 88.819(14) . 4 ?
Co O3 O2 111.719(15) 2 4 ?
O2 O3 O2 137.60(4) 3_455 4 ?
Co O3 O1 45.081(14) . 8_455 ?
Co O3 O1 104.19(3) 2 8_455 ?
O2 O3 O1 70.629(19) 3_455 8_455 ?
O2 O3 O1 132.590(17) 4 8_455 ?
Co O3 O1 104.19(3) . 7_556 ?
Co O3 O1 45.081(15) 2 7_556 ?
O2 O3 O1 132.591(17) 3_455 7_556 ?
O2 O3 O1 70.629(18) 4 7_556 ?
O1 O3 O1 123.01(4) 8_455 7_556 ?
Co O3 O2 161.52(3) . 6_566 ?
Co O3 O2 44.795(12) 2 6_566 ?
O2 O3 O2 83.435(18) 3_455 6_566 ?
O2 O3 O2 86.31(2) 4 6_566 ?
O1 O3 O2 140.754(18) 8_455 6_566 ?
O1 O3 O2 57.410(18) 7_556 6_566 ?
Co O3 O2 44.795(12) . 5_565 ?
Co O3 O2 161.52(3) 2 5_565 ?
O2 O3 O2 86.306(19) 3_455 5_565 ?
O2 O3 O2 83.434(18) 4 5_565 ?
O1 O3 O2 57.410(18) 8_455 5_565 ?
O1 O3 O2 140.754(18) 7_556 5_565 ?
O2 O3 O2 151.38(3) 6_566 5_565 ?
Co O3 O2 41.905(15) . . ?
Co O3 O2 81.74(2) 2 . ?
O2 O3 O2 125.83(2) 3_455 . ?
O2 O3 O2 94.543(15) 4 . ?
O1 O3 O2 60.66(2) 8_455 . ?
O1 O3 O2 67.25(2) 7_556 . ?
O2 O3 O2 120.78(2) 6_566 . ?
O2 O3 O2 86.700(17) 5_565 . ?
Co O3 O2 81.74(2) . 2 ?
Co O3 O2 41.904(15) 2 2 ?
O2 O3 O2 94.542(15) 3_455 2 ?
O2 O3 O2 125.83(2) 4 2 ?
O1 O3 O2 67.25(2) 8_455 2 ?
O1 O3 O2 60.66(2) 7_556 2 ?
O2 O3 O2 86.700(17) 6_566 2 ?
O2 O3 O2 120.78(2) 5_565 2 ?
O2 O3 O2 46.48(2) . 2 ?
Co O3 O1 121.44(2) . 3_455 ?
Co O3 O1 41.670(12) 2 3_455 ?
O2 O3 O1 48.360(15) 3_455 3_455 ?
O2 O3 O1 146.425(17) 4 3_455 ?
O1 O3 O1 80.451(18) 8_455 3_455 ?
O1 O3 O1 86.75(2) 7_556 3_455 ?
O2 O3 O1 60.342(16) 6_566 3_455 ?
O2 O3 O1 127.599(16) 5_565 3_455 ?
O2 O3 O1 99.25(2) . 3_455 ?
O2 O3 O1 53.888(15) 2 3_455 ?
Co O3 O1 41.670(12) . 4 ?
Co O3 O1 121.44(2) 2 4 ?
O2 O3 O1 146.425(17) 3_455 4 ?
O2 O3 O1 48.360(15) 4 4 ?
O1 O3 O1 86.75(2) 8_455 4 ?
O1 O3 O1 80.451(18) 7_556 4 ?
O2 O3 O1 127.599(16) 6_566 4 ?
O2 O3 O1 60.342(17) 5_565 4 ?
O2 O3 O1 53.888(15) . 4 ?
O2 O3 O1 99.25(2) 2 4 ?
O1 O3 O1 153.02(3) 3_455 4 ?
Co O3 H 107.2(11) . . ?
Co O3 H 107.8(11) 2 . ?
O2 O3 H 118.9(11) 3_455 . ?
O2 O3 H 20.9(11) 4 . ?
O1 O3 H 146.6(11) 8_455 . ?
O1 O3 H 76.1(11) 7_556 . ?
O2 O3 H 72.0(11) 6_566 . ?
O2 O3 H 90.1(11) 5_565 . ?
O2 O3 H 114.7(11) . . ?
O2 O3 H 136.7(11) 2 . ?
O1 O3 H 131.1(11) 3_455 . ?
O1 O3 H 68.5(11) 4 . ?
Co O3 H 107.8(11) . 2 ?
Co O3 H 107.2(11) 2 2 ?
O2 O3 H 20.9(11) 3_455 2 ?
O2 O3 H 118.9(11) 4 2 ?
O1 O3 H 76.1(11) 8_455 2 ?
O1 O3 H 146.6(11) 7_556 2 ?
O2 O3 H 90.1(11) 6_566 2 ?
O2 O3 H 72.0(11) 5_565 2 ?
O2 O3 H 136.7(11) . 2 ?
O2 O3 H 114.7(11) 2 2 ?
O1 O3 H 68.5(11) 3_455 2 ?
O1 O3 H 131.1(11) 4 2 ?
H O3 H 103(2) . 2 ?
loop_
_geom_bond_atom_site_label_1
_geom_bond_atom_site_label_2
_geom_bond_distance
_geom_bond_site_symmetry_2
_geom_bond_publ_flag
Co O2 2.0537(5) . ?
Co O2 2.0537(5) 5_565 ?
Co O1 2.0556(6) 8_455 ?
Co O1 2.0556(6) 4 ?
Co O3 2.1753(4) 5_565 ?
Co O3 2.1753(4) . ?
Co O2 3.4425(6) 8_455 ?
Co O2 3.4425(6) 4 ?
Co O2 3.4988(6) 6_565 ?
Co O2 3.4988(6) 2 ?
S O1 1.4672(5) 2 ?
S O1 1.4672(5) . ?
S O2 1.4850(5) . ?
S O2 1.4850(5) 2 ?
O1 O2 2.3995(7) . ?
O1 O1 2.4023(11) 2 ?
O1 O2 2.4189(7) 2 ?
O1 O2 2.7895(8) 4_545 ?
O1 O3 2.8971(7) 7_556 ?
O1 O2 3.0174(8) 8_556 ?
O1 O3 3.0857(6) 3_545 ?
O1 O2 3.2466(8) 6_556 ?
O1 O2 3.3075(9) 7_556 ?
O1 O3 3.3085(9) 1_545 ?
O2 O2 2.4233(10) 2 ?
O2 O3 2.7134(7) 3_545 ?
O2 O3 2.9106(6) 5_565 ?
O2 O3 3.0704(9) . ?
O3 H 0.808(15) . ?
O3 H 0.808(15) 2 ?
loop_
_geom_hbond_atom_site_label_D
_geom_hbond_atom_site_label_H
_geom_hbond_atom_site_label_A
_geom_hbond_distance_DH
_geom_hbond_distance_HA
_geom_hbond_distance_DA
_geom_hbond_angle_DHA
_geom_hbond_site_symmetry_A
_geom_hbond_publ_flag
O3 H O2 0.808(15) 1.979(15) 2.7134(7) 150.8(16) 4 yes
