#------------------------------------------------------------------------------
#$Date: 2022-03-06 06:37:54 +0200 (Sun, 06 Mar 2022) $
#$Revision: 273468 $
#$URL: file:///home/coder/svn-repositories/cod/cif/1/56/59/1565946.cif $
#------------------------------------------------------------------------------
#
# This file is available in the Crystallography Open Database (COD),
# http://www.crystallography.net/
#
# All data on this site have been placed in the public domain by the
# contributors.
#
data_1565946
loop_
_publ_author_name
'Wildner, Manfred'
'Zakharov, Boris A.'
'Bogdanov, Nikita E.'
'Talla, Dominik'
'Boldyreva, Elena V.'
'Miletich, Ronald'
_publ_section_title
;
 Crystallography relevant to Mars and Galilean icy moons: crystal behavior
 of kieserite-type monohydrate sulfates at extraterrestrial conditions
 down to 15 K
;
_journal_issue                   2
_journal_name_full               IUCrJ
_journal_page_first              194
_journal_page_last               203
_journal_paper_doi               10.1107/S2052252521012720
_journal_volume                  9
_journal_year                    2022
_chemical_formula_sum            'Fe H2 Mg0 O5 S'
_chemical_formula_weight         169.93
_space_group_crystal_system      monoclinic
_space_group_IT_number           15
_space_group_name_Hall           '-C 2yc'
_space_group_name_H-M_alt        'C 1 2/c 1'
_atom_sites_solution_hydrogens   difmap
_audit_creation_method           SHELXL-2017/1
_cell_angle_alpha                90
_cell_angle_beta                 118.404(10)
_cell_angle_gamma                90
_cell_formula_units_Z            4
_cell_length_a                   7.0482(10)
_cell_length_b                   7.5706(10)
_cell_length_c                   7.7498(10)
_cell_measurement_temperature    153(2)
_cell_volume                     363.74(9)
_computing_structure_refinement  'SHELXL-2017/1 (Sheldrick, 2017)'
_diffrn_ambient_temperature      153(2)
_diffrn_measured_fraction_theta_full 0.991
_diffrn_measured_fraction_theta_max 0.997
_diffrn_radiation_type           MoK\a
_diffrn_radiation_wavelength     0.71073
_diffrn_reflns_av_R_equivalents  0.0233
_diffrn_reflns_av_unetI/netI     0.0103
_diffrn_reflns_Laue_measured_fraction_full 0.991
_diffrn_reflns_Laue_measured_fraction_max 0.997
_diffrn_reflns_limit_h_max       12
_diffrn_reflns_limit_h_min       -12
_diffrn_reflns_limit_k_max       13
_diffrn_reflns_limit_k_min       -13
_diffrn_reflns_limit_l_max       14
_diffrn_reflns_limit_l_min       -14
_diffrn_reflns_number            10375
_diffrn_reflns_point_group_measured_fraction_full 0.991
_diffrn_reflns_point_group_measured_fraction_max 0.997
_diffrn_reflns_theta_full        25.242
_diffrn_reflns_theta_max         39.977
_diffrn_reflns_theta_min         4.200
_exptl_absorpt_coefficient_mu    4.603
_exptl_absorpt_correction_T_max  0.7479
_exptl_absorpt_correction_T_min  0.5767
_exptl_absorpt_correction_type   multi-scan
_exptl_absorpt_process_details
;
 SADABS 2016/2: Krause, L., Herbst-Irmer, R., Sheldrick G.M. & Stalke D.,
 J. Appl. Cryst. 48 (2015) 3-10
;
_exptl_crystal_density_diffrn    3.103
_exptl_crystal_F_000             336
_refine_diff_density_max         0.553
_refine_diff_density_min         -0.498
_refine_diff_density_rms         0.078
_refine_ls_extinction_coef       0.0219(12)
_refine_ls_extinction_expression Fc^*^=kFc[1+0.001xFc^2^\l^3^/sin(2\q)]^-1/4^
_refine_ls_extinction_method     'SHELXL-2017/1 (Sheldrick 2017)'
_refine_ls_goodness_of_fit_ref   1.182
_refine_ls_hydrogen_treatment    refall
_refine_ls_matrix_type           full
_refine_ls_number_parameters     40
_refine_ls_number_reflns         1130
_refine_ls_number_restraints     0
_refine_ls_restrained_S_all      1.182
_refine_ls_R_factor_all          0.0130
_refine_ls_R_factor_gt           0.0128
_refine_ls_shift/su_max          0.000
_refine_ls_shift/su_mean         0.000
_refine_ls_structure_factor_coef Fsqd
_refine_ls_weighting_details
'w=1/[\s^2^(Fo^2^)+(0.0140P)^2^+0.2400P] where P=(Fo^2^+2Fc^2^)/3'
_refine_ls_weighting_scheme      calc
_refine_ls_wR_factor_gt          0.0331
_refine_ls_wR_factor_ref         0.0332
_reflns_Friedel_coverage         0.000
_reflns_number_gt                1118
_reflns_number_total             1130
_reflns_threshold_expression     'I > 2\s(I)'
_cod_data_source_file            lt5044.cif
_cod_data_source_block           FeSO4H2O_N2_153K
_cod_depositor_comments
'Adding full bibliography for 1565934--1565967.cif.'
_cod_original_sg_symbol_H-M      'C 2/c'
_cod_database_code               1565946
_shelx_shelxl_version_number     2017/1
_shelx_space_group_comment
;
The symmetry employed for this shelxl refinement is uniquely defined
by the following loop, which should always be used as a source of
symmetry information in preference to the above space-group names.
They are only intended as comments.
;
_shelx_res_file
;
TITL 1991Fekiesx1 153K Apex in C2/c kieserite cell
    latt_corr_for_Nonius20C_1991Fekiesx1_153K_0m.res
    created by SHELXL-2017/1 at 15:53:57 on 08-Oct-2018

REM meas.  mon  7.0344(1)  7.5599(1)  7.5888(1)  90  116.2488(4)  90
REM trans. cryscomp  7.0344 7.5599  7.7365  90 118.387 90
REM meas.trcl 7.0350(1) 7.5603(1) 7.5895(1) 89.9814(5) 116.2517(4) 89.9931(5)
REM trans. cryscomp 7.0350 7.5603  7.7369  89.975 118.385 90.007
REM CELL 0.71073   7.0344 7.5599  7.7365  90 118.387 90
REM latt corr for Nonius20C  +.0138 +.0107 +.0133     +.017
CELL 0.71073   7.0482 7.5706  7.7498  90 118.404 90
ZERR    4.00   0.001   0.001   0.001   0.00   0.01   0.00
LATT  7
SYMM -X, Y, .5-Z
SFAC O H S MG FE
UNIT 20 8 4 0 4
SHEL 20 0.55285
OMIT -2 2 2
OMIT 1 3 1
OMIT -3 1 1
REM OMIT 3 3 3
REM DAMP 1000
L.S. 10
CONN 12 1.8 $O
EQIV $9 -x+1/2, y+1/2, -z+1/2
BOND $H
FMAP 2
PLAN 20
ACTA
HTAB O3 O2_$9
HTAB
REM EXYZ MG FE
REM EADP MG FE
REM SUMP 1.0 0 1.0 2 1.0 3
WGHT    0.014000    0.240000
EXTI    0.021895
FVAR       0.73818
FE    5    0.000000    0.500000    0.000000    10.50000    0.00440    0.00465 =
         0.00517    0.00056    0.00221    0.00000
S     3    0.000000    0.154820    0.250000    10.50000    0.00323    0.00388 =
         0.00537    0.00000    0.00192    0.00000
O1    1    0.168582    0.044501    0.400135    11.00000    0.00528    0.00941 =
         0.00988    0.00441    0.00292    0.00255
O2    1    0.099312    0.269823    0.158822    11.00000    0.00714    0.00668 =
         0.01017    0.00284    0.00539    0.00053
O3    1    0.000000    0.644021    0.250000    10.50000    0.00696    0.00741 =
         0.00762    0.00000    0.00373    0.00000
H     2    0.106582    0.715892    0.293693    11.00000    0.02488
HKLF 4 1  1 0 0 0 -1 0 -1 0 -1




REM  1991Fekiesx1 153K Apex in C2/c kieserite cell
REM R1 =  0.0128 for    1118 Fo > 4sig(Fo)  and  0.0130 for all    1130 data
REM     40 parameters refined using      0 restraints

END

WGHT      0.0135      0.2324

REM Instructions for potential hydrogen bonds
EQIV $5 x+1/2, y+1/2, z
HTAB O3 S_$5
EQIV $3 x, y+1, z
HTAB O3 O1_$3
HTAB O3 O2_$9

REM Highest difference peak  0.553,  deepest hole -0.498,  1-sigma level  0.078
Q1    1   0.0634  0.5430  0.0775  11.00000  0.05    0.55
Q2    1  -0.0675  0.5088  0.0339  11.00000  0.05    0.54
Q3    1   0.1044  0.0961  0.3325  11.00000  0.05    0.46
Q4    1   0.0440  0.2147  0.1874  11.00000  0.05    0.44
Q5    1   0.0460  0.3541  0.0964  11.00000  0.05    0.25
Q6    1   0.1575  0.0035  0.3274  11.00000  0.05    0.23
Q7    1   0.2529  0.0528  0.3875  11.00000  0.05    0.21
Q8    1   0.0358  0.6200  0.0197  11.00000  0.05    0.20
Q9    1  -0.0435  0.3354  0.1052  11.00000  0.05    0.19
Q10   1   0.0185  0.2324  0.0733  11.00000  0.05    0.19
Q11   1   0.0621  0.0397  0.3492  11.00000  0.05    0.18
Q12   1  -0.0062  0.5852  0.3179  11.00000  0.05    0.18
Q13   1   0.0814  0.6835  0.1743  11.00000  0.05    0.17
Q14   1   0.1813  0.8810  0.3235  11.00000  0.05    0.17
Q15   1  -0.0394  0.0625  0.4146  11.00000  0.05    0.15
Q16   1   0.0512  0.7147  0.3422  11.00000  0.05    0.14
Q17   1   0.0000  0.7788  0.2500  10.50000  0.05    0.13
Q18   1   0.0996 -0.0359  0.1612  11.00000  0.05    0.13
Q19   1  -0.0161  0.4163  0.1673  11.00000  0.05    0.12
Q20   1   0.3239 -0.0066  0.5082  11.00000  0.05    0.12
;
_shelx_res_checksum              67848
_shelx_hkl_file
;
   2   0   0 11.8032 0.52712  15
   2   0   0 10.0848 0.72786  16
   2   0   0 7.46000 0.60424  12
  -2   0   0 11.5932 0.98052  14
   2   0   0 9.07252 0.64493   1
  -2   0   0 11.3923 0.93648  10
  -2   0   0 7.40100 0.68246   2
  -2   0   0 13.9425 0.98190   3
  -4   0   0 8936.87 196.823   9
  -4   0   0 8708.83 201.966  10
  -4   0   0 9017.99 199.513   2
  -4   0   0 8565.38 202.183   3
   4   0   0 9729.13 198.312   1
   4   0   0 9811.14 196.070  12
  -4   0   0 8604.20 205.024  14
   4   0   0 9753.01 198.615  16
  -6   0   0 109.091 5.27175   3
   6   0   0 111.057 3.85262  12
   6   0   0 109.995 4.61848  16
  -6   0   0 107.372 5.50092  14
   6   0   0 110.318 4.28644   1
  -6   0   0 103.518 3.97484   9
  -8   0   0 1680.98 41.2571  14
   8   0   0 1675.81 38.0464   1
  -8   0   0 1545.31 37.0131   9
   8   0   0 1619.94 38.6532  16
   8   0   0 1707.35 38.8989  13
  -8   0   0 1683.43 40.5990   3
 -10   0   0 33.1351 4.56164   3
  10   0   0 31.3225 3.57042   1
  10   0   0 27.9470 3.77386  13
  10   0   0 36.7593 4.11896  16
   1   1   0 1618.82 36.2454  16
  -3  -1   0 38.0239 1.86977   2
   3  -1   0 41.4409 1.58354  12
  -3  -1   0 40.5489 2.08910  10
  -3  -1   0 43.8383 2.11989  14
   3  -1   0 35.8278 1.76947  16
  -3   1   0 38.9109 1.74673   9
   3   1   0 36.2631 1.73509   1
  -3   1   0 49.7912 2.34529   3
  -3   1   0 41.7456 2.38507  14
  -3   1   0 37.6516 1.57322   6
   3   1   0 38.7761 1.86660  16
   3   1   0 35.5187 1.53366  12
  -3   1   0 39.6324 1.99742   8
  -5  -1   0 1019.55 23.7782   3
   5  -1   0 1043.69 21.8722  15
  -5  -1   0 930.332 21.9570   9
  -5  -1   0 985.782 23.5590  10
  -5  -1   0 984.123 23.7576  14
   5  -1   0 984.805 22.3822   1
  -5  -1   0 976.094 22.7102   2
   5  -1   0 995.360 22.8250  16
   5  -1   0 1006.51 21.9422  12
   5   1   0 1005.78 22.9634  16
   5   1   0 992.412 21.9929  12
  -5   1   0 956.237 22.3809   9
  -5   1   0 979.733 24.5899  14
  -5   1   0 982.632 23.8947   3
   5   1   0 977.298 22.4393   1
  -7  -1   0 53.8437 2.81696   9
  -7  -1   0 62.3741 3.45351   2
  -7  -1   0 59.6845 4.09074   3
  -7  -1   0 65.0358 4.38571  14
   7  -1   0 53.5103 3.27334   1
   7  -1   0 51.9926 3.51461  16
  -7   1   0 51.9175 4.24128   3
   7   1   0 53.2031 2.78952  12
   7   1   0 55.0274 3.46133  13
   7   1   0 60.1904 3.56753   1
  -7   1   0 50.3813 3.01286   9
   7   1   0 57.5155 3.77144  16
  -7   1   0 58.9263 4.57913  14
  -9  -1   0 71.2325 5.68977   3
   9  -1   0 55.0269 4.48527  13
   9  -1   0 53.6540 4.11191   1
   9  -1   0 60.0702 4.31491  16
  -9   1   0 64.4458 5.93320  14
   9   1   0 56.4783 4.49902  16
   9   1   0 59.5227 4.29966   1
   9   1   0 58.7129 4.33387  13
  -9   1   0 61.5501 5.40577   3
  11  -1   0 138.827 7.75514  13
  11  -1   0 139.707 7.08826   1
 -11  -1   0 152.347 8.94693   3
  11   1   0 128.989 7.00591   1
 -11   1   0 138.237 8.67137   3
  11   1   0 136.020 7.68346  13
   0  -2   0 1532.59 32.7349  10
   0   2   0 1503.63 33.4528  16
   0   2   0 1431.24 33.1725   9
   0   2   0 1500.90 32.6698   6
   0   2   0 1494.85 32.3847  12
  -2  -2   0 590.920 13.8321   2
  -2  -2   0 599.719 13.8353  10
  -2  -2   0 579.841 13.0683   7
  -2  -2   0 562.986 13.4721  15
   2   2   0 600.685 13.0528   1
   2   2   0 586.522 13.2524  16
  -2   2   0 582.170 13.6866   3
  -2   2   0 586.460 12.9633   6
   2   2   0 589.135 12.9411  13
  -2   2   0 585.892 13.2721   9
  -2   2   0 579.871 14.1405  14
  -2   2   0 580.579 13.4521   8
   2   2   0 593.729 12.9804  12
  -4  -2   0 2169.82 47.0624   2
  -4  -2   0 2189.48 47.6405  10
   4  -2   0 2256.26 46.6513  16
  -4  -2   0 2038.68 46.8502  14
   4   2   0 2186.15 46.5122  13
  -4   2   0 2206.16 47.2537   8
  -4   2   0 2132.24 46.5367   9
  -4   2   0 2124.09 48.4421  14
  -4   2   0 2150.58 47.6530   3
  -4   2   0 2152.72 46.0810   6
   4   2   0 2195.04 46.8825  16
   4   2   0 2166.42 46.0847  12
   4   2   0 2235.48 46.5120   1
   6  -2   0 1585.88 35.2136   1
   6  -2   0 1605.32 34.5964  12
  -6  -2   0 1481.10 34.4365   9
  -6  -2   0 1619.75 37.0528  10
   6  -2   0 1597.19 35.7595  16
  -6  -2   0 1571.29 35.7240   2
  -6  -2   0 1574.38 36.5154  14
  -6  -2   0 1621.40 36.9761   3
   6   2   0 1624.65 36.1137  16
   6   2   0 1600.70 35.4280   1
   6   2   0 1552.80 34.6503  12
  -6   2   0 1552.54 35.3890   9
   6   2   0 1559.36 35.5928  13
  -6   2   0 1571.76 37.2827   3
  -6   2   0 1632.70 38.8853  14
  -8  -2   0 942.243 24.8174   3
   8  -2   0 910.445 23.1007  16
   8  -2   0 906.008 22.3952   1
   8   2   0 881.245 23.2350  16
  -8   2   0 878.312 22.1404   9
   8   2   0 908.514 23.0482  13
   8   2   0 888.786 22.5614   1
  -8   2   0 920.173 25.2064   3
   8   2   0 857.875 21.2833  12
  -8   2   0 940.101 26.7165  14
 -10  -2   0 777.827 23.2424   3
  10  -2   0 740.759 21.2192  13
  10  -2   0 720.558 20.7836  16
 -10   2   0 776.728 23.7049   3
  10   2   0 732.392 20.8600  13
  10   2   0 711.923 20.1734   1
  10   2   0 680.717 20.8007  16
  -1  -3   0 216.902 6.12872   2
  -1  -3   0 221.557 5.91582  10
  -1  -3   0 217.527 5.18483   7
  -1   3   0 196.589 5.62093   8
   1   3   0 212.170 5.01651  13
   1   3   0 211.892 5.38173  16
  -1   3   0 210.555 5.77469   3
   1   3   0 206.506 5.26875  12
  -1   3   0 211.997 5.54328   9
  -1   3   0 204.189 6.00499  14
   1   3   0 212.630 5.19505   1
  -1   3   0 209.268 5.25010   6
  -3  -3   0 1283.73 28.6680   7
  -3  -3   0 1325.60 29.9421   2
  -3  -3   0 1270.30 29.4681  15
  -3  -3   0 1306.47 28.6959  14
  -3  -3   0 1274.52 28.1601  11
  -3  -3   0 1336.74 29.8971  10
  -3   3   0 1326.72 29.7676   3
  -3   3   0 1267.96 29.2893   8
   3   3   0 1335.90 28.5657  12
   3   3   0 1371.37 29.1178  16
  -3   3   0 1343.14 28.5825   6
  -3   3   0 1340.20 30.6731  14
  -3   3   0 1330.03 29.0191   9
   3   3   0 1326.26 28.5157  13
   3   3   0 1350.34 28.7308   1
  -5  -3   0 6.42669 1.29196   2
   5  -3   0 5.04780 1.19209  16
   5  -3   0 4.55186 1.17195  15
  -5  -3   0 5.69303 1.68049  10
  -5  -3   0 5.01593 1.16019  14
   5   3   0 6.39015 1.09526  13
   5   3   0 5.90904 1.04924  12
  -5   3   0 5.85248 1.53499   3
  -5   3   0 6.20912 1.31923   8
  -5   3   0 5.25224 1.63375  14
  -5   3   0 4.39999 0.88177   6
  -5   3   0 5.63340 1.15686   9
   5   3   0 7.06363 1.27941  16
   5   3   0 6.84558 1.13809   1
  -7  -3   0 135.703 5.80987   2
   7  -3   0 133.832 5.30878   1
   7  -3   0 135.944 5.78762  16
  -7  -3   0 138.217 6.68439   3
  -7  -3   0 137.400 6.79083  10
   7   3   0 130.154 5.86918  16
  -7   3   0 145.668 8.07300  14
   7   3   0 134.774 5.62761  13
   7   3   0 137.422 5.05845  12
   7   3   0 131.942 5.60413   1
  -7   3   0 137.396 5.62019   9
  -7   3   0 145.631 7.09162   3
   9  -3   0 27.7608 3.12051   1
   9  -3   0 32.3340 3.79440  13
   9  -3   0 29.6613 3.35040  16
  -9  -3   0 24.4550 3.82986   3
   9   3   0 28.0708 3.31628   1
  -9   3   0 26.1635 4.58636  14
  -9   3   0 25.1720 4.00373   3
  -9   3   0 30.6799 3.01827   9
   9   3   0 31.2179 3.63113  13
   9   3   0 27.7291 3.32560  16
 -11  -3   0 4.76849 2.79118   3
  11  -3   0 6.25737 2.54115  13
 -11   3   0 4.65301 3.01521  14
 -11   3   0 8.30154 2.66687   3
  11   3   0 3.54550 2.18705  13
  11   3   0 5.51506 2.20865   1
   0  -4   0 3056.05 65.8470  10
   0  -4   0 3085.12 66.0870   7
   0   4   0 3040.82 65.1297   6
   0   4   0 2993.23 63.1318   1
   0   4   0 3029.23 63.8435  12
   0   4   0 3007.90 67.1433  16
   0   4   0 2832.83 64.4280   9
   0   4   0 2910.97 65.2623   8
  -2  -4   0 5149.65 133.104   2
  -2  -4   0 5476.89 126.507   7
  -2  -4   0 5323.51 132.360  10
   2   4   0 5921.40 127.012  12
  -2   4   0 6202.38 129.023   6
   2   4   0 6250.48 129.838   1
   2   4   0 5971.41 126.782  13
  -2   4   0 6337.29 132.920   9
   2   4   0 6003.76 128.906  16
  -2   4   0 6029.45 132.140   8
  -2   4   0 6067.32 134.392  14
  -2   4   0 6276.95 133.751   3
  -4  -4   0 457.694 11.3430  14
  -4  -4   0 455.098 12.4805  15
  -4  -4   0 472.703 13.1191   2
  -4  -4   0 465.040 11.6256   7
  -4  -4   0 455.323 10.9293  11
  -4  -4   0 490.035 13.2286  10
  -4   4   0 460.342 12.0168   9
  -4   4   0 473.786 14.0555  14
  -4   4   0 475.188 12.6258   8
   4   4   0 457.803 11.5710   1
   4   4   0 467.156 11.4112  13
  -4   4   0 458.385 11.4384   6
   4   4   0 458.386 11.9924  16
  -4   4   0 468.336 12.9650   3
   4   4   0 463.131 11.4470  12
  -6  -4   0 1413.82 34.3243   2
  -6  -4   0 1509.78 35.5745  10
   6  -4   0 1504.09 33.6329  16
   6   4   0 1435.96 33.2461  13
  -6   4   0 1421.73 34.7488   8
  -6   4   0 1513.54 32.9700   6
  -6   4   0 1453.87 35.5105   3
   6   4   0 1497.16 33.5163   1
  -6   4   0 1471.40 37.5598  14
   6   4   0 1494.11 34.1542  16
  -6   4   0 1486.48 33.7964   9
   6   4   0 1453.49 32.8761  12
  -8  -4   0 17.5955 3.18956   3
   8  -4   0 10.1515 1.98694   1
   8  -4   0 10.4044 2.04431  16
  -8  -4   0 13.0915 2.92389  10
   8   4   0 12.3247 2.25026  13
  -8   4   0 11.9265 2.76219   3
   8   4   0 9.64836 1.67613  12
  -8   4   0 12.1110 3.37219  14
   8   4   0 11.3077 2.10909  16
  -8   4   0 11.8695 2.17956   9
   8   4   0 9.84377 1.89109   1
  10  -4   0 523.414 16.4819  13
 -10  -4   0 547.480 18.2752   3
 -10   4   0 516.614 18.3715   3
  10   4   0 510.712 15.5904   1
 -10   4   0 523.913 21.0318  14
 -10   4   0 485.921 14.9729   9
  10   4   0 480.923 15.5536  13
   1  -5   0 105.983 2.94718   4
  -1  -5   0 109.203 3.39321   7
   1  -5   0 115.597 3.48758   7
  -1  -5   0 116.410 4.44204  10
   1  -5   0 112.883 4.26934  10
  -1  -5   0 115.308 4.77916   2
   1   5   0 107.639 3.63105  12
   1   5   0 114.501 3.71317  16
   1   5   0 106.812 3.46525   6
   1   5   0 109.740 2.99813  13
  -1   5   0 113.380 3.97115   9
   1   5   0 107.813 3.44033   1
  -1   5   0 107.904 4.48442  14
  -1   5   0 114.302 3.62688   6
  -1   5   0 108.350 4.16652   8
  -3  -5   0 121.902 4.11792   7
  -3  -5   0 143.882 5.81203   2
  -3  -5   0 125.530 5.28821  10
  -3  -5   0 123.814 5.55612  15
   3   5   0 124.809 4.54556  16
  -3   5   0 116.892 5.04644   3
  -3   5   0 118.453 5.69988  14
  -3   5   0 121.987 4.61844   9
   3   5   0 133.856 3.88407  13
  -3   5   0 120.797 4.15499   6
   3   5   0 117.905 4.15238  12
   3   5   0 122.042 4.19919   1
  -3   5   0 125.098 4.97780   8
   5  -5   0 24.9194 2.92256  15
  -5  -5   0 24.1481 3.16279  10
  -5   5   0 22.7724 1.89505   6
   5   5   0 25.2178 2.07031  12
  -5   5   0 21.0168 2.75294   3
   5   5   0 22.8192 2.14943   1
  -5   5   0 22.6616 2.25863   9
   5   5   0 22.9142 2.16097  16
  -5   5   0 23.0412 2.62166   8
   5   5   0 23.5667 1.90053  13
  -5   5   0 21.4183 2.89945  14
  -7  -5   0 87.8462 5.09254   2
   7  -5   0 83.1497 4.19002   1
   7  -5   0 87.6900 4.50966  16
  -7  -5   0 88.5520 5.68545  10
  -7   5   0 87.7455 5.66825   3
   7   5   0 79.5281 4.28061  13
  -7   5   0 86.5369 4.75078   9
   7   5   0 94.2945 5.13371  16
  -7   5   0 84.3070 5.63951   8
   7   5   0 90.4579 4.55805   1
  -7   5   0 90.2446 4.15664   6
  -7   5   0 84.2309 6.57282  14
   7   5   0 92.6499 4.29942  12
  -9  -5   0 51.8032 5.15133   3
  -9  -5   0 42.5734 4.49393  10
   9  -5   0 50.1392 4.42773  13
  -9   5   0 44.4694 5.06330   3
  -9   5   0 47.0754 3.97768   9
   9   5   0 46.2711 4.33763  16
  -9   5   0 45.0684 6.12950  14
   9   5   0 45.3003 4.13218   1
   9   5   0 42.0995 3.48050  13
   0  -6   0 2582.69 55.8362  10
   0  -6   0 2603.76 54.2152   7
   0  -6   0 2574.64 56.4893   2
   0   6   0 2568.07 54.2468   1
   0   6   0 2517.82 54.5136   6
   0   6   0 2544.74 55.6922   8
  -2  -6   0 46.5355 3.67565  15
   2  -6   0 47.9157 2.28672   7
  -2  -6   0 52.4664 3.73897   2
  -2  -6   0 48.5104 3.37887  10
  -2  -6   0 51.7714 2.32943   7
   2   6   0 45.7883 2.48049  12
   2   6   0 48.9893 2.37376   1
   2   6   0 47.9150 2.58592  16
  -2   6   0 47.2390 2.35845   6
   2   6   0 45.0252 2.16844   6
  -2   6   0 47.3982 2.97640   8
   2   6   0 45.9884 1.82521  13
  -2   6   0 43.9502 3.24876  14
  -2   6   0 51.3611 2.75016   9
  -2   6   0 48.2035 2.99979   3
  -4  -6   0 2380.68 54.2975  10
  -4  -6   0 2324.36 54.8422  15
  -4  -6   0 2331.14 54.6040   2
  -4  -6   0 2361.04 51.8609   7
  -4  -6   0 2193.27 51.6291  11
   4   6   0 2475.09 52.8152  16
  -4   6   0 2425.75 56.0160  14
   4   6   0 2481.45 52.2558  12
  -4   6   0 2499.39 53.0706   9
   4   6   0 2462.75 52.1870   1
  -4   6   0 2446.47 53.8943   8
  -4   6   0 2491.35 52.2085   6
  -4   6   0 2459.33 54.3306   3
   4   6   0 2367.04 51.4024  13
  -6  -6   0 156.091 7.31332   2
  -6  -6   0 162.575 7.81371  10
   6  -6   0 145.000 5.84301  16
   6  -6   0 153.266 7.75447  15
   6   6   0 141.348 5.46519  13
  -6   6   0 160.179 6.48622   9
  -6   6   0 148.169 7.24523   8
   6   6   0 155.001 5.95242   1
   6   6   0 145.732 5.60741  12
  -6   6   0 150.413 8.77722  14
   6   6   0 147.867 6.38926  16
  -6   6   0 153.744 7.55839   3
  -6   6   0 155.628 5.87628   6
  -8  -6   0 1453.08 37.4642  10
   8   6   0 1459.04 34.6484   1
   8   6   0 1402.88 35.3331  16
   8   6   0 1391.97 34.0106  13
  -8   6   0 1465.51 35.0958   9
  -8   6   0 1491.28 38.0323   3
  -8   6   0 1499.18 33.8816   6
   8   6   0 1427.59 33.6985  12
  -8   6   0 1481.27 41.6429  14
 -10  -6   0 98.9735 7.17282   3
  10  -6   0 97.9126 6.00449  13
 -10   6   0 103.589 9.39987  14
 -10   6   0 109.034 7.63277   3
 -10   6   0 100.348 5.71587   9
  10   6   0 109.756 6.28181   1
  -1  -7   0 345.493 10.8859   2
   1  -7   0 320.153 9.87894  10
  -1  -7   0 334.444 12.1317  15
  -1  -7   0 344.712 10.1988  10
  -1  -7   0 330.184 8.40940   7
   1  -7   0 334.987 8.55244   7
  -1   7   0 307.691 9.77060   8
   1   7   0 333.947 8.65723   1
   1   7   0 329.070 9.02950  16
   1   7   0 319.779 8.70913   6
  -1   7   0 332.074 8.92201   6
  -1   7   0 344.449 9.55626   9
   1   7   0 317.383 9.70946   8
  -3  -7   0 637.067 15.1876   7
   3  -7   0 662.240 15.6151   7
  -3  -7   0 655.426 17.6487  10
  -3  -7   0 638.309 18.1609   2
  -3  -7   0 629.862 18.7972  15
   3   7   0 625.937 15.1550   6
  -3   7   0 625.377 17.1543   8
   3   7   0 645.782 15.8384  12
   3   7   0 648.626 16.1161  16
   3   7   0 644.206 15.5980   1
  -3   7   0 645.588 15.7590   6
  -3   7   0 611.233 18.4955  14
  -3   7   0 630.543 17.4306   3
  -3   7   0 633.919 16.4614   9
  -5  -7   0 68.0971 5.38443   2
   5  -7   0 70.6043 5.60640  15
  -5  -7   0 75.5864 5.55074  10
  -5   7   0 66.8541 4.64533   3
   5   7   0 76.4063 3.74958  12
  -5   7   0 69.8517 4.30331   9
  -5   7   0 72.4212 3.85459   6
  -5   7   0 66.0639 5.77183  14
   5   7   0 72.3553 3.87145   1
  -5   7   0 69.8153 4.81827   8
   5   7   0 68.5268 3.98137  16
  -7  -7   0 204.682 9.45939  10
  -7  -7   0 189.039 8.82749   2
   7   7   0 204.118 8.31940  16
   7   7   0 207.854 7.47889  12
  -7   7   0 207.323 9.49785   8
  -7   7   0 203.749 9.43113   3
   7   7   0 201.011 7.75270   1
  -7   7   0 199.104 8.27270   9
  -7   7   0 200.545 7.29877   6
  -7   7   0 198.569 11.5236  14
  -9  -7   0 60.2336 5.47742   3
  -9  -7   0 61.3822 5.65720  10
  -9   7   0 60.7289 5.53906   3
   9   7   0 60.8504 4.70066   1
  -9   7   0 56.7941 4.74026   9
  -9   7   0 64.5414 7.49045  14
   0  -8   0 1185.43 31.5375  15
   0  -8   0 1158.55 28.9690   2
   0  -8   0 1182.63 28.0540  10
   0   8   0 1107.65 27.7220   8
   0   8   0 1172.47 26.4930   6
  -2  -8   0 1253.31 30.8798   2
   2  -8   0 1232.90 29.1886  10
  -2  -8   0 1153.27 31.9258  15
  -2  -8   0 1262.99 29.8930  10
   2  -8   0 1252.20 33.4576  15
   2   8   0 1239.30 28.2054  16
  -2   8   0 1237.81 28.7938   9
  -2   8   0 1225.62 27.8907   6
   2   8   0 1123.70 28.6676   8
  -2   8   0 1180.83 29.4247   8
   2   8   0 1209.91 27.9666  12
   2   8   0 1216.20 27.5162   6
   2   8   0 1240.56 27.6258   1
  -4  -8   0 657.118 19.5610   2
   4  -8   0 624.112 15.9840   7
  -4  -8   0 602.950 16.0539  11
   4  -8   0 641.625 20.8424  15
  -4  -8   0 658.516 18.8289  10
   4   8   0 642.108 16.4074  12
   4   8   0 629.611 16.7211  16
  -4   8   0 649.037 17.3563   9
   4   8   0 612.685 15.3807   6
  -4   8   0 640.541 18.2343   8
  -4   8   0 638.571 16.2628   6
  -4   8   0 625.853 18.3858   3
  -4   8   0 622.999 20.1218  14
   4   8   0 645.878 16.2188   1
  -6  -8   0 386.991 14.1994  10
  -6  -8   0 379.355 13.9410   2
   6   8   0 391.544 11.6921   1
   6   8   0 369.132 11.2881  12
  -6   8   0 381.558 13.7314   8
  -6   8   0 374.810 16.0772  14
  -6   8   0 384.431 11.5179   6
  -6   8   0 370.260 12.3361   9
   6   8   0 383.606 12.1916  16
  -6   8   0 389.979 13.9838   3
  -8  -8   0 220.349 10.8679  10
   8   8   0 211.038 8.35822   1
  -8   8   0 219.450 10.7837   3
  -8   8   0 216.863 9.11036   9
  -8   8   0 213.323 10.6518   8
   8   8   0 207.490 8.08038  12
  -8   8   0 217.759 13.1997  14
  -8   8   0 211.959 8.21095   6
   1  -9   0 163.155 6.77094  10
   1  -9   0 150.622 8.68529  15
  -1  -9   0 152.004 8.73532  15
  -1  -9   0 158.656 7.60778   2
  -1  -9   0 162.667 6.93839  10
   1  -9   0 154.141 7.43367   2
   1   9   0 148.996 6.54269   8
   1   9   0 157.606 5.56930   6
   1   9   0 156.806 5.48345   1
  -1   9   0 142.128 6.57885   8
  -1   9   0 157.858 5.73640   6
   3  -9   0 52.2210 3.96618  10
  -3  -9   0 50.2014 5.28853   2
  -3  -9   0 57.3911 5.32738  15
  -3  -9   0 51.8717 4.80679  10
   3  -9   0 51.9343 5.59152  15
   3   9   0 56.0808 3.34965   1
  -3   9   0 53.3409 3.67248   9
   3   9   0 51.6020 3.33394  16
   3   9   0 52.8848 3.04073   6
  -3   9   0 50.4618 3.96193   8
  -3   9   0 50.3892 3.42385   6
   5  -9   0 139.644 6.75063  10
  -5  -9   0 127.355 7.37705  10
  -5  -9   0 128.837 8.31354   2
  -5   9   0 123.854 5.72836   6
  -5   9   0 126.792 7.20597   8
  -5   9   0 121.689 8.46593  14
  -5   9   0 130.227 7.40792   3
   5   9   0 121.212 5.67203  12
  -5   9   0 119.538 6.09236   9
   5   9   0 122.745 5.97825  16
   5   9   0 126.153 5.63497   1
  -7  -9   0 25.2925 3.95842  10
  -7  -9   0 14.9880 3.28150   2
  -7   9   0 22.0623 3.36484   9
   7   9   0 22.0149 2.93956  12
   7   9   0 21.7574 2.93919   1
   7   9   0 22.4692 2.99322  16
  -7   9   0 23.2958 3.88663   8
  -7   9   0 21.6941 2.67054   6
  -7   9   0 19.8492 4.28594  14
  -7   9   0 22.3223 4.10837   3
   0 -10   0 24.4809 4.62270  15
   0 -10   0 32.2691 4.02530   2
   0 -10   0 26.5835 2.97583  10
   0  10   0 27.8758 3.15393   8
   0  10   0 26.4894 2.33720   6
  -2 -10   0 2017.58 46.9192  10
  -2 -10   0 2051.42 48.5194   2
   2 -10   0 2041.79 47.6911   2
  -2 -10   0 1880.19 50.1255  15
   2 -10   0 1978.46 45.9082  10
   2  10   0 2044.49 44.1020   6
   2  10   0 1904.45 45.8710   8
  -2  10   0 1891.24 46.4319   8
   2  10   0 1994.77 43.9614   1
  -2  10   0 1959.08 44.3804   6
   4 -10   0 8.78432 2.09518  10
  -4 -10   0 5.93532 2.27122  10
  -4 -10   0 14.9280 2.22900  11
  -4 -10   0 9.68299 3.54488   2
   4  10   0 5.46846 1.76044  16
  -4  10   0 8.83831 2.00109   9
  -4  10   0 8.70745 1.77278   6
   4  10   0 7.72178 1.75313   1
  -4  10   0 9.76067 2.32885   8
  -6 -10   0 1319.32 36.1142   2
  -6 -10   0 1378.47 35.9939  10
   6  10   0 1322.18 32.1009   1
  -6  10   0 1355.35 33.7811   9
  -6  10   0 1321.33 35.5366   8
  -6  10   0 1393.02 32.4502   6
   6  10   0 1281.92 32.8411  16
   1 -11   0 125.267 7.55822   2
  -1 -11   0 126.415 7.10085  10
  -1 -11   0 133.074 8.15392   2
   1 -11   0 128.248 6.49278  10
  -1  11   0 124.595 5.61485   6
   1  11   0 115.779 5.17300   6
  -1  11   0 118.193 6.58029   8
  -3 -11   0 78.2600 7.08357   2
  -3 -11   0 77.8484 4.53100  11
   3 -11   0 75.9604 6.01565   2
  -3 -11   0 80.0104 6.37463  10
   3 -11   0 73.7836 5.15018  10
  -3  11   0 76.0564 4.58318   6
  -3  11   0 76.6913 5.73703   8
   3  11   0 72.3329 4.02440   6
   3  11   0 77.4338 4.30355   1
  -5 -11   0 120.861 8.29409   2
  -5 -11   0 116.177 7.93631  10
   5 -11   0 116.906 7.45552   2
   5  11   0 104.652 6.49366  16
  -5  11   0 109.328 7.28395   8
   5  11   0 122.918 5.81549   1
  -5  11   0 118.386 6.76360   9
  -5  11   0 113.763 5.97734   6
   0 -12   0 428.496 16.1008   2
   0 -12   0 439.485 14.6371  10
   0  12   0 427.711 12.7595   6
  -2 -12   0 309.925 13.5776   2
  -2 -12   0 298.826 11.8203  10
   2 -12   0 299.823 12.6958   2
   2 -12   0 291.953 10.9625  10
  -2  12   0 297.757 10.1414   6
   4 -12   0 403.662 15.0306   2
  -4 -12   0 395.093 14.9853  10
  -4 -12   0 372.694 16.0770   2
   4  12   0 367.251 11.6228   1
  -4  12   0 356.975 14.0010   8
  -4  12   0 369.370 12.1335   6
   1 -13   0 0.05611 2.04350  10
   1 -13   0 13.0313 3.66767   2
  -1 -13   0 0.92517 1.76757  10
  -1 -13   0 -0.5053 2.82828   2
   1  13   0 1.80130 1.18563   6
  -1  13   0 0.68973 1.22116   6
   3 -13   0 4.97730 2.69252   2
  -3 -13   0 1.27713 2.00102  10
  -3 -13   0 1.56391 2.02082  11
  -3 -13   0 -0.4378 2.37551   2
  -3  13   0 0.55903 1.73051   6
  10   0  -1 0.10225 1.10276  16
  10   0  -1 -0.6148 1.07321   1
 -10   0   1 -0.3690 1.73697  14
  10   0  -1 2.27041 1.87871  13
 -10   0   1 2.81189 1.72339   3
   8   0  -1 2.70903 1.10744  12
  -8   0   1 -0.0305 0.97929   3
   8   0  -1 1.41104 1.29905   1
  -8   0   1 10.8582 2.64834  14
   8   0  -1 -0.3236 0.86017  16
  -6   0   1 1.55772 0.59871   9
  -6   0   1 1.92664 1.21889  14
  -6   0   1 1.19696 0.80914   3
   6   0  -1 -0.1336 0.65237  12
   6   0  -1 1.04811 0.89618   1
   6   0  -1 1.27121 1.00032  16
  -4   0   1 0.56059 0.54697  10
   4   0  -1 3.80400 0.78669   1
  -4   0   1 1.83297 0.83340  14
  -4   0   1 0.64792 0.33343   9
   4   0  -1 1.06846 0.16045  15
   4   0  -1 2.93246 0.77676  16
   4   0  -1 2.12207 0.63375  12
  -4   0   1 1.29655 0.66510   3
   4   0  -1 0.77040 0.34612   5
  -2   0   1 0.50933 0.30138  15
  -2   0   1 1.02409 0.43258   7
  -2   0   1 0.34381 0.28276   8
   2   0  -1 0.58938 0.37495  12
   0   0  -1 2.40703 0.40583  15
   0   0   1 1.35464 0.15880  16
   0   0   1 1.08328 0.29630  15
   4   0   1 0.61550 0.38411  12
   4   0   1 4.99043 1.01077  13
  -4   0  -1 0.53681 0.66837   3
  -4   0  -1 0.35806 0.60309   2
   4   0   1 0.41069 0.46660  15
   4   0   1 0.94183 0.67042  16
  -4   0  -1 0.88693 0.54266   9
   4   0   1 0.37875 0.57886   1
   6   0   1 1.45747 0.83774  16
   6   0   1 2.02446 1.14025  13
  -6   0  -1 0.54015 0.74735  14
   6   0   1 0.40034 0.92960   1
   6   0   1 3.15677 0.76501  12
  -6   0  -1 1.37121 0.94206   3
   8   0   1 1.21134 1.07325  16
   8   0   1 -0.8283 1.28920   1
  -8   0  -1 13.0625 2.90179   3
  -8   0  -1 11.3876 2.75461  14
  -8   0  -1 0.99728 0.95989   9
   8   0   1 0.95219 1.16066  13
  10   0   1 0.28245 1.59044  16
 -10   0  -1 1.79459 1.72964   3
  10   0   1 -0.2417 1.85282  13
  10   0   1 0.78361 1.66654   1
  11  -1  -1 312.211 11.4592   1
  11  -1  -1 307.745 11.9790  13
 -11  -1   1 342.590 14.0506   3
  11   1  -1 303.839 11.8530  13
 -11   1   1 324.842 15.0342  14
  11   1  -1 293.656 11.1850   1
 -11   1   1 323.167 13.6242   3
   9  -1  -1 371.498 11.7881   1
  -9  -1   1 376.230 14.0354  14
   9  -1  -1 377.338 12.4471  16
  -9  -1   1 379.958 13.5887   3
   9   1  -1 361.766 12.0350  13
  -9   1   1 386.489 13.9424   3
   9   1  -1 355.397 12.2136  16
  -9   1   1 371.321 14.9605  14
   9   1  -1 373.993 11.8663   1
   9   1  -1 355.034 10.6470  12
   7  -1  -1 1234.53 28.1605  12
  -7  -1   1 1279.54 30.6668   3
   7  -1  -1 1223.73 29.3368  16
  -7  -1   1 1278.37 31.3504  14
  -7  -1   1 1252.83 29.8618  10
   7  -1  -1 1185.67 28.6103   1
  -7   1   1 1285.52 30.8842   3
   7   1  -1 1234.37 28.2500  12
  -7   1   1 1294.95 32.4559  14
   7   1  -1 1270.98 29.0405   1
   7   1  -1 1262.55 29.6617  16
  -7   1   1 1165.16 28.0463   9
  -5  -1   1 1153.38 25.8572   2
   5  -1  -1 1189.49 25.9109  12
  -5  -1   1 1137.49 27.6183  14
   5  -1  -1 1177.71 25.2530   5
   5  -1  -1 1198.39 26.6216  16
  -5  -1   1 1117.02 25.3218   9
  -5  -1   1 1184.22 26.9594  10
   5  -1  -1 1243.00 25.9184  15
   5   1  -1 1192.09 26.2424   1
  -5   1   1 1146.55 25.8424   9
   5   1  -1 1153.94 24.9448   5
  -5   1   1 1158.51 26.8100   8
  -5   1   1 1163.04 28.4043  14
  -5   1   1 1145.25 27.2230   3
   5   1  -1 1190.12 25.9501  12
   5   1  -1 1197.45 26.7036  16
   3  -1  -1 5441.42 118.134  15
  -3  -1   1 5086.90 116.081  10
  -3  -1   1 5022.21 112.964   2
  -3  -1   1 4908.18 113.058   7
   3   1  -1 5427.12 112.235   1
   3   1  -1 5441.08 113.219  12
  -3   1   1 4967.89 113.339   3
   3   1  -1 5395.76 114.933  16
  -3   1   1 4948.12 112.052   6
  -3   1   1 4735.62 114.364  14
  -3   1   1 5346.75 113.362   9
  -3   1   1 5376.85 115.629   8
   3   1  -1 5261.47 110.783   5
   1  -1  -1 1904.04 45.5773  15
   1   1  -1 1901.00 41.0640  16
  -1   1   1 1818.82 46.3635  15
   1   1   1 7509.46 166.137  13
  -1   1  -1 7045.36 167.573   3
   1   1   1 7866.59 165.619   1
  -1   1  -1 7632.04 165.623   6
  -1   1  -1 8520.64 168.151   8
   1   1   1 7773.56 166.892  16
  -1   1  -1 8259.94 168.101   9
  -1   1  -1 8229.92 171.812  14
   3  -1   1 443.017 10.2130   1
  -3  -1  -1 450.182 10.2026  15
  -3  -1  -1 433.656 9.68699  11
  -3  -1  -1 439.710 10.9857   3
   3  -1   1 429.202 10.8983  15
   3  -1   1 438.032 10.4322  16
  -3  -1  -1 432.142 11.2347  10
  -3  -1  -1 444.437 10.8443  14
  -3  -1  -1 438.714 11.0623   2
   3  -1   1 451.921 9.81395  12
  -3   1  -1 427.238 10.0054   6
   3   1   1 448.310 10.7089  16
   3   1   1 440.999 10.3929   1
   3   1   1 459.280 10.6802  13
   3   1   1 440.799 9.93874  12
  -3   1  -1 437.159 11.3168   3
   3   1   1 460.435 10.3580  15
  -3   1  -1 419.948 10.6142   9
  -3   1  -1 432.223 11.5766  14
  -5  -1  -1 2825.75 62.6395  14
  -5  -1  -1 2794.67 62.7916   3
  -5  -1  -1 2862.95 62.2795   2
   5  -1   1 2893.79 60.3759  12
   5  -1   1 2980.85 61.7366  16
  -5  -1  -1 2807.41 62.8261  10
   5  -1   1 2899.57 61.1765   1
  -5  -1  -1 2719.51 61.2217   9
  -5   1  -1 2934.93 63.7680  14
   5   1   1 2923.85 61.4123   1
   5   1   1 2857.47 60.5155  12
  -5   1  -1 2804.84 61.5841   9
  -5   1  -1 2871.49 63.2342   3
   5   1   1 2977.00 61.9955  16
   5   1   1 2908.94 61.8425  13
   7  -1   1 113.358 4.74333   1
   7  -1   1 102.576 5.04851  16
  -7  -1  -1 113.596 5.30018   2
  -7  -1  -1 112.082 5.85198  14
  -7  -1  -1 112.666 6.07551   3
   7  -1   1 115.693 5.45627  13
  -7  -1  -1 104.877 4.51232   9
   7   1   1 106.690 5.25002  16
  -7   1  -1 114.272 6.25384   3
   7   1   1 113.190 5.43293  13
  -7   1  -1 110.167 4.81411   9
   7   1   1 108.475 4.93576   1
  -7   1  -1 108.604 6.47097  14
   9  -1   1 991.927 25.9155  13
  -9  -1  -1 1022.58 28.0580   3
   9  -1   1 967.453 24.4970   1
   9  -1   1 965.356 25.3524  16
  -9   1  -1 972.996 27.8428   3
   9   1   1 971.784 24.7536   1
   9   1   1 950.005 25.4235  13
   9   1   1 947.621 25.4448  16
  -9   1  -1 975.809 28.3962  14
 -11  -1  -1 74.4745 6.74396   3
  11  -1   1 65.9408 4.90303   1
 -11   1  -1 80.8595 6.63359   3
  11   1   1 71.5719 4.84639   1
  11   1   1 77.8472 6.02388  13
  10  -2  -1 167.324 7.41092   1
 -10  -2   1 164.803 8.95001   3
  10  -2  -1 161.118 7.77503  13
  10  -2  -1 164.942 7.73076  16
  10   2  -1 152.224 7.30783   1
  10   2  -1 164.792 7.83125  13
 -10   2   1 161.036 10.2862  14
 -10   2   1 165.204 9.11640   3
  10   2  -1 154.932 7.62276  16
   8  -2  -1 405.892 12.6071  16
  -8  -2   1 442.960 14.0762   3
  -8  -2   1 430.573 13.4277  10
  -8  -2   1 434.061 14.1006  14
   8  -2  -1 416.507 12.0496   1
   8  -2  -1 417.948 11.4176  12
   8   2  -1 407.607 12.1955   1
   8   2  -1 392.769 12.2367  13
   8   2  -1 413.057 12.8537  16
  -8   2   1 440.131 15.9654  14
   8   2  -1 414.326 11.5062  12
  -8   2   1 406.727 13.8609   3
  -8   2   1 400.293 11.5090   9
  -6  -2   1 432.743 11.5312   9
   6  -2  -1 485.446 12.8243  16
  -6  -2   1 477.689 13.6979  14
   6  -2  -1 489.200 12.0496  12
   6  -2  -1 508.329 12.6473  15
  -6  -2   1 484.008 13.4667  10
  -6  -2   1 458.022 12.0868   2
   6  -2  -1 490.311 11.4043   5
   6   2  -1 483.936 12.0682  12
   6   2  -1 476.845 12.9267  16
  -6   2   1 491.211 13.8961   3
  -6   2   1 462.226 12.1049   9
   6   2  -1 474.846 12.3852   1
  -6   2   1 455.937 13.0937   8
  -6   2   1 480.360 15.1217  14
  -4  -2   1 1353.77 32.8910  15
   4  -2  -1 1513.92 32.9790  15
  -4  -2   1 1465.80 32.2663   7
  -4  -2   1 1498.70 33.0306  10
  -4  -2   1 1494.86 32.2892   2
  -4  -2   1 1402.30 31.0487   9
  -4  -2   1 1532.51 33.1571  14
  -4   2   1 1464.84 32.0383   9
  -4   2   1 1448.68 31.7683   6
   4   2  -1 1448.87 31.2180   5
   4   2  -1 1503.62 31.9489  12
  -4   2   1 1478.05 34.1528  14
   4   2  -1 1497.15 32.0107   1
  -4   2   1 1485.48 32.7276   8
  -4   2   1 1496.14 33.1539   3
   4   2  -1 1510.13 32.4232  16
  -2  -2   1 2910.57 63.4792  10
  -2  -2   1 2739.85 64.6366   2
  -2  -2   1 2989.82 64.8021   7
   2  -2  -1 3050.58 72.4931  15
   2   2  -1 3038.01 66.3743  16
  -2   2   1 2891.97 66.8968   8
  -2   2   1 2982.67 67.1296   3
   2   2  -1 2907.33 64.1130   5
   2   2  -1 2972.44 64.9504  12
  -2   2   1 2982.53 63.7942   6
   2   2  -1 3017.98 64.5622   1
  -2   2   1 2877.80 65.8518  14
  -2   2   1 2996.96 66.1407   9
   0  -2   1 3079.68 66.2801   7
   0  -2  -1 3026.03 73.7333  15
   0  -2  -1 2948.08 68.6839  10
   0  -2  -1 2849.39 69.8108   2
   0   2   1 3053.57 65.9724   1
   0   2   1 3082.86 66.6377  16
   0   2  -1 3041.98 66.4326   9
   0   2  -1 3051.75 65.5872  12
   0   2   1 3046.58 65.9706  13
   0   2   1 3033.23 74.2191  15
   0   2  -1 3088.17 66.4351   5
   2  -2   1 3441.84 73.0168  16
  -2  -2  -1 3149.35 78.5129  15
  -2  -2  -1 3023.30 71.6321   2
  -2  -2  -1 3034.17 73.5027  10
  -2  -2  -1 3170.54 68.5874  11
   2   2   1 2901.26 77.3055  15
  -2   2  -1 3463.22 79.0710  14
   2   2   1 3408.69 72.5032  12
  -2   2  -1 3450.25 72.9809   3
  -2   2  -1 3453.85 74.6898   9
  -2   2  -1 3404.95 72.1771   6
   2   2   1 3412.79 74.5734  16
   2   2   1 3333.78 72.7589  13
  -2   2  -1 3341.33 72.5234   8
   2   2   1 3379.90 71.9908   1
  -4  -2  -1 1245.65 28.6887   2
   4  -2   1 1278.90 27.7518  16
  -4  -2  -1 1253.09 26.5715  11
  -4  -2  -1 1217.64 29.0102  15
   4  -2   1 1285.37 27.4190   1
  -4  -2  -1 1211.51 27.9166  14
   4  -2   1 1279.60 26.9534  12
  -4  -2  -1 1263.79 29.1189  10
  -4   2  -1 1248.64 27.2885   6
   4   2   1 1238.84 27.6957   1
  -4   2  -1 1261.33 29.8480  14
   4   2   1 1266.08 28.1594  16
   4   2   1 1251.34 27.1741  12
  -4   2  -1 1241.50 28.1205   9
   4   2   1 1287.81 28.0484  13
  -4   2  -1 1253.97 28.5888   8
  -4   2  -1 1228.70 29.0389   3
   6  -2   1 737.757 17.7318   1
  -6  -2  -1 751.151 18.9425  14
  -6  -2  -1 692.555 17.5558   9
  -6  -2  -1 770.309 19.7653   3
   6  -2   1 734.824 18.2007  16
  -6  -2  -1 745.775 19.7788  10
  -6  -2  -1 757.648 19.0642   2
  -6   2  -1 736.687 20.9081  14
   6   2   1 733.429 17.1137  12
  -6   2  -1 705.451 18.1682   9
   6   2   1 741.835 18.6075  16
  -6   2  -1 733.724 19.9458   3
   6   2   1 735.825 18.4482  13
   6   2   1 728.326 17.9792   1
  -8  -2  -1 558.397 17.2260   3
   8  -2   1 535.912 14.7303   1
   8  -2   1 544.281 15.4211  16
   8  -2   1 537.633 15.7225  13
  -8  -2  -1 538.952 15.6158   2
   8   2   1 530.092 15.5525  16
  -8   2  -1 542.625 18.5217  14
  -8   2  -1 518.415 17.3461   3
  -8   2  -1 510.157 14.8000   9
   8   2   1 540.306 14.9644   1
   8   2   1 529.951 15.4073  13
  10  -2   1 192.180 7.92964   1
 -10  -2  -1 215.608 10.7663   3
  10  -2   1 184.413 8.71505  13
 -10   2  -1 212.647 11.6400  14
  10   2   1 193.600 8.68964  13
 -10   2  -1 204.555 10.6530   3
  10   2   1 194.065 8.26137   1
 -11  -3   1 103.685 7.63434   3
  11  -3  -1 92.1157 5.80467   1
  11  -3  -1 89.2264 5.93881  13
  11   3  -1 104.656 6.25061   1
  11   3  -1 91.1707 5.81695  13
 -11   3   1 97.5682 7.48167   3
 -11   3   1 95.9571 8.81624  14
  -9  -3   1 1305.82 33.1158  10
   9  -3  -1 1283.48 32.0304  16
  -9  -3   1 1323.07 33.7936   3
   9  -3  -1 1294.40 31.2165   1
  -9   3   1 1248.68 30.5736   9
  -9   3   1 1316.81 34.1432   3
   9   3  -1 1257.03 32.1457  16
   9   3  -1 1233.37 31.4121  13
   9   3  -1 1303.29 31.4335   1
   9   3  -1 1303.15 30.3553  12
  -9   3   1 1347.78 37.2181  14
   7  -3  -1 221.342 7.76375  16
  -7  -3   1 220.460 8.26406  14
  -7  -3   1 208.910 7.10927   2
  -7  -3   1 230.412 8.53518  10
   7  -3  -1 215.973 6.86057  12
   7   3  -1 216.721 6.95513  12
   7   3  -1 209.743 7.80568  16
   7   3  -1 208.788 7.32197   1
  -7   3   1 211.285 7.12583   9
  -7   3   1 204.624 8.42029   3
   7   3  -1 201.566 7.07256  13
  -7   3   1 208.957 8.20526   8
  -7   3   1 216.814 9.99550  14
  -5  -3   1 2241.01 49.2222   2
  -5  -3   1 2271.71 50.1856  10
  -5  -3   1 2254.38 49.0092   7
  -5  -3   1 2255.77 49.7613  14
  -5  -3   1 2094.29 47.3457   9
   5  -3  -1 2351.92 50.2371  15
  -5  -3   1 2076.93 48.6647  15
   5   3  -1 2200.71 47.5459   5
  -5   3   1 2285.83 51.9970  14
  -5   3   1 2228.78 48.4026   6
   5   3  -1 2239.46 48.5830  13
   5   3  -1 2340.81 49.3926  16
   5   3  -1 2300.27 48.7902   1
  -5   3   1 2279.97 49.8519   8
  -5   3   1 2316.50 48.9299   9
   5   3  -1 2311.74 48.5857  12
  -5   3   1 2329.41 50.3254   3
  -3  -3   1 907.801 20.6535  10
  -3  -3   1 908.067 19.8846   7
  -3  -3   1 896.740 20.4724   2
   3  -3  -1 883.843 21.2828  15
  -3   3   1 898.297 19.5836   6
   3   3  -1 879.887 19.8736  16
   3   3  -1 861.832 19.2642   5
  -3   3   1 877.974 20.4803   3
  -3   3   1 904.532 19.9882   9
  -3   3   1 828.040 20.2451   8
   3   3  -1 877.460 19.2789  13
   3   3  -1 857.707 19.6161  12
   3   3  -1 897.973 19.6122   1
  -3   3   1 900.952 21.5245  14
  -1  -3   1 2400.92 56.4466  10
   1  -3  -1 2648.91 67.2879  15
  -1  -3   1 2476.48 56.1146   7
   1  -3  -1 2681.00 58.9222  10
   1   3  -1 2505.32 56.8055   9
  -1   3   1 2561.84 59.7552  14
   1   3  -1 2543.47 57.3678  12
  -1   3   1 2641.69 56.8538   6
  -1   3   1 2586.99 57.9723   8
   1   3  -1 2642.59 57.0853  16
   1   3  -1 2601.72 55.7546   1
  -1   3   1 2492.42 57.7407   9
  -1   3   1 2666.85 58.7337   3
   1   3  -1 2634.41 56.9511   5
  -1  -3  -1 2514.67 58.9935  10
  -1  -3  -1 2495.08 55.9327   2
  -1  -3  -1 2533.96 55.6391   7
  -1  -3  -1 2558.29 65.5313  15
  -1   3  -1 2626.65 58.9251   9
   1   3   1 2603.96 58.4282   1
   1   3   1 2629.57 60.0846  16
   1   3   1 2628.12 56.8896   6
  -1   3  -1 2641.93 59.4313   8
  -1   3  -1 2652.55 55.8143   6
  -1   3  -1 2667.12 62.3782  14
   1   3   1 2636.02 58.1797  12
  -1   3  -1 2720.05 59.4951   3
   1   3   1 2622.16 56.8566  13
  -3  -3  -1 2531.28 65.9007  15
  -3  -3  -1 2514.07 55.8259  10
  -3  -3  -1 2509.51 56.0344   2
  -3  -3  -1 2510.51 54.1641  11
  -3  -3  -1 2470.60 56.7471  14
  -3   3  -1 2659.24 54.3574   6
   3   3   1 2635.00 54.9808  16
   3   3   1 2626.25 54.5846   1
  -3   3  -1 2596.50 55.8381   3
  -3   3  -1 2522.84 54.9769   9
  -3   3  -1 2615.96 55.3033   8
  -3   3  -1 2615.33 56.7694  14
   3   3   1 2600.32 55.7253  12
   3   3   1 2565.67 54.5111  13
  -5  -3  -1 998.460 24.6805   2
  -5  -3  -1 1062.67 25.4788  10
   5  -3   1 1035.22 23.5398  16
   5  -3   1 1019.23 22.5603  12
   5  -3   1 1020.25 23.0847   1
  -5   3  -1 1063.02 25.5839   3
  -5   3  -1 997.369 23.9228   9
  -5   3  -1 1015.93 26.4328  14
  -5   3  -1 1020.39 23.0498   6
   5   3   1 1012.94 24.0837  16
   5   3   1 1003.40 23.6851  13
   5   3   1 1002.00 22.8711  12
   5   3   1 1014.31 23.5767   1
  -5   3  -1 1017.13 24.6933   8
   7  -3   1 1174.88 27.7243  13
   7  -3   1 1126.18 26.4255   1
  -7  -3  -1 1201.09 29.2032   3
  -7  -3  -1 1109.95 27.9116   2
   7  -3   1 1148.31 27.1431  16
  -7  -3  -1 1143.06 29.2079  10
  -7   3  -1 1096.87 29.3874   3
   7   3   1 1080.36 25.6447  12
   7   3   1 1125.54 26.9584   1
  -7   3  -1 1150.34 31.1795  14
  -7   3  -1 1109.76 27.1839   9
   7   3   1 1108.68 27.2023  13
   7   3   1 1108.48 27.5728  16
   9  -3   1 239.127 9.67923  13
   9  -3   1 235.738 8.56511   1
  -9  -3  -1 249.731 10.7547   3
   9   3   1 217.809 9.19016  16
   9   3   1 227.214 9.02869  13
   9   3   1 226.947 8.79441   1
  -9   3  -1 242.373 12.4839  14
  -9   3  -1 220.078 10.7874   3
  -9   3  -1 216.630 8.58337   9
 -10  -4   1 132.634 8.07251   3
  10  -4  -1 123.216 6.24160   1
  10  -4  -1 119.302 6.65373  16
  10   4  -1 123.214 6.44970  13
  10   4  -1 127.382 6.32823   1
  10   4  -1 107.005 7.48449  16
 -10   4   1 104.031 5.86458   9
 -10   4   1 119.444 7.87154   3
 -10   4   1 133.139 9.89658  14
   8  -4  -1 327.559 10.7336  16
   8  -4  -1 326.256 10.2473   1
   8  -4  -1 320.385 9.78289  12
  -8  -4   1 331.766 11.9023  10
   8   4  -1 321.194 10.3038  13
  -8   4   1 314.897 11.7906   8
  -8   4   1 327.297 10.2816   9
  -8   4   1 341.444 14.5338  14
  -8   4   1 338.141 12.3010   3
   8   4  -1 317.922 10.9404  16
   8   4  -1 316.299 9.80450  12
   8   4  -1 332.329 10.4818   1
  -6  -4   1 95.5853 5.28193  10
   6  -4  -1 98.2751 4.47841  16
  -6  -4   1 99.6381 4.61958   2
  -6  -4   1 103.742 4.72332  14
   6  -4  -1 101.459 5.27805  15
  -6   4   1 101.690 4.05972   6
  -6   4   1 101.661 5.33557   3
  -6   4   1 95.7088 4.26746   9
   6   4  -1 96.0723 4.22857   1
   6   4  -1 103.298 4.69868  16
  -6   4   1 106.862 5.32236   8
  -6   4   1 102.612 6.35703  14
   6   4  -1 99.3311 4.18543  12
   6   4  -1 98.0775 4.07607  13
  -4  -4   1 411.654 11.2850  15
  -4  -4   1 418.771 11.8059  10
  -4  -4   1 411.574 11.5708   2
   4  -4  -1 422.563 12.5124  15
  -4  -4   1 432.457 10.7747   7
  -4   4   1 418.279 10.8994   9
  -4   4   1 396.278 11.4856   3
   4   4  -1 414.464 10.5053  12
  -4   4   1 419.978 10.4648   6
   4   4  -1 421.669 10.9194  16
   4   4  -1 407.086 10.1115  13
   4   4  -1 428.874 10.5565   1
  -4   4   1 423.419 12.8813  14
  -4   4   1 414.251 11.5283   8
  -2  -4   1 331.175 8.87282  10
  -2  -4   1 326.208 8.03615   7
  -2  -4   1 315.926 8.93989   2
   2  -4  -1 329.518 10.1216  15
  -2   4   1 312.046 9.12026  14
  -2   4   1 324.037 7.90549   6
  -2   4   1 320.873 8.39707   9
   2   4  -1 318.850 8.00723  12
  -2   4   1 314.960 8.58166   3
   2   4  -1 326.855 8.03997  16
   2   4  -1 327.582 7.78828   1
   2   4  -1 313.039 7.21452  13
  -2   4   1 309.313 8.70773   8
   0  -4  -1 5.76934 1.18025   2
   0  -4   1 4.00716 0.51172   4
   0  -4   1 2.75279 0.82959  10
   0  -4  -1 5.61170 0.96935  10
   0  -4   1 4.17120 0.69896   7
   0   4  -1 3.96405 0.48374   1
   0   4   1 3.87828 0.62754   1
   0   4   1 3.42960 0.60211  14
   0   4   1 3.94336 0.50646  13
   0   4  -1 3.21005 0.67308   8
   0   4  -1 3.17662 0.62412   6
   0   4  -1 3.36680 0.61210   9
   0   4   1 3.09211 0.54345   6
   0   4   1 3.13490 0.64050  16
   0   4  -1 2.70728 0.54182  12
  -2  -4  -1 343.184 10.4374  15
  -2  -4  -1 343.118 10.1360   2
  -2  -4  -1 338.526 8.09641   7
  -2  -4  -1 337.260 8.54459  11
  -2  -4  -1 353.485 9.69804  10
  -2   4  -1 325.723 9.33012   3
   2   4   1 333.351 8.23297  13
  -2   4  -1 328.424 10.0595  14
   2   4   1 349.212 8.40417  12
   2   4   1 349.659 8.82096  16
  -2   4  -1 336.814 8.99890   8
  -2   4  -1 330.092 8.82755   9
  -2   4  -1 333.059 8.41426   6
   2   4   1 336.575 8.45209   1
  -4  -4  -1 7.53050 1.88555   2
  -4  -4  -1 4.87737 1.38363  15
  -4  -4  -1 4.63175 1.39439  10
   4  -4   1 4.88912 0.94356  16
  -4   4  -1 4.01705 1.08397   9
   4   4   1 3.57626 0.96092  13
  -4   4  -1 5.34736 1.37023   8
  -4   4  -1 9.55787 1.26006   6
  -4   4  -1 4.12278 1.52619  14
   4   4   1 4.88281 0.93840  12
   4   4   1 4.44358 1.08128   1
  -4   4  -1 4.16697 1.30441   3
   4   4   1 4.44456 1.04513  16
   6  -4   1 34.4745 2.36049   1
  -6  -4  -1 27.1312 3.02091   2
  -6  -4  -1 27.9713 3.48870  10
   6  -4   1 34.4094 2.58427  16
   6   4   1 27.1236 2.33136  13
   6   4   1 26.9721 2.09214  12
   6   4   1 25.1467 2.77281  16
  -6   4  -1 26.7246 2.06711   6
  -6   4  -1 23.0570 3.52320  14
   6   4   1 24.7276 2.54509   1
  -6   4  -1 31.3561 3.35731   3
  -6   4  -1 30.4739 2.53208   9
   8  -4   1 57.7740 3.72290   1
   8  -4   1 55.8988 4.37662  13
  -8  -4  -1 68.1577 5.29266   3
  -8  -4  -1 53.1047 4.82936  10
  -8  -4  -1 69.2840 4.76181   2
  -8   4  -1 50.1019 4.68715   3
   8   4   1 50.0166 4.21139  16
   8   4   1 58.9102 4.15535   1
  -8   4  -1 55.3884 5.99239  14
   8   4   1 52.3721 3.82065  13
  -8   4  -1 57.4548 4.12762   9
 -10  -4  -1 2.60369 2.14931   3
  10  -4   1 -0.9137 1.66615  13
  10   4   1 2.80079 1.92489   1
 -10   4  -1 0.03111 1.48532   9
 -10   4  -1 -1.4564 1.66466   3
 -10   4  -1 3.28158 2.99959  14
  10   4   1 1.26278 1.83144  13
  11  -5  -1 196.049 9.25441  13
 -11  -5   1 202.818 10.3283   3
 -11   5   1 198.339 10.7950   3
 -11   5   1 200.557 13.1453  14
  11   5  -1 201.812 9.00970   1
   9  -5  -1 212.911 8.09763   1
  -9  -5   1 216.916 9.76194   3
  -9  -5   1 208.247 9.86684  10
   9  -5  -1 212.353 8.74117  16
   9   5  -1 221.989 8.64648   1
   9   5  -1 210.780 8.17295  13
  -9   5   1 211.582 8.32138   9
   9   5  -1 203.594 8.91137  16
  -9   5   1 211.936 10.2735   3
  -9   5   1 236.177 12.8700  14
   9   5  -1 203.311 7.71432  12
   7  -5  -1 768.067 19.3467  16
  -7  -5   1 775.164 21.1085  10
  -7  -5   1 713.785 19.3227   2
  -7   5   1 738.119 20.8880   3
  -7   5   1 732.926 23.3463  14
  -7   5   1 760.757 20.8055   8
   7   5  -1 728.694 18.3822  13
   7   5  -1 732.967 19.4420  16
   7   5  -1 731.855 18.4618  12
  -7   5   1 745.061 18.3640   6
   7   5  -1 707.194 18.6126   1
  -7   5   1 716.035 18.8694   9
  -5  -5   1 1047.68 24.5098   7
  -5  -5   1 1035.43 25.8584   2
  -5  -5   1 1072.03 26.3944  10
   5  -5  -1 1071.70 27.2153  15
  -5  -5   1 984.190 25.4134  15
  -5   5   1 1074.74 28.1646  14
   5   5  -1 1019.89 23.7334  13
  -5   5   1 1093.14 24.2933   6
   5   5  -1 1065.90 24.3577  12
  -5   5   1 1086.61 24.9253   9
  -5   5   1 1072.30 26.2096   3
  -5   5   1 1079.52 26.0719   8
   5   5  -1 1030.34 24.7645  16
   5   5  -1 1040.96 24.2776   1
  -3  -5   1 2779.45 61.2697   7
  -3  -5   1 2798.12 62.6824  10
  -3  -5   1 2654.16 62.6175   2
   3  -5  -1 2967.27 64.6302  15
   3   5  -1 2954.35 61.4322  12
  -3   5   1 2939.36 61.9069   9
  -3   5   1 2922.99 61.2074   6
  -3   5   1 2881.87 62.5369   3
   3   5  -1 2862.10 60.3778  13
   3   5  -1 2943.39 61.1414   1
  -3   5   1 2843.61 63.7272  14
  -3   5   1 2939.37 62.6768   8
   3   5  -1 3010.96 61.6236  16
   1  -5  -1 2309.63 50.9949  15
  -1  -5   1 2214.86 48.8878  10
   1  -5  -1 2323.69 49.1985   2
   1  -5  -1 2362.72 48.4254  10
   1  -5  -1 2288.66 47.6999   7
  -1  -5   1 2227.30 47.6622   7
  -1   5   1 2248.16 47.5649   6
   1   5  -1 2123.91 47.9830   8
  -1   5   1 2201.79 48.1937   9
  -1   5   1 2246.47 48.7395  14
   1   5  -1 2245.34 47.6588   6
  -1   5   1 2252.55 48.8409   8
   1   5  -1 2165.63 47.6408   9
   1   5  -1 2196.92 47.2292   1
   1   5  -1 2222.54 47.7192  12
   1   5  -1 2244.25 47.5416  16
  -1  -5  -1 2658.32 64.9674  15
  -1  -5  -1 2712.29 58.2093   2
  -1  -5  -1 2653.37 57.2359  10
   1  -5   1 2609.11 57.3489   4
  -1  -5  -1 2577.29 56.8717   7
   1  -5   1 2708.77 56.3205   7
  -1   5  -1 2637.36 56.6317   9
   1   5   1 2649.05 55.6746  13
   1   5   1 2648.48 56.1755  12
  -1   5  -1 2582.51 56.7362   8
   1   5   1 2585.17 55.7054   6
   1   5   1 2617.53 56.0492   1
  -1   5  -1 2688.78 58.1832  14
   1   5   1 2694.00 56.4909  16
  -1   5  -1 2733.31 56.2936   6
  -3  -5  -1 630.143 15.7156  11
  -3  -5  -1 685.135 18.2724   2
  -3  -5  -1 662.997 18.3215  15
  -3  -5  -1 693.929 17.6312  10
  -3   5  -1 655.364 17.2221   3
   3   5   1 667.686 15.6702  12
   3   5   1 666.856 15.4913  13
  -3   5  -1 662.224 16.7977   8
   3   5   1 668.773 16.2586  16
  -3   5  -1 675.226 15.7394   6
  -3   5  -1 659.503 18.3976  14
   3   5   1 661.558 15.8023   1
  -3   5  -1 672.847 16.4830   9
  -5  -5  -1 798.056 21.1065  10
   5  -5   1 771.154 18.5900  16
  -5  -5  -1 765.015 20.8089   2
  -5   5  -1 798.158 18.6058   6
   5   5   1 747.245 18.5457  13
  -5   5  -1 793.229 21.0888   3
  -5   5  -1 759.805 22.3210  14
   5   5   1 766.400 18.3319  12
   5   5   1 763.667 18.7911   1
   5   5   1 748.932 19.2874  16
  -5   5  -1 764.168 19.4271   9
  -5   5  -1 779.444 20.2489   8
   7  -5   1 197.583 7.65836  13
  -7  -5  -1 201.061 8.64851   2
  -7  -5  -1 214.726 9.61204  10
  -7  -5  -1 215.951 8.90831   3
   7   5   1 202.832 8.11426  16
  -7   5  -1 205.086 6.97258   6
   7   5   1 201.073 6.79386  12
  -7   5  -1 207.656 9.54999   3
  -7   5  -1 203.851 8.02877   9
  -7   5  -1 210.427 10.8638  14
   7   5   1 218.115 7.72869   1
   7   5   1 197.380 7.39022  13
   9  -5   1 411.738 13.7641  13
  -9  -5  -1 438.989 15.1956   3
  -9   5  -1 440.704 18.5076  14
  -9   5  -1 394.698 15.6298   3
  -9   5  -1 397.208 13.1706   9
   9   5   1 392.426 13.0979  13
   9   5   1 410.108 13.1787   1
 -10  -6   1 113.668 7.69131  10
  10  -6  -1 111.219 6.60685  13
 -10  -6   1 114.318 7.36737   3
 -10   6   1 118.909 9.99970  14
 -10   6   1 111.489 6.15401   9
 -10   6   1 116.428 8.08510   3
  10   6  -1 117.895 6.53177   1
  -8  -6   1 43.8532 4.93033  10
   8  -6  -1 42.6162 3.67424  16
   8   6  -1 42.1386 3.74759   1
   8   6  -1 40.2840 3.41669  12
  -8   6   1 45.6380 4.41031   8
   8   6  -1 39.8168 2.97473  13
  -8   6   1 49.5718 4.54918   3
  -8   6   1 41.1154 5.28731  14
  -8   6   1 41.5580 3.43537   6
   8   6  -1 42.3036 3.96979  16
  -8   6   1 42.1595 3.70308   9
  -6  -6   1 331.334 9.94170   7
   6  -6  -1 319.770 12.1571  15
  -6  -6   1 312.640 10.9376   2
  -6  -6   1 344.506 11.9618  10
  -6   6   1 338.990 10.3727   9
  -6   6   1 339.151 11.5831   3
   6   6  -1 322.052 10.2847  16
   6   6  -1 334.669 9.86012   1
  -6   6   1 319.383 13.3070  14
   6   6  -1 323.101 9.69924  12
  -6   6   1 334.589 9.59449   6
   6   6  -1 296.416 8.87323  13
  -6   6   1 318.822 11.3413   8
  -4  -6   1 62.8890 3.15370   7
   4  -6  -1 68.5341 4.94746  15
  -4  -6   1 57.3682 3.79882  15
  -4   6   1 57.2272 3.78616   8
   4   6  -1 65.1128 3.35911  16
   4   6  -1 59.8204 2.40632  13
  -4   6   1 60.4372 3.08371   6
  -4   6   1 57.3988 3.74935   3
   4   6  -1 56.2995 2.93320   1
  -4   6   1 58.8204 4.48025  14
   4   6  -1 61.8712 3.05221  12
  -4   6   1 58.7333 3.41563   9
   2  -6  -1 44.3435 1.92488   7
  -2  -6   1 41.5863 2.90387  10
   2  -6  -1 46.5709 3.78281  15
  -2  -6   1 45.0102 2.33558   7
  -2  -6   1 41.5352 3.21439   2
   2  -6  -1 46.1643 2.65502  10
   2   6  -1 44.2504 2.31982  16
  -2   6   1 44.2225 2.86417   8
  -2   6   1 42.8137 3.03043  14
   2   6  -1 43.0903 2.39307  12
  -2   6   1 45.4407 2.25012   6
   2   6  -1 43.2945 2.11457   1
  -2   6   1 42.4301 2.53262   9
   0  -6  -1 212.704 5.33090   7
   0  -6   1 212.690 6.10463   7
   0  -6  -1 226.829 7.66571   2
   0  -6  -1 213.785 8.75664  15
   0  -6  -1 222.130 6.86340  10
   0  -6   1 216.991 7.21536  10
   0   6   1 206.277 5.88948   6
   0   6   1 214.453 6.99406   8
   0   6   1 210.077 5.55243  13
   0   6   1 207.959 5.92065   1
   0   6  -1 219.385 6.20873   6
   0   6  -1 198.859 6.50815   8
   0   6  -1 221.182 6.45882   9
  -2  -6  -1 26.6857 3.31442   2
   2  -6   1 25.0845 1.59628   4
  -2  -6  -1 24.8419 2.44257  10
  -2  -6  -1 24.2697 1.53553   7
   2  -6   1 24.7253 1.85245   7
  -2  -6  -1 31.1515 3.33721  15
   2   6   1 26.0279 1.93595  16
  -2   6  -1 24.6186 1.99174   9
   2   6   1 25.8182 1.53014   6
   2   6   1 27.8128 1.82320   1
  -2   6  -1 27.4889 1.96702   6
   2   6   1 24.3211 1.52068  13
   2   6   1 27.7086 1.95024  12
  -2   6  -1 29.3172 2.61249   3
  -2   6  -1 22.7047 1.96212   8
  -2   6  -1 22.9958 2.49090  14
  -4  -6  -1 53.3405 4.59458   2
  -4  -6  -1 50.3292 2.83486  11
  -4  -6  -1 47.0870 3.82368  10
  -4  -6  -1 48.2765 4.01287  15
  -4   6  -1 47.9719 4.33769  14
  -4   6  -1 51.9916 3.62555   8
   4   6   1 43.3252 2.48506  13
  -4   6  -1 48.2653 3.64956   3
   4   6   1 51.5904 2.74784  12
  -4   6  -1 50.3439 2.89515   6
   4   6   1 45.1900 2.87437   1
  -4   6  -1 48.4201 3.24681   9
   4   6   1 47.3577 3.04001  16
  -6  -6  -1 22.9618 3.41748   2
  -6  -6  -1 19.2913 3.37195  10
   6   6   1 19.3052 2.08230  12
  -6   6  -1 16.6520 3.47625  14
  -6   6  -1 17.5613 2.55349   9
   6   6   1 17.2671 2.39861  16
   6   6   1 19.9495 2.21127  13
  -6   6  -1 19.4209 2.18061   6
  -6   6  -1 23.5819 3.18153   8
  -6   6  -1 20.0801 3.27906   3
   6   6   1 16.9676 2.31068   1
  -8  -6  -1 7.64846 2.35390   2
  -8  -6  -1 6.04775 2.32980   3
   8  -6   1 6.83802 1.93986  13
  -8  -6  -1 11.1303 3.10132  10
  -8   6  -1 6.58680 3.23397  14
  -8   6  -1 7.52180 2.24823   9
   8   6   1 8.29610 2.17146   1
  -8   6  -1 8.98102 2.05635   6
   8   6   1 6.26445 1.82175  13
  -8   6  -1 5.81125 2.45052   3
   8   6   1 6.85213 1.87304  16
  -9  -7   1 217.701 10.6181  10
  -9   7   1 212.890 12.9433  14
  -9   7   1 201.791 10.1882   3
   9   7  -1 209.063 8.63916   1
  -9   7   1 218.272 8.79920   9
  -9   7   1 213.912 10.7171   8
   9   7  -1 202.400 8.06016  12
  -7  -7   1 917.070 25.1475   2
  -7  -7   1 953.830 26.2752  10
   7  -7  -1 928.970 23.8615  16
  -7   7   1 1003.70 23.5452   6
  -7   7   1 959.905 26.4010   8
  -7   7   1 953.082 29.6268  14
   7   7  -1 931.228 23.5962   1
  -7   7   1 952.339 24.4621   9
   7   7  -1 939.473 24.4473  16
  -7   7   1 956.066 26.3878   3
   7   7  -1 974.514 23.6854  12
  -5  -7   1 149.259 7.13909   2
  -5  -7   1 157.151 5.75168   7
   5  -7  -1 153.642 8.34226  15
  -5  -7   1 149.410 7.14750  10
   5   7  -1 143.259 5.61730  12
  -5   7   1 150.196 5.73904   6
  -5   7   1 166.613 6.56734   9
  -5   7   1 142.279 8.01895  14
   5   7  -1 141.397 5.52853   1
  -5   7   1 146.746 7.01536   8
   5   7  -1 142.280 5.82108  16
  -5   7   1 152.069 7.13156   3
   3  -7  -1 1029.20 28.2056  15
  -3  -7   1 1003.37 23.4703   7
  -3  -7   1 1032.73 25.5732  10
  -3  -7   1 1000.89 25.8584   2
   3  -7  -1 1034.10 24.3793  10
   3   7  -1 1030.23 23.4060   1
  -3   7   1 1042.01 24.6355   9
  -3   7   1 1034.08 25.4530   8
   3   7  -1 1035.44 23.8964  12
   3   7  -1 1027.80 23.9019  16
  -3   7   1 1022.69 23.6266   6
  -3   7   1 1022.20 25.2913   3
  -3   7   1 1023.89 26.6149  14
   1  -7  -1 298.827 11.4868  15
  -1  -7   1 313.957 10.1163   2
  -1  -7   1 303.737 9.48057  10
  -1  -7   1 291.595 7.96396   7
   1  -7  -1 294.618 9.78648   2
   1  -7  -1 298.348 8.89060  10
   1   7  -1 284.894 8.14482  12
   1   7  -1 273.994 8.55590   8
  -1   7   1 284.548 9.20906   8
   1   7  -1 293.370 7.69854   1
   1   7  -1 300.098 8.19918   6
  -1   7   1 291.340 8.01736   6
  -1  -7  -1 1613.59 39.7868  15
  -1  -7  -1 1635.62 36.9185  10
   1  -7   1 1645.46 37.2166  10
   1  -7   1 1643.91 35.5303   7
  -1  -7  -1 1669.98 38.2627   2
   1   7   1 1623.80 35.8602  16
   1   7   1 1622.53 35.3435   1
   1   7   1 1546.20 34.5368  13
  -1   7  -1 1496.07 36.2697   8
   1   7   1 1580.05 35.0331   6
  -1   7  -1 1618.36 35.5909   6
  -1   7  -1 1623.34 36.1930   9
  -3  -7  -1 649.384 16.7497  11
  -3  -7  -1 699.413 19.7825   2
  -3  -7  -1 669.973 20.1030  15
   3  -7   1 680.364 16.8201   7
  -3  -7  -1 703.628 18.7983  10
   3   7   1 656.245 15.7346   6
  -3   7  -1 682.583 17.4169   9
  -3   7  -1 696.451 20.1006  14
  -3   7  -1 692.948 16.7317   6
   3   7   1 666.324 15.8926  13
  -3   7  -1 679.013 18.6536   3
   3   7   1 683.380 16.6802  12
   3   7   1 683.339 16.6557   1
   3   7   1 688.707 17.1936  16
  -3   7  -1 655.097 17.8337   8
  -5  -7  -1 1417.79 35.2906  10
  -5  -7  -1 1408.49 35.8070   2
  -5   7  -1 1421.46 34.7712   8
  -5   7  -1 1420.89 37.8843  14
  -5   7  -1 1403.04 33.6424   9
   5   7   1 1427.70 32.3740  12
   5   7   1 1422.63 32.6616   1
  -5   7  -1 1420.15 32.4485   6
   5   7   1 1404.56 33.3525  16
  -5   7  -1 1416.32 35.4106   3
   5   7   1 1373.60 31.8865  13
  -7  -7  -1 370.109 13.6716   2
  -7  -7  -1 416.642 14.8875  10
  -7   7  -1 394.695 11.6431   6
  -7   7  -1 376.694 16.8120  14
   7   7   1 395.179 11.4807  12
   7   7   1 374.231 11.4884  13
  -7   7  -1 379.574 14.4727   3
  -7   7  -1 370.470 12.6277   9
   7   7   1 399.870 12.1270   1
   7   7   1 390.433 12.8435  16
  -7   7  -1 379.465 14.0961   8
  -9  -7  -1 445.017 16.6089  10
  -9   7  -1 423.554 19.3682  14
  -9   7  -1 427.841 16.7264   3
  -9   7  -1 448.129 14.6813   9
   9   7   1 428.315 13.9102   1
  -8  -8   1 54.1954 5.19097  10
   8   8  -1 55.8896 4.34235   1
  -8   8   1 62.7020 4.50311   9
  -8   8   1 47.5320 4.81283   8
  -8   8   1 56.2560 4.27831   6
  -8   8   1 57.5822 5.54090   3
   8   8  -1 57.7511 4.18376  12
  -8   8   1 49.5619 6.17218  14
   8   8  -1 53.3263 4.23748  16
  -6  -8   1 589.376 18.3448  10
  -6  -8   1 543.177 17.6349   2
   6  -8  -1 600.546 20.4435  15
   6   8  -1 552.707 15.4158  12
  -6   8   1 565.837 17.8007   3
   6   8  -1 561.118 15.9499  16
  -6   8   1 568.986 20.4809  14
  -6   8   1 572.606 17.9498   8
   6   8  -1 566.883 15.3505   1
  -6   8   1 575.511 16.3657   9
  -6   8   1 579.756 15.4141   6
   4  -8  -1 310.045 12.9785  15
  -4  -8   1 314.515 11.2310  10
   4  -8  -1 295.972 9.53125  10
  -4  -8   1 286.522 11.5330  15
  -4  -8   1 312.803 11.4735   2
  -4  -8   1 294.749 8.64963   7
   4   8  -1 300.290 8.62221   6
  -4   8   1 304.094 9.01767   6
   4   8  -1 299.973 9.34141  16
  -4   8   1 288.707 10.4572   3
   4   8  -1 303.616 9.26964  12
  -4   8   1 282.250 11.7115  14
   4   8  -1 288.423 8.72381   1
  -4   8   1 304.124 9.95286   9
  -4   8   1 306.313 10.8438   8
   2  -8  -1 549.977 18.3338  15
  -2  -8   1 529.733 13.3589   7
  -2  -8   1 550.982 16.1771   2
  -2  -8   1 569.207 15.7172  10
   2  -8  -1 536.576 14.5813  10
   2  -8  -1 549.482 15.7981   2
   2   8  -1 554.802 13.8615  16
   2   8  -1 532.663 13.9373  12
   2   8  -1 546.019 13.7406   6
   2   8  -1 508.194 14.3677   8
  -2   8   1 560.427 13.8054   6
  -2   8   1 512.683 15.6365  14
  -2   8   1 548.280 15.4744   8
   2   8  -1 527.996 13.2804   1
   0  -8  -1 1251.88 29.6917  10
   0  -8  -1 1292.97 31.3020   2
   0  -8  -1 1250.50 33.4608  15
   0  -8   1 1268.46 28.3295   7
   0  -8   1 1302.49 30.5595  10
   0   8   1 1285.97 30.4174   8
   0   8   1 1216.65 28.2481   1
   0   8  -1 1313.98 28.8710   6
   0   8  -1 1157.06 29.3106   8
   0   8   1 1253.34 28.2956   6
   0   8  -1 1272.53 29.1112   9
   2  -8   1 348.193 9.87038   7
   2  -8   1 361.126 11.3961  10
  -2  -8  -1 343.936 11.3991  10
  -2  -8  -1 358.566 12.3925   2
  -2  -8  -1 343.495 13.5348  15
   2   8   1 363.450 9.36721   6
  -2   8  -1 327.692 10.8020   8
   2   8   1 352.705 9.79666   1
  -2   8  -1 349.756 10.6675   9
  -2   8  -1 349.281 9.96076   6
   2   8   1 347.203 10.2551  16
  -4  -8  -1 900.890 25.3524   2
  -4  -8  -1 850.607 21.6918  11
  -4  -8  -1 903.021 24.2634  10
   4  -8   1 899.013 21.9347   7
   4   8   1 899.067 22.4042  16
  -4   8  -1 902.686 23.6779   8
  -4   8  -1 879.614 21.6694   6
   4   8   1 886.975 21.6785  12
  -4   8  -1 878.179 24.1638   3
  -4   8  -1 892.729 22.8175   9
   4   8   1 902.417 21.7712   1
  -4   8  -1 888.207 26.2290  14
  -6  -8  -1 476.507 16.1910  10
  -6  -8  -1 460.630 16.1686   2
  -6   8  -1 475.871 13.4118   6
   6   8   1 476.324 13.3349  12
   6   8   1 468.593 13.5490   1
  -6   8  -1 459.634 16.1761   3
  -6   8  -1 472.822 14.6679   9
   6   8   1 452.144 14.0846  16
  -6   8  -1 472.343 15.6184   8
  -6   8  -1 463.247 18.4628  14
  -8  -8  -1 179.243 9.66669  10
  -8   8  -1 172.911 11.9556  14
   8   8   1 179.573 7.88071   1
  -8   8  -1 181.386 9.99600   3
  -8   8  -1 178.749 8.45617   9
  -8   8  -1 185.458 7.51020   6
  -9  -9   1 306.052 13.0442  10
  -9   9   1 280.664 11.1087   9
  -9   9   1 280.408 15.5342  14
  -9   9   1 298.237 10.3405   6
  -9   9   1 289.165 12.9480   3
   9   9  -1 294.016 10.7144   1
  -9   9   1 296.228 13.1426   8
   9   9  -1 284.331 10.3285  12
  -7  -9   1 101.852 7.05576   2
  -7  -9   1 109.722 7.65867  10
   7   9  -1 128.189 6.07630  12
  -7   9   1 111.488 7.36920   3
  -7   9   1 106.325 8.81340  14
   7   9  -1 105.210 5.75160  16
  -7   9   1 121.169 6.57725   9
  -7   9   1 110.675 7.20328   8
   7   9  -1 112.698 5.67398   1
  -7   9   1 115.577 5.79922   6
  -5  -9   1 1319.85 34.0857  10
  -5  -9   1 1292.72 34.4984   2
   5   9  -1 1356.48 30.9581   1
  -5   9   1 1302.09 36.4350  14
   5   9  -1 1303.25 31.5533  16
   5   9  -1 1349.44 31.4616  12
  -5   9   1 1305.56 31.0826   6
  -5   9   1 1347.56 34.1034   8
  -5   9   1 1330.32 32.3522   9
   3  -9  -1 379.795 12.8030   2
  -3  -9   1 355.251 14.1270  15
  -3  -9   1 395.694 12.9999  10
   3  -9  -1 383.847 11.6358  10
   3  -9  -1 379.021 15.4491  15
  -3  -9   1 396.602 13.7268   2
   3   9  -1 367.349 10.5332   6
  -3   9   1 366.235 13.4243  14
   3   9  -1 385.350 10.5023   1
   3   9  -1 381.097 11.1655  12
   3   9  -1 391.992 11.1242  16
  -3   9   1 372.177 10.7439   6
  -3   9   1 386.419 12.8531   8
   1  -9  -1 2318.51 52.0725  10
  -1  -9   1 2404.12 54.2581   2
   1  -9  -1 2319.46 57.2296  15
  -1  -9   1 2363.76 53.0618  10
   1  -9  -1 2365.85 53.8410   2
   1   9  -1 2289.16 50.0991   1
   1   9  -1 2101.09 51.6032   8
  -1   9   1 2349.33 53.1384   8
   1   9  -1 2361.46 50.9840   6
  -1   9   1 2339.14 50.7310   6
  -1  -9  -1 122.007 8.01707  15
  -1  -9  -1 139.267 6.49262  10
   1  -9   1 130.924 6.26402  10
  -1  -9  -1 130.668 7.27433   2
   1   9   1 127.666 6.21883   8
  -1   9  -1 122.395 5.18187   6
  -1   9  -1 115.948 5.72674   8
   1   9   1 135.793 4.89868   6
   1   9   1 125.822 4.88882   1
  -1   9  -1 134.217 5.62249   9
  -3  -9  -1 1175.38 33.7636  15
  -3  -9  -1 1249.44 32.9495   2
  -3  -9  -1 1262.95 31.3593  10
   3  -9   1 1282.65 30.8949  10
  -3  -9  -1 1195.17 28.9948  11
  -3   9  -1 1240.10 29.9253   9
  -3   9  -1 1229.49 28.8896   6
   3   9   1 1202.48 29.2493  16
   3   9   1 1235.43 28.6314   1
  -3   9  -1 1180.18 30.4525   8
  -5  -9  -1 8.41115 2.51324  10
  -5  -9  -1 6.73840 3.28094   2
  -5   9  -1 2.02693 1.69048   9
  -5   9  -1 2.47984 1.48817   8
   5   9   1 2.03679 1.60863   1
   5   9   1 3.15302 1.70928  16
  -5   9  -1 9.81680 2.10397   6
  -7  -9  -1 562.809 19.2453   2
  -7  -9  -1 598.067 20.0033  10
  -7   9  -1 593.213 16.4689   6
   7   9   1 580.523 16.7316   1
  -7   9  -1 609.519 18.1381   9
  -7   9  -1 591.089 19.6433   8
  -7   9  -1 591.083 20.0347   3
  -8 -10   1 2.86498 2.71850  10
  -8  10   1 4.09594 2.76007   8
   8  10  -1 6.07224 2.10611   1
  -8  10   1 6.44326 2.29722   6
  -8  10   1 2.77110 2.31844   3
   8  10  -1 3.99613 1.59457  12
  -8  10   1 2.55020 2.94051  14
  -8  10   1 5.06160 2.36428   9
  -6 -10   1 76.1892 6.76138   2
   6 -10  -1 79.2511 5.76323   2
  -6 -10   1 73.4260 6.62549  10
  -6  10   1 71.8561 6.20080   8
   6  10  -1 68.0191 4.48253  16
   6  10  -1 74.8577 4.52901   1
  -6  10   1 72.4893 5.31166   9
  -6  10   1 68.5858 7.03989  14
   6  10  -1 74.8951 4.53430  12
  -6  10   1 74.5394 4.48887   6
   4 -10  -1 2.87710 1.97896   2
  -4 -10   1 0.84480 2.63675   2
  -4 -10   1 3.95738 2.64081  10
   4  10  -1 0.74865 1.39168  12
   4  10  -1 3.53097 1.32701   1
   4  10  -1 0.71423 1.13661   6
  -4  10   1 0.83640 1.81190   8
  -4  10   1 0.09338 0.89487   6
   2 -10  -1 0.78655 1.42170  10
  -2 -10   1 7.55516 2.55694  10
  -2 -10   1 1.78549 1.82114   2
  -2 -10   1 0.42589 1.13448  15
   2 -10  -1 -0.0660 1.82530   2
   2  10  -1 6.62099 1.65482   6
  -2  10   1 0.40247 1.08158   8
  -2  10   1 0.44944 1.20919   6
   2  10  -1 0.45312 0.97981   1
   0 -10   1 67.2946 4.96457  10
   0 -10  -1 84.0296 6.00588   2
   0 -10   1 65.4152 5.33905   2
   0 -10  -1 70.2993 4.80176  10
   0  10  -1 59.0837 3.72706   6
   0  10   1 65.6530 3.45300   6
   0  10   1 64.4716 4.71154   8
   0  10  -1 56.7727 4.53591   8
  -2 -10  -1 42.7794 4.05456  10
  -2 -10  -1 40.6099 5.20986  15
  -2 -10  -1 43.0192 3.31763  11
   2 -10   1 45.9793 4.25214  10
  -2 -10  -1 46.5054 4.95726   2
  -2  10  -1 43.1639 3.88682   8
  -2  10  -1 37.6310 3.55216   9
  -2  10  -1 44.0897 3.41431   6
   2  10   1 45.2617 3.01369   1
   2  10   1 33.7778 2.62255   6
   2  10   1 39.4356 3.85207   8
  -4 -10  -1 16.8248 3.69446   2
  -4 -10  -1 20.4665 3.35124  10
   4 -10   1 16.6182 2.94445  10
  -4  10  -1 17.4870 2.59766   6
   4  10   1 19.0434 2.77130  16
  -4  10  -1 15.2994 3.06571   8
   4  10   1 19.0464 2.59910   1
  -4  10  -1 12.9156 2.72771   9
  -6 -10  -1 4.60595 2.27714  10
   6 -10   1 6.66007 2.20194  10
  -6 -10  -1 4.64265 3.06155   2
  -6  10  -1 14.7198 2.88158   9
  -6  10  -1 2.73678 2.22004   8
   6  10   1 3.75147 1.46786   1
  -6  10  -1 4.00623 1.61212   6
  -7 -11   1 262.603 12.1520  10
   7  11  -1 287.801 10.0705   1
  -7  11   1 288.802 10.0746   6
  -7  11   1 286.578 12.9766   8
  -5 -11   1 229.666 10.8056  10
  -5 -11   1 222.237 11.6296   2
   5 -11  -1 234.086 10.4991   2
   5  11  -1 222.935 8.13873   1
  -5  11   1 227.286 10.7791   8
  -5  11   1 233.743 8.60484   6
  -3 -11   1 114.883 8.02506   2
   3 -11  -1 117.696 6.96400   2
  -3 -11   1 113.399 6.94067  10
  -3  11   1 104.358 6.72081   8
  -3  11   1 116.108 5.57735   6
   3  11  -1 130.036 5.32431   1
   3  11  -1 117.884 5.41650   6
   1 -11  -1 347.425 13.3982   2
  -1 -11   1 362.201 13.9530   2
   1 -11  -1 363.812 12.0858  10
  -1 -11   1 355.413 12.6828  10
  -1  11   1 344.206 10.6894   6
  -1  11   1 344.943 12.6668   8
   1  11  -1 383.731 11.1211   6
   1 -11   1 206.885 8.96471  10
  -1 -11  -1 200.638 10.2467   2
  -1 -11  -1 190.521 8.38807  10
   1 -11   1 179.755 9.33227   2
  -1  11  -1 190.453 7.40727   6
   1  11   1 187.172 6.69237   6
   1  11   1 192.231 8.60858   8
  -3 -11  -1 815.699 23.4046  10
  -3 -11  -1 805.351 25.2723   2
   3 -11   1 853.718 23.0013  10
  -3 -11  -1 786.101 21.2871  11
   3 -11   1 804.943 23.8294   2
   3  11   1 809.655 20.5546   1
  -3  11  -1 798.591 20.9609   6
  -3  11  -1 824.708 22.0577   9
  -3  11  -1 743.975 22.5843   8
   5 -11   1 308.195 11.9026  10
  -5 -11  -1 321.449 13.1529  10
  -5 -11  -1 306.727 14.0944   2
  -5  11  -1 312.026 10.7910   6
  -5  11  -1 319.565 11.8368   9
   5  11   1 311.906 10.5622   1
  -5  11  -1 307.925 12.6455   8
   4 -12  -1 222.435 10.4821   2
  -4 -12   1 215.097 11.8938   2
  -4 -12   1 224.755 10.7187  10
  -4  12   1 226.651 8.67093   6
  -4  12   1 228.843 10.5620   8
  -2 -12   1 202.550 10.7341   2
   2 -12  -1 202.872 10.0036   2
  -2 -12   1 211.163 9.98203  10
   2  12  -1 195.901 7.46943   6
  -2  12   1 193.889 9.42655   8
  -2  12   1 201.461 7.76776   6
   0 -12  -1 55.0099 4.92539  10
   0 -12   1 52.9194 5.65026   2
   0 -12  -1 54.7380 6.08827   2
   0 -12   1 54.9093 5.11656  10
   0  12  -1 60.1181 4.18295   6
   0  12   1 53.0408 4.80619   8
   0  12   1 54.4284 3.78326   6
   2 -12   1 381.575 13.4858  10
   2 -12   1 361.443 14.5214   2
  -2 -12  -1 357.190 12.2952  11
  -2 -12  -1 371.681 15.3307   2
  -2 -12  -1 372.914 13.5238  10
  -2  12  -1 390.037 12.1544   6
   4 -12   1 60.4057 6.02014   2
  -4 -12  -1 63.2447 7.26009   2
  -4 -12  -1 52.6078 5.84834  10
  -4  12  -1 56.8683 4.16182   6
   4  12   1 64.3020 4.41610   1
   3 -13  -1 822.434 25.0547   2
  -3 -13   1 798.773 21.9288  11
  -3 -13   1 822.170 26.1987   2
  -3  13   1 837.593 21.7013   6
  -1 -13   1 260.719 12.5292   2
   1 -13  -1 241.929 9.84542  11
   1 -13  -1 241.427 11.9303   2
  -1 -13   1 240.308 10.9587  10
  -1  13   1 247.230 8.89224   6
   1  13  -1 249.599 9.11048   6
   1 -13   1 518.101 16.8739  10
  -1 -13  -1 528.024 19.1229   2
  -1 -13  -1 520.070 16.1272  11
  -1 -13  -1 521.196 16.9253  10
   1 -13   1 552.278 19.1083   2
  -1  13  -1 526.649 15.4131   6
  -3 -13  -1 88.5275 8.44292   2
  -3 -13  -1 76.9985 5.97976  10
   3 -13   1 82.6136 7.08843   2
  -3  13  -1 75.9118 4.85584   6
 -12   0   2 18.3206 4.00723   3
  12   0  -2 25.9750 3.54430   1
  12   0  -2 22.6628 3.75429  13
  10   0  -2 831.854 23.7199  16
 -10   0   2 913.365 27.1964  14
  10   0  -2 837.204 21.9405  12
  10   0  -2 880.101 23.0614   1
 -10   0   2 890.081 25.3663   3
   8   0  -2 403.268 12.4818  16
   8   0  -2 420.508 11.5519  12
  -8   0   2 419.152 14.7664  14
   8   0  -2 391.971 11.8718   1
  -8   0   2 410.380 13.2295   3
   6   0  -2 4633.70 93.4443  16
  -6   0   2 4431.99 97.9704   3
  -6   0   2 4251.59 92.8027  10
  -6   0   2 4440.11 95.4997  14
   6   0  -2 4310.23 91.5233   5
   6   0  -2 4443.60 95.2108  12
   6   0  -2 4528.03 96.0163   1
  -6   0   2 4038.06 94.8678   9
  -4   0   2 2450.49 61.5681  15
  -4   0   2 2567.01 57.1736  10
   4   0  -2 2655.67 57.5107  16
  -4   0   2 2446.91 56.4827   9
   4   0  -2 2628.23 61.7310  15
  -4   0   2 2625.89 56.4514   8
  -4   0   2 2511.34 54.5306   7
  -4   0   2 2512.49 56.0798  14
   4   0  -2 2658.15 56.3262  12
   4   0  -2 2663.95 56.4199   5
   2   0  -2 9999.99 206.949  12
  -2   0   2 9909.19 207.151   7
  -2   0   2 9447.87 208.007   4
   0   0   2 8.48203 1.15283  15
   0   0  -2 9.76394 0.71529  11
   0   0   2 9.80733 0.52480  16
   0   0   2 9.83520 0.75852   4
   0   0  -2 11.5150 1.12799  15
   0   0  -2 8.03763 0.82783   2
   2   0   2 4051.21 98.4316  15
  -2   0  -2 4350.70 97.1168  14
   2   0   2 4352.91 92.3048  13
  -2   0  -2 3716.22 91.2790   3
   2   0   2 4437.32 88.5176   1
  -2   0  -2 4115.36 90.4171  11
   2   0   2 4393.58 93.0708  16
  -2   0  -2 3895.30 94.5943   2
  -4   0  -2 79.9759 2.57367  11
   4   0   2 77.1023 2.38714  12
  -4   0  -2 80.8172 3.93657  14
  -4   0  -2 79.0422 3.45864   9
  -4   0  -2 78.3295 3.76350   3
   4   0   2 81.9599 3.38369  16
   4   0   2 81.2446 3.56229  13
   4   0   2 82.1679 3.12349   1
  -4   0  -2 77.1816 3.75498   2
  -6   0  -2 2339.02 53.6953   9
  -6   0  -2 2428.66 55.6035   3
   6   0   2 2449.19 53.8262  16
  -6   0  -2 2459.24 55.6109  14
   6   0   2 2436.45 53.2062   1
   6   0   2 2557.15 54.4022  13
   8   0   2 11.5513 2.49909  13
  -8   0  -2 7.05179 2.08655   3
  -8   0  -2 8.65157 1.80297   9
   8   0   2 7.50879 2.02536  16
   8   0   2 11.6979 2.16666   1
 -10   0  -2 1587.59 41.2049   3
  10   0   2 1502.39 38.4926  13
  11  -1  -2 117.816 6.37575   1
  11  -1  -2 119.506 6.83151  13
 -11  -1   2 112.098 7.76698   3
  11   1  -2 117.381 6.84698  13
 -11   1   2 120.570 9.08848  14
 -11   1   2 125.398 8.18627   3
  11   1  -2 115.572 6.67195   1
   9  -1  -2 4.12571 1.85300  16
   9  -1  -2 3.62345 1.44268   1
   9  -1  -2 4.18965 1.47779  12
  -9  -1   2 7.75169 2.36366   3
  -9  -1   2 4.41553 2.16730  14
   9   1  -2 4.65917 1.95218  16
   9   1  -2 5.35044 1.87430   1
  -9   1   2 2.96690 2.01509   3
   9   1  -2 7.78786 1.79012  12
  -7  -1   2 241.024 9.53130  14
  -7  -1   2 248.041 8.29973  10
   7  -1  -2 240.002 8.16945  16
  -7  -1   2 246.395 8.86124   3
   7  -1  -2 243.700 7.83286   1
   7  -1  -2 256.812 7.64971  12
   7   1  -2 235.481 8.19039  16
   7   1  -2 255.922 7.96085   1
  -7   1   2 243.065 8.79749   3
  -7   1   2 263.066 10.4246  14
   7   1  -2 244.107 7.56917  12
  -7   1   2 232.379 6.93690   9
  -5  -1   2 125.779 5.32642  14
  -5  -1   2 124.655 4.46220   7
  -5  -1   2 124.754 4.53816  10
  -5  -1   2 118.162 3.50458   2
   5  -1  -2 125.628 4.17061  12
   5  -1  -2 126.439 4.58689  16
   5  -1  -2 120.703 3.79754   5
  -5  -1   2 117.392 3.27491   9
   5  -1  -2 126.555 4.42844  15
  -5   1   2 118.155 4.49020   8
   5   1  -2 125.459 4.50464  16
  -5   1   2 114.856 3.74869   9
  -5   1   2 131.506 5.71234  14
   5   1  -2 121.464 3.64879   5
  -5   1   2 119.162 4.71996   3
   5   1  -2 129.524 4.25425  12
   5   1  -2 127.833 4.29868   1
   3  -1  -2 256.250 5.83686  11
   3  -1  -2 243.736 6.15790   5
  -3  -1   2 242.315 6.34678  10
  -3  -1   2 245.921 6.31360   7
  -3  -1   2 243.198 6.47295  15
   3  -1  -2 254.987 7.34657  15
  -3   1   2 240.798 6.03623   7
  -3   1   2 237.991 5.92517   9
  -3   1   2 226.708 7.12571  14
  -3   1   2 238.901 7.13542  15
   3   1  -2 242.261 5.95410   5
   3   1  -2 242.547 6.13389  12
   3   1  -2 249.219 6.28027  16
  -3   1   2 231.199 6.28198   8
  -3   1   2 242.220 6.39913   3
  -1  -1   2 2119.29 47.0297   7
   1  -1  -2 2166.53 45.2117  11
   1  -1  -2 2212.37 52.3615  15
  -1  -1   2 2166.90 46.8941   4
  -1  -1   2 2045.29 51.2879  15
   1  -1  -2 2104.54 46.1764   5
   1   1  -2 2020.52 46.2934  12
   1   1  -2 2092.78 46.7746   5
  -1   1   2 2148.17 46.9221   4
   1   1  -2 2021.72 45.7901  11
  -1   1   2 2120.51 45.7190  13
  -1   1   2 2141.22 54.2362  15
   1  -1   2 187.602 5.04566   4
  -1  -1  -2 194.724 5.58666   2
  -1  -1  -2 186.529 5.24259  10
   1  -1   2 187.524 4.78249  13
  -1  -1  -2 194.425 5.98978  15
  -1  -1  -2 183.237 4.79316  11
   1  -1   2 188.688 5.89015  15
  -1  -1  -2 192.271 4.92498   3
   1  -1   2 190.255 4.47571  16
   1   1   2 189.444 4.92703  13
  -1   1  -2 189.733 4.49651   5
  -1   1  -2 192.055 4.79123  11
   1   1   2 193.337 5.99543  15
  -1   1  -2 202.866 5.14297   3
   1   1   2 184.607 4.67767   1
   1   1   2 190.312 4.95187   4
  -1   1  -2 199.661 5.71251  14
   1   1   2 189.412 4.85202  16
  -1   1  -2 189.817 4.51133   6
  -3  -1  -2 141.565 5.05092   2
   3  -1   2 131.038 3.86707   1
   3  -1   2 134.957 4.11545  16
  -3  -1  -2 133.734 4.49777  14
  -3  -1  -2 132.166 3.69974  11
  -3  -1  -2 137.406 4.66527   3
   3  -1   2 137.324 4.38528  13
  -3  -1  -2 136.597 4.56956  15
  -3   1  -2 128.186 3.63247   6
  -3   1  -2 136.147 3.79039  11
   3   1   2 136.713 4.38404  16
   3   1   2 139.919 4.15898   1
  -3   1  -2 130.087 4.47488   9
  -3   1  -2 124.971 4.95598  14
  -3   1  -2 132.419 4.80868   3
   3   1   2 138.765 4.46013  13
   3   1   2 132.767 3.50606  12
   5  -1   2 421.930 10.6241   1
  -5  -1  -2 401.279 11.8396   2
  -5  -1  -2 394.830 10.9966   9
  -5  -1  -2 400.560 11.8990   3
   5  -1   2 421.510 11.0319  16
  -5  -1  -2 406.533 11.7210  14
   5  -1   2 421.339 11.4021  13
   5   1   2 421.351 11.3483  13
   5   1   2 410.106 10.7360   1
  -5   1  -2 405.222 12.2580   3
  -5   1  -2 401.677 12.5651  14
  -5   1  -2 390.884 11.1432   9
   5   1   2 415.161 11.2150  16
   7  -1   2 2.69419 1.31286  13
  -7  -1  -2 2.98945 1.69951   3
   7  -1   2 4.90687 1.25845   1
   7  -1   2 4.58551 1.32548  16
  -7  -1  -2 2.48538 0.96622   9
   7   1   2 7.12042 1.96570  13
  -7   1  -2 1.62250 1.19276   9
  -7   1  -2 6.20447 1.80455   3
  -7   1  -2 3.71942 1.77308  14
   7   1   2 3.12226 1.24742  16
   7   1   2 2.49576 1.33698   1
   9  -1   2 185.570 7.48516   1
   9  -1   2 182.134 8.28106  13
   9  -1   2 179.325 7.86834  16
  -9  -1  -2 204.223 9.96998   3
   9   1   2 175.502 7.40688   1
  -9   1  -2 187.057 9.72233   3
  -9   1  -2 173.654 7.47859   9
   9   1   2 184.929 8.04010  16
   9   1   2 176.750 8.08632  13
  12  -2  -2 871.407 23.9962   1
  12  -2  -2 823.855 24.3584  13
 -12  -2   2 886.034 26.9695   3
 -12   2   2 862.214 29.2054  14
  12   2  -2 819.333 23.9670  13
  12   2  -2 860.950 24.0943   1
 -12   2   2 894.964 27.0340   3
 -10  -2   2 105.237 6.98358   3
  10  -2  -2 106.928 5.68011   1
  10  -2  -2 104.345 6.03486  16
 -10   2   2 111.361 7.05938   3
  10   2  -2 101.724 5.18372  12
 -10   2   2 115.076 8.49695  14
  10   2  -2 104.929 6.39781  16
  10   2  -2 104.360 5.76191  13
  10   2  -2 103.639 5.98908   1
  -8  -2   2 1354.04 33.5555  14
  -8  -2   2 1332.77 31.8489  10
   8  -2  -2 1303.76 31.4690  16
  -8  -2   2 1347.64 32.6582   3
   8  -2  -2 1301.74 30.1967  12
   8  -2  -2 1271.48 30.6613   1
   8   2  -2 1278.67 30.2105  12
  -8   2   2 1322.43 32.8004   3
   8   2  -2 1290.20 31.5619  16
  -8   2   2 1214.67 29.5914   9
   8   2  -2 1309.78 30.8516   1
  -8   2   2 1348.12 35.4980  14
   6  -2  -2 25.1454 2.09490  16
   6  -2  -2 19.2559 1.62524   5
   6  -2  -2 20.5827 1.74923  12
  -6  -2   2 18.8287 1.48226   2
  -6  -2   2 18.3585 1.86715   7
   6  -2  -2 21.7687 2.10564  15
  -6  -2   2 19.9127 2.27260  14
  -6  -2   2 17.5384 2.18550  10
  -6   2   2 18.7638 2.28284   8
   6   2  -2 20.3921 2.30090  16
   6   2  -2 19.4511 1.85906  12
   6   2  -2 23.3828 2.06616   1
  -6   2   2 19.6255 1.60406   9
   6   2  -2 20.9087 1.30653   5
  -6   2   2 20.5623 3.00902  14
  -6   2   2 25.8313 2.49595   3
  -4  -2   2 2640.17 56.9811  10
   4  -2  -2 2832.58 67.6753  15
  -4  -2   2 2592.91 63.3826  15
  -4  -2   2 2608.15 60.6476   2
  -4  -2   2 2681.28 56.5715   7
  -4   2   2 2590.45 58.4072  14
   4   2  -2 2709.83 56.6118  16
   4   2  -2 2715.86 56.3407  12
   4   2  -2 2717.60 56.2587   1
  -4   2   2 2634.57 57.0653   3
  -4   2   2 2642.32 56.9367   8
  -4   2   2 2637.57 56.1213   6
  -4   2   2 2562.59 56.1802   9
   4   2  -2 2628.72 57.1109   5
   2  -2  -2 347.544 7.98056  11
  -2  -2   2 337.161 8.04972   7
  -2  -2   2 329.973 7.84641   4
   2  -2  -2 359.439 9.80085  15
  -2  -2   2 337.482 8.28488  10
   2  -2  -2 334.430 7.97045   2
   2   2  -2 332.641 7.58594   1
  -2   2   2 330.663 7.73826   6
  -2   2   2 314.097 8.67515  14
   2   2  -2 333.858 7.75664  16
  -2   2   2 333.595 9.64336  15
   2   2  -2 335.442 7.88818  12
   2   2  -2 329.093 7.87066   5
  -2   2   2 329.453 7.99916   3
  -2   2   2 326.649 7.88412   4
  -2   2   2 327.119 8.30454   8
   0  -2   2 7850.91 171.737   7
   0  -2  -2 7678.21 172.296  11
   0  -2  -2 7330.10 170.927  10
   0  -2  -2 7813.88 184.805  15
   0  -2   2 8047.39 171.777   4
   0  -2  -2 7642.84 178.068   2
   0   2   2 8253.76 170.330   4
   0   2  -2 8235.29 171.154   5
   0   2   2 8267.38 171.500  16
   0   2   2 7835.23 182.317  15
   0   2  -2 7895.36 169.712  12
   0   2  -2 8600.88 173.104   9
   0   2   2 8518.93 171.538  13
   0   2   2 8420.06 170.885   1
   2  -2   2 3109.69 64.0276  13
  -2  -2  -2 2810.29 66.8767   2
  -2  -2  -2 2939.65 63.7291  11
   2  -2   2 3145.46 66.3344  16
  -2  -2  -2 2860.23 73.8380  15
  -2  -2  -2 2711.30 65.7534  10
   2  -2   2 3113.04 63.9484   1
   2   2   2 3017.56 64.3578  13
   2   2   2 2963.97 64.6508  12
  -2   2  -2 2831.96 65.3504   3
   2   2   2 2801.71 68.2827  15
  -2   2  -2 3011.69 67.5530  14
  -2   2  -2 3031.61 64.0965   6
   2   2   2 3036.16 66.5340  16
  -2   2  -2 3022.34 66.5744   8
   2   2   2 2990.94 65.2946   1
  -2   2  -2 3128.16 67.3352   9
  -4  -2  -2 3293.86 70.2264  14
   4  -2   2 3397.80 68.6410  13
   4  -2   2 3349.75 67.7135   1
  -4  -2  -2 3035.23 69.7189  10
  -4  -2  -2 3132.46 75.3438  15
  -4  -2  -2 3129.42 69.1071   3
  -4  -2  -2 3136.44 67.9551  11
  -4  -2  -2 3136.70 69.6519   2
   4  -2   2 3292.73 70.2312  16
  -4   2  -2 3196.41 68.8122   9
  -4   2  -2 3176.68 70.4138  14
   4   2   2 3235.24 68.5004  13
   4   2   2 3323.45 68.6751  16
   4   2   2 3234.95 68.3300  12
   4   2   2 3260.89 68.1345   1
  -4   2  -2 3080.29 67.4545   6
  -4   2  -2 3141.17 69.6884   3
  -6  -2  -2 785.273 20.6317   2
  -6  -2  -2 774.570 20.5506   3
   6  -2   2 804.038 19.7733  13
   6  -2   2 788.347 18.6072   1
  -6  -2  -2 723.774 18.8823   9
   6  -2   2 775.885 19.0929  16
  -6   2  -2 773.698 21.8355  14
   6   2   2 760.606 19.4834  16
   6   2   2 768.602 18.9513   1
  -6   2  -2 769.251 19.5741   9
  -6   2  -2 764.125 21.0870   3
   6   2   2 766.841 19.4658  13
  -8  -2  -2 488.486 15.9529   3
   8  -2   2 466.862 14.2861  13
  -8  -2  -2 456.133 14.5796   2
   8  -2   2 464.204 13.1296   1
   8  -2   2 446.802 13.5922  16
   8   2   2 455.187 13.3457   1
  -8   2  -2 444.832 13.7195   9
  -8   2  -2 460.142 16.0149   3
   8   2   2 460.294 14.0961  13
   8   2   2 442.929 13.8109  16
  -8   2  -2 461.263 16.7551  14
 -10  -2  -2 123.124 7.81458   3
  10  -2   2 118.187 6.71070  13
  10   2   2 111.587 6.20348   1
 -10   2  -2 117.808 8.15479   3
  10   2   2 113.384 6.87278  13
  11  -3  -2 76.2828 5.40770   1
 -11  -3   2 84.0823 6.71780   3
  11   3  -2 72.0895 5.33745  13
  11   3  -2 72.8085 5.50186   1
 -11   3   2 80.5302 8.02433  14
 -11   3   2 79.9687 6.37678   3
  -9  -3   2 10.4292 2.41841   3
   9  -3  -2 14.5385 2.54975   1
   9  -3  -2 9.31411 1.87496  12
   9  -3  -2 17.1399 2.75606  16
  -9  -3   2 16.2217 2.69399  10
  -9   3   2 21.5870 3.61034   3
  -9   3   2 19.8565 4.08970  14
   9   3  -2 14.4371 2.75271  16
  -9   3   2 13.8813 1.84951   9
   9   3  -2 13.2636 2.49354   1
   9   3  -2 11.0865 2.09973  12
   9   3  -2 11.3487 2.06406  13
  -7  -3   2 140.665 6.46894  14
   7  -3  -2 124.437 5.01772  12
   7  -3  -2 129.985 5.58465  16
   7  -3  -2 125.203 4.51389   5
  -7  -3   2 133.433 6.12199  10
   7   3  -2 122.219 5.00956  12
  -7   3   2 125.571 7.44440  14
   7   3  -2 131.928 5.65481  16
  -7   3   2 120.419 5.77545   8
  -7   3   2 122.420 4.86271   9
   7   3  -2 120.443 5.08858   1
  -7   3   2 126.472 6.09542   3
  -5  -3   2 96.0801 4.39415  10
  -5  -3   2 83.3167 3.30601  15
  -5  -3   2 94.9807 4.01057   7
   5  -3  -2 95.9716 4.75806  15
  -5   3   2 84.7222 3.37119   6
  -5   3   2 89.2024 4.20847   3
  -5   3   2 104.538 4.36515   8
  -5   3   2 92.7520 3.66196   9
   5   3  -2 88.6986 3.09361   5
   5   3  -2 93.6872 3.69037   1
   5   3  -2 96.5325 3.71869  12
  -5   3   2 95.9284 5.29547  14
   5   3  -2 98.5145 3.98010  16
  -3  -3   2 52.5676 2.33244   7
  -3  -3   2 44.0706 2.23842   2
   3  -3  -2 46.9544 3.16385  15
  -3  -3   2 47.2319 2.44969  10
  -3   3   2 43.1658 2.41254   8
   3   3  -2 44.8138 2.07122  12
   3   3  -2 43.0169 1.85216   1
  -3   3   2 41.7144 2.22116   3
   3   3  -2 46.0946 2.03080  16
  -3   3   2 44.7111 2.75188  14
  -3   3   2 42.9706 2.07435   9
  -3   3   2 46.2062 1.95580   6
  -1  -3   2 1286.60 27.9714   7
   1  -3  -2 1337.56 27.6603  10
   1  -3  -2 1341.65 28.6902   2
  -1  -3   2 1266.92 27.5336   4
   1  -3  -2 1314.52 30.2834  15
  -1  -3   2 1254.76 28.5170  10
  -1   3   2 1258.00 28.0826  14
  -1   3   2 1275.31 27.3698   4
   1   3  -2 1266.71 27.7251  16
  -1   3   2 1316.91 27.6816   1
   1   3  -2 1273.14 27.8088   5
   1   3  -2 1316.51 27.5839   9
  -1   3   2 1312.41 27.4480   6
  -1   3   2 1279.79 27.6562  13
   1   3  -2 1311.79 27.6414  12
  -1  -3  -2 241.434 7.52214   2
  -1  -3  -2 230.210 7.98559  15
   1  -3   2 243.587 5.62143  13
  -1  -3  -2 235.350 6.65773  10
  -1  -3  -2 230.015 6.30837  11
   1  -3   2 232.396 6.08904   4
   1   3   2 227.763 5.62115   4
  -1   3  -2 225.387 6.57710   3
  -1   3  -2 226.147 6.08035   8
   1   3   2 231.159 6.18165  16
  -1   3  -2 227.708 5.85817   6
   1   3   2 227.530 5.93060   1
   1   3   2 229.903 5.97398  13
  -1   3  -2 238.527 6.38095   9
   1   3   2 231.711 5.40061   6
   3  -3   2 3.38925 0.84039  13
  -3  -3  -2 5.77178 1.31104  15
  -3  -3  -2 2.97962 1.33601   2
  -3  -3  -2 3.60551 0.80938  11
  -3  -3  -2 5.14736 1.21684  10
  -3   3  -2 5.31136 1.12037   3
   3   3   2 3.38832 0.95320  16
   3   3   2 3.48882 0.78386  13
  -3   3  -2 2.88700 0.83806   8
  -3   3  -2 4.05845 0.78745   6
   3   3   2 2.73251 0.71093   1
  -3   3  -2 1.70930 0.81087   9
   3   3   2 2.97208 0.58095  12
  -3   3  -2 5.28304 1.29332  14
   5  -3   2 6.77365 1.25536  16
  -5  -3  -2 12.1614 1.97096   3
   5  -3   2 8.30297 1.52401  13
  -5  -3  -2 8.39608 1.93879   2
   5  -3   2 7.58168 1.17874   1
   5   3   2 6.79206 1.37079  16
   5   3   2 7.82210 1.08311  12
  -5   3  -2 6.87189 1.17095   6
   5   3   2 6.92464 1.36695   1
  -5   3  -2 6.02626 1.68906   3
  -5   3  -2 6.32210 1.77006  14
   5   3   2 5.84574 1.42307  13
  -5   3  -2 7.90863 1.60694   9
  -7  -3  -2 138.456 6.85117   3
   7  -3   2 144.250 6.31960  13
   7  -3   2 130.145 5.68444  16
  -7  -3  -2 137.249 6.91586   2
   7  -3   2 139.353 5.45353   1
  -7   3  -2 142.913 7.49268   3
   7   3   2 133.014 6.08292  16
  -7   3  -2 133.004 6.09927   9
   7   3   2 133.415 6.04791  13
   7   3   2 131.844 5.66579   1
  -7   3  -2 133.656 7.87881  14
   9  -3   2 0.19435 1.26653  13
  -9  -3  -2 6.00968 2.08091   3
  -9   3  -2 1.98165 2.41542  14
   9   3   2 3.33220 1.55925  13
  -9   3  -2 1.67075 2.07727   3
   9   3   2 1.02207 1.21836  16
  -9   3  -2 0.31056 1.13144   9
   9   3   2 0.13247 1.57891   1
  10  -4  -2 13.5921 2.83043  16
 -10  -4   2 16.4296 3.42069   3
 -10  -4   2 28.5639 3.88476  10
  10  -4  -2 14.0605 2.67513   1
 -10   4   2 21.8415 4.74421  14
  10   4  -2 31.7709 3.81448   1
  10   4  -2 30.0322 3.97371  16
  10   4  -2 16.5812 2.50603  13
 -10   4   2 17.0571 3.49951   3
  10   4  -2 16.2262 2.28841  12
   8  -4  -2 2400.59 50.9186  12
   8  -4  -2 2295.56 51.9788  16
  -8  -4   2 2284.16 52.9694  10
  -8   4   2 2302.71 50.9857   9
   8   4  -2 2254.53 51.1641   1
  -8   4   2 2268.19 53.1045   8
   8   4  -2 2186.48 50.8031  13
  -8   4   2 2339.77 57.4407  14
   8   4  -2 2316.66 50.9287  12
   8   4  -2 2212.86 51.8701  16
  -8   4   2 2300.23 53.4903   3
  -6  -4   2 315.532 9.36895   2
   6  -4  -2 310.477 10.7197  15
  -6  -4   2 336.863 10.3151  14
  -6  -4   2 323.842 9.51281   7
  -6  -4   2 336.622 10.5894  10
   6   4  -2 312.206 9.50200  16
  -6   4   2 319.833 10.3054   3
  -6   4   2 311.740 10.2487   8
  -6   4   2 306.838 11.9806  14
  -6   4   2 320.548 8.88680   6
   6   4  -2 290.768 8.03883   5
   6   4  -2 304.139 8.99264   1
   6   4  -2 316.035 9.05787  12
   6   4  -2 301.446 8.68011  13
  -6   4   2 314.202 9.18949   9
  -4  -4   2 6162.90 137.253   7
  -4  -4   2 6169.71 144.128  10
  -4  -4   2 6077.05 141.532   2
   4  -4  -2 6889.36 156.504  15
   4   4  -2 6015.94 137.711   5
  -4   4   2 6244.56 147.409  14
   4   4  -2 6318.11 135.972  16
  -4   4   2 6388.90 133.324   6
  -4   4   2 6500.95 143.874   3
   4   4  -2 6122.43 136.578  13
  -4   4   2 6427.80 140.386   8
   4   4  -2 6527.18 140.007  12
   4   4  -2 6430.57 138.032   1
  -4   4   2 6404.65 139.745   9
   2  -4  -2 456.356 10.5167  10
   2  -4  -2 454.406 13.2130  15
  -2  -4   2 449.805 10.7832   7
   2  -4  -2 455.386 11.3951   2
  -2  -4   2 481.141 10.1652   4
  -2  -4   2 427.248 11.4106  10
   2   4  -2 446.437 10.3789  16
  -2   4   2 438.217 11.4293   8
   2   4  -2 424.848 10.0426   9
   2   4  -2 439.514 10.1430   1
   2   4  -2 431.300 10.6152   5
   2   4  -2 428.232 10.5623  12
  -2   4   2 436.512 10.9457   3
  -2   4   2 447.064 10.4155   6
  -2   4   2 432.126 11.6299  14
   0  -4  -2 4674.80 105.147  10
   0  -4  -2 4648.84 114.934  15
   0  -4  -2 4624.17 108.950   2
   0  -4   2 4780.63 103.223   4
   0  -4   2 4754.72 104.830   7
   0  -4  -2 4639.96 106.392  11
   0   4   2 4791.83 103.781  13
   0   4   2 4836.06 104.081   1
   0   4  -2 4583.39 104.079   8
   0   4  -2 4674.87 102.800  12
   0   4  -2 4834.74 104.907   9
   0   4  -2 4732.40 103.723   6
   0   4   2 4794.97 100.310   6
   0   4   2 4790.40 104.866  16
  -2  -4  -2 15.8117 1.70091  11
  -2  -4  -2 12.1560 1.88599  10
   2  -4   2 11.3486 0.98905  13
  -2  -4  -2 13.3701 2.13257   2
  -2  -4  -2 11.9619 2.21533  15
   2   4   2 14.3573 1.34603  16
  -2   4  -2 12.2966 1.98537  14
   2   4   2 14.0213 1.24667  13
   2   4   2 11.6988 0.91408   4
   2   4   2 13.0446 1.03982  12
  -2   4  -2 12.3265 1.15744   6
  -2   4  -2 12.4929 1.36035   8
   2   4   2 13.6060 1.19006   1
   2   4   2 14.2754 0.76686   6
  -2   4  -2 11.7116 1.57660   3
   4  -4   2 1664.22 36.3547  16
  -4  -4  -2 1583.56 38.0062  15
  -4  -4  -2 1582.85 36.1435  11
  -4  -4  -2 1702.91 39.0147  10
   4  -4   2 1681.07 36.0321   1
  -4  -4  -2 1630.43 39.0484   2
   4  -4   2 1764.36 37.0614  13
   4   4   2 1692.93 37.5340  16
   4   4   2 1694.28 36.9770   1
  -4   4  -2 1700.20 38.9300   3
  -4   4  -2 1662.50 37.6711   9
  -4   4  -2 1688.89 38.1158   8
  -4   4  -2 1669.01 40.1207  14
   4   4   2 1687.03 37.0577  13
  -4   4  -2 1698.72 36.5591   6
   4   4   2 1652.42 36.2652  12
   6  -4   2 53.3601 3.58509  16
  -6  -4  -2 55.7548 3.91002   3
   6  -4   2 66.3733 3.82388  13
  -6  -4  -2 49.4084 4.48689  10
  -6  -4  -2 50.8496 4.22774   2
  -6   4  -2 49.8859 4.91740  14
  -6   4  -2 53.9991 2.87186   6
  -6   4  -2 48.3632 4.27384   3
   6   4   2 51.8737 3.47946  16
   6   4   2 48.5763 3.25038  13
  -6   4  -2 53.7483 3.60388   9
   6   4   2 47.9203 3.15643   1
   6   4   2 44.4486 2.81626  12
   8  -4   2 1034.45 26.0250  13
  -8  -4  -2 1020.72 27.2557   3
   8   4   2 958.398 25.5839  16
  -8   4  -2 983.362 28.2421   3
   8   4   2 955.886 24.8075   1
   8   4   2 975.483 25.4020  13
  -8   4  -2 1026.67 30.4829  14
  -8   4  -2 978.174 25.5893   9
  10  -4   2 151.981 7.60076  13
  10  -4   2 148.151 8.36647   4
 -10   4  -2 164.638 10.6534  14
 -10   4  -2 145.020 7.11736   9
 -10   4  -2 154.838 9.51020   3
  10   4   2 144.054 7.53837  13
  10   4   2 149.377 7.22382   1
  11  -5  -2 69.5414 5.08371   1
 -11  -5   2 73.0454 6.04142   3
 -11   5   2 66.7518 5.98117   3
 -11   5   2 73.9980 8.28812  14
  11   5  -2 69.1837 5.40484   1
   9  -5  -2 516.593 14.7383   1
  -9  -5   2 497.306 16.3046  10
   9  -5  -2 486.574 15.1500  16
  -9   5   2 491.341 16.6549   3
  -9   5   2 488.172 16.6742   8
  -9   5   2 504.485 19.9268  14
   9   5  -2 489.636 14.1442  12
   9   5  -2 478.216 14.1605  13
  -9   5   2 486.387 14.3913   9
   9   5  -2 497.103 14.6666   1
   9   5  -2 480.404 15.2893  16
  -7  -5   2 261.310 8.78545   7
  -7  -5   2 265.624 9.93876  10
   7  -5  -2 255.077 7.91789   5
  -7   5   2 261.469 8.20036   6
  -7   5   2 256.919 11.8274  14
   7   5  -2 252.231 8.92227  16
   7   5  -2 253.241 8.32504  12
   7   5  -2 250.131 7.95155  13
  -7   5   2 245.661 9.68802   8
  -7   5   2 246.754 9.58724   3
   7   5  -2 255.723 8.45173   1
  -7   5   2 262.544 8.60931   9
  -5  -5   2 467.658 13.4954  10
  -5  -5   2 437.306 12.7340   2
  -5  -5   2 461.304 12.1632   7
   5  -5  -2 463.675 14.5715  15
   5   5  -2 432.680 11.0599  13
   5   5  -2 457.064 11.7406   1
  -5   5   2 439.954 13.0525   8
  -5   5   2 451.808 14.8259  14
   5   5  -2 454.910 11.9345  12
  -5   5   2 455.911 13.0916   3
  -5   5   2 464.432 11.7560   6
  -5   5   2 466.768 12.3771   9
   5   5  -2 449.448 12.1436  16
  -3  -5   2 1126.12 27.1000  10
  -3  -5   2 1162.53 26.1801   7
  -3  -5   2 1089.73 27.0951   2
   3  -5  -2 1210.32 29.4949  15
  -3   5   2 1188.10 27.3007   8
   3   5  -2 1132.75 24.7290  13
  -3   5   2 1195.57 26.6358   9
   3   5  -2 1186.19 26.1373  12
   3   5  -2 1160.45 25.9636   5
   3   5  -2 1186.39 26.0245  16
  -3   5   2 1179.16 26.8938   3
   3   5  -2 1189.40 25.6728   1
  -3   5   2 1197.78 25.9075   6
  -3   5   2 1146.91 28.0819  14
   1  -5  -2 57.4102 4.00796  15
  -1  -5   2 49.7578 2.41234   7
   1  -5  -2 54.7579 2.53284  10
  -1  -5   2 49.7910 2.84782  10
  -1  -5   2 49.3490 1.83848   4
   1  -5  -2 53.8306 3.14975   2
  -1   5   2 49.6420 2.07102   6
  -1   5   2 57.7907 2.60779  14
  -1   5   2 49.9325 2.84360   8
  -1   5   2 48.8632 2.10508  13
   1   5  -2 48.3951 1.90882  16
   1   5  -2 51.9364 2.20954  12
   1   5  -2 51.8612 2.25682   9
   1   5  -2 46.8336 1.75761   1
   1   5  -2 46.5431 2.09498   8
  -1  -5  -2 725.388 18.8055   2
   1  -5   2 701.916 15.6080  13
   1  -5   2 707.516 16.4836   4
  -1  -5  -2 751.148 17.2476  11
  -1  -5  -2 749.584 17.8077  10
   1  -5   2 729.738 17.0937   7
  -1  -5  -2 737.073 20.0888  15
  -1   5  -2 689.972 16.9010   8
  -1   5  -2 719.160 16.7206   6
   1   5   2 727.190 17.0822  16
   1   5   2 731.834 16.4649  13
   1   5   2 738.654 16.7155   1
  -1   5  -2 729.263 17.2195   9
   1   5   2 712.656 15.9892   6
  -3  -5  -2 194.722 7.85858   2
  -3  -5  -2 186.405 7.04249  10
  -3  -5  -2 179.441 5.94643  11
   3  -5   2 190.019 5.48791  13
  -3  -5  -2 179.729 8.03127  15
   3   5   2 185.104 6.17953  16
  -3   5  -2 191.746 6.54353   8
   3   5   2 172.743 5.07442   4
  -3   5  -2 196.197 5.75304   6
   3   5   2 181.040 5.54751  12
  -3   5  -2 174.742 7.67467  14
   3   5   2 175.774 5.77950   1
   3   5   2 180.989 5.67211  13
  -3   5  -2 182.595 7.00784   3
  -3   5  -2 176.121 6.25164   9
  -5  -5  -2 19.4074 2.80679  10
   5  -5   2 18.1570 2.10603  13
  -5  -5  -2 21.9887 3.21714   2
  -5   5  -2 18.7352 1.90162   6
  -5   5  -2 19.7204 2.74304   8
   5   5   2 17.5447 1.96463  13
   5   5   2 22.0092 2.47326  16
  -5   5  -2 21.0736 2.61315   9
  -5   5  -2 23.0483 3.61166  14
   5   5   2 20.2221 1.86827  12
  -5   5  -2 19.9767 2.95298   3
   5   5   2 21.2175 2.28542   1
  -7  -5  -2 175.033 8.96097  10
   7  -5   2 167.018 7.02410  13
  -7  -5  -2 185.031 8.29257   3
  -7  -5  -2 179.120 8.45938   2
   7   5   2 167.425 7.02809  13
  -7   5  -2 173.213 7.59161   9
   7   5   2 159.462 7.31406  16
  -7   5  -2 183.754 8.95730   3
   7   5   2 169.602 7.00946   1
  -7   5  -2 179.824 6.46402   6
  -7   5  -2 174.823 10.2183  14
   9  -5   2 -0.0993 1.54763  13
  -9   5  -2 0.11622 1.35212   3
   9   5   2 1.02937 1.77215   1
   9   5   2 2.69493 1.76268  13
  -9   5  -2 2.76722 2.82655  14
  -9   5  -2 1.06788 1.65192   9
 -10  -6   2 946.313 27.1616   3
  10  -6  -2 942.983 24.6577   1
 -10  -6   2 936.738 26.9597  10
 -10   6   2 956.450 32.0339  14
  10   6  -2 936.246 24.8967   1
 -10   6   2 955.298 24.7838   9
  10   6  -2 934.350 24.2326  12
 -10   6   2 945.789 27.5777   3
   8  -6  -2 7.99781 2.07890  16
  -8  -6   2 8.20975 2.36244  10
  -8   6   2 8.34955 3.38383  14
  -8   6   2 7.47625 2.43019   3
  -8   6   2 13.1735 2.30360   9
   8   6  -2 7.86454 1.97252   1
   8   6  -2 7.10878 1.81030  16
  -8   6   2 8.16891 2.69077   8
  -8   6   2 6.21457 1.84719   6
   8   6  -2 7.60055 1.67593  12
   6  -6  -2 1545.22 38.8288  15
  -6  -6   2 1558.28 37.3527  10
  -6  -6   2 1522.07 35.2781   7
  -6  -6   2 1499.84 36.3284   2
  -6   6   2 1529.01 34.7292   6
  -6   6   2 1572.95 35.7165   9
   6   6  -2 1529.67 35.5458  16
  -6   6   2 1586.53 37.1851   3
   6   6  -2 1552.48 34.9362   1
  -6   6   2 1470.62 39.5603  14
   6   6  -2 1535.83 35.0892  12
  -6   6   2 1559.96 37.2155   8
  -4  -6   2 6.46745 1.39478   7
   4  -6  -2 13.3937 2.73824  15
  -4  -6   2 7.98741 1.73996  10
  -4  -6   2 11.7074 2.09232   2
   4   6  -2 8.76633 1.44984  16
   4   6  -2 8.40545 1.28692   1
  -4   6   2 12.9378 2.00488   8
  -4   6   2 9.62534 2.01722  14
  -4   6   2 10.9361 1.73590   9
   4   6  -2 8.40429 1.42577  12
  -4   6   2 8.49027 1.66341   3
  -4   6   2 7.55331 1.34342   6
   2  -6  -2 3426.87 75.4034  15
  -2  -6   2 3297.10 72.3931  10
   2  -6  -2 3540.38 72.6515   2
  -2  -6   2 3359.84 71.0287   7
   2  -6  -2 3425.70 71.1378  10
  -2   6   2 3398.37 70.6697   6
   2   6  -2 3048.54 70.6513   8
   2   6  -2 3319.21 72.1020  16
  -2   6   2 3365.82 72.3625   8
   2   6  -2 3289.36 70.1696   1
  -2   6   2 3261.36 72.3284  14
   2   6  -2 3382.51 70.9493  12
   0  -6  -2 295.461 9.63968   2
   0  -6  -2 299.857 8.51603  10
   0  -6   2 291.111 8.05212   7
   0  -6   2 289.423 9.08580  10
   0  -6   2 278.678 7.09983   4
   0  -6  -2 286.839 10.8792  15
   0   6   2 282.902 7.43858  13
   0   6  -2 293.051 8.04026   9
   0   6   2 284.899 7.71675   1
   0   6  -2 297.800 7.94419   6
   0   6   2 283.016 7.34654   6
   0   6  -2 272.956 7.87289   8
   2  -6   2 4084.92 85.1492   4
  -2  -6  -2 3874.34 85.6796  11
  -2  -6  -2 3912.58 89.5281  15
  -2  -6  -2 3944.00 86.8607  10
   2  -6   2 4095.30 85.8103   7
  -2  -6  -2 3893.69 88.2716   2
  -2   6  -2 4066.41 86.1199   8
  -2   6  -2 4176.15 87.3038   3
  -2   6  -2 4126.06 86.1340   9
   2   6   2 3914.19 84.8366  13
   2   6   2 4008.14 85.7909  16
   2   6   2 4093.66 85.2690   1
  -2   6  -2 4221.57 85.4017   6
  -4  -6  -2 245.580 9.85609   2
  -4  -6  -2 242.475 9.13574  10
   4  -6   2 232.123 7.06183  13
   4  -6   2 244.392 7.90806   4
  -4  -6  -2 218.768 7.26925  11
  -4   6  -2 236.582 8.17998   9
  -4   6  -2 240.927 10.4422  14
  -4   6  -2 245.964 9.20908   3
   4   6   2 239.690 8.10337  16
   4   6   2 234.947 7.58330   1
  -4   6  -2 239.984 8.54262   8
  -4   6  -2 248.115 7.39119   6
   4   6   2 232.215 7.29309  13
   4   6   2 235.775 7.20163  12
   6  -6   2 1655.86 38.0729  13
  -6  -6  -2 1672.34 41.2055  10
  -6  -6  -2 1598.70 40.8075   2
   6   6   2 1685.83 38.3205   1
  -6   6  -2 1699.17 37.7224   6
  -6   6  -2 1661.61 43.8283  14
   6   6   2 1693.16 37.3828  12
   6   6   2 1675.12 39.1194  16
  -6   6  -2 1665.67 39.2774   9
  -6   6  -2 1642.09 41.1677   3
   6   6   2 1630.81 38.0023  13
   8  -6   2 31.9726 4.08260   4
  -8  -6  -2 24.9987 4.01220  10
  -8  -6  -2 22.1286 3.54775   2
   8  -6   2 24.5528 2.92115  13
  -8   6  -2 20.8334 4.72726  14
   8   6   2 37.4866 3.71427  13
   8   6   2 24.0675 3.17542   1
  -8   6  -2 30.3593 3.31979   9
  -8   6  -2 26.8858 4.23843   3
  -8   6  -2 24.2818 2.73649   6
   9  -7  -2 20.8948 3.06691  16
  -9  -7   2 34.1617 4.71174  10
  -9   7   2 22.3651 3.88348   3
  -9   7   2 23.9598 3.89941   8
  -9   7   2 23.8783 3.25211   9
   9   7  -2 25.6331 2.99631   1
   9   7  -2 20.7980 2.89728  12
   9   7  -2 20.5597 3.17970  16
  -9   7   2 21.5266 4.85189  14
  -7  -7   2 4.86345 2.57182  10
  -7  -7   2 3.28317 1.94398   2
  -7  -7   2 4.03136 1.40448   7
  -7   7   2 7.32426 1.62689   6
  -7   7   2 5.60415 2.33114   8
  -7   7   2 4.94796 1.89153   9
   7   7  -2 9.10658 1.83496  16
   7   7  -2 6.27005 1.51731   1
  -7   7   2 6.99883 2.60350  14
  -7   7   2 6.40180 1.91504   3
   7   7  -2 6.65895 1.81285  12
  -5  -7   2 1.82850 1.75079   2
   5  -7  -2 6.66257 2.44187  15
  -5  -7   2 0.12091 1.38558  10
  -5  -7   2 1.20876 1.21511   7
  -5   7   2 0.35503 1.07855   6
   5   7  -2 0.85701 0.76148   1
   5   7  -2 -0.1214 0.74903  12
  -5   7   2 2.18645 1.33527   9
   5   7  -2 2.01919 1.15911  16
  -5   7   2 0.75269 1.18470   3
  -5   7   2 0.85178 1.07340   8
  -5   7   2 4.17004 1.90002  14
   3  -7  -2 77.1554 3.58367  10
  -3  -7   2 76.0656 3.57325   7
   3  -7  -2 76.9712 4.22623   2
   3  -7  -2 77.3818 5.61136  15
  -3  -7   2 78.4071 4.68398  10
  -3  -7   2 80.7258 4.61364   2
  -3   7   2 72.5327 4.60068  14
   3   7  -2 77.2221 3.39993  16
   3   7  -2 80.2206 3.23965   1
  -3   7   2 81.2136 3.45891   6
   3   7  -2 80.3914 3.71704  12
  -3   7   2 77.9403 4.49966   8
   1  -7  -2 17.1926 2.60234   2
   1  -7  -2 11.0351 1.68724  10
  -1  -7   2 11.3035 2.12205  10
  -1  -7   2 15.4763 1.72332   7
   1   7  -2 11.8082 1.35307   8
   1   7  -2 14.6051 1.16272   1
  -1   7   2 11.1521 1.50691  14
   1   7  -2 12.1832 1.43812  12
  -1   7   2 11.4066 1.38481   6
  -1   7   2 13.0358 2.13721   8
   1  -7   2 184.496 6.20224   7
  -1  -7  -2 183.152 6.39294  11
  -1  -7  -2 181.675 8.86310  15
   1  -7   2 186.281 7.35228  10
  -1  -7  -2 190.883 6.99345  10
  -1  -7  -2 191.495 8.16388   2
   1   7   2 172.790 5.79258   1
  -1   7  -2 172.580 6.18960   8
  -1   7  -2 187.439 6.36221   9
   1   7   2 186.452 6.25212  16
   1   7   2 175.280 5.36600  13
   1   7   2 172.150 5.22661   6
  -1   7  -2 188.263 6.10196   6
  -3  -7  -2 56.8031 4.48769  10
  -3  -7  -2 53.6111 4.94646  15
  -3  -7  -2 53.0130 3.43212  11
   3  -7   2 57.7570 3.40131   7
   3  -7   2 54.4057 3.04035   4
  -3  -7  -2 57.7967 5.43472   2
  -3   7  -2 46.9712 3.72965   3
  -3   7  -2 59.2079 3.13575   6
  -3   7  -2 59.2281 3.72635   9
   3   7   2 55.4681 3.22701   1
  -3   7  -2 57.8691 3.71892   8
   3   7   2 55.5308 2.84861  13
   3   7   2 57.9496 3.38129  16
   5  -7   2 44.3429 3.33611   4
  -5  -7  -2 47.5387 4.28752  10
  -5  -7  -2 53.9661 5.24781   2
  -5   7  -2 48.8405 4.23318   8
  -5   7  -2 48.6504 4.51240   3
   5   7   2 55.0005 3.30554  12
   5   7   2 47.3435 3.49132  16
  -5   7  -2 44.2539 5.27209  14
   5   7   2 43.7672 3.05235  13
  -5   7  -2 46.3473 3.85089   9
   5   7   2 51.6634 3.57979   1
  -5   7  -2 45.2520 3.25622   6
  -7  -7  -2 170.963 9.20198  10
  -7  -7  -2 150.998 8.44202   2
   7  -7   2 160.651 7.64039   4
  -7   7  -2 154.039 10.1508  14
  -7   7  -2 146.696 6.16623   6
  -7   7  -2 152.818 8.57016   3
   7   7   2 151.546 6.88529   1
  -7   7  -2 162.007 7.48943   9
   7   7   2 155.086 6.49410  13
   7   7   2 148.677 7.14756  16
 -10  -8   2 451.454 16.6712  10
 -10   8   2 435.283 20.1302  14
  10   8  -2 469.056 14.6169   1
 -10   8   2 457.219 16.9499   3
  10   8  -2 432.736 13.8128  12
  -8  -8   2 230.499 10.7377  10
  -8   8   2 241.893 11.0808   8
  -8   8   2 225.376 8.50278   6
  -8   8   2 222.462 12.4866  14
   8   8  -2 209.537 8.75336  16
  -8   8   2 231.121 10.5952   3
   8   8  -2 219.930 8.62565  12
   8   8  -2 233.882 8.65381   1
  -8   8   2 232.028 9.23711   9
  -6  -8   2 1144.82 27.7443   7
  -6  -8   2 1169.44 30.5544  10
  -6  -8   2 1135.51 30.0910   2
   6  -8  -2 1173.01 33.2366  15
   6  -8  -2 1152.34 28.7609   2
  -6   8   2 1188.03 30.5845   8
   6   8  -2 1172.97 28.2977  16
  -6   8   2 1111.63 32.8769  14
  -6   8   2 1166.37 28.7639   9
  -6   8   2 1184.58 30.1670   3
   6   8  -2 1146.78 27.4662   1
  -6   8   2 1184.55 27.6726   6
   6   8  -2 1165.11 28.0551  12
   4  -8  -2 523.302 18.4770  15
  -4  -8   2 523.593 13.6416   7
   4  -8  -2 518.857 15.0659   2
  -4  -8   2 536.842 15.9207  10
   4  -8  -2 494.424 13.8149  10
  -4  -8   2 517.642 15.7505   2
   4   8  -2 506.007 13.8052  12
   4   8  -2 506.991 13.5969  16
   4   8  -2 510.780 13.1393   1
  -4   8   2 504.557 13.4557   6
  -4   8   2 482.365 16.3390  14
  -4   8   2 512.816 15.1563   3
  -4   8   2 527.471 15.7009   8
  -2  -8   2 1519.55 35.5967  10
  -2  -8   2 1470.36 33.2147   7
   2  -8  -2 1500.82 33.7953  10
   2  -8  -2 1474.63 35.3980   2
  -2  -8   2 1494.12 35.9321   2
   2  -8  -2 1489.56 39.0726  15
   2   8  -2 1475.55 32.4492   1
   2   8  -2 1483.70 33.3899   6
   2   8  -2 1497.71 33.4532  12
  -2   8   2 1496.50 35.3281   8
   2   8  -2 1456.12 32.8700  16
  -2   8   2 1383.65 34.7607  14
  -2   8   2 1483.28 33.0459   6
   0  -8  -2 434.260 12.4406  10
   0  -8  -2 460.830 14.1900   2
   0  -8   2 429.078 11.6161   7
   0  -8   2 496.080 13.8298  10
   0  -8  -2 425.859 15.7203  15
   0   8  -2 438.889 11.9263   9
   0   8  -2 437.271 11.7383   6
   0   8   2 421.536 11.3664   1
   0   8   2 407.997 10.8691   6
   0   8  -2 383.460 11.6588   8
   0   8   2 427.172 13.0180   8
  -2  -8  -2 739.565 19.8127  10
  -2  -8  -2 722.630 22.8968  15
   2  -8   2 775.320 20.4323  10
  -2  -8  -2 719.572 18.6119  11
  -2  -8  -2 752.581 21.7472   2
   2  -8   2 746.233 18.5612   7
   2   8   2 732.742 18.0949   1
   2   8   2 751.203 18.8094  16
  -2   8  -2 730.877 18.2822   6
  -2   8  -2 695.627 18.9978   8
  -2   8  -2 737.618 19.0220   9
  -4  -8  -2 252.202 10.1632  10
  -4  -8  -2 231.535 10.9385   2
   4  -8   2 230.873 8.34808   7
   4   8   2 232.087 8.53584  16
  -4   8  -2 237.470 9.22469   8
   4   8   2 230.039 7.98665   1
  -4   8  -2 236.104 8.88073   9
  -4   8  -2 248.410 8.00629   6
  -4   8  -2 238.778 10.0489   3
  -6  -8  -2 385.515 14.0766  10
  -6  -8  -2 342.800 14.0125   2
  -6   8  -2 359.550 11.0966   6
  -6   8  -2 356.313 14.0119   3
   6   8   2 355.281 11.4839   1
  -6   8  -2 377.671 13.5715   8
   6   8   2 345.907 12.0176  16
  -6   8  -2 362.829 12.4860   9
  -8  -8  -2 244.646 11.8069  10
  -8   8  -2 239.810 8.81970   6
   8   8   2 223.179 8.97287   1
  -8   8  -2 242.439 12.0086   3
  -8   8  -2 235.482 10.1007   9
  -9  -9   2 5.15175 3.00022  10
   9   9  -2 3.23350 1.89841  12
  -9   9   2 3.54053 2.72991   8
  -9   9   2 2.56319 2.06443   9
  -9   9   2 2.79547 2.21293  14
   9   9  -2 2.94917 1.92481   1
  -9   9   2 4.78618 2.16955   6
  -9   9   2 1.97331 1.64118   3
  -7  -9   2 8.24739 3.20487  10
   7   9  -2 3.72916 1.84672  12
   7   9  -2 5.17759 1.95098  16
  -7   9   2 3.93200 1.67848   9
  -7   9   2 3.67562 2.19482  14
  -7   9   2 5.28555 2.02346   3
  -7   9   2 4.09827 2.67485   8
  -7   9   2 5.99097 2.00944   6
   7   9  -2 6.20659 1.80772   1
  -5  -9   2 6.48770 1.68696   7
  -5  -9   2 9.78136 2.96609   2
   5  -9  -2 7.99709 2.28540   2
  -5  -9   2 8.27096 2.99938  10
  -5   9   2 9.80252 2.72839   8
   5   9  -2 8.41471 1.72416   1
  -5   9   2 15.1201 3.30327  14
  -5   9   2 10.2968 2.04991   6
   5   9  -2 10.0119 1.73208  16
   5   9  -2 11.4729 2.11986  12
   5   9  -2 9.28248 1.75131   6
   3  -9  -2 1.84828 2.09725  15
  -3  -9   2 1.79429 1.98908  10
   3  -9  -2 0.61715 1.59475   2
  -3  -9   2 0.77464 1.38237   2
  -3  -9   2 -1.1880 0.95741   7
  -3   9   2 1.28804 1.28984  14
   3   9  -2 4.76492 1.18487   1
  -3   9   2 2.69836 1.63121   8
   3   9  -2 -0.0493 1.16184  12
   3   9  -2 0.17474 1.02810   6
  -3   9   2 8.85072 1.70433   6
   3   9  -2 3.68420 1.04979  16
   1  -9  -2 88.7111 5.70436   2
   1  -9  -2 67.6979 6.01755  15
  -1  -9   2 65.1479 3.51520   7
  -1  -9   2 68.6816 5.12818   2
   1  -9  -2 70.5661 4.00769  10
  -1  -9   2 72.8909 4.74705  10
   1   9  -2 67.6965 3.78637   6
  -1   9   2 65.8732 3.41443   6
  -1   9   2 65.1974 4.39266   8
  -1  -9  -2 9.38773 2.25907  10
  -1  -9  -2 8.79837 2.53592   2
  -1  -9  -2 6.14036 1.90558  11
   1  -9   2 10.7445 1.73191   7
  -1  -9  -2 9.95167 2.96371  15
   1  -9   2 5.48187 2.00060  10
  -1   9  -2 8.81439 1.70478   9
   1   9   2 10.0375 2.24974   8
  -1   9  -2 7.17858 1.45127   6
   1   9   2 9.51898 1.71814   1
   1   9   2 8.59819 1.39322   6
  -3  -9  -2 44.6826 5.59948   2
  -3  -9  -2 48.8209 3.89720  11
   3  -9   2 39.9247 3.18157   7
   3  -9   2 43.4298 4.26619  10
  -3  -9  -2 37.2979 4.28664  10
  -3   9  -2 43.7113 3.09513   6
  -3   9  -2 39.0802 3.58746   9
   3   9   2 39.6578 3.21835   1
  -3   9  -2 40.5512 3.66213   8
   3   9   2 38.4569 3.42889  16
  -5  -9  -2 68.3827 6.53752   2
   5  -9   2 64.0037 4.31444   7
  -5  -9  -2 67.0404 5.49210  10
  -5   9  -2 65.4701 5.27053   8
  -5   9  -2 63.7661 4.92379   9
   5   9   2 66.4694 4.37568   1
  -5   9  -2 67.0919 4.34996   6
   5   9   2 63.8999 4.61677  16
   7  -9   2 9.26319 1.93115   7
  -7  -9  -2 5.50498 2.79285  10
  -7  -9  -2 6.61011 2.41674   2
  -7   9  -2 8.48799 2.66965   9
   7   9   2 2.70235 1.83016   1
  -7   9  -2 5.93988 1.91980   6
  -7   9  -2 6.75212 2.89365   3
  -8 -10   2 504.766 18.0735  10
   8  10  -2 492.883 15.3055  12
  -8  10   2 511.962 18.4254   8
  -8  10   2 513.244 17.6901   3
   8  10  -2 485.682 14.7795   1
  -8  10   2 474.954 20.5075  14
  -8  10   2 533.193 15.1077   6
  -6 -10   2 51.1171 5.90931   2
  -6 -10   2 44.6306 5.47062  10
   6  10  -2 52.9543 3.97006  16
   6  10  -2 50.7935 3.63255   1
   6  10  -2 48.1731 3.21680   6
  -6  10   2 50.4552 5.33341   8
   6  10  -2 46.7394 4.00123  12
  -6  10   2 44.5332 3.50158   6
  -6  10   2 47.7052 5.75386  14
   4 -10  -2 947.044 25.6718   2
  -4 -10   2 991.077 26.6814  10
  -4 -10   2 968.132 27.1483   2
  -4  10   2 874.383 26.6856  14
  -4  10   2 950.452 23.4558   6
   4  10  -2 908.425 25.9932  16
   4  10  -2 979.848 23.4637   6
  -4  10   2 979.853 26.3514   8
   4  10  -2 1000.70 24.1171  12
   4  10  -2 940.188 22.7516   1
   2 -10  -2 60.9650 4.85961   2
  -2 -10   2 57.5714 5.28186   2
  -2 -10   2 60.6495 4.72331  10
  -2  10   2 68.0872 5.05494   8
  -2  10   2 59.4134 3.38943   6
   2  10  -2 63.0682 3.84011   6
   0 -10  -2 1509.91 35.5208  11
   0 -10   2 1555.16 37.3675  10
   0 -10  -2 1530.71 35.9997  10
   0 -10  -2 1523.12 38.3851   2
   0 -10   2 1479.74 37.8371   2
   0  10  -2 1507.12 34.8864   6
   0  10   2 1457.05 33.9161   6
   0  10   2 1495.81 37.0193   8
   2 -10   2 56.8157 4.92341  10
  -2 -10  -2 55.5987 4.39402  11
  -2 -10  -2 56.8578 6.28791   2
  -2 -10  -2 57.5128 4.98205  10
   2  10   2 58.9829 4.71845   8
  -2  10  -2 67.3528 4.57069   9
  -2  10  -2 56.2402 3.69756   6
   2  10   2 60.7372 3.66084   1
  -4 -10  -2 1406.73 35.4729  10
  -4 -10  -2 1303.00 36.9583   2
   4 -10   2 1443.48 35.4005  10
   4  10   2 1346.51 33.3329  16
  -4  10  -2 1346.37 32.5671   6
   4  10   2 1356.25 32.4726   1
  -4  10  -2 1395.91 34.1480   9
  -4  10  -2 1332.77 34.6163   8
   6 -10   2 22.3006 3.59429  10
  -6 -10  -2 21.8138 4.02313  10
  -6 -10  -2 21.8315 4.27708   2
  -6  10  -2 26.8547 3.15639   6
  -6  10  -2 20.4985 3.50907   9
   6  10   2 21.9585 2.86144   1
  -7 -11   2 82.9020 6.78978  10
   7 -11  -2 84.8426 5.59033  11
  -7  11   2 93.1231 7.31738   8
  -7  11   2 81.6774 8.07983  14
  -7  11   2 95.5732 5.55089   6
   7  11  -2 89.3626 5.58517  12
  -5 -11   2 93.0936 7.44645  10
  -5 -11   2 95.2995 7.79029   2
   5 -11  -2 96.1145 6.14390   2
  -5  11   2 101.121 7.17889   8
  -5  11   2 96.3446 5.11725   6
   5  11  -2 103.531 5.13965   6
   5  11  -2 97.9616 5.54699  12
  -3 -11   2 91.8749 6.88290  10
   3 -11  -2 96.3833 6.69310   2
  -3 -11   2 93.5627 7.08304   2
  -3  11   2 93.7500 4.72463   6
  -3  11   2 95.9190 6.22309   8
   3  11  -2 97.7736 5.04331   6
   1 -11  -2 145.681 6.92885  11
  -1 -11   2 150.707 8.59912   2
  -1 -11   2 147.004 7.97159  10
   1 -11  -2 154.848 8.35913   2
  -1  11   2 144.907 5.93348   6
  -1  11   2 157.959 7.96502   8
   1  11  -2 154.015 6.53115   6
  -1 -11  -2 70.5139 5.02263  11
  -1 -11  -2 71.6073 6.74577   2
   1 -11   2 73.0985 6.01792   2
   1 -11   2 80.8248 5.85428  10
  -1 -11  -2 71.0360 5.41330  10
   1  11   2 68.2301 5.03126   8
  -1  11  -2 64.7024 4.10354   6
  -3 -11  -2 100.928 6.45501  10
   3 -11   2 104.838 6.81176  10
  -3 -11  -2 100.759 8.40733   2
  -3 -11  -2 93.9969 5.83246  11
   3  11   2 103.788 6.49690   8
  -3  11  -2 100.098 5.80017   9
  -3  11  -2 107.973 5.48406   6
   3  11   2 109.728 5.50765   1
  -5 -11  -2 54.5508 6.59694   2
  -5 -11  -2 56.7649 5.77736  10
  -5  11  -2 49.6615 4.27140   6
  -5  11  -2 57.9391 5.11818   9
   5  11   2 51.4011 4.20661   1
  -6 -12   2 649.220 22.3442  10
  -6 -12   2 673.997 22.8779   2
   6 -12  -2 757.019 20.4504  11
  -6  12   2 722.584 22.7905   8
  -6  12   2 670.949 18.8658   6
  -4 -12   2 56.9606 5.93987   2
   4 -12  -2 57.0566 5.64550   2
   4 -12  -2 63.4949 5.17851  11
  -4 -12   2 62.0138 6.45031  10
   4  12  -2 52.9549 4.00480   6
  -4  12   2 58.7365 4.07114   6
  -4  12   2 62.3900 5.93559   8
  -2 -12   2 822.851 25.1406   2
   2 -12  -2 800.952 24.2274   2
  -2 -12   2 823.965 23.7998  10
   2 -12  -2 784.499 21.8530  11
   2  12  -2 775.102 20.8753   6
  -2  12   2 810.630 20.6825   6
  -2  12   2 830.603 23.8400   8
   0 -12   2 98.8886 6.42755  10
   0 -12  -2 103.474 6.16154  11
   0 -12   2 100.554 7.55870   2
   0 -12  -2 101.220 7.91943   2
   0  12   2 94.9353 6.23673   8
   0  12  -2 103.929 5.60672   6
   2 -12   2 597.211 18.7964  10
  -2 -12  -2 587.530 18.3944  10
  -2 -12  -2 583.421 20.9577   2
   2 -12   2 600.042 20.0905   2
  -2 -12  -2 576.911 17.3262  11
   2  12   2 549.447 18.1839   8
  -2  12  -2 591.980 16.8221   6
  -4 -12  -2 110.125 9.04541   2
  -4 -12  -2 120.486 7.59803  10
   4 -12   2 121.606 8.06557   2
   4 -12   2 117.818 7.31737  10
  -4  12  -2 114.935 6.83072   9
  -4  12  -2 115.039 6.23998   6
   4  12   2 106.407 5.56677   1
  -3 -13   2 23.2366 4.80589   2
   3 -13  -2 21.5188 4.27286   2
   3 -13  -2 25.9933 3.65475  11
  -3 -13   2 17.4150 4.10051  10
  -3  13   2 22.3463 3.03930   6
   3  13  -2 17.2714 2.60718   6
  -3  13   2 22.1247 3.95586   8
   1 -13  -2 15.8266 2.94832  11
   1 -13  -2 18.7856 4.39381   2
  -1 -13   2 23.4878 4.20986  10
  -1 -13   2 18.0008 3.80867   2
  -1  13   2 12.0957 3.05489   8
   1  13  -2 18.1557 2.95687   6
  -1  13   2 18.8307 2.61361   6
  -1 -13  -2 15.6940 3.25222  11
  -1 -13  -2 13.8549 4.40275   2
   1 -13   2 16.8269 3.13861  10
   1 -13   2 14.4922 3.68088   2
  -1  13  -2 14.1264 2.41507   6
 -12   0   3 0.11300 1.60616   3
  12   0  -3 0.07010 1.40580  13
  12   0  -3 0.83541 1.46841   1
 -12   0   3 -0.1227 2.28307  14
  10   0  -3 -0.4879 1.53865  16
  10   0  -3 2.22559 1.50233  12
  10   0  -3 -0.6740 1.54607   1
 -10   0   3 -0.2033 1.69989   3
 -10   0   3 0.80418 1.95636  14
  -8   0   3 0.16844 1.16908   3
  -8   0   3 -0.9491 1.39086  14
   8   0  -3 0.39287 1.09674  12
   8   0  -3 4.00051 1.63688  16
   8   0  -3 3.10962 1.38364   1
  -6   0   3 0.17858 0.30179   9
   6   0  -3 0.86494 0.43234  15
   6   0  -3 -0.1186 0.61081  16
  -6   0   3 1.13339 0.69378  10
  -6   0   3 0.46911 0.53150   8
  -6   0   3 0.59910 0.64360   3
   6   0  -3 -0.0925 0.59526  12
   6   0  -3 0.22107 0.57216   5
  -6   0   3 -0.1066 0.80268  14
  -4   0   3 6.58003 0.88351   7
   4   0  -3 1.69933 0.72394  15
  -4   0   3 3.76353 0.69783   8
   0   0  -3 -0.2108 0.53186  15
   0   0  -3 0.21695 0.27857   5
   0   0  -3 1.38573 0.46479  11
   0   0   3 0.33791 0.48946  15
   0   0  -3 1.05247 0.53651   2
   0   0   3 0.68517 0.35232  13
   0   0   3 0.33403 0.20700   1
   0   0   3 0.32541 0.30002   4
   0   0   3 0.51390 0.24067  16
  -2   0  -3 -0.0601 0.53733  15
   2   0   3 0.04874 0.38935   4
   2   0   3 0.68143 0.55990  13
  -2   0  -3 0.54045 0.44548   3
  -2   0  -3 0.64734 0.65422   2
   2   0   3 0.83727 0.37097  16
  -2   0  -3 1.23985 0.49084  11
   2   0   3 1.59919 0.47919   1
  -4   0  -3 -0.0564 0.82325   2
   4   0   3 3.21552 0.97379  16
  -4   0  -3 0.24949 0.75972   9
   4   0   3 2.72021 0.81327   1
  -4   0  -3 1.37042 0.72377   3
  -6   0  -3 0.71444 1.13065  14
   6   0   3 0.20208 0.86139  13
   6   0   3 0.85182 0.97042   1
   6   0   3 0.38300 0.69321  16
  -6   0  -3 -0.0498 1.07570   3
  -6   0  -3 3.53432 1.29111   9
   8   0   3 1.06501 1.27694   1
   8   0   3 -0.2609 0.76189  16
  -8   0  -3 -0.2919 1.52646   3
  -8   0  -3 1.20239 1.40815   9
   8   0   3 -1.0382 1.67755  13
  11  -1  -3 327.507 12.0796   1
  11  -1  -3 326.765 12.6879  16
 -11  -1   3 334.667 13.6766   3
 -11  -1   3 342.963 15.0199  14
 -11   1   3 349.924 13.7263   3
  11   1  -3 327.437 12.7677  16
  11   1  -3 326.469 11.0062  12
 -11   1   3 352.897 15.9570  14
  11   1  -3 337.061 12.1830   1
  11   1  -3 333.751 12.3107  13
   9  -1  -3 655.336 18.6181  16
  -9  -1   3 683.491 21.2806  14
   9  -1  -3 649.049 17.8376   1
  -9  -1   3 666.552 19.4736   3
   9  -1  -3 670.747 17.5085  12
  -9   1   3 679.229 21.8397  14
  -9   1   3 665.298 19.5285   3
   9   1  -3 635.960 17.3257  12
   9   1  -3 649.233 17.9191   1
   9   1  -3 644.558 18.6654  16
   7  -1  -3 1343.10 30.2449  12
  -7  -1   3 1324.57 31.3882   3
  -7  -1   3 1335.88 30.5265  10
  -7  -1   3 1359.04 33.0805  14
   7  -1  -3 1352.11 31.0641  16
   7  -1  -3 1306.11 29.2730   5
  -7   1   3 1256.89 29.0634   9
  -7   1   3 1306.30 31.3907   3
  -7   1   3 1312.25 30.8870   8
  -7   1   3 1352.37 33.8497  14
   7   1  -3 1294.72 29.0661   5
   7   1  -3 1305.89 30.1883   1
   7   1  -3 1324.92 30.9220  16
   7   1  -3 1322.29 30.1825  12
  -5  -1   3 1154.13 26.4703  15
   5  -1  -3 1220.02 27.3576  15
   5  -1  -3 1206.20 25.9892   5
  -5  -1   3 1172.46 26.2599  10
  -5  -1   3 1182.29 26.3639   7
   5  -1  -3 1165.28 24.9587  11
   5  -1  -3 1172.24 26.1765  12
   5   1  -3 1198.57 26.5833  16
  -5   1   3 1133.57 25.4693   9
  -5   1   3 1121.25 26.3560   8
  -5   1   3 1147.01 26.6681   3
   5   1  -3 1168.18 26.1452  12
   5   1  -3 1161.11 25.7076   5
  -5   1   3 1171.71 28.5098  14
   5   1  -3 1177.18 26.0861   1
  -3  -1   3 4894.10 109.985   4
  -3  -1   3 4871.04 108.188  10
   3  -1  -3 5039.95 108.185  11
   3  -1  -3 5030.16 122.499  15
  -3  -1   3 4814.45 114.802  15
  -3  -1   3 5026.77 108.688   7
   3  -1  -3 5117.73 109.108   5
  -3   1   3 4776.37 114.712  15
   3   1  -3 4979.74 108.428  12
  -3   1   3 4995.96 109.240   8
  -3   1   3 4840.69 107.466   7
  -3   1   3 4807.77 109.162   4
  -3   1   3 4920.06 109.888   3
   3   1  -3 5109.28 119.286  15
   3   1  -3 4868.95 106.140  11
   3   1  -3 4844.88 109.974  16
   3   1  -3 4981.07 107.835   5
  -1  -1   3 968.827 21.1128   7
  -1  -1   3 946.299 20.6910  13
   1  -1  -3 1007.71 23.4384  15
   1  -1  -3 1013.50 21.2950  11
  -1  -1   3 926.627 22.5937  15
  -1  -1   3 973.061 21.2217   4
   1  -1  -3 994.031 21.2157   5
   1  -1  -3 984.204 21.4633   2
  -1   1   3 935.334 20.5644   7
  -1   1   3 978.971 23.1595  15
  -1   1   3 967.170 20.9926  13
  -1   1   3 980.858 21.1174   4
   1   1  -3 971.232 22.9005  15
   1   1  -3 970.467 20.6130  12
   1   1  -3 941.594 20.9672  11
   1   1  -3 968.501 21.0273   5
  -1  -1  -3 3454.00 79.8887   2
  -1  -1  -3 3539.65 76.6139  11
   1  -1   3 3576.72 80.2991   4
   1  -1   3 3573.49 76.3851  16
   1  -1   3 3576.33 75.4885   1
  -1  -1  -3 3553.09 88.3304  15
  -1  -1  -3 3264.02 76.8281   3
   1  -1   3 3591.55 78.0505  13
  -1  -1  -3 3466.97 76.5900   5
  -1   1  -3 3340.18 78.2414   3
   1   1   3 3540.94 78.6327  16
  -1   1  -3 3564.99 78.0200  11
  -1   1  -3 3630.88 77.0480   5
   1   1   3 3548.79 77.0202   1
  -1   1  -3 3468.67 75.2703   6
   1   1   3 3590.17 78.8098  13
   1   1   3 3574.01 79.0899   4
   1   1   3 3549.23 81.7385  15
  -3  -1  -3 1081.65 25.8064   3
   3  -1   3 1167.33 25.7292  13
  -3  -1  -3 1202.91 26.2066  14
   3  -1   3 1145.76 24.8057   1
  -3  -1  -3 1161.52 26.7743  15
   3  -1   3 1156.78 25.1217  16
  -3  -1  -3 1127.98 26.9667   2
  -3  -1  -3 1130.95 24.9179  11
   3   1   3 1147.59 25.7707  13
  -3   1  -3 1105.89 26.1698   3
   3   1   3 1152.34 25.5157  16
  -3   1  -3 1204.18 27.2683  14
  -3   1  -3 1108.47 24.9401  11
  -3   1  -3 1060.96 24.3911   6
   3   1   3 1142.15 25.1291   1
  -3   1  -3 1142.60 26.1872   9
  -5  -1  -3 841.057 21.0563  14
   5  -1   3 824.357 19.4160   1
  -5  -1  -3 847.980 21.4132   3
  -5  -1  -3 841.577 21.7475   2
   5  -1   3 833.164 19.8916  16
   5  -1   3 866.560 20.7001  13
  -5  -1  -3 827.331 20.6350   9
   5   1   3 807.980 19.6047   1
   5   1   3 819.843 20.1742  16
  -5   1  -3 848.729 20.8954   9
   5   1   3 858.846 20.6326  13
  -5   1  -3 823.008 22.1085  14
  -5   1  -3 809.788 21.4890   3
  -7  -1  -3 619.998 17.4978   9
   7  -1   3 655.696 16.7078   1
   7  -1   3 674.244 18.1407  13
  -7  -1  -3 639.353 18.9588   3
   7  -1   3 658.602 17.3579  16
  -7   1  -3 659.814 19.9699  14
  -7   1  -3 645.812 17.8912   9
   7   1   3 665.646 18.1304  13
  -7   1  -3 672.051 19.5188   3
   7   1   3 634.198 16.8553   1
   7   1   3 631.263 17.4619  16
   9  -1   3 226.911 9.61160  13
  -9  -1  -3 241.443 10.9457   3
   9  -1   3 232.869 10.3465   4
  -9   1  -3 231.827 10.9612   3
   9   1   3 222.359 9.45124  13
   9   1   3 234.755 10.1762   4
   9   1   3 211.789 10.2128  16
  -9   1  -3 228.410 9.19790   9
 -12  -2   3 90.6853 7.24953   3
  12  -2  -3 89.7674 5.72469   1
  12   2  -3 80.1324 5.97995   1
 -12   2   3 104.665 7.77005   3
 -12   2   3 96.6623 8.47141  14
  12   2  -3 81.8071 6.04939  13
  10  -2  -3 226.206 9.02457   1
  10  -2  -3 238.140 9.79671  16
  10  -2  -3 230.957 8.60179  12
 -10  -2   3 242.622 11.3356  14
 -10  -2   3 237.871 10.4320   3
  10   2  -3 236.464 8.70852  12
 -10   2   3 237.335 10.3497   3
  10   2  -3 220.521 9.09264   1
  10   2  -3 236.561 9.91369  16
 -10   2   3 245.289 12.5677  14
  -8  -2   3 273.385 9.36711  10
  -8  -2   3 282.872 11.0568  14
  -8  -2   3 275.993 10.0012   3
   8  -2  -3 269.792 8.70799  12
   8  -2  -3 275.359 9.64085  16
  -8   2   3 278.200 10.1680   3
   8   2  -3 274.322 9.01934   1
  -8   2   3 276.410 9.74460   8
  -8   2   3 267.610 8.03816   9
   8   2  -3 261.143 9.42638  16
   8   2  -3 280.042 8.90928  12
  -8   2   3 280.876 12.0726  14
  -6  -2   3 307.449 8.85330   7
  -6  -2   3 298.296 8.94767  10
   6  -2  -3 306.310 9.70354  15
   6  -2  -3 299.977 8.25820   5
  -6  -2   3 299.873 10.0896  14
   6  -2  -3 311.756 8.61793  12
  -6   2   3 303.282 8.09085   9
  -6   2   3 290.774 9.08475   8
  -6   2   3 304.666 10.9914  14
   6   2  -3 289.414 8.47357  12
  -6   2   3 287.984 9.18457   3
   6   2  -3 283.466 7.80200   5
   6   2  -3 298.445 8.92602  16
   6   2  -3 295.952 8.48292   1
  -4  -2   3 757.725 17.5832  10
  -4  -2   3 752.313 17.3162   4
   4  -2  -3 769.131 16.9078  11
  -4  -2   3 725.131 17.9288  15
  -4  -2   3 771.811 17.4743   7
   4  -2  -3 768.963 17.4582   5
   4  -2  -3 796.415 19.6907  15
  -4  -2   3 732.399 16.6648   2
   4   2  -3 748.061 17.2716  12
  -4   2   3 738.702 19.1012  14
   4   2  -3 753.661 17.0737   5
  -4   2   3 719.131 16.9956   9
   4   2  -3 766.636 17.0484   1
   4   2  -3 749.989 17.3148  16
  -4   2   3 747.987 17.7467   8
  -4   2   3 754.935 17.6354   3
   2  -2  -3 413.243 9.97095   2
  -2  -2   3 412.908 9.74488   4
  -2  -2   3 395.436 9.93606  10
   2  -2  -3 436.148 12.3712  15
   2  -2  -3 424.889 9.95024  11
  -2  -2   3 390.957 11.9346  15
  -2  -2   3 417.933 9.84499   7
   2   2  -3 387.528 9.25214   9
   2   2  -3 421.925 9.55989  12
   2   2  -3 418.914 9.76858   5
  -2   2   3 413.578 9.69382  13
  -2   2   3 415.516 9.71437   4
   2   2  -3 406.817 9.07922   1
   2   2  -3 408.961 9.45993  11
   2   2  -3 411.200 9.22068  16
  -2   2   3 399.597 9.29689   6
  -2   2   3 409.366 10.0491   8
  -2   2   3 398.352 9.31604   3
   0  -2   3 681.837 15.5096   7
   0  -2   3 682.364 15.4851   4
   0  -2  -3 682.888 16.4501   2
   0  -2  -3 692.575 17.9974  15
   0  -2   3 664.065 14.8006  13
   0  -2  -3 684.005 15.3668  10
   0  -2  -3 681.600 15.6683  11
   0   2  -3 694.651 15.5773   9
   0   2   3 675.453 15.2799  16
   0   2  -3 692.271 15.3429  11
   0   2   3 677.715 15.0472   1
   0   2   3 677.110 15.1909   4
   0   2  -3 692.198 15.1884   5
   0   2   3 677.137 15.3140  13
   2  -2   3 697.365 15.9494  13
  -2  -2  -3 696.196 17.5508   2
   2  -2   3 704.939 15.1533   1
  -2  -2  -3 699.767 17.0030  10
  -2  -2  -3 688.724 17.8851  15
  -2  -2  -3 691.345 15.9952   3
  -2  -2  -3 698.129 15.9533  11
   2  -2   3 711.114 15.3403  16
   2  -2   3 706.825 16.5901   4
   2   2   3 687.311 16.1202   4
  -2   2  -3 696.968 16.6266   9
  -2   2  -3 704.577 16.7331   3
   2   2   3 674.006 16.1292  13
  -2   2  -3 703.111 15.4942   6
  -2   2  -3 706.420 15.9035  11
   2   2   3 704.509 16.1781  16
   2   2   3 683.717 15.7885   1
  -4  -2  -3 255.778 8.10258   3
   4  -2   3 269.890 7.94879  13
  -4  -2  -3 265.838 9.12359   2
  -4  -2  -3 256.645 6.88195  11
  -4  -2  -3 258.247 8.14916  15
   4  -2   3 265.005 7.00896   1
   4  -2   3 266.441 7.33455  16
  -4   2  -3 263.284 8.71608   3
   4   2   3 267.144 7.93981  16
   4   2   3 259.672 7.88595  13
  -4   2  -3 275.786 9.60608  14
  -4   2  -3 265.809 8.38050   9
   4   2   3 259.443 7.49380   1
  -4   2  -3 248.968 6.80104   6
  -6  -2  -3 372.102 11.8021   3
   6  -2   3 349.878 10.1711  16
   6  -2   3 363.668 10.9549  13
  -6  -2  -3 353.511 12.0290   2
   6  -2   3 354.662 9.78640   1
  -6  -2  -3 341.221 10.6937   9
   6   2   3 346.504 10.2139   1
  -6   2  -3 348.476 11.1197   9
   6   2   3 342.070 10.8448  13
  -6   2  -3 330.955 11.8034   3
  -6   2  -3 353.411 12.8758  14
   6   2   3 337.867 10.6520  16
  -8  -2  -3 176.304 8.53656   3
   8  -2   3 164.238 7.62998  13
   8   2   3 150.717 7.01867  16
  -8   2  -3 161.776 7.26160   9
   8   2   3 168.736 6.84801   1
  -8   2  -3 171.570 9.43477  14
  -8   2  -3 173.923 8.90883   3
   8   2   3 156.075 7.34931  13
 -11  -3   3 777.788 23.7275   3
  11  -3  -3 794.909 21.9383   1
  11   3  -3 757.260 20.8695  12
 -11   3   3 808.827 27.9162  14
  11   3  -3 781.760 21.9358   1
 -11   3   3 826.263 24.3216   3
  11   3  -3 740.921 21.6643  13
   9  -3  -3 34.1200 3.27097  12
  -9  -3   3 33.9748 3.92674   3
  -9  -3   3 45.0208 4.46989  14
   9  -3  -3 28.0808 3.23412   1
  -9  -3   3 31.6094 3.56787  10
   9  -3  -3 30.3063 3.20232  16
  -9   3   3 38.2133 5.21475  14
   9   3  -3 38.6876 3.75386   1
   9   3  -3 36.3321 3.81119  16
  -9   3   3 28.3621 2.58735   9
  -9   3   3 34.7274 4.00386   3
   9   3  -3 42.4450 3.45636  12
  -9   3   3 35.1220 3.64747   8
  -7  -3   3 2097.68 45.9799   7
  -7  -3   3 2035.75 46.3676  10
   7  -3  -3 2099.86 44.9788   5
  -7  -3   3 2066.09 47.7472  14
   7  -3  -3 2062.29 45.3865  12
   7   3  -3 2078.90 46.2194  16
   7   3  -3 2045.86 45.4570  12
  -7   3   3 2056.99 49.9148  14
  -7   3   3 2071.32 46.9185   3
  -7   3   3 1966.10 44.8940   9
   7   3  -3 1958.78 44.1464   5
   7   3  -3 2087.43 45.5311   1
  -7   3   3 2019.32 46.6866   8
  -5  -3   3 112.983 4.14461   2
   5  -3  -3 125.995 4.46075   5
  -5  -3   3 121.075 5.00287  10
   5  -3  -3 125.769 3.97280  11
  -5  -3   3 121.097 4.58491   7
   5  -3  -3 126.612 6.02525  15
   5  -3  -3 113.470 3.68805   2
  -5   3   3 126.312 6.10110  14
   5   3  -3 119.898 4.02484   5
   5   3  -3 122.428 4.57240  16
   5   3  -3 120.616 4.24263   1
  -5   3   3 120.860 4.88644   8
  -5   3   3 128.826 4.95302   3
  -5   3   3 125.105 4.40418   9
   5   3  -3 124.175 4.43219  12
  -5   3   3 125.469 4.26925   6
  -3  -3   3 5726.61 127.754   7
   3  -3  -3 5965.21 144.339  15
  -3  -3   3 5588.85 128.739   4
   3  -3  -3 5940.60 127.892  11
   3  -3  -3 5889.23 129.192   2
  -3  -3   3 5580.13 130.111  10
  -3   3   3 5871.03 126.286   6
  -3   3   3 5979.43 130.240   8
   3   3  -3 6068.65 128.265  16
  -3   3   3 5832.00 128.530   3
   3   3  -3 5729.01 127.073   5
  -3   3   3 5206.96 133.043  14
   3   3  -3 5991.49 126.573   1
   3   3  -3 6024.80 128.083  12
   1  -3  -3 782.806 16.9360  10
  -1  -3   3 771.864 17.2542   4
   1  -3  -3 791.100 18.4221   2
   1  -3  -3 804.919 20.6240  15
   1  -3  -3 779.899 17.7337  11
  -1  -3   3 759.763 17.5075   7
   1   3  -3 775.770 16.9028  12
  -1   3   3 765.012 16.6599   6
  -1   3   3 781.588 16.9610   4
  -1   3   3 779.748 17.1076   1
  -1   3   3 764.676 17.1838  13
   1   3  -3 772.655 17.3404   5
   1   3  -3 759.079 16.9889  16
   1   3  -3 774.786 17.1418   9
  -1   3   3 702.754 17.2727  14
  -1  -3  -3 5330.02 129.987   2
  -1  -3  -3 5442.23 141.835  15
   1  -3   3 5667.48 120.188  13
  -1  -3  -3 5437.51 121.922  11
   1  -3   3 5645.12 115.857  16
   1  -3   3 5802.19 123.749   4
  -1  -3  -3 5267.60 123.495  10
   1   3   3 5455.46 121.549   4
  -1   3  -3 5840.33 121.633   5
  -1   3  -3 5454.33 119.024   6
   1   3   3 5548.84 121.768   1
   1   3   3 5495.55 122.174  13
   1   3   3 5478.59 123.268  16
  -1   3  -3 5642.28 124.276   9
  -1   3  -3 5592.55 124.220   3
  -3  -3  -3 336.461 10.7775   2
  -3  -3  -3 335.230 10.2382  10
   3  -3   3 343.198 9.01662  13
   3  -3   3 339.414 8.12297   1
   3  -3   3 339.871 8.35154  16
  -3  -3  -3 346.143 9.29878   3
  -3  -3  -3 340.629 10.6392  15
  -3  -3  -3 333.623 8.76399  11
  -3   3  -3 328.345 10.0471   3
   3   3   3 343.937 9.15368   4
  -3   3  -3 343.508 11.1408  14
  -3   3  -3 339.289 8.58421   6
   3   3   3 335.568 8.24891  12
   3   3   3 344.900 9.24212  13
   3   3   3 340.101 8.91752   1
   3   3   3 351.185 9.43560  16
  -3   3  -3 340.622 9.76694   9
  -5  -3  -3 1754.18 41.4044   2
  -5  -3  -3 1727.10 39.9379   3
  -5  -3  -3 1711.77 41.2554  10
   5  -3   3 1816.16 39.4340  13
   5  -3   3 1683.35 38.4749  16
   5   3   3 1731.43 39.4577  16
  -5   3  -3 1740.40 41.1469   3
   5   3   3 1719.22 38.8184   1
   5   3   3 1789.88 39.5544  13
  -5   3  -3 1694.07 37.9520   6
  -5   3  -3 1790.69 40.1760   9
  -5   3  -3 1761.86 42.4806  14
  -7  -3  -3 58.5035 4.60546   2
   7  -3   3 64.0353 4.47950  13
  -7  -3  -3 47.5609 3.55750   9
  -7  -3  -3 59.2701 4.60032   3
   7   3   3 53.9837 3.84190  16
   7   3   3 53.6274 3.76762   1
  -7   3  -3 61.0513 4.37239   9
   7   3   3 59.9538 4.12436  13
  -7   3  -3 51.1940 4.55531   3
  -7   3  -3 60.9332 5.66570  14
   9  -3   3 489.699 16.8970   4
   9  -3   3 503.762 16.0662  13
   9   3   3 499.959 15.8816  13
  -9   3  -3 513.781 18.2218   3
   9   3   3 506.275 15.0035   1
  -9   3  -3 471.053 15.4161   9
   9   3   3 520.495 16.3507   4
 -10  -4   3 299.483 11.6220  10
 -10  -4   3 303.836 12.3065   3
  10  -4  -3 304.405 10.2628  12
  10  -4  -3 288.355 11.2023  16
  10  -4  -3 292.496 10.6522   1
  10   4  -3 300.267 10.3928  12
 -10   4   3 299.115 12.2807   3
  10   4  -3 303.471 11.5273  16
  10   4  -3 287.815 10.3851  13
 -10   4   3 304.625 15.2909  14
  10   4  -3 291.099 10.7238   1
   8  -4  -3 347.790 10.4172   5
   8  -4  -3 364.477 11.8436  16
  -8  -4   3 388.601 12.4896  10
  -8  -4   3 382.193 12.8839  14
   8  -4  -3 374.502 11.2034  12
   8   4  -3 392.130 11.3593  12
   8   4  -3 385.209 11.4706   1
  -8   4   3 367.241 10.8639   9
  -8   4   3 389.434 15.5295  14
  -8   4   3 363.225 12.5095   3
   8   4  -3 383.027 12.0895  16
   8   4  -3 363.836 10.8742  13
  -8   4   3 365.040 12.5735   8
   6  -4  -3 462.118 12.2050   5
   6  -4  -3 460.441 11.4130  11
   6  -4  -3 464.464 14.5546  15
  -6  -4   3 469.739 13.4700  10
  -6  -4   3 440.485 12.0411   2
  -6  -4   3 478.158 12.7252   7
  -6   4   3 465.708 13.4822   8
   6   4  -3 462.996 12.6702  16
  -6   4   3 457.625 15.3431  14
   6   4  -3 458.354 12.1220   1
   6   4  -3 466.893 12.3212  12
  -6   4   3 466.452 11.9725   6
   6   4  -3 456.061 11.6061   5
  -6   4   3 485.980 13.4846   3
  -6   4   3 468.402 12.3792   9
   4  -4  -3 1654.20 39.3675  15
   4  -4  -3 1671.56 36.1765   2
  -4  -4   3 1690.02 36.4561   7
  -4  -4   3 1657.20 37.0843  10
  -4  -4   3 1606.80 36.5121   2
   4  -4  -3 1677.72 35.9501  11
  -4   4   3 1618.44 37.1279   8
   4   4  -3 1681.55 35.7398   1
  -4   4   3 1669.01 35.9043   6
  -4   4   3 1679.65 36.4713   9
  -4   4   3 1590.73 38.4250  14
   4   4  -3 1695.33 36.2654  12
  -4   4   3 1599.27 36.6524   3
   4   4  -3 1620.27 35.9577   5
   4   4  -3 1682.90 36.1468  16
  -2  -4   3 971.452 22.6039   4
  -2  -4   3 995.242 23.8791  10
   2  -4  -3 1046.99 23.2695  11
   2  -4  -3 1097.20 22.4517  10
  -2  -4   3 999.360 23.1901   7
   2  -4  -3 1079.64 23.9306   2
   2  -4  -3 1060.52 26.4322  15
  -2   4   3 963.929 23.7192  14
   2   4  -3 1019.63 23.0641   5
  -2   4   3 1045.74 22.5870   6
   2   4  -3 1020.59 22.0948   1
  -2   4   3 1081.45 24.0375   8
  -2   4   3 1016.47 22.5313   4
   2   4  -3 1029.92 22.2793  16
   2   4  -3 1054.22 22.4020   9
   2   4  -3 1046.54 22.8544  12
  -2   4   3 1039.71 22.9301  13
  -2   4   3 1037.94 22.9073   3
   0  -4   3 1587.35 34.3648   4
   0  -4  -3 1555.51 34.9402  11
   0  -4  -3 1578.60 36.2704   2
   0  -4  -3 1604.18 34.7140  10
   0  -4   3 1633.99 33.0804  16
   0  -4   3 1628.25 34.8752   7
   0  -4  -3 1607.33 38.3195  15
   0   4   3 1575.20 34.2290   1
   0   4  -3 1572.35 34.3218   6
   0   4   3 1570.27 33.4625   6
   0   4  -3 1574.08 34.6044   9
   0   4  -3 1573.23 33.7592  12
   0   4   3 1579.43 33.7024   4
   0   4  -3 1568.93 34.3711   5
   0   4  -3 1547.07 33.9814   8
   0   4   3 1634.98 34.3557  13
   0   4   3 1629.23 34.6595  16
  -2  -4  -3 1110.89 26.3106  10
   2  -4   3 1143.01 25.7732   4
   2  -4   3 1144.95 24.0546  16
   2  -4   3 1122.20 24.7409  13
  -2  -4  -3 1186.62 28.0076   2
  -2  -4  -3 1096.85 25.6166  11
  -2  -4  -3 1135.21 28.9566  15
   2   4   3 1105.71 24.8035   4
   2   4   3 1122.25 25.1723   1
  -2   4  -3 1146.05 26.0636   9
   2   4   3 1122.77 25.3205  13
  -2   4  -3 1114.58 24.9811   6
   2   4   3 1141.82 25.6497  16
  -2   4  -3 1105.62 26.4144   3
  -2   4  -3 1130.04 25.7245   8
  -4  -4  -3 290.030 10.5139   2
  -4  -4  -3 286.760 7.94729  11
   4  -4   3 295.012 8.51155  13
  -4  -4  -3 310.845 10.2211  10
  -4  -4  -3 304.716 9.05757   3
  -4   4  -3 289.429 10.9609  14
  -4   4  -3 286.328 9.96403   3
   4   4   3 297.022 8.52100   4
  -4   4  -3 288.510 8.03667   6
   4   4   3 286.983 7.72756  12
   4   4   3 291.719 8.89696  16
   4   4   3 297.985 8.55847   1
   4   4   3 291.695 8.65574  13
  -4   4  -3 286.233 9.20825   9
  -6  -4  -3 373.726 11.6309   3
  -6  -4  -3 350.404 12.5694   2
   6  -4   3 324.369 10.5618  13
  -6  -4  -3 356.862 12.7800  10
   6   4   3 331.863 10.4743   4
  -6   4  -3 344.400 11.3871   9
   6   4   3 342.108 10.7985  13
   6   4   3 345.785 10.4526   1
  -6   4  -3 329.822 9.53452   6
   6   4   3 328.668 10.8705  16
  -6   4  -3 349.290 13.6948  14
  -6   4  -3 343.248 12.5507   3
  -8  -4  -3 121.417 7.05052   2
   8  -4   3 114.147 6.70142   4
   8  -4   3 119.533 6.13798  13
  -8   4  -3 120.940 6.35441   9
   8   4   3 121.807 6.41101  13
  -8   4  -3 109.799 7.23497   3
  -8   4  -3 117.892 8.73027  14
   8   4   3 114.844 6.18660   4
   8   4   3 119.816 5.99895   1
   8   4   3 119.636 6.36594  16
 -11  -5   3 285.119 12.2989   3
  11  -5  -3 268.478 10.3683   1
 -11  -5   3 280.379 11.6197  10
 -11   5   3 287.665 12.6133   3
  11   5  -3 276.067 10.6805   1
 -11   5   3 292.178 15.8757  14
  11   5  -3 271.017 10.0469  12
  -9  -5   3 764.546 21.5861  10
   9  -5  -3 762.762 19.6375  12
   9  -5  -3 751.654 20.8398  16
   9   5  -3 711.655 19.1685  13
  -9   5   3 761.179 25.9441  14
   9   5  -3 735.112 19.6513  12
  -9   5   3 727.282 21.6181   8
   9   5  -3 736.271 19.8248   1
  -9   5   3 728.532 21.6394   3
  -9   5   3 733.359 19.4815   9
   9   5  -3 731.451 20.6759  16
  -7  -5   3 887.146 23.2620  14
  -7  -5   3 915.909 22.2380   7
   7  -5  -3 886.431 21.4741   5
  -7  -5   3 867.890 23.1247  10
   7   5  -3 902.897 22.3778  16
   7   5  -3 898.940 21.6481   1
  -7   5   3 919.086 22.0053   9
   7   5  -3 876.535 21.7740  12
  -7   5   3 894.003 21.3083   6
   7   5  -3 836.530 20.4551   5
   7   5  -3 821.979 20.7238  13
  -7   5   3 871.696 26.1888  14
  -7   5   3 881.930 23.1899   3
  -7   5   3 894.064 23.4887   8
  -5  -5   3 1520.47 33.4116   7
   5  -5  -3 1471.33 36.5710  15
   5  -5  -3 1449.59 32.4871  11
  -5  -5   3 1417.63 33.5494   2
  -5  -5   3 1452.99 34.2447  10
   5  -5  -3 1477.07 33.0061   2
   5   5  -3 1491.54 33.1473  12
   5   5  -3 1492.46 33.1681  16
   5   5  -3 1447.63 32.5773   5
  -5   5   3 1429.21 36.3188  14
  -5   5   3 1503.23 32.7463   6
  -5   5   3 1496.72 34.1509   3
  -5   5   3 1467.38 33.3514   9
   5   5  -3 1450.59 32.5892   1
  -5   5   3 1495.04 34.5432   8
   3  -5  -3 1092.08 23.6410  10
  -3  -5   3 1064.68 25.4458  10
  -3  -5   3 1086.28 24.5635   7
   3  -5  -3 1106.10 28.1600  15
  -3  -5   3 1011.02 23.5288   4
   3  -5  -3 1070.08 24.3425  11
   3  -5  -3 1101.60 25.0364   2
   3   5  -3 1073.92 23.5551   1
  -3   5   3 1079.34 25.5092   8
  -3   5   3 1037.23 25.9716  14
   3   5  -3 1094.00 23.9061  16
   3   5  -3 1088.04 24.3329  12
  -3   5   3 1105.65 24.0235   6
   3   5  -3 1065.98 24.3197   5
  -3   5   3 1071.74 24.6745   3
  -1  -5   3 1204.62 27.0793   7
   1  -5  -3 1221.78 27.1633  11
   1  -5  -3 1234.45 28.3665   2
   1  -5  -3 1238.50 26.6954  10
  -1  -5   3 1196.69 28.0519  10
   1  -5  -3 1238.02 30.8416  15
  -1  -5   3 1199.19 26.2559   4
  -1   5   3 1221.90 26.5315   1
  -1   5   3 1159.16 25.6395   4
   1   5  -3 1183.88 26.7812   5
   1   5  -3 1183.45 26.3241  12
   1   5  -3 1153.76 25.8822   8
  -1   5   3 1198.53 26.0202   6
   1   5  -3 1206.84 26.5695   9
  -1   5   3 1198.40 26.4213  13
  -1  -5  -3 710.889 17.7300  11
  -1  -5  -3 737.964 21.2152  15
   1  -5   3 724.246 17.1977   4
  -1  -5  -3 754.582 18.1339  10
  -1  -5  -3 759.683 19.9089   2
   1  -5   3 744.703 17.7768   7
  -1   5  -3 722.081 17.2340   8
   1   5   3 736.988 17.0924  13
   1   5   3 755.180 17.6295  16
  -1   5  -3 754.033 17.8354   9
   1   5   3 735.460 17.1367   1
   1   5   3 704.332 15.9900   6
  -1   5  -3 745.751 17.1651   6
   1   5   3 724.676 16.2335   4
   3  -5   3 852.760 19.8552  13
  -3  -5  -3 820.876 23.4206  15
  -3  -5  -3 907.746 23.6003   2
  -3  -5  -3 913.161 22.2838  10
   3  -5   3 867.145 21.0023   4
  -3  -5  -3 828.650 20.4727  11
   3   5   3 886.449 20.5158   1
  -3   5  -3 859.762 21.2466   8
   3   5   3 870.833 20.4903  13
   3   5   3 847.175 19.7431   4
  -3   5  -3 904.258 21.5914   9
  -3   5  -3 862.028 22.1769   3
   3   5   3 907.598 21.0934  16
  -3   5  -3 846.884 20.1146   6
   5  -5   3 540.635 15.3241   4
  -5  -5  -3 538.437 16.9442   2
  -5  -5  -3 528.639 16.5001  10
  -5  -5  -3 549.844 15.2102   3
   5  -5   3 514.994 14.1326  13
  -5   5  -3 550.424 13.9344   6
   5   5   3 520.399 14.9430  16
  -5   5  -3 553.388 15.5050   9
   5   5   3 534.278 14.3371   1
   5   5   3 565.618 14.1134  12
  -5   5  -3 529.892 16.5291   3
   5   5   3 534.707 14.5268  13
  -5   5  -3 544.620 18.1821  14
  -7  -5  -3 660.372 20.4760   2
   7  -5   3 654.540 18.0368  13
   7  -5   3 654.011 19.3577   4
  -7   5  -3 662.272 20.8663   3
   7   5   3 658.167 18.0787  13
   7   5   3 657.898 18.5692  16
  -7   5  -3 657.269 18.9110   9
  -7   5  -3 665.383 22.8043  14
   7   5   3 646.308 17.7770   1
   9  -5   3 281.749 11.6091   4
  -9   5  -3 276.887 12.5747   3
  -9   5  -3 275.980 10.9848   9
   9   5   3 278.306 10.0926   1
   9   5   3 282.374 10.5872  13
  10  -6  -3 68.8939 4.87112   1
 -10  -6   3 64.8997 5.70304  10
  10  -6  -3 68.9160 5.01918  16
 -10   6   3 78.7598 6.62708   8
 -10   6   3 69.4732 4.67181   9
  10   6  -3 56.4803 4.23630  12
 -10   6   3 74.1969 6.10758   3
 -10   6   3 71.5555 8.06257  14
  10   6  -3 66.4438 4.92734   1
  -8  -6   3 239.799 10.0619  10
  -8  -6   3 244.285 8.92961   7
   8  -6  -3 247.746 8.35260   5
  -8   6   3 244.147 8.34986   6
  -8   6   3 255.391 10.5164   8
   8   6  -3 233.296 8.46183   1
  -8   6   3 236.004 12.2050  14
   8   6  -3 238.174 9.04946  16
   8   6  -3 256.243 8.91677  12
  -8   6   3 241.198 8.75106   9
  -8   6   3 248.393 9.98492   3
   6  -6  -3 628.467 19.7079  15
   6  -6  -3 637.099 15.6952  11
  -6  -6   3 626.321 17.8574  10
  -6  -6   3 653.158 16.6461   7
  -6  -6   3 596.304 16.8950   2
  -6   6   3 646.760 16.0101   6
   6   6  -3 603.521 15.7976   1
   6   6  -3 630.858 16.3614  12
  -6   6   3 657.391 17.7695   3
   6   6  -3 633.024 16.4513  16
  -6   6   3 637.692 18.0378   8
  -6   6   3 613.368 20.0345  14
  -6   6   3 644.397 16.7061   9
  -4  -6   3 287.211 9.47593  10
   4  -6  -3 290.545 11.4778  15
   4  -6  -3 289.507 8.82009   2
  -4  -6   3 281.365 8.45581   7
  -4  -6   3 279.128 9.24265   2
  -4   6   3 303.804 8.13165   6
  -4   6   3 269.779 10.1195  14
   4   6  -3 278.647 8.16315   5
   4   6  -3 287.381 8.31814  12
  -4   6   3 279.313 9.41566   8
   4   6  -3 277.231 8.03228  16
  -4   6   3 281.888 8.93888   3
   4   6  -3 276.276 7.67224   1
  -2  -6   3 1188.43 26.9610   7
  -2  -6   3 1147.89 25.9285   4
   2  -6  -3 1194.30 26.3886  10
   2  -6  -3 1210.23 27.0567  11
  -2  -6   3 1197.50 28.2721  10
   2  -6  -3 1178.48 31.0154  15
   2  -6  -3 1211.50 28.1795   2
   2   6  -3 1170.34 25.8041  16
  -2   6   3 1161.20 26.1143   6
   2   6  -3 1177.63 26.1394   9
   2   6  -3 1186.90 26.5620  12
  -2   6   3 1131.90 27.4574  14
  -2   6   3 1228.78 28.2863   8
   0  -6  -3 657.956 16.3682  11
   0  -6  -3 660.969 16.3899  10
   0  -6   3 653.323 16.2143   7
   0  -6  -3 677.333 18.1801   2
   0  -6   3 640.054 15.3270   4
   0  -6  -3 651.561 19.8568  15
   0  -6   3 694.094 17.6894  10
   0   6   3 655.144 15.5048  13
   0   6  -3 643.799 15.5161   8
   0   6   3 668.342 15.7375   1
   0   6   3 653.597 14.9347   6
   0   6  -3 652.690 16.0585   9
   0   6  -3 669.869 15.9120   6
   2  -6   3 264.025 8.23393   7
  -2  -6  -3 251.851 8.06914  11
  -2  -6  -3 272.146 8.84501  10
   2  -6   3 265.692 7.78704   4
  -2  -6  -3 260.114 10.2618   2
  -2  -6  -3 250.008 10.9932  15
  -2   6  -3 248.125 7.95444   8
  -2   6  -3 255.227 8.98390   3
  -2   6  -3 260.060 7.62078   6
   2   6   3 251.193 7.45441  13
   2   6   3 259.641 7.66397   1
  -2   6  -3 261.423 8.30354   9
   2   6   3 257.759 8.08579  16
  -4  -6  -3 508.474 14.0576  11
  -4  -6  -3 558.441 17.4503   2
  -4  -6  -3 591.922 16.8394  10
   4  -6   3 571.421 15.3029   4
  -4   6  -3 543.071 15.5386   8
  -4   6  -3 541.523 14.1020   6
   4   6   3 563.907 14.5772   1
   4   6   3 555.752 14.4401  13
   4   6   3 552.033 15.1156  16
  -4   6  -3 551.338 15.4083   9
  -4   6  -3 547.606 16.5649   3
  -6  -6  -3 56.7396 5.40899  10
  -6  -6  -3 51.5414 5.25080   2
   6  -6   3 60.0803 4.58500   4
   6   6   3 53.9278 3.94971  16
   6   6   3 60.2470 4.04882   1
  -6   6  -3 58.7736 4.57040   9
  -6   6  -3 52.3648 5.02519   3
   6   6   3 55.2213 3.87709  13
  -6   6  -3 57.5778 3.58704   6
   8  -6   3 85.4519 6.10933   4
  -8  -6  -3 100.491 6.88139   2
  -8   6  -3 93.4053 5.85557   9
   8   6   3 84.4748 5.37367  13
   8   6   3 87.0762 5.15474   1
  -8   6  -3 91.6081 7.14707   3
  -9  -7   3 526.560 17.3996  10
   9  -7  -3 532.841 15.1252  12
   9  -7  -3 505.541 15.8694  16
  -9   7   3 532.858 15.6661   9
   9   7  -3 510.202 15.2206   1
   9   7  -3 504.880 15.8942  16
  -9   7   3 523.941 17.3377   3
  -9   7   3 541.575 18.1354   8
  -9   7   3 498.462 20.8646  14
   9   7  -3 518.888 15.4460  12
  -7  -7   3 28.6698 4.10105  10
   7  -7  -3 34.1716 2.82434  11
  -7  -7   3 31.5686 3.32739   7
  -7   7   3 35.1236 3.43434   3
   7   7  -3 30.4844 3.04812  16
  -7   7   3 33.7143 3.31276   9
   7   7  -3 29.3002 2.58929   1
  -7   7   3 30.8175 3.00623   6
  -7   7   3 30.0792 3.96394   8
   7   7  -3 31.1906 2.80630  12
  -7   7   3 34.0309 4.74067  14
  -5  -7   3 1386.31 33.2754  10
   5  -7  -3 1329.04 36.0175  15
  -5  -7   3 1302.69 32.5632   2
  -5  -7   3 1318.94 31.3177   7
   5   7  -3 1337.51 31.0775  16
  -5   7   3 1382.20 30.9349   6
  -5   7   3 1376.51 32.6065   3
   5   7  -3 1336.05 30.4738   1
   5   7  -3 1372.74 31.3899  12
  -5   7   3 1321.19 34.9142  14
  -5   7   3 1426.23 33.5115   8
   3  -7  -3 343.086 13.4309  15
  -3  -7   3 380.298 11.7450   2
  -3  -7   3 353.065 11.3502  10
  -3  -7   3 343.536 9.94960   7
   3  -7  -3 353.775 11.0454   2
   3   7  -3 354.547 9.03369   1
   3   7  -3 366.956 10.0214  12
   3   7  -3 347.896 9.33281  16
  -3   7   3 356.181 9.51876   6
  -3   7   3 374.902 11.5218   8
  -3   7   3 336.838 11.2924  14
   1  -7  -3 3073.26 65.7192  11
   1  -7  -3 3018.63 65.2462  10
  -1  -7   3 3134.73 67.3822  10
  -1  -7   3 3091.72 65.5014   7
   1  -7  -3 2973.15 70.4999  15
   1  -7  -3 3142.40 67.6691   2
   1   7  -3 2999.28 64.7093  12
   1   7  -3 2999.31 65.1549   6
  -1   7   3 3044.17 66.8411   8
   1   7  -3 3008.57 64.9293   9
  -1   7   3 2969.55 64.2443   6
  -1   7   3 2937.54 64.5493  13
   1  -7   3 591.622 14.5912   4
  -1  -7  -3 566.979 16.9492   2
  -1  -7  -3 541.882 18.4056  15
  -1  -7  -3 549.566 14.6209  11
  -1  -7  -3 551.511 14.9991  10
   1  -7   3 538.730 14.4467   7
   1   7   3 533.960 13.4626  13
  -1   7  -3 536.080 14.3505   9
   1   7   3 549.393 14.3790  16
  -1   7  -3 509.428 13.8623   8
   1   7   3 539.935 13.8243   1
  -1   7  -3 550.407 13.9923   6
   3  -7   3 1760.08 40.1660   7
  -3  -7  -3 1653.64 44.1761  15
  -3  -7  -3 1767.56 43.2442   2
   3  -7   3 1787.94 39.5729   4
  -3  -7  -3 1771.68 41.2671  10
  -3  -7  -3 1720.98 39.7726  11
   3   7   3 1794.96 39.3079   1
   3   7   3 1756.89 38.9457  13
   3   7   3 1777.32 40.0068  16
  -3   7  -3 1754.23 39.1271   6
  -3   7  -3 1762.35 40.3690   9
  -3   7  -3 1658.16 39.9721   8
  -3   7  -3 1773.39 41.8280   3
  -5  -7  -3 97.8785 6.44418  10
   5  -7   3 99.5166 5.32445   4
  -5  -7  -3 95.5492 6.95916   2
   5   7   3 92.5889 4.87699   1
  -5   7  -3 93.9710 6.35526   3
   5   7   3 93.1330 5.25798  16
   5   7   3 92.0892 4.54252  13
  -5   7  -3 98.6649 5.44729   9
  -5   7  -3 97.0096 4.53226   6
   7  -7   3 441.306 14.7361   4
  -7  -7  -3 433.404 15.9950   2
  -7  -7  -3 455.994 16.3608  10
  -7   7  -3 442.361 12.8428   6
  -7   7  -3 436.475 14.5083   9
   7   7   3 453.779 13.6933   1
  -7   7  -3 437.824 16.4317   3
   7   7   3 430.830 13.3435  13
 -10  -8   3 33.1392 4.66605  10
 -10   8   3 40.5186 5.58115   8
 -10   8   3 31.5121 5.42735  14
 -10   8   3 38.7517 4.50165   3
  10   8  -3 32.8660 3.53770  12
  10   8  -3 37.9388 4.01530   1
  -8  -8   3 135.768 6.61518   7
  -8  -8   3 140.250 8.27676  10
   8  -8  -3 139.746 6.22923   5
  -8   8   3 127.089 5.84321   6
  -8   8   3 123.321 9.03324  14
  -8   8   3 128.208 7.64235   8
  -8   8   3 132.271 7.61938   3
   8   8  -3 124.843 6.25810  16
   8   8  -3 130.341 6.41531  12
   8   8  -3 125.113 5.80104   1
   6  -8  -3 282.281 13.2464  15
  -6  -8   3 287.575 9.45159   7
  -6  -8   3 290.594 11.0130   2
  -6  -8   3 295.635 11.7086  10
   6  -8  -3 293.450 9.39904  11
  -6   8   3 292.359 11.3856   8
   6   8  -3 298.736 9.69598  12
   6   8  -3 280.000 9.46298  16
  -6   8   3 324.694 9.56310   6
  -6   8   3 295.612 10.8031   3
  -6   8   3 276.336 12.6013  14
   6   8  -3 282.389 8.95650   1
  -4  -8   3 43.5645 3.18944   7
   4  -8  -3 31.7755 4.59834  15
  -4  -8   3 50.2147 4.53382  10
   4  -8  -3 32.8057 3.04404   2
  -4  -8   3 39.1109 3.89377   2
  -4   8   3 33.0658 3.59116  14
   4   8  -3 42.5497 2.48471   1
  -4   8   3 31.5132 2.65564   6
   4   8  -3 42.1467 3.09194  12
  -4   8   3 39.2836 3.72149   8
   2  -8  -3 451.088 13.7634   2
   2  -8  -3 415.000 11.7460  10
  -2  -8   3 442.643 13.6941  10
  -2  -8   3 434.177 12.0029   7
   2  -8  -3 441.507 12.3785  11
   2  -8  -3 418.369 16.1675  15
  -2   8   3 455.290 13.6260   8
   2   8  -3 443.763 11.8393  12
   2   8  -3 430.721 11.9480   6
  -2   8   3 433.802 11.3387   6
   0  -8   3 178.537 7.69925  10
   0  -8  -3 176.867 8.32452   2
   0  -8  -3 177.415 6.76408  10
   0  -8  -3 173.546 6.70390  11
   0  -8  -3 169.586 9.53404  15
   0  -8   3 174.088 6.30139   7
   0   8   3 175.969 6.08904   1
   0   8   3 166.929 5.55008  13
   0   8  -3 174.287 6.34576   9
   0   8   3 167.596 5.30016   6
   0   8  -3 171.208 6.13677   6
   0   8   3 167.827 7.25252   8
  -2  -8  -3 99.0340 7.28009  15
  -2  -8  -3 114.583 5.59233  11
  -2  -8  -3 113.033 7.54000   2
  -2  -8  -3 109.983 5.88313  10
   2  -8   3 109.746 5.17994   7
   2   8   3 109.117 5.20513  16
  -2   8  -3 113.592 5.42329   9
   2   8   3 102.818 4.71468   1
   2   8   3 111.332 4.42848  13
  -2   8  -3 99.2051 5.19671   8
  -2   8  -3 114.634 4.98325   6
  -4  -8  -3 391.505 14.9606   2
   4  -8   3 363.284 11.8912   7
  -4  -8  -3 393.802 13.2067  10
  -4   8  -3 380.806 12.3454   9
  -4   8  -3 367.273 12.4751   8
   4   8   3 368.447 10.7748  13
  -4   8  -3 365.933 10.9993   6
   4   8   3 379.931 11.3564   1
   4   8   3 368.008 11.7690  16
  -6  -8  -3 66.2053 6.20735   2
  -6  -8  -3 64.8711 5.84857  10
   6  -8   3 63.7039 4.76633   7
   6   8   3 61.7018 4.09759   1
  -6   8  -3 67.7687 6.02399   3
   6   8   3 63.7126 4.50066  16
  -6   8  -3 66.6269 5.17374   9
   6   8   3 53.8330 4.62011  13
  -6   8  -3 65.3047 4.21158   6
  -9  -9   3 315.393 13.4009  10
  -9   9   3 307.080 15.7980  14
  -9   9   3 303.643 12.4672   3
   9   9  -3 299.783 10.6522   1
   9   9  -3 299.999 11.0231  12
  -9   9   3 328.998 13.9002   8
  -7  -9   3 878.390 22.5482   7
  -7  -9   3 867.282 25.3614  10
   7  -9  -3 900.568 22.4437  11
  -7   9   3 809.870 27.2782  14
   7   9  -3 903.437 22.9497  12
  -7   9   3 879.409 22.2125   6
  -7   9   3 917.575 25.8585   8
   7   9  -3 835.384 21.8053   1
   7   9  -3 837.773 22.5593  16
  -7   9   3 897.152 24.8235   3
   5  -9  -3 446.550 12.9481  11
   5  -9  -3 436.345 13.7246   2
  -5  -9   3 413.089 14.4554   2
  -5  -9   3 438.811 12.5430   7
  -5  -9   3 423.564 14.5907  10
  -5   9   3 455.114 14.7927   8
  -5   9   3 428.287 12.2253   6
   5   9  -3 429.535 12.7960  12
  -5   9   3 406.216 15.5053  14
  -3  -9   3 708.188 19.9301  10
  -3  -9   3 677.045 20.2379   2
   3  -9  -3 703.293 19.7746   2
   3  -9  -3 713.464 18.4085  11
  -3  -9   3 689.209 17.7390   7
   3  -9  -3 686.671 23.4645  15
  -3   9   3 701.761 19.9107   8
  -3   9   3 687.952 17.3089   6
   3   9  -3 690.287 17.7855   6
   3   9  -3 698.166 17.8363  12
   1  -9  -3 178.043 6.72963  10
  -1  -9   3 178.971 6.71169   7
   1  -9  -3 188.616 10.6342  15
  -1  -9   3 181.647 8.05730  10
   1  -9  -3 191.309 8.78135   2
   1  -9  -3 176.224 7.07070  11
   1   9  -3 184.450 6.63118   9
  -1   9   3 177.066 5.96091   6
   1   9  -3 176.212 6.67943   6
  -1   9   3 197.010 8.36929   8
   1  -9   3 449.587 13.1236   7
  -1  -9  -3 458.925 13.9731  10
  -1  -9  -3 460.813 18.0534  15
  -1  -9  -3 465.404 16.2350   2
  -1  -9  -3 453.587 13.6614  11
   1  -9   3 467.861 14.9540  10
   1   9   3 454.431 12.6443   1
  -1   9  -3 483.360 13.5840   9
  -1   9  -3 458.955 12.9732   6
  -3  -9  -3 162.760 7.27866  11
  -3  -9  -3 169.117 9.35307   2
  -3  -9  -3 170.392 7.76301  10
   3  -9   3 167.290 8.29918  10
   3  -9   3 166.173 7.02982   7
   3   9   3 164.851 7.09164  16
  -3   9  -3 148.968 6.93866   8
   3   9   3 166.699 6.63445   1
  -3   9  -3 164.447 6.49897   6
  -3   9  -3 158.588 7.23217   9
   5  -9   3 585.885 17.2700   7
  -5  -9  -3 590.906 20.1851   2
  -5  -9  -3 635.884 19.4762  10
  -5   9  -3 603.723 17.9318   9
  -5   9  -3 586.780 16.2946   6
   5   9   3 563.164 17.1011  16
   5   9   3 594.828 16.6347   1
  -7  -9  -3 252.773 11.7148  10
   7  -9   3 229.447 9.61249   7
   7   9   3 239.301 9.17761   1
  -7   9  -3 234.642 8.62088   6
  -7   9  -3 243.957 10.4923   9
  -8 -10   3 10.5740 3.55461  10
   8 -10  -3 12.7606 2.67271   5
  -8  10   3 15.1962 3.33980   3
   8  10  -3 8.99442 2.10606   1
  -8  10   3 10.8072 3.72792  14
  -8  10   3 11.3149 3.57044   8
   8  10  -3 11.0655 2.23741  12
  -8  10   3 12.0044 2.58872   6
  -6 -10   3 86.9020 6.54921  10
   6 -10  -3 86.4793 5.13301  11
  -6 -10   3 85.6167 6.77495   2
  -6  10   3 85.5830 6.27141   8
   6  10  -3 86.1901 4.75876   6
  -6  10   3 82.2995 4.86805   6
  -6  10   3 79.4725 6.89030  14
   6  10  -3 88.5078 5.24763  12
  -4 -10   3 8.53207 1.95475   7
  -4 -10   3 4.47377 2.11558   2
  -4 -10   3 10.3272 3.08993  10
   4 -10  -3 4.66848 2.38869   2
   4 -10  -3 6.96407 1.93181  11
  -4  10   3 6.90576 1.55882   6
   4  10  -3 5.49942 1.81505  12
  -4  10   3 10.5580 2.86118   8
   4  10  -3 4.03947 1.59961   6
   2 -10  -3 134.560 7.59279   2
  -2 -10   3 130.206 7.06283  10
   2 -10  -3 129.305 6.38016  11
  -2 -10   3 121.186 7.41653   2
  -2 -10   3 120.546 5.44416   7
  -2  10   3 130.357 7.19445   8
  -2  10   3 127.248 5.22338   6
   2  10  -3 127.727 5.77799   6
   0 -10  -3 25.5791 3.36995  11
   0 -10   3 22.2234 3.32079  10
   0 -10   3 17.7383 2.48341   7
   0 -10  -3 18.8826 2.84106  10
   0 -10  -3 19.6644 3.99360   2
   0  10   3 23.0101 3.62559   8
   0  10  -3 27.3277 2.87464   9
   0  10  -3 24.7232 2.83165   6
  -2 -10  -3 3.96216 2.14594  10
   2 -10   3 1.41976 1.40772   7
  -2 -10  -3 1.26584 3.17844   2
   2 -10   3 0.60591 1.40015  10
  -2 -10  -3 0.84319 2.05861  11
  -2  10  -3 0.73669 1.07434   6
   2  10   3 2.17615 1.56601   1
  -2  10  -3 2.52919 1.72191   9
  -4 -10  -3 101.832 6.80182  10
   4 -10   3 92.5451 5.31106   7
  -4 -10  -3 105.493 8.37920   2
   4 -10   3 103.442 6.99319  10
  -4  10  -3 97.8837 5.80159   9
   4  10   3 100.409 5.83111  16
  -4  10  -3 97.4716 5.20234   6
   4  10   3 102.630 5.28066   1
  -6 -10  -3 8.46768 3.17637   2
  -6 -10  -3 6.51354 2.23885  10
   6  10   3 9.98592 2.43224   1
  -6  10  -3 10.2347 2.30058   6
  -6  10  -3 9.97993 2.38170   9
   7 -11  -3 57.0131 4.38704  11
  -7 -11   3 56.3230 5.72138  10
  -7  11   3 45.2239 4.17150   6
  -7  11   3 54.9151 5.42108   8
   7  11  -3 51.0882 4.48430  12
  -7  11   3 50.2503 5.76701  14
  -5 -11   3 420.321 16.1020   2
   5 -11  -3 424.229 14.8272   2
   5 -11  -3 447.386 14.1414  11
  -5 -11   3 431.617 15.9976  10
  -5  11   3 443.255 15.8892   8
   5  11  -3 426.146 12.9431   6
  -5  11   3 430.593 12.9109   6
   5  11  -3 414.291 13.3542  12
  -3 -11   3 263.930 11.8686   2
   3 -11  -3 273.070 10.0253  11
  -3 -11   3 270.657 11.6620  10
   3 -11  -3 261.592 11.0650   2
   3  11  -3 260.035 9.13471   6
  -3  11   3 267.897 8.80645   6
  -3  11   3 268.310 11.2394   8
  -1 -11   3 1022.49 27.9276  10
   1 -11  -3 994.602 28.4986   2
  -1 -11   3 980.887 28.3232   2
   1 -11  -3 1004.87 25.9522  11
   1  11  -3 1030.76 25.3950   6
  -1  11   3 1025.79 27.6706   8
  -1  11   3 990.182 24.0048   6
  -1 -11  -3 447.304 17.0907   2
  -1 -11  -3 437.656 14.1646  11
   1 -11   3 468.884 15.9096  10
  -1  11  -3 447.128 13.8829   9
  -1  11  -3 449.914 13.6096   6
   1  11   3 447.474 15.4199   8
  -3 -11  -3 637.892 22.1150   2
  -3 -11  -3 630.862 19.1032  10
  -3 -11  -3 603.511 18.0751  11
   3 -11   3 635.706 19.8268  10
  -3  11  -3 644.588 18.7192   9
   3  11   3 609.425 19.1882   8
   3  11   3 616.099 17.2411   1
  -3  11  -3 628.026 17.5291   6
  -5 -11  -3 148.660 9.73458   2
   5 -11   3 167.384 8.84011  10
  -5 -11  -3 151.271 8.59679  10
  -5  11  -3 153.823 8.10285   9
   5  11   3 153.348 7.17466   1
  -5  11  -3 141.276 6.71291   6
  -6 -12   3 29.6375 5.28583   2
   6 -12  -3 34.2799 3.86993  11
  -6  12   3 34.2856 3.59309   6
  -6  12   3 39.6265 4.94070   8
  -4 -12   3 264.514 12.2586  10
  -4 -12   3 280.790 12.9459   2
   4 -12  -3 282.358 10.5935  11
   4 -12  -3 254.176 11.5929   2
  -4  12   3 287.882 12.0689   8
  -4  12   3 270.757 9.49313   6
   4  12  -3 262.868 9.47326   6
  -2 -12   3 37.5511 5.33274   2
  -2 -12   3 36.4006 4.88082  10
   2 -12  -3 33.3102 4.89186   2
   2 -12  -3 33.5487 4.05684  11
   2  12  -3 36.3782 3.58324   6
  -2  12   3 27.5306 4.25691   8
  -2  12   3 30.6365 3.05641   6
   0 -12  -3 143.625 7.56654  11
   0 -12   3 140.049 8.90794   2
   0 -12   3 138.378 8.38358  10
   0 -12  -3 146.732 9.00476   2
   0  12  -3 152.376 6.97633   6
   0  12   3 139.879 8.09627   8
  -2 -12  -3 152.094 10.3094   2
   2 -12   3 186.551 9.46921  10
   2 -12   3 167.969 9.61662   2
  -2 -12  -3 152.746 7.83465  11
   2  12   3 157.890 8.67338   8
  -2  12  -3 164.135 7.50125   6
  -2  12  -3 172.469 7.81046   9
   3 -13  -3 5.17756 2.51836   2
  -3 -13   3 4.44663 3.27695   2
   3 -13  -3 9.41993 3.06107  11
  -3 -13   3 7.42378 3.38599  10
  -3  13   3 7.25036 1.97666   6
  -3  13   3 6.82768 2.39954   8
   3  13  -3 5.62558 1.96048   6
   1 -13  -3 581.306 20.3384   2
   1 -13  -3 574.195 17.7033  11
  -1 -13   3 562.028 19.9998   2
  -1 -13   3 568.875 19.0889  10
  -1  13   3 569.319 18.9220   8
   1  13  -3 578.276 16.8422   6
   1 -13   3 8.50296 3.13486  10
  -1 -13  -3 5.57940 3.01637   2
   1 -13   3 3.63439 2.19071   2
  -1 -13  -3 3.09428 2.55906  11
  -1  13  -3 5.04565 2.15873   6
   1  13   3 4.67264 2.55520   8
 -12   0   4 1604.06 41.7927   3
  12   0  -4 1573.12 38.1713  12
 -12   0   4 1633.24 44.7660  14
  12   0  -4 1496.43 38.8829   1
 -10   0   4 102.418 7.75386  14
  10   0  -4 103.352 5.64269   1
  10   0  -4 96.3506 6.11123  16
 -10   0   4 102.290 6.48352   3
  10   0  -4 101.771 5.33236  12
   8   0  -4 3204.67 69.3806  12
   8   0  -4 3214.62 69.5383   1
  -8   0   4 3245.37 73.4683  14
   8   0  -4 3144.13 68.1842   5
  -8   0   4 3172.93 70.6381   3
   8   0  -4 3153.58 70.2571  16
   6   0  -4 94.6865 4.13622  12
  -6   0   4 99.6452 5.40293  14
  -6   0   4 99.1301 3.99047   7
   6   0  -4 96.1589 4.34588  15
  -6   0   4 95.9145 3.90168   8
   6   0  -4 123.541 4.74164  16
  -6   0   4 95.9649 4.28316   3
  -6   0   4 93.9811 3.54985  10
   6   0  -4 97.1737 3.75596   5
  -4   0   4 2786.28 62.7704   8
   4   0  -4 2889.68 67.9254  15
   4   0  -4 2958.38 63.4338   5
   4   0  -4 2844.73 63.0800  11
   4   0  -4 2910.29 60.9648  12
  -4   0   4 2808.16 62.8838  10
  -4   0   4 2935.82 60.8122   7
  -4   0   4 2855.13 61.2218   4
   2   0  -4 12.1371 1.67615  15
   2   0  -4 12.2832 1.19277   5
  -2   0   4 14.2931 1.05167  13
   2   0  -4 18.1797 1.21380  11
  -2   0   4 14.9788 0.98713   7
  -2   0   4 13.2264 1.13027   4
   2   0  -4 11.6738 0.93344  12
   2   0  -4 13.3282 1.03442   2
   0   0   4 2663.69 56.2548   4
   0   0   4 2573.00 57.2972  13
   0   0  -4 2693.99 64.0002  15
   0   0  -4 2594.94 59.4852   2
   0   0  -4 2752.99 57.0052   5
   0   0   4 2605.21 56.2908   1
   0   0  -4 2651.53 57.9823  11
   2   0   4 574.099 13.1717  16
  -2   0  -4 553.653 13.5094   3
  -2   0  -4 581.194 13.4904  11
   2   0   4 575.107 13.7495  13
  -2   0  -4 570.506 15.0153   2
   2   0   4 564.923 14.0744   4
   2   0   4 551.574 12.8408   1
   4   0   4 2709.33 57.4695  13
  -4   0  -4 2494.94 57.5415   3
   4   0   4 2651.85 56.7053  16
  -4   0  -4 2567.38 57.9274   9
   4   0   4 2714.92 58.1092   4
  -4   0  -4 2591.29 56.1558  11
   4   0   4 2686.70 56.2644   1
  -4   0  -4 2634.01 59.1241   2
   6   0   4 391.212 12.6257   4
  -6   0  -4 390.084 12.7238   3
   6   0   4 385.306 10.9034   1
   6   0   4 404.683 12.2774  13
   6   0   4 401.316 11.4670  16
  -6   0  -4 383.295 12.2689   9
   8   0   4 1014.54 27.4782   4
   8   0   4 1027.38 26.7151  13
  -8   0  -4 987.654 26.2660   9
  -8   0  -4 988.591 27.7965   3
 -11  -1   4 60.7336 6.36716  14
 -11  -1   4 56.4244 5.48864   3
  11  -1  -4 56.3144 4.81297   1
  11  -1  -4 54.6516 4.70582  16
  11  -1  -4 50.7218 3.98013  12
 -11   1   4 56.5960 5.17045   3
 -11   1   4 60.5321 6.83391  14
  11   1  -4 55.5490 5.23781  16
  11   1  -4 50.7922 4.01040  12
  11   1  -4 53.2517 4.77200   1
   9  -1  -4 26.0361 3.42868  16
   9  -1  -4 20.1472 2.78956   1
  -9  -1   4 28.8946 3.72821   3
   9  -1  -4 21.3998 2.79075  12
  -9  -1   4 25.5174 4.04784  14
  -9  -1   4 22.6405 2.55171  10
  -9   1   4 24.5198 3.99951  14
   9   1  -4 32.8900 3.30315  12
   9   1  -4 25.6362 3.35920  16
  -9   1   4 20.4266 3.07198   3
   9   1  -4 23.4271 2.99985   1
  -7  -1   4 551.804 14.2178   7
   7  -1  -4 541.146 13.5119   5
   7  -1  -4 536.236 14.0319  12
   7  -1  -4 533.202 14.6755  16
  -7  -1   4 549.277 16.4968  14
  -7  -1   4 532.440 13.7921  10
   7   1  -4 541.830 14.1108  12
  -7   1   4 547.888 16.8193  14
   7   1  -4 523.577 13.2726   5
  -7   1   4 519.494 14.5524   3
  -7   1   4 514.688 14.2177   8
   7   1  -4 524.203 13.9436   1
   7   1  -4 530.589 14.4651  16
   5  -1  -4 17.0537 1.52008  12
  -5  -1   4 12.6516 1.27854  10
   5  -1  -4 17.5724 2.27967  15
   5  -1  -4 14.0251 1.09558  11
  -5  -1   4 13.1942 1.59463   7
   5  -1  -4 20.5352 1.63251   5
  -5  -1   4 13.9250 1.14314   8
   5   1  -4 14.3178 1.61714  16
  -5   1   4 12.7820 2.14847  14
  -5   1   4 13.7244 1.32550   8
   5   1  -4 12.5715 1.41885   5
   5   1  -4 14.8424 1.74475  15
  -5   1   4 18.2399 1.51976   3
   5   1  -4 14.0266 0.89232  11
  -5   1   4 13.4944 1.40955   7
   5   1  -4 16.4359 1.73757  12
  -3  -1   4 272.451 7.30064   4
  -3  -1   4 271.955 7.08140   7
   3  -1  -4 263.442 6.52907   2
   3  -1  -4 288.069 9.47753  15
   3  -1  -4 280.448 7.45148   5
  -3  -1   4 274.671 6.87124  10
   3  -1  -4 287.590 7.13467  11
  -3   1   4 271.368 6.71874   7
  -3   1   4 269.872 7.26901   4
   3   1  -4 269.638 6.98589  12
   3   1  -4 264.867 7.14805   5
   3   1  -4 276.510 6.80428  11
  -3   1   4 269.850 7.12455   8
  -3   1   4 259.950 6.67503   3
   3   1  -4 279.284 8.86418  15
   1  -1  -4 369.704 9.14085  11
   1  -1  -4 366.659 11.4042  15
  -1  -1   4 365.457 8.97797   7
   1  -1  -4 364.582 9.03218   5
  -1  -1   4 372.567 8.63431  13
  -1  -1   4 367.297 9.17614   4
   1  -1  -4 372.333 9.52478   2
   1   1  -4 377.065 8.94546   5
  -1   1   4 368.465 8.52624   7
  -1   1   4 363.675 8.88419  13
   1   1  -4 374.904 11.1850  15
  -1   1   4 363.525 9.04885   4
   1   1  -4 362.510 8.30779  12
   1   1  -4 359.790 8.93752  11
  -1  -1  -4 148.147 6.15271  15
  -1  -1  -4 141.770 4.41187  11
  -1  -1  -4 137.833 3.81913   5
  -1  -1  -4 138.259 3.79182   3
   1  -1   4 132.161 3.58922  16
  -1  -1  -4 142.875 5.37098   2
   1  -1   4 139.153 4.66524   4
   1  -1   4 137.960 4.23774  13
   1  -1   4 133.363 3.47484   1
  -1   1  -4 138.193 4.23312   3
   1   1   4 136.523 4.46995   4
  -1   1  -4 138.350 3.87381   5
   1   1   4 142.316 4.13815  16
  -1   1  -4 138.005 3.62031   6
  -1   1  -4 143.204 4.36819  11
   1   1   4 141.172 3.92729   1
   1   1   4 136.019 4.38844  13
   3  -1   4 386.560 9.35765   1
   3  -1   4 391.410 9.65587  16
   3  -1   4 403.831 11.0164   4
  -3  -1  -4 399.350 12.0542  15
  -3  -1  -4 388.563 9.83627  11
   3  -1   4 384.842 10.3035  13
  -3  -1  -4 389.625 11.8927   2
  -3  -1  -4 367.289 10.2282   3
  -3   1  -4 390.283 11.0576   9
   3   1   4 392.172 10.4937  13
   3   1   4 396.074 10.1406  16
   3   1   4 384.863 9.70785   1
  -3   1  -4 374.273 10.5941   3
  -3   1  -4 378.563 9.83586  11
   3   1   4 376.964 10.5969   4
   5  -1   4 11.2180 1.93641   4
  -5  -1  -4 11.6305 2.23500   2
   5  -1   4 12.1003 1.61817  16
  -5  -1  -4 11.8318 2.06614   9
   5  -1   4 8.54468 1.64945  13
  -5  -1  -4 8.99919 1.79854   3
   5  -1   4 10.1938 1.44067   1
   5   1   4 15.1470 1.87654   1
   5   1   4 15.0887 1.98986  16
   5   1   4 10.9700 2.00381  13
  -5   1  -4 11.1021 2.04844   9
   5   1   4 12.1726 2.13112   4
  -5   1  -4 13.6777 2.12459   3
  -7  -1  -4 15.1818 2.56917   9
  -7  -1  -4 16.2784 2.83763   3
   7  -1   4 15.3814 2.45801  13
   7  -1   4 17.9446 3.07941   4
   7   1   4 16.5795 2.70534   4
   7   1   4 10.4376 1.98250   1
  -7   1  -4 20.9801 2.97113   9
   7   1   4 15.0931 2.21544  16
   7   1   4 19.8765 2.76991  13
  -7   1  -4 15.1359 2.67595   3
   9  -1   4 80.1467 5.52184  13
   9  -1   4 89.9023 6.65178   4
   9   1   4 71.2727 5.55357  13
   9   1   4 88.5096 6.10796   4
 -12  -2   4 89.6770 6.76022   3
  12  -2  -4 82.9062 5.72338   1
  12   2  -4 78.7955 6.03246   1
 -12   2   4 102.260 9.19814  14
  12   2  -4 88.2959 6.15072  13
  12   2  -4 92.7809 5.70818  12
 -12   2   4 94.4787 7.13213   3
 -10  -2   4 337.079 11.5818  10
  10  -2  -4 354.930 11.9788   1
  10  -2  -4 344.558 12.5022  16
 -10  -2   4 353.474 13.1486   3
  10  -2  -4 345.173 11.4486  12
 -10  -2   4 362.793 14.4884  14
  10   2  -4 356.314 11.6510  12
  10   2  -4 355.604 11.9292   1
  10   2  -4 345.054 12.4189  16
 -10   2   4 349.317 12.8987   3
 -10   2   4 352.589 15.5120  14
   8  -2  -4 218.230 6.99970   5
  -8  -2   4 212.887 7.66717  10
   8  -2  -4 222.880 8.35933  16
   8  -2  -4 211.113 7.44885  12
  -8  -2   4 206.563 7.74457   7
  -8  -2   4 219.289 9.64910  14
   8   2  -4 195.532 7.25759   1
  -8   2   4 224.177 8.49924   3
  -8   2   4 199.143 7.91191   8
   8   2  -4 204.219 7.95518  16
   8   2  -4 215.995 7.49868  12
  -8   2   4 217.524 10.2841  14
   8   2  -4 201.017 6.51861   5
  -6  -2   4 2388.20 52.4516  10
  -6  -2   4 2391.03 52.4385   7
   6  -2  -4 2399.09 50.9914  11
   6  -2  -4 2466.90 52.2897   5
   6  -2  -4 2445.32 52.3895  12
   6  -2  -4 2425.66 54.5254  15
  -6   2   4 2392.63 55.2790  14
   6   2  -4 2487.07 52.4618  12
  -6   2   4 2400.33 52.8562   3
   6   2  -4 2361.54 51.9625   1
   6   2  -4 2383.07 51.7887   5
  -6   2   4 2336.79 52.7315   8
   6   2  -4 2408.71 52.5736  16
   4  -2  -4 1715.01 35.5353  11
   4  -2  -4 1695.97 38.9049  15
  -4  -2   4 1600.37 35.7116   4
  -4  -2   4 1605.84 35.6215  10
  -4  -2   4 1640.98 35.6953   7
   4  -2  -4 1682.57 35.9972   5
   4   2  -4 1621.62 35.4246  16
  -4   2   4 1586.93 37.3944  14
  -4   2   4 1615.08 34.9339   7
   4   2  -4 1628.50 34.7926  11
   4   2  -4 1629.39 35.1105   1
  -4   2   4 1615.92 35.9669   8
  -4   2   4 1636.87 35.5870   3
  -4   2   4 1635.48 35.8279   4
   4   2  -4 1638.51 35.5831  12
   4   2  -4 1612.42 35.5461   5
   2  -2  -4 8489.61 181.243  11
   2  -2  -4 8558.32 182.947   2
   2  -2  -4 8557.24 199.386  15
  -2  -2   4 8191.48 180.182   4
  -2  -2   4 7689.88 176.123  13
  -2  -2   4 8439.39 181.109   7
  -2  -2   4 7691.70 181.096  10
   2  -2  -4 8567.90 180.960   5
   2   2  -4 8504.09 177.629  12
  -2   2   4 8564.66 180.901   4
   2   2  -4 7961.78 174.878  16
   2   2  -4 8253.19 177.704   5
   2   2  -4 7696.94 177.890  11
  -2   2   4 8558.88 179.818  13
  -2   2   4 8538.92 175.243   7
   0  -2  -4 1080.28 23.6867  11
   0  -2   4 1034.76 22.7124  13
   0  -2  -4 1076.97 24.6422   2
   0  -2  -4 1078.56 26.6681  15
   0  -2  -4 1050.98 23.1876   5
   0  -2   4 1026.94 23.5061   4
   0  -2   4 1051.11 23.4985   7
   0   2  -4 1056.18 23.3087  11
   0   2  -4 1051.03 23.6012   9
   0   2   4 1050.07 23.2485  13
   0   2   4 1010.82 23.1722   4
   0   2  -4 1042.28 23.0258   5
   0   2   4 1042.27 23.1091  16
   0   2   4 1048.98 22.8137   1
  -2  -2  -4 3100.03 71.6870   3
  -2  -2  -4 3404.57 74.1523  15
  -2  -2  -4 3210.17 71.0561   5
  -2  -2  -4 3248.61 71.0073  11
   2  -2   4 3378.74 71.8228   4
   2  -2   4 3512.61 71.1051  13
   2  -2   4 3360.92 72.2623  16
  -2  -2  -4 3344.69 73.2269   2
   2   2   4 3401.47 73.4241  16
  -2   2  -4 3361.26 71.7177   3
  -2   2  -4 3355.26 71.7716   5
   2   2   4 3332.23 71.3249   4
  -2   2  -4 3568.36 72.2445   9
  -2   2  -4 3388.80 71.0396  11
  -2   2  -4 3250.77 71.2297   6
   2   2   4 3412.39 70.7659   1
   2   2   4 3438.76 71.4087  13
  -4  -2  -4 36.8238 2.10909  11
  -4  -2  -4 34.4597 2.56209   3
   4  -2   4 33.1576 2.62986  13
   4  -2   4 34.2915 2.05275  16
  -4  -2  -4 37.8059 3.50230   2
   4  -2   4 37.1155 2.92068   4
   4   2   4 40.9581 2.49265   1
   4   2   4 35.8505 2.44689  16
   4   2   4 37.6074 2.86458  13
  -4   2  -4 33.7418 2.87037   3
   4   2   4 39.3165 2.68871   4
   6  -2   4 744.088 20.4168   4
  -6  -2  -4 747.616 21.3981   2
  -6  -2  -4 701.702 19.4831   9
  -6  -2  -4 734.490 19.8426   3
   6  -2   4 744.615 19.5004  13
   6   2   4 773.035 20.0860   4
   6   2   4 727.367 18.4048   1
  -6   2  -4 722.240 19.9262   9
   6   2   4 720.757 19.0141  16
   6   2   4 713.435 19.4445  13
  -6   2  -4 719.477 20.6136   3
   8  -2   4 20.3984 3.16682  13
   8  -2   4 24.2360 3.71815   4
  -8   2  -4 19.4546 3.29084   3
  -8   2  -4 15.7833 2.87434   9
   8   2   4 22.9977 3.53062   4
   8   2   4 19.7335 2.73387   1
   8   2   4 18.3253 3.10623  13
   8   2   4 19.3726 2.91931  16
  11  -3  -4 14.2866 2.81730   1
 -11  -3   4 13.6864 3.44200   3
  11  -3  -4 14.5748 2.65095  12
  11  -3  -4 11.9204 2.57665  16
 -11   3   4 14.6015 3.11786   3
  11   3  -4 14.1583 2.43345  12
 -11   3   4 17.6312 4.45145  14
  11   3  -4 18.8308 2.96215   1
  11   3  -4 17.7670 2.82956  13
   9  -3  -4 51.7743 3.89424  12
   9  -3  -4 54.0842 4.31263  16
  -9  -3   4 51.3023 4.12790  10
  -9  -3   4 59.6910 5.23809  14
   9   3  -4 52.9976 4.09946  16
   9   3  -4 48.8636 3.92171   1
  -9   3   4 58.2679 4.64739   3
  -9   3   4 52.1353 5.82664  14
   9   3  -4 57.3277 4.07108  12
  -9   3   4 55.8927 4.51226   8
   7  -3  -4 93.5273 4.24657   5
  -7  -3   4 102.943 4.66439   7
  -7  -3   4 93.7489 4.80169  10
   7  -3  -4 92.6690 5.34043  15
   7  -3  -4 90.9540 4.30510  12
  -7   3   4 93.6797 6.29382  14
   7   3  -4 93.4953 4.50752  12
  -7   3   4 91.4544 4.89934   8
   7   3  -4 100.828 4.84470  16
  -7   3   4 90.4762 4.78764   3
  -7   3   4 92.5422 3.95623   9
   7   3  -4 97.8709 4.46068   1
   7   3  -4 95.6818 3.89392   5
   5  -3  -4 91.3564 5.60290  15
  -5  -3   4 88.4454 3.76485   7
   5  -3  -4 89.1847 3.79773   5
  -5  -3   4 75.0711 3.04146   2
  -5  -3   4 88.0025 3.96910  10
   5  -3  -4 88.8023 3.44112  11
  -5   3   4 82.1909 3.72031   3
   5   3  -4 88.3271 3.71644  12
  -5   3   4 84.6802 4.83106  14
   5   3  -4 86.3433 3.35199   1
   5   3  -4 84.4035 3.59841  16
   5   3  -4 85.3856 3.48465   5
  -5   3   4 87.9855 4.12613   8
   3  -3  -4 172.090 7.81284  15
  -3  -3   4 165.065 5.42413  10
   3  -3  -4 167.923 5.30224   2
   3  -3  -4 169.791 5.30677  11
  -3  -3   4 166.827 5.10815   4
  -3  -3   4 161.859 5.17094   7
  -3   3   4 183.150 4.88893   3
   3   3  -4 166.684 4.17885   9
  -3   3   4 170.656 5.09930   4
   3   3  -4 166.323 4.44486   1
  -3   3   4 162.797 4.66683   6
   3   3  -4 166.888 4.63374  16
   3   3  -4 174.251 5.03233  12
  -3   3   4 173.276 5.65983   8
   3   3  -4 164.797 5.13538   5
  -3   3   4 157.495 5.84801  14
   1  -3  -4 352.144 12.0717  15
  -1  -3   4 331.209 8.65513   4
   1  -3  -4 348.725 9.71968   2
   1  -3  -4 337.993 8.04028  10
  -1  -3   4 326.575 7.65775  13
  -1  -3   4 340.916 8.87599   7
   1  -3  -4 344.586 9.18671  11
   1   3  -4 330.051 7.93430  12
   1   3  -4 322.673 8.49499  11
  -1   3   4 333.835 8.30793   4
   1   3  -4 335.429 8.56407   5
   1   3  -4 335.010 8.53092   9
  -1   3   4 330.700 8.50337  13
  -1   3   4 329.923 8.26252   1
  -1  -3  -4 29.0280 1.76948   5
   1  -3   4 29.4208 1.95148   4
   1  -3   4 28.9912 1.50989  13
  -1  -3  -4 43.2410 3.26272   2
  -1  -3  -4 34.1473 2.19604  11
  -1  -3  -4 31.7713 2.18268  10
  -1  -3  -4 28.5216 1.34425   3
  -1  -3  -4 29.1251 3.33246  15
  -1   3  -4 29.7717 2.09010   3
   1   3   4 32.3071 1.91633  16
  -1   3  -4 32.0315 2.10265   9
   1   3   4 28.0846 1.63565   1
  -1   3  -4 31.9838 1.72130   5
   1   3   4 29.7628 1.72195   4
   1   3   4 33.7049 2.06225  13
  -1   3  -4 31.9669 1.65239   6
  -3  -3  -4 243.511 9.08241  15
   3  -3   4 230.518 7.83476   4
  -3  -3  -4 233.977 6.93560  11
   3  -3   4 245.262 7.15239  13
  -3  -3  -4 243.635 8.38317  10
  -3  -3  -4 252.193 7.18102   3
  -3  -3  -4 241.277 9.00172   2
  -3   3  -4 236.892 7.87138   9
   3   3   4 234.967 7.23629   4
  -3   3  -4 231.993 6.50278   6
  -3   3  -4 230.667 7.97974   3
   3   3   4 236.340 7.42994  13
   3   3   4 245.501 7.40361  16
   3   3   4 242.780 6.98398   1
   5  -3   4 1.06030 0.89426  13
  -5  -3  -4 0.53642 1.64663   2
   5  -3   4 0.89892 1.01741   4
   5   3   4 5.69686 1.37191  16
  -5   3  -4 1.96259 1.08144   9
   5   3   4 3.54524 1.43407  13
   5   3   4 1.96852 1.26828   4
   5   3   4 5.87055 1.49164   1
  -7  -3  -4 3.70915 1.64475   9
   7  -3   4 0.63073 1.57373  13
   7  -3   4 3.13025 2.04183   4
  -7  -3  -4 3.79123 2.23805   2
   7   3   4 0.95436 1.42717   1
   7   3   4 2.94784 1.68157   4
  -7   3  -4 2.90548 1.50895   9
   7   3   4 7.28027 2.12081  13
  -7   3  -4 1.76014 1.84952   3
   7   3   4 0.72089 1.01584  16
   9  -3   4 45.0931 5.16096   4
  -9   3  -4 44.1889 5.12262   3
   9   3   4 45.6522 4.00737   1
   9   3   4 47.2359 4.49737   4
  -9   3  -4 49.6938 4.67986   9
   9   3   4 52.3989 4.42676  13
  12  -4  -4 162.921 8.11040   1
 -12  -4   4 151.716 8.78994   3
 -12   4   4 169.992 9.43490   3
  12   4  -4 146.551 7.60321  13
 -12   4   4 168.565 11.6115  14
  12   4  -4 148.674 7.41852  12
  12   4  -4 154.990 7.83327   1
  10  -4  -4 1471.56 36.8643  16
 -10  -4   4 1438.73 36.2405  10
  10  -4  -4 1523.21 35.5000  12
 -10  -4   4 1431.28 37.2560   3
 -10   4   4 1503.02 37.6744   3
  10   4  -4 1468.44 36.6316  16
 -10   4   4 1525.80 42.3458  14
  10   4  -4 1396.49 35.0547  13
  10   4  -4 1458.31 35.6388   1
 -10   4   4 1493.78 37.7650   8
  10   4  -4 1478.83 35.5165  12
  -8  -4   4 171.101 8.15815  14
   8  -4  -4 168.802 6.40642   5
  -8  -4   4 165.586 7.27972  10
   8  -4  -4 177.522 6.82546  12
  -8  -4   4 174.268 6.95291   7
  -8   4   4 174.173 7.78748   8
  -8   4   4 166.260 9.47245  14
   8   4  -4 171.146 6.69448   1
   8   4  -4 168.771 7.02395  16
  -8   4   4 169.573 7.57426   3
  -8   4   4 174.602 6.36342   9
   8   4  -4 171.247 6.85129  12
  -6  -4   4 2519.45 56.3818  10
   6  -4  -4 2609.88 55.6289   5
   6  -4  -4 2495.99 54.5853  11
  -6  -4   4 2597.47 55.8378   7
   6  -4  -4 2579.04 59.1788  15
  -6   4   4 2584.93 56.7837   8
  -6   4   4 2491.31 59.1556  14
  -6   4   4 2553.24 56.3040   3
   6   4  -4 2569.29 55.6921  16
   6   4  -4 2475.21 54.9534   5
   6   4  -4 2586.80 55.6302  12
   6   4  -4 2499.86 55.0193   1
  -4  -4   4 4.70196 1.03021   7
   4  -4  -4 11.1700 1.39035   2
   4  -4  -4 6.01056 1.32260  11
   4   4  -4 4.72454 0.94341   5
  -4   4   4 7.37087 1.15842   3
   4   4  -4 8.71004 1.20637  12
  -4   4   4 7.82617 1.18257   6
  -4   4   4 4.28242 1.30925   8
   4   4  -4 7.77900 1.00821   1
   4   4  -4 4.94813 0.93575  16
  -4   4   4 9.34073 1.79099  14
   2  -4  -4 2970.82 65.2540  10
   2  -4  -4 3067.75 65.1001   2
  -2  -4   4 3003.19 64.2795   7
  -2  -4   4 2947.27 63.7774   4
   2  -4  -4 3124.80 64.5047  11
   2  -4  -4 3142.83 68.8522  15
  -2  -4   4 2688.39 64.6585  10
   2   4  -4 3115.84 64.7059   9
  -2   4   4 2881.35 64.4652  14
  -2   4   4 2943.07 64.3153   6
   2   4  -4 3005.96 64.8919  16
  -2   4   4 2855.81 63.3710   4
  -2   4   4 3142.90 64.7933   8
   2   4  -4 3075.07 64.1057   5
  -2   4   4 3098.75 63.8955  13
   2   4  -4 3114.56 63.6138  12
   0  -4  -4 9.15977 2.27072  15
   0  -4   4 7.33446 0.64639  13
   0  -4   4 5.67446 1.16764   7
   0  -4  -4 8.56443 1.70424  11
   0  -4   4 6.30873 1.02264   4
   0  -4  -4 8.64115 1.26945  10
   0  -4  -4 12.9686 2.33488   2
   0   4  -4 5.86698 1.00254   9
   0   4   4 6.19509 0.59300   6
   0   4  -4 7.37456 1.02072   5
   0   4  -4 6.66910 0.94456   6
   0   4  -4 7.92256 0.78398  12
   0   4   4 7.04124 1.05088  13
   0   4   4 5.46214 0.82728   4
   2  -4   4 3285.75 69.5969  13
  -2  -4  -4 3324.13 73.1988   2
  -2  -4  -4 3181.05 71.2426  10
   2  -4   4 3378.61 70.9313   4
  -2  -4  -4 3186.49 70.5776  11
  -2  -4  -4 3183.92 74.2554  15
   2   4   4 3279.33 69.8895   4
   2   4   4 3328.93 70.3975  13
  -2   4  -4 3357.66 69.8012   6
  -2   4  -4 3244.30 71.3583   3
  -2   4  -4 3390.04 71.3024   9
   2   4   4 3409.23 70.6468  16
   2   4   4 3315.40 70.0520   1
   4  -4   4 132.187 5.99516   4
  -4  -4  -4 137.284 4.94013  11
  -4  -4  -4 150.115 6.80333  10
  -4  -4  -4 155.486 7.39684   2
   4  -4   4 136.096 5.24572  13
  -4   4  -4 134.272 6.20900   3
   4   4   4 142.227 5.67854  13
   4   4   4 141.352 5.35295   1
   4   4   4 144.097 5.79037  16
  -4   4  -4 140.039 6.21202   9
   4   4   4 133.468 5.17124   4
  -4   4  -4 133.264 4.75437   6
   6  -4   4 1885.06 44.3876   4
  -6  -4  -4 1828.34 45.9544   2
  -6   4  -4 1904.74 44.2796   9
   6   4   4 1851.23 43.1854  13
   6   4   4 1910.73 42.6315   1
   6   4   4 1808.39 42.8698   4
   6   4   4 1902.47 43.4398  16
  -6   4  -4 1884.16 45.5614   3
   8  -4   4 77.4956 5.28142  13
  -8  -4  -4 83.5049 6.28478   2
   8  -4   4 82.1617 5.90822   4
  -8   4  -4 84.3910 6.56748   3
  -8   4  -4 84.7693 5.88338   9
   8   4   4 86.0379 5.70782  13
   8   4   4 86.1977 4.87498   1
 -11  -5   4 42.3094 5.23013   3
  11  -5  -4 42.0150 4.34882  12
 -11  -5   4 44.3026 4.68798  10
  11  -5  -4 42.7505 4.54605   1
 -11   5   4 38.2889 4.87271   3
 -11   5   4 42.0741 6.77237  14
  11   5  -4 34.2051 3.84495   1
  11   5  -4 38.9045 3.64395  12
   9  -5  -4 184.622 7.48097  12
  -9  -5   4 177.332 8.20751  10
   9  -5  -4 165.958 7.65143  16
  -9   5   4 175.073 8.50428   8
   9   5  -4 169.902 7.37873  12
   9   5  -4 164.595 7.56795  16
  -9   5   4 169.952 10.3742  14
   9   5  -4 180.376 7.40514   1
  -9   5   4 181.305 8.47445   3
   7  -5  -4 27.8226 2.33217  11
  -7  -5   4 31.1559 3.17072   7
   7  -5  -4 33.6860 4.05231  15
  -7  -5   4 42.0538 4.01876  10
   7  -5  -4 35.6869 2.74788   5
   7   5  -4 34.1980 2.76387   1
  -7   5   4 31.5535 3.10038   3
  -7   5   4 32.8486 4.28707  14
  -7   5   4 40.0936 3.72294   8
   7   5  -4 33.1683 2.69901  16
   7   5  -4 33.6769 2.95653  12
   7   5  -4 34.6201 2.46164   5
   5  -5  -4 653.761 15.9843  11
  -5  -5   4 673.492 16.5624   7
   5  -5  -4 664.178 19.9430  15
  -5  -5   4 630.456 16.4164   2
   5  -5  -4 650.068 15.9409   2
  -5  -5   4 648.808 17.2240  10
   5   5  -4 649.939 15.6093   1
   5   5  -4 662.572 16.1492   5
  -5   5   4 658.250 15.7858   6
  -5   5   4 660.969 17.4532   8
  -5   5   4 613.089 18.6247  14
   5   5  -4 689.963 16.4442  12
  -5   5   4 642.289 16.6673   3
   5   5  -4 655.534 16.0557  16
   3  -5  -4 348.176 12.7367  15
   3  -5  -4 346.465 9.85511   2
  -3  -5   4 343.688 10.2069  10
  -3  -5   4 341.119 9.51770   7
  -3  -5   4 328.779 8.78815   4
   3  -5  -4 348.548 9.60693  11
   3   5  -4 332.303 8.16016   1
  -3   5   4 351.660 10.2867   8
  -3   5   4 326.334 10.2643  14
  -3   5   4 340.459 8.72443   6
   3   5  -4 340.539 9.28706   5
   3   5  -4 343.051 8.44719  16
  -3   5   4 339.632 9.09664   3
   3   5  -4 359.019 9.20560  12
   1  -5  -4 358.047 10.9737   2
   1  -5  -4 345.799 12.9961  15
   1  -5  -4 356.389 9.81468  11
  -1  -5   4 337.319 9.53457   7
   1  -5  -4 353.437 8.92972  10
  -1  -5   4 345.922 9.01650   4
  -1  -5   4 342.776 10.4447  10
   1   5  -4 344.934 9.11920   9
  -1   5   4 349.105 9.00510   1
  -1   5   4 328.838 8.35512   4
  -1   5   4 341.931 9.05283  13
   1   5  -4 337.616 9.24093   5
   1   5  -4 343.972 8.63457  12
  -1   5   4 345.971 8.27946   6
  -1  -5  -4 1176.95 27.0522  10
  -1  -5  -4 1148.19 31.3987  15
  -1  -5  -4 1217.43 29.4705   2
   1  -5   4 1146.51 26.6361   4
  -1  -5  -4 1113.36 27.0934  11
   1  -5   4 1178.88 27.2002   7
   1   5   4 1190.37 26.8211  16
   1   5   4 1170.53 26.4063  13
   1   5   4 1173.20 25.6613   4
  -1   5  -4 1145.01 26.1917   6
  -1   5  -4 1179.54 27.1167   9
   1   5   4 1178.12 26.2832   1
   3  -5   4 154.399 6.16242   4
   3  -5   4 185.198 5.50269  13
  -3  -5  -4 164.809 7.92400   2
  -3  -5  -4 176.915 7.15576  10
  -3  -5  -4 156.638 5.88807  11
  -3  -5  -4 162.077 8.10963  15
  -3   5  -4 173.816 7.03876   3
   3   5   4 177.581 6.29640  16
  -3   5  -4 162.252 6.50139   9
   3   5   4 177.001 5.98021   1
   3   5   4 158.769 5.32813   4
  -3   5  -4 165.004 5.51717   6
   3   5   4 167.971 5.94660  13
  -5  -5  -4 436.395 15.4128   2
   5  -5   4 438.215 13.8148   4
  -5  -5  -4 473.067 15.0395  10
  -5   5  -4 468.104 14.2354   9
   5   5   4 449.291 13.0779  13
  -5   5  -4 453.908 14.9890   3
   5   5   4 452.923 12.7977   1
   5   5   4 447.113 13.3298  16
  -5   5  -4 436.605 12.0322   6
   7  -5   4 208.096 9.34137   4
   7  -5   4 185.754 7.80553  13
  -7  -5  -4 205.387 10.1213   2
   7   5   4 198.650 8.13445  13
   7   5   4 194.589 8.37471  16
  -7   5  -4 207.177 10.0058   3
  -7   5  -4 193.067 8.83291   9
   7   5   4 200.264 7.97853   1
  10  -6  -4 3.40025 1.91588  12
  10  -6  -4 3.36387 2.06607  16
 -10  -6   4 9.58232 2.47702  10
  10   6  -4 6.32057 2.12231  12
 -10   6   4 2.72202 1.72891   3
 -10   6   4 3.69164 2.53945   8
  10   6  -4 7.85375 2.24051   1
  10   6  -4 4.05172 2.13016  16
 -10   6   4 5.95334 3.32798  14
  -8  -6   4 1230.91 31.0192  10
   8  -6  -4 1189.32 28.7680   5
  -8  -6   4 1207.67 29.5113   7
  -8   6   4 1258.52 31.6329   8
  -8   6   4 1205.10 30.6268   3
   8   6  -4 1188.65 29.2785  12
  -8   6   4 1211.19 34.8772  14
   8   6  -4 1152.93 29.3686  16
   8   6  -4 1185.94 28.7085   1
  -6  -6   4 93.0550 5.48708  10
   6  -6  -4 92.2323 4.28184  11
  -6  -6   4 93.6019 4.80409   7
   6  -6  -4 88.4140 6.27062  15
  -6  -6   4 88.3311 4.62305   2
   6   6  -4 93.4575 4.20244   5
   6   6  -4 89.7360 4.38192  12
  -6   6   4 88.6930 6.23195  14
   6   6  -4 92.7563 4.01302   1
  -6   6   4 96.5695 5.46705   8
  -6   6   4 92.8894 4.82752   3
   6   6  -4 98.0983 4.42684  16
  -6   6   4 90.4340 4.24998   6
   4  -6  -4 3507.64 73.1774   2
  -4  -6   4 3260.48 73.6964  10
  -4  -6   4 3132.69 71.2956   4
  -4  -6   4 3011.48 73.2486   2
  -4  -6   4 3321.10 72.6033   7
   4  -6  -4 3484.89 77.9936  15
   4  -6  -4 3421.16 72.5311  11
   4   6  -4 3425.90 71.7550  16
   4   6  -4 3513.52 72.5319  12
  -4   6   4 3455.60 72.8331   3
  -4   6   4 3260.07 74.8754  14
   4   6  -4 3413.54 71.3292   1
  -4   6   4 3588.06 74.3062   8
  -4   6   4 3447.99 71.8992   6
   4   6  -4 3449.06 72.5564   5
   2  -6  -4 421.032 11.6497  11
   2  -6  -4 427.377 15.1232  15
  -2  -6   4 425.824 10.5790   4
  -2  -6   4 429.206 12.6075  10
   2  -6  -4 430.475 12.6309   2
  -2  -6   4 425.422 11.5103   7
  -2   6   4 388.075 11.3416  14
  -2   6   4 432.801 12.4628   8
   2   6  -4 422.923 11.2580   5
  -2   6   4 417.768 10.3901   6
  -2   6   4 416.674 10.9191  13
   2   6  -4 437.771 10.7116   9
   2   6  -4 413.849 10.7947  12
   0  -6   4 3613.78 77.2264   4
   0  -6  -4 3697.57 80.5551   2
   0  -6  -4 3522.07 83.1203  15
   0  -6   4 3746.20 78.2578   7
   0  -6  -4 3618.35 78.3303  11
   0  -6  -4 3646.64 77.7502  10
   0   6   4 3642.68 77.2201   1
   0   6  -4 3649.35 77.7644   9
   0   6   4 3642.67 77.2422  13
   0   6  -4 3593.95 77.3843   6
  -2  -6  -4 84.7713 4.46792  11
  -2  -6  -4 75.8037 6.24121  15
   2  -6   4 81.0471 3.96426   4
  -2  -6  -4 73.3974 4.36165  10
   2  -6   4 83.7500 4.39806   7
  -2   6  -4 77.4019 3.64337   6
   2   6   4 74.7699 3.86948  16
   2   6   4 78.5890 3.75617  13
  -2   6  -4 84.4700 4.27615   9
   2   6   4 80.2786 3.79392   1
  -4  -6  -4 1352.60 33.3738  10
  -4  -6  -4 1357.26 35.0558   2
   4  -6   4 1316.78 31.9797   4
   4   6   4 1339.60 31.1912  13
   4   6   4 1341.81 31.7880  16
  -4   6  -4 1306.74 30.5311   6
  -4   6  -4 1339.35 33.6861   3
   4   6   4 1347.68 31.1193   1
  -4   6  -4 1323.83 32.4515   9
  -6  -6  -4 5.37978 2.61335   2
   6  -6   4 6.68533 2.17786   4
   6   6   4 6.18403 1.98173  13
  -6   6  -4 3.65643 2.04264   9
  -6   6  -4 5.03095 2.18346   3
   6   6   4 5.04407 1.54205   1
   6   6   4 3.88933 1.49829  16
  -8  -6  -4 517.005 18.1655   2
   8  -6   4 511.371 17.1877   4
  -8   6  -4 544.693 17.2423   9
  -8   6  -4 532.348 18.8751   3
   8   6   4 519.886 15.6572   1
  -9  -7   4 95.2910 6.55606  10
  -9  -7   4 86.5802 5.61652   7
   9  -7  -4 93.8816 5.68379  16
   9  -7  -4 92.6904 5.43296  12
   9   7  -4 83.0812 5.39066  16
  -9   7   4 88.0672 5.87752   3
  -9   7   4 89.4497 6.68992   8
   9   7  -4 89.5866 5.39666  12
   9   7  -4 85.2784 4.84643   1
  -9   7   4 82.9470 7.93672  14
  -7  -7   4 0.60327 1.58205   7
   7  -7  -4 2.48357 1.79106  15
   7  -7  -4 1.54720 1.36424  11
  -7  -7   4 2.85084 1.79587  10
  -7   7   4 1.62569 1.44334   6
   7   7  -4 2.39449 1.25022   1
  -7   7   4 0.46329 1.70539  14
   7   7  -4 4.56824 1.66623  12
   7   7  -4 2.23800 1.31637  16
  -7   7   4 1.69685 1.90071   8
  -7   7   4 0.52824 1.30880   3
   5  -7  -4 112.638 5.05974  11
  -5  -7   4 110.447 5.20100   7
   5  -7  -4 111.723 7.75087  15
  -5  -7   4 111.584 5.68356   2
  -5  -7   4 112.577 5.91214  10
   5  -7  -4 124.184 5.41588   2
   5   7  -4 108.322 4.86042  12
   5   7  -4 119.653 4.38260   1
  -5   7   4 116.010 5.40631   3
   5   7  -4 109.313 4.50398  16
  -5   7   4 120.023 4.81091   6
  -5   7   4 106.215 6.43363  14
  -5   7   4 111.095 5.99265   8
  -3  -7   4 3.76666 1.38062   7
   3  -7  -4 2.55053 1.29821   2
   3  -7  -4 2.96407 1.78454  15
   3  -7  -4 4.12441 1.55790  11
  -3  -7   4 2.90113 1.60196  10
  -3   7   4 7.58247 1.65188  14
  -3   7   4 2.62593 1.20817   8
  -3   7   4 3.61923 0.93999   6
   3   7  -4 4.47381 1.22610  12
   1  -7  -4 0.93447 0.96519  10
  -1  -7   4 0.65042 1.08281   7
   1  -7  -4 -0.3582 1.05444  11
   1  -7  -4 0.40171 1.90603  15
   1  -7  -4 0.34497 1.82315   2
  -1  -7   4 -0.0400 0.86602  10
  -1   7   4 1.40915 0.88191  13
   1   7  -4 0.96596 0.60448  12
  -1   7   4 0.62552 0.64504   6
  -1   7   4 1.32223 1.36455   8
   1   7  -4 1.16949 1.04238   6
   1   7  -4 1.04216 0.66079   9
  -1  -7  -4 31.4968 2.87660  10
   1  -7   4 34.2104 2.78368   7
  -1  -7  -4 36.7803 4.51935   2
   1  -7   4 33.9664 2.41586   4
  -1  -7  -4 36.7239 3.42324  11
  -1  -7  -4 42.8555 5.26216  15
   1   7   4 35.6809 2.49289   1
  -1   7  -4 36.1670 2.51811   6
   1   7   4 37.2314 2.57649  13
  -1   7  -4 32.1804 2.78074   9
  -3  -7  -4 17.8756 3.79186   2
  -3  -7  -4 17.1462 2.53630  11
   3  -7   4 18.9944 2.31187   4
   3  -7   4 16.6088 2.49084   7
  -3  -7  -4 22.9659 2.94140  10
  -3   7  -4 19.7668 2.75392   9
   3   7   4 19.0132 2.20043  13
   3   7   4 19.6820 2.57195  16
  -3   7  -4 19.4963 2.20767   6
   3   7   4 22.4304 2.55914   1
   5  -7   4 6.37325 2.00477   4
  -5  -7  -4 7.26250 2.81466   2
  -5  -7  -4 4.93295 2.38292  10
   5   7   4 6.74299 2.02954  16
   5   7   4 3.12470 1.69367   1
   5   7   4 3.85605 1.63153  13
  -5   7  -4 2.13302 1.38465   6
  -5   7  -4 4.30477 1.83471   3
  -5   7  -4 7.35850 1.93395   9
   7  -7   4 2.50154 1.87077   4
  -7  -7  -4 5.64583 2.48862   2
  -7   7  -4 1.84304 2.03383   3
   7   7   4 -0.2316 1.60840  13
   7   7   4 2.96770 1.81717   1
  -7   7  -4 2.62265 1.57188   9
  10  -8  -4 327.164 11.3219  12
 -10  -8   4 312.414 13.0508  10
  10   8  -4 323.021 11.2452   1
 -10   8   4 315.861 13.6276   8
  10   8  -4 328.443 11.7204  12
 -10   8   4 327.532 13.0195   3
 -10   8   4 317.527 16.1809  14
  -8  -8   4 597.609 16.8369   7
   8  -8  -4 562.292 16.3067   5
  -8  -8   4 566.292 18.5302  10
   8   8  -4 552.365 16.3844  16
   8   8  -4 580.988 16.6816  12
   8   8  -4 572.812 15.8042   1
  -8   8   4 558.426 21.2372  14
  -8   8   4 585.432 15.9731   6
  -8   8   4 585.788 18.7932   8
  -6  -8   4 296.601 11.5877  10
   6  -8  -4 305.275 9.65660  11
   6  -8  -4 276.577 15.0820  15
  -6  -8   4 315.490 10.0833   7
  -6  -8   4 279.813 10.6153   2
  -6   8   4 312.072 11.6759   8
  -6   8   4 290.952 9.22853   6
  -6   8   4 271.985 12.3648  14
  -6   8   4 316.953 10.8968   3
   6   8  -4 302.384 8.99618   1
   6   8  -4 300.525 9.52338  16
   6   8  -4 320.644 10.0373  12
   4  -8  -4 726.778 24.0826  15
   4  -8  -4 754.444 19.9018   2
  -4  -8   4 735.386 20.4804  10
  -4  -8   4 715.613 20.3591   2
   4  -8  -4 742.281 18.9727  11
  -4  -8   4 736.728 18.7619   7
  -4   8   4 736.137 20.4599   8
  -4   8   4 695.068 20.5228  14
   4   8  -4 749.922 18.6852  12
  -4   8   4 752.409 18.0838   6
  -2  -8   4 228.226 9.09521  10
   2  -8  -4 223.784 8.03536  11
  -2  -8   4 222.507 7.68451   7
   2  -8  -4 210.476 11.0946  15
   2  -8  -4 219.986 8.97137   2
  -2   8   4 216.799 6.62492   6
  -2   8   4 230.165 8.98299   8
   2   8  -4 226.321 7.64381   6
   2   8  -4 219.671 7.15118  12
   0  -8   4 914.201 24.5013  10
   0  -8   4 924.036 22.7972   7
   0  -8  -4 919.458 23.0839  11
   0  -8  -4 895.682 28.0029  15
   0  -8  -4 919.984 22.5315  10
   0  -8  -4 926.864 25.5122   2
   0   8  -4 920.054 22.4481   9
   0   8  -4 901.521 22.2047   6
   0   8   4 911.630 21.9643   1
  -2  -8  -4 253.891 9.25134  10
  -2  -8  -4 255.732 11.4023   2
   2  -8   4 239.009 8.79762   7
  -2  -8  -4 248.446 9.09595  11
  -2   8  -4 246.344 8.85812   9
   2   8   4 233.912 7.74856  13
   2   8   4 240.874 8.11148   1
   2   8   4 234.272 8.53545  16
  -2   8  -4 237.231 8.03505   6
   4  -8   4 830.635 22.5049   7
  -4  -8  -4 861.491 23.7002  10
  -4  -8  -4 876.677 25.9555   2
   4   8   4 832.747 21.0986  13
  -4   8  -4 826.280 21.1238   6
   4   8   4 825.393 22.1567  16
  -4   8  -4 858.716 22.9491   9
   4   8   4 834.136 21.4437   1
   6  -8   4 206.600 9.13740   7
  -6  -8  -4 222.312 10.4816  10
  -6  -8  -4 204.682 10.9762   2
   6   8   4 213.769 8.43793   1
  -6   8  -4 218.971 9.60072   9
  -9  -9   4 3.53782 2.14870  10
   9   9  -4 9.11652 2.46438  12
  -9   9   4 3.69170 2.27014   3
  -9   9   4 3.09885 2.68340   8
   9   9  -4 3.43877 1.80960   1
  -9   9   4 2.94569 2.92033  14
  -7  -9   4 49.9735 5.08606  10
   7  -9  -4 54.3723 4.26723  11
  -7  -9   4 48.6043 4.15354   7
  -7   9   4 46.1848 5.14308   8
   7   9  -4 54.2414 4.26543  12
  -7   9   4 49.9954 4.00702   6
  -7   9   4 58.8556 6.21377  14
   7   9  -4 53.7364 5.54453   1
  -7   9   4 51.7798 4.59757   3
   5  -9  -4 0.28253 1.76313  11
  -5  -9   4 1.27297 2.03281   2
  -5  -9   4 -1.2958 1.41219  10
  -5  -9   4 0.49870 1.06914   7
   5  -9  -4 -0.5352 1.54829   2
  -5   9   4 1.63150 1.61204  14
  -5   9   4 -0.5341 1.75329   8
  -5   9   4 0.63765 0.96975   6
   5   9  -4 2.07486 1.18393  12
   3  -9  -4 16.4410 3.03553   2
  -3  -9   4 12.8839 2.02381   7
   3  -9  -4 13.5922 2.57044  11
  -3  -9   4 14.9031 3.03392   2
  -3  -9   4 14.6318 2.97821  10
  -3   9   4 12.9954 2.78353   8
   3   9  -4 15.0858 2.21422  12
   3   9  -4 13.0310 2.21533   6
  -3   9   4 18.1789 2.14817   6
  -1  -9   4 13.0215 2.65332  10
   1  -9  -4 9.64994 2.98406  15
   1  -9  -4 9.38045 2.48532  11
   1  -9  -4 12.5261 3.23789   2
  -1  -9   4 15.4331 2.18938   7
  -1   9   4 8.86591 2.54218   8
   1   9  -4 10.5323 2.08360   6
   1   9  -4 9.55581 1.59452   9
  -1  -9  -4 8.54170 3.29537  15
  -1  -9  -4 8.30273 2.72729   2
   1  -9   4 13.5026 2.12970   7
  -1  -9  -4 7.75372 2.47758  11
   1  -9   4 5.38678 2.20158  10
   1   9   4 5.20323 1.69313   1
  -1   9  -4 7.53975 1.76875   6
  -1   9  -4 6.03415 1.53619   9
  -3  -9  -4 25.3175 3.29695  11
  -3  -9  -4 30.1896 4.66446   2
   3  -9   4 21.7216 2.80280   7
  -3  -9  -4 21.2250 3.09335  10
   3   9   4 22.4532 3.05504  16
  -3   9  -4 23.2754 3.01517   9
   3   9   4 24.1853 2.92005   1
  -3   9  -4 22.3788 2.72689   6
   5  -9   4 6.21445 2.02289   7
  -5  -9  -4 6.72019 2.52105  10
  -5  -9  -4 5.25710 3.08813   2
   5   9   4 5.71163 2.04463   1
  -5   9  -4 2.63160 2.06955   9
  -5   9  -4 4.45273 1.83884   6
  -8 -10   4 12.3866 3.73286  10
   8 -10  -4 15.0412 3.01562   5
  -8 -10   4 12.0598 2.18251   7
   8  10  -4 12.3597 2.34429  12
  -8  10   4 16.2320 3.84381   8
  -8  10   4 8.81660 3.33787  14
  -8  10   4 12.0960 2.16754   6
  -6 -10   4 1058.29 29.6625  10
  -6 -10   4 1045.37 26.6520   7
   6 -10  -4 1132.27 27.4947  11
  -6  10   4 1083.59 29.6925   8
  -6  10   4 1060.27 26.1715   6
   6  10  -4 1060.47 26.5205   6
   6  10  -4 1068.92 27.0729  12
  -4 -10   4 87.6600 6.34291   2
   4 -10  -4 83.9248 5.94384   2
  -4 -10   4 89.2509 6.64282  10
   4 -10  -4 83.0499 5.02102  11
  -4 -10   4 83.8265 4.87835   7
  -4  10   4 88.5436 4.62309   6
   4  10  -4 83.5915 4.59787  12
  -4  10   4 83.9275 6.03636   8
   4  10  -4 85.6160 4.68039   6
   2 -10  -4 1351.89 35.0221   2
  -2 -10   4 1339.38 35.3838   2
  -2 -10   4 1345.76 32.3087   7
  -2 -10   4 1372.58 35.0375  10
   2 -10  -4 1390.34 33.2850  11
  -2  10   4 1382.16 34.8366   8
  -2  10   4 1347.98 31.1738   6
   2  10  -4 1380.17 32.5730   6
   0 -10   4 139.520 6.42609   7
   0 -10  -4 147.919 8.99881   2
   0 -10  -4 137.898 7.05774  11
   0 -10   4 153.329 8.15782  10
   0  10   4 147.240 7.60862   8
   0  10  -4 144.445 6.43189   9
   0  10  -4 146.755 6.33661   6
   2 -10   4 897.211 23.5124   7
  -2 -10  -4 901.420 24.2497  10
  -2 -10  -4 919.019 27.6850   2
  -2 -10  -4 918.393 24.0993  11
   2 -10   4 921.487 26.0178  10
  -2  10  -4 893.730 23.0686   6
   2  10   4 907.383 22.9381   1
  -2  10  -4 899.796 23.9422   9
  -4 -10  -4 81.7369 7.53565   2
   4 -10   4 73.4826 6.24550  10
   4 -10   4 76.8393 5.26377   7
  -4 -10  -4 79.3063 5.94238  10
  -4  10  -4 78.5548 5.62142   9
  -4  10  -4 74.9491 4.83366   6
   4  10   4 68.4216 4.74657   1
   7 -11  -4 99.3682 6.19506  11
  -7 -11   4 93.9402 7.17339  10
   7  11  -4 98.0389 5.95889  12
  -7  11   4 99.4311 7.08324   8
  -7  11   4 88.8212 5.11372   6
   7  11  -4 90.8878 5.07491   6
  -5 -11   4 85.7265 6.88777   2
  -5 -11   4 85.7799 7.15013  10
   5 -11  -4 92.4586 6.04989  11
  -5  11   4 78.5102 4.78619   6
   5  11  -4 86.4984 5.33222  12
  -5  11   4 89.3965 6.75402   8
   5  11  -4 78.8870 5.03489   6
   3 -11  -4 138.298 6.90933  11
  -3 -11   4 142.955 8.56403   2
   3 -11  -4 144.327 8.34493   2
  -3 -11   4 139.747 8.27559  10
  -3  11   4 136.538 5.84098   6
  -3  11   4 139.676 8.03174   8
   3  11  -4 140.951 6.61407   6
  -1 -11   4 113.931 7.14118  10
  -1 -11   4 125.282 7.65142   2
   1 -11  -4 124.669 6.89917  11
   1 -11  -4 119.104 8.19797   2
   1  11  -4 120.788 6.12272   6
  -1  11   4 123.561 7.15708   8
  -1 -11  -4 109.711 8.50480   2
   1 -11   4 101.222 7.13610  10
  -1 -11  -4 94.6834 5.80234  11
  -1  11  -4 105.189 5.93213   9
  -1  11  -4 95.2681 5.55976   6
   1  11   4 100.401 6.51442   8
   3 -11   4 98.0920 6.75881  10
  -3 -11  -4 92.2007 8.29149   2
  -3  11  -4 101.946 5.47902   6
  -3  11  -4 104.354 6.36682   9
   3  11   4 97.4566 5.57391   1
  -6 -12   4 78.1719 6.75686  10
   6 -12  -4 84.4088 6.13843  11
  -6  12   4 88.2757 6.74184   8
   6  12  -4 80.0857 5.11597   6
  -6  12   4 70.4637 4.90864   6
  -4 -12   4 647.113 21.7444   2
   4 -12  -4 670.425 21.1450   2
   4 -12  -4 683.574 19.8526  11
  -4 -12   4 666.556 21.5565  10
   4  12  -4 675.760 18.7217   6
  -4  12   4 677.848 21.5133   8
  -4  12   4 668.904 17.9005   6
   2 -12  -4 53.2878 6.16005   2
  -2 -12   4 50.3544 5.76229   2
   2 -12  -4 58.5367 5.58188  11
  -2 -12   4 54.0182 5.75903  10
   2  12  -4 51.7906 4.32066   6
  -2  12   4 50.2531 5.34552   8
   0 -12  -4 737.657 21.2887  11
   0 -12   4 786.843 24.3860   2
   0 -12   4 759.815 23.0932  10
   0 -12  -4 752.849 24.3224   2
   0  12  -4 757.203 20.7588   6
   0  12   4 746.028 22.7833   8
  -2 -12  -4 27.9728 3.54191  11
  -2 -12  -4 29.7291 5.36505   2
   2 -12   4 31.9226 4.30583  10
  -2  12  -4 32.9820 3.87693   9
  -2  12  -4 29.3911 3.53656   6
   2  12   4 27.8154 4.21163   8
   3 -13  -4 14.4905 2.93400  11
  -3 -13   4 15.8751 3.48071  10
   3 -13  -4 8.88186 3.52439   2
  -3 -13   4 20.7312 4.32494   2
   3  13  -4 13.0321 2.34737   6
  -3  13   4 16.2267 3.68223   8
  -1 -13   4 14.5076 3.69692  10
   1 -13  -4 13.9758 4.45134   2
   1 -13  -4 13.8785 3.53812  11
  -1 -13   4 15.0876 4.14538   2
  -1  13   4 13.8840 3.50125   8
   1  13  -4 13.0352 2.84687   6
  12   0  -5 1.51635 1.86037  12
  12   0  -5 3.70756 2.30398   1
 -12   0   5 0.70631 2.52539  14
 -12   0   5 1.91552 2.39123   3
 -10   0   5 0.69267 1.74284   3
  10   0  -5 1.63438 1.71703  12
  10   0  -5 1.93700 1.83715  16
 -10   0   5 3.30856 2.47302  14
  10   0  -5 0.74291 1.71248   1
  -8   0   5 -0.0173 1.08178   3
  -8   0   5 3.93507 1.85510  14
   8   0  -5 -1.0338 0.75498  12
   8   0  -5 0.84913 1.32790  16
   8   0  -5 3.47935 1.19651   5
   6   0  -5 0.11684 0.35213  11
  -6   0   5 -0.0613 0.56986   8
   6   0  -5 3.92216 1.20300  16
   6   0  -5 0.16337 0.75282  15
  -6   0   5 1.15635 0.91088   7
  -6   0   5 0.92584 0.50863  10
   6   0  -5 1.26189 0.97804   5
   6   0  -5 1.55624 1.02560  12
  -4   0   5 0.91107 0.46035  10
  -4   0   5 2.76319 0.62080   8
   4   0  -5 0.50996 0.53978  12
   4   0  -5 1.56032 0.61953  11
  -4   0   5 2.77993 0.94366   4
  -4   0   5 0.90525 0.69127   7
   4   0  -5 0.41428 0.89997  15
   4   0  -5 -0.3461 0.67491   5
  -2   0   5 0.41132 0.49308   4
  -2   0   5 0.51202 0.53176  13
   2   0  -5 1.11933 0.65212   5
   2   0  -5 0.17068 0.54037  11
   2   0  -5 0.56844 0.35382  12
  -2   0   5 1.44742 0.54033   7
   2   0  -5 0.82178 0.55982   2
   2   0  -5 0.72359 0.78724  15
   0   0  -5 0.82996 0.39111   5
   0   0  -5 -0.0727 0.45972   2
   0   0  -5 0.82738 0.98624  15
   0   0   5 0.17333 0.39322  13
   0   0   5 0.25429 0.50011   4
   0   0  -5 0.44806 0.58602  11
   0   0   5 2.93763 0.48150   1
  -2   0  -5 1.33559 0.75988  11
   2   0   5 -0.0962 0.76336  13
   2   0   5 0.62136 0.45996   1
   2   0   5 4.04735 1.04542   4
  -2   0  -5 1.99464 0.69393   3
   2   0   5 0.48219 0.52887  16
  -2   0  -5 1.08191 1.16651   2
   4   0   5 0.94132 0.60335  16
   4   0   5 -1.6716 0.95175  13
  -4   0  -5 0.32595 1.15874   9
  -4   0  -5 0.58469 0.78549   3
   4   0   5 0.29027 0.67803   1
   4   0   5 2.17123 1.08596   4
  -4   0  -5 0.51434 0.74783  11
  -6   0  -5 0.78554 1.15431   9
   6   0   5 0.91508 1.59421  13
   6   0   5 -0.2176 1.59759   4
   8   0   5 2.12627 1.92974  13
  -8   0  -5 0.56988 1.73440   9
   8   0   5 0.80491 1.83484   4
  11  -1  -5 966.667 27.4021  16
  11  -1  -5 996.869 26.5909   1
  11  -1  -5 1004.57 26.3100  12
 -11  -1   5 980.722 28.0007   3
 -11  -1   5 1060.92 31.2114  14
  11   1  -5 1027.81 26.4941  12
  11   1  -5 1019.17 26.8243   1
 -11   1   5 1065.05 32.0275  14
 -11   1   5 1011.92 28.2877   3
  11   1  -5 965.568 27.5463  16
   9  -1  -5 118.614 6.35398  16
   9  -1  -5 121.128 5.91960   1
  -9  -1   5 123.477 7.67862  14
   9  -1  -5 115.177 4.85418   5
  -9  -1   5 122.382 6.46487   3
   9  -1  -5 122.213 5.92819  12
  -9   1   5 118.554 6.22852   3
   9   1  -5 119.290 5.77594   1
   9   1  -5 115.887 5.82144  12
   9   1  -5 117.472 6.18583  16
  -9   1   5 115.244 7.81175  14
   7  -1  -5 2022.61 46.0126  16
  -7  -1   5 2089.67 45.5071   7
  -7  -1   5 1931.10 44.6133  10
   7  -1  -5 2043.65 45.5877  12
   7  -1  -5 2053.51 45.1752   5
  -7  -1   5 2065.45 48.2718  14
  -7   1   5 2048.47 45.9975   3
   7   1  -5 2112.43 45.4644   1
   7   1  -5 2021.69 44.9830   5
  -7   1   5 2049.07 45.1307   7
   7   1  -5 2049.33 45.5649  12
  -7   1   5 2110.46 49.0324  14
   7   1  -5 2070.48 46.0584  16
  -7   1   5 2013.01 45.4966   8
   5  -1  -5 443.770 11.4463   5
  -5  -1   5 421.827 11.0152   7
   5  -1  -5 431.684 11.1790  12
   5  -1  -5 439.676 10.5229  11
  -5  -1   5 413.859 10.1828   8
   5  -1  -5 444.311 13.5561  15
  -5  -1   5 426.718 10.6498  10
  -5  -1   5 433.808 11.4503   4
  -5   1   5 429.565 10.7440   7
   5   1  -5 434.179 11.2234  16
  -5   1   5 435.600 11.0882   3
  -5   1   5 445.480 11.5119   4
   5   1  -5 426.068 11.1398   5
   5   1  -5 424.852 12.9487  15
   5   1  -5 433.721 10.2669  11
  -5   1   5 434.898 11.0842   8
   5   1  -5 421.399 11.1684  12
  -3  -1   5 3130.06 64.9021   4
   3  -1  -5 3229.42 80.7443  15
   3  -1  -5 3069.71 67.7726   2
   3  -1  -5 2974.32 66.9559  11
  -3  -1   5 3085.04 64.1733  13
  -3  -1   5 2919.98 68.3610  10
   3  -1  -5 3180.03 65.0476   5
  -3  -1   5 3066.95 66.4216   7
  -3  -1   5 2886.36 66.0290   8
  -3   1   5 2894.72 65.6988   3
  -3   1   5 3056.24 66.0573   8
   3   1  -5 2983.90 66.2409  11
  -3   1   5 3029.20 64.7773   4
   3   1  -5 3041.62 64.7294   5
  -3   1   5 3141.25 64.5683  13
   3   1  -5 2953.98 64.2257  12
  -3   1   5 3062.63 66.2170   7
   3   1  -5 3151.56 74.0299  15
   1  -1  -5 1208.35 26.7065  11
   1  -1  -5 1212.50 26.5168   5
   1  -1  -5 1211.57 27.3680   2
  -1  -1   5 1187.00 26.7582   4
   1  -1  -5 1233.55 30.1437  15
  -1  -1   5 1162.83 26.3756   7
  -1  -1   5 1168.39 25.9864  13
   1   1  -5 1218.30 29.8043  15
  -1   1   5 1219.55 26.6863   4
  -1   1   5 1187.34 26.3157  13
   1   1  -5 1203.22 26.3727   5
   1   1  -5 1164.66 25.4230  12
   1   1  -5 1189.88 26.5040  11
  -1   1   5 1173.40 25.8811   7
  -1  -1  -5 1923.15 41.1380  11
   1  -1   5 1873.79 39.7841  16
  -1  -1  -5 1922.70 44.5831  15
  -1  -1  -5 1907.80 42.8840   2
   1  -1   5 1907.51 41.5865   4
  -1  -1  -5 1878.33 40.1680   5
   1  -1   5 1865.97 39.5964   1
   1  -1   5 1906.97 40.8235  13
  -1   1  -5 1817.70 39.7059   6
   1   1   5 1930.39 40.5136  16
   1   1   5 1919.22 41.0662  13
  -1   1  -5 1791.08 40.5428   3
   1   1   5 1882.68 41.3400   4
   1   1   5 1862.58 40.1312   1
  -1   1  -5 1895.49 40.2525   5
  -1   1  -5 1913.87 41.0799  11
  -3  -1  -5 779.644 18.3749  11
   3  -1   5 776.754 19.4874   4
   3  -1   5 766.900 18.7523  13
  -3  -1  -5 783.305 20.9356   2
   3   1   5 764.175 19.2511   4
   3   1   5 756.973 17.8489   1
  -3   1  -5 771.544 18.3511  11
  -3   1  -5 750.682 18.8520   3
  -3   1  -5 784.490 19.9080   9
   3   1   5 770.977 18.3152  16
   3   1   5 799.681 19.0400  13
  -5  -1  -5 666.600 18.5899   9
   5  -1   5 686.303 18.7903   4
  -5  -1  -5 659.900 19.9359   2
   5  -1   5 690.724 17.9582  13
  -5   1  -5 651.997 18.1028   3
   5   1   5 650.466 16.4894   1
   5   1   5 679.805 17.9421  13
   5   1   5 664.954 18.2635   4
   5   1   5 652.026 17.0280  16
  -5   1  -5 671.733 18.6882   9
  -7  -1  -5 324.048 11.7881   9
   7  -1   5 343.711 12.4897   4
   7  -1   5 332.665 11.7572  13
  -7   1  -5 324.204 12.0497   9
   7   1   5 330.296 11.7058  13
   7   1   5 352.392 12.4734   4
  12  -2  -5 242.389 9.82814  12
 -12  -2   5 247.451 12.5069  14
  12  -2  -5 227.270 9.97142   1
 -12  -2   5 243.621 11.4174   3
  12   2  -5 252.509 9.90043  12
  12   2  -5 232.002 10.2018   1
 -12   2   5 245.394 13.6915  14
 -12   2   5 242.103 11.3661   3
 -10  -2   5 528.088 16.9011   3
  10  -2  -5 526.118 15.6092  12
  10  -2  -5 495.487 16.2812  16
 -10  -2   5 531.412 18.4831  14
  10  -2  -5 500.247 15.6242   1
 -10   2   5 541.669 20.0230  14
  10   2  -5 511.512 15.6675   1
  10   2  -5 527.668 15.5414  12
 -10   2   5 524.123 16.8167   3
  10   2  -5 531.836 16.5837  16
  -8  -2   5 530.187 14.5813  10
   8  -2  -5 542.931 14.4737   5
   8  -2  -5 538.776 14.9030  12
  -8  -2   5 551.314 14.9993   7
  -8  -2   5 565.318 17.5922  14
   8  -2  -5 543.191 15.6524  16
  -8   2   5 534.522 15.3432   8
  -8   2   5 543.321 15.5569   3
   8   2  -5 543.136 15.4524  16
   8   2  -5 531.585 14.0550   5
   8   2  -5 548.152 14.8382   1
  -8   2   5 557.820 18.3717  14
   8   2  -5 547.418 15.0083  12
  -6  -2   5 946.268 22.3894  10
   6  -2  -5 943.717 22.6741  12
   6  -2  -5 990.791 21.6579  11
  -6  -2   5 954.297 22.6119   7
   6  -2  -5 991.896 25.5005  15
   6  -2  -5 974.122 22.7511   5
   6   2  -5 954.000 22.2010   1
  -6   2   5 961.122 22.9301   8
  -6   2   5 969.344 25.3211  14
  -6   2   5 935.896 22.6649   3
   6   2  -5 961.638 22.6981  12
   6   2  -5 929.414 22.3128   5
   6   2  -5 949.768 22.6590  16
   4  -2  -5 1282.40 27.3764  11
  -4  -2   5 1212.20 27.5213   4
   4  -2  -5 1239.66 31.1783  15
  -4  -2   5 1189.99 27.0922  10
   4  -2  -5 1205.24 26.4441   2
  -4  -2   5 1212.20 27.3408   7
   4  -2  -5 1267.92 27.8502   5
   4   2  -5 1208.78 26.7319  11
   4   2  -5 1200.11 26.8862  16
   4   2  -5 1215.56 27.4001   5
  -4   2   5 1207.55 26.8266   3
   4   2  -5 1222.49 27.1907  12
  -4   2   5 1224.21 27.5366   4
  -4   2   5 1211.67 26.4549   7
  -4   2   5 1224.34 27.6004   8
  -2  -2   5 865.643 19.9236   7
   2  -2  -5 870.080 20.3392   2
   2  -2  -5 887.256 23.8261  15
  -2  -2   5 853.549 19.1204  13
   2  -2  -5 909.538 20.3139  11
   2  -2  -5 876.414 20.2135   5
  -2  -2   5 849.988 19.9857   4
  -2   2   5 877.111 19.8828   4
  -2   2   5 885.142 19.8020  13
   2   2  -5 840.506 19.1361  12
   2   2  -5 873.093 19.9043   5
   2   2  -5 855.690 19.7224  11
  -2   2   5 862.639 18.8274   7
   0  -2   5 1081.32 24.5706   7
   0  -2  -5 1093.24 28.1880  15
   0  -2   5 1068.62 23.7318  13
   0  -2  -5 1090.85 24.6977  11
   0  -2  -5 1058.03 24.0777   5
   0  -2  -5 1095.96 25.8867   2
   0  -2   5 1055.73 24.6506   4
   0   2   5 1111.34 24.3504  13
   0   2  -5 1086.22 23.9933   5
   0   2   5 1081.06 24.3592   4
   0   2  -5 1051.48 24.3218  11
   0   2   5 1094.18 23.7141   1
  -2  -2  -5 455.776 11.9036  11
   2  -2   5 462.118 11.6758  13
  -2  -2  -5 458.697 13.8702   2
   2  -2   5 454.453 12.5185   4
  -2  -2  -5 473.358 14.7994  15
  -2   2  -5 450.011 10.7811   6
   2   2   5 448.956 12.0708   4
   2   2   5 444.344 11.5985  16
   2   2   5 455.600 11.2674   1
  -2   2  -5 481.958 12.9270   9
  -2   2  -5 472.415 11.8577  11
  -2   2  -5 459.549 10.8218   5
   2   2   5 459.723 12.0377  13
  -2   2  -5 463.627 12.1359   3
   4  -2   5 296.196 9.98969   4
  -4  -2  -5 306.003 11.4001   2
  -4  -2  -5 292.562 8.56993  11
   4  -2   5 307.826 9.42885  13
   4   2   5 313.125 9.62441  13
  -4   2  -5 308.113 10.2874   9
   4   2   5 311.211 8.76045   1
  -4   2  -5 301.612 9.89068   3
   4   2   5 302.586 9.71213   4
   4   2   5 302.053 9.16232  16
   6  -2   5 234.890 9.59603   4
  -6  -2  -5 236.761 9.12824   9
  -6  -2  -5 225.188 10.3999   2
   6  -2   5 230.043 8.72176  13
   6   2   5 217.222 8.12252  16
   6   2   5 221.100 7.69205   1
   6   2   5 214.622 8.63927  13
  -6   2  -5 219.647 9.15925   3
   6   2   5 218.065 8.83095   4
  -6   2  -5 219.821 9.24852   9
   8  -2   5 74.0861 5.98916   4
   8  -2   5 78.8988 5.51712  13
  -8   2  -5 73.4812 5.57178   9
   8   2   5 68.9321 5.39702  13
   8   2   5 76.5523 5.62255   4
  11  -3  -5 173.054 7.86429  12
 -11  -3   5 158.752 8.82317   3
  11  -3  -5 157.388 8.11556  16
  11  -3  -5 161.168 7.96827   1
 -11  -3   5 164.010 9.44274  14
 -11   3   5 168.752 11.0274  14
  11   3  -5 163.765 7.88750   1
 -11   3   5 164.828 8.76753   3
  11   3  -5 162.003 8.22807  16
  11   3  -5 176.414 7.97527  12
  -9  -3   5 856.985 22.5676  10
  -9  -3   5 878.491 22.7399   7
   9  -3  -5 865.641 21.7112   5
  -9  -3   5 917.047 25.7560  14
   9  -3  -5 878.424 22.6013  12
   9  -3  -5 877.270 23.5798  16
   9   3  -5 874.142 22.4191   1
  -9   3   5 899.943 27.3733  14
  -9   3   5 873.384 23.5837   3
   9   3  -5 865.800 22.6545  12
   9   3  -5 866.362 23.2041  16
  -9   3   5 880.487 23.6330   8
   7  -3  -5 583.191 15.1184   5
   7  -3  -5 567.095 17.4947  15
  -7  -3   5 541.629 15.0763  10
   7  -3  -5 584.066 15.2618  12
  -7  -3   5 566.729 15.1966   7
  -7   3   5 568.079 15.7456   8
   7   3  -5 571.967 14.7560   1
   7   3  -5 557.937 14.5896   5
  -7   3   5 607.877 18.4755  14
   7   3  -5 574.832 15.3084  16
  -7   3   5 558.953 15.4463   3
   7   3  -5 576.627 15.2400  12
  -5  -3   5 2497.53 54.1001   7
  -5  -3   5 2444.93 54.1042  10
  -5  -3   5 2486.33 54.0970   4
   5  -3  -5 2499.52 58.0443  15
   5  -3  -5 2548.22 54.5045   5
   5  -3  -5 2491.86 53.7372  11
   5   3  -5 2506.61 54.0315  12
   5   3  -5 2484.24 53.3117   1
  -5   3   5 2495.97 53.9861   3
   5   3  -5 2475.30 53.9956   5
  -5   3   5 2484.07 56.5582  14
  -5   3   5 2535.85 54.6875   8
   5   3  -5 2506.70 53.7694  16
  -3  -3   5 1051.34 24.4990  10
   3  -3  -5 1064.63 24.4071  11
  -3  -3   5 1063.41 24.1740   4
   3  -3  -5 1075.08 28.3665  15
   3  -3  -5 1077.23 24.5958   5
  -3  -3   5 1085.27 24.2956   7
   3  -3  -5 1069.01 24.4107   2
  -3   3   5 1094.49 24.0962   4
   3   3  -5 1056.94 23.7691  11
  -3   3   5 1074.18 24.0984  13
   3   3  -5 1073.27 23.7542  12
   3   3  -5 1073.02 24.2340   5
  -3   3   5 1049.49 22.6208   7
  -3   3   5 1039.48 22.9848   3
   3   3  -5 1031.35 22.7978   1
   3   3  -5 1042.75 23.0189  16
  -3   3   5 1073.71 24.6752   8
   3   3  -5 1074.58 23.2220   9
   1  -3  -5 2883.14 65.1332  15
  -1  -3   5 2784.77 60.2687   7
  -1  -3   5 2748.51 60.1182   4
   1  -3  -5 2846.11 60.5285  11
   1  -3  -5 2862.93 61.4360   2
   1  -3  -5 2785.05 60.0956   5
  -1  -3   5 2699.62 60.5890  13
  -1   3   5 2938.29 59.9692  13
   1   3  -5 2816.25 59.9991   9
   1   3  -5 2720.99 58.7968  12
  -1   3   5 2845.44 59.4158   1
  -1   3   5 2739.20 59.5366   7
  -1   3   5 2861.99 59.7449   4
   1   3  -5 2819.65 59.8649   5
   1   3  -5 2769.51 59.8870  11
   1  -3   5 281.748 8.47765   4
  -1  -3  -5 286.161 9.81932   2
  -1  -3  -5 267.743 7.57119   5
  -1  -3  -5 288.757 8.36154  11
   1  -3   5 281.700 7.47667  13
  -1  -3  -5 279.558 11.0383  15
   1   3   5 290.388 8.15640  13
  -1   3  -5 287.471 7.59778   5
   1   3   5 290.529 8.01873  16
  -1   3  -5 290.259 8.68579   9
   1   3   5 280.234 7.60325   1
  -1   3  -5 308.625 7.50243   6
  -1   3  -5 282.803 8.09098  11
  -1   3  -5 271.657 8.22388   3
   1   3   5 275.203 7.88767   4
   3  -3   5 1493.36 34.5952   4
  -3  -3  -5 1445.25 36.5807  15
  -3  -3  -5 1430.80 33.3365  11
  -3  -3  -5 1499.80 36.6293   2
   3  -3   5 1511.93 33.4180  13
  -3   3  -5 1472.84 34.5379   3
   3   3   5 1507.66 33.6940  16
   3   3   5 1451.98 33.6813   4
  -3   3  -5 1511.41 34.9923   9
   3   3   5 1503.82 33.1250   1
   3   3   5 1511.43 33.9669  13
   5  -3   5 49.9743 3.92881   4
   5  -3   5 56.6619 3.58181  13
  -5  -3  -5 51.3774 4.97722   2
  -5   3  -5 49.8431 4.16488   9
   5   3   5 57.5627 3.73710   4
  -5   3  -5 49.0458 4.03297   3
   5   3   5 54.6540 3.54962  16
   5   3   5 52.8753 3.71900  13
   5   3   5 54.0853 3.26923   1
  -7  -3  -5 778.038 23.9760   2
   7  -3   5 798.398 21.3594  13
  -7  -3  -5 739.882 21.1869   9
   7  -3   5 796.805 22.6582   4
   7   3   5 751.427 21.2974   4
   7   3   5 771.255 20.1508   1
  -7   3  -5 786.712 22.9142   3
   7   3   5 783.674 21.4554  13
   7   3   5 767.769 20.9614  16
  -7   3  -5 795.092 22.3315   9
 -12  -4   5 2.63115 2.63181   3
  12  -4  -5 2.08733 1.40632  12
  12  -4  -5 6.38960 2.39797   1
 -12   4   5 9.87123 4.17797  14
 -12   4   5 3.53069 2.34660   3
  12   4  -5 5.58979 2.22541  12
  12   4  -5 3.60829 2.28256   1
  10  -4  -5 68.6730 5.26718  16
 -10  -4   5 64.6557 4.84506  10
  10  -4  -5 68.5600 4.79882  12
 -10  -4   5 68.5640 5.95540  14
 -10   4   5 61.7015 5.19525   3
 -10   4   5 63.9726 5.32455   8
  10   4  -5 67.4614 4.83687  12
 -10   4   5 75.9336 7.59240  14
  10   4  -5 61.7194 4.70119   1
  10   4  -5 62.2957 4.72671  16
   8  -4  -5 5.43246 1.71687   5
  -8  -4   5 8.06103 2.11584  10
  -8  -4   5 7.70284 1.98801   7
   8   4  -5 5.48549 1.33323   5
   8   4  -5 8.30512 1.87041   1
   8   4  -5 5.87648 1.78817  12
   8   4  -5 9.08512 1.97483  16
  -8   4   5 4.83021 2.43083  14
  -8   4   5 6.27125 2.10509   8
  -8   4   5 8.98494 2.10411   3
   6  -4  -5 117.648 4.61673  11
   6  -4  -5 115.875 6.94904  15
   6  -4  -5 124.983 5.28173   5
  -6  -4   5 118.925 5.31584  10
  -6  -4   5 119.026 5.02478   7
  -6   4   5 115.803 6.53436  14
   6   4  -5 120.703 4.87485  16
  -6   4   5 110.709 4.88843   3
   6   4  -5 122.294 4.94169  12
  -6   4   5 125.807 5.63639   8
   6   4  -5 118.517 4.70167   5
   6   4  -5 118.676 4.48792   1
  -4  -4   5 188.413 6.46999  10
  -4  -4   5 196.350 6.33230   7
  -4  -4   5 190.233 6.08262   4
   4  -4  -5 188.078 6.17343   2
   4  -4  -5 195.653 6.45331  11
   4  -4  -5 194.790 9.35458  15
   4  -4  -5 195.974 6.64322   5
  -4   4   5 184.833 7.19328  14
  -4   4   5 190.267 5.74550   3
   4   4  -5 181.534 5.16381   1
   4   4  -5 184.834 5.45334  16
   4   4  -5 195.658 6.05421  12
  -4   4   5 184.939 6.63041   8
   4   4  -5 191.198 6.23070   5
  -4   4   5 198.835 6.10777   4
   2  -4  -5 77.8318 5.80413  15
  -2  -4   5 72.9606 3.53531   7
  -2  -4   5 78.5535 3.88345  10
   2  -4  -5 80.4842 4.18571   2
   2  -4  -5 88.3209 3.96086  11
  -2  -4   5 81.2589 3.44153   4
   2   4  -5 75.4308 2.93184  12
  -2   4   5 79.3650 3.13434   4
  -2   4   5 79.8554 3.35643  13
   2   4  -5 81.9893 3.45545   5
   2   4  -5 75.7095 3.05682   9
  -2   4   5 79.8633 3.53470  14
   0  -4  -5 492.358 16.7921  15
   0  -4   5 486.570 12.7652   4
   0  -4  -5 509.626 13.2944  11
   0  -4  -5 509.068 14.4210   2
   0  -4   5 513.478 13.1755   7
   0  -4  -5 494.044 12.3945  10
   0  -4  -5 492.095 12.6036   5
   0  -4   5 479.208 11.4177  13
   0   4  -5 502.573 12.4529   5
   0   4  -5 496.322 12.9446   9
   0   4  -5 487.443 12.1370   6
   0   4   5 499.681 12.1697   4
   0   4   5 505.875 12.2213   1
   0   4   5 513.137 12.6523  13
   2  -4   5 229.132 6.59669  13
  -2  -4  -5 231.218 10.0480  15
  -2  -4  -5 237.212 7.97127  10
   2  -4   5 222.853 7.67281   4
  -2  -4  -5 219.901 7.30587  11
  -2  -4  -5 234.587 9.35500   2
   2   4   5 221.271 6.92907   4
  -2   4  -5 221.869 6.54744   6
   2   4   5 234.397 7.31653  13
   2   4   5 234.684 6.95955   1
  -2   4  -5 219.112 7.70103   3
   2   4   5 227.208 7.29394  16
  -2   4  -5 238.309 8.06738   9
  -4  -4  -5 184.125 8.95899   2
  -4  -4  -5 170.515 6.07244  11
   4  -4   5 178.285 6.42960  13
   4  -4   5 176.534 7.40596   4
   4   4   5 190.594 6.99356  16
   4   4   5 179.557 6.94099  13
   4   4   5 184.897 6.68873   4
   4   4   5 179.291 6.43670   1
  -4   4  -5 166.963 7.41111   3
  -4   4  -5 188.745 7.66865   9
  -6  -4  -5 271.157 11.8293   2
   6  -4   5 263.765 9.41302  13
   6  -4   5 264.449 10.3894   4
   6   4   5 263.535 9.58729   4
  -6   4  -5 266.440 10.4332   9
  -6   4  -5 255.185 10.6857   3
   6   4   5 270.687 9.66402  16
   6   4   5 269.895 9.11049   1
   6   4   5 276.568 9.98537  13
   8  -4   5 59.1698 4.43516  13
   8  -4   5 57.0644 5.05825   4
   8   4   5 59.2109 4.08320   1
  -8   4  -5 58.0370 5.42612   3
   8   4   5 60.6078 5.07804  13
  -8   4  -5 63.0142 5.01368   9
  11  -5  -5 576.284 17.3437   1
  11  -5  -5 587.401 17.0838  12
 -11  -5   5 549.828 18.5926   3
 -11   5   5 563.488 18.4639   3
 -11   5   5 568.573 18.9937   8
 -11   5   5 564.910 22.9495  14
  11   5  -5 551.018 17.0132  12
  11   5  -5 538.697 16.8369   1
   9  -5  -5 321.739 10.6145  12
  -9  -5   5 296.273 12.0503  14
   9  -5  -5 295.849 9.74826   5
  -9  -5   5 295.483 10.8107  10
  -9  -5   5 292.069 10.4995   7
  -9   5   5 319.559 11.8119   8
  -9   5   5 305.080 11.2484   3
  -9   5   5 302.815 14.3443  14
   9   5  -5 297.002 10.5291  12
   9   5  -5 297.599 10.5452  16
   9   5  -5 295.589 10.0796   1
  -7  -5   5 672.527 18.6702  10
   7  -5  -5 676.299 21.4750  15
   7  -5  -5 707.984 18.0377   5
   7  -5  -5 707.957 17.0963  11
  -7  -5   5 691.277 18.0078   7
   7   5  -5 673.342 17.7968  16
  -7   5   5 696.299 18.4482   3
   7   5  -5 669.115 17.1612   1
   7   5  -5 685.177 17.4303   5
  -7   5   5 700.482 19.1920   8
   7   5  -5 676.791 17.9701  12
  -7   5   5 695.049 21.5763  14
  -5  -5   5 327.101 9.51245   4
  -5  -5   5 350.469 10.7337  10
   5  -5  -5 358.305 10.0259  11
  -5  -5   5 352.445 10.1653   7
   5  -5  -5 370.112 10.4881   5
  -5  -5   5 328.520 9.93302   2
   5  -5  -5 352.848 13.5040  15
   5   5  -5 346.208 9.99567   5
   5   5  -5 340.288 9.40881  16
  -5   5   5 366.530 11.0470   8
   5   5  -5 364.200 10.1043  12
  -5   5   5 353.048 9.43133   6
  -5   5   5 344.265 9.94436   3
   5   5  -5 342.294 9.06249   1
  -5   5   5 347.406 11.9771  14
  -3  -5   5 1126.39 27.1281  10
  -3  -5   5 1141.98 26.3934   7
   3  -5  -5 1147.67 31.0373  15
   3  -5  -5 1164.00 26.4747  11
   3  -5  -5 1176.01 27.1347   2
  -3  -5   5 1111.97 25.7282   4
   3   5  -5 1140.16 25.6615  12
  -3   5   5 1121.59 25.8563  13
  -3   5   5 1059.84 26.7933  14
  -3   5   5 1115.26 25.3809   4
  -3   5   5 1164.06 27.2363   8
   3   5  -5 1144.19 26.2229   5
  -3   5   5 1143.13 25.1227   6
   1  -5  -5 866.126 25.7629  15
   1  -5  -5 890.222 22.6820   2
  -1  -5   5 885.459 21.1518   7
  -1  -5   5 867.262 20.5524   4
   1  -5  -5 887.962 21.4933  11
   1   5  -5 855.411 19.5995  12
  -1   5   5 877.771 20.4710  13
   1   5  -5 877.539 20.6560   5
   1   5  -5 897.106 20.6489   9
  -1   5   5 859.932 19.8150   4
  -1  -5  -5 1291.60 35.5718  15
   1  -5   5 1371.35 31.2867   7
   1  -5   5 1340.41 30.8628   4
  -1  -5  -5 1365.25 33.3279   2
  -1  -5  -5 1316.52 31.1299  11
  -1  -5  -5 1357.46 30.8373  10
  -1   5  -5 1347.36 31.2111   9
   1   5   5 1353.66 30.4458  13
  -1   5  -5 1296.16 29.9474   6
   1   5   5 1382.04 30.1743   1
   1   5   5 1337.71 30.6476  16
   1   5   5 1326.56 29.6915   4
  -3  -5  -5 800.793 21.1357  10
  -3  -5  -5 770.094 19.7760  11
  -3  -5  -5 829.263 23.3006   2
   3  -5   5 807.091 20.6490   4
  -3   5  -5 791.146 19.0388   6
   3   5   5 801.450 20.1166  16
   3   5   5 813.435 19.9780  13
  -3   5  -5 806.281 21.2631   3
  -3   5  -5 829.548 21.1338   9
   3   5   5 798.690 19.5000   1
   3   5   5 767.190 19.2478   4
   5  -5   5 609.333 17.8872   4
  -5  -5  -5 633.283 20.3559   2
   5   5   5 615.823 16.4393   1
   5   5   5 623.813 17.1035  13
  -5   5  -5 618.010 18.0915   9
   5   5   5 615.622 17.0888  16
  -5   5  -5 606.884 18.6009   3
  -7  -5  -5 244.627 11.7229   2
   7  -5   5 249.038 10.5118   4
  -7   5  -5 242.950 11.1014   3
  -7   5  -5 254.902 10.4823   9
   7   5   5 237.747 9.01137   1
   7   5   5 253.739 9.82355  13
  10  -6  -5 6.72451 2.27417  12
 -10  -6   5 13.2952 3.03092  10
  10  -6  -5 5.83101 2.18610  16
 -10   6   5 11.8968 3.97789  14
 -10   6   5 7.80781 2.18263   3
  10   6  -5 7.17523 1.95772  12
  10   6  -5 5.81116 1.93154  16
  10   6  -5 8.15476 2.28713   1
 -10   6   5 8.99382 3.12553   8
  -8  -6   5 71.2854 4.80334   7
   8  -6  -5 64.4622 4.42545   5
  -8  -6   5 64.6471 5.21705  10
   8   6  -5 63.6988 3.75216   5
  -8   6   5 69.7613 4.76129   3
  -8   6   5 68.6834 5.29077   8
   8   6  -5 64.1475 4.41316  12
   8   6  -5 62.4268 4.03179  16
  -8   6   5 62.0042 6.25019  14
   8   6  -5 62.5165 3.96362   1
   6  -6  -5 8.15461 2.81985  15
  -6  -6   5 10.0353 2.08730   7
   6  -6  -5 8.02680 1.80165  11
   6  -6  -5 8.74875 1.75235   5
  -6   6   5 7.87619 1.43082   6
  -6   6   5 6.39837 1.52897   3
   6   6  -5 7.56514 1.56151  12
  -6   6   5 8.58138 2.17155   8
   6   6  -5 6.55038 1.24176   1
   6   6  -5 7.50137 1.63164   5
   6   6  -5 9.25189 1.55715  16
  -6   6   5 2.92418 1.82636  14
  -4  -6   5 19.9257 1.84468   4
  -4  -6   5 22.7283 2.56454  10
   4  -6  -5 20.1249 2.47907   2
   4  -6  -5 22.4723 2.42771  11
  -4  -6   5 21.2213 2.43575   7
   4   6  -5 21.0761 2.30834   5
  -4   6   5 26.8230 1.85972   6
  -4   6   5 20.2633 2.47806  14
   4   6  -5 23.3069 2.17514  12
  -4   6   5 21.9545 2.83272   8
  -2  -6   5 305.503 10.1228  10
   2  -6  -5 286.698 12.8311  15
  -2  -6   5 302.736 9.24669   7
  -2  -6   5 293.160 8.37726   4
   2  -6  -5 299.019 9.40542  11
   2  -6  -5 302.076 10.3264   2
  -2   6   5 295.265 8.58537  13
   2   6  -5 297.356 8.90660   5
  -2   6   5 289.085 7.64559   6
   2   6  -5 301.284 8.29697   9
   2   6  -5 293.681 8.17372  12
  -2   6   5 301.650 9.89119   8
   0  -6  -5 19.1546 1.93561  10
   0  -6  -5 22.3523 3.20707   2
   0  -6   5 20.2612 2.43339   7
   0  -6  -5 26.6074 4.50029  15
   0  -6  -5 28.1464 2.75585  11
   0  -6   5 18.7275 1.97664   4
   0   6   5 21.8557 2.13849  13
   0   6  -5 20.0668 2.12398   9
   0   6   5 22.7507 2.13766   1
   0   6  -5 18.0992 1.90885   6
  -2  -6  -5 253.460 11.9089  15
  -2  -6  -5 246.875 8.72237  10
  -2  -6  -5 254.463 10.5686   2
  -2  -6  -5 241.378 8.58180  11
   2  -6   5 249.365 8.47901   4
   2  -6   5 244.527 8.82596   7
  -2   6  -5 252.765 7.71341   6
   2   6   5 248.878 8.40027  16
   2   6   5 246.910 8.05917  13
   2   6   5 250.127 7.91920   1
  -2   6  -5 267.072 9.09321   9
  -4  -6  -5 164.265 7.65597  10
   4  -6   5 173.124 7.29959   4
  -4  -6  -5 163.269 9.17301   2
  -4   6  -5 161.014 7.56365   9
   4   6   5 162.520 6.74357  13
  -4   6  -5 164.996 7.96275   3
  -4   6  -5 160.920 6.00198   6
   4   6   5 157.850 6.83102  16
   4   6   5 167.105 6.55070   1
   6  -6   5 55.2190 4.57452   4
  -6  -6  -5 56.8989 6.00456   2
  -6   6  -5 51.1519 5.13289   3
  -6   6  -5 56.5973 5.00715   9
   6   6   5 50.8776 4.29965  13
   6   6   5 50.9317 4.02542   1
 -11  -7   5 256.609 11.2963  10
  11   7  -5 279.163 10.5315   1
 -11   7   5 282.707 12.6617   8
  11   7  -5 277.243 10.8373  12
 -11   7   5 302.551 16.0174  14
 -11   7   5 275.206 11.8444   3
   9  -7  -5 206.678 8.15297   5
  -9  -7   5 201.993 8.44708   7
  -9  -7   5 202.804 9.25211  10
   9   7  -5 212.376 8.53245  12
  -9   7   5 210.612 9.30207   3
   9   7  -5 209.257 8.53687  16
  -9   7   5 208.133 10.0195   8
  -9   7   5 184.197 11.4686  14
   9   7  -5 207.021 7.99561   1
  -7  -7   5 1053.21 26.5514   7
  -7  -7   5 1076.99 28.1000  10
   7  -7  -5 1122.34 26.9195   5
   7  -7  -5 1027.19 31.2219  15
  -7   7   5 1103.36 28.5508   8
   7   7  -5 1074.70 26.5834  12
   7   7  -5 1046.77 25.9835  16
   7   7  -5 1072.50 26.0284   5
  -7   7   5 1075.46 30.8548  14
  -7   7   5 1106.27 27.2715   3
  -7   7   5 1063.45 25.6498   6
  -5  -7   5 652.006 18.1473  10
  -5  -7   5 635.252 16.8537   7
   5  -7  -5 564.963 18.0234   2
   5  -7  -5 643.558 21.7133  15
  -5  -7   5 627.728 17.5433   2
   5  -7  -5 648.551 16.8229  11
   5   7  -5 651.224 16.7662   5
  -5   7   5 633.426 15.8864   6
  -5   7   5 668.863 17.2779   3
  -5   7   5 589.808 18.6829  14
  -5   7   5 670.668 18.4106   8
   5   7  -5 653.229 16.6851  12
   3  -7  -5 1697.84 38.5017  11
  -3  -7   5 1653.54 38.3109   7
   3  -7  -5 1660.13 44.0614  15
   3  -7  -5 1698.64 39.5716   2
  -3  -7   5 1686.70 39.7935  10
   3   7  -5 1690.65 38.1791   5
  -3   7   5 1697.07 39.6858   8
   3   7  -5 1714.41 37.6188  12
  -3   7   5 1617.46 36.6947   6
   1  -7  -5 380.451 11.5315  11
  -1  -7   5 397.569 12.8183  10
   1  -7  -5 363.772 15.4834  15
  -1  -7   5 366.035 10.2660   4
  -1  -7   5 379.066 11.3431   7
   1  -7  -5 392.370 13.2470   2
   1   7  -5 370.644 9.95244  12
  -1   7   5 387.393 10.6371  13
   1   7  -5 391.061 10.9855   6
   1   7  -5 389.859 10.8294   9
  -1  -7  -5 880.057 21.9876  10
   1  -7   5 912.538 22.7743   7
  -1  -7  -5 916.819 25.3538   2
  -1  -7  -5 899.530 22.7380  11
   1  -7   5 875.854 21.5988   4
  -1  -7  -5 841.594 27.3956  15
   1   7   5 896.405 21.5183  13
  -1   7  -5 887.681 22.3243   9
  -1   7  -5 872.321 21.4528   6
   1   7   5 872.592 21.3657   1
   3  -7   5 57.1529 4.35089   7
  -3  -7  -5 58.8466 5.88951   2
  -3  -7  -5 55.4550 4.02133  11
   3  -7   5 61.4598 4.12358   4
  -3  -7  -5 62.6473 4.37048  10
   3   7   5 60.2792 4.12670  16
  -3   7  -5 58.9957 3.38756   6
  -3   7  -5 59.6631 4.18265   9
   3   7   5 61.1230 3.83537  13
   3   7   5 60.0404 3.82757   1
  -5  -7  -5 471.801 17.4939   2
   5  -7   5 461.597 15.0826   7
   5  -7   5 448.896 14.5666   4
  -5   7  -5 462.033 15.0569   9
   5   7   5 456.015 14.2442  16
   5   7   5 444.531 13.4743   1
   5   7   5 448.868 13.6716  13
 -10  -8   5 132.740 7.80660  10
  10  -8  -5 141.610 7.08653  12
  10   8  -5 140.180 7.34039  12
  10   8  -5 135.271 6.46468   1
 -10   8   5 145.761 8.13927   3
 -10   8   5 149.604 10.8966  14
 -10   8   5 147.046 8.90468   8
  -8  -8   5 585.394 18.8251  10
   8  -8  -5 606.631 17.3140   5
  -8  -8   5 596.769 17.3268   7
   8   8  -5 602.544 17.4169  12
  -8   8   5 621.414 18.2419   3
  -8   8   5 622.060 19.3400   8
  -8   8   5 590.191 21.5775  14
  -6  -8   5 351.482 12.8760  10
  -6  -8   5 367.439 11.6751   7
   6  -8  -5 358.209 11.2847  11
  -6   8   5 344.382 13.7923  14
  -6   8   5 365.465 10.6332   6
   6   8  -5 353.106 11.3003  12
  -6   8   5 360.619 12.9625   8
  -4  -8   5 352.920 12.4199   2
  -4  -8   5 370.487 12.7611  10
  -4  -8   5 372.179 11.4631   7
   4  -8  -5 361.639 12.0727   2
   4  -8  -5 355.646 15.6040  15
   4  -8  -5 388.286 11.7422  11
  -4   8   5 402.198 13.0974   8
   4   8  -5 377.889 11.0572  12
  -4   8   5 371.254 10.3220   6
   2  -8  -5 788.005 21.5937   2
  -2  -8   5 760.202 21.3189  10
   2  -8  -5 749.692 19.8838  11
   2  -8  -5 727.302 24.7511  15
  -2  -8   5 772.559 19.7245   7
  -2   8   5 748.320 18.6667  13
  -2   8   5 729.451 17.7293   6
  -2   8   5 790.545 21.1915   8
   2   8  -5 746.194 18.4685  12
   2   8  -5 766.101 19.3388   6
   0  -8  -5 149.309 9.96857  15
   0  -8   5 149.052 6.55041   7
   0  -8  -5 143.777 6.99207  11
   0  -8  -5 169.419 8.67752   2
   0  -8   5 148.595 7.66178  10
   0   8   5 147.663 5.87661   1
   0   8  -5 149.453 6.19968   9
   0   8   5 151.364 5.77572  13
   0   8  -5 147.052 5.92034   6
  -2  -8  -5 304.740 10.5522  10
  -2  -8  -5 301.333 10.5865  11
  -2  -8  -5 316.768 13.0219   2
   2  -8   5 315.506 10.8331   7
  -2   8  -5 305.832 9.73947   6
   2   8   5 310.171 9.81558   1
  -2   8  -5 302.622 10.6282   9
   2   8   5 307.360 9.67215  13
   4  -8   5 221.069 12.2336   4
  -4  -8  -5 205.008 10.8675   2
  -4  -8  -5 205.216 9.23012  10
   4  -8   5 206.755 8.91123   7
   4   8   5 202.252 7.77220  13
   4   8   5 186.481 7.58952   1
  -4   8  -5 189.621 7.36288   6
  -4   8  -5 196.690 8.80915   9
   4   8   5 189.065 8.03563  16
  -6  -8  -5 21.6282 4.32848   2
   6  -8   5 21.2981 3.44401   7
   6   8   5 13.2508 2.45613  13
  -6   8  -5 18.6486 3.32222   9
   6   8   5 19.7701 2.88305   1
  -9  -9   5 796.231 23.8356  10
  -9  -9   5 742.433 21.2305   7
   9  -9  -5 776.751 21.3736   5
  -9   9   5 758.657 26.4836  14
   9   9  -5 774.438 21.7147  12
  -9   9   5 813.161 24.3650   8
   7  -9  -5 9.44337 2.52768   5
  -7  -9   5 5.92334 3.06035  10
  -7  -9   5 15.0346 2.47233   7
   7  -9  -5 13.1775 2.69926  11
  -7   9   5 6.44169 2.54537  14
  -7   9   5 13.4231 2.47821   6
   7   9  -5 15.9818 2.63996  12
  -7   9   5 4.27046 2.45328   8
  -5  -9   5 742.435 21.6858   2
   5  -9  -5 783.476 20.5813  11
  -5  -9   5 763.396 22.0955  10
  -5  -9   5 725.508 20.0844   7
  -5   9   5 759.250 21.9025   8
   5   9  -5 783.304 20.0903  12
  -5   9   5 796.920 19.3096   6
  -3  -9   5 20.2116 2.54956   7
   3  -9  -5 20.8982 3.52790   2
   3  -9  -5 27.1792 3.50222  11
  -3  -9   5 24.1820 3.41978  10
   3   9  -5 26.0288 2.64330  12
  -3   9   5 23.6870 3.42938   8
  -3   9   5 21.0616 1.95835   6
   3   9  -5 27.2154 3.08381   6
  -1  -9   5 1142.99 30.3162  10
   1  -9  -5 1148.65 31.0406   2
  -1  -9   5 1146.97 28.3631   7
   1  -9  -5 1150.51 28.7661  11
  -1   9   5 1163.14 30.1160   8
  -1   9   5 1125.43 27.0033  13
   1   9  -5 1174.07 27.9796   6
   1  -9   5 264.731 11.1094  10
   1  -9   5 246.394 9.38043   7
  -1  -9  -5 254.459 9.88415  11
  -1  -9  -5 254.431 11.9496   2
   1   9   5 250.287 8.39462  13
  -1   9  -5 274.845 9.66121   9
  -1   9  -5 254.295 8.79753   6
   1   9   5 245.174 8.69881   1
  -3  -9  -5 941.663 25.2346  11
  -3  -9  -5 1016.43 29.6514   2
   3  -9   5 1010.85 26.4603   7
  -3  -9  -5 994.272 26.2321  10
  -3   9  -5 997.730 24.8078   6
  -3   9  -5 1003.24 26.2844   9
   3   9   5 1004.85 24.6103  13
   3   9   5 993.290 24.9017   1
   5  -9   5 226.106 9.94212   7
  -5  -9  -5 251.032 10.7207  10
  -5  -9  -5 244.127 12.5280   2
   5   9   5 230.817 8.87251   1
  -5   9  -5 237.726 10.3171   9
   8 -10  -5 41.9397 4.56046   5
  -8 -10   5 37.8498 4.87805  10
  -8 -10   5 38.9414 4.18827   7
  -8  10   5 38.5956 5.85666  14
  -8  10   5 45.0024 5.60882   8
   8  10  -5 29.7219 3.48738  12
   6 -10  -5 1.92543 2.24349  11
  -6 -10   5 2.82098 2.82955  10
  -6 -10   5 1.07448 1.88611   7
   6  10  -5 2.25085 1.77209  12
  -6  10   5 1.81435 1.71112   8
  -6  10   5 1.74604 1.73321   6
  -4 -10   5 -1.2784 2.26796  10
  -4 -10   5 -0.4192 1.64750   7
  -4 -10   5 0.05502 1.90193   2
   4 -10  -5 0.98837 1.55447  11
   4 -10  -5 -0.5302 1.38316   2
   4  10  -5 1.20450 1.16267   6
   4  10  -5 1.12188 1.07853  12
  -4  10   5 0.44688 0.88872   6
  -4  10   5 1.49648 2.08477   8
  -2 -10   5 96.4751 5.42582   7
  -2 -10   5 89.7057 6.54338  10
   2 -10  -5 86.0416 6.82929   2
   2 -10  -5 93.4360 5.94506  11
   2  10  -5 93.5860 5.08046   6
  -2  10   5 96.6872 6.46903   8
   0 -10   5 10.3386 2.07946   7
   0 -10  -5 12.2147 3.71859   2
   0 -10  -5 13.3112 2.72753  11
   0 -10   5 17.4863 3.50918  10
   0  10   5 14.9081 2.93549   8
   0  10  -5 10.3309 2.26920   6
   0  10  -5 9.83923 2.09009   9
  -2 -10  -5 52.3019 4.86735  11
  -2 -10  -5 53.9112 6.48001   2
   2 -10   5 59.0235 5.57024  10
   2 -10   5 51.5701 4.11769   7
   2  10   5 55.9232 3.91744   1
  -2  10  -5 60.7035 4.30651   6
  -2  10  -5 49.1150 4.35886   9
   4 -10   5 19.5542 3.06922   7
   4 -10   5 25.2011 3.92433  10
  -4 -10  -5 22.2903 4.78354   2
  -4  10  -5 18.1309 2.44519   6
  -4  10  -5 13.7249 2.89961   9
   4  10   5 19.3830 2.97705   1
  -7 -11   5 273.585 12.6165  10
   7 -11  -5 254.694 10.2474  11
   7 -11  -5 255.294 10.5130   5
   7  11  -5 267.073 9.98178   6
   7  11  -5 252.276 9.84988  12
  -7  11   5 241.547 9.15715   6
  -7  11   5 280.004 12.4451   8
  -5 -11   5 788.031 21.0556   7
  -5 -11   5 742.262 23.3456   2
   5 -11  -5 798.555 21.8799  11
  -5 -11   5 777.104 23.7492  10
  -5  11   5 786.441 23.6118   8
   5  11  -5 783.961 20.9114  12
   5  11  -5 767.427 21.0001   6
   3 -11  -5 401.599 13.6182  11
   3 -11  -5 413.992 15.3026   2
  -3 -11   5 418.619 15.8505   2
  -3 -11   5 407.499 15.4255  10
   3  11  -5 427.993 13.3124   6
  -3  11   5 448.780 15.5197   8
   1 -11  -5 416.908 13.9844  11
  -1 -11   5 425.745 13.4991   7
   1 -11  -5 431.980 16.5453   2
  -1 -11   5 429.333 15.6746  10
   1  11  -5 457.787 13.8430   6
  -1  11   5 432.075 15.5311   8
  -1 -11  -5 207.732 11.4854   2
   1 -11   5 201.033 10.2615  10
   1 -11   5 185.728 8.26542   7
  -1 -11  -5 202.427 9.15364  11
  -1  11  -5 205.923 8.39184   6
  -1  11  -5 201.202 8.56975   9
   1  11   5 205.105 10.0655   8
   3 -11   5 94.5550 7.16630  10
  -3 -11  -5 94.7530 7.67635   2
   3 -11   5 104.509 5.97283   7
   3  11   5 101.106 5.73333   1
  -3  11  -5 96.9637 5.65139   6
  -3  11  -5 97.1230 6.31272   9
  -4 -12   5 202.512 10.5137   2
  -4 -12   5 220.086 11.0520  10
   4 -12  -5 187.517 9.09005  11
   4  12  -5 198.379 8.30102   6
  -4  12   5 209.114 10.4377   8
  -2 -12   5 55.3210 5.99072   2
  -2 -12   5 52.1998 5.87080  10
   2 -12  -5 57.9342 5.70122  11
   2 -12  -5 55.6365 5.79467   2
   2  12  -5 54.2437 4.58523   6
  -2  12   5 54.2368 5.62203   8
   0 -12   5 290.846 12.5754  10
   0 -12  -5 291.040 11.2810  11
   0 -12  -5 289.031 13.3137   2
   0  12   5 293.740 12.5184   8
   0  12  -5 274.919 10.5359   6
  12   0  -6 6.33292 2.42507  12
  12   0  -6 2.09876 1.68536   1
 -12   0   6 4.94863 2.07235   3
 -12   0   6 2.97224 2.72425  14
  10   0  -6 1698.03 41.7832  16
  10   0  -6 1764.83 41.0102  12
 -10   0   6 1701.09 41.7380   3
  10   0  -6 1721.61 40.9246   1
 -10   0   6 1742.37 45.2853  14
   8   0  -6 239.429 8.68934  16
   8   0  -6 238.191 7.91669   5
  -8   0   6 236.386 8.59614   3
  -8   0   6 242.662 8.06686   7
  -8   0   6 259.136 10.8659  14
   8   0  -6 235.888 8.51945  12
  -6   0   6 3788.66 79.8741   4
  -6   0   6 3745.06 79.0350   7
  -6   0   6 3533.09 78.5604   8
   6   0  -6 3742.92 82.5891  15
   6   0  -6 3697.52 79.4710  12
   6   0  -6 3788.31 79.6547   5
   4   0  -6 98.0016 3.74242  11
   4   0  -6 100.443 3.86531  12
   4   0  -6 104.563 5.99864  15
  -4   0   6 99.9728 3.69672   7
  -4   0   6 100.752 3.48757   8
   4   0  -6 107.512 4.24987   5
  -4   0   6 107.599 4.29119   4
  -2   0   6 7963.14 169.939   7
  -2   0   6 7818.67 171.824   4
   2   0  -6 7908.86 172.178   5
   2   0  -6 7671.46 174.589   2
   2   0  -6 7974.62 192.504  15
   2   0  -6 7457.68 167.052  12
   2   0  -6 7849.11 172.312  11
  -2   0   6 7707.11 169.224  13
   0   0   6 110.384 4.44983   4
   0   0  -6 108.847 6.36375  15
   0   0  -6 112.903 4.27832  11
   0   0   6 102.367 3.87520   7
   0   0   6 106.514 3.99867  13
   0   0  -6 105.368 3.77184   5
   0   0  -6 109.333 5.08312   2
  -2   0  -6 4424.38 94.6921  11
  -2   0  -6 4367.19 97.2830   2
   2   0   6 4619.22 94.8602  13
   2   0   6 4318.40 94.7655  16
   2   0   6 4574.98 95.5886   4
  -4   0  -6 14.3088 2.39542   9
   4   0   6 17.9331 2.50756   4
  -4   0  -6 18.8145 2.05126  11
   4   0   6 17.4233 2.32380  13
  -6   0  -6 1075.66 28.8087   9
   6   0   6 1111.42 28.8744   4
   6   0   6 1086.76 27.8263  13
  11  -1  -6 5.34221 2.45518  16
 -11  -1   6 6.46042 2.55222   3
  11  -1  -6 6.85804 2.36436  12
  11  -1  -6 8.45616 2.62216   1
 -11  -1   6 6.99196 2.70418  14
 -11   1   6 7.20826 2.51423   3
  11   1  -6 7.36942 2.40082  12
  11   1  -6 12.4489 2.85416   1
 -11   1   6 5.57900 3.13740  14
  11   1  -6 6.12759 2.39315  16
   9  -1  -6 270.336 9.40940  12
   9  -1  -6 257.837 9.74639  16
  -9  -1   6 265.017 11.8218  14
  -9  -1   6 268.470 9.97536   3
  -9  -1   6 269.247 9.24648   7
   9  -1  -6 253.154 8.61313   5
   9   1  -6 259.644 9.14019   1
  -9   1   6 263.386 9.60509   3
   9   1  -6 254.737 9.71237  16
  -9   1   6 269.947 12.1790  14
   9   1  -6 269.294 8.62146   5
   9   1  -6 263.461 9.46449  12
  -9   1   6 250.287 9.09627   8
  -7  -1   6 289.548 8.77203   7
   7  -1  -6 289.028 9.10997  12
   7  -1  -6 283.827 8.90914   5
   7  -1  -6 278.855 10.6016  15
  -7   1   6 276.255 8.87329   3
   7   1  -6 284.733 9.17225  16
   7   1  -6 285.158 8.78428   5
  -7   1   6 291.632 8.41545   7
   7   1  -6 283.479 9.01475  12
  -7   1   6 284.243 11.1351  14
  -7   1   6 279.691 8.68809   8
  -5  -1   6 23.5249 1.83357   7
   5  -1  -6 24.8846 2.20800   5
  -5  -1   6 24.7329 1.63818  10
  -5  -1   6 25.0557 2.36097   4
   5  -1  -6 31.0346 3.47283  15
   5  -1  -6 23.4325 2.16149  12
   5  -1  -6 27.2375 1.90841  11
  -5   1   6 27.1463 2.17520   4
   5   1  -6 26.6764 3.03589  15
   5   1  -6 25.1394 2.22107   5
  -5   1   6 27.4799 1.88790   7
   5   1  -6 26.7506 1.72387  11
  -5   1   6 25.7426 1.75226   3
   5   1  -6 24.7438 2.12143  12
  -5   1   6 23.3928 1.82049   8
   3  -1  -6 1078.98 28.0874  15
  -3  -1   6 1024.61 22.6533   8
   3  -1  -6 1028.97 23.6882   2
  -3  -1   6 1002.89 23.2562  10
  -3  -1   6 1041.21 24.0617   4
  -3  -1   6 1064.53 23.3989  13
  -3  -1   6 1049.45 23.6115   7
   3  -1  -6 1074.64 24.3219   5
   3  -1  -6 1061.18 23.9381  11
   3   1  -6 1039.19 23.6834  11
  -3   1   6 1045.93 23.5908   8
  -3   1   6 1033.59 23.0410   7
   3   1  -6 1053.41 23.3487  12
  -3   1   6 1030.39 23.9758   4
  -3   1   6 1064.53 23.6533  13
   3   1  -6 1053.03 24.0092   5
   3   1  -6 1045.62 27.4383  15
  -1  -1   6 40.2369 2.16476  13
   1  -1  -6 45.3342 2.94342   2
   1  -1  -6 49.4363 2.52015   5
   1  -1  -6 45.7781 4.06117  15
   1  -1  -6 44.7938 2.54202  11
  -1  -1   6 41.6989 2.38481   7
  -1  -1   6 43.1299 2.69438   4
  -1   1   6 41.0684 2.42765   4
  -1   1   6 44.4134 2.06165   7
  -1   1   6 42.4662 2.29244  13
   1   1  -6 40.9452 2.20767   5
   1   1  -6 42.2840 2.38979  11
   1   1  -6 45.9834 3.98064  15
  -1  -1  -6 163.845 8.01959  15
   1  -1   6 154.987 5.26412  13
  -1  -1  -6 152.819 5.48112  11
  -1  -1  -6 161.994 6.91684   2
  -1  -1  -6 160.897 4.74785   5
   1  -1   6 156.864 5.85037   4
   1   1   6 159.985 5.74914   4
  -1   1  -6 153.091 4.74973   5
   1   1   6 159.850 5.44000  13
  -1   1  -6 150.468 5.38075  11
   1   1   6 159.108 4.91637  16
   1   1   6 160.074 4.64690   1
   3  -1   6 299.798 9.18502  13
  -3  -1  -6 296.530 8.89626  11
   3  -1   6 302.314 9.90467   4
  -3  -1  -6 303.732 11.3494   2
  -3   1  -6 295.791 8.88742  11
  -3   1  -6 311.459 10.4040   9
   3   1   6 304.728 8.61519  16
   3   1   6 319.387 9.60154  13
   3   1   6 295.889 8.19083   1
   3   1   6 293.584 9.73464   4
  -5  -1  -6 7.36443 2.26658   9
   5  -1   6 2.25947 1.86179   4
   5  -1   6 2.78391 1.34285  13
  -5   1  -6 3.05200 1.54842   9
   5   1   6 2.19879 1.69311  13
   5   1   6 4.37195 1.57359   4
   7  -1   6 110.698 6.38579  13
  -7  -1  -6 103.696 6.52906   9
   7  -1   6 103.391 6.59433   4
  -7   1  -6 100.948 6.35482   9
   7   1   6 113.501 6.51389  13
   7   1   6 114.949 6.94420   4
  12  -2  -6 299.146 11.9277   1
 -12  -2   6 326.908 13.1763   3
  12  -2  -6 322.927 11.8941  12
 -12  -2   6 333.331 15.1868  14
  12   2  -6 317.380 12.0396   1
  12   2  -6 317.793 11.9234  12
 -12   2   6 326.575 16.1568  14
 -12   2   6 326.863 13.1138   3
  10  -2  -6 653.954 18.5449  12
  10  -2  -6 659.209 19.5860  16
 -10  -2   6 677.852 19.7729   3
 -10  -2   6 667.486 21.6941  14
 -10   2   6 676.431 23.0543  14
 -10   2   6 663.620 19.4514   3
  10   2  -6 664.894 18.7096  12
 -10   2   6 653.569 18.9299   8
  10   2  -6 646.393 19.2428  16
  10   2  -6 639.013 18.3731   1
   8  -2  -6 1173.73 28.6774  12
  -8  -2   6 1199.41 28.4852   7
   8  -2  -6 1202.58 28.4319   5
   8   2  -6 1205.99 28.1439   5
   8   2  -6 1162.35 28.1041   1
  -8   2   6 1211.24 32.2833  14
   8   2  -6 1221.46 28.8829  12
  -8   2   6 1202.11 29.0046   3
  -8   2   6 1189.17 28.8936   8
   8   2  -6 1163.37 28.8729  16
  -6  -2   6 1841.74 41.4129   4
   6  -2  -6 1898.50 45.2205  15
   6  -2  -6 1821.23 41.2819  12
   6  -2  -6 1877.09 40.4052  11
   6  -2  -6 1893.58 41.6725   5
  -6  -2   6 1850.04 41.1526   7
  -6  -2   6 1785.06 40.6282  10
  -6   2   6 1868.31 41.4149   8
   6   2  -6 1828.83 40.5942   1
  -6   2   6 1890.12 44.1515  14
   6   2  -6 1893.93 41.3556  12
  -6   2   6 1846.45 40.2554   7
   6   2  -6 1810.46 39.7765  11
  -6   2   6 1821.75 40.9392   3
   6   2  -6 1857.95 41.2657   5
   6   2  -6 1846.95 41.1383  16
   4  -2  -6 1319.16 29.5051   2
   4  -2  -6 1380.83 30.2860  11
  -4  -2   6 1342.36 30.4998   4
   4  -2  -6 1432.84 35.2713  15
   4  -2  -6 1407.00 30.9309   5
  -4  -2   6 1280.00 29.7812  10
  -4  -2   6 1354.45 30.2025   7
  -4   2   6 1361.92 30.3887   8
  -4   2   6 1327.74 30.3722   4
   4   2  -6 1341.47 29.9520  12
   4   2  -6 1317.42 29.5042  16
   4   2  -6 1332.07 30.3913   5
   4   2  -6 1366.60 29.8288  11
  -4   2   6 1351.49 29.1726   7
  -4   2   6 1298.71 29.1548   3
  -2  -2   6 1070.59 24.6336   4
   2  -2  -6 1044.50 24.5835   5
   2  -2  -6 1072.03 28.9844  15
   2  -2  -6 1084.88 25.1393   2
   2  -2  -6 1102.72 24.8157  11
  -2  -2   6 1073.36 23.5762  13
  -2  -2   6 1062.99 24.3548   7
   2   2  -6 1053.46 23.3631  12
  -2   2   6 1069.86 24.1855  13
   2   2  -6 1057.83 24.2706  11
  -2   2   6 1085.54 24.4310   4
   2   2  -6 1049.69 24.3306   5
  -2   2   6 1042.55 23.1605   7
   0  -2  -6 536.602 17.4553  15
   0  -2  -6 534.779 15.0782   2
   0  -2  -6 537.237 13.1475   5
   0  -2   6 515.042 13.5217   7
   0  -2   6 527.185 12.8137  13
   0  -2  -6 580.665 13.9600  11
   0  -2   6 525.515 13.8183   4
   0   2  -6 512.303 12.3863   6
   0   2   6 503.540 12.5037   7
   0   2   6 521.271 12.5538   1
   0   2  -6 569.983 13.6633  11
   0   2   6 531.781 13.5193   4
   0   2  -6 524.646 12.9840   5
   0   2   6 542.378 13.3919  13
  -2  -2  -6 290.268 8.79679  11
  -2  -2  -6 305.190 11.8866  15
   2  -2   6 293.663 9.45234   4
   2  -2   6 298.302 8.55040  13
  -2  -2  -6 293.043 10.8328   2
   2   2   6 290.372 9.01509   4
  -2   2  -6 298.281 8.72998  11
   2   2   6 294.322 8.92535  13
   2   2   6 279.221 7.90276   1
  -2   2  -6 308.291 9.84508   9
   2   2   6 287.643 8.32324  16
  -2   2  -6 275.595 8.51546   3
  -4  -2  -6 540.872 14.3415  11
   4  -2   6 564.261 16.2024   4
   4  -2   6 551.213 14.9652  13
  -4  -2  -6 541.969 17.7872   2
   4   2   6 575.489 15.7681   4
  -4   2  -6 555.217 16.3991   9
   4   2   6 546.678 14.5335  16
   4   2   6 565.487 15.4299  13
   4   2   6 537.300 13.9827   1
  -4   2  -6 529.164 15.1696   3
  -6  -2  -6 272.675 10.8448   9
   6  -2   6 281.678 10.1975  13
   6  -2   6 288.499 11.3150   4
   6   2   6 277.289 10.5941   4
   6   2   6 276.719 10.3926  13
  -6   2  -6 277.978 11.1711   9
 -11  -3   6 130.964 8.73452  14
  11  -3  -6 109.056 8.08323  16
  11  -3  -6 136.735 7.15454  12
  11  -3  -6 143.128 7.42315   1
 -11  -3   6 125.897 7.77805   3
 -11   3   6 142.772 7.77822   3
  11   3  -6 139.290 7.24100   1
  11   3  -6 144.508 7.28167  12
 -11   3   6 142.934 10.0623  14
  -9  -3   6 19.3208 2.82706   7
  -9  -3   6 20.1082 2.61916  10
   9  -3  -6 12.5981 2.21159   5
   9  -3  -6 12.6137 2.21726  12
  -9  -3   6 12.1871 3.17246  14
   9  -3  -6 10.0279 2.20135  16
   9   3  -6 13.0489 2.56120  12
   9   3  -6 19.5088 2.68460   1
  -9   3   6 11.7830 2.94900  14
   9   3  -6 19.0715 2.93529  16
  -9   3   6 10.2927 2.24236   3
  -9   3   6 14.5702 2.49410   8
   9   3  -6 11.8188 1.90101   5
   7  -3  -6 51.5120 2.76767  11
  -7  -3   6 45.9087 3.53176   7
   7  -3  -6 49.3511 3.53931  12
  -7  -3   6 47.0052 3.29789  10
   7  -3  -6 53.5154 4.79249  15
   7  -3  -6 55.7414 3.52555   5
   7   3  -6 52.8986 3.31060   5
  -7   3   6 57.0003 4.93524  14
  -7   3   6 56.4099 3.41279   3
   7   3  -6 52.7911 3.39249  16
   7   3  -6 53.5737 3.38822  12
  -7   3   6 58.8052 3.81353   8
   7   3  -6 53.3302 3.13569   1
  -5  -3   6 397.242 10.9203   7
   5  -3  -6 409.352 14.6591  15
  -5  -3   6 406.699 11.0980   4
  -5  -3   6 372.792 10.5929  10
   5  -3  -6 411.661 11.3735   5
   5  -3  -6 416.130 10.8432  11
   5   3  -6 379.318 9.86227   1
  -5   3   6 386.399 9.54473   7
  -5   3   6 387.516 10.2398   3
  -5   3   6 398.800 11.2375   8
   5   3  -6 384.536 10.2202  16
   5   3  -6 399.397 10.7842  12
   5   3  -6 398.679 11.0275   5
  -5   3   6 409.651 11.0190   4
  -5   3   6 392.271 12.5364  14
   3  -3  -6 3.78640 1.42368  11
   3  -3  -6 3.80495 1.17503   5
   3  -3  -6 5.62315 2.32522  15
  -3  -3   6 3.74256 1.08444  10
  -3  -3   6 9.30561 1.35841   4
  -3  -3   6 7.67216 1.26733   7
   3  -3  -6 3.91904 1.11997   2
  -3   3   6 4.35718 1.21931   8
   3   3  -6 4.41398 0.79900  12
   3   3  -6 4.40607 0.91825  11
  -3   3   6 4.59897 0.95983   4
  -3   3   6 4.39057 1.10074  13
   3   3  -6 4.81096 1.16869   5
   3   3  -6 3.65873 0.55207  16
   1  -3  -6 309.139 9.86944   2
   1  -3  -6 316.104 9.21161  11
  -1  -3   6 307.786 8.89731   7
   1  -3  -6 294.861 8.70401   5
  -1  -3   6 297.951 8.84187   4
  -1  -3   6 295.527 7.66563  13
   1  -3  -6 301.343 12.5117  15
   1   3  -6 301.366 8.61168  11
  -1   3   6 306.841 8.51191   4
  -1   3   6 312.316 8.62518  13
   1   3  -6 299.442 8.47016   5
   1   3  -6 301.517 8.78461   9
   1  -3   6 84.7810 3.35051  13
   1  -3   6 84.5420 4.19274   7
  -1  -3  -6 85.6540 4.14495  11
  -1  -3  -6 81.0860 5.97847  15
  -1  -3  -6 85.7578 5.26744   2
   1  -3   6 87.4385 4.33040   4
  -1   3  -6 86.4186 4.25441   9
   1   3   6 82.1404 3.58111  16
  -1   3  -6 86.4580 3.85506  11
   1   3   6 85.3633 3.97378  13
   1   3   6 81.0325 3.36381   1
  -1   3  -6 78.9999 3.09818   6
   1   3   6 81.2356 3.69040   4
  -1   3  -6 81.6016 3.34421   5
   3  -3   6 -0.0671 1.23270   4
   3  -3   6 0.74626 0.73868  13
  -3  -3  -6 12.5975 3.05627   2
  -3  -3  -6 0.72946 0.91701  11
   3   3   6 1.96741 1.10888  16
  -3   3  -6 1.10159 1.04722   9
   3   3   6 2.19731 1.06595   1
   3   3   6 0.10455 0.77176   4
  -3   3  -6 0.86262 0.96255   3
   3   3   6 0.97322 1.25634  13
   5  -3   6 114.386 6.20554   4
  -5  -3  -6 94.6990 7.02569   2
   5  -3   6 97.8468 5.13208  13
  -5   3  -6 98.4408 5.59490   3
   5   3   6 103.125 5.17431  16
   5   3   6 103.016 5.43339   4
   5   3   6 100.007 5.63719  13
   5   3   6 96.2808 4.69012   1
  -5   3  -6 98.2531 6.13997   9
   7  -3   6 5.51466 1.67962  13
  -7  -3  -6 7.73887 2.32456   9
   7  -3   6 8.98073 2.88445   4
   7   3   6 8.46476 2.13399  13
  -7   3  -6 4.59343 2.18139   9
   7   3   6 9.72037 2.48190   4
  12  -4  -6 627.685 18.7690  12
  12  -4  -6 654.076 19.3089   1
 -12  -4   6 625.860 20.6239   3
 -12   4   6 649.407 24.5645  14
  12   4  -6 636.899 19.1710  12
  12   4  -6 613.438 18.7818   1
 -10  -4   6 42.0999 5.13694  14
  10  -4  -6 46.7194 4.22984  12
 -10  -4   6 38.2726 3.63759   7
  10  -4  -6 35.5082 4.05613  16
  10   4  -6 39.4715 3.69262  16
  10   4  -6 34.0623 3.63784   1
 -10   4   6 40.2091 4.08440   3
 -10   4   6 40.1758 5.98460  14
 -10   4   6 38.1405 3.90802   8
  10   4  -6 39.7567 4.02793  12
  -8  -4   6 766.113 20.5411  10
   8  -4  -6 810.994 20.6113  12
  -8  -4   6 774.926 20.3907   7
   8  -4  -6 798.237 20.4365   5
   8   4  -6 783.311 19.9580   5
   8   4  -6 756.929 19.8151   1
   8   4  -6 781.330 20.5812  16
   8   4  -6 808.045 20.6527  12
  -8   4   6 843.155 21.7418   8
  -8   4   6 797.170 20.8177   3
  -8   4   6 797.540 24.3653  14
   6  -4  -6 69.1548 5.71248  15
   6  -4  -6 69.0023 4.20584   5
  -6  -4   6 60.6610 3.53751   4
  -6  -4   6 66.9585 3.93836   7
  -6  -4   6 59.7855 3.73326  10
   6  -4  -6 66.4722 3.35369  11
   6   4  -6 59.5321 2.99486   1
  -6   4   6 66.7037 4.11478   8
  -6   4   6 64.9478 3.38764   3
   6   4  -6 63.3395 3.23470  16
   6   4  -6 64.8673 3.62813  12
   6   4  -6 65.3197 3.65769   5
   4  -4  -6 2032.76 44.0267   5
   4  -4  -6 1953.44 43.3346   2
  -4  -4   6 2023.82 43.6639   7
  -4  -4   6 1925.92 43.7693  10
  -4  -4   6 1972.68 43.4276   4
   4  -4  -6 2053.39 43.7572  11
   4  -4  -6 1980.71 48.7109  15
   4   4  -6 1772.14 41.9693  16
   4   4  -6 1936.66 42.9462  12
  -4   4   6 1930.44 44.8888  14
  -4   4   6 1997.97 43.2195   4
   4   4  -6 1996.28 43.6091   5
  -4   4   6 1989.02 44.1549   8
   2  -4  -6 561.110 14.4005   5
  -2  -4   6 562.870 15.0228  10
   2  -4  -6 555.253 18.7984  15
   2  -4  -6 546.843 15.1156   2
  -2  -4   6 560.697 14.2441   4
  -2  -4   6 566.642 14.4778   7
   2  -4  -6 565.348 14.7074  11
   2   4  -6 552.398 13.7586   9
  -2   4   6 523.332 14.0565  14
  -2   4   6 565.778 14.0588  13
   2   4  -6 556.396 14.1800   5
  -2   4   6 560.246 13.7754   4
   2   4  -6 564.206 13.1852  12
   0  -4  -6 2945.63 64.3685  11
   0  -4  -6 2827.43 63.4520   5
   0  -4   6 3010.03 64.3317   7
   0  -4  -6 2991.19 66.1521   2
   0  -4  -6 2960.98 69.8344  15
   0  -4   6 2946.61 64.0613   4
   0   4  -6 2980.31 64.2207   9
   0   4  -6 2987.55 63.3653   5
   0   4   6 2977.45 62.9743   1
   0   4   6 2990.38 63.6145  13
   0   4  -6 2862.52 62.8751   6
   0   4   6 2926.05 63.2091   4
  -2  -4  -6 369.113 10.8953  11
   2  -4   6 369.801 11.3243   4
   2  -4   6 369.191 9.89929  13
  -2  -4  -6 369.496 13.1367   2
   2  -4   6 375.457 11.3440   7
  -2  -4  -6 364.807 14.2233  15
   2   4   6 363.735 10.3917   4
  -2   4  -6 353.222 9.62016   6
   2   4   6 381.692 10.9174  13
  -2   4  -6 372.832 11.5846   9
   2   4   6 373.849 10.6145  16
   2   4   6 369.783 10.0962   1
   4  -4   6 1310.67 30.6168  13
  -4  -4  -6 1323.93 35.3293   2
   4  -4   6 1336.86 32.5364   4
  -4   4  -6 1315.78 32.8529   9
  -4   4  -6 1282.87 32.2273   3
   4   4   6 1301.15 31.1293  16
   4   4   6 1313.24 30.4325   1
   4   4   6 1295.38 31.1122   4
   4   4   6 1328.54 31.5275  13
  -6  -4  -6 30.5131 3.66126   9
   6  -4   6 31.4127 3.99076   4
  -6  -4  -6 35.5950 5.08100   2
   6  -4   6 30.0870 2.94978  13
  -6   4  -6 29.7439 3.79695   9
  -6   4  -6 24.5454 3.31883   3
   6   4   6 32.1884 3.38177  16
   6   4   6 27.1984 4.11675   4
   6   4   6 34.6845 3.65848  13
   6   4   6 34.5710 3.37272   1
  11  -5  -6 71.8799 5.22526  12
 -11  -5   6 59.9751 5.62769   3
 -11   5   6 69.3294 5.99881   8
 -11   5   6 72.7816 7.85051  14
  11   5  -6 60.6771 4.55778   1
  11   5  -6 61.5560 5.10941  12
 -11   5   6 63.9463 5.39309   3
  -9  -5   6 0.61981 1.61749  10
   9  -5  -6 1.78322 1.24017   5
   9  -5  -6 -0.3288 1.58711  12
  -9  -5   6 1.32643 1.92682  14
  -9  -5   6 1.20138 1.24302   7
  -9   5   6 -0.2816 1.21284   3
  -9   5   6 -0.6393 2.00467  14
  -9   5   6 1.13829 1.90546   8
   9   5  -6 0.63543 1.57136  12
   9   5  -6 0.89604 0.86703   5
   9   5  -6 0.49407 0.96298   1
   9   5  -6 1.12499 1.44536  16
  -7  -5   6 2.31975 1.63050   7
  -7  -5   6 1.18351 1.72602  10
   7  -5  -6 1.13848 1.54365   5
   7  -5  -6 4.34193 1.49988  11
   7  -5  -6 1.45572 2.04118  15
   7   5  -6 1.73502 1.01256   1
  -7   5   6 0.94309 1.02107   3
  -7   5   6 2.67878 1.42756   8
   7   5  -6 3.74057 1.35164  12
   7   5  -6 0.86417 1.02286  16
  -7   5   6 4.76611 2.05011  14
   7   5  -6 1.11488 0.88645   5
   5  -5  -6 87.7624 6.92039  15
  -5  -5   6 87.0835 4.13088   4
   5  -5  -6 88.0714 4.47643   5
  -5  -5   6 92.3059 4.36858   7
  -5  -5   6 88.1572 4.64318  10
   5  -5  -6 91.6904 4.55309  11
  -5   5   6 88.4849 5.28656  14
  -5   5   6 88.9807 4.72392   8
   5   5  -6 95.1381 4.52950   5
   5   5  -6 91.4668 4.21742  12
   3  -5  -6 47.7442 5.02320  15
  -3  -5   6 53.9959 3.20146   7
   3  -5  -6 56.7550 3.59490   5
  -3  -5   6 50.5598 3.39948  10
   3  -5  -6 46.2483 3.27322  11
  -3  -5   6 51.3703 2.89050   4
   3  -5  -6 52.0847 3.62236   2
  -3   5   6 43.7991 2.52028   4
  -3   5   6 53.8356 3.65941   8
   3   5  -6 45.0597 2.55630  12
  -3   5   6 53.1979 2.97249  13
   3   5  -6 48.5855 3.08868   5
  -3   5   6 46.9617 3.08115  14
   1  -5  -6 86.0765 5.13862   2
  -1  -5   6 89.3266 4.17157   4
   1  -5  -6 92.6973 4.87155  11
  -1  -5   6 97.8028 4.62581   7
   1  -5  -6 97.6183 7.31300  15
   1  -5  -6 90.6671 4.24520   5
  -1   5   6 86.3862 3.53672   4
   1   5  -6 94.1695 4.18646   9
   1   5  -6 91.7849 4.15699   5
   1   5  -6 89.3701 3.86037   6
  -1   5   6 91.4448 4.09748  13
  -1  -5  -6 22.4256 3.63214  15
   1  -5   6 26.2992 2.63006   4
   1  -5   6 20.3460 2.44837   7
  -1  -5  -6 22.1047 2.71602  11
  -1  -5  -6 23.9704 3.53438   2
   1   5   6 23.2491 2.28707   1
   1   5   6 25.9722 2.01233   4
  -1   5  -6 22.4643 2.35739   9
  -1   5  -6 23.5820 1.98115   6
   1   5   6 23.8805 2.21011  13
  -3  -5  -6 6.10497 1.63919  11
   3  -5   6 5.91188 1.64682   7
  -3  -5  -6 9.41975 2.83575   2
   3  -5   6 5.45473 1.83189   4
   3   5   6 5.76195 1.70047  16
   3   5   6 4.99377 1.49007   1
   3   5   6 5.29328 1.73737  13
  -3   5  -6 4.82684 1.62614   9
   5  -5   6 114.260 6.59000   4
  -5  -5  -6 112.656 7.68213   2
   5   5   6 110.719 5.73935  13
   5   5   6 112.215 5.64515  16
  -5   5  -6 115.522 6.72770   9
  -5   5  -6 98.8179 6.06054   3
   5   5   6 107.660 5.36463   1
   7  -5   6 7.21441 2.11859   4
   7   5   6 5.54679 2.37934  13
  -7   5  -6 5.36821 2.03079   9
  10  -6  -6 1037.96 27.5140   5
  10  -6  -6 1133.34 28.4482  12
 -10  -6   6 1089.71 28.9838  10
 -10  -6   6 1131.03 28.6787   7
 -10   6   6 1125.89 34.2723  14
 -10   6   6 1154.08 30.5342   8
  10   6  -6 1093.10 27.7749   1
  10   6  -6 1108.09 28.7328  12
  -8  -6   6 160.843 7.16611   7
  -8  -6   6 143.491 7.10929  10
   8  -6  -6 162.310 7.18760   5
   8   6  -6 158.768 6.63179  16
   8   6  -6 149.719 6.08781   1
   8   6  -6 156.616 6.83957  12
  -8   6   6 153.804 6.99716   3
  -8   6   6 157.387 7.85251   8
   8   6  -6 149.216 6.38854   5
  -8   6   6 158.251 9.23291  14
  -6  -6   6 2198.41 50.4386  10
   6  -6  -6 2157.81 55.2656  15
   6  -6  -6 2211.49 49.2174  11
   6  -6  -6 2198.84 49.7870   5
  -6  -6   6 2217.03 49.7725   7
   6   6  -6 2256.27 49.5200  12
  -6   6   6 2152.91 52.5002  14
   6   6  -6 2225.16 49.4394   5
  -6   6   6 2256.86 50.9467   8
   4  -6  -6 141.456 6.03555  11
  -4  -6   6 131.227 5.98223  10
   4  -6  -6 129.220 8.39387  15
   4  -6  -6 132.523 5.80924   5
   4  -6  -6 133.033 5.84781   2
  -4  -6   6 129.376 5.07505   4
  -4  -6   6 129.000 5.55113   7
  -4   6   6 138.767 6.16002   8
  -4   6   6 114.178 5.80340  14
   4   6  -6 128.432 5.37469   5
   4   6  -6 134.564 5.15694  12
   2  -6  -6 1909.06 42.7086  11
  -2  -6   6 1855.83 43.5663  10
   2  -6  -6 1926.13 43.7985   2
  -2  -6   6 1844.08 41.5524   4
   2  -6  -6 1821.52 48.3499  15
  -2  -6   6 1851.74 42.3659   7
   2   6  -6 1902.41 41.2764   9
   2   6  -6 1803.60 40.6388  12
  -2   6   6 1883.96 41.6128  13
   2   6  -6 1886.76 41.9889   5
  -2   6   6 1855.79 42.9744   8
   0  -6  -6 20.7419 2.30275   5
   0  -6   6 22.7512 2.37835   4
   0  -6  -6 16.9802 2.46109  11
   0  -6  -6 18.8825 4.00439  15
   0  -6  -6 15.6235 2.75720   2
   0  -6   6 16.0184 2.40413   7
   0   6   6 19.5420 2.22991  13
   0   6  -6 15.0420 1.82415   6
   0   6  -6 28.2208 2.42753   9
   0   6   6 17.0716 1.90140   1
  -2  -6  -6 975.009 25.3008  11
   2  -6   6 1049.69 26.2354   7
  -2  -6  -6 1054.62 28.8049   2
   2  -6   6 1060.17 25.8370   4
  -2  -6  -6 944.295 30.0606  15
  -2   6  -6 1035.83 26.1100   9
   2   6   6 1053.79 25.3611  16
  -2   6  -6 1025.28 24.2854   6
   2   6   6 1047.26 25.1008  13
   2   6   6 1055.27 24.6894   1
   4  -6   6 22.0227 3.21252   4
   4  -6   6 28.3294 3.64711   7
  -4  -6  -6 34.0494 4.79645   2
   4   6   6 30.4818 3.30573  13
  -4   6  -6 26.5418 3.41780   9
   4   6   6 33.1266 3.21162   1
   4   6   6 26.5173 2.77241  16
   6  -6   6 714.032 21.2671   4
   6  -6   6 718.585 21.4924   7
  -6  -6  -6 716.552 24.1517   2
  -6   6  -6 728.991 21.6645   9
   6   6   6 725.171 19.4587   1
   6   6   6 732.370 20.2999  13
  11  -7  -6 151.942 7.34194  12
 -11  -7   6 142.716 7.65643  10
  11   7  -6 145.145 7.57593  12
  11   7  -6 140.910 6.87165   1
 -11   7   6 150.582 10.6587  14
 -11   7   6 145.652 8.64787   8
  -9  -7   6 94.8745 6.48136  10
   9  -7  -6 89.9099 5.27605   5
  -9  -7   6 94.9409 5.63026   7
  -9   7   6 97.1423 7.86519  14
  -9   7   6 99.8052 6.84223   8
   9   7  -6 96.4245 5.90207  12
  -7  -7   6 162.393 7.27918   7
   7  -7  -6 163.190 6.80748  11
  -7  -7   6 172.960 8.11088  10
   7  -7  -6 168.699 7.36188   5
   7   7  -6 169.227 6.81542   5
   7   7  -6 168.806 7.16116  12
  -7   7   6 174.415 8.27587   8
  -7   7   6 156.875 8.83790  14
  -5  -7   6 404.679 12.8727   2
  -5  -7   6 426.466 13.2705  10
   5  -7  -6 405.862 16.7663  15
   5  -7  -6 406.587 12.4850   5
   5  -7  -6 430.768 12.5159  11
  -5  -7   6 428.548 12.5754   7
   5   7  -6 411.190 12.2613   5
  -5   7   6 401.000 13.8321  14
  -5   7   6 412.675 13.4366   8
  -5   7   6 420.281 11.2467   6
   5   7  -6 407.273 11.9228  12
  -3  -7   6 114.477 6.01335  10
   3  -7  -6 117.872 5.90675  11
   3  -7  -6 109.920 8.43511  15
  -3  -7   6 124.531 5.56641   7
   3  -7  -6 115.256 6.13910   2
   3   7  -6 112.126 4.57743  12
   3   7  -6 112.675 5.26485   5
  -3   7   6 103.577 5.97699   8
  -3   7   6 109.299 4.07093   6
   1  -7  -6 340.118 11.1538  11
   1  -7  -6 331.215 15.3149  15
  -1  -7   6 333.415 10.0310   4
  -1  -7   6 350.748 11.0718   7
  -1  -7   6 334.277 12.0254  10
   1  -7  -6 350.181 12.6022   2
   1   7  -6 334.354 10.2190   6
  -1   7   6 348.489 10.1482  13
   1   7  -6 355.420 10.4061   9
   1  -7   6 153.852 7.05376   7
   1  -7   6 153.958 6.31986   4
  -1  -7  -6 152.139 6.96894  11
  -1  -7  -6 153.997 8.24860   2
  -1  -7  -6 141.385 9.73691  15
   1   7   6 152.896 6.03192   1
   1   7   6 162.346 6.22903  13
  -1   7  -6 157.673 6.04681   6
  -1   7  -6 159.423 6.71573   9
  -3  -7  -6 31.5132 3.36708  11
  -3  -7  -6 36.5026 5.33273   2
   3  -7   6 37.1130 3.61842   7
   3  -7   6 36.2071 3.85868   4
   3   7   6 33.0175 3.34609  16
  -3   7  -6 31.0405 2.57340   6
   3   7   6 34.2859 3.31109   1
   3   7   6 31.0672 2.93246  13
  -3   7  -6 29.6201 3.63090   9
   5  -7   6 109.335 6.59700   7
   5  -7   6 121.406 6.88830   4
  -5  -7  -6 111.780 8.40358   2
  -5   7  -6 114.053 6.98533   9
   5   7   6 115.806 5.88292  13
   5   7   6 117.403 5.94255   1
  10  -8  -6 198.800 8.38585  12
 -10  -8   6 188.069 8.68660   7
 -10  -8   6 190.718 9.45459  10
 -10   8   6 187.431 11.6120  14
 -10   8   6 207.140 10.1687   8
  10   8  -6 190.625 8.72432  12
   8  -8  -6 253.827 9.94113   5
  -8  -8   6 261.232 11.1450  10
  -8  -8   6 262.718 10.0991   7
  -8   8   6 267.060 12.7394  14
   8   8  -6 264.854 9.86135  12
  -8   8   6 294.682 11.9055   8
  -6  -8   6 301.622 11.4313  10
  -6  -8   6 288.278 10.1882   7
   6  -8  -6 273.743 10.0062   5
   6  -8  -6 272.357 9.76830  11
   6   8  -6 273.210 9.62411  12
  -6   8   6 290.961 11.1410   8
   4  -8  -6 554.765 15.7774  11
  -4  -8   6 558.673 15.6827   7
  -4  -8   6 553.383 16.9707  10
   4  -8  -6 533.147 16.2562   2
  -4   8   6 552.657 16.9012   8
  -4   8   6 546.238 13.9815   6
   4   8  -6 562.068 14.9500  12
  -2  -8   6 564.086 17.6247  10
   2  -8  -6 597.668 16.8913  11
   2  -8  -6 578.142 17.9501   2
  -2  -8   6 600.643 16.5711   7
   2   8  -6 571.621 14.8340  12
   2   8  -6 593.520 15.9082   6
  -2   8   6 578.646 17.4988   8
  -2   8   6 589.561 15.4945  13
   0  -8  -6 745.931 20.2735  11
   0  -8  -6 764.267 22.6120   2
   0  -8   6 743.933 20.2711   7
   0  -8   6 729.096 21.8108  10
   0   8  -6 737.311 19.2863   6
   0   8  -6 761.306 19.7748   9
   0   8   6 754.196 19.1536  13
  -2  -8  -6 514.285 15.8765  11
   2  -8   6 553.322 16.8129   7
  -2  -8  -6 574.468 19.5398   2
  -2   8  -6 564.008 15.1654   6
  -2   8  -6 561.287 16.4891   9
   2   8   6 539.403 15.2073  13
   2   8   6 544.875 15.1208   1
   4  -8   6 350.422 12.8540   7
  -4  -8  -6 364.677 15.2744   2
   4   8   6 364.575 11.5780  13
  -4   8  -6 355.363 12.9922   9
   4   8   6 351.380 11.5633   1
  -9  -9   6 67.2526 5.32147   7
   9  -9  -6 78.3801 5.52784   5
  -9  -9   6 66.7754 5.73076  10
  -9   9   6 69.5518 6.35565   8
  -9   9   6 64.1728 6.94887  14
   9   9  -6 69.6080 4.93586  12
   7  -9  -6 70.9012 4.71988  11
   7  -9  -6 81.8982 5.25850   5
  -7  -9   6 67.6877 6.23742  10
  -7  -9   6 79.9915 5.10333   7
   7   9  -6 79.4944 5.14221  12
  -7   9   6 81.6071 5.98058   8
   5  -9  -6 40.8271 3.75374  11
  -5  -9   6 46.7115 5.14125  10
  -5  -9   6 41.4640 3.62866   7
  -5  -9   6 43.4785 4.35918   2
  -5   9   6 35.9130 4.45998   8
  -5   9   6 39.0365 3.12175   6
   5   9  -6 40.1395 3.47872  12
  -3  -9   6 161.568 8.07438  10
  -3  -9   6 153.468 7.08373   7
   3  -9  -6 157.927 8.30739   2
   3  -9  -6 146.456 7.27876  11
   3   9  -6 150.886 6.11280  12
   3   9  -6 162.023 6.93734   6
  -3   9   6 152.248 7.96345   8
   1  -9  -6 28.4002 4.48693   2
   1  -9  -6 24.0434 3.27651  11
  -1  -9   6 26.7503 3.87200  10
  -1  -9   6 22.3788 3.14877   7
   1   9  -6 25.3616 2.78707   6
  -1   9   6 30.8721 2.68630  13
  -1   9   6 25.7958 3.85856   8
   1  -9   6 59.5910 4.43746   7
  -1  -9  -6 56.1672 4.95670  11
   1  -9   6 67.5075 5.88612  10
  -1  -9  -6 52.8780 6.09177   2
   1   9   6 57.4899 4.04437   1
   1   9   6 59.6865 3.78932  13
  -1   9  -6 55.0685 4.02587   6
  -1   9  -6 62.0525 4.47368   9
  -3  -9  -6 28.1370 4.53971   2
   3  -9   6 30.9235 4.01456   7
  -3   9  -6 32.5363 2.95879   6
  -3   9  -6 32.2198 3.81838   9
   3   9   6 28.2316 2.94502  13
   3   9   6 28.8015 3.33723   1
  -8 -10   6 1238.46 33.8432  10
  -8 -10   6 1245.32 31.5556   7
   8 -10  -6 1225.55 31.5641   5
  -8  10   6 1261.32 34.0188   8
   6 -10  -6 3.07155 2.35881   5
  -6 -10   6 6.12370 2.44799  10
  -6 -10   6 7.97272 2.49497   7
   6 -10  -6 5.19483 2.53601  11
  -6  10   6 1.14244 1.62576   6
  -6  10   6 3.63971 2.48781   8
   6  10  -6 3.17717 1.43503  12
  -4 -10   6 1640.57 42.2592   2
  -4 -10   6 1692.43 42.3570  10
  -4 -10   6 1685.23 40.0516   7
   4 -10  -6 1649.67 41.5630   2
   4 -10  -6 1655.61 40.2169  11
   4  10  -6 1713.36 39.8638   6
   4  10  -6 1681.33 39.1476  12
  -4  10   6 1740.33 42.5126   8
  -2 -10   6 7.47086 2.83703  10
   2 -10  -6 8.68979 3.03194  11
  -2 -10   6 7.46135 2.35432   7
   2 -10  -6 6.17125 3.07234   2
   2  10  -6 12.8371 2.50857   6
  -2  10   6 7.20543 2.68212   8
   0 -10  -6 1314.15 33.0918  11
   0 -10   6 1316.64 35.2954  10
   0 -10  -6 1332.72 36.0642   2
   0 -10   6 1333.54 32.8980   7
   0  10  -6 1294.96 31.7955   6
   0  10   6 1287.81 34.4776   8
   2 -10   6 2.45093 1.91340   7
  -2 -10  -6 6.06102 2.43046  11
  -2 -10  -6 12.7176 4.00674   2
   2 -10   6 3.72095 1.98546  10
  -2  10  -6 4.18976 1.82637   6
  -2  10  -6 6.99691 2.23062   9
   2  10   6 7.68180 2.15479   1
  -7 -11   6 67.2996 6.20696  10
   7 -11  -6 56.3859 4.85737   5
   7 -11  -6 70.0043 5.59664  11
  -7 -11   6 69.7506 5.19963   7
   7  11  -6 55.9019 4.39357   6
   7  11  -6 60.9351 4.50380  12
  -7  11   6 62.1471 6.20689   8
  -5 -11   6 62.9102 5.00883   7
  -5 -11   6 60.9054 5.71372  10
   5 -11  -6 52.0586 5.19085  11
  -5 -11   6 64.6669 5.92387   2
   5  11  -6 62.1444 4.50754   6
  -5  11   6 60.2029 5.96248   8
   5  11  -6 68.9699 4.67234  12
  -3 -11   6 106.511 7.17394  10
   3 -11  -6 105.730 6.33904  11
  -3 -11   6 103.243 7.46630   2
   3 -11  -6 93.9106 7.20485   2
  -3 -11   6 102.562 6.06221   7
   3  11  -6 102.173 5.95280   6
  -3  11   6 112.896 7.21184   8
  -1 -11   6 72.5605 5.23041   7
  -1 -11   6 65.2875 5.73681  10
   1 -11  -6 70.7714 6.23699   2
   1 -11  -6 63.5295 5.11485  11
  -1  11   6 71.6258 6.27955   8
   1  11  -6 65.9847 4.58171   6
  -1 -11  -6 93.9414 7.86781   2
   1 -11   6 79.7789 6.43995  10
  -1 -11  -6 76.2157 5.80893  11
   1  11   6 82.0686 6.73147   8
  -1  11  -6 85.2229 5.35692   6
   4 -12  -6 221.770 9.72289  11
  -4 -12   6 221.532 11.1040   2
  -4 -12   6 219.842 11.3403  10
  -4  12   6 225.263 10.9714   8
   4  12  -6 227.988 9.09716   6
  -2 -12   6 325.673 14.1575   2
  -2 -12   6 317.922 13.6682  10
   2 -12  -6 321.946 13.8560   2
   2 -12  -6 305.777 12.1472  11
  -2  12   6 311.485 13.2535   8
   2  12  -6 317.009 11.5359   6
   0 -12   6 195.183 10.4492  10
   0 -12  -6 189.551 10.9188   2
   0 -12  -6 187.346 9.05771  11
   0  12   6 198.831 9.97144   8
   0  12  -6 207.801 8.58705   6
  12   0  -7 1.23156 1.98260  12
 -12   0   7 -0.4797 1.62290  14
  12   0  -7 -0.2342 2.15970   1
 -12   0   7 3.61509 2.12619   3
 -10   0   7 0.30957 1.58024  14
  10   0  -7 0.77057 1.69115   1
  10   0  -7 0.44794 1.65202  12
 -10   0   7 -0.8821 1.36567   3
  10   0  -7 0.50473 1.28851  16
  10   0  -7 0.56027 1.19964   5
   8   0  -7 1.31210 1.35575  16
   8   0  -7 2.27846 1.61872  12
  -8   0   7 1.98877 1.22772   3
  -8   0   7 1.10559 1.23690   7
  -8   0   7 -0.5628 1.78740  14
   8   0  -7 0.46992 0.90514   5
   6   0  -7 0.03793 1.01451  12
   6   0  -7 2.98527 1.57384  15
  -6   0   7 0.03910 1.08602   4
   6   0  -7 -0.5009 0.58298  11
   6   0  -7 0.48385 0.82316   5
  -6   0   7 0.25880 0.91761   7
   4   0  -7 0.29291 1.27994  15
  -4   0   7 1.35347 0.68976   8
   4   0  -7 0.40291 0.71132  12
   4   0  -7 0.81911 0.82126  11
   4   0  -7 2.20010 1.11896   5
  -4   0   7 0.18293 0.72871   7
  -4   0   7 0.20827 0.98628   4
   2   0  -7 0.22247 0.59800  11
  -2   0   7 3.40978 0.81587   7
   2   0  -7 1.91639 1.61203  15
   2   0  -7 0.96093 0.85874   5
  -2   0   7 0.53860 0.55648  13
   2   0  -7 0.98022 0.49501  12
   0   0   7 0.75623 0.55604   7
   0   0   7 -0.9081 0.96699   4
   0   0  -7 1.11645 0.66130   5
   0   0   7 1.44290 0.94072  13
   0   0  -7 0.37103 1.16140   2
   0   0  -7 0.38749 0.89414  11
   0   0  -7 4.43549 1.73301  15
  -2   0  -7 0.06887 0.70140  11
   2   0   7 0.33397 1.27877   4
   2   0   7 5.58619 1.29484  13
   4   0   7 1.14259 1.24870   4
   4   0   7 1.57470 1.58776  13
  -4   0  -7 4.74646 2.10317   9
  -4   0  -7 2.47224 1.23142  11
   6   0   7 1.35775 1.79572  13
   6   0   7 -0.4581 1.96705   4
  -6   0  -7 2.00355 1.55346   9
  11  -1  -7 183.230 8.50985   1
  11  -1  -7 183.811 8.31162  12
 -11  -1   7 186.465 8.94487   3
 -11  -1   7 175.041 10.6312  14
  11  -1  -7 179.267 8.95439  16
 -11   1   7 194.920 9.06102   3
  11   1  -7 178.683 8.89453  16
 -11   1   7 206.571 11.6807  14
  11   1  -7 199.807 8.70661   1
  11   1  -7 191.505 8.61056  12
  -9  -1   7 882.147 23.2771   3
   9  -1  -7 890.533 23.1001  12
  -9  -1   7 876.368 26.0886  14
  -9  -1   7 895.238 22.4365   7
   9  -1  -7 873.997 22.4075   5
   9  -1  -7 911.583 23.8121  16
   9   1  -7 873.674 23.3083  16
   9   1  -7 898.184 23.0520  12
   9   1  -7 871.493 22.5132   1
  -9   1   7 859.498 22.8709   3
  -9   1   7 907.128 26.5801  14
   9   1  -7 878.788 22.3268   5
  -7  -1   7 263.120 8.33375   7
   7  -1  -7 266.435 11.0297  15
  -7  -1   7 258.112 8.77892   4
   7  -1  -7 261.986 8.83830   5
   7  -1  -7 263.702 8.67275  12
   7   1  -7 262.853 8.68178   5
   7   1  -7 258.238 8.65365  16
  -7   1   7 256.591 8.26725   3
  -7   1   7 249.143 8.08074   8
   7   1  -7 275.909 8.82532  12
  -7   1   7 268.014 7.99778   7
  -7   1   7 265.775 10.7513  14
  -5  -1   7 2163.35 48.3883   7
   5  -1  -7 2182.79 48.7149  12
  -5  -1   7 2244.24 49.1846   4
   5  -1  -7 2297.74 54.0833  15
   5  -1  -7 2288.45 49.4866   5
   5  -1  -7 2238.13 48.4515  11
   5   1  -7 2199.42 48.6742  12
  -5   1   7 2201.55 47.8776   7
   5   1  -7 2270.91 49.2666   5
   5   1  -7 2215.57 48.2052  11
   5   1  -7 2209.86 53.1416  15
  -5   1   7 2219.47 49.1339   4
  -5   1   7 2196.96 48.2815   8
   3  -1  -7 329.508 9.01506  12
  -3  -1   7 337.477 9.08801  10
   3  -1  -7 357.855 9.81519  11
   3  -1  -7 344.984 9.75613   2
  -3  -1   7 364.888 9.20903  13
  -3  -1   7 355.538 9.95336   4
  -3  -1   7 354.118 9.39321   7
   3  -1  -7 340.836 9.86411   5
   3  -1  -7 351.582 13.5838  15
   3   1  -7 347.619 9.60960  11
  -3   1   7 338.358 8.81855   7
   3   1  -7 340.482 12.9912  15
   3   1  -7 331.037 8.83643  12
  -3   1   7 334.852 9.29640  13
   3   1  -7 340.091 9.76437   5
  -3   1   7 342.087 9.76052   4
  -1  -1   7 2505.45 55.4020   7
   1  -1  -7 2607.80 61.3580  15
  -1  -1   7 2550.18 54.9896  13
  -1  -1   7 2635.79 56.1996   4
   1  -1  -7 2590.18 55.9993  11
   1  -1  -7 2527.56 55.3637   5
   1  -1  -7 2576.65 57.1599   2
   1   1  -7 2542.08 55.7551  11
  -1   1   7 2600.45 55.3715  13
  -1   1   7 2492.81 54.7494   7
   1   1  -7 2570.74 55.3597   5
  -1   1   7 2552.55 55.8336   4
  -1  -1  -7 170.190 7.73277   2
   1  -1   7 165.201 5.81815  13
  -1  -1  -7 176.191 6.41962  11
   1  -1   7 169.098 6.18204   7
   1  -1   7 169.482 6.55862   4
  -1  -1  -7 168.599 8.88949  15
   1   1   7 169.476 5.09596   1
   1   1   7 173.801 6.09292  13
  -1   1  -7 168.919 6.17710  11
   1   1   7 174.818 6.46834   4
   3  -1   7 1267.61 30.7593   4
  -3  -1  -7 1237.27 29.3001  11
  -3  -1  -7 1223.54 32.8506   2
   3  -1   7 1233.90 29.4490  13
   3   1   7 1250.37 30.4132   4
  -3   1  -7 1280.97 31.5230   9
   3   1   7 1247.30 29.7692  13
  -3   1  -7 1223.46 29.2695  11
  -5  -1  -7 71.7284 5.64575   9
   5  -1   7 72.8420 5.47395   4
   5  -1   7 75.5940 4.69070  13
   5   1   7 67.4076 4.86818   4
   5   1   7 78.0764 4.83443  13
  -5   1  -7 77.9263 5.78833   9
   7  -1   7 455.789 14.9995  13
   7  -1   7 473.105 16.1466   4
   7   1   7 488.326 16.1519   4
   7   1   7 451.061 15.1322  13
  12  -2  -7 180.722 8.57830  12
 -12  -2   7 181.224 9.34877   3
 -12  -2   7 172.651 10.4801  14
  12  -2  -7 181.943 8.82223   1
 -12   2   7 174.553 8.88330   3
  12   2  -7 182.594 8.46618   1
  12   2  -7 173.926 8.34317  12
 -12   2   7 190.096 11.9835  14
 -10  -2   7 296.009 13.1501  14
  10  -2  -7 279.679 9.69915   5
 -10  -2   7 277.127 9.96096   7
  10  -2  -7 270.938 10.3594  12
 -10  -2   7 277.033 10.8900   3
  10  -2  -7 271.686 10.8995  16
  10   2  -7 281.319 9.48132   5
 -10   2   7 275.342 10.5047   3
  10   2  -7 282.464 10.7519  16
  10   2  -7 267.170 9.81843   1
 -10   2   7 305.185 13.8975  14
  10   2  -7 288.181 10.5706  12
   8  -2  -7 366.900 11.3965   5
  -8  -2   7 364.816 11.1252   7
   8  -2  -7 373.022 11.6120  12
  -8   2   7 376.182 11.3498   3
   8   2  -7 377.995 11.4030   5
  -8   2   7 378.576 11.5145   8
   8   2  -7 363.574 11.5497  16
   8   2  -7 368.640 11.0637   1
   8   2  -7 362.168 11.4976  12
  -8   2   7 396.327 14.5822  14
   6  -2  -7 817.555 20.1842   5
   6  -2  -7 782.319 23.6192  15
   6  -2  -7 750.100 19.4066  12
  -6  -2   7 788.901 19.3954   7
  -6  -2   7 786.688 19.8082   4
   6  -2  -7 782.044 18.8957  11
   6   2  -7 786.727 19.5450  12
   6   2  -7 784.193 19.2219  16
   6   2  -7 805.542 19.8428   5
  -6   2   7 808.129 21.9517  14
   6   2  -7 778.153 18.4614  11
  -6   2   7 806.326 19.8371   4
  -6   2   7 829.961 19.9764   3
   6   2  -7 765.461 18.6482   1
  -6   2   7 792.688 19.5119   8
  -6   2   7 773.990 18.3617   7
   4  -2  -7 705.306 17.8717   5
   4  -2  -7 731.052 22.2797  15
   4  -2  -7 732.723 17.5583  11
  -4  -2   7 670.097 16.7417  10
  -4  -2   7 712.819 17.2402   7
  -4  -2   7 728.836 17.7240   4
   4   2  -7 697.347 16.8564  12
  -4   2   7 705.967 17.4939   4
  -4   2   7 721.703 17.4517   8
  -4   2   7 706.756 17.1679  13
  -4   2   7 697.509 16.1064   7
   4   2  -7 705.101 17.6014   5
   4   2  -7 662.096 16.2113  16
   4   2  -7 705.375 17.0737  11
   2  -2  -7 885.050 21.6064   2
   2  -2  -7 877.224 20.9525  11
   2  -2  -7 844.929 25.4623  15
   2  -2  -7 858.473 20.7365   5
  -2  -2   7 855.093 20.4066   7
  -2  -2   7 852.166 19.6092  13
  -2  -2   7 868.798 20.8540   4
  -2   2   7 852.485 20.2204  13
  -2   2   7 852.172 20.5032   4
   2   2  -7 850.862 20.4768  11
  -2   2   7 828.255 19.1343   7
   2   2  -7 858.425 20.4554   5
   0  -2  -7 839.806 20.5047  11
   0  -2   7 808.036 20.4003   4
   0  -2   7 809.835 19.1822  13
   0  -2  -7 802.792 19.3772   5
   0  -2  -7 837.856 25.0651  15
   0  -2  -7 852.589 22.2087   2
   0  -2   7 805.294 20.0508   7
   0   2  -7 796.208 19.2995   5
   0   2  -7 838.216 20.1399  11
   0   2   7 826.607 18.8033   1
   0   2   7 824.929 20.1356   4
   0   2   7 823.765 19.8652  13
  -2  -2  -7 453.466 16.5013  15
  -2  -2  -7 465.626 15.5187   2
   2  -2   7 481.335 13.8280   4
   2  -2   7 460.614 12.5204  13
  -2  -2  -7 467.485 13.0586  11
   2   2   7 467.271 11.7763   1
   2   2   7 465.999 13.2324   4
   2   2   7 465.735 13.0273  13
  -2   2  -7 453.881 12.8279  11
  -2   2  -7 469.701 14.2477   9
   2   2   7 450.648 12.1376  16
  -4  -2  -7 397.545 15.1727   2
   4  -2   7 389.152 12.0217  13
   4  -2   7 415.060 13.4278   4
   4   2   7 405.482 12.9413   4
   4   2   7 396.362 12.5880  13
  -4   2  -7 407.038 13.8813   9
   6  -2   7 213.261 8.75392  13
   6  -2   7 226.442 10.2000   4
  -6  -2  -7 216.532 9.83211   9
  -6   2  -7 211.306 9.83565   9
   6   2   7 237.864 9.36661  13
   6   2   7 229.906 9.53598   4
  11  -3  -7 881.298 23.8879  12
 -11  -3   7 893.599 25.1598   3
 -11  -3   7 858.027 27.0120  14
  11   3  -7 850.037 23.5438   1
 -11   3   7 907.187 29.2060  14
  11   3  -7 849.713 24.4705  16
  11   3  -7 890.309 24.1452  12
   9  -3  -7 237.320 8.99817  12
  -9  -3   7 249.509 9.07583   7
  -9  -3   7 234.190 10.9414  14
   9  -3  -7 236.871 8.72027   5
  -9   3   7 245.569 11.7438  14
   9   3  -7 245.203 8.66491   5
   9   3  -7 247.531 8.73441   1
   9   3  -7 233.874 9.01151  12
   9   3  -7 228.609 9.07141  16
  -9   3   7 246.585 9.36217   8
  -9   3   7 236.581 9.02927   3
   7  -3  -7 1374.70 31.8069   5
   7  -3  -7 1337.88 30.2602  11
  -7  -3   7 1348.08 31.4573   4
   7  -3  -7 1316.78 35.5396  15
  -7  -3   7 1366.30 31.3352   7
   7  -3  -7 1302.61 31.3137  12
  -7  -3   7 1261.50 30.6140  10
  -7   3   7 1356.73 34.7057  14
   7   3  -7 1309.92 30.4177   1
   7   3  -7 1333.94 31.4121  12
  -7   3   7 1320.47 31.2190   3
   7   3  -7 1303.04 30.9951  16
  -7   3   7 1371.83 31.8138   8
   7   3  -7 1351.81 31.4168   5
   5  -3  -7 410.469 11.1286  11
   5  -3  -7 394.658 15.2354  15
  -5  -3   7 396.973 11.0509   7
  -5  -3   7 374.238 10.6526  10
  -5  -3   7 402.199 11.2957   4
   5  -3  -7 388.661 11.6278   5
  -5   3   7 400.738 11.2024   4
  -5   3   7 398.731 12.7370  14
   5   3  -7 402.047 11.4076   5
   5   3  -7 386.289 10.8134  12
   5   3  -7 402.822 10.5413  11
  -5   3   7 400.424 11.4128   8
   5   3  -7 364.688 10.0202  16
  -3  -3   7 1196.51 28.6726  10
  -3  -3   7 1241.84 28.6454   7
   3  -3  -7 1277.25 29.0397  11
   3  -3  -7 1225.72 28.9469   5
   3  -3  -7 1280.97 34.5862  15
  -3  -3   7 1231.83 28.7877   4
   3  -3  -7 1253.17 29.0725   2
   3   3  -7 1207.33 27.5282  12
  -3   3   7 1226.62 28.3471  13
  -3   3   7 1249.25 28.4644   4
   3   3  -7 1248.13 28.0160   9
   3   3  -7 1245.34 28.7000   5
  -3   3   7 1246.40 28.7513   8
   3   3  -7 1245.47 28.4247  11
   1  -3  -7 411.533 12.9165   2
   1  -3  -7 424.604 12.0647  11
   1  -3  -7 422.480 16.0967  15
   1  -3  -7 404.238 11.4550   5
  -1  -3   7 429.750 11.8183   7
  -1  -3   7 427.944 10.5761  13
  -1  -3   7 409.214 11.8482   4
   1   3  -7 418.421 11.3149   5
   1   3  -7 433.348 11.7251  11
  -1   3   7 428.250 11.4841  13
   1   3  -7 439.461 11.9921   9
  -1   3   7 414.917 11.3859   4
   1  -3   7 934.758 21.9256  13
   1  -3   7 945.684 23.3437   7
   1  -3   7 952.320 23.5876   4
  -1  -3  -7 932.852 23.1861  11
  -1  -3  -7 974.394 25.8005   2
  -1  -3  -7 917.791 27.8788  15
  -1   3  -7 941.391 21.8669   5
  -1   3  -7 926.755 22.8232  11
   1   3   7 949.487 21.8090   1
   1   3   7 950.692 22.8875   4
   1   3   7 936.541 22.7502  13
  -1   3  -7 956.653 23.8643   9
  -3  -3  -7 325.315 13.0171   2
  -3  -3  -7 322.460 10.0872  11
   3  -3   7 312.403 9.66450  13
   3  -3   7 322.086 11.0580   4
   3   3   7 308.003 10.3427  13
   3   3   7 310.708 9.19595   1
   3   3   7 317.703 9.76553  16
   3   3   7 312.250 10.3500   4
  -3   3  -7 332.471 11.6449   9
   5  -3   7 604.529 18.4142   4
   5  -3   7 601.850 16.8011  13
  -5  -3  -7 595.574 20.7744   2
   5   3   7 593.068 17.4244   4
   5   3   7 602.781 17.4462  13
  -5   3  -7 608.564 18.7684   9
  12  -4  -7 106.997 6.83957   1
  12  -4  -7 117.554 6.70860  12
 -12  -4   7 124.278 7.55348   3
 -12   4   7 121.577 9.68998  14
  12   4  -7 108.460 6.35106   1
  12   4  -7 124.275 7.20350  12
 -12   4   7 122.165 7.35641   3
 -10  -4   7 101.512 7.54422  14
 -10  -4   7 96.0086 5.59290   7
  10  -4  -7 102.508 6.48353  16
  10  -4  -7 115.140 5.89183   5
  10  -4  -7 106.876 6.16547  12
 -10   4   7 107.947 6.52178   8
 -10   4   7 104.198 8.42195  14
  10   4  -7 96.8401 5.90563  16
  10   4  -7 110.923 6.07012  12
  10   4  -7 104.366 5.71128   1
 -10   4   7 102.817 5.83837   3
  -8  -4   7 51.7412 3.69944   7
   8  -4  -7 53.2438 3.85667   5
   8  -4  -7 54.0342 4.09205  12
  -8  -4   7 52.1221 3.92668  10
  -8   4   7 58.4887 5.57526  14
   8   4  -7 53.6837 3.78363   5
   8   4  -7 53.5613 3.72207  16
   8   4  -7 54.1684 4.01877  12
   8   4  -7 48.1308 3.29544   1
  -8   4   7 54.2682 4.26737   8
  -6  -4   7 205.372 7.34239   4
   6  -4  -7 197.276 10.3435  15
   6  -4  -7 209.710 7.76972   5
  -6  -4   7 199.830 7.20444  10
  -6  -4   7 198.552 7.21286   7
   6  -4  -7 214.059 7.21909  11
  -6   4   7 204.742 8.87874  14
  -6   4   7 222.401 7.91924   8
   6   4  -7 192.213 6.56872  16
   6   4  -7 209.816 7.41255   5
   6   4  -7 205.465 7.22880  12
   4  -4  -7 29.4540 4.09267  15
  -4  -4   7 30.9462 2.50928   7
   4  -4  -7 32.9261 2.74318  11
   4  -4  -7 29.2902 2.42117   2
  -4  -4   7 40.6901 2.77761  10
   4  -4  -7 31.9683 3.15115   5
  -4  -4   7 25.7875 2.47050   4
  -4   4   7 24.5588 2.64142  14
  -4   4   7 29.0242 2.38275   4
  -4   4   7 29.2961 2.79529   8
   4   4  -7 32.6714 2.69923   5
   4   4  -7 28.3799 2.16292  12
  -4   4   7 28.0393 2.46334  13
   2  -4  -7 50.5803 3.50746   2
   2  -4  -7 45.8430 3.03068   5
   2  -4  -7 45.4346 5.36811  15
  -2  -4   7 46.8523 3.19876   4
   2  -4  -7 47.4959 3.62716  11
  -2  -4   7 46.7297 3.25360   7
  -2   4   7 45.7680 2.78815   4
   2   4  -7 52.2963 3.15725   5
   2   4  -7 47.2412 2.87986   9
  -2   4   7 50.3719 2.98127  13
   0  -4  -7 94.4569 5.80531   2
   0  -4  -7 87.9980 4.12522   5
   0  -4  -7 98.1178 5.00756  11
   0  -4  -7 93.0007 7.22040  15
   0  -4   7 92.8847 4.62328   4
   0  -4   7 104.251 4.98580   7
   0   4  -7 97.3539 4.75072   9
   0   4   7 91.0322 3.92729   1
   0   4  -7 90.1999 3.72638   6
   0   4  -7 91.6228 4.04069   5
   0   4   7 89.5524 4.12184   4
   0   4   7 95.7221 4.39455  13
  -2  -4  -7 4.49123 1.58790  11
   2  -4   7 0.11339 0.98706   4
  -2  -4  -7 2.43298 1.73415  15
   2  -4   7 2.56050 1.56581   7
  -2  -4  -7 2.33207 1.92655   2
  -2   4  -7 0.80938 1.37002   9
   2   4   7 1.22415 1.04527   1
   2   4   7 2.43712 1.56783  13
   2   4   7 -0.2235 1.00535   4
  -4  -4  -7 55.7415 5.76590   2
   4  -4   7 50.2679 4.24485   4
  -4   4  -7 52.7278 4.72013   9
   4   4   7 54.1180 4.02804  13
   4   4   7 46.0535 3.16144   1
   4   4   7 51.4430 3.70035  16
   4   4   7 52.8618 3.96470   4
  -6  -4  -7 12.9590 3.72998   2
  -6  -4  -7 14.7523 2.75946   9
   6  -4   7 12.5511 3.08750   4
   6   4   7 12.2744 2.83903  13
  -6   4  -7 9.43325 2.48222   9
  11  -5  -7 138.696 7.13868  12
 -11  -5   7 124.606 8.41303  14
 -11   5   7 147.123 10.2461  14
 -11   5   7 129.783 7.43698   8
  11   5  -7 128.507 6.95705  12
   9  -5  -7 396.816 12.5331   5
  -9  -5   7 398.091 12.8420   7
   9  -5  -7 402.147 12.8272  12
  -9  -5   7 389.911 12.6737  10
  -9   5   7 417.335 13.9407   8
   9   5  -7 363.876 12.2839  16
   9   5  -7 398.412 12.1974   5
   9   5  -7 385.842 11.8201   1
   9   5  -7 383.109 12.7118  12
  -9   5   7 395.791 16.1379  14
  -7  -5   7 286.766 10.0533  10
  -7  -5   7 295.821 10.1226   7
   7  -5  -7 300.935 9.26503  11
   7  -5  -7 296.746 13.2946  15
   7  -5  -7 303.572 10.2129   5
   7   5  -7 321.253 10.1894   5
   7   5  -7 301.465 9.99581  12
  -7   5   7 314.542 12.4509  14
  -7   5   7 325.446 11.0177   8
  -5  -5   7 1203.97 28.4583   4
  -5  -5   7 1180.88 28.8698  10
  -5  -5   7 1248.60 28.8805   7
   5  -5  -7 1178.91 34.0485  15
   5  -5  -7 1193.65 28.5516  11
   5  -5  -7 1192.35 28.9808   5
  -5   5   7 1252.88 29.6103   8
   5   5  -7 1227.65 28.2385  12
  -5   5   7 1182.42 30.2214  14
   5   5  -7 1214.64 28.8592   5
   3  -5  -7 741.075 24.2541  15
  -3  -5   7 719.394 19.3266  10
   3  -5  -7 741.005 19.3919   2
  -3  -5   7 754.291 19.0076   7
   3  -5  -7 730.407 18.8477   5
   3  -5  -7 745.880 19.0881  11
  -3  -5   7 723.560 18.4824   4
   3   5  -7 744.289 18.7664   5
  -3   5   7 724.724 17.8529   4
  -3   5   7 761.155 19.5879   8
  -3   5   7 736.144 18.3975  13
   3   5  -7 728.935 17.5575  12
   1  -5  -7 1405.35 34.1342   2
   1  -5  -7 1425.36 32.9351  11
   1  -5  -7 1298.77 31.8254   5
   1  -5  -7 1315.53 38.1269  15
  -1  -5   7 1369.78 32.1402   4
  -1  -5   7 1360.96 32.4240   7
  -1   5   7 1379.18 31.7585  13
   1   5  -7 1422.46 31.4832   6
   1   5  -7 1426.49 32.2229   9
  -1   5   7 1374.19 31.1523   4
   1   5  -7 1389.47 31.8375   5
   1  -5   7 444.882 13.3924   7
  -1  -5  -7 418.449 17.1398  15
  -1  -5  -7 423.329 12.9949  11
   1  -5   7 441.651 13.1139   4
  -1  -5  -7 438.163 15.0808   2
   1   5   7 443.833 12.4861  13
  -1   5  -7 411.593 11.4114   6
   1   5   7 445.946 11.8975   1
  -1   5  -7 443.336 13.3842   9
  -3  -5  -7 458.317 13.9469  11
   3  -5   7 494.257 15.2796   4
   3  -5   7 500.568 15.3442   7
  -3  -5  -7 481.721 17.4188   2
   3   5   7 500.407 13.5518   1
   3   5   7 504.713 14.4848  13
  -3   5  -7 493.042 15.4878   9
   3   5   7 487.293 14.0810  16
  -5  -5  -7 122.886 8.76206   2
   5  -5   7 119.370 7.09759   7
   5  -5   7 122.205 7.19315   4
   5   5   7 124.721 5.85925   1
   5   5   7 122.996 6.33794  13
  -5   5  -7 136.960 7.63332   9
 -10  -6   7 37.2651 4.14063   7
  10  -6  -7 37.8596 4.09967  12
 -10  -6   7 39.6665 5.12220  14
  10  -6  -7 36.8992 3.51085   5
  10   6  -7 44.9988 5.75163   1
  10   6  -7 40.3360 4.29190  12
 -10   6   7 45.1546 6.25365  14
 -10   6   7 46.4250 5.31400   8
   8  -6  -7 102.726 5.91060   5
  -8  -6   7 111.263 6.07316   7
  -8   6   7 106.431 6.17420   8
  -8   6   7 105.214 7.54428  14
   8   6  -7 110.266 5.66767  12
   8   6  -7 108.170 5.40533   5
  -6  -6   7 2.60803 1.73450  10
   6  -6  -7 0.09329 1.57228  11
  -6  -6   7 3.69745 1.44273   7
   6  -6  -7 1.55015 1.26772   5
  -6  -6   7 0.63543 0.78819   4
  -6   6   7 0.62145 1.53478  14
   6   6  -7 -0.3293 0.80235  12
  -6   6   7 -0.2450 0.96822   8
   6   6  -7 -0.3741 0.84899   5
  -4  -6   7 71.5391 3.90617   4
   4  -6  -7 68.0119 4.24029   2
   4  -6  -7 73.8406 4.57705  11
  -4  -6   7 70.6272 4.12690   7
   4  -6  -7 61.8280 6.43974  15
  -4  -6   7 73.4985 4.69923  10
   4  -6  -7 67.9097 4.44992   5
   4   6  -7 69.9004 4.19896   5
  -4   6   7 67.0443 4.64024   8
   4   6  -7 70.3741 3.62150  12
  -4   6   7 68.7089 3.59867   4
   2  -6  -7 12.0415 2.11180   5
   2  -6  -7 9.40668 2.37672   2
   2  -6  -7 12.8861 3.36063  15
   2  -6  -7 14.4027 2.34808  11
  -2  -6   7 8.65026 2.08994  10
  -2  -6   7 9.97957 1.90053   4
  -2  -6   7 8.51432 1.99192   7
   2   6  -7 8.96304 1.61481   9
   2   6  -7 11.6270 1.78964   5
  -2   6   7 7.69733 1.70545  13
   0  -6  -7 2.47766 1.33735   5
   0  -6  -7 2.66023 2.14684   2
   0  -6  -7 0.49204 2.17579  15
   0  -6  -7 4.44434 2.02707  11
   0  -6   7 0.03146 1.14905   4
   0  -6   7 3.07510 1.59103   7
   0   6  -7 3.20075 1.15564   6
   0   6  -7 3.75949 1.27921   9
   0   6   7 3.44222 1.34178   1
   0   6   7 3.97915 1.53679  13
  -2  -6  -7 42.6423 5.08967   2
   2  -6   7 35.0937 3.57854   4
   2  -6   7 41.7769 3.69669   7
  -2  -6  -7 37.3675 3.49486  11
  -2   6  -7 33.2482 2.78201   6
   2   6   7 36.7011 3.12005  13
  -2   6  -7 38.9822 3.85584   9
   2   6   7 36.9685 3.12239   1
  -4  -6  -7 4.33175 2.92441   2
   4  -6   7 0.41695 1.86962   7
   4  -6   7 0.06458 1.28954   4
  -4   6  -7 0.69595 1.45075   9
   4   6   7 1.42994 1.57933   1
   4   6   7 1.98505 1.78021  13
   4   6   7 -0.7084 1.27010  16
   9  -7  -7 923.215 24.0759   5
  -9  -7   7 876.296 24.7152  10
  -9  -7   7 905.027 24.1572   7
   9   7  -7 905.409 24.1327  12
   9   7  -7 877.140 23.3279   5
  -9   7   7 926.565 25.8665   8
  -9   7   7 892.457 28.3927  14
  -7  -7   7 218.296 9.03564  10
  -7  -7   7 236.007 8.83236   7
   7  -7  -7 207.961 7.83751  11
   7  -7  -7 223.418 8.89941   5
  -7   7   7 211.405 9.28469   8
   7   7  -7 223.863 8.57948   5
  -7   7   7 219.808 10.5970  14
   7   7  -7 224.307 8.50952  12
   5  -7  -7 783.204 20.7485  11
  -5  -7   7 798.646 20.9357   7
   5  -7  -7 783.879 20.8873   5
  -5  -7   7 768.360 21.5810  10
   5   7  -7 797.047 20.1385  12
   5   7  -7 814.981 20.9489   5
  -5   7   7 832.233 22.2838   8
   3  -7  -7 133.574 6.46253   2
  -3  -7   7 134.028 5.45502   4
   3  -7  -7 114.632 5.77240  11
  -3  -7   7 118.639 6.36498  10
   3  -7  -7 112.409 8.63675  15
   3  -7  -7 105.748 5.43914   5
  -3  -7   7 116.852 5.71098   7
   3   7  -7 122.254 4.86239  12
   3   7  -7 119.343 5.53691   5
  -3   7   7 125.069 6.45239   8
  -3   7   7 130.807 5.43932  13
   1  -7  -7 606.038 18.2331   2
  -1  -7   7 585.053 16.5900   7
  -1  -7   7 588.876 15.7258   4
   1  -7  -7 563.448 16.5413  11
   1  -7  -7 536.034 15.4794   5
  -1  -7   7 590.235 18.0244  10
   1   7  -7 569.853 15.4746   6
  -1   7   7 554.442 15.3209  13
   1   7  -7 596.822 15.8058   9
   1  -7   7 174.004 7.39330   4
  -1  -7  -7 183.510 9.56965   2
  -1  -7  -7 173.418 7.72890  11
   1  -7   7 175.820 7.90601   7
  -1   7  -7 178.831 7.74115   9
  -1   7  -7 175.938 6.66567   6
   1   7   7 190.645 7.32104  13
   1   7   7 182.601 6.97608   1
   3  -7   7 590.541 17.6680   4
   3  -7   7 599.725 18.3289   7
  -3  -7  -7 604.774 20.9695   2
  -3   7  -7 600.563 18.1934   9
   3   7   7 591.307 16.8371  13
   3   7   7 582.634 16.3383   1
   5  -7   7 265.849 10.7851   4
   5  -7   7 250.105 10.8407   7
  -5  -7  -7 263.879 13.0717   2
   5   7   7 268.407 9.49040   1
   5   7   7 246.858 9.84212  13
  -5   7  -7 264.506 11.2437   9
  10  -8  -7 147.499 7.23563  12
 -10  -8   7 159.118 8.32224  10
 -10  -8   7 143.955 7.61423   7
  10   8  -7 158.141 7.68696  12
 -10   8   7 151.057 10.4892  14
 -10   8   7 152.173 8.83756   8
   8  -8  -7 425.327 13.9474   5
  -8  -8   7 415.326 14.5793  10
  -8  -8   7 425.063 13.6989   7
   8   8  -7 414.059 13.4449  12
  -8   8   7 415.775 16.6597  14
  -8   8   7 455.691 15.5518   8
  -6  -8   7 187.202 8.80128  10
  -6  -8   7 195.021 8.04363   7
   6  -8  -7 189.925 7.96652  11
   6  -8  -7 180.616 7.82227   5
   6   8  -7 187.289 7.54829  12
   6   8  -7 181.543 7.61763   5
  -6   8   7 184.943 8.75926   8
   4  -8  -7 654.480 19.0422   2
  -4  -8   7 687.633 18.7306   7
  -4  -8   7 679.426 19.8405  10
   4  -8  -7 657.171 18.6092   5
   4  -8  -7 691.985 18.9220  11
  -4   8   7 683.494 19.9370   8
   4   8  -7 683.575 18.5029   5
   4   8  -7 663.764 17.4751  12
  -2  -8   7 535.459 15.7601   7
  -2  -8   7 515.572 17.0621  10
   2  -8  -7 518.109 15.7221  11
   2  -8  -7 525.851 16.9763   2
  -2   8   7 524.874 16.7691   8
  -2   8   7 536.916 14.8337  13
   2   8  -7 530.456 15.0146   6
   0  -8  -7 287.360 12.3382   2
   0  -8  -7 272.331 10.5027  11
   0  -8   7 281.343 11.7043  10
   0  -8   7 283.705 10.5827   7
   0   8  -7 287.585 10.0344   9
   0   8   7 281.892 9.53974  13
   0   8  -7 278.836 9.48130   6
  -2  -8  -7 596.741 20.5917   2
   2  -8   7 598.831 18.1218   7
  -2  -8  -7 573.797 17.1947  11
   2   8   7 596.732 16.4494   1
  -2   8  -7 580.468 16.0256   6
  -2   8  -7 607.018 17.9531   9
   2   8   7 583.996 16.4903  13
  -4  -8  -7 122.536 8.68239   2
   4  -8   7 125.993 7.46710   7
   4   8   7 129.823 6.57222  13
   4   8   7 127.857 6.29450   1
  -4   8  -7 130.406 7.47687   9
   9  -9  -7 17.3433 3.22380   5
  -9  -9   7 17.0060 2.86489   7
  -9  -9   7 21.1406 3.91611  10
  -9   9   7 22.9238 4.26053   8
   9   9  -7 18.9213 3.18098  12
   7  -9  -7 675.483 19.1052  11
  -7  -9   7 705.436 19.7969   7
   7  -9  -7 661.483 19.4157   5
  -7  -9   7 676.245 20.9055  10
   7   9  -7 687.683 19.1852  12
  -7   9   7 696.090 21.2092   8
  -5  -9   7 110.911 7.15527  10
  -5  -9   7 107.289 6.23900   7
   5  -9  -7 112.100 6.14863   5
   5  -9  -7 111.334 6.07517  11
   5   9  -7 113.829 5.42841  12
  -5   9   7 115.472 7.11195   8
   3  -9  -7 1478.07 36.6779  11
   3  -9  -7 1452.72 36.1311   5
  -3  -9   7 1500.81 38.4022  10
  -3  -9   7 1489.68 36.4694   7
   3   9  -7 1596.94 36.4152   6
  -3   9   7 1544.00 38.3209   8
   1  -9  -7 136.902 6.72060   5
  -1  -9   7 147.945 8.43791  10
  -1  -9   7 157.325 7.31557   7
   1  -9  -7 145.341 8.57402   2
   1  -9  -7 152.258 7.71344  11
   1   9  -7 153.737 6.67636   6
  -1   9   7 145.992 6.45895  13
  -1   9   7 158.417 8.38353   8
  -1  -9  -7 1085.97 31.0536   2
   1  -9   7 1064.59 30.3362  10
  -1  -9  -7 1056.68 27.8254  11
   1  -9   7 1076.95 28.2822   7
   1   9   7 1056.07 26.4879  13
  -1   9  -7 1062.59 27.4961   9
  -1   9  -7 1066.16 26.6230   6
  -3  -9  -7 15.4636 3.67318   2
   3  -9   7 22.7771 3.62926   7
   3   9   7 17.5006 2.56752   1
   3   9   7 17.1094 2.40684  13
  -3   9  -7 16.4145 3.12159   9
   8 -10  -7 26.1144 3.93407   5
  -8 -10   7 29.2571 3.96795   7
  -8 -10   7 20.2816 4.09786  10
  -8  10   7 22.4014 4.07243   8
   8  10  -7 26.7278 3.58440  12
   6 -10  -7 26.9011 3.78027   5
  -6 -10   7 27.1951 4.07604  10
  -6 -10   7 30.8084 3.59846   7
   6 -10  -7 29.6870 3.64852  11
   6  10  -7 31.1123 3.69969   6
  -6  10   7 31.4641 4.63231   8
   6  10  -7 24.2927 3.16810  12
   4 -10  -7 20.6509 3.62831  11
  -4 -10   7 44.8130 5.35551  10
   4 -10  -7 23.4666 3.19049   5
  -4 -10   7 26.2349 3.67675   2
  -4 -10   7 25.9643 3.61109   7
   4  10  -7 23.0227 3.31945   6
   4  10  -7 18.8123 2.38998  12
  -4  10   7 23.8001 4.16736   8
  -2 -10   7 0.76845 1.60636  10
   2 -10  -7 1.50425 2.50741  11
   2 -10  -7 9.63140 2.21726   5
  -2 -10   7 1.54903 1.96413   7
   2 -10  -7 0.94341 2.48160   2
   2  10  -7 -0.6924 1.03121   6
  -2  10   7 -0.2070 2.25186   8
   0 -10   7 13.7427 3.72770  10
   0 -10   7 10.9232 2.69728   7
   0 -10  -7 12.0847 3.61799   2
   0 -10  -7 9.16890 2.88731  11
   0  10   7 8.26545 3.19749   8
   0  10  -7 11.8848 2.43485   6
   2 -10   7 21.7625 3.20320   7
  -2 -10  -7 26.3688 4.82639   2
   2 -10   7 24.1092 4.06605  10
  -2  10  -7 22.9262 2.99066   6
  -2  10  -7 19.9602 3.14457   9
  -5 -11   7 111.981 7.56488  10
   5 -11  -7 105.368 6.86720  11
  -5 -11   7 112.371 6.68864   7
   5 -11  -7 112.319 7.00261   5
   5  11  -7 122.327 6.64617   6
  -5  11   7 118.382 7.80446   8
   3 -11  -7 281.290 10.7907   5
  -3 -11   7 278.260 10.8591   7
  -3 -11   7 276.814 12.5162   2
  -3 -11   7 280.858 12.6071  10
   3 -11  -7 294.915 11.2666  11
   3 -11  -7 275.850 12.1775   2
  -3  11   7 281.307 12.1306   8
   3  11  -7 300.738 10.6962   6
  -1 -11   7 50.4848 5.74749  10
   1 -11  -7 45.9818 5.62555   2
   1 -11  -7 45.6312 4.93773  11
  -1 -11   7 42.7650 4.12188   7
   1 -11  -7 37.6209 3.96289   5
   1  11  -7 44.5153 4.27582   6
  -1  11   7 49.4346 5.56241   8
 -12   0   8 400.360 17.4638  14
  12   0  -8 381.327 13.7026  12
  12   0  -8 392.522 13.8444   1
  10   0  -8 39.0215 3.73263  16
  10   0  -8 39.6917 3.73821  12
 -10   0   8 38.1238 3.74651   3
  10   0  -8 31.9462 3.09026   5
  10   0  -8 37.5731 3.46268   1
 -10   0   8 31.2925 4.99575  14
   8   0  -8 1732.11 39.8546  12
  -8   0   8 1732.44 38.6465   7
   8   0  -8 1738.14 39.7464   5
  -8   0   8 1631.08 38.8747   3
   8   0  -8 1662.45 39.6709  16
  -6   0   8 296.318 8.74786   7
  -6   0   8 309.226 9.75447   4
   6   0  -8 297.043 9.37170  12
   6   0  -8 305.231 8.82399  11
   6   0  -8 302.883 9.76271   5
   6   0  -8 288.404 12.6111  15
   4   0  -8 3837.94 81.3608  11
   4   0  -8 3888.97 87.8776  15
  -4   0   8 3814.71 80.7815  13
  -4   0   8 3720.79 81.6171   4
   4   0  -8 3711.36 80.7147  12
  -4   0   8 3724.00 80.4475   7
   4   0  -8 3846.70 81.8720   5
   2   0  -8 134.479 8.42986  15
  -2   0   8 125.878 4.74708   7
   2   0  -8 138.444 5.60094  11
   2   0  -8 130.104 5.16174   5
  -2   0   8 137.189 5.62884   4
  -2   0   8 137.017 5.00972  13
   0   0  -8 2370.90 51.8183  11
   0   0   8 2307.14 50.9238  13
   0   0   8 2264.18 50.8010   7
   0   0   8 2341.94 51.9704   4
   0   0  -8 2322.49 50.5131   5
   2   0   8 32.0999 3.07565  13
   2   0   8 29.2358 3.34300   4
   2   0   8 38.4182 2.87347   7
  -2   0  -8 34.9083 3.11826  11
  -4   0  -8 985.797 27.3679   9
   4   0   8 1014.73 26.6541   4
   4   0   8 972.370 25.3043  13
  -6   0  -8 11.5690 2.68801   9
   6   0   8 20.4803 3.60908   4
   6   0   8 16.7341 3.14456  13
  11  -1  -8 2.42639 2.14235  12
 -11  -1   8 1.98890 1.88573   3
 -11  -1   8 1.85110 1.98861  14
  11  -1  -8 1.98863 1.94465   1
  11  -1  -8 0.85987 1.89895  16
  11   1  -8 2.29097 1.55152  16
  11   1  -8 1.67490 1.83405  12
  11   1  -8 0.72998 1.82813   1
 -11   1   8 2.50203 1.86017   3
 -11   1   8 12.6157 3.73586  14
  -9  -1   8 229.478 11.2020  14
   9  -1  -8 230.230 8.76771   5
   9  -1  -8 232.142 9.17241  16
  -9  -1   8 227.588 8.79426   3
  -9  -1   8 244.672 8.54821   7
   9  -1  -8 236.323 9.12996  12
   9   1  -8 240.708 9.13939  12
   9   1  -8 218.683 8.84527  16
  -9   1   8 223.877 8.46929   3
   9   1  -8 223.000 8.57268   5
   9   1  -8 230.787 8.47949   1
  -9   1   8 228.505 11.3241  14
   7  -1  -8 3.44425 1.60519  15
  -7  -1   8 3.64542 1.30665   4
   7  -1  -8 3.05381 1.47890  12
   7  -1  -8 2.79122 1.03390  11
  -7  -1   8 2.30589 1.39819   7
   7  -1  -8 2.79059 1.56806   5
  -7   1   8 1.87548 1.12862   7
   7   1  -8 3.30168 1.25017  12
   7   1  -8 1.44484 1.08500   5
  -7   1   8 4.74611 1.64150   4
   7   1  -8 9.14749 1.63968  16
   5  -1  -8 136.686 8.47425  15
  -5  -1   8 138.911 5.21655   7
   5  -1  -8 129.608 5.22700  12
  -5  -1   8 140.947 5.86911   4
   5  -1  -8 143.032 6.10606   5
   5  -1  -8 145.088 5.49421  11
   5   1  -8 142.904 5.93614   5
  -5   1   8 135.189 4.78793   7
   5   1  -8 148.231 8.54571  15
   5   1  -8 142.821 5.32598  11
   5   1  -8 130.327 5.17780  12
  -5   1   8 144.698 5.78476   4
   3  -1  -8 263.589 12.2564  15
  -3  -1   8 264.475 7.77966  13
   3  -1  -8 247.188 7.56784  12
  -3  -1   8 282.331 8.17613   7
   3  -1  -8 280.389 8.83039   5
   3  -1  -8 270.188 8.72530   2
  -3  -1   8 272.030 8.71239   4
   3  -1  -8 281.748 8.78771  11
   3   1  -8 256.890 7.38394  12
  -3   1   8 278.494 8.69559   4
  -3   1   8 271.117 8.14968  13
   3   1  -8 274.929 8.60782   5
   3   1  -8 278.595 8.57139  11
   3   1  -8 281.270 12.4257  15
  -3   1   8 265.453 7.51024   7
   1  -1  -8 2.36961 1.42535   2
  -1  -1   8 4.06557 1.51136   4
  -1  -1   8 3.60052 1.22614   7
   1  -1  -8 4.35793 2.23996  15
   1  -1  -8 2.52159 1.01145   5
   1  -1  -8 5.04901 1.53605  11
  -1  -1   8 4.58922 1.20112  13
  -1   1   8 2.79816 1.32884   4
   1   1  -8 5.89672 1.40555  11
  -1   1   8 3.48702 0.95377   7
   1   1  -8 9.23928 1.52758   5
  -1   1   8 6.02588 1.45352  13
  -1  -1  -8 287.176 11.3864   2
   1  -1   8 277.605 9.63245   4
  -1  -1  -8 279.659 13.0348  15
   1  -1   8 271.212 9.01542   7
   1  -1   8 276.214 8.74610  13
  -1  -1  -8 277.926 9.39104  11
   1   1   8 284.385 9.50827   4
   1   1   8 288.326 9.00414  13
  -1   1  -8 294.831 9.45542  11
   1   1   8 287.998 8.61437   7
  -3  -1  -8 48.0960 3.58236  11
   3  -1   8 42.9930 4.20109   4
   3  -1   8 43.6402 3.30540  13
   3   1   8 47.5802 3.61108  13
  -3   1  -8 42.8156 4.36782   9
   3   1   8 42.7436 3.74901   4
  -3   1  -8 43.0187 3.46675  11
   5  -1   8 20.4985 2.86907  13
  -5  -1  -8 21.4875 3.73922   9
   5  -1   8 17.8625 3.40222   4
   5   1   8 22.6317 3.21348   4
  -5   1  -8 25.9810 4.00071   9
   5   1   8 19.5238 2.83795  13
 -12  -2   8 178.660 10.9568  14
  12  -2  -8 178.462 8.68334   1
 -12  -2   8 162.490 8.78794   3
  12  -2  -8 174.546 8.36730  12
  12   2  -8 184.142 8.83932  12
 -12   2   8 189.049 11.5361  14
 -12   2   8 177.234 8.87271   3
  12   2  -8 165.361 8.21253   1
 -10  -2   8 1118.41 32.1465  14
 -10  -2   8 1122.40 28.9575   3
  10  -2  -8 1113.28 28.6601  12
  10  -2  -8 1085.34 29.2543  16
  10  -2  -8 1119.86 28.0301   5
 -10  -2   8 1126.96 27.9319   7
  10   2  -8 1129.78 27.9441   5
  10   2  -8 1109.27 28.0366   1
 -10   2   8 1117.53 32.7571  14
  10   2  -8 1125.67 28.7591  12
  10   2  -8 1081.50 28.7337  16
 -10   2   8 1128.70 28.5013   3
   8  -2  -8 105.204 5.46018   5
   8  -2  -8 109.427 5.65734  12
  -8  -2   8 106.428 5.27758   7
   8   2  -8 101.172 5.19470  16
  -8   2   8 113.130 7.38440  14
   8   2  -8 109.653 5.40495   5
   8   2  -8 97.1605 4.77825   1
   8   2  -8 105.491 5.36013  12
   6  -2  -8 917.888 22.7554   5
  -6  -2   8 862.631 22.1068   4
  -6  -2   8 880.558 21.5186   7
   6  -2  -8 892.994 21.5317  11
   6  -2  -8 894.066 27.1119  15
   6  -2  -8 883.017 21.9039  12
   6   2  -8 870.071 21.2238  16
  -6   2   8 894.260 22.1805   4
   6   2  -8 882.669 21.8029  12
   6   2  -8 891.443 21.1053  11
   6   2  -8 911.910 22.4175   5
  -6   2   8 873.235 21.5136   8
  -4  -2   8 112.196 5.04045   4
  -4  -2   8 110.859 4.63264  10
   4  -2  -8 109.344 5.05614  11
   4  -2  -8 108.833 5.36400   5
   4  -2  -8 110.899 7.71087  15
  -4  -2   8 109.670 4.72535   7
  -4   2   8 107.160 4.56196  13
  -4   2   8 115.094 4.94916   4
   4   2  -8 112.750 4.72780  11
  -4   2   8 113.591 4.76440   8
   4   2  -8 134.053 5.43153   5
   4   2  -8 105.037 4.20085  12
   2  -2  -8 905.259 22.1426  11
   2  -2  -8 844.805 21.6223   5
   2  -2  -8 892.189 22.8383   2
  -2  -2   8 891.250 22.0147   4
   2  -2  -8 872.263 27.3793  15
  -2  -2   8 897.722 21.5407   7
  -2  -2   8 887.142 20.6764  13
   2   2  -8 900.167 21.8078  11
  -2   2   8 910.402 21.8052   4
   2   2  -8 898.580 21.6177   5
  -2   2   8 880.848 21.3335  13
   0  -2   8 472.184 12.6796  13
   0  -2   8 496.803 14.2004   4
   0  -2  -8 486.884 15.5536   2
   0  -2   8 489.610 13.5861   7
   0  -2  -8 482.764 18.4372  15
   0  -2  -8 507.191 14.1559  11
   0   2  -8 492.266 13.7805  11
   0   2   8 497.672 13.7842   4
   0   2  -8 515.687 14.5815   9
   0   2   8 491.714 13.3252  13
   0   2  -8 473.407 12.7458   5
  -2  -2  -8 904.676 25.9879   2
   2  -2   8 903.694 23.6472   4
  -2  -2  -8 786.484 27.2386  15
  -2  -2  -8 915.914 22.8627  11
   2  -2   8 875.356 21.9898  13
   2  -2   8 914.396 23.1208   7
  -2   2  -8 921.094 22.7181  11
   2   2   8 922.512 23.1600   4
  -2   2  -8 910.790 24.3343   9
   2   2   8 925.050 22.7764  13
   4  -2   8 524.655 16.7337   4
   4  -2   8 550.994 15.3795  13
   4   2   8 512.001 15.5948  13
  -4   2  -8 515.051 17.0708   9
   4   2   8 516.115 15.9187   4
 -11  -3   8 1.99074 1.89830   7
 -11  -3   8 0.56765 1.81123  14
  11  -3  -8 2.22072 2.06615  12
 -11  -3   8 0.04512 1.91308   3
  11  -3  -8 3.85146 1.80501   5
  11   3  -8 3.27255 1.54750   1
  11   3  -8 1.71511 2.02119  16
  11   3  -8 1.49143 1.97123  12
 -11   3   8 7.89668 3.61496  14
   9  -3  -8 97.3498 5.68867  12
  -9  -3   8 91.9859 5.11774   7
   9  -3  -8 98.0349 5.33143   5
  -9   3   8 94.1268 7.41322  14
   9   3  -8 89.3458 5.21184   5
   9   3  -8 86.4592 5.21576  12
   9   3  -8 91.5348 4.75295   1
   9   3  -8 92.8830 5.32613  16
  -7  -3   8 22.6565 2.75049   7
   7  -3  -8 21.7612 2.04639  11
   7  -3  -8 16.5392 3.46799  15
   7  -3  -8 21.4512 2.78940   5
   7  -3  -8 18.9533 2.42728  12
  -7  -3   8 19.0292 2.59403   4
   7   3  -8 18.8570 2.24868  16
   7   3  -8 20.2297 2.48875  12
   7   3  -8 17.6917 2.43800   5
   7   3  -8 19.9623 2.11916   1
  -7   3   8 20.3447 2.27315   8
  -7   3   8 22.9089 3.41712  14
   5  -3  -8 6.88293 1.67488   5
  -5  -3   8 6.44522 1.70382   7
  -5  -3   8 9.51882 1.94132   4
   5  -3  -8 10.9134 2.03967  11
  -5  -3   8 5.93245 1.32952  10
   5  -3  -8 10.7618 2.85424  15
   5   3  -8 6.03581 1.24580  12
  -5   3   8 6.69692 1.45556   4
   5   3  -8 7.09675 1.45904  11
   5   3  -8 7.85795 1.77339   5
  -5   3   8 7.64720 1.68698   8
  -3  -3   8 19.6177 2.33467   4
  -3  -3   8 19.8250 2.16640  10
   3  -3  -8 33.6540 2.80156   5
   3  -3  -8 19.7777 2.36459   2
  -3  -3   8 19.4094 2.22659   7
   3  -3  -8 21.5240 3.95131  15
  -3  -3   8 22.4464 1.76679  13
   3  -3  -8 17.5882 2.52216  11
   3   3  -8 17.9744 2.25131   5
   3   3  -8 22.6056 2.46193  11
  -3   3   8 22.0549 2.34589   4
  -3   3   8 21.9665 2.08070  13
   3   3  -8 22.0716 1.93207   9
  -1  -3   8 103.790 4.05566  13
   1  -3  -8 106.992 5.42908  11
  -1  -3   8 106.421 5.02678   7
   1  -3  -8 105.250 7.86725  15
   1  -3  -8 103.795 4.77982   5
  -1  -3   8 112.536 5.35983   4
   1  -3  -8 109.822 6.10349   2
   1   3  -8 112.072 4.11496   6
   1   3  -8 117.810 5.40940   9
   1   3  -8 106.741 4.59612   5
  -1   3   8 107.264 4.72402  13
   1   3  -8 106.442 4.90455  11
  -1   3   8 108.724 4.87622   4
  -1  -3  -8 12.2645 2.08727  11
   1  -3   8 12.3957 2.40254   4
   1  -3   8 11.6520 1.72955  13
  -1  -3  -8 11.6910 2.90674   2
  -1  -3  -8 12.0067 3.10398  15
   1   3   8 11.0853 2.07072  13
  -1   3  -8 10.7814 2.30055   9
   1   3   8 12.3406 2.15158   4
   1   3   8 11.2433 1.62366   1
  -1   3  -8 12.6574 2.17868  11
  -3  -3  -8 35.3709 3.23110  11
   3  -3   8 43.9450 3.77991   7
   3  -3   8 41.3865 3.28050  13
   3  -3   8 45.3409 4.37174   4
  -3  -3  -8 32.2998 4.81248   2
   3   3   8 37.0762 3.62515   4
  -3   3  -8 37.2837 4.13912   9
   3   3   8 36.9005 3.72692  13
   5  -3   8 27.5472 3.46261   7
  -5  -3  -8 37.7852 4.77255   9
   5  -3   8 17.9497 4.16268  13
   5  -3   8 30.1138 4.02342   4
   5   3   8 31.9910 3.41338   4
  -5   3  -8 27.3318 4.30103   9
   5   3   8 29.3356 3.60080  13
 -12  -4   8 1.17694 1.88040  14
  12  -4  -8 4.33005 2.34132  12
  12  -4  -8 4.78803 2.60743   1
 -12  -4   8 3.59703 2.38824   3
 -12   4   8 2.02645 3.09981  14
  12   4  -8 4.13453 1.98273   1
  12   4  -8 7.07248 2.41482  12
  10  -4  -8 910.034 24.0269   5
  10  -4  -8 906.447 25.2450  16
  10  -4  -8 960.497 24.8388  12
 -10  -4   8 928.255 24.3539   7
 -10  -4   8 899.059 27.6335  14
  10   4  -8 876.683 23.4699   1
  10   4  -8 942.618 24.9903  12
 -10   4   8 925.660 25.0887   8
  10   4  -8 903.891 23.9112   5
 -10   4   8 961.167 29.5381  14
  -8  -4   8 73.9154 4.83895   7
   8  -4  -8 69.9491 4.41975  12
   8  -4  -8 72.2028 4.89703   5
  -8   4   8 69.0704 5.72337  14
   8   4  -8 66.9544 4.27038   5
  -8   4   8 64.2914 4.55058   8
   8   4  -8 67.4882 4.54282  12
  -6  -4   8 2232.41 50.8018  10
  -6  -4   8 2298.71 51.4048   4
   6  -4  -8 2350.63 52.0306   5
  -6  -4   8 2290.89 51.2124   7
   6  -4  -8 2293.91 50.8651  11
   6  -4  -8 2272.58 57.6285  15
   6   4  -8 2254.55 50.8520  12
  -6   4   8 2296.63 53.8444  14
   6   4  -8 2274.80 51.5470   5
  -6   4   8 2303.85 51.7127   8
  -6   4   8 2315.06 51.1634   4
   4  -4  -8 329.019 10.4555   5
  -4  -4   8 320.514 10.1122  10
   4  -4  -8 324.464 14.5795  15
   4  -4  -8 330.349 10.3547  11
  -4  -4   8 340.414 10.3612   4
  -4  -4   8 332.847 10.2573   7
  -4   4   8 319.958 10.7585  14
  -4   4   8 319.659 9.85338  13
  -4   4   8 332.328 9.85193   4
  -4   4   8 338.877 10.6231   8
   4   4  -8 317.568 9.21624  12
   4   4  -8 318.021 10.1449   5
   2  -4  -8 1987.06 53.4653  15
  -2  -4   8 2045.03 46.8786   7
  -2  -4   8 2066.03 46.9728   4
   2  -4  -8 2087.27 48.1865   2
   2  -4  -8 1996.14 46.7459   5
   2  -4  -8 2152.15 47.5308  11
  -2   4   8 2107.71 46.3177   4
   2   4  -8 2120.74 46.6790   9
  -2   4   8 2138.43 46.5744  13
   2   4  -8 2132.59 46.7719   5
   0  -4   8 108.595 5.66631   4
   0  -4  -8 139.378 9.36815  15
   0  -4  -8 109.668 6.65973   2
   0  -4  -8 110.233 5.67658  11
   0  -4   8 107.204 5.57140   7
   0   4  -8 106.574 4.75656   5
   0   4  -8 105.451 5.44525   9
   0   4   8 108.335 4.98528   4
   0   4   8 112.744 5.12602  13
  -2  -4  -8 691.305 19.2153  11
   2  -4   8 734.984 20.1458   4
   2  -4   8 715.096 19.8370   7
  -2  -4  -8 723.545 22.7445   2
  -2   4  -8 712.241 20.3207   9
   2   4   8 714.094 19.0674  13
   2   4   8 717.381 18.8983   4
   2   4   8 705.844 17.8138   1
   4  -4   8 20.9327 3.41433   7
  -4  -4  -8 19.2168 4.30650   2
   4  -4   8 29.7819 4.05122   4
   4   4   8 15.5432 2.40823   4
   4   4   8 18.6333 2.81109  13
  -4   4  -8 17.9046 3.12616   9
  11  -5  -8 253.326 10.3350  12
  11  -5  -8 254.284 9.69598   5
 -11  -5   8 260.268 12.7020  14
 -11  -5   8 241.012 10.1146   7
 -11   5   8 287.045 14.5338  14
  11   5  -8 272.500 10.9475  12
 -11   5   8 269.690 11.2381   8
   9  -5  -8 79.7375 4.99231   5
  -9  -5   8 74.5867 5.20067   7
   9  -5  -8 69.3355 5.05605  12
  -9   5   8 77.9873 7.01904  14
   9   5  -8 70.2012 4.56994   5
   9   5  -8 66.5582 4.66447  12
  -9   5   8 72.9824 5.33702   8
  -7  -5   8 391.948 12.2920   7
   7  -5  -8 395.143 12.4746   5
  -7  -5   8 384.686 12.0414  10
  -7  -5   8 395.013 12.0575   4
   7  -5  -8 384.663 11.5446  11
   7  -5  -8 363.024 18.0701  15
  -7   5   8 388.397 12.6834   8
   7   5  -8 388.977 11.9793  12
  -7   5   8 416.765 14.7126  14
   7   5  -8 398.656 12.4466   5
  -5  -5   8 162.064 6.79069  10
  -5  -5   8 162.138 6.49975   4
   5  -5  -8 168.625 7.25794   5
  -5  -5   8 166.223 6.88927   7
   5  -5  -8 164.548 6.65760  11
   5  -5  -8 154.314 9.70736  15
   5   5  -8 158.543 6.80181   5
  -5   5   8 168.670 7.54138  14
   5   5  -8 159.299 6.11726  12
  -5   5   8 162.567 7.08825   8
  -5   5   8 174.398 6.42607   4
   3  -5  -8 73.7667 4.57671   5
  -3  -5   8 75.9428 4.68323  10
   3  -5  -8 76.4273 4.51483  11
   3  -5  -8 69.1674 7.05163  15
  -3  -5   8 78.3335 4.40407   4
   3  -5  -8 69.9436 4.51971   2
  -3  -5   8 81.4128 4.48377   7
  -3   5   8 78.6373 3.94414   4
   3   5  -8 75.4184 4.31646   5
  -3   5   8 79.3266 4.30008  13
  -3   5   8 75.0712 4.52995   8
   1  -5  -8 231.669 12.7567  15
  -1  -5   8 242.828 8.81387   7
   1  -5  -8 241.227 9.93920   2
   1  -5  -8 228.448 8.19636   5
  -1  -5   8 229.640 8.44547   4
   1  -5  -8 246.463 9.10596  11
   1   5  -8 249.871 8.63298   9
  -1   5   8 250.720 8.28134  13
   1   5  -8 244.889 8.25638   5
  -1   5   8 235.055 7.75000   4
   1   5  -8 233.115 7.60188   6
   1  -5   8 3.00289 1.79656   7
  -1  -5  -8 6.06281 2.03031  11
  -1  -5  -8 5.48049 2.50671   2
   1  -5   8 8.26701 1.93740   4
  -1   5  -8 6.08341 1.93821   9
   1   5   8 5.58020 1.94238  13
   1   5   8 7.90995 1.70891   1
   3  -5   8 37.1546 4.14072   7
  -3  -5  -8 32.4913 5.02291   2
  -3  -5  -8 36.9326 3.34611  11
   3  -5   8 33.9268 3.64995   4
   3   5   8 43.8237 4.18997  13
   3   5   8 39.0570 3.26371   1
  -3   5  -8 38.2778 3.88896   9
   5  -5   8 22.7593 3.46402   4
   5  -5   8 22.4591 3.75669   7
  -5  -5  -8 24.2092 4.63861   2
   5   5   8 22.0213 3.29383  13
  -5   5  -8 20.0268 3.27586   9
 -10  -6   8 46.4437 4.56090   7
  10  -6  -8 47.1604 4.06170   5
  10  -6  -8 48.1100 4.14536  12
 -10  -6   8 45.9753 5.63877  14
  10   6  -8 50.4389 4.59114  12
 -10   6   8 47.8085 5.04010   8
  10   6  -8 47.4477 4.01582   5
 -10   6   8 53.2901 6.45576  14
   8  -6  -8 1121.62 28.4781   5
  -8  -6   8 1110.94 28.5933  10
  -8  -6   8 1136.83 28.4768   7
   8   6  -8 1146.59 28.5118   5
  -8   6   8 1146.21 29.5460   8
   8   6  -8 1107.72 28.2725  12
  -8   6   8 1130.49 31.9797  14
   6  -6  -8 1.80980 1.90014   5
  -6  -6   8 14.9093 2.63052   7
   6  -6  -8 7.78835 2.23925  11
  -6  -6   8 4.98587 1.66637   4
  -6   6   8 5.31849 2.09085   8
  -6   6   8 7.51046 2.25118  14
   6   6  -8 6.43286 1.68102  12
  -4  -6   8 1231.42 29.7010   4
  -4  -6   8 1205.19 30.6808  10
  -4  -6   8 1275.72 30.3608   7
   4  -6  -8 1226.17 30.3114   5
   4  -6  -8 1288.51 30.4227  11
   4   6  -8 1217.26 28.7391  12
   4   6  -8 1257.37 30.2283   5
  -4   6   8 1261.36 31.1155   8
  -2  -6   8 11.6518 2.51008  10
   2  -6  -8 9.87929 2.53245  11
   2  -6  -8 10.5787 2.21746   5
  -2  -6   8 8.63926 1.73464   4
   2  -6  -8 7.35474 2.24716   2
  -2  -6   8 8.11780 2.09611   7
   2   6  -8 12.4310 2.18849   5
  -2   6   8 8.28806 1.85098  13
   0  -6   8 1379.89 33.0777   4
   0  -6  -8 1348.91 35.4940   2
   0  -6  -8 1345.90 33.3416  11
   0  -6   8 1405.85 33.6403   7
   0   6   8 1376.34 32.4088  13
   0   6  -8 1378.74 33.1939   9
   0   6  -8 1321.41 31.5201   6
  -2  -6  -8 73.6561 4.70231  11
  -2  -6  -8 89.9548 7.11619   2
   2  -6   8 87.4241 5.57497   4
   2  -6   8 74.7323 5.52407   7
  -2   6  -8 74.3844 5.10542   9
   2   6   8 80.5144 4.51776   1
   2   6   8 78.4041 5.04429  13
  -4  -6  -8 982.928 30.2827   2
   4  -6   8 952.713 26.4022   4
   4  -6   8 951.456 26.6734   7
  -4   6  -8 965.315 27.0185   9
   4   6   8 946.480 25.2302  13
  -9  -7   8 13.1481 2.97971   7
   9  -7  -8 4.88927 2.28518   5
  -9  -7   8 4.99705 2.98685  10
  -9   7   8 8.49366 2.94137   8
   9   7  -8 6.36835 2.04196   5
  -9   7   8 11.8240 3.53589  14
   9   7  -8 4.19303 1.74100  12
  -7  -7   8 53.4183 4.62252   7
   7  -7  -8 62.6998 4.92411   5
   7  -7  -8 47.7472 4.03765  11
  -7  -7   8 49.5647 4.23711  10
  -7   7   8 51.8947 4.88136   8
   7   7  -8 55.4374 4.36349   5
   7   7  -8 51.8995 4.01184  12
  -7   7   8 55.8809 5.26123  14
   5  -7  -8 16.9522 2.90778   5
  -5  -7   8 22.9520 3.16973   7
   5  -7  -8 22.8558 3.27793  11
  -5  -7   8 18.0941 3.07116  10
   5   7  -8 20.2923 2.53629  12
  -5   7   8 30.8074 4.02832   8
   5   7  -8 16.2906 2.47250   5
   3  -7  -8 26.9012 3.31594   5
   3  -7  -8 26.9442 3.54633  11
   3  -7  -8 25.2991 3.45828   2
  -3  -7   8 24.5164 3.00358   7
  -3  -7   8 23.5937 2.83758   4
  -3  -7   8 22.8407 3.45066  10
  -3   7   8 21.3461 3.47850   8
   3   7  -8 24.8146 2.96617   5
  -3   7   8 26.7970 2.97544  13
   1  -7  -8 161.448 7.38660  11
   1  -7  -8 160.478 6.99380   5
   1  -7  -8 168.971 8.62318   2
  -1  -7   8 164.524 8.47390  10
  -1  -7   8 159.351 7.32020   7
  -1  -7   8 160.408 6.81369   4
   1   7  -8 162.753 6.91119   9
  -1   7   8 185.526 7.11495  13
   1   7  -8 160.227 6.51560   6
  -1  -7  -8 19.8937 4.01665   2
   1  -7   8 14.5172 2.64244   4
  -1  -7  -8 19.1423 2.77012  11
   1  -7   8 18.2070 3.09068   7
   1   7   8 16.7804 2.63693  13
  -1   7  -8 15.4172 2.83143   9
  -1   7  -8 14.7862 2.71270   6
  -3  -7  -8 106.281 8.26049   2
   3  -7   8 104.819 6.53752   7
   3   7   8 106.959 5.61303   1
   3   7   8 103.630 5.69823  13
  -3   7  -8 102.106 6.63832   9
  -8  -8   8 579.817 17.4537   7
  -8  -8   8 563.239 17.8488  10
   8  -8  -8 565.983 17.1389   5
  -8   8   8 579.511 18.5567   8
   8   8  -8 576.503 17.1279   5
   8   8  -8 571.807 16.8626  12
  -6  -8   8 286.268 11.4620  10
   6  -8  -8 296.249 10.5446  11
   6  -8  -8 293.723 10.9278   5
  -6  -8   8 308.742 11.0428   7
   6   8  -8 290.933 9.92963  12
  -6   8   8 301.034 11.7601   8
   6   8  -8 298.326 10.7683   5
   4  -8  -8 825.203 22.0798  11
  -4  -8   8 805.633 23.0316  10
  -4  -8   8 827.349 22.2411   7
   4  -8  -8 800.568 21.8713   5
  -4   8   8 821.627 23.1363   8
   4   8  -8 831.435 22.0208   5
   2  -8  -8 370.083 13.6211   2
   2  -8  -8 370.322 12.6578  11
  -2  -8   8 373.966 12.5373   7
   2  -8  -8 347.593 11.6652   5
  -2  -8   8 358.890 13.5662  10
   2   8  -8 373.552 11.8021   6
  -2   8   8 369.872 11.6762  13
  -2   8   8 383.911 13.5624   8
   0  -8  -8 458.110 14.5573  11
   0  -8   8 451.691 16.2973  10
   0  -8  -8 448.955 16.3546   2
   0  -8   8 488.471 15.3491   7
   0   8   8 453.583 13.7195  13
   0   8  -8 461.486 14.3490   9
   0   8  -8 451.572 13.4699   6
   2  -8   8 179.103 8.66115   7
  -2  -8  -8 178.404 8.08733  11
  -2  -8  -8 195.888 10.9489   2
   2   8   8 185.581 7.70617  13
  -2   8  -8 185.134 8.73803   9
  -7  -9   8 4.31867 2.74652  10
   7  -9  -8 -0.6563 1.86496  11
   7  -9  -8 1.22502 1.61046   5
  -7  -9   8 3.15343 1.83887   7
  -7   9   8 1.80261 2.36826   8
   7   9  -8 0.75396 1.60321  12
  -5  -9   8 23.3604 3.77402  10
   5  -9  -8 24.7417 3.24514  11
   5  -9  -8 24.1020 3.52162   5
  -5  -9   8 28.8713 3.83990   7
   5   9  -8 26.8318 2.96547  12
  -5   9   8 32.0371 4.45327   8
   3  -9  -8 35.6292 3.67727   5
   3  -9  -8 36.2805 4.39794   2
  -3  -9   8 38.8948 4.93438  10
  -3  -9   8 38.9767 4.33163   7
   3  -9  -8 42.4898 4.34005  11
   3   9  -8 44.5645 4.27169   6
  -3   9   8 36.3368 4.82870   8
   1  -9  -8 13.5398 2.46274   5
  -1  -9   8 14.7847 3.45885  10
  -1  -9   8 18.3836 3.27224   7
   1  -9  -8 16.4188 3.45422  11
   1  -9  -8 14.6883 3.53802   2
  -1   9   8 13.9436 2.48178  13
  -1   9   8 11.4740 3.24294   8
   1   9  -8 15.7798 2.61342   6
   1  -9   8 55.8851 5.19391   7
  -1  -9  -8 59.3435 5.00081  11
  -1  -9  -8 67.5080 6.26315   2
  -1   9  -8 65.6703 4.94341   9
  -1   9  -8 63.4642 4.32085   6
   1   9   8 55.4658 4.00241  13
   6 -10  -8 640.420 18.7939  11
  -6 -10   8 657.786 19.2596   7
  -6 -10   8 661.021 20.7315  10
   6 -10  -8 633.479 19.1722   5
   6  10  -8 662.865 18.9580   6
   6  10  -8 632.430 18.0789  12
  -6  10   8 696.370 21.1404   8
  -4 -10   8 16.8740 3.28129  10
   4 -10  -8 16.6873 3.16794   5
  -4 -10   8 17.9442 3.21947   2
  -4 -10   8 14.9227 2.73878   7
   4 -10  -8 15.9626 3.32088  11
  -4  10   8 17.1898 3.84497   8
   4  10  -8 24.2778 3.44765   6
   2 -10  -8 786.242 22.2036  11
   2 -10  -8 777.104 21.6901   5
  -2 -10   8 812.984 22.6507   7
   2 -10  -8 791.466 23.9249   2
  -2 -10   8 752.970 23.9828  10
   2  10  -8 823.073 21.8508   6
  -2  10   8 841.703 24.5030   8
   0 -10   8 13.2628 2.66557   7
   0 -10  -8 9.59765 2.47155  11
   0 -10  -8 11.2983 3.04902   2
   0 -10   8 11.3729 3.35300  10
   0  10   8 13.3944 2.48792  13
   0  10  -8 9.02649 1.97182   6
   0  10   8 10.5956 3.43088   8
   5 -11  -8 56.7224 4.75970   5
   5 -11  -8 51.3816 4.60377  11
  -5 -11   8 58.7487 5.67895  10
  -5 -11   8 57.2648 5.21506   7
  -5  11   8 57.5630 5.83383   8
   5  11  -8 58.3844 4.57017   6
  -3 -11   8 40.7142 4.47942   7
   3 -11  -8 44.4361 4.16836   5
  -3 -11   8 36.8542 5.06422  10
   3 -11  -8 49.9296 4.58564  11
  -3  11   8 53.5851 5.68936   8
   3  11  -8 49.4192 4.50835   6
 -12   0   9 -0.4836 2.53959  14
  12   0  -9 -1.5112 1.80343   1
  12   0  -9 1.26946 1.98655  12
 -10   0   9 0.74434 1.74282  14
  10   0  -9 2.62899 1.91148  16
  10   0  -9 2.93055 1.67921   1
  10   0  -9 -1.2132 1.59241  12
  10   0  -9 3.95137 1.85508   5
 -10   0   9 3.60232 1.78658   7
   8   0  -9 0.01017 1.24554  16
   8   0  -9 1.52659 1.57209  12
   8   0  -9 -1.1391 1.33601   5
  -8   0   9 -0.9634 1.20973   7
   6   0  -9 2.64877 1.11417  12
   6   0  -9 -0.6131 1.38133   5
   6   0  -9 2.23228 1.89488  15
  -6   0   9 1.64092 1.20637   4
  -6   0   9 1.03247 1.11833   7
   6   0  -9 1.63852 1.06665  11
   4   0  -9 0.25763 1.60281  15
  -4   0   9 0.61604 1.05391  13
   4   0  -9 2.25090 1.25321  11
  -4   0   9 0.61614 0.95686   7
   4   0  -9 1.23219 0.98893   5
  -4   0   9 0.73883 0.98132   4
   4   0  -9 0.71024 0.86221  12
  -2   0   9 -0.3362 0.77897   7
  -2   0   9 -0.1578 0.96709  13
  -2   0   9 1.42362 1.03913   4
   2   0  -9 0.06678 1.12015  11
   2   0  -9 0.61652 1.23879  15
   0   0   9 -0.2658 0.82875  13
   0   0  -9 1.51204 1.12945  11
   0   0   9 1.38702 1.53559   4
   0   0   9 1.09150 1.13632   7
   2   0   9 0.49584 1.21426   4
  -2   0  -9 1.05270 0.99538  11
   2   0   9 5.76697 1.58760  13
  -2   0  -9 1.17208 1.80528   9
   2   0   9 2.51332 1.36270   7
   4   0   9 -0.4967 1.90420   4
   4   0   9 1.07429 1.55269   7
  -4   0  -9 0.41822 1.31815   9
   4   0   9 -0.5206 1.60632  13
 -11  -1   9 275.533 13.5975  14
  11  -1  -9 251.674 10.2229   1
  11  -1  -9 270.243 10.8745  12
 -11  -1   9 276.385 10.7037   3
  11  -1  -9 272.456 10.2706   5
  11   1  -9 247.657 11.9090  16
  11   1  -9 275.151 10.1560   5
 -11   1   9 281.718 13.9466  14
  11   1  -9 279.439 11.1131  12
  11   1  -9 276.935 10.4165   1
  -9  -1   9 581.901 15.5692   7
  -9  -1   9 456.463 16.7550   3
   9  -1  -9 566.810 16.5133  12
   9  -1  -9 532.991 16.3368  16
   9  -1  -9 582.871 16.4493   5
  -9   1   9 556.220 19.2442  14
   9   1  -9 572.227 16.5418  12
   9   1  -9 544.486 15.4144   1
   9   1  -9 558.812 16.3099   5
   9   1  -9 512.675 15.7994  16
  -9   1   9 558.076 14.8828   7
   7  -1  -9 484.518 13.4766  11
  -7  -1   9 508.025 14.7460   4
   7  -1  -9 502.073 14.9406   5
  -7  -1   9 512.731 13.8659   7
   7  -1  -9 507.316 18.9388  15
   7  -1  -9 493.969 14.4672  12
   7   1  -9 515.922 14.9850   5
  -7   1   9 505.212 14.6300   4
   7   1  -9 509.722 14.4144  12
   7   1  -9 497.346 14.0447  16
  -7   1   9 502.608 13.2325   7
  -5  -1   9 826.375 19.8760   7
   5  -1  -9 840.485 20.5763  11
  -5  -1   9 806.243 20.8691   4
   5  -1  -9 773.665 19.9116  12
   5  -1  -9 808.386 26.1906  15
   5  -1  -9 831.750 21.3079   5
   5   1  -9 789.453 19.8424  12
   5   1  -9 815.612 20.3152  11
  -5   1   9 822.550 20.7717   4
   5   1  -9 826.260 21.1330   5
  -5   1   9 792.523 19.1158   7
  -3  -1   9 626.817 16.0278   7
   3  -1  -9 650.591 17.1517  11
   3  -1  -9 621.644 16.8410   5
  -3  -1   9 637.221 17.0152   4
  -3  -1   9 612.586 15.7281  13
   3  -1  -9 630.801 22.5053  15
  -3   1   9 608.451 15.3153   7
  -3   1   9 635.887 16.8677   4
  -3   1   9 625.429 16.1065  13
   3   1  -9 637.094 16.8524   5
   3   1  -9 656.805 16.9844  11
   1  -1  -9 520.717 15.0396  11
  -1  -1   9 514.980 13.6948  13
  -1  -1   9 514.076 14.9395   4
  -1  -1   9 521.025 14.1096   7
   1  -1  -9 524.899 14.1109   5
   1  -1  -9 519.401 19.9574  15
   1   1  -9 530.624 14.8918  11
  -1   1   9 524.549 14.7631   4
  -1   1   9 528.445 14.0956  13
   1   1  -9 516.167 13.9906   5
   1  -1   9 525.822 15.5878   4
  -1  -1  -9 510.171 15.0257  11
   1  -1   9 502.788 14.4558   7
   1  -1   9 507.782 14.1128  13
   1   1   9 491.553 14.2709  13
  -1   1  -9 505.323 16.1250   9
   1   1   9 539.674 15.4170   4
   1   1   9 490.959 13.7580   7
  -1   1  -9 507.018 14.9032  11
   3  -1   9 233.120 8.61185  13
   3  -1   9 230.127 9.80036   4
  -3  -1  -9 226.059 10.4493   9
   3  -1   9 222.792 8.77006   7
  -3  -1  -9 240.025 8.87467  11
   3   1   9 218.096 8.79665  13
   3   1   9 233.063 9.58327   4
  -3   1  -9 214.244 10.1013   9
  -3   1  -9 231.164 8.74561  11
   5  -1   9 323.752 11.3639  13
 -12  -2   9 112.792 8.95823  14
  12  -2  -9 113.633 6.71985  12
  12  -2  -9 127.402 7.22309   1
  12   2  -9 121.159 7.20577  12
 -12   2   9 109.426 9.36451  14
  12   2  -9 110.022 6.49629   1
 -10  -2   9 97.5699 5.59367   7
  10  -2  -9 104.210 6.01397   5
  10  -2  -9 100.112 6.32272  16
 -10  -2   9 110.083 7.84264  14
 -10  -2   9 94.4743 5.75917   3
  10  -2  -9 94.0009 6.05115  12
  10   2  -9 103.027 6.25484  12
  10   2  -9 94.9191 5.27388   1
  10   2  -9 87.4181 5.70363  16
  10   2  -9 102.092 5.64599   5
 -10   2   9 97.5999 7.98792  14
  -8  -2   9 187.444 7.25019   7
   8  -2  -9 191.748 8.16021   5
   8  -2  -9 174.722 7.62109  12
  -8  -2   9 184.902 7.79494   4
   8   2  -9 184.518 6.86389   1
   8   2  -9 195.054 8.04162   5
  -8   2   9 186.401 9.77725  14
   8   2  -9 191.427 7.86251  12
  -6  -2   9 237.915 8.00782   7
   6  -2  -9 233.923 8.34708  12
   6  -2  -9 237.421 12.3680  15
   6  -2  -9 239.811 8.29284  11
   6  -2  -9 257.638 9.20685   5
  -6  -2   9 238.913 8.74654   4
   6   2  -9 250.742 8.34653  12
  -6   2   9 245.696 8.62968   4
   6   2  -9 242.256 8.86744   5
   6   2  -9 250.266 8.00237  11
  -4  -2   9 170.765 7.00112   4
   4  -2  -9 186.129 7.09107  11
   4  -2  -9 176.673 10.6961  15
  -4  -2   9 170.786 6.44833   7
   4  -2  -9 153.837 5.95354  12
   4  -2  -9 179.347 7.14110   5
  -4   2   9 180.607 6.58753  13
  -4   2   9 176.391 6.85394   4
   4   2  -9 173.365 6.86669   5
   4   2  -9 175.154 6.69900  11
  -4   2   9 168.068 6.33376   8
   2  -2  -9 278.292 10.2270   2
   2  -2  -9 274.282 13.8465  15
  -2  -2   9 275.651 9.01557   7
  -2  -2   9 291.677 9.74580   4
  -2  -2   9 287.921 8.36301  13
   2  -2  -9 293.014 9.89394  11
   2  -2  -9 281.869 9.30874   5
   2   2  -9 280.907 9.45972  11
  -2   2   9 287.846 9.37399   4
  -2   2   9 286.537 9.06091  13
   2   2  -9 276.132 9.05326   5
   0  -2  -9 199.334 8.04201  11
   0  -2  -9 195.197 9.30704   2
   0  -2   9 192.180 7.57922   7
   0  -2  -9 187.505 11.2141  15
   0  -2   9 202.014 8.11207   4
   0  -2   9 198.167 6.91106  13
   0   2   9 192.824 7.39878  13
   0   2  -9 215.807 8.61122   9
   0   2  -9 198.244 7.80922  11
   0   2   9 220.397 8.04885   4
  -2  -2  -9 148.983 6.83963  11
   2  -2   9 146.835 6.21963  13
   2  -2   9 146.243 7.44146   4
  -2  -2  -9 154.182 9.04016   2
   2  -2   9 140.188 6.72650   7
  -2   2  -9 159.425 6.94136  11
  -2   2  -9 147.980 7.80308   9
   2   2   9 139.622 6.93958   4
   2   2   9 146.083 6.55502  13
   4  -2   9 151.099 7.43066   7
  -4  -2  -9 157.474 8.81648   9
   4  -2   9 155.499 8.07626   4
   4  -2   9 161.255 7.14601  13
  -4   2  -9 156.395 8.41349   9
   4   2   9 161.557 7.64730  13
   4   2   9 166.752 8.04332   4
  11  -3  -9 29.1191 3.61820  12
 -11  -3   9 25.0515 4.86058  14
  11  -3  -9 25.1478 3.10392   5
 -11  -3   9 24.7389 3.39622   7
 -11  -3   9 29.4253 3.85782   3
 -11   3   9 21.0636 4.23350  14
  11   3  -9 21.4645 2.98673   1
  11   3  -9 22.5415 3.53619  12
  11   3  -9 22.6271 3.06334   5
   9  -3  -9 1092.54 28.1132   5
   9  -3  -9 1048.56 27.7079  12
  -9  -3   9 1075.51 27.3023   7
  -9   3   9 1126.93 31.8613  14
   9   3  -9 1131.28 28.1472   5
   9   3  -9 1098.58 28.1425  12
   7  -3  -9 16.4482 2.62302   5
   7  -3  -9 16.9634 2.62366  12
  -7  -3   9 15.2236 2.22672   7
  -7  -3   9 15.4222 2.56842   4
   7  -3  -9 16.3532 2.30177  11
   7  -3  -9 16.2129 3.87784  15
  -7   3   9 13.4234 2.15701   4
   7   3  -9 15.0526 2.21388  12
   7   3  -9 13.8926 2.30087   5
  -7   3   9 11.5296 2.86834  14
  -5  -3   9 1568.65 36.4299   7
  -5  -3   9 1572.81 37.0713   4
   5  -3  -9 1615.98 36.9310  11
   5  -3  -9 1612.45 37.6538   5
   5  -3  -9 1567.18 36.3186  12
   5  -3  -9 1537.79 43.5826  15
   5   3  -9 1606.21 37.3043   5
   5   3  -9 1546.44 35.8450  12
   5   3  -9 1574.97 36.3247  11
  -5   3   9 1634.41 36.9150   4
   3  -3  -9 89.0347 4.89334  11
  -3  -3   9 80.5544 4.41821  10
   3  -3  -9 87.5071 7.60844  15
   3  -3  -9 84.9763 4.89717   2
  -3  -3   9 90.1964 4.69562   7
  -3  -3   9 87.0677 4.72680   4
   3  -3  -9 89.3348 4.96767   5
  -3   3   9 94.4501 4.63362   4
   3   3  -9 84.0172 4.38295   9
   3   3  -9 82.7600 4.55966  11
  -3   3   9 84.1552 4.28047  13
   3   3  -9 87.4848 4.65865   5
   1  -3  -9 1438.98 42.4694  15
  -1  -3   9 1496.36 35.7377   4
   1  -3  -9 1523.74 37.5576   2
  -1  -3   9 1501.42 35.2142   7
   1  -3  -9 1431.60 34.6089   5
   1  -3  -9 1527.92 36.0730  11
  -1   3   9 1515.33 34.8618  13
   1   3  -9 1516.22 34.7710   5
  -1   3   9 1532.20 35.1242   4
   1   3  -9 1514.16 35.4357  11
   1   3  -9 1518.63 35.9758   9
  -1  -3  -9 150.624 8.57536   2
   1  -3   9 158.774 6.86801   7
   1  -3   9 152.130 7.31947   4
  -1  -3  -9 140.384 6.83094  11
   1   3   9 145.592 6.57254  13
  -1   3  -9 149.726 7.53586   9
   1   3   9 140.842 6.48710   4
  -3  -3  -9 697.601 19.5485  11
  -3  -3  -9 722.139 24.0392   2
   3  -3   9 712.472 20.4266   7
   3  -3   9 705.736 20.8745   4
   3   3   9 729.832 20.2067   4
  -3   3  -9 738.295 21.8060   9
   3   3   9 727.952 19.9632  13
 -10  -4   9 162.494 7.63983   7
  10  -4  -9 162.197 7.56762   5
  10  -4  -9 161.737 7.65265  12
  10   4  -9 163.284 7.44130   5
  10   4  -9 169.968 7.93047  12
 -10   4   9 163.013 10.0126  14
   8  -4  -9 351.867 11.6901  12
  -8  -4   9 364.920 11.7786   7
   8  -4  -9 353.025 12.1247   5
  -8   4   9 356.847 11.8841   8
   8   4  -9 347.756 11.5856  12
   8   4  -9 356.524 12.0245   5
  -8   4   9 362.225 14.2315  14
  -6  -4   9 467.064 13.8002   4
  -6  -4   9 459.392 13.5295   7
   6  -4  -9 455.782 14.0306   5
   6  -4  -9 460.533 13.2991  11
   6   4  -9 451.533 13.0425  12
  -6   4   9 466.374 13.7434   8
  -6   4   9 470.602 13.4804   4
  -6   4   9 465.858 15.3792  14
   6   4  -9 441.745 13.7420   5
   4  -4  -9 244.401 12.9599  15
  -4  -4   9 250.035 8.96880   4
   4  -4  -9 246.512 8.84358  11
  -4  -4   9 251.749 8.83738   7
  -4  -4   9 236.541 8.50224  10
   4  -4  -9 243.780 8.91287   5
  -4   4   9 244.765 8.45691   4
  -4   4   9 251.355 9.01318   8
   4   4  -9 249.775 8.92144   5
  -4   4   9 248.284 8.49777  13
   2  -4  -9 437.982 13.5004  11
   2  -4  -9 443.103 14.4048   2
  -2  -4   9 440.519 13.1853   7
   2  -4  -9 436.251 13.0848   5
  -2  -4   9 441.985 13.3934   4
   2   4  -9 438.881 12.9557   5
  -2   4   9 441.395 12.7125   4
  -2   4   9 444.142 12.7991  13
   2   4  -9 450.729 13.1459   9
   0  -4  -9 185.984 9.35210   2
   0  -4   9 180.233 7.50622   7
   0  -4  -9 183.674 8.03078  11
   0  -4   9 179.906 7.75110   4
   0   4   9 175.599 7.07400   4
   0   4   9 185.295 7.40924  13
   0   4  -9 186.428 8.02297   9
  -2  -4  -9 109.030 7.87006   2
  -2  -4  -9 110.801 5.90442  11
   2  -4   9 106.774 6.56708   4
   2  -4   9 118.607 6.55171   7
  -2   4  -9 107.881 6.72437   9
   2   4   9 122.773 6.02879  13
  -4  -4  -9 109.135 8.66415   2
   4  -4   9 106.432 6.66957   4
   4  -4   9 106.902 6.72137   7
  -4   4  -9 110.859 7.30168   9
   4   4   9 116.241 6.58794  13
 -11  -5   9 311.799 11.4854   7
 -11  -5   9 320.060 14.5062  14
  11  -5  -9 313.118 11.6106  12
  11   5  -9 314.406 12.1434  12
 -11   5   9 341.349 15.8590  14
   9  -5  -9 420.153 14.0681   5
   9  -5  -9 437.270 14.0087  12
  -9  -5   9 432.515 13.7739   7
   9   5  -9 423.604 13.9196   5
   9   5  -9 420.198 13.8997  12
  -9   5   9 443.205 14.4464   8
   7  -5  -9 716.723 19.7999   5
   7  -5  -9 691.220 18.6471  11
  -7  -5   9 705.070 19.3789   7
  -7  -5   9 709.159 19.1634   4
   7   5  -9 706.486 19.0622  12
  -7   5   9 729.516 19.9549   8
   7   5  -9 715.037 19.7793   5
  -7   5   9 716.506 21.7210  14
   5  -5  -9 531.203 15.0764  11
   5  -5  -9 507.616 15.3529   5
  -5  -5   9 509.076 14.9357  10
  -5  -5   9 527.965 15.1058   7
  -5  -5   9 539.058 15.1537   4
   5   5  -9 548.927 15.5612   5
  -5   5   9 512.200 15.4386   8
   5   5  -9 522.110 14.1703  12
  -5   5   9 532.923 14.6057   4
  -3  -5   9 598.068 17.3238  10
  -3  -5   9 602.744 16.8782   7
  -3  -5   9 612.165 16.9110   4
   3  -5  -9 607.624 17.4938   2
   3  -5  -9 639.379 17.3692  11
   3  -5  -9 589.811 16.8619   5
  -3   5   9 607.167 16.0778   4
  -3   5   9 603.003 16.4653  13
   3   5  -9 582.451 16.5824   5
  -3   5   9 607.673 17.3053   8
  -1  -5   9 237.029 9.11928   4
   1  -5  -9 234.233 10.2458   2
   1  -5  -9 218.547 8.35843   5
  -1  -5   9 241.404 9.22113   7
   1  -5  -9 233.038 9.25865  11
  -1   5   9 242.321 8.59440  13
   1   5  -9 248.600 8.57597   5
  -1   5   9 229.849 8.12138   4
   1   5  -9 251.947 9.13691   9
  -1  -5  -9 327.606 11.6742  11
   1  -5   9 339.803 11.9651   4
   1  -5   9 350.603 12.1883   7
  -1  -5  -9 324.624 13.6677   2
  -1   5  -9 336.236 12.2199   9
   1   5   9 332.867 11.1470  13
   3  -5   9 152.902 8.03495   4
  -3  -5  -9 147.843 9.61400   2
   3  -5   9 142.987 7.70786   7
   3   5   9 145.972 7.24835  13
  -3   5  -9 145.150 8.06714   9
  10  -6  -9 263.191 10.2914   5
  10  -6  -9 253.723 10.3688  12
 -10  -6   9 265.466 10.5221   7
  10   6  -9 269.688 10.6833  12
 -10   6   9 263.705 13.2850  14
 -10   6   9 265.397 11.0812   8
  10   6  -9 262.143 10.0768   5
   8  -6  -9 187.501 8.16340   5
  -8  -6   9 175.536 8.13408   7
   8   6  -9 175.354 7.91178   5
  -8   6   9 187.008 8.60162   8
   8   6  -9 177.130 7.80827  12
  -8   6   9 191.108 10.0114  14
  -6  -6   9 171.825 7.48680   7
  -6  -6   9 174.755 7.54674  10
   6  -6  -9 170.081 7.58496   5
   6  -6  -9 181.014 7.50148  11
  -6  -6   9 172.656 7.34332   4
   6   6  -9 172.086 6.95227  12
  -6   6   9 177.051 7.86035   8
   6   6  -9 180.778 7.84984   5
  -4  -6   9 399.793 12.3734   4
   4  -6  -9 387.949 12.6795   5
  -4  -6   9 397.270 12.5972   7
  -4  -6   9 389.515 12.9750  10
   4  -6  -9 387.276 12.5893  11
  -4   6   9 400.733 13.3453   8
   4   6  -9 414.952 12.8014   5
   2  -6  -9 101.370 5.28682   5
   2  -6  -9 94.0025 6.05360   2
  -2  -6   9 104.496 5.62580   4
  -2  -6   9 94.9396 5.48102   7
   2  -6  -9 92.9194 5.79747  11
  -2  -6   9 101.197 6.23977  10
   2   6  -9 97.3783 5.16825   5
   2   6  -9 98.9116 4.96137   6
  -2   6   9 93.6100 4.99629  13
   0  -6   9 159.341 7.62893   7
   0  -6   9 149.503 7.09245   4
   0  -6  -9 151.118 7.24848  11
   0  -6  -9 151.086 8.65272   2
   0   6   9 152.062 6.68714  13
   0   6  -9 153.681 7.25652   9
   2  -6   9 119.353 6.83889   7
  -2  -6  -9 106.182 8.19107   2
   2  -6   9 125.294 7.02275   4
  -2  -6  -9 105.135 5.89598  11
  -2   6  -9 118.725 7.03375   9
   2   6   9 112.822 6.01258  13
  -9  -7   9 20.8925 3.33371   7
   9  -7  -9 27.6867 3.38085  12
   9  -7  -9 26.4421 3.39829   5
  -9   7   9 28.8745 4.19737   8
   9   7  -9 29.0585 3.72194   5
   9   7  -9 27.0131 3.34160  12
  -9   7   9 19.9791 4.04942  14
   7  -7  -9 534.063 16.6766   5
   7  -7  -9 533.519 15.7113  11
  -7  -7   9 573.700 16.8284   7
  -7  -7   9 553.246 16.8388  10
  -7   7   9 575.764 17.5122   8
   7   7  -9 572.137 16.9236   5
   7   7  -9 530.849 15.8677  12
  -5  -7   9 59.7289 4.13636   4
  -5  -7   9 41.3459 4.31060  10
   5  -7  -9 45.2654 4.42264  11
   5  -7  -9 41.5884 4.34739   5
  -5  -7   9 42.1214 3.83007   7
   5   7  -9 48.6609 3.93368   5
  -5   7   9 44.5286 4.08568   8
   3  -7  -9 931.686 25.2344   2
   3  -7  -9 913.735 24.3015   5
   3  -7  -9 927.162 24.6004  11
  -3  -7   9 939.128 24.6596   7
  -3  -7   9 891.190 25.2988  10
  -3  -7   9 921.361 23.9862   4
  -3   7   9 946.323 25.6962   8
   3   7  -9 947.119 24.3365   5
   3   7  -9 968.520 24.0900   6
  -3   7   9 971.676 24.0156  13
  -1  -7   9 170.740 8.19886   7
  -1  -7   9 202.417 7.98219   4
   1  -7  -9 176.372 8.05765  11
   1  -7  -9 185.671 9.34739   2
  -1   7   9 182.615 7.50334  13
   1   7  -9 175.680 6.95701   6
   1  -7   9 861.410 23.5874   4
   1  -7   9 867.608 24.0484   7
  -1  -7  -9 825.251 23.4733  11
  -1  -7  -9 871.749 26.6398   2
  -1   7  -9 890.616 24.1033   9
   1   7   9 849.328 22.6478  13
   8  -8  -9 44.9733 4.21772   5
  -8  -8   9 38.4994 5.88894  10
  -8  -8   9 52.6671 5.03818   7
  -8   8   9 42.7861 4.90614   8
   8   8  -9 48.9255 4.44597   5
   8   8  -9 51.9230 4.32166  12
  -6  -8   9 46.2443 4.14744   7
   6  -8  -9 49.5286 4.23381   5
   6  -8  -9 46.9278 4.51567  11
  -6  -8   9 51.1442 4.97870  10
  -6   8   9 51.7108 4.67728   8
   6   8  -9 46.8297 4.34166   5
   6   8  -9 47.0000 3.73308  12
   4  -8  -9 243.943 9.72101   5
   4  -8  -9 228.317 9.58666  11
  -4  -8   9 244.363 9.70953   7
  -4  -8   9 256.539 10.6789  10
  -4   8   9 257.337 10.7319   8
   4   8  -9 238.314 9.57773   5
   4   8  -9 243.093 9.22556   6
  -2  -8   9 43.5040 4.63184   7
  -2  -8   9 39.2875 4.37778  10
   2  -8  -9 40.2231 4.33044  11
   2  -8  -9 43.3879 4.70366   2
   2  -8  -9 41.1320 4.04792   5
  -2   8   9 37.0703 3.43747  13
  -2   8   9 38.0923 4.24073   8
   2   8  -9 40.6565 3.71898   6
   0  -8  -9 175.351 9.67227   2
   0  -8   9 162.312 9.21720  10
   0  -8   9 174.631 8.26918   7
   0  -8  -9 155.007 7.67724  11
   0   8   9 160.778 7.33559  13
  -7  -9   9 358.753 13.3958  10
  -7  -9   9 362.750 12.8575   7
   7  -9  -9 367.318 12.5033  11
   7  -9  -9 356.340 12.9807   5
  -7   9   9 383.201 14.0626   8
  -5  -9   9 573.771 18.3741  10
   5  -9  -9 538.223 16.7262  11
   5  -9  -9 546.859 17.0392   5
  -5  -9   9 561.652 17.0449   7
  -5   9   9 567.706 18.4262   8
   5   9  -9 577.830 16.9534   6
   3  -9  -9 196.253 8.77468  11
  -3  -9   9 203.855 9.19509   7
  -3  -9   9 200.918 9.98414  10
   3  -9  -9 198.350 8.72723   5
  -3   9   9 201.997 9.93855   8
   3   9  -9 217.392 8.76471   6
  -1  -9   9 274.326 11.2689   7
  -1  -9   9 291.505 12.6824  10
   1  -9  -9 286.288 12.4578   2
   1  -9  -9 279.812 11.0079  11
   1   9  -9 281.602 10.1929   6
  -1   9   9 281.961 12.2119   8
  -6 -10   9 0.92063 1.63334   7
   6 -10  -9 3.90980 2.40080  11
   6 -10  -9 1.28862 1.70528   5
  -6 -10   9 2.02436 2.62249  10
   6  10  -9 4.81435 2.35723   6
  -6  10   9 2.14246 1.86353   8
   4 -10  -9 52.6401 4.64657  11
   4 -10  -9 52.6061 5.06335   5
  -4 -10   9 64.5071 5.52130   7
  -4 -10   9 60.4767 5.89202  10
  -4  10   9 61.6554 5.85512   8
   4  10  -9 63.1577 4.89207   6
   2 -10  -9 2.69643 1.91366  11
   2 -10  -9 3.65722 2.14503   5
  -2 -10   9 2.86046 2.40188   7
   2 -10  -9 3.39721 2.20101   2
  -2 -10   9 4.00787 2.47334  10
   2  10  -9 4.33332 2.06325   6
  -2  10   9 8.88233 3.22216   8
 -12   0  10 81.5732 7.86575  14
  12   0 -10 74.3133 5.16524   1
  12   0 -10 72.6019 5.56994  12
  10   0 -10 1345.59 34.3292  12
 -10   0  10 1416.37 32.9230   7
  10   0 -10 1346.26 33.5471   1
  10   0 -10 1385.70 34.3965   5
 -10   0  10 1387.21 38.4511  14
   8   0 -10 170.715 7.32151  16
   8   0 -10 167.281 7.51985  12
  -8   0  10 187.561 6.90091   7
  -8   0  10 186.465 7.98692   4
   8   0 -10 183.632 8.20666   5
   6   0 -10 1344.40 31.5861  11
   6   0 -10 1264.19 31.2662  12
  -6   0  10 1332.15 30.6358   7
   6   0 -10 1337.63 32.7139   5
  -6   0  10 1461.92 32.5820   4
   6   0 -10 1226.47 41.8148  15
  -4   0  10 60.3032 3.62260  13
   4   0 -10 57.3588 3.97516   5
   4   0 -10 50.4159 3.65943  11
  -4   0  10 56.8317 3.96025   4
  -4   0  10 57.6444 3.35929   7
  -2   0  10 689.969 18.7684   4
  -2   0  10 697.367 17.8587  13
   2   0 -10 698.221 19.0496  11
   2   0 -10 683.884 18.3510   5
  -2   0  10 685.340 17.4743   7
   0   0 -10 35.2415 3.74809  11
   0   0  10 30.4038 2.81674  13
   0   0  10 35.1021 3.83581   4
   0   0  10 33.5942 2.94229   7
   2   0  10 629.008 18.7616   4
   2   0  10 612.470 17.3329  13
  -2   0 -10 616.557 19.8482   9
  -2   0 -10 604.309 17.8104  11
  11  -1 -10 85.3780 5.64292   1
  11  -1 -10 81.6642 5.59483  12
 -11  -1  10 82.0488 7.75887  14
  11  -1 -10 75.0240 5.15816   5
  11   1 -10 72.5391 5.15073   1
  11   1 -10 90.9331 5.54327   5
  11   1 -10 80.6701 5.90620  12
 -11   1  10 83.8028 7.84725  14
   9  -1 -10 85.7898 5.37977  16
   9  -1 -10 85.5482 5.43302   5
   9  -1 -10 87.7318 5.46036  12
  -9  -1  10 90.6508 5.04405   7
   9   1 -10 90.3736 5.52139   5
   9   1 -10 92.4764 5.79079  12
  -9   1  10 87.0726 6.93622  14
   9   1 -10 81.2686 6.84727   1
  -7  -1  10 2.08155 1.70471   4
   7  -1 -10 1.47795 1.19789  11
   7  -1 -10 1.83141 1.09916  12
  -7  -1  10 6.75358 1.81806   7
   7  -1 -10 0.37626 1.66447   5
  -7   1  10 0.87232 1.71358   4
   7   1 -10 2.69836 1.44920   5
   7   1 -10 3.35637 1.45783  12
   7   1 -10 1.31780 1.10939  11
  -5  -1  10 220.588 8.56278   4
   5  -1 -10 215.477 8.67643   5
   5  -1 -10 229.514 8.31097  11
   5  -1 -10 210.885 7.64382  12
  -5  -1  10 212.774 7.49579   7
  -5   1  10 228.533 8.55001   4
   5   1 -10 226.385 8.71113   5
   5   1 -10 225.173 8.08620  11
  -3  -1  10 10.1533 2.29016   4
   3  -1 -10 12.7011 2.17720   5
  -3  -1  10 10.8317 1.82501  13
   3  -1 -10 10.5047 2.37616  11
  -3  -1  10 9.15313 1.79905   7
  -3   1  10 13.2772 2.37000   4
  -3   1  10 11.8729 2.07372  13
   3   1 -10 12.0620 2.14493   5
   3   1 -10 11.7041 2.24330  11
  -1  -1  10 23.5242 2.62537   7
   1  -1 -10 21.0523 2.94593  11
  -1  -1  10 26.9500 2.65123  13
  -1  -1  10 26.8876 3.20637   4
  -1   1  10 23.8391 2.74838  13
   1   1 -10 24.2936 2.99659   5
  -1   1  10 31.3849 3.12341   4
   1   1 -10 24.3344 3.01756  11
  -1  -1 -10 104.818 5.94548  11
   1  -1  10 107.592 5.66544   7
   1  -1  10 106.732 6.41402   4
   1  -1  10 101.188 5.11403  13
  -1   1 -10 106.320 6.88790   9
   1   1  10 103.104 5.61678  13
   1   1  10 116.143 6.41988   4
  -1   1 -10 105.209 5.73841  11
   3  -1  10 1.23351 2.04619   4
  -3  -1 -10 5.98354 1.61483  11
   3  -1  10 1.43890 1.61024  13
  -3  -1 -10 2.83820 2.37273   9
   3  -1  10 -0.2144 1.51729   7
   3   1  10 1.68967 1.46277  13
  -3   1 -10 0.61158 1.45900   9
   3   1  10 1.03984 1.50022   4
  10  -2 -10 27.9802 3.44709   5
 -10  -2  10 23.4333 2.85297   7
  10  -2 -10 25.8996 3.78652  12
  10  -2 -10 25.5547 3.30753  16
 -10  -2  10 20.8251 4.39106  14
  10   2 -10 25.3231 3.25396   5
  10   2 -10 25.2852 3.40430  12
 -10   2  10 20.9268 4.38201  14
   8  -2 -10 640.425 18.1671  12
   8  -2 -10 640.417 18.7505   5
  -8  -2  10 654.417 18.3509   4
  -8  -2  10 634.039 17.3449   7
   8   2 -10 640.696 18.0940  12
  -8   2  10 653.577 21.1939  14
   8   2 -10 643.930 18.6471   5
  -6  -2  10 95.8140 4.94998   7
  -6  -2  10 99.6799 5.51004   4
   6  -2 -10 99.7638 5.24416  11
   6  -2 -10 96.1319 5.04898  12
   6  -2 -10 101.924 5.65756   5
  -6   2  10 97.5151 5.20889   4
   6   2 -10 94.5485 4.77090  12
   6   2 -10 97.2156 4.91676  11
   6   2 -10 94.6051 5.40709   5
   4  -2 -10 1609.62 37.4201  11
  -4  -2  10 1569.59 36.1463   7
   4  -2 -10 1574.91 37.4203   5
  -4  -2  10 1565.14 37.2211   4
   4   2 -10 1530.34 37.0979   5
   4   2 -10 1567.19 36.8655  11
  -4   2  10 1569.77 36.3118  13
  -4   2  10 1555.30 36.7484   4
  -2  -2  10 260.862 8.51922  13
   2  -2 -10 282.984 10.1731  11
   2  -2 -10 302.291 11.1419   2
  -2  -2  10 286.309 10.1383   4
  -2  -2  10 271.899 9.26804   7
   2  -2 -10 266.547 9.44462   5
  -2   2  10 278.882 9.68641   4
   2   2 -10 294.795 9.55225   5
   2   2 -10 276.285 10.1103   9
  -2   2  10 275.005 9.34413  13
   2   2 -10 282.604 10.0018  11
   0  -2  10 1230.26 30.8995   7
   0  -2  10 1236.69 30.0022  13
   0  -2  10 1270.58 31.9532   4
   0  -2 -10 1275.60 32.0219  11
   0   2 -10 1281.15 31.6919  11
   0   2 -10 1333.53 33.2204   9
   0   2  10 1346.18 31.1821  13
   0   2  10 1270.83 31.4622   4
   2  -2  10 98.3296 5.02287  13
  -2  -2 -10 103.628 5.93257  11
   2  -2  10 97.2226 6.17913   4
   2  -2  10 100.461 5.62630   7
   2   2  10 100.728 5.82358  13
  -2   2 -10 103.656 6.96363   9
   2   2  10 100.564 5.85635   4
  11  -3 -10 3.40615 1.57871   5
  11  -3 -10 4.45122 2.43298  12
 -11  -3  10 5.36004 3.20933  14
 -11  -3  10 4.60644 2.08772   7
  11   3 -10 7.64294 2.29260   5
  11   3 -10 5.53235 2.49795  12
 -11   3  10 3.60223 2.32715  14
   9  -3 -10 6.92739 2.50151   5
   9  -3 -10 9.46918 2.51209  12
  -9  -3  10 14.2500 2.74032   7
   9   3 -10 8.79345 2.43338   5
   9   3 -10 6.95006 1.93283  12
  -9   3  10 10.2252 3.22395  14
   7  -3 -10 13.5862 2.50351  12
   7  -3 -10 12.9358 2.46234   5
  -7  -3  10 13.8827 2.48243   7
  -7  -3  10 14.2767 2.69117   4
   7  -3 -10 15.3076 2.50991  11
  -7   3  10 17.0918 2.49513   4
   7   3 -10 15.2199 2.75125   5
   7   3 -10 15.2292 2.21050  12
  -7   3  10 12.2381 3.00027  14
   5  -3 -10 94.7218 5.34284  11
  -5  -3  10 96.8429 4.89111   7
  -5  -3  10 93.7704 5.44809   4
   5  -3 -10 92.4370 5.57224   5
   5  -3 -10 90.1255 4.72531  12
   5   3 -10 91.5941 5.41523   5
  -5   3  10 94.5294 4.97554   4
   5   3 -10 98.6904 5.06890  11
  -3  -3  10 0.86925 1.63641   4
   3  -3 -10 0.68183 1.55918  11
   3  -3 -10 0.31021 1.27414   2
  -3  -3  10 5.73539 1.55067   7
   3   3 -10 0.24959 1.37252  11
  -3   3  10 0.78469 1.36728   4
  -3   3  10 3.10535 1.49381   8
   3   3 -10 2.53219 1.22102   5
  -3   3  10 1.73697 1.42050  13
  -1  -3  10 8.28859 2.05880   4
   1  -3 -10 6.05743 1.83551  11
   1  -3 -10 9.63675 2.67188   2
  -1  -3  10 6.82485 1.95376   7
   1   3 -10 5.78150 1.97103  11
   1   3 -10 8.05301 2.20447   9
   1   3 -10 7.78045 1.74987   5
  -1   3  10 8.85931 2.13317   4
  -1   3  10 11.4656 2.00909  13
   1  -3  10 53.2005 4.89077   4
  -1  -3 -10 57.0072 5.89456   2
  -1  -3 -10 54.8986 4.28750  11
   1  -3  10 56.7493 4.30626   7
   1   3  10 53.5156 4.36714   4
  -1   3 -10 53.6328 4.96753   9
   1   3  10 58.5585 4.44860  13
   3  -3  10 3.57485 2.37345   4
   3  -3  10 5.90526 2.20033   7
  -3   3 -10 1.48707 2.30732   9
   3   3  10 6.47198 2.41002  13
   3   3  10 2.80744 2.01305   4
  10  -4 -10 98.7462 6.25301  12
 -10  -4  10 100.978 6.08732   7
  10  -4 -10 104.828 6.46183   5
  10   4 -10 114.521 6.69259  12
 -10   4  10 107.343 8.42006  14
  10   4 -10 118.645 6.55335   5
   8  -4 -10 1491.65 36.6078   5
  -8  -4  10 1515.37 36.2142   4
  -8  -4  10 1469.19 35.6451   7
   8  -4 -10 1471.58 35.8967  12
  -8   4  10 1497.82 39.2118  14
   8   4 -10 1443.13 35.7386  12
   8   4 -10 1506.68 36.6162   5
   6  -4 -10 39.6644 3.45857  12
  -6  -4  10 37.6207 3.72198   7
   6  -4 -10 36.3879 3.68998  11
   6  -4 -10 35.2828 3.95909   5
  -6   4  10 31.4267 3.91592  14
   6   4 -10 35.1832 3.41648   5
  -6   4  10 45.0172 3.75409   4
  -6   4  10 30.9413 3.17997   8
   6   4 -10 35.6313 3.05658  12
   4  -4 -10 1185.03 30.0587   5
  -4  -4  10 1228.64 29.6178   7
   4  -4 -10 1217.96 30.1231  11
  -4  -4  10 1208.26 30.0130   4
  -4   4  10 1187.80 29.7753   8
   4   4 -10 1207.69 29.9329   5
  -4   4  10 1199.50 29.2471  13
  -4   4  10 1227.70 29.3655   4
  -2  -4  10 6.19463 2.03133   7
  -2  -4  10 5.56369 1.81084  10
  -2  -4  10 5.17567 1.73533   4
   2  -4 -10 6.58291 2.32068  11
   2  -4 -10 2.94564 1.59251   5
   2  -4 -10 2.44816 1.73856   2
   2   4 -10 7.08838 1.62380   5
  -2   4  10 5.84607 1.92850  13
   2   4 -10 6.73369 1.86134   9
   0  -4  10 803.091 22.0700   4
   0  -4 -10 757.243 21.7278  11
   0  -4  10 780.468 21.3895   7
   0  -4 -10 810.021 24.2104   2
   0   4 -10 815.026 22.3606   9
   0   4  10 752.167 20.5504   4
   0   4  10 792.809 20.9358  13
   2  -4  10 12.6730 3.03230   4
  -2  -4 -10 12.3809 3.56940   2
  -2  -4 -10 14.3930 2.71208  11
   2   4  10 17.2643 2.69761  13
  -2   4 -10 19.4092 3.60698   9
   9  -5 -10 99.3232 6.09910  12
  -9  -5  10 98.6424 6.05922   7
   9  -5 -10 97.0946 6.30260   5
   9   5 -10 107.699 6.35649   5
   9   5 -10 93.9598 5.64313  12
  -9   5  10 95.7497 7.21707  14
  -7  -5  10 364.111 11.9362   4
   7  -5 -10 324.959 11.1213  12
  -7  -5  10 352.703 11.7643   7
   7  -5 -10 336.125 12.1645   5
   7  -5 -10 336.584 11.0986  11
   7   5 -10 343.999 12.1609   5
   7   5 -10 324.590 11.0579  12
  -7   5  10 348.850 13.3639  14
  -7   5  10 343.448 11.7824   8
  -5  -5  10 107.180 5.63182   7
   5  -5 -10 94.9356 5.60338  11
   5  -5 -10 98.3941 5.70781   5
  -5  -5  10 105.773 5.88458   4
  -5   5  10 101.908 5.80428   8
  -5   5  10 107.166 5.23236   4
   5   5 -10 110.327 6.11374   5
   3  -5 -10 324.058 11.5118  11
   3  -5 -10 338.495 11.4918   5
  -3  -5  10 341.263 11.5507   7
  -3  -5  10 343.810 11.5681   4
  -3   5  10 351.914 11.1988  13
  -3   5  10 340.363 10.8026   4
   3   5 -10 350.191 11.5116   5
  -3   5  10 339.344 11.8947   8
  -1  -5  10 232.684 9.37746   7
   1  -5 -10 227.506 9.57652  11
  -1  -5  10 235.460 9.47698   4
   1  -5 -10 222.194 10.4455   2
   1   5 -10 233.441 9.18204   9
  -1   5  10 231.422 8.78874  13
   1   5 -10 228.468 8.53103   5
  -1  -5 -10 72.3714 6.17077   2
   1  -5  10 74.4713 5.60538   4
  -1  -5 -10 80.1259 5.43019  11
   1  -5  10 82.4366 5.43631   7
  -1   5 -10 73.5263 5.62288   9
   1   5  10 77.0199 5.24071  13
  10  -6 -10 500.151 16.1282   5
  10  -6 -10 508.021 15.9951  12
 -10  -6  10 512.834 16.0385   7
  10   6 -10 499.444 16.0522  12
  10   6 -10 505.084 16.0673   5
   8  -6 -10 9.22386 2.37114   5
   8  -6 -10 8.27693 2.36943  12
   8  -6 -10 8.66665 2.15508  11
  -8  -6  10 10.6646 2.33623   7
  -8   6  10 8.43471 2.46302   8
   8   6 -10 12.8509 2.74124   5
   8   6 -10 9.29437 2.25734  12
  -6  -6  10 1002.88 25.5485   4
   6  -6 -10 976.708 25.9322   5
  -6  -6  10 982.170 25.6169   7
   6  -6 -10 996.857 25.4080  11
   6   6 -10 972.845 26.0794   5
  -6   6  10 985.479 26.1659   8
   4  -6 -10 70.6166 5.13933  11
  -4  -6  10 85.8120 4.99537   4
  -4  -6  10 74.7547 5.12200  10
  -4  -6  10 74.2110 5.21294   7
   4  -6 -10 74.1756 5.18235   5
  -4   6  10 81.3245 5.57728   8
   4   6 -10 72.7901 4.75766   5
  -2  -6  10 1312.20 32.6764   7
  -2  -6  10 1277.83 32.2701   4
   2  -6 -10 1238.69 31.7340   5
  -2  -6  10 1273.84 33.3882  10
   2  -6 -10 1279.56 32.5926  11
   2  -6 -10 1318.00 33.9443   2
  -2   6  10 1325.31 31.8735  13
   2   6 -10 1337.97 32.0725   5
  -2   6  10 1337.51 33.1805   8
   0  -6  10 90.6657 5.92638   4
   0  -6  10 83.3576 5.85225   7
   0  -6 -10 86.8622 6.84701   2
   0  -6 -10 79.1931 5.46231  11
   0   6  10 84.0150 5.44737  13
  -2  -6 -10 723.972 24.1355   2
   2  -6  10 741.426 21.5321   7
   2  -6  10 709.878 21.2807   4
  -2  -6 -10 676.467 20.2324  11
  -2   6 -10 723.693 21.6393   9
   2   6  10 755.832 20.5601  13
   9  -7 -10 0.29597 1.39179   5
  -9  -7  10 2.63802 2.36183   7
   9  -7 -10 0.03981 1.32181  12
   9   7 -10 2.97487 2.00227  12
  -9   7  10 -0.7279 1.90692   8
   9   7 -10 4.14904 1.76266   5
   7  -7 -10 19.8136 3.06200  11
  -7  -7  10 20.6605 3.08422   7
   7  -7 -10 22.4919 3.18669   5
   7   7 -10 17.2481 2.74910  12
  -7   7  10 25.5897 3.81915   8
   7   7 -10 19.2757 3.16971   5
  -5  -7  10 8.85917 2.26156   7
  -5  -7  10 13.8321 2.22757   4
   5  -7 -10 11.0215 2.37703   5
   5  -7 -10 11.4029 2.64262  11
  -5  -7  10 11.6862 2.47024  10
  -5   7  10 10.4093 2.76750   8
   5   7 -10 11.4538 2.29295   5
   3  -7 -10 10.3945 2.80594  11
  -3  -7  10 11.1451 2.69685   7
   3  -7 -10 10.1191 2.12798   5
  -3  -7  10 6.79591 2.16144   4
  -3  -7  10 8.59503 2.65494  10
  -3   7  10 8.89984 2.78135   8
  -3   7  10 7.90837 2.28241  13
   3   7 -10 10.4661 2.39171   5
   3   7 -10 5.86892 1.86833   6
  -1  -7  10 -1.7103 1.00507   4
  -1  -7  10 3.62953 2.21747  10
   1  -7 -10 1.49030 1.58508   2
  -1  -7  10 0.01451 2.00263   7
   1  -7 -10 0.17002 1.40472  11
  -1   7  10 -1.0485 1.66044  13
  -1  -7 -10 3.16048 2.65281   2
  -1  -7 -10 12.8430 2.48009  11
   1  -7  10 2.12307 1.55655   4
   1  -7  10 4.48313 2.47695   7
   1   7  10 1.72538 1.99090  13
  -1   7 -10 0.97145 1.72290   9
   8  -8 -10 213.605 8.54252  11
  -8  -8  10 225.892 9.69843   7
   8  -8 -10 227.671 9.51877   5
  -8   8  10 216.902 10.0234   8
   8   8 -10 211.897 9.40702   5
   8   8 -10 203.670 8.78378  12
   6  -8 -10 496.537 15.9268   5
   6  -8 -10 499.708 15.4288  11
  -6  -8  10 481.786 16.1321  10
  -6  -8  10 512.306 16.0995   7
   6   8 -10 500.696 16.0516   5
  -6   8  10 528.491 17.0063   8
   4  -8 -10 122.711 6.72258   5
   4  -8 -10 122.184 6.77697  11
  -4  -8  10 136.235 7.05650   7
  -4  -8  10 119.529 7.31648  10
  -4   8  10 124.394 7.45174   8
   4   8 -10 124.220 6.81117   5
   4   8 -10 121.593 6.47727   6
   2  -8 -10 381.481 13.4682  11
   2  -8 -10 379.696 14.2645   2
  -2  -8  10 403.951 14.9282  10
  -2  -8  10 373.362 13.4101   7
  -2   8  10 397.547 14.5958   8
   2   8 -10 376.983 12.3825   6
  -2   8  10 406.305 13.0170  13
   0  -8  10 68.6207 6.08222  10
   0  -8  10 67.4315 5.56596   7
   0  -8 -10 67.6817 6.21539   2
   0  -8 -10 61.1730 5.13244  11
   0   8  10 65.4110 4.91062  13
  -5  -9  10 10.0934 2.54367  10
   5  -9 -10 9.34505 2.70231  11
  -5  -9  10 5.29623 2.52416   7
   5  -9 -10 6.04348 2.42553   5
   5   9 -10 8.18967 2.52318   6
  -5   9  10 4.72765 2.69764   8
   3  -9 -10 2.97527 1.94638  11
  -3  -9  10 0.54163 2.19908   7
  -3  -9  10 -0.0225 2.21669  10
   3  -9 -10 2.82879 1.92695   5
  -3   9  10 2.51953 2.42426   8
   3   9 -10 1.49471 1.77276   6
  10   0 -11 -0.8996 1.71289   5
 -10   0  11 -1.8450 2.39127  14
  10   0 -11 -0.1418 1.86874  12
   8   0 -11 1.34816 1.44178   5
   8   0 -11 1.34321 1.25472  12
  -8   0  11 1.90119 1.94063   4
   6   0 -11 1.01065 1.75767   5
   6   0 -11 1.53274 1.46462  11
  -6   0  11 1.05499 1.32473   4
  -4   0  11 -0.0626 1.23425  13
   4   0 -11 -0.2826 1.34003   5
   4   0 -11 0.12410 1.45911  11
  -4   0  11 2.29089 1.82173   4
   2   0 -11 1.93597 1.72036  11
  -2   0  11 1.15926 1.37778   4
  -2   0  11 2.16432 1.48439  13
   0   0 -11 3.41878 2.02141  11
   0   0  11 1.95294 1.56895   4
   0   0  11 1.42232 1.11363  13
   2   0  11 0.91971 1.18774  13
   2   0  11 -2.5414 1.69751   4
  -2   0 -11 1.36258 1.99218   9
  11  -1 -11 83.7294 5.72784  12
  11  -1 -11 90.9911 5.73972   1
 -11  -1  11 72.3973 5.91711   7
  11  -1 -11 111.513 6.29976   5
 -11  -1  11 90.9622 8.11759  14
 -11   1  11 88.2458 7.98925  14
  11   1 -11 86.8785 6.15321  12
  11   1 -11 92.6380 6.12179   5
  -9  -1  11 668.693 18.2340   7
   9  -1 -11 679.466 19.5357  12
   9  -1 -11 684.014 20.1650   5
   9   1 -11 682.346 19.6586  12
  -9   1  11 689.347 22.9808  14
   9   1 -11 685.193 20.1725   5
  -7  -1  11 168.952 6.82884   7
   7  -1 -11 172.009 7.46852  12
   7  -1 -11 182.258 8.25544   5
   7  -1 -11 178.798 7.26571  11
  -7  -1  11 181.974 7.85849   4
  -7   1  11 183.612 7.80492   4
   7   1 -11 173.489 8.08681   5
   7   1 -11 164.280 7.06757  12
   7   1 -11 170.287 6.94536  11
  -5  -1  11 610.727 17.8659   4
   5  -1 -11 631.117 18.3855   5
   5  -1 -11 636.833 18.0090  11
  -5  -1  11 610.650 16.5039   7
  -5   1  11 662.447 18.1522   4
   5   1 -11 646.689 17.9050  11
   5   1 -11 614.889 18.2240   5
  -3  -1  11 265.649 8.96942   7
   3  -1 -11 273.765 9.91391   5
  -3  -1  11 264.470 8.91272  13
   3  -1 -11 286.507 10.5435  11
  -3  -1  11 271.567 10.2208   4
  -3   1  11 287.349 10.2657   4
   3   1 -11 283.371 10.0531   5
   3   1 -11 267.276 10.1404  11
  -3   1  11 267.313 9.14661  13
   1  -1 -11 425.287 14.2566  11
  -1  -1  11 431.245 12.6840  13
  -1  -1  11 441.021 14.2195   4
  -1  -1  11 398.681 12.6010   7
  -1   1  11 430.796 13.8501   4
   1   1 -11 428.738 14.8794   9
  -1   1  11 422.317 12.8845  13
   1   1 -11 440.829 14.2427  11
   1  -1  11 286.490 11.4165   4
  -1  -1 -11 284.635 11.0935  11
   1  -1  11 295.885 10.1363  13
   1   1  11 285.369 11.2176   4
  -1   1 -11 283.007 10.8893  11
  -1   1 -11 293.470 12.4394   9
   1   1  11 291.457 10.4610  13
 -10  -2  11 195.023 11.1741  14
  10  -2 -11 190.808 8.86940  12
  10  -2 -11 202.727 9.11351   5
 -10  -2  11 188.350 7.99490   7
 -10   2  11 191.803 10.7159  14
  10   2 -11 199.488 9.00008  12
  10   2 -11 180.545 8.78133   5
   8  -2 -11 314.124 11.7694   5
  -8  -2  11 321.325 10.5701   7
   8  -2 -11 300.094 10.7914  12
  -8  -2  11 295.774 10.9586   4
  -8   2  11 315.836 11.1280   4
   8   2 -11 333.289 11.9447   5
  -8   2  11 311.667 13.5321  14
   8   2 -11 297.322 10.7450  12
  -6  -2  11 228.990 8.47797   7
  -6  -2  11 234.955 9.42854   4
   6  -2 -11 239.214 9.63929   5
   6  -2 -11 253.413 9.31324  11
  -6   2  11 241.293 9.29294   4
   6   2 -11 243.490 9.69607   5
   6   2 -11 240.390 8.79442  11
   4  -2 -11 232.472 9.32416  11
   4  -2 -11 218.643 8.92141   5
  -4  -2  11 229.850 9.10908   4
  -4  -2  11 233.940 8.35625   7
  -4   2  11 224.491 8.86016   4
   4   2 -11 239.110 9.16106   5
   4   2 -11 235.519 9.15840  11
  -4   2  11 226.902 8.29286  13
   2  -2 -11 221.002 9.41249  11
  -2  -2  11 219.431 9.24811   4
  -2  -2  11 219.052 8.40207   7
   2   2 -11 230.086 9.14671  11
  -2   2  11 228.650 8.45930  13
   2   2 -11 222.548 8.53587   5
  -2   2  11 225.509 8.77100   4
   2   2 -11 243.527 9.76324   9
   0  -2  11 107.232 6.56694   4
   0  -2 -11 111.803 6.52573  11
   0  -2  11 101.982 5.69499   7
   0   2 -11 96.9602 6.61579   9
   0   2  11 97.3576 5.60283  13
   0   2 -11 108.935 6.28392  11
   0   2  11 103.247 6.10080   4
   2  -2  11 112.530 7.16548   4
  -2  -2 -11 101.821 5.96354  11
  -2   2 -11 107.380 7.44372   9
   2   2  11 102.956 6.13127  13
   2   2  11 105.924 6.54415   4
   9  -3 -11 112.649 6.32306  12
   9  -3 -11 121.289 6.68991   5
  -9  -3  11 113.674 5.81017   7
   9   3 -11 113.330 6.55268   5
   9   3 -11 106.754 6.04409  12
  -9   3  11 114.710 7.84759  14
  -7  -3  11 817.861 21.9461   7
   7  -3 -11 874.589 23.6066   5
  -7  -3  11 856.797 23.0384   4
   7   3 -11 881.088 23.8221   5
  -7   3  11 854.140 22.6369   4
  -7   3  11 836.602 24.9202  14
  -5  -3  11 157.368 6.85817   7
   5  -3 -11 154.090 7.35268   5
   5  -3 -11 161.247 7.26284  11
  -5  -3  11 165.078 7.64786   4
   5   3 -11 149.671 7.41239   5
   5   3 -11 158.951 7.08031  11
  -5   3  11 158.850 7.14344   4
   3  -3 -11 1000.33 26.1524   5
  -3  -3  11 1032.29 26.6130   4
  -3  -3  11 980.906 25.4523   7
   3  -3 -11 1045.95 26.9170  11
   3   3 -11 1056.74 26.3164   5
  -3   3  11 1012.39 25.9455   4
  -3   3  11 1012.03 25.5891  13
   3   3 -11 1012.50 26.3659  11
   1  -3 -11 71.3454 5.36864  11
  -1  -3  11 79.8366 5.62840   4
  -1  -3  11 73.4011 4.92300   7
  -1   3  11 70.7186 4.84471  13
   1   3 -11 79.9705 5.65208   9
  -1   3  11 75.2373 4.81777   4
   1  -3  11 613.276 18.9014   4
   1  -3  11 599.370 17.9458   7
  -1  -3 -11 595.146 18.4098  11
   1   3  11 595.555 17.8042   4
  -1   3 -11 613.613 19.6109   9
   1   3  11 626.685 17.8539  13
  10  -4 -11 8.85023 2.62842   5
 -10  -4  11 7.60088 2.45726   7
  10  -4 -11 11.4845 2.76447  12
  10   4 -11 6.75101 2.32291   5
 -10   4  11 11.0241 3.55170  14
  10   4 -11 10.2036 2.25403  12
  -8  -4  11 107.482 6.29513   4
  -8  -4  11 99.1502 5.56575   7
   8  -4 -11 90.3489 5.73079  11
   8  -4 -11 103.746 6.49502   5
   8  -4 -11 91.4618 5.70155  12
   8   4 -11 98.9044 5.63653  12
   8   4 -11 99.7939 6.32294   5
  -8   4  11 92.7924 6.72617  14
  -6  -4  11 55.0040 4.43052   7
   6  -4 -11 58.5554 4.25826  11
   6  -4 -11 61.3705 4.69863   5
  -6  -4  11 58.3071 4.35396   4
  -6   4  11 59.0282 4.41454   4
   6   4 -11 55.8254 4.72683   5
   4  -4 -11 99.3904 5.70159   5
  -4  -4  11 102.503 6.07224   4
  -4  -4  11 97.8078 5.38163   7
   4  -4 -11 105.648 6.13191  11
  -4   4  11 100.674 5.55580   4
  -4   4  11 96.7605 5.48930  13
   4   4 -11 100.584 5.87200   5
  -2  -4  11 179.514 7.91627   7
   2  -4 -11 172.618 8.34259  11
   2  -4 -11 177.345 8.75538   2
  -2  -4  11 171.789 8.18483   4
  -2   4  11 174.489 7.38438   4
   2   4 -11 171.202 7.47665   5
  -2   4  11 183.212 7.73555  13
   0  -4 -11 72.4232 5.49619  11
   0  -4  11 77.9943 5.48065   7
   0  -4 -11 69.5269 6.34161   2
   0  -4  11 71.4203 5.66970   4
   0   4  11 72.2081 5.04105   4
   0   4  11 67.1845 5.02700  13
   0   4 -11 74.6538 5.69685   9
   9  -5 -11 362.471 12.6510  12
   9  -5 -11 378.697 13.1273   5
  -9  -5  11 355.506 12.3449   7
   9   5 -11 374.482 13.4013   5
   9   5 -11 347.379 12.3608  12
  -9   5  11 368.894 15.2067  14
  -7  -5  11 217.170 8.98142   7
  -7  -5  11 235.162 9.17810   4
   7  -5 -11 214.160 8.61009  12
   7  -5 -11 217.225 9.47060   5
   7  -5 -11 210.277 8.52644  11
   7   5 -11 215.550 9.37794   5
  -5  -5  11 275.641 10.1582   7
   5  -5 -11 273.947 10.6744   5
   5  -5 -11 284.169 10.5722  11
  -5  -5  11 289.083 10.7148   4
   5   5 -11 285.019 10.7071   5
   3  -5 -11 194.163 8.49866   5
  -3  -5  11 220.437 9.18816   4
   3  -5 -11 216.439 9.26938  11
  -3  -5  11 222.132 9.01890   7
  -3   5  11 208.692 9.08065   8
  -3   5  11 213.891 8.62592  13
   3   5 -11 207.963 8.53734   5
   1  -5 -11 299.052 12.5958   2
  -1  -5  11 309.097 11.4145   4
  -1  -5  11 300.043 11.1331   7
   1  -5 -11 295.895 11.6381  11
  -1  -5  11 290.523 11.7587  10
   1   5 -11 309.451 12.1330   9
  -1   5  11 302.427 10.6305  13
   1  -5  11 263.935 11.0657   4
   1  -5  11 260.483 10.7166   7
  -1  -5 -11 265.506 10.6692  11
  -1   5 -11 266.368 11.1989   9
   1   5  11 264.408 10.0838  13
  -8  -6  11 2.95694 2.37256   7
   8  -6 -11 5.73941 2.05438   5
   8  -6 -11 4.38286 1.34284  11
   8  -6 -11 -0.6327 1.78519  12
   8   6 -11 4.67032 2.29538  12
   8   6 -11 2.96368 1.67480   5
  -6  -6  11 82.6441 5.41347   4
   6  -6 -11 82.2749 5.48161   5
  -6  -6  11 82.6663 5.64920   7
   6  -6 -11 76.1055 4.92087  11
   6   6 -11 80.0727 5.42583   5
  -6   6  11 72.8086 5.37308   8
  -4  -6  11 85.8708 5.57375   4
  -4  -6  11 75.2093 5.45173   7
   4  -6 -11 75.8674 5.49488  11
   4  -6 -11 72.0572 5.35437   5
   4   6 -11 89.9297 5.45378   5
  -4   6  11 83.1104 5.50337   8
   4   6 -11 70.8824 4.65547   6
   2  -6 -11 34.5075 4.14602  11
  -2  -6  11 30.2187 3.57576   4
   2  -6 -11 25.6968 3.69564   2
  -2  -6  11 40.5951 4.34072   7
   2   6 -11 32.3831 3.51625   5
  -2   6  11 26.2759 3.41763  13
  -2   6  11 34.1614 4.37124   8
   0  -6 -11 141.603 7.40723  11
   0  -6  11 157.498 7.76390   7
   0  -6 -11 151.467 8.92479   2
   0  -6  11 149.915 7.62448   4
   0   6  11 144.907 7.25794  13
   0   6 -11 113.185 8.63787   9
   7  -7 -11 204.022 8.39668  11
  -7  -7  11 209.025 8.91214   7
   7  -7 -11 185.567 8.66721   5
  -7   7  11 188.202 8.95774   8
   7   7 -11 209.711 9.36900   5
  -5  -7  11 646.043 18.7879   4
   5  -7 -11 653.313 19.0221  11
  -5  -7  11 676.956 19.4465   7
   5  -7 -11 646.073 19.1990   5
   5   7 -11 687.665 19.8797   5
  -5   7  11 673.447 19.9118   8
  -3  -7  11 230.584 9.64248   7
   3  -7 -11 218.844 9.15657   5
  -3  -7  11 223.786 9.16340   4
   3  -7 -11 229.887 9.77194  11
  -3  -7  11 221.186 9.85289  10
  -3   7  11 218.603 10.1148   8
   3   7 -11 231.338 9.40211   5
  -3   7  11 217.437 9.00068  13
  -1  -7  11 495.007 16.0275   7
  -1  -7  11 469.381 15.5608   4
  -1  -7  11 487.412 16.9525  10
   1  -7 -11 481.526 17.2483   2
   1  -7 -11 470.747 15.8076  11
  -1   7  11 490.540 16.6051   8
   6  -8 -11 189.031 8.56432   5
   6  -8 -11 183.890 8.16513  11
  -6  -8  11 203.383 9.21202   7
  -6   8  11 196.917 9.40285   8
   6   8 -11 190.098 9.03005   5
   4  -8 -11 110.491 6.51287   5
   4  -8 -11 101.793 6.30802  11
  -4  -8  11 101.100 10.1960  10
  -4  -8  11 113.283 7.04250   7
  -4   8  11 118.663 7.01461   8
 -10   0  12 29.2149 4.69429  14
  10   0 -12 31.3031 4.07380   5
  10   0 -12 24.8679 3.37758  12
   8   0 -12 1054.77 27.9266  12
  -8   0  12 1117.22 28.6015   4
   8   0 -12 1133.77 29.6999   5
   6   0 -12 65.2034 4.72453  11
  -6   0  12 58.3561 4.46244   4
   6   0 -12 61.4156 5.15770   5
   4   0 -12 1223.15 31.2985   5
   4   0 -12 1245.51 31.4632  11
  -4   0  12 1230.25 29.6496  13
  -4   0  12 1212.28 30.9638   4
  -2   0  12 11.6299 2.05003  13
   2   0 -12 12.0331 2.76717  11
  -2   0  12 6.79004 2.54261   4
   0   0  12 1123.96 29.7719   4
   0   0 -12 1126.97 30.0677  11
   0   0  12 1127.11 28.2955  13
   0   0 -12 1154.61 31.9580   9
   9  -1 -12 22.9336 3.33202  12
   9  -1 -12 17.6268 3.37175   5
   9   1 -12 18.2280 2.74115  12
  -9   1  12 30.4810 5.16139  14
   9   1 -12 17.8879 3.01159   5
   7  -1 -12 88.2647 5.84881   5
   7  -1 -12 90.8020 5.37061  11
  -7  -1  12 87.1087 5.83552   4
  -7   1  12 90.2467 5.84561   4
   7   1 -12 84.1213 6.00652   5
   7   1 -12 79.8813 4.83474  11
   5  -1 -12 164.983 7.70774  11
  -5  -1  12 147.345 7.55482   4
   5  -1 -12 151.050 7.50259   5
   5   1 -12 159.049 7.55555  11
  -5   1  12 150.601 7.47507   4
   5   1 -12 141.737 7.33236   5
  -3  -1  12 6.01360 2.49070   4
   3  -1 -12 9.11979 1.99436   5
  -3  -1  12 4.98636 1.67624  13
   3  -1 -12 4.40239 2.30816  11
  -3   1  12 9.79443 1.95597  13
  -3   1  12 6.47889 2.38090   4
   3   1 -12 4.38903 1.48420   5
   3   1 -12 5.56247 2.25918  11
  -1  -1  12 120.711 7.11372   4
   1  -1 -12 123.021 7.16627  11
  -1   1  12 123.049 6.19255  13
   1   1 -12 121.298 7.64341   9
  -1   1  12 114.904 6.87010   4
   1   1 -12 126.161 7.13498  11
 -10  -2  12 309.373 10.6085   7
  10   2 -12 322.168 12.3926   5
  10   2 -12 300.874 11.5287  12
 -10   2  12 305.786 14.2252  14
   8  -2 -12 513.492 15.9707  12
  -8  -2  12 530.315 16.5008   4
   8  -2 -12 528.980 16.9825   5
   8   2 -12 516.425 16.9336   5
  -8   2  12 535.475 16.3951   4
  -8   2  12 536.349 18.9953  14
  -6  -2  12 562.174 17.5736   4
   6  -2 -12 609.341 17.6844  11
   6  -2 -12 570.381 17.9805   5
   6   2 -12 605.205 18.4146   5
   6   2 -12 589.400 17.1958  11
  -6   2  12 627.954 17.8732   4
   4  -2 -12 375.925 13.0592   5
   4  -2 -12 398.691 13.6048  11
  -4  -2  12 373.433 13.1791   4
  -4  -2  12 379.241 12.0200   7
  -4   2  12 394.333 12.9604   4
   4   2 -12 389.782 13.2600   5
  -4   2  12 386.406 12.3245  13
   4   2 -12 418.590 13.5880  11
  -2  -2  12 334.858 11.3535   7
  -2  -2  12 353.427 12.5690   4
   2  -2 -12 337.118 12.7231  11
   2   2 -12 360.958 13.0121   9
   2   2 -12 362.019 12.7929  11
  -2   2  12 344.694 11.5679  13
  -2   2  12 334.542 11.9191   4
   0  -2 -12 82.3444 6.01328  11
   0   2 -12 97.2464 6.90148   9
   0   2  12 87.3792 5.96610   4
   0   2  12 93.3578 5.44251  13
   9  -3 -12 88.8267 5.77704  12
  -9  -3  12 86.8203 5.47781   7
   9  -3 -12 93.9641 6.05134   5
   9   3 -12 93.3785 6.07543   5
  -9   3  12 83.9000 6.76156  14
   9   3 -12 83.4327 5.55075  12
   7  -3 -12 29.1031 3.40741  11
  -7  -3  12 27.6509 3.68909   4
   7  -3 -12 26.6157 3.16874  12
   7  -3 -12 29.2256 3.62287   5
  -7  -3  12 31.9766 3.51400   7
   7   3 -12 31.0478 4.02928   5
  -7   3  12 28.6384 4.33980  14
  -7   3  12 24.5665 3.34862   4
   5  -3 -12 7.72254 2.34393   5
  -5  -3  12 0.12317 1.64954   7
  -5  -3  12 6.65055 2.42149   4
   5  -3 -12 4.44259 1.99997  11
  -5   3  12 3.25194 1.53289   4
   5   3 -12 2.05437 1.45807   5
   5   3 -12 5.72140 2.12564  11
   3  -3 -12 83.3342 5.79448  11
  -3  -3  12 83.2262 5.83284   4
  -3  -3  12 77.1824 5.04336   7
  -3   3  12 87.6387 5.48635   4
   3   3 -12 83.9493 5.20291   5
  -3   3  12 80.6114 5.17535  13
   3   3 -12 79.2997 5.53975  11
   1  -3 -12 2.28124 1.64376  11
  -1  -3  12 1.65611 2.10647   4
  -1  -3  12 0.90481 1.66267   7
   1   3 -12 1.71600 1.83277   9
  -1   3  12 1.37682 1.33164  13
  -1   3  12 2.93143 1.93202   4
   8  -4 -12 21.0913 3.03829  12
  -8  -4  12 22.2521 3.16609   4
   8  -4 -12 28.2923 3.86334   5
  -8  -4  12 28.2783 3.49638   7
   8   4 -12 25.2411 3.68511   5
  -6  -4  12 451.258 14.7856   4
   6  -4 -12 488.419 15.0984  11
  -6  -4  12 462.940 14.4152   7
   6  -4 -12 451.911 15.2859   5
   6   4 -12 476.705 15.5756   5
  -6   4  12 490.437 14.8301   4
  -4  -4  12 52.8069 4.70835   4
   4  -4 -12 37.0703 3.63303   5
  -4  -4  12 39.7900 4.02958   7
   4  -4 -12 38.8848 4.18755  11
  -4   4  12 38.3048 3.50668  13
   4   4 -12 46.4435 4.02929   5
  -4   4  12 38.2652 3.87358   4
   2  -4 -12 684.758 20.6386  11
  -2  -4  12 694.746 20.5106   4
  -2  -4  12 711.527 19.8418   7
  -2   4  12 685.342 19.3659   4
  -2   4  12 715.357 19.6859  13
   7  -5 -12 4.93550 1.59990  12
   7  -5 -12 4.65103 1.95760  11
  -7  -5  12 9.12346 2.57316   4
   7  -5 -12 1.90979 1.65730   5
  -7  -5  12 4.41126 2.30883   7
   7   5 -12 4.36103 1.83224   5
  -5  -5  12 0.70557 1.98792   7
   5  -5 -12 1.51192 1.85601   5
   5  -5 -12 0.48229 1.25512  11
  -5  -5  12 1.93958 1.94990   4
   5   5 -12 0.00506 1.68318   5
   3  -5 -12 61.6660 5.23434  11
  -3  -5  12 61.2725 5.00700   7
  -3  -5  12 57.9179 5.10845   4
  -3   5  12 61.1706 4.85600  13
   3   5 -12 59.0816 4.71273   5
  -1   5  12 1.09905 1.86541  13
  -6  -6  12 102.006 6.31512   4
   6  -6 -12 115.936 6.83012   5
   6  -6 -12 114.552 6.49232  11
  -6  -6  12 111.031 6.58812   7
   6   6 -12 111.858 6.55120   5
  -4  -6  12 761.878 21.6607   4
   4  -6 -12 759.479 21.8733  11
  -4  -6  12 751.846 21.4863   7
   4   6 -12 782.402 21.9403   5
  -8   0  13 0.48725 1.45423   4
   8   0 -13 0.65256 1.50666   5
  -6   0  13 0.91321 1.44174   4
   6   0 -13 0.17558 1.81498   5
   6   0 -13 2.23267 1.34433  11
  -4   0  13 1.12621 1.53999   4
   4   0 -13 0.09635 1.08580   5
   4   0 -13 1.08170 1.35359  11
   2   0 -13 0.81560 1.88750   9
  -2   0  13 -1.1483 1.33767   4
  -2   0  13 -0.0504 1.46504  13
   2   0 -13 0.28316 1.92564  11
   9  -1 -13 56.9380 5.32264   5
  -9  -1  13 55.5960 5.10282   4
  -9   1  13 57.0083 6.44876  14
   9   1 -13 55.8065 5.67881   5
  -7  -1  13 653.601 19.5062   4
   7  -1 -13 641.927 19.8964   5
   7  -1 -13 654.506 18.9163  11
   7   1 -13 667.716 20.4177   5
  -7   1  13 659.194 19.3959   4
   7   1 -13 657.352 18.8748  11
   5  -1 -13 68.5386 5.31077  11
  -5  -1  13 64.1066 4.95647   4
   5  -1 -13 62.9956 5.17399   5
   5   1 -13 62.7078 5.08495  11
   5   1 -13 66.4362 5.01737   5
  -5   1  13 67.4307 4.94176   4
  -3  -1  13 635.462 19.5046   4
   3  -1 -13 660.090 20.0476  11
  -3   1  13 655.268 18.3253  13
  -3   1  13 652.133 19.3928   4
   3   1 -13 663.203 19.8915  11
   8  -2 -13 227.174 10.0790   5
  -8  -2  13 219.863 9.73449   4
   8   2 -13 234.749 10.5913   5
  -8   2  13 217.053 11.2735  14
  -8   2  13 233.676 9.75878   4
  -6  -2  13 178.503 8.58980   4
   6  -2 -13 197.751 8.72988  11
   6  -2 -13 180.654 8.95563   5
  -6   2  13 190.490 8.63803   4
   6   2 -13 181.474 9.02661   5
   6   2 -13 195.205 8.39597  11
   4  -2 -13 224.046 9.69145   5
  -4  -2  13 243.668 10.1842   4
   4  -2 -13 234.266 10.0355  11
   4   2 -13 253.549 10.3646  11
   4   2 -13 237.706 9.94506   5
  -4   2  13 241.114 9.91301   4
   2  -2 -13 179.089 8.85390  11
  -2  -2  13 175.871 8.78146   4
  -2   2  13 179.407 8.44172   4
   2   2 -13 172.016 8.51046  11
  -2   2  13 173.945 7.80387  13
  -7  -3  13 183.311 8.77235   4
   7  -3 -13 192.057 8.20546  11
   7  -3 -13 193.836 9.16261   5
  -7  -3  13 174.702 7.75524   7
   7   3 -13 185.494 8.99156   5
  -7   3  13 186.156 8.46381   4
   5  -3 -13 376.489 13.2923  11
  -5  -3  13 352.439 11.8998   7
  -5  -3  13 369.930 13.0956   4
   5  -3 -13 358.849 13.0931   5
  -5   3  13 365.316 12.6392   4
   5   3 -13 386.859 13.5486   5
  -3  -3  13 123.616 7.31270   4
   3  -3 -13 117.749 6.86677  11
  -3   3  13 121.658 6.51317  13
  -3   3  13 122.199 6.76254   4
   6  -4 -13 1.70624 1.45867   5
   6  -4 -13 1.55665 1.43821  11
  -6  -4  13 1.48526 1.98045   7
  -6  -4  13 2.18980 2.09330   4
   6   4 -13 4.61781 1.78126   5
  -6   4  13 1.49434 1.84088   4
  -4  -4  13 22.0321 3.19767   4
  -4  -4  13 17.1154 2.67669   7
   4  -4 -13 22.0607 3.47564  11
  -4   4  13 20.4992 2.98081   4
   4   4 -13 25.9524 3.48560   5
   0   0   0    0.00    0.00   0

 _exptl_absorpt_process_details
)
 SADABS 2016/2: Krause, L., Herbst-Irmer, R., Sheldrick G.M. & Stalke D.,
 J. Appl. Cryst. 48 (2015) 3-10
)
 _exptl_absorpt_correction_type   multi-scan
 _exptl_absorpt_correction_T_max  0.7479
 _exptl_absorpt_correction_T_min  0.5767
 _exptl_special_details
)
 The following wavelength and cell were deduced by SADABS from the
 direction cosines etc. They are given here for emergency use only:
 CELL 0.71066    7.046    7.569    7.602   90.010  116.245   90.006
)

;
_shelx_hkl_checksum              61695
loop_
_space_group_symop_operation_xyz
'x, y, z'
'-x, y, -z+1/2'
'x+1/2, y+1/2, z'
'-x+1/2, y+1/2, -z+1/2'
'-x, -y, -z'
'x, -y, z-1/2'
'-x+1/2, -y+1/2, -z'
'x+1/2, -y+1/2, z-1/2'
loop_
_atom_site_label
_atom_site_type_symbol
_atom_site_fract_x
_atom_site_fract_y
_atom_site_fract_z
_atom_site_U_iso_or_equiv
_atom_site_adp_type
_atom_site_occupancy
_atom_site_site_symmetry_order
_atom_site_calc_flag
_atom_site_refinement_flags_posn
_atom_site_refinement_flags_adp
_atom_site_refinement_flags_occupancy
_atom_site_disorder_assembly
_atom_site_disorder_group
Fe Fe 0.000000 0.500000 0.000000 0.00477(4) Uani 1 2 d S . P . .
S S 0.000000 0.15482(2) 0.250000 0.00421(4) Uani 1 2 d S T P . .
O1 O 0.16858(7) 0.04450(7) 0.40013(7) 0.00847(7) Uani 1 1 d . . . . .
O2 O 0.09931(7) 0.26982(6) 0.15882(7) 0.00747(7) Uani 1 1 d . . . . .
O3 O 0.000000 0.64402(9) 0.250000 0.00722(9) Uani 1 2 d S T P . .
H H 0.107(2) 0.716(2) 0.294(2) 0.025(4) Uiso 1 1 d . . . . .
loop_
_atom_site_aniso_label
_atom_site_aniso_U_11
_atom_site_aniso_U_22
_atom_site_aniso_U_33
_atom_site_aniso_U_23
_atom_site_aniso_U_13
_atom_site_aniso_U_12
Fe 0.00440(5) 0.00465(5) 0.00517(5) 0.00056(3) 0.00221(4) 0.00000(3)
S 0.00323(7) 0.00388(7) 0.00537(7) 0.000 0.00192(5) 0.000
O1 0.00528(15) 0.00941(17) 0.00988(16) 0.00441(13) 0.00292(13) 0.00255(13)
O2 0.00714(15) 0.00668(15) 0.01017(16) 0.00284(12) 0.00539(13) 0.00053(12)
O3 0.0070(2) 0.0074(2) 0.0076(2) 0.000 0.00373(18) 0.000
loop_
_atom_type_symbol
_atom_type_description
_atom_type_scat_dispersion_real
_atom_type_scat_dispersion_imag
_atom_type_scat_source
O O 0.0106 0.0060 'International Tables Vol C Tables 4.2.6.8 and 6.1.1.4'
H H 0.0000 0.0000 'International Tables Vol C Tables 4.2.6.8 and 6.1.1.4'
S S 0.1246 0.1234 'International Tables Vol C Tables 4.2.6.8 and 6.1.1.4'
Mg Mg 0.0486 0.0363 'International Tables Vol C Tables 4.2.6.8 and 6.1.1.4'
Fe Fe 0.3463 0.8444 'International Tables Vol C Tables 4.2.6.8 and 6.1.1.4'
loop_
_geom_angle_atom_site_label_1
_geom_angle_atom_site_label_2
_geom_angle_atom_site_label_3
_geom_angle
_geom_angle_site_symmetry_1
_geom_angle_site_symmetry_3
_geom_angle_publ_flag
O2 Fe O2 180.0 . 5_565 ?
O2 Fe O1 94.97(2) . 8_455 ?
O2 Fe O1 85.03(2) 5_565 8_455 ?
O2 Fe O1 85.03(2) . 4 ?
O2 Fe O1 94.97(2) 5_565 4 ?
O1 Fe O1 180.0 8_455 4 ?
O2 Fe O3 87.99(2) . 5_565 ?
O2 Fe O3 92.01(2) 5_565 5_565 ?
O1 Fe O3 93.496(16) 8_455 5_565 ?
O1 Fe O3 86.504(16) 4 5_565 ?
O2 Fe O3 92.01(2) . . ?
O2 Fe O3 87.99(2) 5_565 . ?
O1 Fe O3 86.504(16) 8_455 . ?
O1 Fe O3 93.496(16) 4 . ?
O3 Fe O3 180.0 5_565 . ?
O2 Fe O2 83.052(13) . 8_455 ?
O2 Fe O2 96.948(14) 5_565 8_455 ?
O1 Fe O2 42.975(16) 8_455 8_455 ?
O1 Fe O2 137.025(16) 4 8_455 ?
O3 Fe O2 52.011(12) 5_565 8_455 ?
O3 Fe O2 127.989(12) . 8_455 ?
O2 Fe O2 96.948(13) . 4 ?
O2 Fe O2 83.052(14) 5_565 4 ?
O1 Fe O2 137.025(16) 8_455 4 ?
O1 Fe O2 42.975(16) 4 4 ?
O3 Fe O2 127.989(13) 5_565 4 ?
O3 Fe O2 52.011(12) . 4 ?
O2 Fe O2 180.0 8_455 4 ?
O2 Fe O2 137.762(17) . 6_565 ?
O2 Fe O2 42.238(17) 5_565 6_565 ?
O1 Fe O2 112.732(19) 8_455 6_565 ?
O1 Fe O2 67.268(19) 4 6_565 ?
O3 Fe O2 60.231(18) 5_565 6_565 ?
O3 Fe O2 119.769(18) . 6_565 ?
O2 Fe O2 95.746(16) 8_455 6_565 ?
O2 Fe O2 84.254(16) 4 6_565 ?
O2 Fe O2 42.238(17) . 2 ?
O2 Fe O2 137.762(17) 5_565 2 ?
O1 Fe O2 67.268(19) 8_455 2 ?
O1 Fe O2 112.732(19) 4 2 ?
O3 Fe O2 119.769(18) 5_565 2 ?
O3 Fe O2 60.231(18) . 2 ?
O2 Fe O2 84.254(16) 8_455 2 ?
O2 Fe O2 95.746(15) 4 2 ?
O2 Fe O2 180.0 6_565 2 ?
O1 S O1 110.52(4) 2 . ?
O1 S O2 108.86(3) 2 2 ?
O1 S O2 110.06(3) . 2 ?
O1 S O2 110.06(3) 2 . ?
O1 S O2 108.86(3) . . ?
O2 S O2 108.45(4) 2 . ?
S O1 Fe 136.09(3) . 4_545 ?
S O1 O2 35.897(16) . . ?
Fe O1 O2 100.28(2) 4_545 . ?
S O1 O1 34.74(2) . 2 ?
Fe O1 O1 139.99(3) 4_545 2 ?
O2 O1 O1 60.42(2) . 2 ?
S O1 O2 35.291(17) . 2 ?
Fe O1 O2 144.08(3) 4_545 2 ?
O2 O1 O2 60.11(2) . 2 ?
O1 O1 O2 59.685(19) 2 2 ?
S O1 O2 127.34(3) . 4_545 ?
Fe O1 O2 46.665(14) 4_545 4_545 ?
O2 O1 O2 108.46(2) . 4_545 ?
O1 O1 O2 103.05(2) 2 4_545 ?
O2 O1 O2 162.03(3) 2 4_545 ?
S O1 O3 170.84(3) . 7_556 ?
Fe O1 O3 48.349(12) 4_545 7_556 ?
O2 O1 O3 146.29(2) . 7_556 ?
O1 O1 O3 150.245(17) 2 7_556 ?
O2 O1 O3 135.64(2) 2 7_556 ?
O2 O1 O3 61.811(17) 4_545 7_556 ?
S O1 O2 115.72(3) . 8_556 ?
Fe O1 O2 41.828(14) 4_545 8_556 ?
O2 O1 O2 87.41(2) . 8_556 ?
O1 O1 O2 147.76(2) 2 8_556 ?
O2 O1 O2 103.94(2) 2 8_556 ?
O2 O1 O2 88.49(2) 4_545 8_556 ?
O3 O1 O2 61.297(19) 7_556 8_556 ?
S O1 O3 91.95(2) . 3_545 ?
Fe O1 O3 44.668(13) 4_545 3_545 ?
O2 O1 O3 57.032(18) . 3_545 ?
O1 O1 O3 101.94(3) 2 3_545 ?
O2 O1 O3 114.18(2) 2 3_545 ?
O2 O1 O3 61.789(18) 4_545 3_545 ?
O3 O1 O3 93.018(18) 7_556 3_545 ?
O2 O1 O3 57.043(16) 8_556 3_545 ?
S O1 O3 103.08(3) . 1_545 ?
Fe O1 O3 97.719(18) 4_545 1_545 ?
O2 O1 O3 118.51(2) . 1_545 ?
O1 O1 O3 68.337(10) 2 1_545 ?
O2 O1 O3 117.93(2) 2 1_545 ?
O2 O1 O3 52.887(15) 4_545 1_545 ?
O3 O1 O3 82.752(17) 7_556 1_545 ?
O2 O1 O3 137.548(18) 8_556 1_545 ?
O3 O1 O3 107.350(18) 3_545 1_545 ?
S O1 O2 126.58(3) . 6_556 ?
Fe O1 O2 96.903(19) 4_545 6_556 ?
O2 O1 O2 162.21(3) . 6_556 ?
O1 O1 O2 102.96(2) 2 6_556 ?
O2 O1 O2 107.20(2) 2 6_556 ?
O2 O1 O2 80.27(2) 4_545 6_556 ?
O3 O1 O2 51.472(15) 7_556 6_556 ?
O2 O1 O2 108.68(2) 8_556 6_556 ?
O3 O1 O2 138.30(2) 3_545 6_556 ?
O3 O1 O2 53.944(14) 1_545 6_556 ?
S O1 O2 113.11(3) . 7_556 ?
Fe O1 O2 76.848(19) 4_545 7_556 ?
O2 O1 O2 108.60(2) . 7_556 ?
O1 O1 O2 140.48(2) 2 7_556 ?
O2 O1 O2 81.609(19) 2 7_556 ?
O2 O1 O2 116.12(2) 4_545 7_556 ?
O3 O1 O2 58.331(18) 7_556 7_556 ?
O2 O1 O2 44.237(17) 8_556 7_556 ?
O3 O1 O2 100.944(19) 3_545 7_556 ?
O3 O1 O2 132.719(17) 1_545 7_556 ?
O2 O1 O2 79.767(16) 6_556 7_556 ?
S O2 Fe 132.61(3) . . ?
S O2 O1 35.240(16) . . ?
Fe O2 O1 162.41(3) . . ?
S O2 O2 35.776(19) . 2 ?
Fe O2 O2 102.902(18) . 2 ?
O1 O2 O2 60.312(19) . 2 ?
S O2 O1 34.648(17) . 2 ?
Fe O2 O1 118.14(3) . 2 ?
O1 O2 O1 59.89(3) . 2 ?
O2 O2 O1 59.579(18) 2 2 ?
S O2 O3 109.54(3) . 3_545 ?
Fe O2 O3 117.75(2) . 3_545 ?
O1 O2 O3 75.48(2) . 3_545 ?
O2 O2 O3 131.53(3) 2 3_545 ?
O1 O2 O3 114.84(3) 2 3_545 ?
S O2 O1 161.75(3) . 4 ?
Fe O2 O1 48.302(16) . 4 ?
O1 O2 O1 137.06(2) . 4 ?
O2 O2 O1 129.655(16) 2 4 ?
O1 O2 O1 162.03(3) 2 4 ?
O3 O2 O1 71.99(2) 3_545 4 ?
S O2 O3 135.09(3) . 5_565 ?
Fe O2 O3 48.342(16) . 5_565 ?
O1 O2 O3 147.39(3) . 5_565 ?
O2 O2 O3 135.63(3) 2 5_565 ?
O1 O2 O3 100.73(2) 2 5_565 ?
O3 O2 O3 92.432(18) 3_545 5_565 ?
O1 O2 O3 61.666(17) 4 5_565 ?
S O2 O1 92.04(2) . 8_455 ?
Fe O2 O1 43.205(13) . 8_455 ?
O1 O2 O1 127.22(3) . 8_455 ?
O2 O2 O1 73.37(2) 2 8_455 ?
O1 O2 O1 76.06(2) 2 8_455 ?
O3 O2 O1 155.09(2) 3_545 8_455 ?
O1 O2 O1 91.51(2) 4 8_455 ?
O3 O2 O1 62.952(16) 5_565 8_455 ?
S O2 O3 102.68(2) . . ?
Fe O2 O3 46.171(13) . . ?
O1 O2 O3 117.29(2) . . ?
O2 O2 O3 66.902(10) 2 . ?
O1 O2 O3 116.70(2) 2 . ?
O3 O2 O3 125.48(2) 3_545 . ?
O1 O2 O3 64.576(17) 4 . ?
O3 O2 O3 94.513(16) 5_565 . ?
O1 O2 O3 57.757(13) 8_455 . ?
S O2 O1 96.06(2) . 6 ?
Fe O2 O1 110.79(2) . 6 ?
O1 O2 O1 85.802(17) . 6 ?
O2 O2 O1 130.597(15) 2 6 ?
O1 O2 O1 72.80(2) 2 6 ?
O3 O2 O1 58.133(17) 3_545 6 ?
O1 O2 O1 99.735(19) 4 6 ?
O3 O2 O1 62.482(19) 5_565 6 ?
O1 O2 O1 108.67(2) 8_455 6 ?
O3 O2 O1 156.891(19) . 6 ?
S O2 O1 82.62(2) . 7_556 ?
Fe O2 O1 96.79(2) . 7_556 ?
O1 O2 O1 71.40(2) . 7_556 ?
O2 O2 O1 62.39(2) 2 7_556 ?
O1 O2 O1 116.80(2) 2 7_556 ?
O3 O2 O1 86.496(19) 3_545 7_556 ?
O1 O2 O1 79.305(16) 4 7_556 ?
O3 O2 O1 139.04(2) 5_565 7_556 ?
O1 O2 O1 109.18(2) 8_455 7_556 ?
O3 O2 O1 55.154(13) . 7_556 ?
O1 O2 O1 142.145(18) 6 7_556 ?
Fe O3 Fe 121.26(3) . 2 ?
Fe O3 O2 111.938(14) . 3_455 ?
Fe O3 O2 88.160(13) 2 3_455 ?
Fe O3 O2 88.160(13) . 4 ?
Fe O3 O2 111.938(14) 2 4 ?
O2 O3 O2 139.25(3) 3_455 4 ?
Fe O3 O1 45.147(13) . 8_455 ?
Fe O3 O1 103.53(2) 2 8_455 ?
O2 O3 O1 70.395(17) 3_455 8_455 ?
O2 O3 O1 132.079(16) 4 8_455 ?
Fe O3 O1 103.53(2) . 7_556 ?
Fe O3 O1 45.147(13) 2 7_556 ?
O2 O3 O1 132.079(15) 3_455 7_556 ?
O2 O3 O1 70.395(17) 4 7_556 ?
O1 O3 O1 122.55(3) 8_455 7_556 ?
Fe O3 O2 159.79(2) . 6_566 ?
Fe O3 O2 43.671(11) 2 6_566 ?
O2 O3 O2 83.668(17) 3_455 6_566 ?
O2 O3 O2 87.568(18) 4 6_566 ?
O1 O3 O2 139.677(17) 8_455 6_566 ?
O1 O3 O2 56.524(15) 7_556 6_566 ?
Fe O3 O2 43.671(11) . 5_565 ?
Fe O3 O2 159.79(2) 2 5_565 ?
O2 O3 O2 87.568(18) 3_455 5_565 ?
O2 O3 O2 83.668(17) 4 5_565 ?
O1 O3 O2 56.524(15) 8_455 5_565 ?
O1 O3 O2 139.677(17) 7_556 5_565 ?
O2 O3 O2 154.66(3) 6_566 5_565 ?
Fe O3 O2 41.817(14) . . ?
Fe O3 O2 80.97(2) 2 . ?
O2 O3 O2 125.48(2) 3_455 . ?
O2 O3 O2 93.447(14) 4 . ?
O1 O3 O2 60.947(18) 8_455 . ?
O1 O3 O2 66.516(19) 7_556 . ?
O2 O3 O2 118.83(2) 6_566 . ?
O2 O3 O2 85.487(16) 5_565 . ?
Fe O3 O2 80.97(2) . 2 ?
Fe O3 O2 41.817(14) 2 2 ?
O2 O3 O2 93.447(14) 3_455 2 ?
O2 O3 O2 125.48(2) 4 2 ?
O1 O3 O2 66.516(19) 8_455 2 ?
O1 O3 O2 60.947(18) 7_556 2 ?
O2 O3 O2 85.487(16) 6_566 2 ?
O2 O3 O2 118.83(2) 5_565 2 ?
O2 O3 O2 46.20(2) . 2 ?
Fe O3 O1 120.73(2) . 3_455 ?
Fe O3 O1 41.835(11) 2 3_455 ?
O2 O3 O1 47.487(15) 3_455 3_455 ?
O2 O3 O1 147.347(15) 4 3_455 ?
O1 O3 O1 79.818(16) 8_455 3_455 ?
O1 O3 O1 86.983(18) 7_556 3_455 ?
O2 O3 O1 60.004(15) 6_566 3_455 ?
O2 O3 O1 127.203(15) 5_565 3_455 ?
O2 O3 O1 98.85(2) . 3_455 ?
O2 O3 O1 53.635(14) 2 3_455 ?
Fe O3 O1 41.835(11) . 4 ?
Fe O3 O1 120.73(2) 2 4 ?
O2 O3 O1 147.347(15) 3_455 4 ?
O2 O3 O1 47.487(14) 4 4 ?
O1 O3 O1 86.983(18) 8_455 4 ?
O1 O3 O1 79.818(16) 7_556 4 ?
O2 O3 O1 127.203(15) 6_566 4 ?
O2 O3 O1 60.004(15) 5_565 4 ?
O2 O3 O1 53.635(14) . 4 ?
O2 O3 O1 98.85(2) 2 4 ?
O1 O3 O1 152.38(3) 3_455 4 ?
Fe O3 H 107.0(11) . . ?
Fe O3 H 109.3(10) 2 . ?
O2 O3 H 119.0(11) 3_455 . ?
O2 O3 H 22.0(11) 4 . ?
O1 O3 H 145.9(10) 8_455 . ?
O1 O3 H 77.5(10) 7_556 . ?
O2 O3 H 73.8(10) 6_566 . ?
O2 O3 H 90.0(10) 5_565 . ?
O2 O3 H 115.0(11) . . ?
O2 O3 H 138.3(11) 2 . ?
O1 O3 H 132.1(10) 3_455 . ?
O1 O3 H 68.5(11) 4 . ?
Fe O3 H 109.3(10) . 2 ?
Fe O3 H 107.0(11) 2 2 ?
O2 O3 H 22.0(11) 3_455 2 ?
O2 O3 H 119.0(11) 4 2 ?
O1 O3 H 77.5(10) 8_455 2 ?
O1 O3 H 145.9(10) 7_556 2 ?
O2 O3 H 90.0(10) 6_566 2 ?
O2 O3 H 73.8(10) 5_565 2 ?
O2 O3 H 138.3(11) . 2 ?
O2 O3 H 115.0(11) 2 2 ?
O1 O3 H 68.5(11) 3_455 2 ?
O1 O3 H 132.1(11) 4 2 ?
H O3 H 101(2) . 2 ?
loop_
_geom_bond_atom_site_label_1
_geom_bond_atom_site_label_2
_geom_bond_distance
_geom_bond_site_symmetry_2
_geom_bond_publ_flag
Fe O2 2.0547(5) . ?
Fe O2 2.0547(5) 5_565 ?
Fe O1 2.1093(6) 8_455 ?
Fe O1 2.1093(6) 4 ?
Fe O3 2.2232(4) 5_565 ?
Fe O3 2.2232(4) . ?
Fe O2 3.4692(6) 8_455 ?
Fe O2 3.4692(6) 4 ?
Fe O2 3.5041(6) 6_565 ?
Fe O2 3.5041(6) 2 ?
S O1 1.4655(5) 2 ?
S O1 1.4656(5) . ?
S O2 1.4892(5) 2 ?
S O2 1.4892(5) . ?
O1 O2 2.4035(7) . ?
O1 O1 2.4086(10) 2 ?
O1 O2 2.4214(7) 2 ?
O1 O2 2.8143(7) 4_545 ?
O1 O3 2.9698(7) 7_556 ?
O1 O2 3.0694(8) 8_556 ?
O1 O3 3.1565(6) 3_545 ?
O1 O3 3.2623(9) 1_545 ?
O1 O2 3.2941(7) 6_556 ?
O1 O2 3.3189(8) 7_556 ?
O2 O2 2.4165(9) 2 ?
O2 O3 2.7356(6) 3_545 ?
O2 O3 2.9738(6) 5_565 ?
O2 O3 3.0798(8) . ?
O3 H 0.856(16) . ?
O3 H 0.856(16) 2 ?
loop_
_geom_hbond_atom_site_label_D
_geom_hbond_atom_site_label_H
_geom_hbond_atom_site_label_A
_geom_hbond_distance_DH
_geom_hbond_distance_HA
_geom_hbond_distance_DA
_geom_hbond_angle_DHA
_geom_hbond_site_symmetry_A
_geom_hbond_publ_flag
O3 H O2 0.856(16) 1.968(15) 2.7356(6) 148.6(15) 4 yes
