#------------------------------------------------------------------------------
#$Date: 2022-01-01 07:13:54 +0200 (Sat, 01 Jan 2022) $
#$Revision: 271676 $
#$URL: file:///home/coder/svn-repositories/cod/cif/1/56/58/1565872.cif $
#------------------------------------------------------------------------------
#
# This file is available in the Crystallography Open Database (COD),
# http://www.crystallography.net/. The original data for this entry
# were provided by IUCr Journals, http://journals.iucr.org/.
#
# The file may be used within the scientific community so long as
# proper attribution is given to the journal article from which the
# data were obtained.
#
data_1565872
loop_
_publ_author_name
'Olejniczak, Anna'
'Katrusiak, Anna'
'Podsiad\/lo, Marcin'
'Katrusiak, Andrzej'
_publ_section_title
;
 Stochastic hydration of a high-nitrogen-content molecular compound
 recrystallized under pressure
;
_journal_issue                   1
_journal_name_full               IUCrJ
_journal_page_first              49
_journal_page_last               54
_journal_paper_doi               10.1107/S2052252521010381
_journal_volume                  9
_journal_year                    2022
_chemical_formula_moiety         'C4 H2 Cl N5'
_chemical_formula_sum            'C4 H2 Cl N5'
_chemical_formula_weight         155.56
_chemical_name_systematic        6-chloro-1,2,3,4-tetrazolo[1,5-b]pyridazine
_space_group_crystal_system      orthorhombic
_space_group_IT_number           19
_space_group_name_Hall           'P 2ac 2ab'
_space_group_name_H-M_alt        'P 21 21 21'
_atom_sites_solution_hydrogens   geom
_atom_sites_solution_primary     direct
_audit_creation_date             2020-07-14
_audit_creation_method
;
Olex2 1.3
(compiled 2020.06.28 svn.raecde09e for OlexSys, GUI svn.r6132)
;
_cell_angle_alpha                90
_cell_angle_beta                 90
_cell_angle_gamma                90
_cell_formula_units_Z            4
_cell_length_a                   7.02910(10)
_cell_length_b                   8.75390(10)
_cell_length_c                   9.9932(2)
_cell_measurement_reflns_used    2774
_cell_measurement_temperature    150.0(1)
_cell_measurement_theta_max      64.1850
_cell_measurement_theta_min      5.0570
_cell_volume                     614.902(17)
_computing_cell_refinement       'CrysAlisPro 1.171.40.67a (Rigaku OD, 2019)'
_computing_data_collection       'CrysAlisPro 1.171.40.67a (Rigaku OD, 2019)'
_computing_data_reduction        'CrysAlisPro 1.171.40.67a (Rigaku OD, 2019)'
_computing_molecular_graphics    'Olex2 1.3 (Dolomanov et al., 2009)'
_computing_publication_material  'Olex2 1.3 (Dolomanov et al., 2009)'
_computing_structure_refinement  'SHELXL 2018/3 (Sheldrick, 2015)'
_computing_structure_solution    'SHELXT 2018/2 (Sheldrick, 2018)'
_diffrn_ambient_environment      N~2~
_diffrn_ambient_temperature      150.0(1)
_diffrn_detector                 'CCD plate'
_diffrn_detector_area_resol_mean 10.5357
_diffrn_detector_type            Atlas
_diffrn_measured_fraction_theta_full 0.991
_diffrn_measured_fraction_theta_max 0.991
_diffrn_measurement_details
;
List of Runs (angles in degrees, time in seconds):

  # Type    Start    End  Width  t~exp~   \w     \q     \k     \f   Frames
--------------------------------------------------------------------------
  1  \w     13.00 116.00   1.00    1.25    --   41.73  77.00 150.00  103
  2  \w     13.00  88.00   1.00    1.25    --   41.73-125.00  60.00   75
  3  \w     40.00  99.00   1.00    1.25    --   41.73  37.00 -90.00   59
  4  \w     16.00  51.00   1.00    2.50    --   88.44 -45.00 150.00   35
  5  \w     36.00 158.00   1.00    2.50    --   88.44  15.00  60.00  122
  6  \w      8.00 106.00   1.00    2.50    --   88.44 -94.00 120.00   98
  7  \w     37.00  77.00   1.00    2.50    --   88.44 -45.00  90.00   40
  8  \w     44.00  70.00   1.00    2.50    --   88.44 -45.00-120.00   26
  9  \w     16.00 109.00   1.00    2.50    --   88.44 -94.00-120.00   93
 10  \w     26.00  75.00   1.00    2.50    --   88.44 -45.00   0.00   49
 11  \w     42.00  81.00   1.00    2.50    --   88.44 -94.00   0.00   39
 12  \w     85.00 111.00   1.00    2.50    --   88.44 125.00  90.00   26
 13  \w    116.00 146.00   1.00    2.50    --   88.44 125.00  90.00   30
 14  \w     68.00 107.00   1.00    2.50    --   88.44-125.00  90.00   39
 15  \w     75.00 156.00   1.00    2.50    --   88.44  61.00 -90.00   81
;
_diffrn_measurement_device       'four-circle diffractometer'
_diffrn_measurement_device_type
'SuperNova, Single source at offset/far, Atlas'
_diffrn_measurement_method       '\w scans'
_diffrn_orient_matrix_type
'CrysAlisPro convention (1999,Acta A55,543-557)'
_diffrn_orient_matrix_UB_11      0.0553875000
_diffrn_orient_matrix_UB_12      0.0078775000
_diffrn_orient_matrix_UB_13      -0.1489813000
_diffrn_orient_matrix_UB_21      -0.0492096000
_diffrn_orient_matrix_UB_22      0.1715017000
_diffrn_orient_matrix_UB_23      -0.0021410000
_diffrn_orient_matrix_UB_31      0.2062855000
_diffrn_orient_matrix_UB_32      0.0388060000
_diffrn_orient_matrix_UB_33      0.0394289000
_diffrn_radiation_monochromator  mirror
_diffrn_radiation_probe          x-ray
_diffrn_radiation_type           'Cu K\a'
_diffrn_radiation_wavelength     1.54184
_diffrn_reflns_av_R_equivalents  0.0162
_diffrn_reflns_av_unetI/netI     0.0148
_diffrn_reflns_Laue_measured_fraction_full 0.991
_diffrn_reflns_Laue_measured_fraction_max 0.991
_diffrn_reflns_limit_h_max       8
_diffrn_reflns_limit_h_min       -6
_diffrn_reflns_limit_k_max       10
_diffrn_reflns_limit_k_min       -9
_diffrn_reflns_limit_l_max       11
_diffrn_reflns_limit_l_min       -10
_diffrn_reflns_number            3613
_diffrn_reflns_point_group_measured_fraction_full 0.980
_diffrn_reflns_point_group_measured_fraction_max 0.979
_diffrn_reflns_theta_full        64.822
_diffrn_reflns_theta_max         64.822
_diffrn_reflns_theta_min         6.723
_diffrn_source                   'micro-focus sealed X-ray tube'
_diffrn_source_type              'SuperNova (Cu) X-ray Source'
_exptl_absorpt_coefficient_mu    4.857
_exptl_absorpt_correction_T_max  1.00000
_exptl_absorpt_correction_T_min  0.67449
_exptl_absorpt_correction_type   multi-scan
_exptl_absorpt_process_details
;
CrysAlisPro 1.171.40.67a (Rigaku Oxford Diffraction, 2019)
Empirical absorption correction using spherical harmonics,
 implemented in SCALE3 ABSPACK scaling algorithm.
;
_exptl_crystal_colour            colourless
_exptl_crystal_density_diffrn    1.680
_exptl_crystal_description       plate
_exptl_crystal_F_000             312
_exptl_crystal_size_max          0.50
_exptl_crystal_size_mid          0.20
_exptl_crystal_size_min          0.15
_refine_diff_density_max         0.135
_refine_diff_density_min         -0.147
_refine_diff_density_rms         0.034
_refine_ls_abs_structure_details
;
 Flack x determined using 380 quotients [(I+)-(I-)]/[(I+)+(I-)]
 (Parsons, Flack and Wagner, Acta Cryst. B69 (2013) 249-259).
;
_refine_ls_abs_structure_Flack   0.491(6)
_refine_ls_extinction_method     none
_refine_ls_goodness_of_fit_ref   1.066
_refine_ls_hydrogen_treatment    constr
_refine_ls_matrix_type           full
_refine_ls_number_parameters     91
_refine_ls_number_reflns         1023
_refine_ls_number_restraints     0
_refine_ls_restrained_S_all      1.066
_refine_ls_R_factor_all          0.0309
_refine_ls_R_factor_gt           0.0305
_refine_ls_shift/su_max          0.000
_refine_ls_shift/su_mean         0.000
_refine_ls_structure_factor_coef Fsqd
_refine_ls_weighting_details
'w=1/[\s^2^(Fo^2^)+(0.0380P)^2^+0.4114P] where P=(Fo^2^+2Fc^2^)/3'
_refine_ls_weighting_scheme      calc
_refine_ls_wR_factor_gt          0.0780
_refine_ls_wR_factor_ref         0.0783
_reflns_Friedel_coverage         0.629
_reflns_Friedel_fraction_full    0.963
_reflns_Friedel_fraction_max     0.961
_reflns_number_gt                1010
_reflns_number_total             1023
_reflns_threshold_expression     'I > 2\s(I)'
_cod_data_source_file            lt5042.cif
_cod_data_source_block           C4H2N5Cl1@150K_phase_alpha
_cod_database_code               1565872
_shelx_shelxl_version_number     2018/3
_chemical_oxdiff_formula         C4H2N5Cl1
_shelx_space_group_comment
;
The symmetry employed for this shelxl refinement is uniquely defined
by the following loop, which should always be used as a source of
symmetry information in preference to the above space-group names.
They are only intended as comments.
;
_reflns_odcompleteness_completeness 99.08
_reflns_odcompleteness_iscentric 1
_reflns_odcompleteness_theta     64.72
_olex2_refinement_description
;
1. Fixed Uiso
 At 1.2 times of:
  All C(H) groups
2.a Aromatic/amide H refined with riding coordinates:
 C7(H7), C8(H8)
;
_shelx_res_file
;
TITL 1a_a.res in P2(1)2(1)2(1)
    1a.res
    created by SHELXL-2018/3 at 12:49:47 on 14-Jul-2020
REM Old TITL 1a in P2(1)2(1)2(1)
REM SHELXT solution in P2(1)2(1)2(1): R1 0.113, Rweak 0.018, Alpha 0.002
REM <I/s> 1.330 for 15 systematic absences, Orientation as input
REM Flack x = 0.495 ( 0.006 ) from 386 Parsons' quotients
REM Formula found by SHELXT: C8 N Cl
CELL 1.54184 7.0291 8.7539 9.9932 90 90 90
ZERR 4 0.0001 0.0001 0.0002 0 0 0
LATT -1
SYMM 0.5-X,-Y,0.5+Z
SYMM -X,0.5+Y,0.5-Z
SYMM 0.5+X,0.5-Y,-Z
SFAC C H Cl N
UNIT 16 8 4 20

L.S. 44
PLAN  5
CONF
BOND
list 4
MORE -1
BOND $H
fmap 2 53
acta
REM <olex2.extras>
REM <HklSrc "%.\\1a.hkl">
REM </olex2.extras>

WGHT    0.038000    0.411400
FVAR       1.14063
CL1   3    0.289576    0.332112    0.318617    11.00000    0.04709    0.02346 =
         0.05141   -0.00242    0.01112   -0.00132
N4    4    0.360155    0.747664    0.411331    11.00000    0.03477    0.02498 =
         0.02281   -0.00075   -0.00007   -0.00299
N5    4    0.370048    0.593721    0.417558    11.00000    0.03673    0.02585 =
         0.02732    0.00354    0.00265   -0.00018
N3    4    0.435514    0.838029    0.505920    11.00000    0.04826    0.03617 =
         0.02872   -0.00513   -0.00453   -0.00619
N2    4    0.397722    0.977148    0.466159    11.00000    0.05463    0.03276 =
         0.04048   -0.00890    0.00281   -0.00625
N1    4    0.300724    0.981300    0.348995    11.00000    0.04604    0.02756 =
         0.03893   -0.00269    0.00478   -0.00118
C9    1    0.278054    0.834721    0.314809    11.00000    0.03357    0.02564 =
         0.02541    0.00317    0.00513    0.00116
C7    1    0.198711    0.604708    0.206663    11.00000    0.03907    0.03628 =
         0.02323   -0.00620    0.00093   -0.00345
AFIX  43
H7    2    0.144544    0.548845    0.137277    11.00000   -1.20000
AFIX   0
C6    1    0.287144    0.529023    0.316036    11.00000    0.03299    0.02463 =
         0.03029   -0.00214    0.00765   -0.00052
C8    1    0.194487    0.758934    0.204968    11.00000    0.03723    0.03742 =
         0.02406    0.00397    0.00084    0.00263
AFIX  43
H8    2    0.139126    0.812618    0.134733    11.00000   -1.20000
AFIX   0
HKLF 4




REM  1a_a.res in P2(1)2(1)2(1)
REM wR2 = 0.0783, GooF = S = 1.066, Restrained GooF = 1.066 for all data
REM R1 = 0.0305 for 1010 Fo > 4sig(Fo) and 0.0309 for all 1023 data
REM 91 parameters refined using 0 restraints

END

WGHT      0.0380      0.4114

REM Highest difference peak  0.135,  deepest hole -0.147,  1-sigma level  0.034
Q1    1   0.2593  0.5655  0.2584  11.00000  0.05    0.14
Q2    1   0.4089  0.3414  0.3615  11.00000  0.05    0.13
Q3    1   0.2852  1.0446  0.3142  11.00000  0.05    0.13
Q4    1   0.1779  0.3525  0.2317  11.00000  0.05    0.13
Q5    1   0.2749  0.7862  0.3571  11.00000  0.05    0.12
;
_shelx_res_checksum              30820
_shelx_hkl_file
;
   0   0  -1    0.24    0.22
   0   0  -2 1932.46   28.41
   0   0  -3    0.23    0.65
   0   0  -4   22.23    1.85
   0   0  -5    0.79    1.02
   0   0   6 1973.42   31.13
   0   0  -6 1986.00   34.92
   0   0   7    2.01    0.69
   0   0   7    0.76    0.82
   0   0  -8 1319.11   27.95
   0   0   8 1351.87   23.06
   0   0   8 1360.09   22.78
   0   0   9   -0.79    0.43
   0   0   9   -0.14    0.98
   0   0  10  573.59   11.95
   0   0  10  542.93   11.19
   0   0  11   -0.44    0.83
   0   1   0    1.49    0.22
   0   1   0    0.44    0.33
   0   1  -1 1588.69   23.14
   0  -1  -1 1610.74   23.32
   0  -1  -2   42.84    1.87
   0   1  -2   40.57    1.73
   0   1  -3 4978.76   71.53
   0  -1  -3 5002.42   71.74
   0  -1  -4   30.47    2.17
   0   1  -4   31.96    2.22
   0  -1  -5 1864.52   31.42
   0   1  -5 1886.25   31.20
   0   1  -6    2.92    1.15
   0   1   6    2.55    0.75
   0  -1   6    2.06    0.79
   0  -1  -6    1.87    0.90
   0  -1   6    2.09    0.68
   0   1   7   59.72    2.93
   0   1  -7   67.85    4.43
   0  -1   7   59.01    2.85
   0  -1  -7   64.73    4.54
   0   1   7   66.88    3.10
   0  -1  -8   88.70    5.91
   0   1   8  101.22    3.95
   0   1   8  100.78    4.14
   0   1  -8   94.04    5.85
   0  -1   8   96.93    3.94
   0  -1   8   99.41    4.05
   0  -1   9   66.46    3.37
   0   1   9   57.49    3.18
   0   1   9   61.82    3.13
   0  -1   9   62.13    3.15
   0   1  10  226.89    6.67
   0  -1  10  219.21    6.13
   0  -1  10  221.94    6.38
   0   1  11   25.67    1.91
   0  -1  11   25.19    1.80
   0   2   0  253.98    4.28
   0   2   0  249.81    5.42
   0  -2  -1 1454.35   22.04
   0   2  -1 1444.25   22.28
   0   2  -2  492.45    9.18
   0  -2  -2  512.67    9.55
   0   2  -2  489.78    9.52
   0   2  -3  533.68   10.50
   0  -2  -3  547.65   10.86
   0   2  -4   12.39    1.55
   0  -2  -4   11.03    1.53
   0  -2   5  947.46   15.77
   0  -2  -5  948.95   18.72
   0  -2   5  941.88   15.52
   0   2  -5  951.56   18.36
   0   2   5  926.85   15.60
   0   2   6   11.95    1.31
   0   2   6   11.52    1.21
   0  -2  -6   10.64    1.84
   0  -2   6   10.58    1.09
   0  -2   6   12.53    1.31
   0   2   7  735.05   13.85
   0  -2   7  741.05   13.90
   0   2   7  730.68   14.01
   0  -2  -7  688.96   17.48
   0  -2   7  728.99   13.65
   0   2  -7  721.15   17.68
   0   2   8   71.30    3.45
   0   2  -8   75.39    5.33
   0   2   8   71.54    3.33
   0  -2   8   68.67    3.31
   0  -2  -8   73.29    5.45
   0  -2   8   72.19    3.38
   0  -2   9    4.36    1.22
   0   2   9    3.44    1.21
   0  -2   9    2.79    1.04
   0   2  10  238.90    6.61
   0  -2  10  233.74    6.35
   0  -2  10  237.58    6.50
   0  -2  11    4.15    0.84
   0   2  11    3.86    1.03
   0   3   0    0.92    0.30
   0   3   0    0.05    0.73
   0  -3  -1  355.61    7.54
   0   3  -1  358.66    7.99
   0   3  -1  361.86    6.65
   0  -3  -2 2564.61   39.37
   0   3  -2 2630.00   39.74
   0   3  -3   16.07    1.83
   0  -3  -3   15.94    1.70
   0   3   4   74.27    2.64
   0   3  -4   70.82    3.78
   0  -3   4   65.50    2.54
   0  -3  -4   65.90    3.66
   0   3   5  121.18    3.80
   0  -3   5  121.54    3.65
   0   3  -5  112.04    5.40
   0  -3   5  116.88    3.84
   0  -3  -5  122.77    5.50
   0   3   6   50.66    2.62
   0  -3   6   46.80    2.50
   0  -3  -6   52.30    3.81
   0   3  -6   44.62    3.61
   0  -3   6   51.28    2.43
   0  -3   7    5.43    1.09
   0   3   7    4.09    0.83
   0   3   7    4.81    1.05
   0   3   7    6.98    1.19
   0   3  -7    4.83    2.18
   0  -3   7    6.89    1.10
   0  -3   8  267.55    7.05
   0   3   8  269.60    7.52
   0  -3   8  260.77    7.21
   0  -3   9   25.77    2.20
   0   3   9   25.78    2.29
   0  -3   9   24.77    1.97
   0  -3  10    4.93    0.99
   0   3  10    3.69    1.11
   0  -3  10    3.74    1.01
   0   3  11    0.55    0.70
   0  -3  11    2.02    0.66
   0   4   0   40.62    2.67
   0   4  -1 4242.36   64.15
   0  -4  -1 4326.50   62.94
   0  -4  -2  111.83    4.36
   0   4  -2  107.41    4.58
   0   4  -2  112.92    3.62
   0   4  -3  302.06    8.59
   0  -4   3  296.60    6.58
   0  -4  -3  319.72    8.46
   0   4   3  308.37    6.63
   0  -4  -4  126.11    5.41
   0  -4   4  130.48    4.01
   0   4  -4  120.32    5.54
   0   4   4  124.46    3.70
   0   4   4  125.95    3.94
   0  -4   5  338.57    7.28
   0   4   5  337.16    7.71
   0  -4  -5  330.99   10.21
   0   4  -5  323.87   10.37
   0   4   5  334.41    7.21
   0  -4   5  345.66    7.84
   0   4   6   72.43    3.28
   0   4  -6   67.37    4.66
   0  -4   6   69.81    3.29
   0  -4  -6   72.88    4.81
   0  -4   6   71.65    2.97
   0  -4   7  395.77    8.69
   0  -4  -7  374.84   12.40
   0   4   7  389.39    9.49
   0   4   7  380.25    9.20
   0  -4   7  389.89    9.21
   0   4  -7  370.68   12.59
   0   4   8   18.64    1.99
   0  -4   8   20.82    1.89
   0  -4   9  632.22   12.72
   0   4   9  632.05   13.03
   0   4  10   35.80    2.20
   0  -4  10   40.15    2.19
   0  -5   0    1.32    0.69
   0   5   0   -0.17    0.65
   0   5   0    1.59    0.67
   0   5   1  680.79   12.21
   0   5  -1  669.61   12.03
   0  -5  -1  666.40   13.67
   0  -5  -1  678.91   12.06
   0   5  -1  657.10   11.90
   0  -5   1  666.78   12.04
   0   5   1  669.03   12.01
   0   5  -1  658.74   14.73
   0   5  -2    1.90    1.10
   0  -5  -2    1.18    0.43
   0  -5   2    1.04    0.61
   0  -5  -2    3.62    0.92
   0   5  -2    0.68    0.61
   0   5  -2    3.88    0.64
   0   5   2    2.29    0.63
   0   5   3 1105.86   18.49
   0  -5   3 1095.38   18.53
   0   5  -3 1112.62   22.08
   0  -5  -3 1101.88   21.18
   0   5  -3 1088.20   18.27
   0   5  -4 1061.69   18.02
   0   5  -4 1059.99   22.09
   0   5   4 1034.92   17.82
   0  -5   4 1058.12   18.34
   0  -5  -4 1095.57   21.65
   0   5   4 1073.56   18.29
   0   5  -5    3.01    1.60
   0   5   5    5.42    0.91
   0  -5   5    5.09    1.11
   0  -5  -5    4.15    1.47
   0   5   5    3.22    1.04
   0   5   6  142.98    4.99
   0   5  -6  154.18    7.35
   0  -5   6  144.34    5.04
   0  -5   7   32.27    2.42
   0   5   7   30.63    2.46
   0  -5   8    9.61    1.55
   0   5   8    7.55    1.56
   0  -5   9  156.78    4.96
   0   5   9  154.42    5.08
   0  -5  10    2.91    0.69
   0   6   0 1378.46   22.73
   0   6   0 1373.94   22.43
   0  -6   0 1388.37   22.70
   0   6  -1   84.10    3.23
   0   6  -1   86.53    3.46
   0  -6   1   88.98    3.51
   0   6   1   87.39    3.42
   0   6  -1   87.36    4.95
   0  -6  -1   95.16    3.56
   0   6   1   85.58    3.52
   0   6   2  266.97    6.75
   0   6  -2  267.68    6.65
   0   6  -2  268.54    6.49
   0  -6   2  268.02    6.79
   0   6  -2  269.74    9.25
   0   6   3   28.16    2.03
   0  -6   3   28.62    2.14
   0   6  -3   29.28    1.99
   0   6   3   30.47    2.02
   0   6  -3   27.13    3.06
   0   6   4   21.65    1.92
   0   6   4   21.23    1.82
   0   6  -4   20.74    2.94
   0   6  -4   19.55    1.81
   0  -6   4   19.88    1.87
   0   6  -5   11.58    2.13
   0   6   5   12.04    1.43
   0  -6   5   10.53    1.48
   0   6   5    8.85    1.57
   0   6  -5   12.33    1.52
   0   6   6 2077.03   33.31
   0  -6   6 2025.73   33.12
   0   6   7    6.50    1.39
   0  -6   7    6.36    1.42
   0   6   8   76.52    3.56
   0  -6   8   78.38    3.45
   0  -6   9    5.71    0.98
   0   6   9    6.49    0.91
   0   7   0   -0.42    0.51
   0   7   0   -0.01    0.53
   0  -7   0   -0.21    0.65
   0  -7  -1    3.56    0.96
   0   7  -1    3.83    0.87
   0   7   1    3.63    0.99
   0  -7   1    4.92    1.17
   0   7  -1    4.53    1.14
   0   7   2   11.85    1.46
   0   7  -2   13.52    1.58
   0  -7   2   11.94    1.61
   0   7  -3   96.41    5.93
   0   7   3  100.32    3.97
   0  -7   3  106.38    4.26
   0   7   3  101.58    4.04
   0   7  -3  105.95    4.01
   0   7  -4  127.19    4.39
   0   7   4  120.06    4.60
   0   7   4  126.69    4.54
   0  -7   4  127.84    4.78
   0   7   5  334.08    8.01
   0   7   5  318.86    8.23
   0  -7   5  339.41    8.48
   0  -7   6    6.51    1.31
   0   7   6    9.50    1.44
   0  -7   7   31.94    2.17
   0   7   7   31.41    2.31
   0   7   7   31.21    2.24
   0   7   8    0.79    0.64
   0  -7   8    0.92    0.56
   0  -7   8   -0.15    0.59
   0  -8   0    1.38    0.99
   0   8   0    0.68    0.88
   0   8  -1  823.52   15.43
   0   8   1  805.12   15.09
   0  -8   1  804.22   15.53
   0  -8   2   52.47    3.01
   0   8   2   53.82    2.95
   0   8  -2   49.25    2.81
   0   8   2   49.42    2.80
   0   8   3   13.33    1.61
   0   8   3   12.63    1.54
   0  -8   3   10.71    1.51
   0   8   4    0.96    0.76
   0   8   4    1.97    0.89
   0  -8   4    2.18    1.14
   0   8   5   34.17    2.28
   0  -8   5   31.66    2.26
   0   8   5   30.85    2.01
   0  -8   6  144.67    4.63
   0   8   6  135.42    4.48
   0  -8   7  149.46    4.38
   0   8   7  145.33    4.39
   0   9   0   -0.35    0.79
   0  -9   1  114.25    4.23
   0   9   1  113.42    3.83
   0   9   1  119.21    4.27
   0   9   2  209.09    5.88
   0  -9   2  202.18    5.88
   0   9   2  206.74    5.56
   0   9   3   20.57    1.69
   0   9   3   22.60    1.77
   0  -9   3   18.87    1.66
   0  -9   4  306.17    7.17
   0   9   4  292.98    6.88
   0   9   4  292.05    6.86
   0   9   5   14.62    1.35
   0  -9   5   16.34    1.51
   0  10   0  126.15    3.92
   0  10  -1  240.13    5.76
   0  10   1  249.51    5.95
   0  10  -2   20.76    1.49
   0  10   2   21.13    1.50
   1   0   0    1.32    0.59
  -1   0   0    0.21    0.20
   1   0  -1 1306.08   19.48
   1   0   1 1291.93   19.48
   1   0  -3 1757.75   27.54
  -1   0  -3 1724.86   26.70
   1   0  -4  733.42   14.44
  -1   0  -4  719.48   13.65
   1   0  -5   10.30    1.76
  -1   0   5   14.03    1.23
   1   0   5   12.68    1.15
  -1   0  -5   11.45    1.57
  -1   0   6   70.04    2.67
   1   0   6   68.88    2.98
  -1   0   6   68.51    3.01
   1   0  -6   69.45    4.36
  -1   0  -6   67.46    3.96
  -1   0   7   33.57    2.29
   1   0  -7   30.94    3.36
   1   0   7   31.52    2.32
  -1   0   7   33.77    2.03
  -1   0  -7   31.61    3.06
   1   0   8  217.82    6.57
  -1   0  -8  230.69    9.29
  -1   0   8  222.34    6.12
   1   0   8  224.36    6.69
  -1   0   8  223.49    6.63
   1   0  -8  233.13    9.92
   1   0   9   38.06    2.66
  -1   0   9   33.97    2.56
  -1   0  10  714.35   14.16
   1   0  10  742.37   14.56
  -1   0  10  736.11   14.15
  -1   0  11   32.08    1.94
   1   0  11   33.58    2.17
  -1   1  11   40.01    2.27
   1  -1  11   43.23    2.35
   1  -1  10  132.52    4.59
   1  -1  10  134.50    4.90
  -1   1  10  135.77    4.73
   1  -1   9   74.71    3.62
  -1   1   9   71.17    3.60
  -1   1   9   71.20    3.31
   1  -1   8  490.65   10.32
   1  -1   8  483.81   10.81
   1   1  -8  493.67   15.33
  -1   1   8  494.28   11.07
  -1  -1  -8  503.03   14.78
  -1   1   8  480.75   10.42
   1   1  -7  432.81   13.05
   1  -1   7  417.70    8.91
  -1   1   7  421.88    9.65
  -1   1   7  436.23    9.13
  -1  -1  -7  402.30   12.08
   1  -1   7  409.92    9.25
   1  -1   7  425.87    9.45
  -1   1   6   14.81    1.52
  -1   1   6   16.87    1.37
  -1   1   6   15.03    1.32
   1  -1   6   14.90    1.31
   1  -1   6   17.95    1.56
   1  -1   6   16.57    1.41
   1   1  -6   20.19    2.45
  -1  -1  -6   15.92    2.11
   1  -1   5  488.74    9.37
   1   1  -5  493.67   11.95
  -1  -1  -5  494.92   11.53
  -1  -1  -4  179.05    5.53
   1   1  -4  178.36    5.85
   1   1  -3 1032.78   18.17
  -1  -1  -3 1072.01   17.91
  -1  -1  -2 2090.09   31.91
   1   1  -2 2168.05   32.20
   1   1  -1  837.72   13.87
   1   1  -1  851.94   12.50
   1   1   0  858.02   13.78
   1  -1   0  849.48   12.89
  -1   1   0  880.11   13.43
   1   1   1  813.48   13.62
   1  -1  -1  842.10   13.02
  -1   1  -1  855.14   12.16
  -1   1  -2 2118.57   30.79
   1  -1  -2 2161.86   31.82
   1  -1  -3 1133.85   18.77
  -1   1  -3 1079.00   17.56
  -1   1  -4  174.78    5.07
   1  -1  -4  185.31    5.91
   1   1   5  498.49    9.52
   1  -1  -5  499.27   12.20
  -1   1  -5  490.52   11.08
  -1  -1   5  498.06    9.65
   1  -1  -6   17.02    2.47
   1   1   6   15.22    1.47
  -1   1  -6   18.04    2.21
  -1  -1   6   20.74    1.64
   1   1   7  426.43    9.64
  -1  -1   7  417.31    9.52
  -1   1  -7  449.19   12.28
   1  -1  -7  422.07   12.94
   1  -1  -8  482.44   14.93
  -1  -1   8  481.29   10.84
   1   1   8  503.81   11.16
  -1   1  -8  477.28   13.98
  -1  -1   9   74.37    3.50
   1   1   9   77.43    3.82
  -1  -1   9   79.72    3.80
   1   1   9   82.48    3.95
  -1  -1  10  140.56    4.95
   1   1  10  137.71    5.02
  -1  -1  10  138.47    4.64
  -1  -1  11   39.51    2.23
   1   1  11   40.54    2.37
  -1   2  11   69.57    2.91
   1  -2  11   63.93    2.77
   1  -2  10   71.17    3.36
  -1   2  10   66.63    3.13
  -1   2   9   87.98    3.76
   1  -2   9   88.00    3.92
  -1   2   9   89.16    3.99
  -1   2   8   66.35    3.48
   1  -2   8   70.18    3.24
  -1   2   8   71.95    3.33
   1   2  -8   68.91    5.26
   1  -2   8   63.76    3.29
  -1  -2  -8   73.99    5.32
  -1   2   7   88.92    3.47
  -1   2   7   91.21    3.94
   1  -2   7   87.45    3.49
   1  -2   7   87.21    3.63
  -1   2   7   86.47    3.50
  -1  -2  -7   78.80    5.15
   1   2  -7   86.58    5.42
  -1   2   6  578.29   10.68
   1   2  -6  543.70   14.38
   1  -2   6  561.75   10.79
  -1  -2  -6  519.49   13.73
  -1   2   6  556.37   10.77
   1  -2   6  548.09   10.90
  -1  -2  -5 2727.31   43.73
  -1   2   5 2727.29   39.78
   1   2  -5 2712.38   44.12
   1  -2   5 2695.88   40.03
   1  -2   5 2674.01   40.13
  -1  -2  -4  360.99    9.10
   1   2  -4  353.17    9.26
  -1  -2  -3 2563.88   39.97
   1   2  -3 2607.12   40.16
  -1  -2  -2   44.95    2.38
   1   2  -2   42.90    1.91
   1   2  -1  915.91   15.29
   1   2  -1  903.80   14.41
  -1   2   1  936.44   15.39
  -1   2   0  950.43   15.52
   1   2   0  925.38   15.17
   1  -2   0  926.08   13.41
   1   2   1  906.69   15.03
   1  -2  -1  931.46   14.41
  -1   2  -1  907.85   15.57
   1  -2  -1  925.23   13.45
   1  -2  -2   45.47    2.18
  -1   2  -2   44.40    2.45
  -1   2  -3 2601.54   38.28
   1  -2  -3 2608.86   39.84
   1  -2  -4  346.11    9.00
  -1   2  -4  343.47    7.80
   1  -2  -5 2639.56   44.03
   1   2   5 2666.68   39.83
   1   2   5 2705.11   40.29
  -1   2  -5 2801.71   42.38
  -1  -2   5 2743.65   40.41
   1   2   6  559.16   11.23
  -1  -2   6  555.99   10.47
  -1   2  -6  589.99   13.41
   1  -2  -6  550.78   14.45
  -1  -2   6  543.94   11.03
  -1   2  -7   89.15    5.19
   1   2   7   93.47    3.95
   1  -2  -7   91.02    5.71
  -1  -2   7   88.05    3.78
  -1  -2   7   89.93    3.43
  -1  -2   8   66.23    3.45
  -1  -2   8   68.68    3.13
   1  -2  -8   64.60    5.12
   1   2   8   76.59    3.72
  -1  -2   9   90.20    3.66
   1   2   9   92.29    4.28
  -1  -2   9   86.36    4.00
   1   2  10   74.15    3.53
   1   2  10   77.75    3.60
  -1  -2  10   73.25    3.45
  -1  -2  11   64.20    2.77
   1   2  11   69.35    2.96
  -1   3  11   13.56    1.26
   1  -3   9   72.84    3.45
  -1   3   9   73.34    3.36
  -1   3   9   73.67    3.49
   1  -3   9   66.68    3.17
   1  -3   8  131.13    4.80
   1  -3   8  132.73    4.69
  -1   3   8  132.45    4.72
  -1   3   8  139.70    5.17
   1  -3   7   86.68    3.65
   1   3  -7   82.60    5.19
  -1   3   7   94.42    3.76
   1  -3   7   90.39    3.70
  -1  -3  -7   81.07    5.43
  -1   3   7   95.68    3.84
  -1   3   6  192.83    5.38
   1  -3   6  195.15    5.45
  -1  -3  -6  183.57    7.59
   1   3  -6  193.72    7.37
   1  -3   6  195.20    5.46
  -1  -3  -5   30.15    2.80
  -1   3   5   27.09    1.70
   1   3  -5   28.91    2.63
   1  -3   5   27.46    1.80
   1  -3   5   31.03    1.86
  -1   3   4  175.59    4.43
   1  -3   4  163.24    4.32
  -1  -3  -4  162.19    6.10
   1   3  -4  166.50    5.64
   1  -3   4  167.28    4.43
   1   3  -3  222.95    6.18
  -1  -3  -3  241.41    7.01
  -1  -3  -2  339.69    8.36
   1   3  -2  339.83    7.51
   1   3  -2  341.10    7.94
   1   3  -1  177.62    4.80
   1   3  -1  183.80    5.01
   1  -3   0 2482.21   35.56
  -1   3   0 2422.94   38.21
   1   3   0 2514.28   37.02
   1   3   1  194.34    4.77
   1  -3  -1  185.28    4.51
  -1   3  -2  343.22    8.54
   1  -3  -2  344.46    7.65
   1  -3  -3  235.24    6.69
  -1   3  -3  214.37    6.89
   1  -3  -4  171.81    6.09
   1   3   4  164.32    4.27
  -1  -3   4  165.38    4.48
   1   3   4  166.24    4.45
  -1   3  -4  164.45    6.35
  -1  -3   5   32.86    2.03
   1   3   5   25.14    1.83
   1   3   5   27.91    1.73
   1  -3  -5   28.30    2.86
  -1   3  -5   26.21    2.71
  -1   3  -6  200.18    8.25
   1  -3  -6  186.14    7.87
  -1  -3   6  190.51    5.66
   1   3   6  199.05    5.28
   1   3   6  192.53    5.67
  -1  -3   7   98.75    4.12
   1   3   7   91.45    4.04
   1  -3  -7   98.54    6.10
  -1   3  -7   95.03    6.15
   1   3   8  131.34    5.11
  -1  -3   8  134.60    5.06
   1   3   9   73.72    3.81
  -1  -3   9   68.76    3.54
   1  -3 -10   17.67    1.91
   1   3  10   17.02    1.71
   1   3  10   18.58    1.79
  -1  -3  10   14.38    1.59
   1   3  11   12.26    1.33
   1  -4  10   43.75    2.52
   1  -4   9  132.23    4.51
  -1   4   9  140.54    4.75
  -1   4   9  141.92    4.84
  -1   4   8   15.95    1.91
   1  -4   8   13.96    1.54
  -1   4   8   16.89    1.84
  -1   4   8   15.12    1.69
   1  -4   7   26.15    2.00
  -1  -4  -7   25.40    3.11
  -1   4   7   28.26    2.24
   1  -4   7   31.37    2.22
  -1   4   7   27.08    2.21
  -1   4   6   92.13    3.69
   1  -4   6   88.89    3.62
  -1  -4  -6   84.60    5.31
   1  -4   6   94.69    3.75
   1   4  -6   89.33    5.08
   1   4  -5  600.09   14.31
   1  -4   5  614.56   11.82
  -1   4   5  596.79   11.57
  -1  -4  -5  607.74   15.03
  -1  -4  -4  237.37    8.06
  -1   4   4  233.28    5.82
   1   4  -4  224.13    7.25
   1  -4   4  227.12    5.81
   1   4  -3 1250.95   22.38
  -1  -4  -3 1299.79   23.33
   1   4  -3 1246.39   22.12
   1  -4   3 1227.96   20.03
  -1   4   3 1232.18   20.07
   1   4  -2   40.26    2.56
  -1   4   2   39.67    1.94
   1  -4   2   38.84    1.90
   1   4  -2   39.02    2.48
  -1  -4  -2   35.77    2.62
   1   4  -1  527.01   11.13
   1   4  -1  544.08   10.77
   1  -4   0  367.79    7.35
  -1   4   0  387.68    9.71
   1  -4  -1  516.08   10.07
  -1   4  -1  523.80   11.94
   1   4   1  524.46    9.73
   1  -4  -2   39.94    2.41
   1   4   2   39.63    1.97
  -1   4  -2   33.88    2.75
   1  -4  -3 1225.03   22.38
   1   4   3 1277.21   20.04
  -1   4  -3 1267.63   23.62
  -1  -4   3 1215.71   19.97
   1   4   3 1246.20   19.95
   1  -4  -4  225.76    7.61
   1   4   4  232.76    5.86
  -1  -4   4  237.33    5.94
  -1   4  -4  242.52    8.40
   1   4   4  234.89    5.81
   1   4   5  598.74   11.88
   1   4   5  592.46   11.52
  -1   4  -5  631.43   15.86
  -1  -4   5  604.62   11.88
   1  -4  -5  603.40   15.05
   1   4   6   90.19    3.85
   1  -4  -6   91.34    5.49
  -1   4  -6   89.81    5.87
  -1  -4   6   89.16    3.78
   1   4   6   88.12    3.51
   1  -4  -7   32.39    3.52
  -1   4  -7   31.86    3.83
  -1  -4   7   29.73    2.38
   1   4   7   27.48    2.41
  -1  -4   8   14.91    1.93
   1   4   8   14.86    1.94
  -1  -4   9  146.09    5.07
   1   4   9  139.91    5.13
   1   4  10   48.91    2.60
   1   4  10   45.83    2.48
   1  -4 -10   46.17    2.77
  -1  -4  10   46.05    2.53
   1  -5  10    2.09    0.76
  -1   5   9  103.74    3.75
   1  -5   9   98.86    3.62
   1  -5   9  107.75    4.20
  -1   5   8   19.93    2.12
  -1   5   8   22.40    1.98
   1  -5   8   19.36    1.93
  -1   5   8   19.90    1.95
  -1   5   7  238.87    6.86
   1  -5   7  226.24    6.58
  -1   5   7  235.53    6.76
   1  -5   6  134.78    4.80
  -1  -5  -6  133.32    6.99
  -1   5   6  139.40    4.85
  -1   5   5   73.73    3.30
  -1  -5  -5   65.97    4.55
   1  -5   5   72.49    3.34
   1  -5   4    5.25    1.01
  -1  -5  -4    4.91    1.27
  -1   5   4    5.18    1.04
  -1   5   4    6.23    0.80
   1   5  -4    8.46    1.80
   1   5  -3   72.54    4.13
   1   5  -3   71.42    3.09
   1  -5   3   69.62    3.02
  -1  -5  -3   65.46    4.12
  -1   5   3   80.11    3.21
  -1   5   2  547.57   10.65
  -1  -5  -2  531.52   12.99
   1  -5   2  550.94   10.63
   1   5  -2  541.91   10.63
   1   5  -2  545.50   12.59
  -1   5   1 2662.76   39.43
   1   5  -1 2626.98   39.40
  -1  -5  -1 2629.68   38.85
   1   5  -1 2580.70   41.83
   1  -5   1 2596.41   39.39
   1   5   0  294.60    6.82
  -1   5   0  293.22    9.07
  -1   5   0  305.35    6.59
  -1  -5   0  304.79    6.54
   1  -5   0  294.90    6.80
  -1   5   0  290.83    6.80
   1  -5  -1 2633.37   39.45
  -1   5  -1 2678.68   43.55
  -1  -5   1 2620.85   38.99
   1   5   1 2635.18   39.00
   1   5   1 2583.88   39.46
  -1  -5   2  562.50   10.50
  -1   5  -2  566.53   13.91
   1   5   2  532.73   10.77
   1   5   2  543.05   10.44
   1   5   3   72.49    3.01
  -1  -5   3   71.50    3.01
   1   5   3   73.73    3.04
  -1   5  -3   71.09    4.62
  -1   5  -4    3.08    1.22
   1   5   4    5.37    1.00
   1  -5  -4    4.97    1.09
   1   5   4    7.09    1.24
  -1  -5   4    6.50    1.03
  -1   5  -5   76.48    5.31
  -1  -5   5   72.47    3.35
   1  -5  -5   71.85    4.83
   1   5   5   71.60    3.40
   1   5   5   73.71    3.23
   1   5   6  138.97    4.75
  -1  -5   6  142.57    5.07
  -1   5  -6  129.72    7.15
   1   5   6  141.13    5.14
   1   5   7  233.60    7.14
   1   5   7  234.67    7.07
  -1  -5   7  234.79    6.93
   1   5   8   22.81    2.09
  -1  -5   8   22.89    2.14
   1   5   9  104.99    4.12
  -1  -5   9  104.57    3.99
   1   5  10    2.77    0.85
   1  -5 -10    0.70    1.03
  -1  -5  10    3.42    0.80
   1  -6   9   15.45    1.49
  -1   6   8  102.41    3.87
   1  -6   8  111.09    4.17
  -1   6   8  101.94    3.94
   1  -6   8  103.77    3.87
   1  -6   7  196.41    6.01
  -1   6   7  207.81    6.22
   1   6  -7  206.96    6.01
   1   6  -6  551.06   11.76
  -1   6   6  550.56   11.75
   1  -6   6  549.77   11.80
   1   6  -5  161.13    5.34
   1  -6   5  159.07    5.34
  -1   6   5  152.94    5.22
  -1   6   4 2858.34   43.65
   1  -6   4 2846.26   43.75
   1   6  -4 2861.74   43.67
  -1   6   4 2863.97   42.85
  -1   6   3  217.08    6.11
   1   6  -3  202.62    6.00
  -1  -6  -3  212.44    8.06
   1  -6   3  212.01    6.12
  -1  -6  -2 1015.56   20.79
   1   6  -2  957.84   20.34
   1  -6   2 1003.70   17.76
   1   6  -2  984.65   17.67
  -1   6   2  995.36   17.63
  -1  -6  -1   98.17    3.46
   1  -6   1   95.40    3.72
   1   6  -1   92.24    3.72
  -1  -6  -1   89.13    4.72
  -1   6   1   92.83    3.66
  -1   6   0   25.30    1.86
   1   6   0   22.80    1.89
  -1  -6   0   24.62    1.77
  -1   6   0   24.09    1.87
   1  -6   0   23.60    1.90
  -1   6  -1   90.18    3.66
  -1   6  -1  102.73    5.63
  -1  -6   1   98.73    3.56
   1   6   1   89.75    3.42
   1   6   1   93.30    3.79
   1  -6  -1   97.83    3.80
   1   6   2  987.70   17.41
  -1   6  -2 1022.81   22.16
  -1   6  -2  985.66   17.62
   1   6   2 1017.28   17.76
  -1  -6   2 1028.41   17.56
   1   6   2  987.95   17.95
   1   6   3  201.29    5.93
   1   6   3  202.21    5.82
  -1  -6   3  211.26    5.95
  -1   6  -3  215.25    8.93
  -1   6  -4 2875.34   50.38
   1   6   4 2905.74   44.10
   1   6   4 2836.06   43.93
  -1  -6   4 2874.29   44.03
  -1  -6   5  154.27    5.22
   1   6   5  151.27    5.27
   1   6   5  145.35    4.97
   1   6   6  542.14   11.89
   1   6   6  537.37   11.45
  -1  -6   6  556.06   11.87
   1   6   7  204.05    6.48
  -1  -6   7  198.99    6.14
   1   6   8  108.61    4.26
  -1  -6   8  111.58    4.18
   1   6   9   15.95    1.50
   1  -6  -9   13.22    1.68
  -1  -6   9   15.38    1.44
   1  -7   8   85.39    3.14
   1  -7   8   85.84    3.16
   1  -7   7   13.17    1.44
  -1   7   7    9.96    1.40
   1  -7   7   11.73    1.38
  -1   7   7   12.99    1.40
  -1   7   6   22.94    2.05
   1  -7   6   22.47    2.01
   1  -7   6   21.78    1.80
   1   7  -6   23.52    1.92
   1  -7   5    3.89    1.17
  -1   7   5    5.47    1.30
   1   7  -5    2.63    0.99
  -1   7   4    3.53    1.18
  -1   7   4    3.49    0.91
   1  -7   4    4.85    1.42
   1   7  -4    5.15    1.29
   1  -7   3   49.71    2.93
  -1   7   3   47.60    2.84
   1   7  -3   46.84    2.91
   1   7  -2  224.86    6.59
   1  -7   2  231.00    6.68
  -1   7   2  233.26    6.64
  -1   7   1  526.67   11.37
   1  -7   1  522.71   11.45
  -1  -7  -1  563.08   11.08
   1   7  -1  533.19   11.51
  -1   7   0    0.41    0.95
   1   7   0    1.96    1.15
   1  -7   0    0.37    0.99
  -1  -7   1  538.15   11.17
   1   7   1  550.79   11.50
   1  -7  -1  545.18   11.59
   1   7   1  544.85   10.91
  -1   7  -1  508.65   11.14
   1   7   1  521.60   11.55
  -1   7  -2  220.89    6.32
   1   7   2  234.04    6.59
  -1   7  -2  231.26    9.53
   1   7   2  225.78    6.21
  -1  -7   2  230.14    6.43
  -1  -7   3   51.56    2.94
   1   7   3   48.74    2.85
  -1   7  -3   49.41    2.75
  -1   7  -3   43.96    4.33
   1   7   3   48.17    2.74
  -1   7  -4    2.26    1.02
   1   7   4    3.41    0.99
   1   7   4    3.00    1.15
  -1  -7   4    3.79    1.17
   1   7   5    3.36    1.02
  -1  -7   5    3.15    0.99
   1   7   5    2.07    1.02
   1   7   6   19.67    1.94
  -1  -7   6   21.16    1.93
   1   7   6   19.54    1.86
   1   7   7   11.48    1.63
  -1  -7   7   11.57    1.44
   1  -7  -8   83.72    3.69
  -1  -7   8   88.10    3.28
   1   7   8   86.29    3.35
  -1   8   7    7.48    1.10
   1  -8   7    7.42    0.97
   1  -8   6  120.33    4.10
  -1   8   6  117.96    4.07
   1  -8   5  111.07    4.19
  -1   8   5  110.29    4.11
   1   8  -5  109.23    3.95
  -1   8   4  417.68    9.08
  -1   8   4  415.47    9.44
   1   8  -4  422.19    9.39
   1  -8   4  413.19    9.63
  -1   8   3  286.00    7.30
  -1   8   3  295.82    7.65
   1  -8   3  300.81    7.87
   1   8  -3  306.53    7.73
   1  -8   2   89.24    3.96
  -1   8   2   82.26    3.72
   1   8  -2   87.70    3.91
   1  -8   1  365.48    9.06
  -1   8   1  358.75    8.71
   1   8  -1  374.31    9.05
  -1   8   0  352.20    8.60
   1   8   0  357.37    8.81
  -1  -8   0  359.34    8.45
   1   8   0  369.68    9.03
   1  -8   0  357.72    8.92
  -1   8  -1  369.74    8.72
   1   8   1  372.75    9.05
  -1  -8   1  374.30    8.75
   1   8   2   89.86    3.60
  -1   8  -2   87.40    3.63
  -1  -8   2   94.57    3.90
   1   8   2   93.73    4.02
   1   8   3  293.57    7.72
  -1  -8   3  293.09    7.52
   1   8   3  278.74    7.19
  -1   8  -3  285.29    7.07
   1   8   4  424.63    9.56
   1   8   4  405.83    9.28
  -1  -8   4  427.52    9.56
   1   8   5  110.08    4.07
  -1  -8   5  116.98    4.23
   1   8   5  110.37    4.11
   1  -8  -6  121.68    4.37
  -1  -8   6  120.43    4.09
   1   8   6  111.19    3.74
   1   8   7    5.58    0.92
  -1  -8   7    7.61    0.90
  -1   9   5   24.08    1.71
   1  -9   5   24.84    1.73
  -1   9   4   18.26    1.50
   1  -9   4   16.92    1.57
  -1   9   4   17.00    1.51
  -1   9   3   55.54    2.69
  -1   9   3   55.32    2.61
   1  -9   3   55.41    2.85
   1   9  -3   57.13    2.72
   1   9  -2  159.18    4.81
  -1   9   2  159.60    4.88
   1  -9   2  166.83    5.20
  -1   9   2  155.86    4.82
   1   9  -2  159.57    4.98
  -1   9   1  113.30    4.03
   1   9  -1  119.27    4.26
  -1   9   0  210.37    5.77
   1   9   0  221.32    6.11
   1   9   1  122.03    4.36
  -1   9  -1  111.24    3.89
  -1  -9   1  115.66    3.99
  -1  -9   2  156.78    4.80
   1   9   2  163.89    5.22
   1   9   3   53.50    2.72
  -1  -9   3   51.69    2.58
   1   9   4   18.32    1.62
  -1  -9   4   17.31    1.42
   1   9   5   24.51    1.60
  -1  -9   5   26.84    1.66
  -1  10   1   27.78    1.74
   1  10  -1   29.34    1.72
  -1  10   0    7.77    1.10
   1  10   0    6.82    1.09
  -1  10  -1   27.81    1.77
   1  10   1   28.56    1.81
   1  10   2   54.20    2.34
  -1  10  -2   55.64    2.33
  -2   0  -2 9813.69  138.26
   2   0  -2 9999.00  139.71
   2   0  -2 9908.11  139.35
  -2   0  -3 1279.27   20.63
   2   0  -3 1226.10   21.95
  -2   0  -4  529.65   11.04
   2   0  -4  528.23   12.48
   2   0   5  496.09    9.59
  -2   0   5  478.56    9.91
   2   0  -5  490.35   10.00
  -2   0  -5  477.14   11.26
   2   0  -5  500.33   12.97
   2   0   5  484.95    9.51
   2   0   5  467.01    9.15
  -2   0   6  864.58   16.04
  -2   0  -6  863.46   18.12
   2   0   6  861.38   15.03
   2   0   6  859.48   15.63
   2   0   6  894.62   15.74
   2   0  -6  873.05   20.21
   2   0  -6  880.93   16.05
   2   0   7  114.28    4.38
  -2   0   7  112.35    4.50
   2   0   7  110.92    3.76
  -2   0  -7  111.29    5.83
   2   0   7  113.42    4.35
   2   0   7  118.46    4.38
  -2   0   8 1285.29   22.89
   2   0   8 1286.90   22.61
   2   0   8 1287.61   22.60
  -2   0  -8 1289.55   27.05
   2   0  -8 1303.64   29.16
   2   0   8 1262.35   22.21
   2   0   9    5.74    1.39
  -2   0   9    5.45    1.34
  -2   0  10  115.63    3.99
   2   0  10  117.83    4.51
  -2   0  10  114.60    4.49
   2   0  11  190.80    5.30
  -2   0  11  194.00    5.26
   2  -1  11   39.93    2.25
  -2   1  11   37.84    2.08
   2  -1  10   44.64    2.59
   2  -1  10   41.17    2.56
  -2   1  10   42.73    2.72
  -2   1   9  140.70    5.28
   2  -1   9  131.24    5.02
   2  -1   9  136.59    5.08
  -2  -1  -8   71.87    5.03
   2  -1   8   66.98    3.49
  -2   1   8   68.34    3.76
   2   1  -8   83.84    6.27
   2  -1   8   72.12    3.66
   2  -1   7   30.91    1.91
  -2   1   7   35.68    2.62
  -2  -1  -7   35.72    3.24
   2   1  -7   34.07    3.89
   2  -1   7   31.59    2.34
  -2   1   6  440.92    9.79
   2  -1   6  421.36    8.60
   2  -1   6  424.32    9.23
   2  -1   6  427.49    9.23
  -2  -1  -6  400.93   11.51
   2   1  -6  431.32   12.94
  -2  -1  -5 1219.73   22.92
   2  -1   5 1258.05   20.21
   2  -1   5 1227.21   19.74
   2   1  -5 1245.84   24.52
   2  -1   5 1243.32   20.20
  -2  -1  -4   41.46    2.72
   2   1  -4   41.31    3.12
  -2  -1  -3  447.60    9.91
   2   1  -3  452.82   10.59
   2   1  -2 2716.68   41.89
   2   1  -1  641.47   12.49
   2  -1   1  661.94   11.52
   2  -1   0  213.49    5.14
  -2   1   0  216.00    4.83
   2   1   0  219.07    5.79
   2   1   1  669.23   12.53
  -2   1  -1  668.11   10.29
   2  -1  -1  671.25   11.88
  -2   1  -1  654.20   11.68
   2  -1  -2 2794.53   41.55
  -2   1  -2 2762.99   39.63
   2   1   2 2775.99   41.72
   2  -1  -2 2738.95   41.39
   2  -1  -3  442.61   10.04
  -2   1  -3  458.16    8.63
   2  -1  -4   39.45    2.89
  -2   1  -4   44.23    2.39
  -2   1  -5 1261.98   21.94
  -2  -1   5 1260.35   20.62
   2   1   5 1256.55   20.31
   2  -1  -5 1212.26   24.11
   2   1   5 1214.26   19.94
  -2  -1   6  446.16    9.65
   2  -1  -6  431.68   12.87
   2   1   6  421.60    9.34
   2   1   6  426.20    8.89
  -2   1  -6  449.49   11.29
  -2  -1   7   29.85    2.41
   2  -1  -7   35.28    4.10
   2   1   7   33.56    2.38
   2  -1  -7   31.56    2.49
   2   1   7   30.74    1.96
   2   1   8   71.33    3.71
   2  -1  -8   70.99    3.72
   2   1   8   71.63    3.61
  -2  -1   8   69.36    3.68
   2  -1  -8   72.55    5.82
   2   1   9  138.72    5.22
   2   1   9  143.63    5.25
  -2  -1   9  134.72    5.15
   2   1  10   46.68    2.74
  -2  -1  10   41.00    2.66
   2   1  11   41.13    2.26
  -2  -1  11   38.87    2.21
  -2   2  10   32.96    2.38
   2  -2  10   33.52    2.32
   2  -2  10   33.98    2.36
  -2   2   9   69.20    3.71
   2  -2   9   68.28    3.68
   2  -2   9   75.33    3.68
  -2   2   8  295.93    8.33
   2  -2   8  275.12    7.70
  -2   2   7  441.43   10.49
  -2  -2  -7  427.94   12.95
   2  -2   7  402.89    9.55
   2  -2   6    2.64    0.79
   2  -2   6    2.21    0.85
   2  -2   5  316.10    6.85
  -2   2   5  317.43    6.65
  -2  -2  -5  327.70    9.53
   2  -2   5  312.22    7.17
   2  -2   4  562.56   10.36
   2  -2   4  556.50   10.06
  -2  -2  -4  567.52   12.99
  -2  -2  -3  159.06    5.61
   2   2  -3  165.71    6.05
   2   2  -3  153.17    4.02
   2   2  -2  145.98    5.23
   2   2  -2  140.25    3.17
  -2   2   1 1248.32   20.55
   2   2  -1 1261.29   21.57
   2  -2   0  142.74    3.56
  -2   2   0  151.09    4.48
   2   2   0  150.66    4.90
   2  -2  -1 1199.40   18.96
   2   2   1 1198.25   20.61
  -2   2  -1 1240.82   20.42
   2  -2  -1 1221.63   18.49
   2   2   2  145.37    4.74
   2  -2  -2  145.02    4.29
   2  -2  -2  140.86    4.05
  -2   2  -2  146.76    4.91
   2  -2  -3  153.83    5.32
  -2   2  -3  158.21    5.64
   2  -2  -3  160.07    5.02
   2   2   4  557.62   10.39
   2  -2  -4  584.95   13.35
   2  -2  -4  567.32   10.23
  -2  -2   4  576.68   10.58
   2  -2  -5  319.18   10.09
   2   2   5  326.31    7.39
   2   2   5  312.88    7.12
   2  -2  -5  324.42    6.93
  -2  -2   5  329.00    7.49
   2   2   6    3.28    1.00
  -2  -2   6    3.07    1.08
   2   2   6    2.55    0.81
   2  -2  -6    0.81    1.07
   2  -2  -7  434.38   14.03
   2   2   7  421.26    9.87
   2   2   7  417.71    9.14
  -2  -2   7  420.26    9.88
   2   2   8  290.78    8.15
   2  -2  -8  293.15    8.69
  -2  -2   8  289.66    8.09
   2   2   9   70.47    3.71
   2  -2  -9   71.06    3.85
  -2  -2   9   74.60    3.69
   2   2   9   67.68    3.49
   2   2  10   35.69    2.41
  -2  -2  10   33.44    2.30
   2   2  10   32.43    2.33
   2   2  11   60.29    2.62
  -2  -2  11   65.38    2.72
  -2   3  10   29.83    2.05
   2  -3  10   29.47    2.19
  -2   3   9   30.45    2.38
   2  -3   9   30.84    2.40
   2  -3   9   31.93    2.61
  -2   3   8   28.64    2.54
   2  -3   8   31.16    2.43
  -2   3   7  141.36    4.62
   2  -3   7  134.08    4.91
   2   3  -7  150.96    8.17
  -2  -3  -7  131.10    7.15
  -2   3   6   44.06    2.40
   2  -3   6   39.75    2.44
   2  -3   6   47.08    2.51
   2   3  -6   44.62    4.22
  -2  -3  -6   45.36    3.83
  -2  -3  -5   18.83    2.54
   2  -3   5   20.84    1.62
  -2   3   5   24.13    1.70
   2   3  -5   22.56    2.83
   2  -3   5   19.81    1.50
  -2   3   4  398.44    8.04
   2  -3   4  380.65    8.19
   2   3  -4  424.42   11.65
   2  -3   4  394.47    8.20
  -2  -3  -4  427.76   11.31
   2   3  -3  366.35   10.05
  -2  -3  -3  371.63   10.07
  -2   3   3  361.76    7.36
   2   3  -2  442.40    8.43
   2   3  -2  446.10   10.65
   2   3  -1  576.75   12.37
  -2   3   1  602.25   12.33
   2   3   0  247.79    6.91
  -2   3   0  243.51    6.98
   2   3   1  591.35   12.00
  -2   3  -1  580.35   12.49
  -2   3  -2  444.25   10.59
   2   3   2  460.12    9.89
   2   3   3  358.16    7.33
  -2   3  -3  364.12    9.81
  -2  -3   3  349.56    7.11
   2   3   4  413.26    8.47
  -2   3  -4  393.97   11.05
   2   3   4  381.19    8.23
   2  -3  -4  374.69   10.63
  -2  -3   4  401.11    8.29
   2  -3  -4  400.42    8.07
  -2   3  -5   20.26    2.70
   2   3   5   22.67    1.64
   2  -3  -5   16.29    2.45
  -2  -3   5   22.57    1.73
   2  -3  -5   21.37    1.49
   2   3   6   41.22    2.65
   2  -3  -6   48.58    4.32
   2   3   6   39.74    2.39
  -2   3  -6   40.09    3.89
  -2  -3   6   43.05    2.61
   2  -3  -7  144.49    7.70
   2   3   7  149.34    5.33
   2   3   7  144.46    4.81
  -2   3  -7  140.46    7.79
  -2  -3   7  144.35    5.19
   2   3   8   29.74    2.58
   2  -3  -8   28.34    2.85
  -2  -3   8   30.34    2.55
   2   3   9   32.09    2.50
   2  -3  -9   32.51    2.74
   2   3   9   29.34    2.29
  -2  -3   9   29.47    2.40
   2   3  10   29.12    2.23
   2  -3 -10   29.18    2.28
   2   3  10   34.25    2.13
  -2  -3  10   28.37    2.10
   2  -4  10  104.96    3.91
  -2   4   9  202.05    6.21
   2  -4   9  202.61    6.44
  -2   4   8   91.38    4.33
  -2   4   8   92.29    3.74
   2  -4   8   88.70    4.29
  -2   4   7  562.96   11.50
   2  -4   7  545.19   11.51
  -2  -4  -6   20.89    2.85
   2  -4   6   19.93    1.66
  -2   4   6   21.87    1.80
   2   4  -6   21.97    2.98
   2   4  -5  138.07    6.95
  -2  -4  -5  136.62    6.69
   2  -4   5  131.31    4.45
  -2   4   5  131.56    4.34
   2   4  -4  343.62   10.59
   2  -4   4  340.97    7.73
  -2  -4  -4  366.79   10.92
  -2   4   4  336.18    7.60
  -2  -4  -3  226.67    8.06
  -2   4   3  220.65    5.60
   2   4  -3  205.63    7.49
   2  -4   3  208.55    5.49
   2  -4   2  588.20   11.09
  -2   4   2  591.70   11.14
   2   4  -2  578.26   13.39
   2  -4   2  615.73   11.16
   2   4  -1 2143.22   35.36
   2  -4   1 2169.81   32.81
  -2   4   1 2159.74   32.93
   2   4  -1 2179.08   32.86
   2  -4   0    2.22    0.57
   2   4   0    0.89    0.61
   2   4   0    2.02    0.73
   2   4   0    1.05    0.76
   2   4   0    1.36    0.99
  -2   4   0    1.28    0.85
   2   4   1 2150.78   34.65
   2   4   1 2195.21   32.96
   2  -4  -1 2161.06   32.93
   2   4   1 2175.74   32.88
  -2   4  -1 2189.89   36.47
   2   4   2  598.26   11.17
   2   4   2  596.74   11.25
  -2   4  -2  613.46   14.26
  -2  -4   2  605.44   10.76
   2   4   3  218.19    5.73
  -2   4  -3  226.82    8.02
   2   4   3  225.93    5.75
  -2  -4   3  224.32    5.52
   2  -4  -4  314.63    7.14
   2   4   4  318.79    7.60
  -2  -4   4  325.06    7.43
  -2   4  -4  331.41   10.56
   2   4   4  318.55    7.50
  -2  -4   5  128.39    4.49
   2   4   5  129.47    4.65
   2   4   5  130.13    4.49
  -2   4  -5  124.22    6.61
   2  -4  -5  128.20    4.07
   2   4   6   19.33    1.79
  -2  -4   6   18.78    1.85
  -2   4  -6   14.61    2.81
   2   4   7  547.35   12.25
   2   4   7  548.20   11.52
  -2  -4   7  572.07   12.19
   2   4   8   91.56    4.19
   2  -4  -8   93.71    4.97
  -2  -4   8   94.85    4.19
   2   4   9  204.24    6.24
   2  -4  -9  193.62    6.64
   2   4   9  191.39    5.67
  -2  -4   9  207.51    6.10
   2   4  10  106.14    3.80
   2  -4 -10   96.43    3.96
  -2  -4  10  109.34    3.75
  -2   5   9   30.18    2.08
   2   5  -9   28.40    2.15
   2  -5   9   33.14    2.36
  -2   5   8   70.98    3.66
   2  -5   8   71.90    3.76
  -2   5   8   72.29    3.25
   2  -5   7   48.39    2.83
   2  -5   7   48.06    3.20
  -2   5   7   49.06    2.79
   2  -5   6  175.04    5.61
  -2   5   6  177.45    5.56
   2  -5   6  187.08    6.26
  -2   5   5  241.47    6.60
   2  -5   5  246.30    6.80
   2  -5   5  255.48    7.29
   2   5  -5  241.65    9.47
  -2  -5  -5  246.09    9.63
  -2   5   4  455.16    9.87
   2  -5   4  447.09    9.96
  -2  -5  -4  458.36   13.41
   2   5  -4  462.70   13.03
   2  -5   4  473.11   10.32
  -2  -5  -3  679.75   16.48
   2   5  -3  651.65   15.45
   2  -5   3  653.19   12.80
   2   5  -3  648.01   12.90
  -2   5   3  651.58   12.72
   2  -5   3  676.98   12.81
  -2  -5  -2   94.39    5.15
   2   5  -2   91.13    4.65
   2  -5   2   92.30    3.58
   2   5  -2   91.54    3.65
  -2   5   2   93.07    3.61
  -2   5   1  324.78    7.68
   2  -5   1  329.78    7.60
   2   5  -1  331.97    7.68
   2   5   0  682.85   13.06
  -2   5   0  722.70   16.44
   2  -5   0  709.07   13.09
   2   5   0  695.06   13.06
  -2   5   0  712.80   13.24
   2   5   1  323.88    7.66
   2  -5  -1  324.25    7.63
   2   5   1  332.04    7.66
  -2   5  -1  342.26   10.43
  -2  -5   1  332.13    7.01
   2   5   2   90.04    3.61
   2   5   2   88.10    3.31
  -2   5  -2   97.78    5.42
   2   5   2   89.17    3.57
  -2  -5   2   92.85    3.30
   2   5   3  657.17   12.65
   2   5   3  637.35   12.83
  -2   5  -3  657.26   16.69
  -2  -5   3  671.22   12.40
   2  -5  -4  464.62    9.44
   2   5   4  455.15   10.08
   2   5   4  443.85    9.98
  -2   5  -4  469.65   13.90
  -2  -5   4  447.00    9.72
   2   5   5  232.38    6.85
   2   5   5  227.74    6.62
  -2   5  -5  237.09    9.79
  -2  -5   5  236.60    6.60
   2   5   6  173.17    5.63
  -2  -5   6  180.29    5.82
   2   5   7   45.36    3.05
   2   5   7   51.33    2.87
  -2  -5   7   47.96    2.97
   2   5   8   71.78    3.63
   2  -5  -8   77.44    4.33
  -2  -5   8   71.02    3.40
   2   5   9   33.94    2.33
  -2  -5   9   33.42    2.13
   2  -5  -9   32.42    2.61
  -2   6   8  232.77    6.48
   2   6  -8  240.25    6.26
   2  -6   8  250.40    6.63
  -2   6   8  238.88    6.14
  -2   6   7  266.34    7.00
   2  -6   7  266.71    6.99
   2   6  -7  262.41    7.16
   2  -6   7  266.92    7.45
  -2   6   6  392.03    9.25
   2  -6   6  381.99    9.24
   2   6  -6  402.37    9.66
   2  -6   6  408.69    9.77
  -2   6   5  482.55   10.69
   2  -6   5  503.48   11.11
   2   6  -5  487.71   11.15
   2  -6   5  485.70   10.91
  -2   6   4  183.99    5.79
   2  -6   4  182.72    5.88
  -2  -6  -4  188.52    8.31
   2   6  -4  185.21    6.02
   2  -6   4  186.31    5.76
  -2   6   3   31.99    2.38
   2  -6   3   35.04    2.48
   2   6  -3   35.63    2.53
  -2  -6  -3   30.02    3.17
  -2   6   2  690.37   13.46
  -2  -6  -2  679.43   16.99
   2   6  -2  668.80   13.26
   2  -6   2  689.13   13.55
   2   6  -2  667.70   13.55
   2  -6   1   30.37    2.22
  -2   6   1   31.65    2.29
   2   6  -1   34.22    2.32
  -2  -6  -1   30.10    3.13
   2   6  -1   31.85    2.36
  -2   6   0  568.76   11.95
   2   6   0  588.06   11.96
   2  -6   0  569.66   11.83
   2   6   0  572.58   11.86
   2   6   1   35.91    2.40
  -2   6  -1   29.52    2.30
   2   6   1   34.08    2.45
  -2   6  -1   33.55    3.42
  -2  -6   1   34.84    2.07
   2   6   2  680.46   13.61
   2   6   2  691.22   13.05
  -2   6  -2  656.44   17.40
   2   6   2  682.19   13.56
  -2  -6   2  674.00   12.76
   2   6   3   32.77    2.33
   2   6   3   36.47    2.56
  -2   6  -3   38.70    4.04
  -2  -6   3   36.07    2.23
   2   6   4  185.80    5.88
   2   6   4  185.89    5.93
  -2   6  -4  184.54    8.76
  -2  -6   4  182.35    5.60
   2   6   5  469.19   10.84
   2   6   5  476.66   10.80
  -2  -6   5  492.08   10.72
   2   6   6  377.63    9.11
  -2  -6   6  388.80    9.26
   2   6   7  262.27    7.36
   2  -6  -7  280.64    8.53
  -2  -6   7  275.81    7.25
   2   6   7  266.25    6.95
   2   6   8  244.30    6.64
  -2  -6   8  254.15    6.51
   2  -6  -8  242.73    7.38
   2   6   9   71.69    2.91
   2  -6  -9   68.64    3.22
  -2  -6   9   77.17    2.86
   2  -7   7   23.79    1.75
   2  -7   7   24.08    1.65
   2   7  -7   24.56    1.89
  -2   7   7   24.41    1.88
   2  -7   6  114.17    4.14
   2   7  -6  119.99    4.49
  -2   7   6  127.97    4.43
   2  -7   6  118.40    4.31
   2  -7   5   19.88    1.86
   2   7  -5   16.08    1.94
  -2   7   5   19.30    1.88
   2  -7   4  211.66    6.45
   2   7  -4  213.87    6.53
  -2   7   4  206.79    6.29
  -2   7   3   66.78    3.37
   2  -7   3   60.48    3.28
   2   7  -3   61.65    3.43
  -2   7   2    6.96    1.41
   2  -7   2    6.29    1.37
   2   7  -2    6.17    1.08
   2   7  -2    6.22    1.40
  -2   7   1   47.88    2.95
   2  -7   1   46.23    2.90
  -2  -7  -1   38.48    3.70
   2   7  -1   43.66    2.86
   2   7  -1   48.13    2.83
   2  -7   0    9.04    1.54
  -2   7   0   10.08    1.57
   2   7   0    8.53    1.38
   2   7   0   11.39    1.77
  -2  -7   0   10.62    1.86
   2   7   1   46.94    2.93
  -2   7  -1   44.05    2.81
   2   7   1   50.38    3.09
  -2  -7   2    7.56    1.30
   2   7   2    6.47    1.32
  -2   7  -2    6.12    1.33
   2   7   3   65.86    3.30
   2   7   3   69.44    3.57
  -2   7  -3   65.83    3.45
  -2  -7   3   62.94    3.07
   2   7   4  226.39    6.46
   2  -7  -4  222.91    7.10
  -2  -7   4  212.86    6.15
   2   7   4  218.05    6.64
  -2   7  -4  199.88    6.25
   2  -7  -5   19.86    2.30
  -2  -7   5   21.32    1.96
   2   7   5   17.08    1.81
  -2   7  -5   18.34    1.81
   2   7   5   19.50    1.90
   2   7   6  119.18    4.34
   2  -7  -6  116.28    4.98
  -2  -7   6  123.57    4.35
   2   7   7   22.75    1.84
   2  -7  -7   24.54    2.31
  -2  -7   7   24.04    1.78
   2   7   7   23.73    1.61
   2   7   8   17.16    1.51
  -2  -7   8   21.52    1.59
   2  -7  -8   18.71    1.68
  -2   8   6   36.97    2.08
   2  -8   6   40.58    2.17
   2   8  -6   38.20    2.10
  -2   8   5   98.75    3.71
   2   8  -5   97.27    3.76
   2  -8   5   94.47    3.71
  -2   8   4    6.40    1.11
   2  -8   4    5.63    1.27
   2   8  -4    4.40    1.27
  -2   8   3   28.84    2.26
  -2   8   3   28.20    1.98
   2  -8   3   27.86    2.25
   2   8  -3   27.11    2.25
  -2   8   2  260.04    7.16
   2  -8   2  268.34    7.42
   2   8  -2  263.10    7.37
   2   8  -2  274.21    7.14
   2   8  -1  404.84    9.42
   2  -8   1  390.74    9.57
   2   8  -1  386.96    9.53
  -2   8   1  398.67    9.44
  -2   8   0   16.30    1.88
   2   8   0   16.29    1.84
   2   8   0   15.69    1.91
   2   8   1  396.92    9.51
  -2   8  -1  379.62    9.16
  -2   8  -2  262.10    7.19
   2   8   2  277.00    7.59
   2   8   3   28.22    2.28
  -2  -8   3   29.76    2.08
  -2   8  -3   27.79    2.16
  -2  -8   4    4.81    1.23
   2   8   4    3.57    1.10
  -2   8  -4    4.91    1.11
   2   8   5   98.10    3.80
  -2  -8   5   97.20    3.62
   2   8   6   35.23    2.17
   2   8   6   35.89    2.09
  -2  -8   6   41.00    2.16
  -2   9   4  166.36    4.68
   2  -9   4  170.01    4.79
   2   9  -4  173.23    4.72
   2  -9   3   66.98    3.01
  -2   9   3   70.74    2.96
  -2   9   3   65.21    2.60
   2   9  -3   70.24    3.08
  -2   9   2  130.15    4.15
  -2   9   2  135.49    4.42
  -2   9   1   69.66    3.16
   2   9  -1   69.15    3.14
   2   9  -1   73.88    3.36
  -2   9   0   86.47    3.52
   2   9   0   88.56    3.64
   2   9   1   67.54    3.20
  -2   9  -1   71.72    3.10
  -2   9  -2  132.93    4.32
   2   9   2  147.60    4.74
   2   9   3   69.13    3.08
   2   9   4  168.93    4.83
   3   0   0    0.09    1.12
   3   0   1 1972.96   31.59
   3   0  -1 1923.51   31.87
  -3   0  -1 1932.86   29.03
   3   0  -2  391.53   10.08
  -3   0  -2  399.71    8.65
   3   0   2  395.02    9.48
   3   0   3 1035.86   16.81
   3   0  -3 1034.24   17.89
   3   0   3 1042.12   16.95
   3   0  -3 1063.42   20.82
  -3   0  -3 1030.02   18.37
   3   0  -3 1043.51   16.79
   3   0  -3 1044.93   16.76
   3   0   4 2889.19   42.73
  -3   0   4 2888.85   43.43
  -3   0  -4 2978.64   44.96
   3   0   4 2890.53   43.64
   3   0   4 2936.05   43.03
   3   0  -4 2882.60   44.23
   3   0   4 2926.49   43.00
   3   0   5  251.28    6.34
  -3   0   5  261.97    6.87
   3   0  -5  272.43    7.35
   3   0   5  260.39    6.92
   3   0   5  252.85    6.50
   3   0  -5  259.77    9.78
   3   0   5  275.50    6.53
  -3   0  -5  255.76    7.83
   3   0   6   11.91    1.41
   3   0  -6   10.68    1.64
  -3   0   6   10.73    1.54
  -3   0  -6   15.45    1.96
   3   0   6   12.14    1.44
   3   0   6   10.67    1.41
   3   0  -6   13.46    2.81
   3   0  -6    9.90    2.33
   3   0   6   12.35    1.56
   3   0   7  184.49    5.87
  -3   0   7  186.80    6.22
   3   0   7  185.29    5.55
   3   0  -7  172.03    9.63
   3   0  -7  187.37    6.27
   3   0  -7  208.18    9.97
   3   0   7  188.54    6.02
   3   0   7  182.44    6.03
  -3   0   8  188.19    6.36
   3   0   8  177.34    5.39
   3   0   8  198.15    6.33
   3   0   8  178.34    5.91
   3   0   9   67.46    3.52
  -3   0   9   68.66    3.67
   3   0  10  108.59    4.07
  -3   0  10  112.27    4.22
   3  -1  10   32.63    2.21
  -3   1  10   34.50    2.38
  -3   1   9   30.02    2.51
   3  -1   9   29.08    2.34
   3  -1   9   32.24    2.52
  -3   1   8  273.78    8.13
   3  -1   8  291.77    8.00
   3  -1   8  276.15    8.09
  -3   1   7  117.31    4.93
   3  -1   7  119.38    4.26
  -3  -1  -7  115.60    6.35
   3   1  -7  124.05    8.15
   3  -1   7  117.89    5.06
   3  -1   7  123.28    4.71
  -3   1   6  232.25    6.90
   3  -1   6  233.83    6.13
  -3  -1  -6  235.81    8.50
   3  -1   6  235.01    6.59
   3   1  -6  220.03   10.37
   3  -1   6  226.55    7.12
  -3  -1  -5   91.32    4.72
   3  -1   5   81.23    3.25
   3  -1   5   88.34    3.49
   3   1  -5   87.02    6.01
   3  -1   5   84.45    3.95
   3  -1   4  672.60   12.17
   3  -1   4  670.17   12.32
   3   1  -4  685.78   17.02
  -3  -1  -4  676.57   14.80
   3  -1   4  674.51   13.23
   3   1  -3  332.07   10.02
  -3  -1  -3  330.63    8.70
   3   1  -3  327.22    6.79
   3  -1   3  320.47    6.76
   3  -1   3  323.99    7.48
   3   1  -2  291.17    8.69
   3  -1   1  222.67    6.20
   3   1  -1  214.42    6.99
   3  -1   0  832.23   15.62
   3   1   0  852.48   16.74
  -3   1   0  846.18   14.22
   3   1   1  215.59    6.73
   3  -1  -1  206.34    6.23
  -3   1  -1  215.73    5.54
   3  -1  -2  265.18    7.59
  -3   1  -2  265.64    5.72
  -3   1  -2  287.44    7.22
   3   1   2  298.72    8.05
   3   1   3  325.62    6.90
   3  -1  -3  334.53    7.94
   3  -1  -3  315.60    9.02
   3   1   3  327.57    6.93
   3  -1  -3  326.08    9.12
   3  -1  -3  321.66    6.77
  -3  -1   4  679.85   12.37
   3   1   4  680.22   12.06
   3  -1  -4  666.32   13.59
   3   1   4  667.91   12.26
   3   1   4  666.69   12.17
   3  -1  -4  676.95   15.87
   3   1   4  655.33   12.07
   3  -1  -4  675.06   11.89
   3  -1  -4  685.30   16.03
   3   1   4  662.57   12.25
   3  -1  -4  676.04   12.11
  -3  -1   5   86.74    3.54
   3   1   5   85.70    3.38
   3   1   5   86.60    3.38
   3   1   5   87.81    3.51
   3  -1  -5   87.01    4.11
   3  -1  -5   84.71    5.57
   3   1   5   84.60    3.35
   3  -1  -5   89.63    5.69
  -3  -1   6  240.33    6.70
   3   1   6  229.38    6.36
   3   1   6  226.32    6.19
   3   1   6  240.89    6.61
   3  -1  -6  236.38    7.43
   3  -1  -6  205.78    9.56
   3  -1  -6  239.99   10.18
   3   1   6  211.99    6.08
  -3  -1   7  121.15    4.80
   3   1   7  120.11    4.67
   3   1   7  120.39    4.37
   3   1   7  115.94    4.67
   3  -1  -7  119.86    5.24
   3  -1  -7  105.07    7.39
   3  -1  -7  128.50    8.00
   3   1   8  293.29    7.94
   3   1   8  282.00    7.22
   3  -1  -8  303.84    8.72
   3   1   8  288.56    7.94
  -3  -1   8  286.65    8.09
   3   1   9   31.65    2.39
  -3  -1   9   31.98    2.48
   3   1  10   32.53    2.16
  -3  -1  10   35.09    2.37
  -3   2  10    2.94    0.93
   3  -2  10    0.35    0.95
  -3   2   9  102.95    4.52
   3  -2   9   98.72    4.19
   3  -2   9  103.13    4.48
  -3   2   8  157.94    5.96
   3  -2   8  160.53    5.63
   3  -2   8  159.24    6.13
  -3   2   7  245.08    7.58
   3  -2   7  237.94    6.98
   3   2  -7  258.06   12.03
  -3  -2  -7  225.22    9.37
   3  -2   7  230.97    7.70
   3  -2   6  476.62   10.02
   3  -2   6  494.24   10.57
   3   2  -6  539.22   16.68
   3  -2   6  409.67   11.15
  -3  -2  -6  457.93   13.34
   3  -2   5   73.64    3.11
   3  -2   5   72.10    3.18
  -3  -2  -5   72.41    4.60
   3   2  -5   81.93    5.73
   3  -2   4   14.41    1.42
   3  -2   4   16.01    1.46
   3   2  -4   15.34    2.19
  -3  -2  -4   17.04    2.13
   3  -2   4   14.22    1.62
   3  -2   3 1948.24   29.55
   3  -2   3 1911.29   30.74
   3   2  -3 2003.16   34.94
  -3  -2  -3 1938.64   33.37
   3  -2   2  954.87   15.75
   3  -2   2  983.95   16.67
   3   2  -2  983.03   19.87
   3   2  -2  971.46   15.76
   3   2  -1   91.30    4.54
   3  -2   0  540.47   10.71
   3   2   0  527.86   12.42
  -3   2   0  556.04   11.18
   3   2   1   78.77    4.06
   3  -2  -1   78.24    3.26
  -3   2  -1   76.54    3.52
   3   2   2  961.05   18.68
   3   2   2  951.98   16.10
   3  -2  -2  959.18   17.37
   3  -2  -2  969.10   17.15
   3   2   2  950.04   15.90
   3   2   2  985.10   16.03
  -3   2  -2  954.33   18.12
   3  -2  -3 1901.52   29.24
   3   2   3 1941.64   29.31
   3   2   3 1924.84   29.43
   3  -2  -3 1849.96   31.45
   3  -2  -3 1970.00   31.19
   3  -2  -3 1852.86   31.99
  -3   2  -3 1949.25   32.59
  -3  -2   3 1876.94   28.86
   3   2   4   16.11    1.42
   3  -2  -4   16.37    2.11
   3  -2  -4   19.82    1.89
   3   2   4   20.10    1.55
   3  -2  -4   15.24    1.22
   3   2   4   16.41    1.52
  -3   2  -4   15.21    2.28
   3  -2  -4   16.20    2.24
   3  -2  -4   15.90    1.45
  -3  -2   4   17.64    1.35
   3   2   5   70.22    3.13
   3  -2  -5   68.68    3.99
   3   2   5   71.41    3.16
   3  -2  -5   74.90    4.61
   3   2   5   73.83    3.18
  -3   2  -5   73.13    4.75
   3  -2  -5   72.78    5.00
   3  -2  -5   70.21    3.01
  -3  -2   5   73.37    3.16
   3   2   6  477.55   10.51
   3   2   6  468.56   10.33
   3  -2  -6  500.82   12.48
   3   2   6  498.54   10.69
   3  -2  -6  467.83   15.16
  -3   2  -6  484.24   14.25
  -3  -2   6  496.80   10.72
   3   2   7  242.26    7.00
   3   2   7  233.44    6.58
   3   2   7  231.98    6.85
   3  -2  -7  237.40    8.16
   3  -2  -7  227.19   10.53
  -3   2  -7  235.13   10.04
  -3  -2   7  239.07    6.98
   3   2   8  148.27    5.50
   3   2   8  152.63    4.99
   3   2   8  167.04    5.68
   3  -2  -8  160.66    6.42
  -3  -2   8  159.55    5.64
   3   2   9   91.99    4.04
   3   2   9   92.33    3.97
   3  -2  -9   98.06    4.52
  -3  -2   9  100.43    4.22
   3   2  10    2.07    0.90
  -3  -2  10    3.27    1.04
   3  -3  10   13.36    1.53
  -3   3  10   14.53    1.52
  -3   3   9   25.77    2.15
   3  -3   9   23.36    2.21
  -3   3   8   19.49    2.20
   3  -3   8   21.44    2.42
   3  -3   7   16.85    2.27
  -3  -3  -6  245.20    9.64
   3   3  -6  248.32   10.96
   3  -3   6  217.39    7.57
   3   3  -5  183.38    8.66
  -3  -3  -5  171.83    7.57
  -3   3   4   16.58    1.38
  -3  -3  -4   16.17    2.43
   3   3  -4   14.28    1.50
   3   3  -4   15.28    2.67
   3  -3   4   16.11    1.78
   3   3  -3  216.71    8.39
   3   3  -3  209.65    5.57
  -3  -3  -3  225.59    8.11
  -3   3   3  211.56    5.31
   3  -3   3  217.28    6.23
   3   3  -2  115.46    5.55
   3   3  -2  106.81    3.63
   3  -3   2  106.88    3.82
  -3   3   2  109.29    3.49
   3   3  -1  518.47   12.82
   3   3  -1  504.89    9.79
   3  -3   1  507.59    9.89
   3   3   0  415.91   10.78
   3   3   0  387.62    8.07
  -3   3   0  393.83    9.84
   3   3   1  534.85   12.42
   3  -3  -1  505.17   10.51
   3   3   1  506.16    9.69
   3   3   1  505.37    9.79
  -3   3  -1  500.20   11.90
   3   3   2  109.41    3.71
   3  -3  -2  101.81    4.18
   3   3   2  108.94    3.72
   3   3   2  106.68    3.34
  -3   3  -2  104.21    4.90
   3   3   2  110.12    4.95
   3   3   3  217.33    5.76
   3  -3  -3  217.83    6.86
   3   3   3  204.77    5.43
  -3   3  -3  213.83    7.61
  -3  -3   3  213.63    5.21
   3  -3  -4   14.63    2.11
   3   3   4   15.85    1.51
   3   3   4   14.84    1.50
  -3   3  -4   17.41    2.32
  -3  -3   4   16.94    1.36
   3  -3  -4   14.01    1.42
   3   3   5  175.54    5.39
   3   3   5  170.22    5.40
  -3   3  -5  166.32    7.69
   3   3   5  184.32    5.10
  -3  -3   5  175.24    5.32
   3  -3  -5  177.55    5.18
   3   3   6  233.66    6.73
   3   3   6  234.07    6.65
   3  -3  -6  236.79    8.44
  -3   3  -6  243.15    9.95
  -3  -3   6  237.80    6.75
   3   3   7   18.66    1.98
   3   3   7   19.69    1.96
   3   3   7   17.30    1.79
   3  -3  -7   18.67    2.52
  -3  -3   7   19.16    1.96
   3   3   8   17.34    1.94
   3   3   8   19.01    1.75
   3   3   8   21.39    2.01
   3  -3  -8   21.68    2.69
  -3  -3   8   20.61    2.12
   3   3   9   27.61    2.18
   3   3   9   25.21    2.02
   3  -3  -9   26.98    2.43
  -3  -3   9   27.58    2.12
  -3  -3  10   11.93    1.29
  -3   4   9  102.03    4.09
   3  -4   9  108.95    4.37
  -3   4   8  187.87    6.39
   3  -4   8  192.86    6.63
   3  -4   7   44.64    3.52
  -3   4   6  149.05    4.69
   3  -4   6  156.70    6.22
   3   4  -5  318.20   11.87
  -3   4   5  301.71    7.27
   3  -4   5  306.47    8.84
  -3  -4  -5  328.30   11.47
   3   4  -4   78.74    5.56
   3   4  -4   75.15    3.16
   3  -4   4   67.05    3.15
   3  -4   4   70.77    3.68
  -3  -4  -4   68.68    4.80
  -3   4   4   74.16    3.12
  -3   4   3  779.17   14.04
   3   4  -3  745.53   18.20
   3   4  -3  764.93   13.90
   3  -4   3  750.96   14.18
  -3  -4  -3  790.05   18.54
   3  -4   3  767.66   14.89
   3   4  -2  204.42    7.97
   3  -4   2  210.14    5.66
  -3   4   2  210.27    5.67
   3   4  -2  214.83    5.58
   3  -4   2  208.02    5.84
   3   4  -1   22.47    2.52
  -3   4   1   19.35    1.63
   3   4  -1   21.13    1.56
   3   4  -1   21.86    1.68
   3  -4   1   23.54    1.75
   3   4  -1   21.78    1.72
   3  -4   1   23.85    1.63
   3   4   0  319.59    7.37
   3   4   0  312.11    9.48
   3   4   0  322.43    7.24
   3  -4   0  309.20    7.25
  -3   4   0  324.67    9.52
   3   4   0  311.74    7.19
   3   4   1   26.82    2.70
   3   4   1   20.34    1.68
   3   4   1   21.74    1.67
  -3   4  -1   24.75    2.60
   3   4   1   19.27    1.55
   3  -4  -1   19.87    1.85
   3  -4  -2  203.91    6.45
   3   4   2  205.91    5.66
   3   4   2  217.96    5.98
   3   4   2  208.19    5.50
  -3   4  -2  212.46    7.89
   3   4   3  768.31   13.98
   3   4   3  795.99   14.75
  -3   4  -3  780.86   18.04
  -3  -4   3  781.45   13.68
   3   4   4   74.04    3.49
   3   4   4   69.57    2.91
   3  -4  -4   59.89    3.97
  -3   4  -4   70.65    4.92
  -3  -4   4   72.48    3.14
   3  -4  -4   68.79    3.11
   3   4   5  294.27    7.75
   3   4   5  307.26    7.96
   3  -4  -5  279.78    9.46
  -3   4  -5  295.77   10.91
  -3  -4   5  309.91    7.58
   3  -4  -5  294.89    7.35
   3   4   6  149.04    5.31
   3   4   6  152.01    5.32
   3  -4  -6  148.32    6.68
  -3  -4   6  145.86    5.07
   3   4   7   40.79    2.79
   3   4   7   41.44    2.69
   3  -4  -7   42.89    3.66
  -3  -4   7   42.51    2.77
   3   4   8  183.17    5.95
   3   4   8  180.56    5.40
   3  -4  -8  187.73    7.06
  -3  -4   8  180.77    5.76
   3   4   9  101.33    3.95
   3  -4  -9  107.43    4.70
  -3  -4   9  110.02    3.99
  -3   5   9   43.24    2.38
   3   5  -9   46.94    2.43
   3  -5   9   49.19    2.68
  -3   5   8   31.80    2.50
   3  -5   8   31.88    2.51
  -3   5   7  102.86    3.79
   3  -5   7   95.83    4.54
  -3   5   6   42.92    2.52
   3  -5   6   45.06    3.22
  -3   5   5  177.17    5.45
   3  -5   5  180.31    5.73
   3  -5   5  183.38    6.39
  -3   5   4  150.64    4.95
   3   5  -4  147.69    7.51
   3  -5   4  142.29    5.11
  -3  -5  -4  146.86    7.63
   3  -5   4  152.05    5.49
   3   5  -3  197.09    8.47
  -3   5   3  214.97    6.09
   3   5  -3  208.96    5.67
   3  -5   3  203.16    6.13
   3   5  -3  209.48    6.29
   3  -5   3  218.59    6.39
  -3   5   2  855.32   15.76
   3   5  -2  860.11   15.24
   3   5  -2  852.12   19.21
   3  -5   2  838.08   15.84
   3   5  -2  874.33   15.95
  -3  -5  -2  822.56   19.98
   3  -5   2  834.36   15.54
   3   5  -1  321.14   10.02
  -3   5   1  319.51    7.77
   3   5  -1  320.73    7.42
   3  -5   1  312.70    7.75
   3   5  -1  324.48    7.79
   3   5   0  244.74    6.94
  -3   5   0  262.26    9.15
   3  -5   0  262.28    6.92
   3   5   0  260.36    6.79
  -3   5   0  259.97    7.00
   3   5   1  319.40    8.10
   3  -5  -1  312.66    8.04
  -3   5  -1  319.43   10.50
   3   5   1  318.90    7.67
   3   5   1  312.71    9.24
   3   5   2  858.62   16.31
   3  -5  -2  858.97   16.85
   3   5   2  857.35   15.71
  -3   5  -2  877.85   20.27
   3   5   2  848.30   15.57
   3   5   3  221.07    5.85
   3   5   3  215.26    6.50
   3  -5  -3  205.62    7.13
  -3   5  -3  205.82    8.74
  -3  -5   3  213.93    5.65
   3   5   4  144.17    5.29
   3  -5  -4  141.68    6.22
  -3   5  -4  139.40    7.37
  -3  -5   4  154.85    4.81
   3  -5  -4  147.61    4.85
   3   5   5  176.81    5.92
   3  -5  -5  167.22    7.00
  -3  -5   5  177.74    5.51
   3  -5  -5  180.03    5.39
   3   5   6   36.86    2.64
   3   5   6   43.92    2.81
   3  -5  -6   43.82    3.71
  -3  -5   6   44.70    2.70
   3   5   7   93.86    4.12
   3   5   7   95.44    3.92
   3  -5  -7  100.78    5.21
  -3  -5   7   96.45    3.98
   3   5   8   28.80    2.14
   3   5   8   27.77    1.91
   3  -5  -8   27.02    2.71
  -3  -5   8   24.09    1.86
   3   5   9   47.30    2.38
   3  -5  -9   44.64    2.81
  -3  -5   9   48.97    2.36
  -3   6   8   23.35    1.92
   3   6  -8   22.90    1.79
   3  -6   8   22.10    1.79
   3   6  -7  507.45   10.67
   3  -6   7  507.53   10.88
  -3   6   6  144.37    4.71
   3  -6   6  136.67    4.71
   3   6  -6  146.41    5.21
   3  -6   6  146.29    5.30
  -3   6   5  240.22    6.65
   3  -6   5  239.22    6.89
   3   6  -5  246.13    7.23
   3  -6   5  252.35    7.28
  -3   6   4  577.43   12.07
   3  -6   4  585.71   12.42
   3   6  -4  565.12   12.48
   3  -6   4  581.14   12.34
  -3  -6  -3  312.66   11.58
  -3   6   3  336.31    8.39
   3  -6   3  327.27    8.49
   3   6  -3  340.04    8.70
  -3   6   2  927.41   17.22
   3  -6   2  903.71   17.33
   3   6  -2  947.49   17.55
  -3  -6  -2  900.81   21.80
  -3   6   1  684.39   13.51
   3  -6   1  652.38   13.42
   3   6  -1  656.63   13.35
  -3   6   0    0.74    1.03
   3   6   0    0.08    0.70
   3   6   0   -1.39    1.11
   3   6   1  657.19   13.85
  -3   6  -1  675.19   13.79
  -3   6  -1  648.03   17.35
   3   6   1  653.59   13.33
   3   6   2  971.90   18.12
   3   6   2  932.81   17.44
   3   6   3  344.62    8.97
   3  -6  -3  332.75    9.28
  -3   6  -3  317.34   11.76
   3  -6  -4  571.79   13.73
  -3  -6   4  571.25   11.58
   3  -6  -4  580.27   11.72
   3   6   5  245.15    7.20
   3  -6  -5  255.21    8.37
  -3  -6   5  246.16    6.57
   3  -6  -5  231.49    6.15
   3   6   6  143.19    5.10
   3   6   6  141.19    5.08
   3  -6  -6  143.86    6.09
  -3  -6   6  139.64    4.68
   3   6   7  474.63   10.36
   3  -6  -7  496.60   11.91
  -3  -6   7  489.40   10.03
   3   6   7  483.79   10.16
   3   6   8   20.57    1.61
   3  -6  -8   22.17    2.13
  -3  -6   8   19.65    1.54
   3   7  -7   68.53    2.94
  -3   7   6   54.19    2.60
   3   7  -6   58.04    3.00
  -3   7   5   51.91    2.77
   3  -7   5   54.33    2.87
   3   7  -5   56.36    3.13
  -3   7   4   41.36    2.66
   3  -7   4   41.30    2.67
   3   7  -4   43.69    2.90
  -3   7   3  101.79    4.14
   3  -7   3   90.82    4.12
   3   7  -3   98.04    4.33
  -3   7   2  211.12    6.48
   3  -7   2  204.54    6.48
   3   7  -2  210.54    6.54
  -3   7   1   47.26    3.00
   3   7  -1   48.56    2.97
   3   7  -1   44.62    2.99
   3   7   0  182.80    6.06
  -3   7   0  167.05    5.83
   3   7   0  170.39    5.82
   3   7   1   47.57    3.15
   3   7   1   47.04    3.02
  -3   7  -1   44.51    2.99
  -3   7  -2  212.98    6.70
   3   7   2  214.38    6.86
  -3   7  -3   88.51    4.14
   3   7   3  101.01    4.47
  -3   7  -4   39.57    2.71
   3   7   4   46.70    2.93
   3  -7  -4   40.21    3.01
  -3   7  -5   54.75    3.03
   3   7   5   56.42    3.10
   3  -7  -5   53.00    3.39
  -3  -7   5   55.07    2.62
   3   7   6   52.96    2.79
  -3   7  -6   54.34    2.78
   3   7   6   59.25    2.89
   3  -7  -6   60.28    3.44
  -3  -7   6   53.48    2.53
   3   7   7   57.32    2.60
   3   7   7   59.27    2.60
   3  -7  -7   60.59    3.16
  -3  -7   7   59.98    2.46
  -3   8   5   47.08    2.33
   3   8  -5   46.36    2.47
  -3   8   4   77.76    3.26
   3  -8   4   83.73    3.45
   3   8  -4   79.77    3.50
  -3   8   3  408.15    9.16
   3  -8   3  401.24    9.28
   3   8  -3  419.88    9.49
  -3   8   2  117.19    4.40
   3   8  -2  121.26    4.61
   3   8  -1   72.54    3.58
  -3   8   1   74.56    3.52
   3   8  -1   73.54    3.43
   3   8   0  283.43    7.60
  -3   8   0  273.19    7.42
   3   8   0  280.13    7.58
  -3   8  -1   74.96    3.55
   3   8   1   74.93    3.63
   3   8   2  118.01    4.60
  -3   8  -2  116.83    4.49
  -3   8  -3  388.38    9.13
   3   8   3  415.91    9.64
  -3   8  -4   75.89    3.29
   3   8   4   76.15    3.42
   3   8   5   41.48    2.25
   3   8   5   44.20    2.46
  -3   8  -5   38.26    2.13
  -3   9   3   65.10    2.66
   3   9  -3   66.52    2.81
  -3   9   2   64.79    2.79
   3   9  -2   62.38    2.89
  -3   9   1   46.43    2.42
  -3   9   0  195.09    5.42
   3   9   0  211.31    5.58
  -3   9  -1   42.50    2.36
   3   9   1   47.77    2.52
  -3   9  -2   64.88    2.79
   3   9   2   69.54    3.02
  -3   9  -3   59.49    2.58
   3   9   3   65.65    2.78
   4   0   0   17.74    2.25
   4   0   0   17.93    1.72
   4   0   0   17.73    1.49
   4   0   1  345.08    9.70
   4   0  -1  327.69    9.78
   4   0   1  334.08    6.92
   4   0  -1  325.62    7.07
   4   0   1  345.80    7.73
   4   0  -1  329.70    7.80
   4   0   1  324.60    7.10
   4   0   1  335.57    7.21
   4   0  -1  333.79    7.34
   4   0   1  328.32    7.50
   4   0  -1  337.15    6.81
   4   0   2 2000.85   30.69
   4   0  -2 2044.02   35.71
   4   0   2 2014.72   30.94
   4   0  -2 2006.73   31.93
   4   0   2 1984.64   30.50
   4   0  -2 2037.77   30.97
   4   0   2 2000.76   31.49
   4   0   2 2059.38   34.43
   4   0  -2 2016.71   30.48
  -4   0   3 5140.02   74.49
   4   0  -3 5249.97   80.97
   4   0  -3 5159.41   75.94
   4   0   3 5271.60   74.60
   4   0  -3 5195.96   74.54
   4   0   3 5135.90   74.61
   4   0   3 5153.33   75.52
   4   0  -3 5178.17   74.30
  -4   0   4   42.42    2.37
   4   0   4   39.77    2.32
   4   0   4   35.75    2.24
   4   0  -4   45.88    4.05
   4   0  -4   40.08    2.32
   4   0   4   39.51    2.63
  -4   0   5  541.31   11.45
   4   0   5  539.17   11.25
   4   0   5  548.20   11.38
   4   0  -5  510.27   16.53
   4   0   5  542.69   11.98
  -4   0   6  742.04   14.74
   4   0   6  731.98   14.38
   4   0   6  765.39   14.84
   4   0   6  743.81   15.23
  -4   0   7  190.63    6.34
   4   0   7  196.43    5.94
   4   0   7  191.51    6.24
   4   0  -7  203.11    6.63
   4   0   7  187.21    6.29
   4   0   8  122.72    4.46
   4   0   8  126.90    4.88
   4   0   8  122.14    4.74
  -4   0   8  127.48    4.93
   4   0   9  117.90    4.41
  -4   0   9  129.83    4.69
  -4   0  10   15.62    1.40
  -4   1  10   51.94    2.50
   4  -1   9   15.09    1.81
  -4   1   9   15.04    1.74
  -4   1   8   74.61    3.80
   4  -1   8   70.65    3.85
  -4   1   7  183.08    6.24
   4  -1   7  179.40    5.68
   4  -1   7  178.21    6.07
   4  -1   7  172.04    6.49
  -4   1   6  425.73   10.28
   4  -1   6  409.59    9.60
   4   1  -6  427.63    9.92
   4  -1   6  441.03   10.14
   4  -1   6  427.28   11.04
   4  -1   5    8.20    1.34
  -4   1   5    8.18    1.30
   4   1  -5    9.59    1.47
   4  -1   5    7.99    1.17
   4   1  -5    7.94    2.98
   4  -1   5   10.20    1.75
   4  -1   4  205.68    5.65
   4   1  -4  194.59    9.19
   4   1  -4  194.79    5.97
  -4  -1  -4  200.54    7.26
   4  -1   4  203.41    6.49
  -4  -1  -3   54.80    3.52
   4  -1   3   56.89    2.59
   4   1  -3   51.22    4.37
   4   1  -3   51.39    2.82
   4   1  -3   57.55    2.68
   4  -1   3   54.81    3.08
   4   1  -2  214.22    8.29
   4  -1   2  206.66    5.18
   4  -1   2  210.23    5.27
   4   1  -2  201.42    5.81
  -4  -1  -2  201.01    6.95
   4   1  -2  205.11    5.38
   4  -1   2  203.61    5.93
   4  -1   1  394.72    7.72
   4   1  -1  409.99   11.47
   4  -1   1  387.98    8.43
   4   1  -1  391.30    8.58
   4   1  -1  384.14    8.06
   4  -1   1  383.21    7.76
   4  -1   1  386.14    8.51
   4   1  -1  382.65    7.40
   4  -1   1  391.60   10.04
   4  -1   0 1327.42   24.02
   4   1   0 1389.64   25.53
   4   1   0 1348.37   21.96
   4  -1   0 1342.43   22.04
   4   1   0 1309.47   21.59
   4   1   0 1338.88   21.39
   4  -1   0 1303.89   21.62
   4  -1   0 1303.64   20.76
   4   1   1  390.90   10.93
   4  -1  -1  382.00   10.30
   4   1   1  388.88    7.85
   4  -1  -1  376.45    8.76
   4   1   1  384.94    8.10
   4   1   1  385.70    8.28
   4  -1  -1  398.51    8.25
   4   1   1  383.40    8.16
   4  -1  -2  201.22    7.37
   4   1   2  201.47    5.27
   4   1   2  202.86    5.45
   4   1   2  205.28    5.25
   4  -1  -2  209.74    5.39
   4   1   2  198.21    5.41
   4   1   2  205.44    7.44
   4  -1  -2  200.02    5.17
   4   1   3   54.35    2.64
   4   1   3   56.18    2.70
   4  -1  -3   54.65    3.93
   4  -1  -3   57.62    2.61
   4   1   3   55.01    2.71
  -4   1  -3   53.02    3.55
   4  -1  -3   54.30    2.54
  -4  -1   4  209.74    5.64
   4   1   4  200.21    5.82
   4  -1  -4  223.78    7.20
   4   1   4  207.95    5.79
   4  -1  -4  200.25    8.46
   4  -1  -4  207.48    5.57
   4   1   4  199.42    5.81
  -4   1  -4  215.21    7.77
   4  -1  -4  203.83    5.65
   4   1   5    7.43    1.14
  -4  -1   5    8.76    1.36
   4  -1  -5    8.89    1.75
   4   1   5    6.51    1.27
   4  -1  -5    9.78    2.19
   4   1   5    6.26    1.17
  -4   1  -5    5.14    1.70
  -4  -1   6  429.15    9.86
   4   1   6  423.59    9.59
   4   1   6  437.46    9.96
   4  -1  -6  432.25   11.56
   4  -1  -6  421.91   14.79
   4   1   6  419.09    9.93
   4   1   6  425.72    9.77
  -4   1  -6  412.44   13.18
   4   1   7  180.95    5.75
   4   1   7  176.29    5.68
   4   1   7  176.15    5.92
  -4  -1   7  174.98    5.86
   4   1   8   76.73    3.47
   4   1   8   73.47    3.60
  -4  -1   8   72.61    3.59
   4   1   9   14.84    1.47
   4   1   9   15.15    1.69
  -4  -1   9   17.04    1.81
  -4  -1  10   58.35    2.65
  -4   2  10   48.09    2.35
  -4   2   9  107.16    4.20
   4  -2   9   97.81    4.14
  -4   2   8   96.24    4.36
   4  -2   8   84.06    4.35
  -4   2   7  156.24    5.85
   4  -2   7  135.86    6.01
  -4   2   6   51.44    3.28
   4  -2   6   52.65    2.98
   4   2  -6   50.51    5.77
   4  -2   6   42.41    3.43
  -4  -2  -6   46.74    4.13
   4  -2   5   43.29    2.58
  -4  -2  -5   46.84    3.94
   4   2  -5   44.87    4.78
   4  -2   5   41.88    3.29
   4  -2   4  351.15    8.21
   4   2  -4  352.03    8.22
   4   2  -4  370.41   13.33
  -4  -2  -4  349.58   11.00
   4  -2   4  347.59    9.54
   4  -2   3   40.30    2.27
   4   2  -3   37.63    3.91
   4   2  -3   38.24    2.32
  -4  -2  -3   48.88    3.65
   4   2  -3   38.38    2.32
   4  -2   3   40.21    2.77
   4  -2   2  250.06    6.03
   4   2  -2  260.08    9.60
   4   2  -2  253.28    6.53
   4   2  -2  251.63    6.61
   4   2  -2  252.74    6.11
   4  -2   2  252.89    6.93
   4  -2   1  448.64    8.77
   4   2  -1  448.05   12.68
   4  -2   1  447.37    9.38
   4   2  -1  447.32    9.48
   4   2  -1  443.90    8.91
   4  -2   1  444.72    9.63
   4  -2   0   45.46    2.91
   4   2   0   42.88    3.62
   4   2   0   50.95    2.25
   4  -2   0   44.77    2.54
   4   2   0   41.70    2.32
   4   2   0   40.46    2.10
   4  -2   0   45.19    2.41
   4   2   1  449.37   12.31
   4  -2  -1  447.34   10.61
   4   2   1  462.91    9.15
   4   2   1  445.69    9.50
   4  -2  -1  448.70    9.96
   4   2   1  451.25    9.34
   4   2   1  435.33    8.89
   4  -2  -1  439.29    9.15
   4  -2  -2  239.18    7.55
   4   2   2  267.04    6.46
   4   2   2  245.55    6.41
   4   2   2  254.44    6.28
  -4   2  -2  250.11    7.86
   4  -2  -2  250.92    6.11
   4   2   2  257.67    6.08
   4   2   2  254.63    8.58
   4   2   3   39.74    2.36
   4   2   3   35.79    2.31
   4  -2  -3   34.51    2.88
   4  -2  -3   38.32    2.15
  -4   2  -3   33.90    2.90
   4   2   3   33.25    1.96
   4  -2  -3   33.68    2.17
   4   2   4  355.90    8.54
   4   2   4  347.76    8.17
   4  -2  -4  368.39    7.92
   4  -2  -4  368.22   10.37
  -4   2  -4  350.39   10.93
  -4  -2   4  355.47    7.87
   4  -2  -4  358.88    8.23
   4   2   5   44.69    2.64
   4   2   5   40.85    2.65
   4  -2  -5   42.83    3.59
  -4   2  -5   39.07    3.89
   4  -2  -5   47.25    2.68
  -4  -2   5   44.96    2.56
   4   2   6   51.39    2.93
   4   2   6   50.13    2.98
   4  -2  -6   57.71    4.17
  -4   2  -6   52.04    4.80
  -4  -2   6   52.55    2.91
   4   2   7  144.02    5.17
   4  -2  -7  142.71    6.42
   4   2   7  150.82    5.21
  -4  -2   7  147.74    5.22
   4   2   8   86.61    3.86
   4   2   8   86.91    3.68
  -4  -2   8   91.29    3.92
   4   2   9   95.74    3.40
   4  -2  -9   99.96    4.08
  -4  -2   9  101.26    3.88
  -4   3   9    2.81    0.89
   4  -3   9    3.49    1.01
  -4   3   8    6.77    1.55
   4  -3   8    4.55    1.49
  -4   3   7   24.13    2.40
   4  -3   7   22.88    2.60
   4   3  -6   21.78    1.97
   4  -3   6   20.09    2.56
  -4  -3  -5  250.95    9.77
   4   3  -5  249.19    7.00
   4  -3   5  236.95    8.17
   4   3  -4  147.82    8.28
   4   3  -4  143.02    4.98
  -4  -3  -4  139.87    7.08
   4  -3   4  152.02    5.90
   4   3  -3   46.68    4.32
   4   3  -3   41.11    2.58
  -4  -3  -3   44.84    3.71
   4  -3   3   43.70    2.90
  -4   3   2   49.12    2.45
   4   3  -2   59.28    4.59
   4   3  -2   54.83    2.91
   4  -3   2   56.61    3.11
   4   3  -1  295.50   10.17
  -4   3   1  287.56    6.83
   4  -3   1  280.38    6.91
   4   3  -1  280.97    7.06
   4   3  -1  277.55    6.63
   4   3  -1  287.43    6.55
   4  -3   1  292.69    7.32
   4  -3   0    4.51    1.05
   4   3   0    6.48    0.85
   4   3   0    5.49    1.12
   4   3   0    3.15    0.78
   4   3   0    3.83    1.64
   4   3   0    5.08    0.86
  -4   3   0    7.44    1.53
   4  -3   0    4.57    0.88
   4   3   1  296.63    9.87
   4   3   1  310.50    7.27
   4   3   1  291.63    7.14
  -4   3  -1  297.82    8.91
   4   3   1  278.23    6.33
   4  -3  -1  286.25    6.81
   4   3   2   56.41    2.86
   4   3   2   54.62    2.87
   4  -3  -2   48.35    3.27
   4   3   2   55.43    2.84
  -4   3  -2   52.67    3.68
   4  -3  -2   56.04    2.55
   4   3   2   57.38    4.05
   4   3   3   41.56    2.56
   4   3   3   40.26    2.47
   4  -3  -3   41.07    3.37
  -4   3  -3   38.14    3.36
   4  -3  -3   41.68    2.47
   4   3   4  150.64    5.24
   4   3   4  149.24    4.82
   4  -3  -4  136.63    6.36
  -4   3  -4  135.66    6.73
   4  -3  -4  146.75    4.87
   4   3   5  259.34    6.96
   4   3   5  253.43    7.26
   4   3   5  268.65    6.92
   4  -3  -5  244.96    9.10
  -4  -3   5  259.60    6.72
   4  -3  -5  259.31    6.96
   4   3   6   22.63    2.07
   4  -3  -6   19.35    3.11
   4   3   6   23.61    2.08
  -4  -3   6   26.03    2.01
   4   3   7   24.74    2.20
   4   3   7   22.18    2.05
   4  -3  -7   24.62    3.09
  -4  -3   7   22.51    2.02
   4   3   8    7.17    1.45
  -4  -3   8    6.04    1.14
   4  -3  -8    7.33    1.85
   4   3   8    6.72    1.21
  -4  -3   9    1.43    0.81
   4   3   9    2.09    0.62
  -4   4   9   37.75    2.26
   4   4  -9   36.27    2.08
   4  -4   9   36.02    2.27
  -4   4   8   20.69    2.04
   4  -4   8   22.52    2.22
  -4   4   7  226.62    7.17
   4  -4   7  215.48    7.45
   4  -4   6  234.80    8.01
   4   4  -5   31.64    2.29
   4  -4   5   31.43    2.88
   4   4  -4  458.57   15.15
   4   4  -4  452.33   10.11
  -4  -4  -4  462.48   14.44
   4  -4   4  462.67   11.62
  -4   4   3  147.37    4.70
   4   4  -3  158.18    7.93
  -4  -4  -3  163.09    7.86
   4   4  -3  143.28    4.95
   4   4  -3  148.37    5.11
   4  -4   3  158.99    5.73
   4   4  -2  446.64   13.87
  -4   4   2  470.37    9.99
   4   4  -2  478.42   10.31
   4   4  -2  470.93   10.16
   4  -4   2  480.95   10.78
   4   4  -1  286.24   10.34
  -4   4   1  289.82    7.29
   4   4  -1  291.06    7.42
   4   4  -1  281.96    7.10
   4  -4   1  296.24    7.45
   4   4   0  140.33    6.78
   4   4   0  147.90    4.91
   4  -4   0  141.92    4.78
   4   4   0  145.81    4.86
   4   4   0  142.75    4.59
   4  -4   0  153.09    4.75
   4   4   1  279.48    9.71
   4   4   1  292.32    7.65
   4   4   1  306.02    7.52
  -4   4  -1  282.81    9.46
   4   4   1  276.81    6.84
   4   4   2  460.68   10.24
   4   4   2  472.76   10.67
   4  -4  -2  473.50   11.62
   4   4   2  450.74    9.53
  -4   4  -2  479.71   13.40
   4  -4  -3  144.24    5.00
   4   4   3  141.11    4.85
   4   4   3  155.38    5.46
   4  -4  -3  146.47    6.28
  -4   4  -3  149.83    7.21
   4   4   4  427.28    9.62
   4   4   4  468.01   10.76
   4  -4  -4  402.41   12.04
  -4   4  -4  428.73   13.55
   4  -4  -4  461.86   10.03
   4   4   5   30.21    2.35
   4   4   5   30.16    2.46
   4  -4  -5   26.73    3.23
   4   4   5   30.83    2.22
  -4  -4   5   30.47    2.07
   4   4   6  237.85    6.83
   4   4   6  225.80    6.82
   4  -4  -6  211.04    8.63
  -4  -4   6  231.02    6.39
   4   4   7  217.08    6.37
   4   4   7  217.52    6.35
   4  -4  -7  213.96    8.16
  -4  -4   7  213.05    6.04
   4   4   8   19.40    1.70
   4   4   8   19.12    1.65
   4  -4  -8   17.77    2.41
  -4  -4   8   20.53    1.66
  -4   5   8   10.40    1.35
   4   5  -8   11.77    1.46
   4  -5   8   11.86    1.57
   4   5  -7   77.85    3.54
   4  -5   7   81.45    4.02
   4   5  -6  229.95    6.85
   4  -5   6  242.02    7.54
   4   5  -5  130.42    5.08
   4  -5   5  138.74    5.64
  -4   5   4   25.27    2.00
   4   5  -4   26.81    1.97
   4   5  -4   27.70    2.41
   4  -5   4   26.53    2.49
   4   5  -3  145.04    7.56
  -4  -5  -3  153.72    8.21
  -4   5   3  162.67    5.24
   4   5  -3  172.62    5.33
   4   5  -3  160.61    5.53
   4  -5   3  165.99    5.83
  -4  -5  -2  132.03    7.35
   4   5  -2  122.30    6.73
  -4   5   2  133.77    4.77
   4   5  -2  136.25    4.77
   4   5  -2  136.49    4.94
   4  -5   2  135.10    4.88
   4   5  -1  197.76    8.57
  -4   5   1  202.03    6.11
   4   5  -1  203.97    6.08
   4   5  -1  206.47    6.13
   4   5   0  496.68   14.02
  -4   5   0  516.18   11.19
   4   5   0  472.91   11.11
   4   5   0  512.51   10.76
   4   5   1  189.43    6.35
   4  -5  -1  196.10    6.22
  -4   5  -1  182.15    8.04
   4   5   1  201.32    5.81
   4   5   1  181.61    7.67
   4   5   2  127.18    4.75
   4   5   2  136.98    5.27
   4   5   2  128.96    4.54
  -4   5  -2  120.95    6.75
   4   5   3  162.97    5.30
   4   5   3  176.38    6.16
   4  -5  -3  172.11    6.82
  -4   5  -3  162.19    7.93
   4   5   4   26.19    2.41
   4   5   4   23.92    1.87
   4  -5  -4   21.75    2.93
   4  -5  -4   24.90    2.14
   4   5   5  127.89    4.70
   4   5   5  132.94    5.21
   4  -5  -5  132.25    6.35
   4  -5  -5  120.48    4.49
   4   5   6  221.25    6.36
   4   5   6  232.79    6.77
   4  -5  -6  220.44    8.18
  -4  -5   6  209.70    5.79
   4   5   7   76.34    3.36
   4   5   7   75.37    3.38
   4  -5  -7   78.10    4.42
  -4  -5   7   72.65    3.04
   4   5   8   11.26    1.28
  -4  -5   8   12.41    1.18
  -4   6   7   25.76    2.10
   4   6  -7   24.72    1.87
   4  -6   7   26.48    1.98
   4   6  -6    1.26    0.98
   4  -6   6    1.62    1.03
  -4   6   5   49.05    2.51
   4   6  -5   52.62    3.06
   4  -6   5   51.30    2.97
  -4   6   4   78.82    3.50
   4   6  -4   85.96    4.00
   4  -6   4   86.01    3.92
  -4   6   3  628.42   12.63
   4   6  -3  608.12   13.02
  -4   6   2   80.44    3.70
   4   6  -2   74.71    3.73
  -4   6   1    5.15    1.34
   4   6  -1    6.36    1.44
  -4   6   0  617.91   12.83
   4   6   0  623.97   12.56
  -4   6  -1    5.18    1.22
   4   6   1    3.66    1.18
   4   6   1    6.58    1.35
   4   6   1    4.92    1.20
  -4   6  -2   77.59    3.92
   4   6   2   73.65    3.43
   4   6   2   80.47    4.16
   4  -6  -3  599.72   12.55
   4   6   3  649.29   13.85
   4   6   4   88.46    4.21
   4  -6  -4   83.94    4.55
   4  -6  -4   83.25    3.61
   4   6   5   63.23    3.43
   4  -6  -5   53.89    3.81
   4  -6  -5   53.57    2.66
   4  -6  -6    0.02    1.21
   4   6   6    3.32    1.06
   4   6   7   29.72    1.90
   4   7  -6   23.48    1.68
  -4   7   5   66.23    2.75
   4   7  -5   73.70    3.24
  -4   7   4    1.04    0.92
   4   7  -4    1.73    0.92
  -4   7   3    5.08    1.19
   4   7  -3    4.30    1.39
  -4   7   2  100.28    4.07
   4   7  -2   91.22    4.03
  -4   7   1   28.02    2.27
   4   7  -1   28.46    2.33
  -4   7   0   38.21    2.53
   4   7   0   33.91    2.70
   4   7   0   34.69    2.52
  -4   7  -1   30.98    2.44
   4   7   1   28.56    2.20
   4   7   1   34.23    2.69
   4   7   1   31.31    2.34
  -4   7  -2   96.13    4.29
   4   7   2  100.34    4.43
   4  -7  -3    4.74    1.17
  -4   7  -3    2.80    1.24
   4   7   3    7.07    1.49
   4  -7  -4    1.33    0.51
  -4   7  -4    0.99    1.01
   4   7   4    0.48    1.00
  -4   7  -5   64.90    3.16
   4   7   5   76.99    3.40
  -4   7  -6   21.16    1.70
   4   7   6   21.13    1.64
  -4   8   4  119.47    3.63
   4   8  -4  124.79    3.98
  -4   8   3   84.58    3.20
   4   8  -3   90.40    3.49
  -4   8   2  119.43    4.07
   4   8  -2  120.71    4.27
  -4   8   1   34.40    2.28
   4   8  -1   32.13    2.05
   4   8  -1   33.42    2.26
  -4   8   0  105.73    4.04
   4   8   0  105.44    4.00
  -4   8  -1   32.74    2.17
   4   8   1   35.12    2.30
  -4   8  -2  118.52    4.24
   4   8   2  127.52    4.49
   4  -8  -2  115.79    3.85
  -4   8  -3   85.69    3.41
   4   8   3   88.94    3.59
  -4   8  -4  121.10    3.95
   4   8   4  130.37    4.20
   5   0   0    0.97    0.75
   5   0   0    0.28    0.98
   5   0   0    0.11    0.75
   5   0   0    0.74    1.09
   5   0   0   -1.38    0.91
   5   0  -1  412.34   12.59
   5   0   1  435.91    8.90
   5   0   1  420.00    9.15
   5   0  -1  407.16    8.91
   5   0  -1  423.18   10.20
   5   0   1  432.32    9.19
   5   0  -1  415.39    9.63
   5   0  -1  436.36    9.44
   5   0   1  451.09    9.83
   5   0  -1  419.82    8.61
   5   0   1  434.35   12.37
   5   0  -2    4.34    1.11
   5   0   2    3.12    0.96
   5   0  -2    3.74    0.84
   5   0  -2    4.63    1.29
   5   0   2    3.41    0.97
   5   0   2    3.44    0.94
   5   0  -2    4.53    1.99
   5   0  -2    5.37    1.15
   5   0   2    3.95    1.27
   5   0   3   68.22    3.23
   5   0  -3   68.15    5.43
   5   0   3   73.03    3.34
   5   0  -3   72.74    3.94
   5   0  -3   74.55    3.34
   5   0   3   71.09    3.71
   5   0   4  679.99   13.53
   5   0  -4  648.39   19.20
   5   0  -4  689.18   14.82
   5   0   4  683.56   14.43
  -5   0   5  807.50   15.49
   5   0   5  842.38   15.92
   5   0  -5  847.61   17.13
   5   0   5  804.81   16.60
  -5   0   6  100.21    4.19
   5   0   6  103.71    4.30
   5   0  -6  105.46    4.85
   5   0   6   99.10    4.53
   5   0   7  331.18    8.20
   5   0  -7  321.88    8.56
   5   0   7  324.77    8.50
  -5   0   7  324.30    8.17
   5   0   8   14.83    1.57
  -5   0   8   14.69    1.54
  -5   0   9    2.11    0.75
  -5   1   9   42.01    2.26
   5   1  -8   20.55    1.87
   5  -1   8   25.38    2.29
  -5   1   8   23.70    1.92
  -5   1   7   21.68    2.08
   5  -1   7   16.74    2.13
  -5   1   6   16.30    1.85
   5  -1   6   17.99    2.03
   5   1  -6   15.69    1.96
   5  -1   6   18.39    2.49
  -5   1   5  369.97    9.10
   5  -1   5  388.36    9.15
   5   1  -5  367.36    9.42
   5  -1   5  379.92   10.44
  -5   1   4    1.54    0.90
   5   1  -4    0.91    1.24
   5  -1   4    2.22    1.18
   5   1  -4   -1.99    1.86
   5  -1   4    3.36    1.52
   5  -1   3   87.33    3.63
   5   1  -3   91.45    6.44
   5   1  -3   82.31    4.03
   5   1  -3   88.51    3.73
   5  -1   3   85.26    4.27
   5  -1   2  166.30    4.94
   5   1  -2  177.79    8.44
   5  -1   2  176.52    5.12
   5   1  -2  164.61    5.78
   5   1  -2  169.18    5.70
   5   1  -2  166.67    5.20
   5  -1   2  169.35    5.86
   5   1  -1  176.23    8.08
   5  -1   1  183.89    4.99
   5  -1   1  175.26    4.99
   5   1  -1  172.88    5.47
   5   1  -1  180.32    5.92
   5   1  -1  190.43    5.85
   5   1  -1  179.04    5.34
   5  -1   1  191.43    5.94
   5  -1   0   18.63    2.40
   5  -1   0   16.55    1.43
   5   1   0   18.13    1.75
   5  -1   0   17.39    1.88
   5   1   0   19.16    1.82
   5  -1   0   15.51    1.55
   5   1   0   15.64    2.50
   5   1   0   16.48    1.63
   5  -1   0   19.20    1.86
   5  -1   0   15.96    1.53
   5   1   1  192.63    7.97
   5  -1  -1  176.00    7.34
   5   1   1  189.24    5.22
   5   1   1  181.19    5.54
   5  -1  -1  187.48    6.23
   5   1   1  185.67    5.50
   5  -1  -1  190.10    5.66
   5   1   1  180.05    5.46
   5  -1  -1  174.21    5.07
   5  -1  -2  152.50    7.02
   5   1   2  175.64    5.24
   5   1   2  164.34    5.39
   5  -1  -2  167.74    6.04
   5   1   2  165.38    5.06
   5  -1  -2  173.96    5.27
   5   1   2  165.43    5.33
   5  -1  -2  167.00    5.02
   5  -1  -3   81.03    5.25
   5   1   3   88.37    3.78
   5   1   3   82.82    3.63
   5  -1  -3   89.16    4.59
   5  -1  -3   84.28    3.55
   5   1   3   80.95    3.73
   5  -1  -3   80.80    3.45
   5   1   4    5.70    1.43
   5  -1  -4    3.05    1.47
   5   1   4    3.37    1.08
   5  -1  -4    4.31    1.06
   5   1   4    4.20    1.09
   5   1   5  385.00    9.35
   5  -1  -5  405.04   10.97
   5   1   6   16.46    2.03
   5  -1  -6   17.03    2.32
   5   1   6   16.15    2.03
  -5  -1   6   15.68    1.58
   5   1   7   18.76    2.00
   5  -1  -7   19.34    2.32
  -5  -1   7   19.16    1.81
   5   1   8   24.03    1.91
   5  -1  -8   26.79    2.13
  -5  -1   8   26.04    1.95
  -5   2   8  202.90    5.82
   5   2  -8  184.33    5.23
   5  -2   8  199.33    6.23
  -5   2   7   48.18    2.96
   5   2  -7   46.48    2.77
   5  -2   7   38.47    3.19
  -5   2   6   87.48    4.08
   5   2  -6   78.13    3.93
   5  -2   6   81.41    4.64
  -5   2   5   73.83    3.73
   5   2  -5   70.14    3.76
   5  -2   5   64.41    4.26
   5  -2   4  109.88    4.28
   5   2  -4  109.41    7.78
   5   2  -4  108.08    4.31
   5   2  -4  106.34    4.69
   5  -2   4  103.69    5.13
   5  -2   3    9.94    1.44
   5   2  -3    9.26    1.68
   5   2  -3    7.72    1.84
  -5  -2  -3   12.05    2.14
   5  -2   3   10.90    1.68
   5   2  -2  426.44   14.15
   5   2  -2  423.54   10.03
   5   2  -2  429.34    9.33
   5  -2   2  444.47   10.61
   5   2  -1  191.23    8.76
   5  -2   1  190.53    6.02
   5   2  -1  200.93    6.17
   5   2  -1  205.24    5.67
   5  -2   1  210.54    6.48
   5   2   0  847.04   20.23
   5   2   0  796.56   15.86
   5  -2   0  839.04   16.15
   5   2   0  832.83   15.58
   5   2   0  819.40   14.95
   5  -2   0  826.33   15.61
   5  -2  -1  205.32    5.88
   5   2   1  204.06    8.45
   5   2   1  206.89    5.77
   5   2   1  214.09    6.24
   5  -2  -1  208.21    6.77
   5   2   1  206.69    6.02
   5   2   1  197.29    5.64
   5  -2  -1  196.83    5.87
   5   2   2  435.89    9.68
   5   2   2  429.38    9.80
   5  -2  -2  433.86   11.00
   5   2   2  425.40    9.49
   5  -2  -2  412.91    9.33
   5   2   2  403.02    9.09
   5  -2  -2  424.24    9.38
   5   2   3   11.79    1.62
   5   2   3    9.28    1.51
   5  -2  -3   10.32    2.01
   5  -2  -3    9.85    1.32
   5   2   3    9.73    1.25
   5  -2  -3    9.70    1.41
   5   2   4  104.35    4.43
   5   2   4  110.49    4.34
   5  -2  -4  100.25    5.37
   5  -2  -4  106.14    4.01
   5   2   4   96.03    3.79
   5  -2  -4  106.92    4.19
   5   2   5   74.70    3.78
   5  -2  -5   74.94    4.75
   5   2   6   87.64    3.99
   5  -2  -6   88.47    5.11
  -5  -2   6   81.16    3.44
   5   2   7   46.03    2.82
   5  -2  -7   54.07    3.74
  -5  -2   7   48.38    2.60
   5   2   8  202.09    5.53
   5  -2  -8  204.53    6.46
  -5  -2   8  195.20    5.35
  -5   3   8    9.51    1.34
   5  -3   8    9.57    1.50
  -5   3   7   22.29    2.00
   5   3  -7   21.33    1.72
   5  -3   7   20.20    2.27
  -5   3   6   10.02    1.64
   5   3  -6   11.52    1.63
   5  -3   6    9.60    2.00
   5   3  -5   77.62    3.84
   5  -3   5   73.46    4.67
   5   3  -4   56.40    3.30
   5  -3   4   52.90    3.77
   5   3  -3  340.19   13.16
   5   3  -3  339.92    8.75
   5   3  -3  330.33    8.13
   5  -3   3  353.83    9.67
   5   3  -2   77.43    5.93
  -5  -3  -2   61.60    4.82
   5   3  -2   72.01    3.56
   5   3  -2   68.19    3.13
   5  -3   2   71.51    3.83
   5   3  -1   36.34    3.77
   5  -3   1   37.35    2.45
   5   3  -1   39.04    2.64
   5   3  -1   43.99    2.46
   5  -3   1   36.97    2.62
   5   3   0   37.04    3.77
   5   3   0   33.58    2.66
   5  -3   0   32.09    2.56
   5   3   0   36.43    2.53
   5   3   0   33.79    2.07
   5  -3   0   36.68    2.53
   5   3   1   41.83    4.00
   5   3   1   40.72    2.56
   5   3   1   40.48    2.79
   5  -3  -1   33.77    2.82
   5   3   1   38.01    2.61
   5   3   1   38.31    2.20
   5  -3  -1   37.96    2.40
   5   3   2   77.77    3.74
   5   3   2   73.60    3.61
   5  -3  -2   67.24    4.11
   5  -3  -2   70.65    3.15
   5  -3  -2   71.68    3.49
   5   3   3  356.92    8.98
   5   3   3  341.85    8.59
   5  -3  -3  333.05   10.13
   5  -3  -3  330.16    7.69
   5  -3  -3  341.56    8.48
   5   3   4   55.93    3.28
   5   3   4   52.45    2.96
   5  -3  -4   54.30    3.02
   5   3   5   86.36    4.09
   5  -3  -5   80.90    3.73
   5   3   6   12.10    1.75
   5   3   7   24.46    2.05
   5  -3  -7   23.19    2.65
   5   3   8   10.44    1.22
   5  -3  -8   13.76    1.76
  -5   4   8  125.60    4.08
   5   4  -8  116.62    3.84
   5  -4   8  126.63    4.36
  -5   4   7   36.52    2.46
   5   4  -7   38.07    2.40
   5  -4   7   38.01    2.76
  -5   4   6  210.00    6.65
   5   4  -6  207.72    5.70
   5   4  -6  211.93    6.30
   5  -4   6  226.57    7.47
   5   4  -5  175.30    5.54
   5   4  -5  176.89    5.79
   5  -4   5  180.37    6.82
   5   4  -4    6.67    1.48
   5   4  -4    5.81    1.35
   5  -4   4    5.92    1.79
   5   4  -3   32.81    2.44
   5   4  -3   31.36    2.35
   5  -4   3   30.12    2.82
   5   4  -2  161.70    5.50
   5   4  -2  152.36    5.12
   5  -4   2  161.91    5.84
   5   4  -1   47.05    4.63
  -5   4   1   43.23    2.59
   5   4  -1   42.42    2.82
   5   4  -1   43.36    2.55
   5  -4   1   44.90    2.86
   5   4   0  304.92   11.30
  -5   4   0  303.76    7.82
   5   4   0  309.96    8.60
   5  -4   0  300.02    7.97
   5   4   0  307.39    8.04
   5  -4   0  297.46    7.63
   5   4   1   49.21    2.86
   5   4   1   43.48    3.06
   5  -4  -1   42.32    2.91
   5  -4  -1   42.81    2.52
   5   4   1   44.50    4.23
   5  -4  -2  159.56    5.52
   5   4   2  160.60    5.72
   5   4   2  153.77    5.49
   5  -4  -2  149.91    6.14
   5   4   3   31.83    2.59
   5   4   3   27.44    2.28
   5  -4  -3   30.00    2.95
   5  -4  -3   31.87    2.47
   5  -4  -4    3.30    1.20
   5   4   4    7.81    1.31
   5   4   4    7.63    1.64
   5   4   5  192.27    6.28
   5  -4  -5  184.30    5.73
   5   4   6  216.88    6.49
   5   4   7   37.89    2.35
   5  -4  -7   37.21    2.89
   5  -4  -8  126.76    4.64
  -5   5   7   25.73    1.96
   5   5  -7   22.40    1.72
   5  -5   7   28.99    2.14
  -5   5   6   28.34    2.25
   5   5  -6   32.34    2.31
   5  -5   6   28.39    2.35
   5   5  -5    3.67    1.23
   5  -5   5    6.19    1.53
   5   5  -4  433.93    9.56
   5   5  -4  425.56    9.94
   5  -5   4  447.27   10.75
   5   5  -3   65.97    3.31
   5   5  -3   64.31    3.32
   5  -5   3   63.23    3.55
  -5   5   2  156.50    5.11
   5   5  -2  162.16    5.44
   5   5  -2  155.78    5.27
   5  -5   2  154.17    5.43
  -5   5   1   47.66    2.79
   5   5  -1   44.65    2.96
   5   5  -1   45.57    2.70
   5  -5   1   48.81    2.73
  -5   5   0   38.76    2.59
   5   5   0   40.16    2.96
   5   5   0   36.79    2.32
  -5   5  -1   49.79    3.08
   5   5   1   45.18    3.08
   5   5   1   50.63    3.26
   5  -5  -1   45.95    3.01
   5  -5  -2  169.47    5.75
   5   5   2  151.02    5.78
   5   5   2  158.57    5.45
   5  -5  -2  155.09    5.86
   5   5   3   62.82    3.59
   5   5   3   59.85    3.14
   5  -5  -3   59.76    3.70
   5  -5  -3   64.15    3.33
   5   5   4  425.82    9.36
   5  -5  -4  421.86   11.45
   5  -5  -4  440.52    9.83
   5  -5  -5    4.51    1.06
   5  -5  -5    2.78    1.74
   5   5   5    2.76    1.12
   5   5   6   30.27    2.21
   5  -5  -6   32.91    2.84
   5   5   7   24.35    1.75
   5  -5  -7   24.82    2.19
  -5   6   6   15.84    1.49
   5   6  -6   11.07    1.39
   5   6  -5  116.62    4.04
   5  -6   5  105.48    3.95
   5   6  -4   26.32    2.07
   5  -6   4   25.73    2.00
  -5   6   3   29.78    2.00
   5   6  -3   27.90    2.14
  -5   6   2  148.68    4.84
   5   6  -2  145.68    4.97
  -5   6   1  901.68   16.40
   5   6  -1  858.52   16.12
  -5   6   0   50.46    2.89
   5   6   0   47.40    3.07
   5   6   0   43.03    2.62
  -5   6  -1  882.11   16.32
   5   6   1  888.77   16.20
   5   6   1  847.56   15.39
   5  -6  -2  160.81    5.34
  -5   6  -2  154.22    5.39
   5   6   2  142.04    5.52
   5   6   2  145.74    4.89
  -5   6  -3   34.30    2.48
   5   6   3   35.35    2.69
   5   6   3   32.60    2.05
   5  -6  -3   32.04    2.47
   5  -6  -3   34.92    2.32
  -5   6  -4   25.75    2.09
   5   6   4   29.33    2.33
   5  -6  -4   22.79    2.31
   5  -6  -4   26.03    1.83
   5   6   5  123.43    4.44
   5  -6  -5  120.21    4.75
   5   6   6   10.89    1.23
  -5   6  -6   11.13    1.35
   5  -6  -6   10.72    1.42
   5   7  -4  111.47    3.73
  -5   7   3   34.72    1.97
   5   7  -3   35.08    2.18
  -5   7   2   18.87    1.52
   5   7  -2   21.03    1.80
  -5   7   1   36.63    2.27
   5   7  -1   39.45    2.54
   5   7  -1   35.06    2.20
  -5   7   0    5.36    1.07
   5   7   0    5.42    1.15
   5   7   0    5.44    1.23
  -5   7  -1   39.68    2.44
   5   7   1   33.34    2.14
  -5   7  -2   19.73    1.83
   5   7   2   22.20    1.96
   5  -7  -2   21.06    1.77
  -5   7  -3   39.88    2.33
   5   7   3   41.15    2.56
   5  -7  -3   37.88    2.15
  -5   7  -4  113.44    3.90
   5   7   4  114.65    4.02
   5  -7  -4  106.83    3.36
   5  -8   0   23.93    1.61
  -5   8   0   26.28    1.63
  -5   8  -1  103.07    3.39
   5  -8  -1   96.14    3.24
   6   0   0    3.68    1.07
   6   0   0    3.87    1.15
   6   0   0    3.19    1.43
   6   0   0    3.94    1.28
   6   0  -1   56.17    4.99
   6   0   1   61.41    2.81
   6   0   1   51.91    2.86
   6   0  -1   54.79    2.77
   6   0   1   53.94    2.93
   6   0  -1   58.90    3.42
   6   0  -1   58.74    3.25
   6   0   1   59.20    3.38
   6   0   2   19.85    1.83
   6   0   2   17.28    1.89
   6   0  -2   18.82    2.28
   6   0  -2   21.34    2.06
   6   0   2   19.31    2.28
   6   0   3 1193.50   20.99
   6   0  -3 1221.71   22.83
   6   0  -3 1209.34   22.49
   6   0  -3 1184.44   20.94
   6   0   3 1213.67   22.04
   6   0   4  100.83    4.19
   6   0  -4  108.25    5.06
   6   0   4  103.50    4.69
   6   0   5 1360.47   23.16
   6   0  -5 1330.81   24.28
   6   0   5 1332.15   23.81
   6   0   6   41.86    2.61
   6   0  -6   40.09    2.81
   6   0   6   34.98    2.50
   6   0  -7    3.14    1.10
   6   0  -7    3.13    1.15
   6   1  -7   81.90    3.65
   6  -1   7   75.38    3.55
   6   1  -6    0.05    1.17
   6  -1   6    3.55    1.34
   6  -1   5   70.74    3.50
   6   1  -5   72.45    3.78
   6   1  -5   73.21    3.99
   6  -1   5   74.16    4.16
   6  -1   4   44.65    2.83
   6   1  -4   47.47    3.29
   6   1  -4   45.15    3.29
   6  -1   4   48.43    3.40
   6  -1   3   24.84    2.08
   6   1  -3   22.40    2.02
   6   1  -3   28.84    2.68
   6   1  -3   27.94    2.35
   6  -1   3   31.04    2.87
   6  -1   2  130.43    4.49
   6   1  -2  123.29    4.66
   6   1  -2  133.19    5.31
   6   1  -2  126.15    4.66
   6  -1   2  130.26    5.40
   6   1  -1    8.28    1.26
   6   1  -1    9.96    1.70
   6   1  -1    8.95    1.58
   6  -1   1    8.81    1.77
   6   1   0  541.89   16.21
   6  -1   0  559.69   11.21
   6   1   0  586.61   12.26
   6   1   0  590.38   12.36
   6  -1   0  568.02   11.92
   6   1   0  580.82   12.07
   6  -1   0  602.29   12.63
   6   1   1    9.60    1.56
   6  -1  -1   11.53    1.94
   6   1   1   12.72    1.63
   6  -1  -1   10.72    1.59
   6  -1  -1    9.61    1.64
   6   1   1   10.64    1.65
   6  -1  -1   12.34    1.47
   6   1   2  134.71    4.72
   6   1   2  131.23    4.86
   6  -1  -2  127.64    5.70
   6   1   2  126.69    4.53
   6  -1  -2  131.73    5.28
   6  -1  -2  128.95    4.73
   6   1   2  126.74    4.83
   6  -1  -2  125.74    4.46
   6   1   3   25.36    2.24
   6   1   3   28.78    2.40
   6  -1  -3   28.43    3.03
   6  -1  -3   27.42    2.26
   6   1   3   27.37    2.28
   6   1   4   44.20    2.92
   6  -1  -4   53.74    3.70
   6   1   4   46.26    2.91
   6   1   5   69.59    3.55
   6   1   5   63.94    3.24
   6  -1  -6    2.68    1.36
   6   1   6    2.17    1.11
   6   1   7   83.15    3.42
   6  -1  -7   79.02    3.64
   6   2  -7    6.45    1.17
   6  -2   7    6.17    1.19
   6   2  -6   17.82    1.89
   6  -2   6   18.69    2.21
   6   2  -5  122.66    4.89
   6  -2   5  110.98    5.25
   6   2  -4   79.45    3.91
   6   2  -4   83.77    4.24
   6  -2   4   75.62    4.45
   6   2  -3    7.74    1.51
   6   2  -3    6.05    1.64
   6  -2   3    6.06    2.05
   6   2  -2  272.19    7.90
   6   2  -2  285.53    8.06
   6   2  -2  281.69    7.37
   6  -2   2  272.58    8.31
   6   2  -1   33.85    2.66
   6   2  -1   32.45    2.57
   6   2  -1   32.06    2.29
   6  -2   1   34.87    2.73
   6  -2   1   29.23    2.10
   6   2   0   12.49    1.76
   6  -2   0   11.88    1.85
   6   2   0   13.30    1.93
   6   2   0   13.31    1.67
   6  -2   0   12.84    1.86
   6  -2   0   14.70    1.58
   6   2   1   31.04    2.53
   6  -2  -1   33.16    2.94
   6   2   1   30.67    2.40
   6  -2  -1   31.22    2.31
   6   2   1   30.01    2.19
   6  -2  -1   28.85    2.40
   6  -2  -1   31.28    2.27
   6   2   2  277.63    7.41
   6   2   2  277.37    7.66
   6  -2  -2  283.89    8.82
   6  -2  -2  263.78    7.22
   6   2   2  253.02    6.89
   6  -2  -2  275.29    7.30
   6  -2  -3    7.13    1.33
   6   2   3    5.71    1.47
   6  -2  -3    6.66    2.03
   6   2   3    4.33    1.41
   6  -2  -3    7.05    1.33
   6   2   3    5.20    1.18
   6   2   4   86.35    3.98
   6  -2  -4   83.47    4.85
   6   2   5  120.16    4.72
   6  -2  -5  128.88    5.89
   6   2   6   18.68    1.84
   6  -2  -6   17.07    2.29
   6  -2  -7    5.22    1.45
   6   2   7    6.59    1.09
   6  -3   7   21.92    1.99
  -6   3   6   27.36    1.96
   6   3  -6   28.14    2.06
   6  -3   6   26.78    2.47
   6   3  -5   77.82    3.57
   6  -3   5   76.32    4.28
   6   3  -4   14.33    2.08
   6   3  -4   19.34    1.99
   6  -3   4   15.23    2.35
   6   3  -3   13.25    2.12
   6   3  -3   16.29    1.95
   6  -3   3   16.30    2.26
   6   3  -2   13.01    1.95
   6   3  -2   15.41    1.94
   6  -3   2   15.75    2.13
   6  -3   1  102.79    4.19
   6   3  -1  102.19    4.76
   6   3  -1  106.41    4.48
   6   3  -1  103.68    3.93
   6  -3   1   97.67    4.46
   6  -3   0    7.63    1.38
   6   3   0    8.14    1.73
   6  -3   0    8.32    1.67
   6   3   0    8.97    1.43
   6   3   0    8.79    1.46
   6  -3   0    9.17    1.52
   6   3   1   98.62    4.43
   6  -3  -1   93.59    4.65
   6   3   1  100.67    4.32
   6   3   1   91.46    3.63
   6  -3  -1  103.56    4.15
   6  -3  -1   96.82    4.15
   6   3   2   16.58    1.83
   6   3   2   18.56    2.08
   6  -3  -2   13.17    2.40
   6  -3  -2   15.64    1.58
   6  -3  -2   15.76    1.90
   6   3   3   16.12    1.98
   6   3   3   16.71    1.91
   6  -3  -3   14.22    2.52
   6  -3  -3   15.56    1.67
   6  -3  -3   15.98    1.85
   6   3   4   18.96    2.00
   6   3   4   20.25    2.03
   6  -3  -4   19.66    1.90
   6   3   5   89.03    3.88
   6  -3  -5   68.62    4.30
   6   3   6   27.69    2.11
   6  -3  -6   26.77    2.63
   6   3   7   21.98    1.57
   6  -3  -7   21.78    2.12
   6  -4   6  120.90    4.56
   6   4  -5   20.71    1.70
   6  -4   5   25.81    2.41
   6   4  -4  402.80    9.34
   6  -4   4  431.87   10.53
   6   4  -3   11.85    1.91
   6   4  -3   10.92    1.70
   6  -4   3   13.72    1.84
   6   4  -2  153.29    6.06
   6   4  -2  156.69    5.39
   6  -4   2  149.55    5.50
   6   4  -1   24.15    2.48
   6   4  -1   26.66    2.27
   6  -4   1   23.26    2.12
   6  -4   0   27.89    2.32
   6   4   0   28.37    2.57
   6  -4   0   25.24    2.10
  -6   4  -1   21.84    2.00
   6   4   1   22.40    2.17
   6  -4  -1   22.69    2.28
   6  -4  -1   23.13    1.84
   6  -4  -1   24.54    2.16
   6   4   2  141.05    5.29
   6   4   2  153.27    5.33
   6  -4  -2  147.97    5.85
   6  -4  -2  147.59    5.26
   6   4   3   14.18    1.79
   6  -4  -3   12.92    2.24
   6   4   3   12.29    1.72
   6  -4  -3   13.04    1.69
   6   4   4  411.42    9.85
   6   4   4  404.86    9.07
   6  -4  -4  430.55    9.31
   6   4   5   23.21    2.03
   6  -4  -5   17.41    2.52
   6   4   6  121.34    4.13
   6  -4  -6  110.90    4.78
   6   5  -5    9.80    1.49
   6  -5   5   13.97    1.57
   6   5  -4   10.77    1.65
   6  -5   4   16.78    1.76
   6   5  -3   -0.34    1.23
   6  -5   3    1.38    1.10
   6   5  -2  137.39    5.40
   6  -5   2  119.14    4.32
   6   5  -1  161.90    5.81
   6  -5   1  144.59    4.58
   6  -5   0   22.52    2.11
  -6   5   0   19.22    1.79
   6   5   0   22.21    2.28
  -6   5  -1  148.23    4.90
   6   5   1  160.76    5.48
   6  -5  -1  157.77    5.38
  -6   5  -2  129.57    4.56
   6   5   2  130.06    4.64
   6  -5  -2  129.73    4.86
   6  -5  -2  134.12    4.77
   6  -5  -3    1.03    1.05
  -6   5  -3    1.50    0.82
   6   5   3    0.27    0.81
   6  -5  -3    0.87    0.99
   6   5   3    0.16    0.92
   6   5   4   16.88    1.76
  -6   5  -4   14.01    1.49
   6  -5  -4   13.05    1.92
   6  -5  -4   15.92    1.56
   6   5   5   13.28    1.53
   6  -5  -5   13.05    1.77
   6   6  -4   26.03    2.03
   6   6  -3  224.65    6.40
   6   6  -2    2.06    0.88
   6   6  -1  205.11    6.07
  -6   6   0   99.80    3.60
   6   6   0  108.78    4.13
   6   6   1  199.13    5.60
   6  -6  -1  214.44    5.89
   6  -6  -2    0.79    0.66
  -6   6  -2    0.62    0.82
   6   6   2    0.73    0.75
  -6   6  -3  195.55    5.32
   6   6   3  187.99    4.83
   6  -6  -3  203.51    5.27
  -6   6  -4   19.84    1.62
   6  -7   0   41.12    2.12
   6  -7  -1   33.91    1.88
   7   0   0   -0.05    0.56
   7   0   0    1.84    0.83
   7   0  -1  183.87    5.96
   7   0  -1  189.59    5.89
   7   0   1  184.48    6.01
   7   0  -2    8.45    1.72
   7   0  -2    7.92    1.46
   7   0   2    4.83    1.47
   7   0  -3  109.44    4.74
   7   0   3  113.75    4.50
   7   0  -4    3.54    1.42
   7   0   4    4.22    1.31
   7   0  -5  219.84    6.58
   7   0   5  194.70    5.61
   7   0  -6   83.95    3.57
   7   1  -6    8.21    1.29
   7   1  -5   68.85    3.36
   7  -1   5   59.07    3.17
   7   1  -4   11.74    1.68
   7  -1   4   12.45    1.72
   7   1  -3  101.91    4.49
   7  -1   3  102.91    4.56
   7   1  -2   95.78    4.25
   7   1  -2   98.82    4.05
   7  -1   2   96.31    4.46
   7   1  -1    9.24    1.41
   7   1  -1    5.39    1.48
   7   1  -1    6.62    1.45
   7  -1   1    7.98    1.61
   7   1   0    2.51    1.03
   7   1   0    1.95    1.02
   7   1   0    3.07    1.28
   7  -1   0    5.34    1.36
   7   1   1    7.59    1.44
   7   1   1    7.42    1.30
   7  -1  -1    8.90    1.36
   7  -1  -1    6.19    1.42
   7   1   1    7.56    1.51
   7  -1  -2   96.90    4.21
   7  -1  -2   93.91    3.91
   7   1   2   91.08    3.90
   7   1   3  101.39    3.95
   7  -1  -3   93.04    4.35
   7   1   3   95.45    3.85
   7   1   4   12.53    1.54
   7  -1  -4   11.27    1.90
   7   1   4   10.36    1.38
   7   1   5   66.75    3.01
   7  -1  -5   62.55    3.43
   7  -1  -6    8.15    1.48
   7   2  -5    2.95    1.17
   7  -2   5    2.45    1.09
   7   2  -4   22.75    2.17
   7  -2   4   20.49    2.12
   7   2  -3   25.46    2.30
   7  -2   3   25.40    2.40
   7   2  -2   34.77    2.53
   7   2  -2   39.70    2.77
   7  -2   2   37.82    2.87
   7   2  -1   12.11    1.71
   7   2  -1   13.84    1.79
   7   2  -1   11.96    1.61
   7  -2   1   13.91    1.75
   7   2   0  546.14   11.71
   7   2   0  531.73   11.54
   7   2   0  539.96   11.05
   7  -2   0  556.09   11.77
   7   2   1   11.58    1.55
   7   2   1   12.34    1.45
   7  -2  -1   13.23    1.75
   7   2   2   39.35    2.63
   7  -2  -2   34.57    2.28
   7   2   2   34.00    2.21
   7   2   3   24.07    1.87
   7  -2  -3   24.42    2.59
   7  -2  -3   22.06    2.11
   7   2   4   20.32    1.78
   7  -2  -4   20.09    2.38
   7  -2  -4   17.15    1.95
   7  -2  -5    2.88    1.15
   7   2   5    2.43    0.72
   7  -2  -5    3.54    1.04
   7  -3   5   10.77    1.35
   7   3  -4   31.39    2.20
   7  -3   4   27.30    2.23
   7   3  -3  113.82    4.21
   7  -3   3  112.29    4.50
   7   3  -2   41.00    2.72
   7   3  -2   45.04    2.78
   7  -3   2   47.50    2.96
   7   3  -1    1.44    1.10
   7   3  -1    1.24    1.15
   7  -3   1    1.90    1.10
   7   3   0    0.61    1.08
   7  -3   0    2.17    1.05
   7  -3  -1    2.10    1.04
   7   3   1   -0.08    0.94
   7  -3  -1    0.70    0.89
   7   3   2   41.21    2.58
   7  -3  -2   42.34    2.33
   7  -3  -3   92.67    4.47
   7   3   4   26.38    1.90
   7  -3  -4   24.90    2.39
   7  -3  -5   13.90    1.82
   7  -4   4    2.56    0.85
   7   4  -3    4.09    1.12
   7   4  -3    3.45    0.99
   7  -4   3    7.03    1.26
   7   4  -2   55.88    3.16
   7  -4   2   57.69    2.85
   7   4  -1   12.47    1.71
   7  -4   1   13.67    1.55
   7  -4   0  149.81    4.48
   7  -4   0  145.80    4.69
   7  -4  -1   10.78    1.38
   7   4   1   11.55    1.60
   7   4   2   64.85    3.02
   7  -4  -2   61.65    2.89
   7   5  -2   33.53    2.23
   7   5  -1   17.08    1.66
   7  -5   0    2.51    0.97
   7   5   0    2.62    0.97
   7   5   1   20.61    1.62
   7  -5  -1   16.74    1.58
   7   5   2   37.20    2.03
   7  -5  -2   38.45    2.12
   8   0   0   58.71    2.80
   8   0   1   45.59    2.50
   8   0   2   59.10    2.77
   8  -1   2   17.47    1.69
   8  -1   1   24.94    1.97
   8  -1   0   86.62    3.42
   8  -1  -1   27.95    2.02
   8   1   1   26.02    1.89
   8  -2   1   11.26    1.35
   8  -2   0    2.13    1.04
   0   0   0    0.00    0.00


TITL 1a in P2(1)2(1)2(1)
REM P2(1)2(1)2(1) (#19 in standard setting)
CELL 1.54184   7.029066   8.753852   9.993200  90.0000  90.0000  90.0000
ZERR    3.00   0.000129   0.000141   0.000166   0.0000   0.0000   0.0000
LATT -1
SYMM -x+1/2,-y, z+1/2
SYMM -x, y+1/2,-z+1/2
SYMM  x+1/2,-y+1/2,-z
SFAC C H N Cl
UNIT 12.00 6.00 15.00 3.00
TREF
HKLF 4
END
_computing_structure_solution     'SHELXT 2018/2 (Sheldrick, 2018)'
;
_shelx_hkl_checksum              65853
_olex2_submission_special_instructions 'No special instructions were received'
_oxdiff_exptl_absorpt_empirical_details
;
Empirical correction (ABSPACK) includes:
- Absorption correction using spherical harmonics
- Frame scaling
;
_oxdiff_exptl_absorpt_empirical_full_max 1.632
_oxdiff_exptl_absorpt_empirical_full_min 0.789
loop_
_space_group_symop_operation_xyz
'x, y, z'
'-x+1/2, -y, z+1/2'
'-x, y+1/2, -z+1/2'
'x+1/2, -y+1/2, -z'
loop_
_atom_site_label
_atom_site_type_symbol
_atom_site_fract_x
_atom_site_fract_y
_atom_site_fract_z
_atom_site_U_iso_or_equiv
_atom_site_adp_type
_atom_site_occupancy
_atom_site_site_symmetry_order
_atom_site_calc_flag
_atom_site_refinement_flags_posn
_atom_site_refinement_flags_adp
_atom_site_refinement_flags_occupancy
_atom_site_disorder_assembly
_atom_site_disorder_group
Cl1 Cl 0.28958(13) 0.33211(9) 0.31862(9) 0.0407(3) Uani 1 1 d . . . . .
N4 N 0.3602(4) 0.7477(3) 0.4113(3) 0.0275(6) Uani 1 1 d . . . . .
N5 N 0.3700(4) 0.5937(3) 0.4176(3) 0.0300(6) Uani 1 1 d . . . . .
N3 N 0.4355(4) 0.8380(4) 0.5059(3) 0.0377(7) Uani 1 1 d . . . . .
N2 N 0.3977(5) 0.9771(4) 0.4662(3) 0.0426(8) Uani 1 1 d . . . . .
N1 N 0.3007(5) 0.9813(3) 0.3490(3) 0.0375(7) Uani 1 1 d . . . . .
C9 C 0.2781(5) 0.8347(3) 0.3148(3) 0.0282(6) Uani 1 1 d . . . . .
C7 C 0.1987(5) 0.6047(4) 0.2067(3) 0.0329(7) Uani 1 1 d . . . . .
H7 H 0.144544 0.548845 0.137277 0.039 Uiso 1 1 calc R U . . .
C6 C 0.2871(5) 0.5290(3) 0.3160(3) 0.0293(7) Uani 1 1 d . . . . .
C8 C 0.1945(5) 0.7589(4) 0.2050(3) 0.0329(7) Uani 1 1 d . . . . .
H8 H 0.139126 0.812618 0.134733 0.039 Uiso 1 1 calc R U . . .
loop_
_atom_site_aniso_label
_atom_site_aniso_U_11
_atom_site_aniso_U_22
_atom_site_aniso_U_33
_atom_site_aniso_U_23
_atom_site_aniso_U_13
_atom_site_aniso_U_12
Cl1 0.0471(5) 0.0235(4) 0.0514(5) -0.0024(3) 0.0111(4) -0.0013(4)
N4 0.0348(14) 0.0250(13) 0.0228(13) -0.0008(11) -0.0001(12) -0.0030(11)
N5 0.0367(14) 0.0259(13) 0.0273(13) 0.0035(11) 0.0027(13) -0.0002(12)
N3 0.0483(16) 0.0362(16) 0.0287(14) -0.0051(14) -0.0045(13) -0.0062(16)
N2 0.0546(19) 0.0328(16) 0.0405(16) -0.0089(13) 0.0028(15) -0.0062(15)
N1 0.0460(18) 0.0276(13) 0.0389(15) -0.0027(12) 0.0048(15) -0.0012(14)
C9 0.0336(16) 0.0256(15) 0.0254(14) 0.0032(13) 0.0051(13) 0.0012(15)
C7 0.0391(18) 0.0363(17) 0.0232(15) -0.0062(12) 0.0009(17) -0.0034(15)
C6 0.0330(17) 0.0246(15) 0.0303(16) -0.0021(13) 0.0076(16) -0.0005(14)
C8 0.0372(18) 0.0374(18) 0.0241(15) 0.0040(13) 0.0008(16) 0.0026(15)
loop_
_atom_type_symbol
_atom_type_description
_atom_type_scat_dispersion_real
_atom_type_scat_dispersion_imag
_atom_type_scat_source
C C 0.0181 0.0091 'International Tables Vol C Tables 4.2.6.8 and 6.1.1.4'
H H 0.0000 0.0000 'International Tables Vol C Tables 4.2.6.8 and 6.1.1.4'
Cl Cl 0.3639 0.7018 'International Tables Vol C Tables 4.2.6.8 and 6.1.1.4'
N N 0.0311 0.0180 'International Tables Vol C Tables 4.2.6.8 and 6.1.1.4'
loop_
_geom_angle_atom_site_label_1
_geom_angle_atom_site_label_2
_geom_angle_atom_site_label_3
_geom_angle
_geom_angle_site_symmetry_1
_geom_angle_site_symmetry_3
_geom_angle_publ_flag
N5 N4 C9 127.9(3) . . ?
N3 N4 N5 122.4(3) . . ?
N3 N4 C9 109.7(3) . . ?
C6 N5 N4 112.1(3) . . ?
N2 N3 N4 104.8(3) . . ?
N3 N2 N1 112.9(3) . . ?
C9 N1 N2 104.8(3) . . ?
N4 C9 C8 117.8(3) . . ?
N1 C9 N4 107.8(3) . . ?
N1 C9 C8 134.4(3) . . ?
C6 C7 H7 120.5 . . ?
C8 C7 H7 120.5 . . ?
C8 C7 C6 119.0(3) . . ?
N5 C6 Cl1 114.8(2) . . ?
N5 C6 C7 126.4(3) . . ?
C7 C6 Cl1 118.8(2) . . ?
C9 C8 H8 121.6 . . ?
C7 C8 C9 116.8(3) . . ?
C7 C8 H8 121.6 . . ?
loop_
_geom_bond_atom_site_label_1
_geom_bond_atom_site_label_2
_geom_bond_distance
_geom_bond_site_symmetry_2
_geom_bond_publ_flag
Cl1 C6 1.724(3) . ?
N4 N5 1.351(4) . ?
N4 N3 1.342(4) . ?
N4 C9 1.358(4) . ?
N5 C6 1.300(4) . ?
N3 N2 1.308(4) . ?
N2 N1 1.355(4) . ?
N1 C9 1.337(4) . ?
C9 C8 1.411(5) . ?
C7 H7 0.9300 . ?
C7 C6 1.421(5) . ?
C7 C8 1.351(5) . ?
C8 H8 0.9300 . ?
loop_
_geom_torsion_atom_site_label_1
_geom_torsion_atom_site_label_2
_geom_torsion_atom_site_label_3
_geom_torsion_atom_site_label_4
_geom_torsion
_geom_torsion_site_symmetry_1
_geom_torsion_site_symmetry_2
_geom_torsion_site_symmetry_3
_geom_torsion_site_symmetry_4
_geom_torsion_publ_flag
N4 N5 C6 Cl1 -178.7(2) . . . . ?
N4 N5 C6 C7 1.6(5) . . . . ?
N4 N3 N2 N1 -0.1(4) . . . . ?
N4 C9 C8 C7 1.7(5) . . . . ?
N5 N4 N3 N2 -179.8(3) . . . . ?
N5 N4 C9 N1 179.8(3) . . . . ?
N5 N4 C9 C8 -1.2(5) . . . . ?
N3 N4 N5 C6 179.7(3) . . . . ?
N3 N4 C9 N1 -0.3(4) . . . . ?
N3 N4 C9 C8 178.7(3) . . . . ?
N3 N2 N1 C9 -0.1(4) . . . . ?
N2 N1 C9 N4 0.3(4) . . . . ?
N2 N1 C9 C8 -178.5(4) . . . . ?
N1 C9 C8 C7 -179.6(4) . . . . ?
C9 N4 N5 C6 -0.4(5) . . . . ?
C9 N4 N3 N2 0.3(4) . . . . ?
C6 C7 C8 C9 -0.7(6) . . . . ?
C8 C7 C6 Cl1 179.2(3) . . . . ?
C8 C7 C6 N5 -1.1(6) . . . . ?
