#------------------------------------------------------------------------------
#$Date: 2021-12-13 10:54:47 +0200 (Mon, 13 Dec 2021) $
#$Revision: 271351 $
#$URL: file:///home/coder/svn-repositories/cod/cif/1/56/56/1565676.cif $
#------------------------------------------------------------------------------
#
# This file is available in the Crystallography Open Database (COD),
# http://www.crystallography.net/
#
# All data on this site have been placed in the public domain by the
# contributors.
#
data_1565676
loop_
_publ_author_name
'Mukherjee, Aparajita'
'Basu, Semanti'
'Bhattacharya, Samaresh'
_publ_section_title
;
 Copper complexes of 1,4-diazabutadiene ligands: Tuning of metal oxidation
 state and, application in catalytic C-C and C-N bond formation
;
_journal_name_full               'Inorganica Chimica Acta'
_journal_page_first              119228
_journal_paper_doi               10.1016/j.ica.2019.119228
_journal_volume                  500
_journal_year                    2020
_chemical_formula_sum            'C32 H32 Cl4 Cu2 N4 O4'
_chemical_formula_weight         805.52
_space_group_crystal_system      triclinic
_space_group_IT_number           2
_space_group_name_Hall           '-P 1'
_space_group_name_H-M_alt        'P -1'
_atom_sites_solution_hydrogens   geom
_audit_creation_method           SHELXL-2016/6
_cell_angle_alpha                81.617(3)
_cell_angle_beta                 71.377(3)
_cell_angle_gamma                69.912(3)
_cell_formula_units_Z            1
_cell_length_a                   8.1280(8)
_cell_length_b                   10.0921(10)
_cell_length_c                   11.5611(11)
_cell_measurement_reflns_used    370
_cell_measurement_temperature    296(2)
_cell_measurement_theta_max      27.154
_cell_measurement_theta_min      1.860
_cell_volume                     843.32(14)
_computing_structure_refinement  'SHELXL-2016/6 (Sheldrick, 2016)'
_computing_structure_solution    'SHELXT 2014/5 (Sheldrick, 2014)'
_diffrn_ambient_temperature      296(2)
_diffrn_measured_fraction_theta_full 1.000
_diffrn_measured_fraction_theta_max 0.996
_diffrn_measurement_device_type  graphite
_diffrn_measurement_method       CCD
_diffrn_radiation_type           MoK\a
_diffrn_radiation_wavelength     0.71073
_diffrn_reflns_av_R_equivalents  0.1019
_diffrn_reflns_av_unetI/netI     0.0577
_diffrn_reflns_Laue_measured_fraction_full 1.000
_diffrn_reflns_Laue_measured_fraction_max 0.996
_diffrn_reflns_limit_h_max       10
_diffrn_reflns_limit_h_min       -10
_diffrn_reflns_limit_k_max       12
_diffrn_reflns_limit_k_min       -12
_diffrn_reflns_limit_l_max       14
_diffrn_reflns_limit_l_min       -14
_diffrn_reflns_number            27872
_diffrn_reflns_point_group_measured_fraction_full 1.000
_diffrn_reflns_point_group_measured_fraction_max 0.996
_diffrn_reflns_theta_full        25.242
_diffrn_reflns_theta_max         27.154
_diffrn_reflns_theta_min         1.860
_exptl_absorpt_coefficient_mu    1.621
_exptl_crystal_colour            Brown
_exptl_crystal_density_diffrn    1.586
_exptl_crystal_description       Block
_exptl_crystal_F_000             410
_exptl_crystal_size_max          0.10
_exptl_crystal_size_mid          0.08
_exptl_crystal_size_min          0.07
_refine_diff_density_max         0.368
_refine_diff_density_min         -0.483
_refine_diff_density_rms         0.079
_refine_ls_extinction_coef       .
_refine_ls_extinction_method     none
_refine_ls_goodness_of_fit_ref   0.896
_refine_ls_hydrogen_treatment    constr
_refine_ls_matrix_type           full
_refine_ls_number_parameters     210
_refine_ls_number_reflns         3730
_refine_ls_number_restraints     0
_refine_ls_restrained_S_all      0.896
_refine_ls_R_factor_all          0.0730
_refine_ls_R_factor_gt           0.0479
_refine_ls_shift/su_max          0.000
_refine_ls_shift/su_mean         0.000
_refine_ls_structure_factor_coef Fsqd
_refine_ls_weighting_details
'w=1/[\s^2^(Fo^2^)+(0.1000P)^2^+0.4868P] where P=(Fo^2^+2Fc^2^)/3'
_refine_ls_weighting_scheme      calc
_refine_ls_wR_factor_gt          0.1298
_refine_ls_wR_factor_ref         0.1507
_reflns_Friedel_coverage         0.000
_reflns_Friedel_fraction_full    .
_reflns_Friedel_fraction_max     .
_reflns_number_gt                2841
_reflns_number_total             3746
_reflns_threshold_expression     'I > 2\s(I)'
_cod_data_source_file            ICA-2020-500-119228.cif
_cod_data_source_block           SB-AM-35P-1_a
_cod_database_code               1565676
_shelx_shelxl_version_number     2016/6
_shelx_space_group_comment
;
The symmetry employed for this shelxl refinement is uniquely defined
by the following loop, which should always be used as a source of
symmetry information in preference to the above space-group names.
They are only intended as comments.
;
_shelx_res_file
;
TITL SB-AM-35P-1_a.res in P-1
    SB-AM-35P-1_a.res
    created by SHELXL-2016/6 at 16:07:47 on 07-May-2019
CELL 0.71073 8.1280 10.0921 11.5611 81.617 71.377 69.912
ZERR 1.00 0.0008 0.0010 0.0011 0.003 0.003 0.003
LATT 1
SFAC C  H  N  O  Cl Cu
UNIT 32  1  4  4  4  2
L.S. 75
ACTA
BOND $H
FMAP 2
PLAN 10
TEMP 0.000
WGHT    0.100000    0.486814
FVAR       0.82102
CU01  6    0.486841    0.165314    0.528246    11.00000    0.03253    0.02254 =
         0.03585    0.00009   -0.01205   -0.00821
CL2   5    0.657138   -0.062338    0.563000    11.00000    0.04316    0.02507 =
         0.05167   -0.00152   -0.02400   -0.00807
CL1   5    0.575140    0.254619    0.656807    11.00000    0.06579    0.03350 =
         0.06282   -0.00106   -0.03955   -0.01481
N1    3    0.297753    0.353172    0.518327    11.00000    0.02827    0.02576 =
         0.03688   -0.00276   -0.00722   -0.00956
O2    4    1.292250    0.001553    0.015697    11.00000    0.04113    0.05951 =
         0.04554   -0.00400   -0.00212   -0.00790
N2    3    0.622842    0.260472    0.347532    11.00000    0.02960    0.02797 =
         0.03333    0.00100   -0.00982   -0.00896
O1    4   -0.321570    0.523342    0.915926    11.00000    0.04749    0.05480 =
         0.05899   -0.02018    0.00646   -0.01984
C3    1    0.134836    0.404074    0.616675    11.00000    0.02766    0.02964 =
         0.03663   -0.00214   -0.01142   -0.00640
C10   1    0.792133    0.202090    0.256477    11.00000    0.03181    0.02760 =
         0.03747   -0.00248   -0.00628   -0.01117
C16   1    1.335471    0.042578   -0.110520    11.00000    0.05751    0.06823 =
         0.03936   -0.01048    0.00247   -0.02302
AFIX 137
H16A  2    1.249890    0.029305   -0.145285    11.00000   -1.50000
H16B  2    1.457117   -0.014124   -0.151655    11.00000   -1.50000
H16C  2    1.328595    0.140261   -0.119865    11.00000   -1.50000
AFIX   0
C7    1   -0.081234    0.586004    0.751984    11.00000    0.04332    0.03292 =
         0.05828   -0.01371   -0.00669   -0.01205
AFIX  43
H7    2   -0.123748    0.678911    0.775598    11.00000   -1.20000
AFIX   0
C9    1   -0.371705    0.652209    0.972774    11.00000    0.07518    0.07719 =
         0.08547   -0.05151    0.02978   -0.03991
AFIX 137
H9A   2   -0.269216    0.657869    0.993736    11.00000   -1.50000
H9B   2   -0.471935    0.656409    1.045499    11.00000   -1.50000
H9C   2   -0.407967    0.729748    0.917643    11.00000   -1.50000
AFIX   0
C6    1   -0.170404    0.491175    0.815981    11.00000    0.03504    0.03931 =
         0.04026   -0.00841   -0.00772   -0.01080
C1    1    0.340702    0.434608    0.425822    11.00000    0.03588    0.02675 =
         0.04380    0.00267   -0.01454   -0.00503
AFIX  43
H1    2    0.261942    0.525419    0.418773    11.00000   -1.20000
AFIX   0
C13   1    1.125356    0.072291    0.090558    11.00000    0.03462    0.03894 =
         0.04095   -0.00674   -0.00472   -0.01494
C15   1    0.824962    0.242020    0.134075    11.00000    0.03854    0.04299 =
         0.03825    0.00271   -0.01158   -0.00790
AFIX  43
H15   2    0.735019    0.313172    0.107312    11.00000   -1.20000
AFIX   0
C8    1    0.071468    0.541948    0.652702    11.00000    0.03983    0.03519 =
         0.05755   -0.00836   -0.00683   -0.01747
AFIX  43
H8    2    0.131886    0.605433    0.609920    11.00000   -1.20000
AFIX   0
C4    1    0.042999    0.309833    0.680300    11.00000    0.04447    0.02616 =
         0.04189   -0.00126   -0.00977   -0.01032
AFIX  43
H4    2    0.084953    0.216933    0.656755    11.00000   -1.20000
AFIX   0
C12   1    1.093120    0.032257    0.213690    11.00000    0.03307    0.03606 =
         0.04705    0.00293   -0.01237   -0.00742
AFIX  43
H12   2    1.183917   -0.037590    0.240720    11.00000   -1.20000
AFIX   0
C5    1   -0.109891    0.354289    0.778047    11.00000    0.03828    0.03730 =
         0.04270    0.00401   -0.01287   -0.01595
AFIX  43
H5    2   -0.173120    0.291879    0.818981    11.00000   -1.20000
AFIX   0
C14   1    0.990107    0.177421    0.050758    11.00000    0.04461    0.05018 =
         0.02855    0.00333   -0.01121   -0.01527
AFIX  43
H14   2    1.010503    0.204338   -0.031718    11.00000   -1.20000
AFIX   0
C11   1    0.927528    0.095364    0.295985    11.00000    0.03527    0.03224 =
         0.03414    0.00391   -0.00998   -0.01038
AFIX  43
H11   2    0.905861    0.066764    0.378155    11.00000   -1.20000
AFIX   0
C2    1    0.514607    0.383174    0.331702    11.00000    0.04071    0.03203 =
         0.03815    0.00262   -0.00763   -0.01391
AFIX  43
H2    2    0.545859    0.438539    0.261777    11.00000   -1.20000
AFIX   0
HKLF 4 1 1 0 0 0 1 0 0 0 1




REM  SB-AM-35P-1_a.res in P-1
REM R1 =  0.0479 for    2841 Fo > 4sig(Fo)  and  0.0730 for all    3730 data
REM    210 parameters refined using      0 restraints

END

WGHT      0.0323      0.7730

REM Highest difference peak  0.368,  deepest hole -0.483,  1-sigma level  0.079
Q1    1   0.6600  0.2363  0.5901  11.00000  0.05    0.37
Q2    1   0.5619  0.0435  0.6033  11.00000  0.05    0.33
Q3    1   1.1639  0.0695  0.3170  11.00000  0.05    0.33
Q4    1   0.4294  0.4039  0.3885  11.00000  0.05    0.31
Q5    1   0.5148  0.1380  0.6549  11.00000  0.05    0.31
Q6    1   0.3307  0.2723  0.5575  11.00000  0.05    0.30
Q7    1   0.6663  0.3368  0.5288  11.00000  0.05    0.29
Q8    1   0.7015  0.2408  0.2940  11.00000  0.05    0.28
Q9    1   0.7361  0.2722  0.1168  11.00000  0.05    0.28
Q10   1   0.6366  0.3822  0.4416  11.00000  0.05    0.28
;
_shelx_hkl_file
;
  -1   0   0 2238.88   80.69
  -1   0   0 2311.07   82.19
  -1   0   0 2307.27   72.49
  -1   0   0 2295.87   61.29
  -1   0   0 2286.87   69.89
   1   0   0 1899.91   79.09
   1   0   0 2255.97   68.09
   1   0   0 2258.37   74.79
   1   0   0 2159.88   72.29
  -2   0   0 1276.37   68.09
  -2   0   0 1162.38   49.60
  -2   0   0 1217.58   65.49
  -2   0   0 1209.18   37.30
  -2   0   0 1136.09   53.39
  -2   0   0 1178.88   48.50
  -2   0   0 1164.18   53.29
   2   0   0 1125.19   57.79
   2   0   0 1018.50   65.79
   2   0   0 1093.19   54.49
   2   0   0 1138.09   37.70
   2   0   0 1094.59   47.40
   2   0   0 1142.99   52.79
  -3   0   0   42.30   10.50
  -3   0   0   26.60    8.40
  -3   0   0   24.90    8.70
  -3   0   0   44.10   16.00
  -3   0   0   23.70   10.00
  -3   0   0   39.50   16.70
  -3   0   0   27.90    8.40
  -3   0   0   19.00    4.40
   3   0   0   19.50   10.50
   3   0   0   28.90   14.40
   3   0   0   19.50   13.10
   3   0   0   19.90    7.00
   3   0   0   23.80    9.50
   3   0   0   24.40    5.10
   3   0   0   12.90    9.90
  -4   0   0   22.90    5.40
  -4   0   0   19.70    8.30
  -4   0   0   14.10   13.00
  -4   0   0   10.80    5.50
  -4   0   0   16.50   11.00
  -4   0   0   29.80   18.40
   4   0   0    4.80    7.30
   4   0   0   15.90    4.90
   4   0   0    7.50    6.60
   4   0   0    2.00    8.70
   4   0   0    8.00    7.90
   4   0   0   10.70   13.00
  -5   0   0 1202.98   65.29
  -5   0   0 1090.79   59.59
  -5   0   0 1201.68   96.59
  -5   0   0 1157.68   74.09
  -5   0   0 1246.48   99.89
  -5   0   0 1127.99   45.40
   5   0   0  966.60   72.19
   5   0   0 1247.58  102.29
   5   0   0 1082.39   93.49
   5   0   0 1072.79   48.60
   5   0   0 1083.39   68.19
  -6   0   0  577.34   54.59
  -6   0   0  590.14   46.90
  -6   0   0  488.75   40.00
  -6   0   0  687.53   81.69
   6   0   0  586.74   52.99
   6   0   0  501.15   33.10
   6   0   0  545.25   72.09
   6   0   0  591.24   78.79
  -7   0   0  253.07   64.99
  -7   0   0  218.28   33.20
  -7   0   0  180.48   49.90
  -7   0   0  265.77   42.70
   7   0   0  229.78   43.40
   7   0   0  335.27  123.99
   7   0   0  250.47   24.00
   7   0   0  189.98   56.29
  -8   0   0   -8.60   27.00
  -8   0   0   31.80   35.30
  -8   0   0   25.20   14.00
  -8   0   0    7.20   19.60
   8   0   0   10.80   10.20
   8   0   0  -19.30   24.80
   8   0   0   40.20   17.10
   8   0   0   42.00   33.20
  -9   0   0   19.70   23.50
  -9   0   0    1.50   36.00
   9   0   0   23.90   16.20
   9   0   0  -65.99   37.90
   9   0   0   63.69   14.90
   9  -1   0   32.90   48.50
   9  -1   0   66.69   27.50
   9  -1   0   20.70   59.59
  -9   1   0   34.60   31.30
  -9   1   0   13.40   41.80
  -9   1   0  -49.40   45.70
   8  -1   0   40.50   12.60
   8  -1   0   -1.60   13.80
   8  -1   0   -8.10   34.00
  -8   1   0   19.00   26.90
  -8   1   0   13.80   40.20
  -8   1   0  -39.60   22.50
   7  -1   0    8.70   26.10
   7  -1   0  -15.10   12.20
   7  -1   0  -37.80   19.10
   7  -1   0    4.40    8.40
  -7   1   0    4.00   16.30
  -7   1   0    1.70   34.60
  -7   1   0  -31.50   15.30
   6  -1   0   -1.00   10.60
   6  -1   0   -5.60   18.60
   6  -1   0   66.79   26.30
   6  -1   0    9.00    7.00
  -6   1   0   22.00   24.30
  -6   1   0   -0.60    8.60
  -6   1   0   16.60   14.30
  -6   1   0   13.10   22.80
   5  -1   0  210.78   57.39
   5  -1   0  140.39   37.80
   5  -1   0  162.08   17.90
   5  -1   0  128.79   29.30
   5  -1   0  136.99   52.69
   5  -1   0  182.48   34.60
  -5   1   0  136.89   27.00
  -5   1   0  199.68   46.70
  -5   1   0  174.18   25.80
  -5   1   0  157.98   56.29
  -5   1   0  166.88   34.80
   4  -1   0  912.51   44.40
   4  -1   0  834.72   60.09
   4  -1   0  951.30   60.29
   4  -1   0  824.82   67.89
   4  -1   0  797.62   77.39
   4  -1   0 1045.80   78.89
  -4   1   0  963.00   56.59
  -4   1   0 1025.70   66.59
  -4   1   0  977.70   79.49
  -4   1   0  960.20   55.69
  -4   1   0  991.70   89.89
  -4   1   0  961.80   40.50
   3  -1   0   36.20   20.90
   3  -1   0   31.50   12.10
   3  -1   0   27.90   17.20
   3  -1   0   44.60   14.50
   3  -1   0   40.80   13.40
   3  -1   0   25.10    9.40
   3  -1   0   19.20    6.30
   3  -1   0   32.50   13.10
  -3   1   0   31.70    6.30
  -3   1   0   31.30    8.30
  -3   1   0   21.40   16.00
  -3   1   0   32.50   11.30
  -3   1   0   23.50   12.10
  -3   1   0   47.60   13.00
  -3   1   0   40.00   10.20
  -3   1   0   40.40   16.40
   2  -1   0   14.40    6.10
   2  -1   0   10.60    8.10
   2  -1   0    4.60    2.30
   2  -1   0    4.80    4.50
   2  -1   0    4.90    6.10
   2  -1   0   24.90   11.00
   2  -1   0   27.60   10.00
   2  -1   0    6.60    4.40
  -2   1   0   13.00    4.20
  -2   1   0   14.90    8.20
  -2   1   0    7.10    4.60
  -2   1   0   10.20    4.20
  -2   1   0   12.10    3.70
  -2   1   0   10.80    6.80
  -2   1   0    5.90    9.60
   1  -1   0  602.34   46.00
   1  -1   0  699.53   33.10
   1  -1   0  589.14   48.30
   1  -1   0  658.33   41.90
   1  -1   0  638.64   26.40
   1  -1   0  635.74   32.60
  -1   1   0  644.44   39.60
  -1   1   0  630.04   25.50
  -1   1   0  646.34   48.30
  -1   1   0  645.74   31.30
  -1   1   0  660.43   32.70
  -1   1   0  680.33   44.40
   0  -1   0  331.07   19.80
   0  -1   0  340.77   16.90
   0  -1   0  354.16   21.90
  -1  -1   0  621.44   34.40
  -1  -1   0  685.23   24.30
  -1  -1   0  644.54   32.50
  -1  -1   0  669.53   22.10
  -1  -1   0  688.33   33.20
  -1  -1   0  652.73   30.30
  -1  -1   0  696.13   27.40
   1   1   0  688.03   30.10
   1   1   0  652.03   23.70
  -2  -1   0  339.77   25.30
  -2  -1   0  370.96   28.00
  -2  -1   0  370.56   31.30
  -2  -1   0  342.17   15.50
  -2  -1   0  341.37   23.30
  -2  -1   0  380.16   30.50
   2   1   0  303.77   28.40
   2   1   0  366.96   33.50
   2   1   0  351.56   22.60
   2   1   0  303.17   24.40
   2   1   0  336.17   14.40
   2   1   0  360.36   30.60
   2   1   0  319.57   24.90
  -3  -1   0   45.50   13.70
  -3  -1   0   46.60    6.10
  -3  -1   0   44.70   15.70
  -3  -1   0   46.80   15.30
  -3  -1   0   49.60   13.90
  -3  -1   0   42.00   11.40
  -3  -1   0   59.69    7.70
   3   1   0   55.49   18.00
   3   1   0   53.49   14.40
   3   1   0   44.70    5.20
   3   1   0   58.99   12.10
   3   1   0   49.60   18.80
   3   1   0   57.99   16.10
   3   1   0   40.60   10.50
  -4  -1   0  125.49   13.50
  -4  -1   0  133.39   10.90
  -4  -1   0  115.49   31.30
  -4  -1   0  124.29   39.80
  -4  -1   0  136.69   30.80
  -4  -1   0  101.89   12.40
   4   1   0  111.39   25.60
   4   1   0  102.49   30.00
   4   1   0  144.99   31.50
   4   1   0  131.99   18.60
   4   1   0  122.39   10.10
   4   1   0   84.09   20.10
  -5  -1   0   84.49   15.80
  -5  -1   0   55.59   19.60
  -5  -1   0   76.59   11.40
  -5  -1   0   84.29    9.80
  -5  -1   0   40.20   19.30
  -5  -1   0   97.49   31.60
   5   1   0   59.19   16.90
   5   1   0   62.29   10.20
   5   1   0   91.29   33.80
   5   1   0   75.49   26.70
   5   1   0   48.20   16.80
  -6  -1   0  365.06   30.30
  -6  -1   0  426.96   59.79
  -6  -1   0  434.66   26.00
  -6  -1   0  455.65   51.89
  -6  -1   0  471.45   31.00
  -6  -1   0  413.06   61.49
   6   1   0  396.26   41.30
   6   1   0  410.46   66.69
   6   1   0  346.97   25.60
   6   1   0  385.46   57.19
  -7  -1   0  334.87   56.89
  -7  -1   0  264.97   28.70
  -7  -1   0  371.56   61.89
  -7  -1   0  310.57   47.00
  -7  -1   0  278.17   29.00
   7   1   0  275.57   71.09
   7   1   0  326.07   39.60
   7   1   0  302.07   24.30
   7   1   0  337.47   74.79
  -8  -1   0  109.79   46.70
  -8  -1   0  206.18   60.89
  -8  -1   0  143.89   41.30
   8   1   0  168.88   18.60
   8   1   0  102.19   56.29
   8   1   0  123.09   31.40
   8   1   0  169.88   53.89
  -9  -1   0   21.10   31.60
  -9  -1   0   -0.50   29.50
  -9  -1   0   41.00   24.00
   9   1   0   85.89   15.10
   9   1   0   82.89   26.80
   9   1   0   21.80   44.20
   9   1   0   51.99   51.19
   8  -2   0   89.59   59.29
   8  -2   0   91.79   51.69
   8  -2   0  220.98   27.80
   8  -2   0  142.29   42.20
  -8   2   0  188.08   71.39
  -8   2   0  183.88   52.09
  -8   2   0  194.98   58.49
   7  -2   0   26.50   12.00
   7  -2   0   14.20   12.30
   7  -2   0  -22.50   33.50
   7  -2   0  -41.30   22.30
  -7   2   0   26.90   28.70
  -7   2   0   10.80   37.80
  -7   2   0   35.50   25.70
   6  -2   0   32.80   11.90
   6  -2   0   57.09   35.60
   6  -2   0   24.20   24.50
   6  -2   0   24.80   18.10
  -6   2   0   31.10   34.60
  -6   2   0   26.50   23.40
  -6   2   0   27.50   25.20
   5  -2   0  206.18   22.50
   5  -2   0  210.78   34.50
   5  -2   0  159.78   33.70
   5  -2   0  154.98   27.80
   5  -2   0  185.18   47.00
  -5   2   0  266.17   51.79
  -5   2   0  208.78   50.79
  -5   2   0  291.37   71.99
   4  -2   0  761.72   59.99
   4  -2   0  817.52   70.69
   4  -2   0  851.91   46.10
   4  -2   0  770.92   52.59
   4  -2   0  733.13   78.59
  -4   2   0  883.11   69.99
  -4   2   0  882.51   79.09
  -4   2   0  927.11   96.19
   3  -2   0 1545.95   64.79
   3  -2   0 1257.37  108.19
   3  -2   0 1593.04   89.49
   3  -2   0 1429.26  101.79
   3  -2   0 1635.74   83.69
   3  -2   0 1493.65   96.39
   3  -2   0 1474.95   67.49
  -3   2   0 1754.12  123.19
  -3   2   0 1580.64   93.69
  -3   2   0 1624.04   60.79
  -3   2   0 1690.13  102.59
  -3   2   0 1606.34   80.49
  -3   2   0 1632.54   92.59
   2  -2   0 2275.37  139.39
   2  -2   0 2871.61  132.89
   2  -2   0 2795.62  111.09
   2  -2   0 2193.08  141.39
   2  -2   0 2679.43   93.19
   2  -2   0 2764.02   87.69
   2  -2   0 2633.44  127.99
  -2   2   0 3030.10  134.49
  -2   2   0 2830.72  128.09
  -2   2   0 2943.71  110.49
  -2   2   0 2803.02   90.49
  -2   2   0 2776.12  125.89
  -2   2   0 2886.41  105.49
  -2   2   0 2965.40  155.58
   1  -2   0  716.93   65.49
   1  -2   0  861.31   49.40
   1  -2   0  884.71   39.40
   1  -2   0  847.72   58.29
  -1   2   0  904.01   72.29
  -1   2   0  938.51   58.29
  -1   2   0  954.00   47.90
  -1   2   0  883.01   37.80
  -1   2   0  885.61   58.19
  -1   2   0  889.11   47.20
  -1   2   0  931.11   63.59
   0  -2   0    9.70    6.20
   0  -2   0    4.80    3.90
   0  -2   0    4.20    2.70
   0  -2   0    2.90    5.30
   0  -2   0   -6.30    4.30
   0  -2   0   -0.50    2.10
   0  -2   0    3.50    3.50
   0  -2   0    3.40    4.90
   0   2   0   -1.40    2.00
   0   2   0    5.00    3.80
   0   2   0    0.20    4.40
   0   2   0    6.00    5.30
   0   2   0    6.40    3.20
   0   2   0    4.60    4.70
   0   2   0    0.00    2.10
   0   2   0    6.70    5.80
  -1  -2   0 1491.75   51.99
  -1  -2   0 1391.56   63.19
  -1  -2   0 1511.65   58.19
  -1  -2   0 1481.95   53.19
  -1  -2   0 1385.16   64.19
  -1  -2   0 1558.74   54.19
  -1  -2   0 1317.37   62.99
  -1  -2   0 1424.46   58.89
  -1  -2   0 1505.65   68.09
   1   2   0 1515.25   65.09
   1   2   0 1314.77   50.49
   1   2   0 1491.05   63.59
   1   2   0 1451.55   66.79
   1   2   0 1493.95   52.69
   1   2   0 1417.96   62.99
   1   2   0 1425.46   66.99
  -2  -2   0 1315.47   64.39
  -2  -2   0 1309.27   63.19
  -2  -2   0 1347.47   65.69
  -2  -2   0 1313.77   69.09
  -2  -2   0 1370.96   55.09
  -2  -2   0 1318.27   43.30
  -2  -2   0 1335.77   61.59
  -2  -2   0 1309.17   47.90
   2   2   0 1223.68   64.99
   2   2   0 1244.08   57.29
   2   2   0 1337.67   42.90
   2   2   0 1316.37   71.89
   2   2   0 1318.77   61.39
   2   2   0 1375.06   55.19
   2   2   0 1344.07   67.09
   2   2   0 1325.07   46.70
  -3  -2   0  652.83   40.90
  -3  -2   0  642.74   44.90
  -3  -2   0  634.94   43.30
  -3  -2   0  646.44   50.69
  -3  -2   0  668.23   51.59
  -3  -2   0  645.44   29.60
   3   2   0  624.44   44.90
   3   2   0  661.43   44.40
   3   2   0  588.44   45.50
   3   2   0  622.54   38.70
   3   2   0  596.84   51.99
   3   2   0  670.93   26.40
   3   2   0  620.44   53.19
  -4  -2   0  131.99   12.30
  -4  -2   0  137.79   23.80
  -4  -2   0  126.59   23.30
  -4  -2   0  147.79   34.70
   4   2   0  113.29   17.00
   4   2   0  132.09   30.80
   4   2   0  110.29   24.60
   4   2   0  145.09   10.20
  -5  -2   0  473.25   26.80
  -5  -2   0  488.25   49.20
  -5  -2   0  434.36   54.89
  -5  -2   0  454.35   49.90
   5   2   0  445.66   38.50
   5   2   0  372.96   44.60
   5   2   0  422.36   22.20
  -6  -2   0  232.98   54.39
  -6  -2   0  214.88   37.10
  -6  -2   0  220.98   38.60
  -6  -2   0  196.68   18.80
   6   2   0  231.88   58.89
   6   2   0  206.48   45.60
   6   2   0  197.78   15.50
   6   2   0  178.98   27.20
  -7  -2   0   45.00   26.20
  -7  -2   0   21.70   20.10
  -7  -2   0   54.39   22.90
  -7  -2   0   22.10   12.40
   7   2   0   70.19   37.20
   7   2   0   42.10   15.00
   7   2   0   48.30   28.90
   7   2   0   59.59   10.60
  -8  -2   0   14.70   25.50
  -8  -2   0   38.90   16.80
  -8  -2   0   28.90   21.40
   8   2   0   39.20   17.70
   8   2   0   31.80    7.60
   8   2   0   55.59   35.00
   8   2   0   57.99   26.70
  -9  -2   0   43.50   18.40
  -9  -2   0   -1.00   25.80
  -9  -2   0  -21.50   18.60
   9   2   0   -5.00   13.90
   9   2   0    1.80   26.90
   9   2   0   15.90   11.10
   9   2   0   13.80   34.60
   8  -3   0  116.59   37.70
   8  -3   0   30.90   18.10
   8  -3   0  -65.89   75.39
   8  -3   0   80.49   46.20
  -8   3   0   43.00   44.70
  -8   3   0   76.89   40.10
  -8   3   0   32.80   37.70
   7  -3   0   88.99   44.90
   7  -3   0  132.09   25.90
   7  -3   0  150.68   41.50
   7  -3   0  101.59   49.90
  -7   3   0   77.59   56.69
  -7   3   0  145.19   50.99
  -7   3   0  149.19   48.00
   6  -3   0  257.67   59.89
   6  -3   0  230.08   35.40
   6  -3   0  169.08   40.40
   6  -3   0  125.89   45.90
   6  -3   0  204.48   38.60
  -6   3   0  231.88   73.09
  -6   3   0  231.58   52.09
  -6   3   0  278.57   51.69
   5  -3   0   88.29   21.90
   5  -3   0   41.90   17.60
   5  -3   0   70.09   18.00
   5  -3   0   85.09   42.50
   5  -3   0   73.09   34.20
  -5   3   0   82.49   34.40
  -5   3   0  121.59   48.10
  -5   3   0   97.69   35.40
   4  -3   0  654.13   44.90
   4  -3   0  611.74   70.99
   4  -3   0  676.33   65.59
   4  -3   0  712.53   46.70
  -4   3   0  779.92   77.19
  -4   3   0  719.83   92.79
  -4   3   0  771.42   73.09
   3  -3   0 2126.99  131.69
   3  -3   0 1992.80   78.09
   3  -3   0 2175.68   89.59
   3  -3   0 2188.58  112.39
  -3   3   0 2247.98  126.89
  -3   3   0 2333.37  159.68
  -3   3   0 2429.16  131.89
   2  -3   0 4178.48  141.49
   2  -3   0 4164.38  165.78
   2  -3   0 4263.07  190.48
   2  -3   0 4161.38  185.08
  -2   3   0 4283.67  191.48
  -2   3   0 4205.38  159.58
  -2   3   0 4162.08  135.69
  -2   3   0 4381.96  186.88
  -2   3   0 4597.94  244.18
  -2   3   0 4123.79  213.08
   1  -3   0 5694.73  175.58
   1  -3   0 6247.27  245.98
   1  -3   0 5692.13  199.48
   1  -3   0 5193.88  215.28
  -1   3   0 5816.72  217.48
  -1   3   0 5191.08  218.28
  -1   3   0 5930.31  213.48
  -1   3   0 5393.36  242.78
  -1   3   0 5583.14  190.08
  -1   3   0 5671.53  190.38
  -1   3   0 5886.61  185.88
   0  -3   0   50.19   19.00
   0  -3   0   79.49   22.30
   0  -3   0   79.79   12.00
   0  -3   0   38.30   18.10
   0  -3   0   87.79   22.60
   0  -3   0   74.99   13.40
   0  -3   0   74.89   20.50
   0   3   0  107.09   17.30
   0   3   0   62.19   10.80
   0   3   0   68.89   17.50
   0   3   0   75.69   16.40
   0   3   0   75.49    9.90
   0   3   0   73.69   27.40
   0   3   0   90.69   18.40
   0   3   0   51.99   20.40
  -1  -3   0 1826.22   71.69
  -1  -3   0 1539.25   84.59
  -1  -3   0 1700.93   79.09
  -1  -3   0 1754.62   86.79
  -1  -3   0 1771.52   83.89
  -1  -3   0 1841.62   73.89
  -1  -3   0 1777.52   67.19
  -1  -3   0 1778.62   79.29
   1   3   0 1689.13   76.69
   1   3   0 1814.12   88.49
   1   3   0 1746.83   71.09
   1   3   0 1697.03   81.19
   1   3   0 1782.72   66.59
   1   3   0 1783.02   69.19
   1   3   0 1802.92   86.79
   1   3   0 1834.12   70.09
   1   3   0 1716.03   84.29
  -2  -3   0   14.20    7.00
  -2  -3   0    1.80    5.80
  -2  -3   0   10.70    6.70
  -2  -3   0    6.00    4.00
  -2  -3   0    0.80    4.80
  -2  -3   0    6.70    6.30
   2   3   0    9.20    5.40
   2   3   0   12.20    4.20
   2   3   0    5.20    2.60
   2   3   0   14.50    6.40
   2   3   0    5.50    3.90
   2   3   0    1.70    5.40
   2   3   0    0.90    3.00
   2   3   0    0.60    5.40
   2   3   0   -3.20    4.10
   2   3   0    5.20    3.30
   2   3   0    9.10    6.40
  -3  -3   0  660.83   54.39
  -3  -3   0  642.64   50.09
  -3  -3   0  658.33   33.80
  -3  -3   0  657.83   41.50
  -3  -3   0  629.34   47.30
  -3  -3   0  630.94   49.00
   3   3   0  657.33   43.90
   3   3   0  652.53   40.90
   3   3   0  609.24   50.39
   3   3   0  632.34   52.29
   3   3   0  657.33   32.00
   3   3   0  640.54   46.70
   3   3   0  695.63   58.99
  -4  -3   0 1096.29   78.59
  -4  -3   0 1202.98   64.59
  -4  -3   0 1113.09   49.10
  -4  -3   0 1287.27   85.99
   4   3   0 1155.78   63.59
   4   3   0 1185.98   72.69
   4   3   0 1130.89   44.20
   4   3   0 1139.69   70.89
  -5  -3   0  698.43   66.89
  -5  -3   0  686.43   68.09
  -5  -3   0  702.13   37.10
  -5  -3   0  760.12   56.09
   5   3   0  690.33   60.09
   5   3   0  706.83   49.20
   5   3   0  721.13   31.00
  -6  -3   0  385.66   50.99
  -6  -3   0  353.16   44.70
  -6  -3   0  318.77   51.89
  -6  -3   0  328.07   26.00
   6   3   0  338.97   46.80
   6   3   0  334.07   20.20
   6   3   0  324.27   35.80
  -7  -3   0   97.99   18.90
  -7  -3   0  118.29   38.20
  -7  -3   0  136.69   35.80
  -7  -3   0  103.69   32.50
   7   3   0  173.88   33.20
   7   3   0  163.38   20.40
   7   3   0   83.89   29.90
   7   3   0  128.09   52.39
  -8  -3   0   25.30   20.80
  -8  -3   0   16.30   19.60
  -8  -3   0   -3.20   12.10
   8   3   0   -5.40    7.30
   8   3   0   25.70   30.30
   8   3   0   14.60    5.50
   8   3   0   16.40   18.70
  -9  -3   0   51.49   30.10
  -9  -3   0   37.00   35.40
  -9  -3   0   30.00   25.30
   9   3   0   29.40   10.60
   9   3   0   14.10   19.40
   9   3   0   60.49   33.70
   7  -4   0   16.20   14.60
   7  -4   0  -50.39   27.20
   7  -4   0   26.90   22.40
  -7   4   0   74.99   32.10
  -7   4   0   29.30   24.70
  -7   4   0   20.80   45.80
   6  -4   0  -15.00   27.10
   6  -4   0    9.70   17.00
   6  -4   0   12.90   12.00
  -6   4   0  -16.70   29.50
  -6   4   0   -5.80   27.00
  -6   4   0    4.40   19.90
   5  -4   0   58.99   18.10
   5  -4   0   48.40   28.50
   5  -4   0   80.39   30.10
  -5   4   0   48.20   30.00
  -5   4   0   90.99   48.00
   4  -4   0  -11.90   17.80
   4  -4   0   16.10    7.40
  -4   4   0   23.40   20.40
  -4   4   0   13.90   25.10
   3  -4   0  111.29   40.00
   3  -4   0  154.68   20.40
   3  -4   0  100.39   30.20
   3  -4   0   83.89   25.50
  -3   4   0  126.19   46.10
  -3   4   0  159.28   53.19
  -3   4   0  122.19   39.50
   2  -4   0  520.95   53.59
   2  -4   0  551.44   40.40
   2  -4   0  582.54   64.49
  -2   4   0  657.43   65.79
  -2   4   0  637.24   62.19
  -2   4   0  544.65   78.89
  -2   4   0  651.23   66.79
   1  -4   0  287.47   39.80
   1  -4   0  238.68   24.30
   1  -4   0  246.88   32.20
   1  -4   0  160.18   47.30
  -1   4   0  287.67   28.00
  -1   4   0  303.17   41.40
  -1   4   0  259.97   41.00
  -1   4   0  241.58   36.70
   0  -4   0   65.29   18.30
   0  -4   0   71.49   19.80
   0  -4   0   48.40   19.60
   0  -4   0   59.39   12.90
   0  -4   0   66.69   19.40
   0  -4   0   66.49   12.30
   0  -4   0   60.19   20.30
   0   4   0   48.90   17.20
   0   4   0   62.19   24.90
   0   4   0   81.39   23.60
   0   4   0   77.79   19.10
   0   4   0   73.59   21.40
   0   4   0   94.19   23.70
   0   4   0   78.89   16.70
   0   4   0   84.99   23.20
   0   4   0   85.19   15.30
   0   4   0   75.19   17.40
  -1  -4   0  510.75   38.20
  -1  -4   0  478.75   48.60
  -1  -4   0  422.16   37.50
  -1  -4   0  490.25   48.30
  -1  -4   0  436.66   31.50
  -1  -4   0  433.16   42.20
   1   4   0  508.85   33.30
   1   4   0  475.15   43.40
   1   4   0  451.35   42.00
   1   4   0  461.65   30.90
   1   4   0  477.65   46.00
   1   4   0  460.85   40.70
   1   4   0  435.36   35.20
   1   4   0  505.25   48.00
  -2  -4   0  551.34   43.80
  -2  -4   0  624.24   53.99
  -2  -4   0  629.24   51.39
  -2  -4   0  610.74   50.59
  -2  -4   0  642.44   45.50
  -2  -4   0  560.14   37.20
   2   4   0  616.44   36.90
   2   4   0  628.14   43.70
   2   4   0  632.24   48.90
   2   4   0  615.24   50.59
   2   4   0  572.54   37.50
   2   4   0  616.94   36.20
   2   4   0  662.43   42.20
   2   4   0  605.94   54.19
   2   4   0  613.24   53.29
   2   4   0  570.84   46.60
  -3  -4   0  762.72   60.99
  -3  -4   0  765.02   42.20
  -3  -4   0  754.42   62.69
  -3  -4   0  751.82   55.79
  -3  -4   0  699.33   55.29
  -3  -4   0  711.73   50.29
   3   4   0  745.93   38.80
   3   4   0  752.22   40.00
   3   4   0  703.43   45.80
   3   4   0  791.62   44.50
   3   4   0  762.12   55.29
   3   4   0  765.82   53.89
   3   4   0  778.42   41.10
   3   4   0  766.02   57.89
   3   4   0  703.83   55.99
  -4  -4   0 1291.77   85.09
  -4  -4   0 1147.79   57.39
  -4  -4   0 1208.98   68.99
  -4  -4   0 1203.58   79.69
  -4  -4   0 1230.58   88.79
   4   4   0 1214.68   51.79
   4   4   0 1198.38   75.59
   4   4   0 1192.08   56.49
   4   4   0 1182.48   69.29
   4   4   0 1223.28   68.59
  -5  -4   0 1462.45   80.99
  -5  -4   0 1366.96   98.29
  -5  -4   0 1382.46   62.49
  -5  -4   0 1448.46  103.39
   5   4   0 1491.75   81.09
   5   4   0 1442.76   90.79
   5   4   0 1394.46   54.09
  -6  -4   0  454.65   61.99
  -6  -4   0  575.34   53.49
  -6  -4   0  527.95   64.79
  -6  -4   0  644.34   37.00
   6   4   0  492.25   55.59
   6   4   0  516.05   46.00
   6   4   0  539.25   27.60
  -7  -4   0  118.29   39.80
  -7  -4   0  155.48   37.10
  -7  -4   0   75.69   31.00
  -7  -4   0  115.09   18.50
   7   4   0  136.29   12.70
   7   4   0  114.69   26.40
   7   4   0   93.89   30.30
  -8  -4   0  200.58   42.10
  -8  -4   0  177.08   53.19
  -8  -4   0  257.37   47.40
   8   4   0  175.88   66.69
   8   4   0  189.58   37.70
   8   4   0  195.88   17.00
   8   4   0  188.48   49.30
  -9  -4   0   23.20   29.80
  -9  -4   0   39.30   26.60
  -9  -4   0   37.20   24.80
   9   4   0   12.30   26.70
   9   4   0   41.20   11.00
   9   4   0  -18.60   27.90
   9   4   0   45.10   20.90
   7  -5   0  -14.10   39.00
   7  -5   0   41.40   28.50
   7  -5   0   15.20   17.50
  -7   5   0   83.39   44.60
  -7   5   0   28.60   35.70
  -7   5   0   36.90   45.00
   6  -5   0   82.69   22.20
   6  -5   0   52.29   38.80
  -6   5   0    4.70   34.60
  -6   5   0   84.39   42.20
  -6   5   0   51.79   32.90
   5  -5   0  605.54   74.49
   5  -5   0  432.66   86.49
   5  -5   0  494.15   47.70
  -5   5   0  709.73   87.59
  -5   5   0  584.54   74.89
  -5   5   0  558.74  120.79
   4  -5   0 1020.20   68.29
   4  -5   0  809.52  103.89
   4  -5   0 1058.89   94.39
  -4   5   0 1101.39  105.39
  -4   5   0 1098.59   95.69
  -4   5   0 1027.00  126.19
   3  -5   0  484.25   67.89
   3  -5   0  590.84   64.69
   3  -5   0  583.54   71.29
  -3   5   0  503.85   84.89
  -3   5   0  617.24   73.39
  -3   5   0  629.04   67.69
   2  -5   0  277.07   31.20
   2  -5   0  170.68   47.90
   2  -5   0  267.07   41.70
   2  -5   0  333.57   49.40
  -2   5   0  241.98   64.39
  -2   5   0  278.27   44.60
  -2   5   0  259.07   57.99
   1  -5   0  100.99   33.60
   1  -5   0   77.09   18.80
   1  -5   0   94.49   25.80
   1  -5   0   60.29   26.70
  -1   5   0   86.99   40.00
  -1   5   0   98.79   33.70
  -1   5   0   85.09   32.40
  -1   5   0   90.89   26.50
   0  -5   0  223.48   25.50
   0  -5   0  253.37   24.90
   0  -5   0  157.28   48.70
   0  -5   0  294.27   49.10
   0  -5   0  251.57   37.70
   0   5   0  274.07   26.40
   0   5   0  240.68   29.00
   0   5   0  236.28   38.10
   0   5   0  319.77   36.90
   0   5   0  227.48   54.79
   0   5   0  276.57   42.60
   0   5   0  171.68   42.00
   0   5   0  267.57   39.20
  -1  -5   0  163.98   24.10
  -1  -5   0  202.48   22.80
  -1  -5   0  201.08   30.40
  -1  -5   0  148.29   34.40
  -1  -5   0  172.78   24.40
   1   5   0  151.28   21.20
   1   5   0  212.98   34.40
   1   5   0  199.48   21.30
   1   5   0  119.29   38.20
   1   5   0  183.18   29.70
   1   5   0  147.79   43.10
   1   5   0  200.58   29.40
   1   5   0  164.88   38.00
   1   5   0  139.49   21.80
  -2  -5   0   14.00   10.50
  -2  -5   0   20.20    9.60
  -2  -5   0   18.10    6.30
  -2  -5   0   11.80    9.60
  -2  -5   0   20.00   13.50
  -2  -5   0   20.30   12.00
   2   5   0    9.20    9.30
   2   5   0   30.80    6.90
   2   5   0   19.80    8.40
   2   5   0   11.30    8.50
   2   5   0   14.10   16.40
   2   5   0   25.70   11.10
   2   5   0   35.40   11.70
   2   5   0   15.80   12.20
   2   5   0   17.50    7.10
  -3  -5   0   68.19   15.60
  -3  -5   0   68.19   22.30
  -3  -5   0  101.09   26.70
  -3  -5   0  101.99   26.30
  -3  -5   0  115.49   27.40
   3   5   0  140.59   21.30
   3   5   0  112.39   15.20
   3   5   0   91.99   14.90
   3   5   0  123.79   17.40
   3   5   0   89.59   23.20
   3   5   0  107.59   24.40
   3   5   0  107.59   27.90
  -4  -5   0  126.29   29.50
  -4  -5   0  108.19   31.30
  -4  -5   0   99.69   18.00
  -4  -5   0  144.89   33.90
  -4  -5   0  150.68   34.70
   4   5   0  130.29   17.20
   4   5   0  131.09   32.00
   4   5   0  117.39   19.60
   4   5   0   98.89   24.30
   4   5   0  109.09   27.90
   4   5   0  118.49   14.50
   4   5   0  134.29   16.00
  -5  -5   0  179.68   20.60
  -5  -5   0  162.48   28.20
  -5  -5   0  170.48   41.00
  -5  -5   0  197.48   35.90
   5   5   0  158.98   19.30
   5   5   0  145.39   29.00
   5   5   0  202.48   31.30
   5   5   0  193.38   41.90
   5   5   0  182.78   18.50
  -6  -5   0   14.30   15.90
  -6  -5   0    6.40    9.20
  -6  -5   0    7.00   10.20
  -6  -5   0    6.30   10.30
   6   5   0   41.00   10.20
   6   5   0   12.60    5.00
   6   5   0    0.50    6.90
   6   5   0    5.00   10.30
  -7  -5   0   12.30    9.50
  -7  -5   0   11.70   12.80
   7   5   0   13.90    8.90
   7   5   0   14.40   12.90
   7   5   0    4.70    3.90
  -8  -5   0  178.88   45.20
  -8  -5   0  177.28   42.70
  -8  -5   0  249.48   78.39
   8   5   0  149.99   58.59
   8   5   0  177.38   37.00
   8   5   0  182.38   15.30
   8   5   0  150.48   48.50
  -9  -5   0  -20.00   16.30
  -9  -5   0    8.10   17.50
  -9  -5   0   15.50   19.20
   9   5   0  -32.90   27.90
   9   5   0   14.30    7.10
   9   5   0  -20.80   13.50
   9   5   0    5.50   21.20
   6  -6   0   84.99   42.50
   6  -6   0   52.49   21.50
   6  -6   0  -37.50   34.70
  -6   6   0   15.00   53.19
  -6   6   0  133.99   44.80
  -6   6   0  104.99   40.90
   5  -6   0  372.76   80.19
   5  -6   0  296.87   66.29
   5  -6   0  271.67   38.50
  -5   6   0  301.37   56.99
  -5   6   0  443.56   92.09
  -5   6   0  311.97   94.09
   4  -6   0 1198.58  115.19
   4  -6   0 1017.00   99.19
   4  -6   0 1101.99   76.49
  -4   6   0 1072.79  139.59
  -4   6   0 1146.99  113.79
  -4   6   0 1148.59   99.79
   3  -6   0  125.99   37.50
   3  -6   0  134.09   46.20
   3  -6   0  128.59   29.10
  -3   6   0  122.19   48.80
  -3   6   0  162.68   46.90
  -3   6   0  189.08   46.70
   2  -6   0   93.89   28.60
   2  -6   0   83.19   30.30
   2  -6   0   54.59   17.90
   2  -6   0   85.59   32.70
  -2   6   0  110.39   41.60
  -2   6   0   88.99   35.10
  -2   6   0  106.49   39.20
   1  -6   0    1.30   10.10
   1  -6   0   13.10   16.60
   1  -6   0   12.00    9.40
  -1   6   0   32.20   22.80
  -1   6   0   -4.80    6.50
  -1   6   0  -18.70   14.20
  -1   6   0   50.39   27.10
   0  -6   0   61.99   24.30
   0  -6   0   63.59   14.70
   0  -6   0  103.69   30.50
   0  -6   0   55.89   16.30
   0   6   0   48.80   22.90
   0   6   0   89.19   36.00
   0   6   0   74.29   29.30
   0   6   0   93.99   29.20
   0   6   0   39.20   15.20
   0   6   0   53.39   14.90
  -1  -6   0  582.64   61.39
  -1  -6   0  590.04   48.90
  -1  -6   0  604.34   46.20
  -1  -6   0  690.53   69.89
   1   6   0  627.04   59.59
   1   6   0  558.64   60.99
   1   6   0  615.84   49.50
   1   6   0  576.94   63.69
   1   6   0  641.44   43.20
  -2  -6   0  587.24   54.49
  -2  -6   0  572.84   44.00
  -2  -6   0  593.44   61.59
  -2  -6   0  681.03   67.89
  -2  -6   0  557.64   50.49
   2   6   0  586.54   60.79
   2   6   0  553.54   44.20
   2   6   0  514.85   48.80
   2   6   0  646.64   62.59
   2   6   0  591.64   45.40
  -3  -6   0  938.91   69.39
  -3  -6   0  905.71   67.99
  -3  -6   0  952.20   78.89
  -3  -6   0 1023.20   85.29
  -3  -6   0  886.61   75.29
   3   6   0  910.71   71.09
   3   6   0  950.60   73.09
   3   6   0  898.01   57.59
   3   6   0  955.40   57.39
   3   6   0  986.70   60.29
  -4  -6   0 1031.50   86.49
  -4  -6   0  956.50   76.19
  -4  -6   0 1005.20   84.59
  -4  -6   0  898.51   71.29
   4   6   0  939.81   72.99
   4   6   0 1030.70   78.19
   4   6   0 1096.69   60.79
   4   6   0 1051.19   57.89
   4   6   0  967.00   54.89
   4   6   0  980.60   64.69
  -5  -6   0  249.38   44.50
  -5  -6   0  343.57   44.10
  -5  -6   0  326.87   44.80
   5   6   0  266.47   26.70
   5   6   0  280.87   21.00
   5   6   0  239.48   24.80
   5   6   0  243.68   32.50
   5   6   0  284.87   41.20
  -6  -6   0  331.27   45.40
  -6  -6   0  348.97   55.99
  -6  -6   0  345.87   53.79
   6   6   0  281.97   38.10
   6   6   0  315.67   45.70
   6   6   0  320.67   26.40
  -7  -6   0   -2.00   15.50
  -7  -6   0   12.70   19.80
  -7  -6   0   42.40   21.50
   7   6   0   19.00   12.30
   7   6   0   24.30    7.60
   7   6   0   26.00   18.70
  -8  -6   0  102.09   43.70
  -8  -6   0   80.89   31.30
  -8  -6   0   90.09   40.90
   8   6   0   81.19   32.30
   8   6   0   47.00   21.90
   8   6   0  121.19   13.40
  -9  -6   0   86.19   36.50
  -9  -6   0   34.50   30.60
  -9  -6   0   67.79   30.30
   9   6   0   36.10   50.69
   9   6   0   61.49   24.70
   9   6   0   14.40   21.70
   9   6   0   68.09   11.80
   6  -7   0  -11.50   26.30
   6  -7   0  -24.80   40.00
   6  -7   0   10.00   15.10
  -6   7   0  -15.70   20.70
  -6   7   0   13.80   31.10
  -6   7   0    8.40   42.20
  -6   7   0  -41.80   27.60
   5  -7   0   10.70   35.40
   5  -7   0    4.10   14.20
   5  -7   0  -39.10   19.50
  -5   7   0  -13.80   21.10
  -5   7   0   40.40   28.20
   4  -7   0   75.29   33.10
   4  -7   0   51.99   33.10
   4  -7   0   56.49   22.30
  -4   7   0    7.80   43.90
  -4   7   0   83.29   32.00
  -4   7   0   71.29   42.90
   3  -7   0   12.50   11.30
   3  -7   0   -1.70   20.50
  -3   7   0   37.20   31.00
  -3   7   0  -12.10   16.70
  -3   7   0   22.10   23.50
   2  -7   0  -24.50   24.90
   2  -7   0   -9.40    7.30
   2  -7   0  -14.00   28.40
   2  -7   0  -10.80   11.60
  -2   7   0    0.10   26.90
  -2   7   0    8.30   16.50
  -2   7   0  -24.10   14.10
   1  -7   0   11.10   12.80
   1  -7   0   21.30   25.40
   1  -7   0   -9.50   27.00
   1  -7   0   25.80   20.10
  -1   7   0   -3.80   20.50
  -1   7   0   -1.20    9.20
  -1   7   0   34.60   23.20
  -1   7   0   13.20   13.40
  -1   7   0   41.90   23.50
   0  -7   0    8.10    8.60
   0  -7   0   30.70   18.80
   0  -7   0   14.60   14.20
   0  -7   0   -6.40    6.80
   0   7   0  -22.10   17.50
   0   7   0   -2.40   21.40
   0   7   0   16.90   15.20
   0   7   0   24.60   21.20
   0   7   0    8.40   11.00
   0   7   0    0.50    7.20
  -1  -7   0  790.22   81.89
  -1  -7   0  776.52   60.99
  -1  -7   0  740.53   76.89
   1   7   0  802.52   51.29
   1   7   0  734.13   78.79
   1   7   0  813.02   81.79
   1   7   0  790.02   73.49
   1   7   0  619.94   88.89
  -2  -7   0 2402.06  146.39
  -2  -7   0 2091.59  117.19
  -2  -7   0 2104.79  117.29
  -2  -7   0 2326.97  105.99
  -2  -7   0 2251.57  138.59
   2   7   0 2113.89  131.39
   2   7   0 2163.78  106.49
   2   7   0 2100.69  121.49
   2   7   0 2251.07  103.89
   2   7   0 2045.50  133.09
  -3  -7   0 1130.19   96.39
  -3  -7   0 1017.10   83.69
  -3  -7   0 1144.89   93.79
  -3  -7   0 1069.39   80.39
  -3  -7   0 1133.49   92.99
   3   7   0 1127.19   68.39
   3   7   0 1091.29   87.19
   3   7   0 1015.70   68.79
   3   7   0 1189.68   89.39
  -4  -7   0  404.36   55.19
  -4  -7   0  540.45   67.19
  -4  -7   0  469.95   55.59
   4   7   0  467.65   40.60
   4   7   0  499.75   41.50
   4   7   0  512.75   54.39
   4   7   0  540.45   42.60
   4   7   0  484.55   56.29
   4   7   0  513.05   51.69
  -5  -7   0  119.79   35.10
  -5  -7   0   88.59   30.90
  -5  -7   0  106.79   32.70
  -5  -7   0  134.79   40.10
   5   7   0  118.19   25.60
   5   7   0  110.29   31.20
   5   7   0   95.79   21.10
   5   7   0   67.49   19.80
  -6  -7   0   -1.00   10.50
  -6  -7   0   -8.80   13.10
  -6  -7   0   20.90   20.10
   6   7   0   15.60    9.70
   6   7   0   12.70   10.90
   6   7   0   21.90   16.30
  -7  -7   0  135.79   37.80
  -7  -7   0  167.78   49.90
  -7  -7   0   67.29   28.50
   7   7   0  116.29   32.10
   7   7   0  126.49   34.50
   7   7   0  123.69   19.70
  -8  -7   0   99.69   41.60
  -8  -7   0  149.39   40.50
  -8  -7   0  168.48   54.59
   8   7   0   82.19   32.40
   8   7   0  157.98   66.09
   8   7   0  125.99   15.20
  -9  -7   0  168.28   55.09
  -9  -7   0   93.09   42.40
  -9  -7   0  125.19   34.70
   9   7   0   90.99   28.00
   9   7   0   77.39   43.70
   9   7   0  120.29   14.60
   5  -8   0   22.60   50.19
   5  -8   0   90.09   24.10
   5  -8   0  195.28   53.79
  -5   8   0  160.08   59.99
  -5   8   0   96.19   37.80
  -5   8   0   58.19   33.40
  -5   8   0  121.69   51.79
   4  -8   0    0.80   12.90
   4  -8   0   60.49   44.60
   4  -8   0   16.20   21.90
  -4   8   0    7.20   21.70
  -4   8   0    2.90   39.70
  -4   8   0   91.59   33.60
  -4   8   0  -37.70   21.20
   3  -8   0   35.30   14.30
   3  -8   0   19.30   25.90
   3  -8   0   -6.30   20.70
  -3   8   0   -2.50   18.80
  -3   8   0   73.39   40.60
  -3   8   0   -7.80   11.00
  -3   8   0    6.30   21.10
   2  -8   0   27.50   18.00
   2  -8   0   40.40   27.50
   2  -8   0   23.50   21.80
   2  -8   0   42.10   34.80
  -2   8   0   20.30   13.90
  -2   8   0   39.60   39.20
  -2   8   0   61.29   27.40
  -2   8   0   35.50   27.80
  -2   8   0   34.10   17.70
   1  -8   0   23.10   19.90
   1  -8   0   -9.20   19.40
   1  -8   0    8.10   11.90
  -1   8   0   54.39   30.70
  -1   8   0   67.59   27.70
  -1   8   0   85.19   32.80
  -1   8   0   20.00   10.30
   0  -8   0   93.89   39.00
   0  -8   0   78.89   21.60
   0  -8   0   90.79   20.10
   0  -8   0   60.29   26.90
   0   8   0  106.99   37.40
   0   8   0   62.89   21.70
   0   8   0   88.19   21.40
   0   8   0  154.38   83.39
   0   8   0   84.09   36.20
  -1  -8   0   28.60   24.40
  -1  -8   0   35.60   14.20
  -1  -8   0   18.40   22.40
  -1  -8   0   41.00   17.10
   1   8   0   54.09   29.90
   1   8   0   73.59   29.70
   1   8   0   55.99   16.00
   1   8   0   28.40   36.00
   1   8   0   47.70   19.00
  -2  -8   0  390.76   57.89
  -2  -8   0  388.66   47.20
  -2  -8   0  354.16   68.29
  -2  -8   0  362.76   41.50
  -2  -8   0  346.17   52.59
   2   8   0  304.77   78.89
   2   8   0  351.56   54.89
   2   8   0  352.16   42.10
   2   8   0  321.87   96.49
   2   8   0  201.78   57.99
   2   8   0  374.86   39.60
  -3  -8   0  233.48   39.30
  -3  -8   0  293.27   62.89
  -3  -8   0  226.48   50.09
  -3  -8   0  272.17   43.00
   3   8   0  125.99   50.09
   3   8   0  272.37   57.19
   3   8   0  169.88   55.09
   3   8   0  238.68   32.30
   3   8   0  209.88   47.50
  -4  -8   0   20.00   15.20
  -4  -8   0    9.90   15.40
  -4  -8   0    8.20   14.80
  -4  -8   0   -1.40   16.80
  -4  -8   0   30.90   20.10
   4   8   0  -10.00   13.10
   4   8   0   17.00    9.10
   4   8   0   -9.50   13.10
   4   8   0    8.90   13.40
  -5  -8   0   11.50   16.70
  -5  -8   0   -5.10   10.90
  -5  -8   0  -14.80   13.20
  -5  -8   0    0.90   11.70
   5   8   0   -6.40   11.20
   5   8   0    3.90   10.40
   5   8   0   13.70   18.90
   5   8   0  -14.80   10.60
   5   8   0   -5.20    9.20
  -6  -8   0   87.39   32.20
  -6  -8   0  112.49   37.00
  -6  -8   0   93.39   34.40
  -6  -8   0   94.49   38.10
   6   8   0   93.29   21.50
   6   8   0  126.89   18.00
   6   8   0   72.19   24.10
   6   8   0  110.89   23.30
   6   8   0   61.19   24.50
  -7  -8   0  122.39   40.60
  -7  -8   0  130.39   40.80
   7   8   0   92.39   19.30
   7   8   0   89.49   27.90
   7   8   0   93.39   54.09
  -8  -8   0   -7.20   21.00
  -8  -8   0   12.80   27.60
  -8  -8   0   12.20   24.80
   8   8   0   76.19   24.00
   8   8   0   13.10   15.90
   8   8   0   49.90   10.90
   8   8   0   23.10   31.60
  -9  -8   0   72.69   28.40
  -9  -8   0   11.10   28.10
  -9  -8   0   56.99   31.40
   9   8   0   27.90   17.10
   9   8   0   17.30   23.60
   9   8   0   52.49   12.00
   9   8   0  105.89   45.80
   4  -9   0  -28.60   13.80
   4  -9   0   -1.40   23.60
   4  -9   0    0.30   40.30
  -4   9   0  -10.90   26.30
  -4   9   0  -10.70   43.00
  -4   9   0  -15.90   19.90
  -4   9   0   23.10   32.20
   3  -9   0   46.80   37.60
   3  -9   0   28.20   33.90
   3  -9   0   23.70   16.30
  -3   9   0    6.20   16.90
  -3   9   0   40.70   40.40
  -3   9   0   -4.00   24.90
   2  -9   0  152.58   53.49
   2  -9   0   90.39   48.30
  -2   9   0  128.39   48.20
  -2   9   0  153.18   70.69
   1  -9   0  225.28   43.90
   1  -9   0  226.28   55.29
   1  -9   0  149.09   50.79
  -1   9   0  221.98   30.60
  -1   9   0  260.17   48.30
  -1   9   0  280.77   58.39
  -1   9   0  254.87   79.99
  -1   9   0  302.57   76.99
   0  -9   0  674.53   86.59
   0  -9   0  650.13   45.60
   0  -9   0  664.43   86.09
   0  -9   0  650.43   59.19
   0   9   0  732.03   89.99
   0   9   0  493.65   73.99
   0   9   0  546.55   59.19
   0   9   0  536.25   89.49
   0   9   0  467.95   52.09
   0   9   0  608.64  104.59
  -1  -9   0  960.70   70.09
  -1  -9   0 1080.09   78.09
  -1  -9   0 1001.20  102.69
  -1  -9   0 1031.60  103.29
   1   9   0  948.41   61.19
   1   9   0  830.32  115.49
   1   9   0  923.11   76.89
   1   9   0 1041.40  107.39
  -2  -9   0  425.86   47.80
  -2  -9   0  443.76   68.59
  -2  -9   0  404.76   48.50
  -2  -9   0  426.36   68.09
   2   9   0  400.16   62.69
   2   9   0  317.57   84.29
   2   9   0  275.77   75.39
   2   9   0  304.97   61.99
   2   9   0  424.86   49.20
  -3  -9   0  828.12   79.39
  -3  -9   0  863.81   97.09
  -3  -9   0  864.41   83.29
  -3  -9   0  876.91   94.89
   3   9   0  920.01   90.39
   3   9   0  930.41   71.99
   3   9   0  913.01   90.59
  -4  -9   0  233.88   44.50
  -4  -9   0  255.67   56.09
  -4  -9   0  239.98   61.39
  -4  -9   0  227.28   57.29
   4   9   0   92.79   52.19
   4   9   0  140.09   39.00
   4   9   0  215.48   50.99
   4   9   0  223.58   53.79
   4   9   0  186.08   35.40
  -5  -9   0   91.89   41.50
  -5  -9   0  124.49   39.80
  -5  -9   0  130.09   43.70
  -5  -9   0  132.89   37.90
   5   9   0  119.89   32.80
   5   9   0  140.09   39.90
   5   9   0  158.08   39.90
   5   9   0  114.39   26.80
   5   9   0   65.39   40.70
  -6  -9   0  334.07   57.09
  -6  -9   0  296.77   52.19
  -6  -9   0  317.97   56.89
  -6  -9   0  383.16   61.39
   6   9   0  316.17   38.30
   6   9   0  356.06   54.79
   6   9   0  328.07   37.90
   6   9   0  335.67   50.69
  -7  -9   0   51.29   26.80
  -7  -9   0   82.09   32.70
  -7  -9   0   57.19   28.60
   7   9   0   49.60   31.10
   7   9   0   51.29   29.40
   7   9   0   28.40   15.40
  -8  -9   0   98.49   41.30
  -8  -9   0  105.19   34.80
  -8  -9   0   47.70   31.50
   8   9   0   75.09   44.60
   8   9   0  102.39   37.00
   8   9   0   54.79   22.80
   8   9   0   59.39   14.60
   3 -10   0  -50.19   33.60
   3 -10   0   13.20   18.30
   3 -10   0  -35.80   21.10
  -3  10   0   59.19   51.19
  -3  10   0  -19.40   23.60
  -3  10   0   29.60   14.40
   2 -10   0   11.30   13.10
   2 -10   0   19.80   30.00
   2 -10   0   -9.70   31.80
  -2  10   0  -40.20   22.70
  -2  10   0   35.10   23.10
  -2  10   0    3.40   30.10
   1 -10   0  195.68   64.49
   1 -10   0  194.58   55.59
   1 -10   0  219.18   46.20
  -1  10   0  302.27   78.49
  -1  10   0  190.38   69.79
  -1  10   0  172.38   40.30
  -1  10   0  209.78   50.69
   0 -10   0  335.07   33.30
   0 -10   0  395.76   93.29
   0 -10   0  380.76   78.99
   0 -10   0  417.46   65.79
   0  10   0  401.26   67.79
   0  10   0  558.44  101.19
   0  10   0  300.57   41.00
   0  10   0  378.06   86.79
   0  10   0  367.46   54.39
   0  10   0  329.97   91.89
  -1 -10   0  519.05   83.89
  -1 -10   0  421.66   46.90
  -1 -10   0  529.75   56.59
  -1 -10   0  540.55   79.49
   1  10   0  406.86   84.49
   1  10   0  481.15   44.80
   1  10   0  508.85   56.99
   1  10   0  335.97   96.79
  -2 -10   0  213.88   58.69
  -2 -10   0  174.28   34.50
  -2 -10   0  279.97   70.89
  -2 -10   0  218.28   57.19
   2  10   0  185.08   61.79
   2  10   0  146.99   57.29
   2  10   0  218.68   62.19
   2  10   0  242.58   58.99
   2  10   0  249.78   47.70
  -3 -10   0   22.20   22.90
  -3 -10   0   27.70   16.00
  -3 -10   0   -3.70   16.70
  -3 -10   0   24.20   21.00
   3  10   0   15.70   36.00
   3  10   0  -12.70   18.40
   3  10   0   19.60   13.70
   3  10   0   46.30   41.60
   3  10   0   22.60   24.80
  -4 -10   0   -9.40   17.80
  -4 -10   0   -1.60   11.90
  -4 -10   0   12.10   20.00
  -4 -10   0   -8.40   22.30
   4  10   0   17.40   12.00
   4  10   0    2.90   31.60
   4  10   0    5.30   31.20
   4  10   0   -2.70   11.60
   4  10   0   -1.00   13.30
  -5 -10   0   67.39   36.20
  -5 -10   0   -5.50   20.90
  -5 -10   0    0.90   18.50
   5  10   0    3.30   21.60
   5  10   0   25.90   14.30
   5  10   0   25.70   12.70
   5  10   0   -6.10   19.50
  -6 -10   0  112.09   41.10
  -6 -10   0  100.69   42.40
  -6 -10   0   74.79   36.70
  -6 -10   0   88.89   35.40
   6  10   0  120.69   25.20
   6  10   0  146.79   58.19
   6  10   0   17.20   51.89
   6  10   0  101.09   30.60
   6  10   0   61.59   29.60
  -7 -10   0  144.99   42.90
  -7 -10   0   91.29   33.50
  -7 -10   0  123.99   50.79
  -7 -10   0  115.29   40.00
   7  10   0  112.89   38.30
   7  10   0  102.49   26.20
   7  10   0  106.59   35.60
  -8 -10   0   89.09   44.50
  -8 -10   0    8.40   36.80
  -8 -10   0   79.59   35.80
   8  10   0   59.99   24.20
   8  10   0   22.10   44.00
   8  10   0   73.59   20.50
   8  10   0   78.29   32.90
   2 -11   0   67.99   49.50
   2 -11   0   35.10   23.10
   2 -11   0  -34.30   31.90
  -2  11   0   56.59   24.00
  -2  11   0   59.49   41.80
  -2  11   0    0.50   44.60
   1 -11   0  104.99   33.80
   1 -11   0   52.29   36.90
   1 -11   0   15.40   44.20
  -1  11   0   92.19   30.10
  -1  11   0   99.29   55.39
  -1  11   0  114.59   52.89
   0 -11   0   -3.40   16.20
   0 -11   0   17.50   33.50
   0 -11   0    8.80   14.00
   0 -11   0    9.90   33.90
   0  11   0   25.40   41.60
   0  11   0   36.70   37.90
   0  11   0   71.39   23.70
  -1 -11   0    2.50   29.10
  -1 -11   0   -4.10   14.00
  -1 -11   0   -8.40   12.00
  -1 -11   0   -3.90   28.30
   1  11   0   19.10   11.40
   1  11   0  -10.90   28.20
  -2 -11   0  -45.60   24.80
  -2 -11   0   -8.30   26.60
  -2 -11   0   -7.60   15.90
   2  11   0  -36.50   46.50
   2  11   0   -2.50   28.70
   2  11   0   48.60   39.30
   2  11   0  -19.80   13.20
   2  11   0   16.60   23.00
  -3 -11   0   39.30   24.30
  -3 -11   0   57.79   37.80
  -3 -11   0   50.99   34.60
   3  11   0   52.79   48.90
   3  11   0   24.20   38.10
   3  11   0  130.19   46.80
   3  11   0   66.89   26.90
  -4 -11   0   41.40   36.40
  -4 -11   0  113.49   34.50
  -4 -11   0   50.89   32.70
   4  11   0   99.89   28.30
   4  11   0   88.49   49.60
   4  11   0    2.90   48.80
   4  11   0   82.49   39.60
   4  11   0  102.89   44.90
  -5 -11   0   91.49   37.30
  -5 -11   0   33.10   25.30
  -5 -11   0   10.80   25.80
   5  11   0   69.29   17.90
   5  11   0    0.30   51.49
   5  11   0  130.59   48.80
   5  11   0   58.09   29.00
   5  11   0   70.89   30.50
   5  11   0   76.79   30.90
  -6 -11   0   12.20   18.30
  -6 -11   0  -17.20   23.30
  -6 -11   0   24.50   31.90
   6  11   0  -30.90   16.40
   6  11   0   11.30   19.30
   6  11   0   12.50   15.60
   6  11   0   12.00   24.30
  -7 -11   0   49.30   27.60
  -7 -11   0   18.50   32.60
  -7 -11   0   20.90   27.50
   7  11   0   70.59   27.30
   7  11   0   48.80   52.59
   7  11   0   57.49   59.29
   7  11   0   54.09   17.30
   7  11   0   63.79   24.00
   0 -12   0  105.09   53.99
   0 -12   0  183.98   62.79
   0 -12   0  170.98   38.30
   0  12   0  333.57   73.39
   0  12   0   79.29   69.69
   0  12   0  228.38   52.69
  -1 -12   0   14.60   43.10
  -1 -12   0   29.20   24.90
  -1 -12   0   -4.30   27.30
  -1 -12   0   44.20   22.30
   1  12   0   56.49   27.00
   1  12   0   51.79   49.90
   1  12   0  -41.60   30.80
   1  12   0   53.69   47.10
  -2 -12   0   73.59   47.10
  -2 -12   0   92.69   30.90
  -2 -12   0  152.98   50.19
   2  12   0   85.29   51.89
   2  12   0  114.29   48.00
   2  12   0   69.69   40.60
   2  12   0   35.40   25.80
   2  12   0   30.60   67.59
   2  12   0   94.39   34.50
  -3 -12   0   18.80   26.60
  -3 -12   0    8.30   24.20
  -3 -12   0   24.00   34.70
   3  12   0    8.60   11.60
   3  12   0   -5.40   24.10
   3  12   0   11.80   25.40
   3  12   0   -2.70   24.90
   3  12   0   14.80   49.80
   3  12   0   50.59   51.59
  -4 -12   0   40.90   36.10
  -4 -12   0   56.69   33.30
  -4 -12   0   57.09   33.50
   4  12   0   -8.10   51.19
   4  12   0   40.10   27.50
   4  12   0   55.99   25.60
   4  12   0    2.60   25.90
   4  12   0   45.00   27.20
   4  12   0   63.59   50.89
   4  12   0    4.60   34.80
  -5 -12   0   59.79   36.30
  -5 -12   0   71.19   39.30
  -5 -12   0   63.49   32.80
   5  12   0   34.00   34.40
   5  12   0   27.40   26.20
   5  12   0   44.50   26.00
   5  12   0   37.40   35.20
   5  12   0  113.09   36.60
   5  12   0  -48.00   49.10
   5  12   0   59.69   58.59
  -6 -12   0  -14.00   36.90
  -6 -12   0   86.79   40.10
  -6 -12   0   29.80   30.60
   6  12   0   15.00   60.99
   6  12   0   15.20   64.09
   6  12   0   13.60   17.30
   6  12   0  149.59   42.80
   6  12   0  -14.70   30.70
   6  12   0   57.19   26.70
   5  12  -1  162.78   43.00
   5  12  -1  165.08   48.70
   5  12  -1   95.09   64.09
   5  12  -1  218.08   44.50
   5  12  -1  106.39   48.30
   5  12  -1  257.97   52.69
   5  12  -1   68.99   75.29
  -5 -12   1  213.48   59.29
  -5 -12   1  208.88   61.39
  -5 -12   1  235.28   62.99
   4  12  -1  123.09   42.10
   4  12  -1   13.00   36.10
   4  12  -1   78.69   31.60
   4  12  -1   42.10   22.60
   4  12  -1   36.20   30.70
   4  12  -1   57.69   58.99
   4  12  -1  119.39   53.69
  -4 -12   1   10.40   35.70
  -4 -12   1   31.50   24.20
  -4 -12   1   47.90   40.70
   3  12  -1   64.79   39.90
   3  12  -1   72.19   22.80
   3  12  -1  124.39   48.00
   3  12  -1   28.10   30.40
   3  12  -1   52.19   59.49
   3  12  -1  116.39   47.10
   3  12  -1   19.70   46.40
  -3 -12   1  157.58   53.69
  -3 -12   1   40.70   23.40
  -3 -12   1    8.60   36.60
   2  12  -1  -56.89   88.29
   2  12  -1  -36.60   52.19
   2  12  -1  -36.30   32.80
   2  12  -1   96.59   40.70
   2  12  -1    7.70   19.70
   2  12  -1   81.09   45.00
  -2 -12   1   48.30   40.90
  -2 -12   1   52.29   52.39
  -2 -12   1   63.59   28.50
  -2 -12   1   32.00   25.00
   1  12  -1  337.27  104.69
   1  12  -1  308.27   82.89
   1  12  -1   38.70   73.49
   1  12  -1  353.86   81.69
   1  12  -1  228.98   45.50
  -1 -12   1  280.27   55.49
  -1 -12   1  131.89   60.89
  -1 -12   1  130.59   52.99
  -1 -12   1  224.58   39.90
   0  12  -1  114.59   29.30
   0  12  -1  158.08   55.59
   0  12  -1  165.18   72.09
   0 -12   1   60.69   47.00
   0 -12   1  198.78   49.20
   0 -12   1  126.59   33.10
   7  11  -1   70.59   22.00
   7  11  -1   72.49   43.50
   7  11  -1    9.70   15.70
   7  11  -1   29.70   18.10
  -7 -11   1   21.30   31.00
  -7 -11   1   46.40   41.00
  -7 -11   1   24.00   25.80
   6  11  -1  -25.00   33.20
   6  11  -1   -5.10   20.10
   6  11  -1   14.50   16.60
   6  11  -1   24.80   28.50
   6  11  -1  104.49   56.59
   6  11  -1    7.00   23.30
  -6 -11   1  -23.30   23.90
  -6 -11   1   22.60   31.90
  -6 -11   1   13.50   25.70
  -6 -11   1  -15.40   28.10
   5  11  -1    0.50   16.70
   5  11  -1  -45.20   37.00
   5  11  -1  -30.40   25.90
   5  11  -1   41.10   43.20
   5  11  -1    0.40   31.80
   5  11  -1   47.00   17.80
   5  11  -1    0.60   15.60
  -5 -11   1   17.20   14.50
  -5 -11   1    9.70   21.50
  -5 -11   1   -3.10   24.00
   4  11  -1  102.69   44.40
   4  11  -1   31.40   36.90
   4  11  -1   84.29   24.30
   4  11  -1  -11.10   42.50
   4  11  -1   72.49   38.50
   4  11  -1   27.80   19.60
  -4 -11   1   75.89   28.40
  -4 -11   1  123.69   35.60
  -4 -11   1   18.90   25.90
   3  11  -1   29.20   33.50
   3  11  -1   -7.00   21.10
   3  11  -1    0.70   21.90
   3  11  -1   51.19   27.10
   3  11  -1   29.10   17.00
  -3 -11   1    2.10   25.10
  -3 -11   1  -52.39   23.90
  -3 -11   1   17.30   17.80
   2  11  -1   35.60   16.60
   2  11  -1  111.79   54.99
   2  11  -1   40.60   39.10
   2  11  -1   32.80   28.60
   2  11  -1   20.60   32.10
   2  11  -1   42.40   25.80
  -2 -11   1    6.70   31.00
  -2 -11   1   31.00   20.40
  -2 -11   1   70.99   25.80
  -2 -11   1   59.19   42.90
   1  11  -1   68.09   15.30
   1  11  -1   40.40   45.10
   1  11  -1   19.10   34.60
   1  11  -1   52.89   34.10
  -1 -11   1   52.89   21.70
  -1 -11   1   46.00   38.80
  -1 -11   1   15.20   37.60
  -1 -11   1   37.50   19.70
   0  11  -1  -18.30   31.40
   0  11  -1  -21.80   39.20
   0  11  -1   -2.30   26.10
   0  11  -1  -66.99   46.50
   0  11  -1  -24.30   11.20
   0 -11   1  -12.40   13.70
   0 -11   1  -31.50   28.10
   0 -11   1   25.50   29.20
  -1  11  -1   83.09   51.39
  -1  11  -1   72.39   28.00
  -1  11  -1   77.59   48.50
  -1  11  -1   42.20   54.29
   1 -11   1   82.89   40.90
   1 -11   1   90.59   43.30
   1 -11   1   88.09   29.60
  -2  11  -1   59.49   20.20
  -2  11  -1  122.59   54.59
  -2  11  -1   74.39   34.20
   2 -11   1   34.40   34.70
   2 -11   1   57.29   26.60
   2 -11   1   56.29   35.00
   7  10  -1   39.40   42.50
   7  10  -1    6.00   19.50
   7  10  -1   51.79   25.10
   7  10  -1   56.29   17.40
   7  10  -1  130.19   47.70
   7  10  -1   56.99   26.90
  -7 -10   1   37.70   29.20
  -7 -10   1  118.39   41.00
  -7 -10   1    2.80   23.60
   6  10  -1   86.39   22.50
   6  10  -1   56.69   24.90
   6  10  -1   47.90   35.70
   6  10  -1   65.59   36.50
   6  10  -1   59.99   26.40
   6  10  -1   57.89   38.40
  -6 -10   1   26.10   28.60
  -6 -10   1   76.69   33.70
  -6 -10   1   61.09   31.20
  -6 -10   1   64.49   26.50
   5  10  -1  102.59   35.50
   5  10  -1  127.79   37.10
   5  10  -1   89.89   48.00
   5  10  -1  131.99   31.30
   5  10  -1   62.99   63.19
   5  10  -1  182.28   44.60
  -5 -10   1  181.68   52.59
  -5 -10   1  127.99   42.50
  -5 -10   1  116.99   36.70
  -5 -10   1  105.89   42.70
   4  10  -1   85.49   32.40
   4  10  -1   80.99   27.40
   4  10  -1   89.99   53.79
   4  10  -1  129.99   40.80
   4  10  -1   36.00   46.20
   4  10  -1   53.29   37.60
   4  10  -1   54.59   33.20
  -4 -10   1   62.09   27.90
  -4 -10   1  100.69   40.10
  -4 -10   1  122.19   33.20
  -4 -10   1   79.79   36.30
   3  10  -1  133.39   28.20
   3  10  -1  140.49   48.70
   3  10  -1   92.79   35.90
   3  10  -1   97.39   35.50
   3  10  -1  109.09   46.40
   3  10  -1  203.08   60.29
   3  10  -1  116.09   66.79
  -3 -10   1  103.79   31.90
  -3 -10   1  149.29   46.20
  -3 -10   1  121.79   45.40
   2  10  -1   94.09   38.90
   2  10  -1  231.18   71.19
   2  10  -1   97.79   53.29
   2  10  -1  189.28   55.69
   2  10  -1  175.08   52.19
   2  10  -1  140.99   33.90
  -2 -10   1  150.28   35.80
  -2 -10   1  260.47   64.99
  -2 -10   1  265.17   62.29
  -2 -10   1  147.49   37.00
   1  10  -1  535.55   83.89
   1  10  -1  538.85   60.29
   1  10  -1  454.15   76.89
   1  10  -1  279.97   80.69
   1  10  -1  326.47  104.49
  -1 -10   1  488.65   74.49
  -1 -10   1  489.85   55.39
  -1 -10   1  658.53   87.69
  -1 -10   1  459.65   47.40
   0  10  -1  218.08   63.59
   0  10  -1  209.88   53.79
   0  10  -1  356.16   90.89
   0  10  -1  168.28   55.99
   0 -10   1  257.17   63.69
   0 -10   1  167.98   51.19
   0 -10   1  354.06   80.29
  -1  10  -1   50.99   24.60
  -1  10  -1   51.09   36.50
  -1  10  -1    3.50   36.70
  -1  10  -1    3.80   50.49
   1 -10   1   67.29   22.40
   1 -10   1   67.99   38.00
   1 -10   1   94.49   27.40
  -2  10  -1   37.70   41.40
  -2  10  -1   25.10   22.10
   2 -10   1  -44.50   29.80
   2 -10   1   76.89   34.40
  -3  10  -1  -57.39   32.10
  -3  10  -1   31.60   25.60
  -3  10  -1  -23.80   32.50
  -3  10  -1    9.40   15.50
   3 -10   1   36.30   34.20
   3 -10   1   49.70   23.00
   3 -10   1    0.50   34.60
   8   9  -1  125.39   33.80
   8   9  -1  122.69   49.99
   8   9  -1   68.29   30.50
   8   9  -1  111.69   19.50
  -8  -9   1  117.19   48.30
  -8  -9   1  107.39   40.90
  -8  -9   1  145.29   47.80
   7   9  -1  155.38   69.69
   7   9  -1  154.58   42.70
   7   9  -1  197.78   30.70
   7   9  -1  180.88   41.00
  -7  -9   1  128.79   52.89
  -7  -9   1  163.48   52.49
  -7  -9   1  174.38   50.89
   6   9  -1   89.99   24.40
   6   9  -1   69.19   24.00
   6   9  -1   88.99   36.10
   6   9  -1   80.39   31.70
   6   9  -1   93.09   31.80
  -6  -9   1   96.29   41.60
  -6  -9   1  102.59   42.40
  -6  -9   1   82.99   36.50
  -6  -9   1  130.99   47.30
   5   9  -1  186.98   46.60
   5   9  -1  145.39   38.60
   5   9  -1  135.59   28.90
   5   9  -1   72.89   35.70
   5   9  -1  161.58   41.00
  -5  -9   1  115.69   37.70
  -5  -9   1  151.38   50.39
  -5  -9   1  160.18   43.20
  -5  -9   1  157.68   48.00
   4   9  -1  102.49   32.50
   4   9  -1  136.89   65.49
   4   9  -1   76.29   51.49
   4   9  -1   48.80   22.40
   4   9  -1   16.20   36.70
   4   9  -1   85.29   22.50
  -4  -9   1   76.49   32.20
  -4  -9   1  112.39   41.60
  -4  -9   1   69.49   31.80
  -4  -9   1   86.19   30.20
  -4  -9   1  123.19   43.70
   3   9  -1  412.16   44.30
   3   9  -1  334.47   50.69
   3   9  -1  202.78   80.29
   3   9  -1  343.57   65.99
   3   9  -1  321.47   69.79
  -3  -9   1  358.06   58.09
  -3  -9   1  398.06   63.89
  -3  -9   1  338.77   49.10
  -3  -9   1  381.46   59.49
   2   9  -1  233.78  124.09
   2   9  -1  452.35   66.09
   2   9  -1  439.46   49.50
   2   9  -1  496.45   74.29
   2   9  -1  404.96   64.59
  -2  -9   1  419.36   47.70
  -2  -9   1  462.25   50.89
  -2  -9   1  493.95   70.09
  -2  -9   1  513.15   67.59
   1   9  -1  695.63  109.19
   1   9  -1  980.00   95.79
   1   9  -1  882.91   70.49
   1   9  -1  890.31  103.59
  -1  -9   1  803.62   62.49
  -1  -9   1  787.72   89.19
  -1  -9   1  898.61   71.49
  -1  -9   1  757.52   93.29
   0   9  -1  364.56   69.69
   0   9  -1  190.68   56.49
   0   9  -1  249.58   68.79
   0   9  -1  181.88   71.29
   0   9  -1  263.17   53.29
   0   9  -1  230.08   48.00
   0  -9   1  190.48   49.99
   0  -9   1  196.98   24.50
   0  -9   1  205.08   40.30
   0  -9   1  215.38   55.49
  -1   9  -1   89.79   28.90
  -1   9  -1  191.08   60.99
  -1   9  -1   86.19   58.89
  -1   9  -1   37.80   50.69
   1  -9   1   72.59   36.70
   1  -9   1   88.49   30.00
   1  -9   1   61.99   22.40
  -2   9  -1  -11.40   13.90
  -2   9  -1  110.99   50.09
  -2   9  -1   68.99   27.70
  -2   9  -1  -41.20   29.10
   2  -9   1   31.30   22.10
   2  -9   1  -18.70   21.40
   2  -9   1   66.89   45.00
  -3   9  -1  -21.40   30.80
  -3   9  -1   51.39   36.00
  -3   9  -1   78.19   34.40
  -3   9  -1   -7.40   15.90
   3  -9   1   -1.90   11.40
   3  -9   1    1.20   32.60
   3  -9   1   20.80   30.90
  -4   9  -1  106.89   46.80
  -4   9  -1   93.69   46.20
  -4   9  -1   32.80   41.60
  -4   9  -1   17.60   26.90
   4  -9   1   14.70   37.40
   4  -9   1   45.00   22.10
   4  -9   1   30.70   43.00
   8   8  -1    9.80    7.50
   8   8  -1    2.40   13.20
   8   8  -1   16.10   21.30
   8   8  -1   -3.80   17.90
  -8  -8   1   17.80   25.00
  -8  -8   1   10.00   29.30
  -8  -8   1   15.60   22.50
   7   8  -1    9.00   13.80
   7   8  -1    1.50    7.20
   7   8  -1  -15.10   28.90
   7   8  -1   -0.10   13.80
  -7  -8   1   19.50   18.20
  -7  -8   1    7.50   17.00
  -7  -8   1   13.90   20.00
   6   8  -1   16.00   16.90
   6   8  -1    4.90   23.10
   6   8  -1   18.60   11.10
   6   8  -1   18.10   15.60
   6   8  -1   18.10   13.30
  -6  -8   1   26.80   20.00
  -6  -8   1   67.59   28.70
   5   8  -1   30.40   16.20
   5   8  -1   22.30   11.90
   5   8  -1   20.50   12.70
   5   8  -1   27.60   15.10
  -5  -8   1  -10.20   16.00
  -5  -8   1    0.10   15.90
  -5  -8   1   11.50   14.40
  -5  -8   1   10.80   11.40
   4   8  -1  128.49   39.20
   4   8  -1  120.09   33.40
   4   8  -1  116.29   26.40
   4   8  -1  124.79   30.40
  -4  -8   1   98.39   31.90
  -4  -8   1  101.29   35.20
  -4  -8   1   80.69   33.10
  -4  -8   1  128.99   40.50
   3   8  -1  280.17   60.29
   3   8  -1  202.28   45.40
   3   8  -1  220.28   47.00
   3   8  -1  225.68   38.60
   3   8  -1   84.69   50.39
   3   8  -1  119.09   58.69
  -3  -8   1  184.98   47.10
  -3  -8   1  238.58   42.80
  -3  -8   1  238.58   52.99
  -3  -8   1  198.58   48.30
  -3  -8   1  211.08   49.50
   2   8  -1   12.40   22.00
   2   8  -1   20.30   18.90
   2   8  -1    7.30   27.70
   2   8  -1   -2.50    6.60
   2   8  -1   -9.70    8.90
  -2  -8   1    6.70   17.80
  -2  -8   1  -10.20    7.90
  -2  -8   1    9.00   11.80
  -2  -8   1    3.40   10.00
  -2  -8   1   -7.70   15.80
   1   8  -1  -18.40   24.00
   1   8  -1    7.40    8.80
   1   8  -1   25.30   17.20
   1   8  -1    6.00   23.50
   1   8  -1   19.10   13.90
  -1  -8   1   18.50   12.30
  -1  -8   1   10.80   19.80
  -1  -8   1    6.20    7.70
   0   8  -1   46.40   35.30
   0   8  -1   71.49   23.30
   0   8  -1  171.88   47.60
   0   8  -1   53.29   18.30
   0   8  -1   45.00   27.80
   0   8  -1   97.09   27.00
   0   8  -1   57.49   30.70
   0  -8   1   84.19   19.30
   0  -8   1   80.99   35.60
   0  -8   1  112.49   42.10
   0  -8   1   76.39   23.80
  -1   8  -1   75.19   29.30
  -1   8  -1   50.49   28.30
  -1   8  -1   42.20   21.60
  -1   8  -1   80.89   40.80
   1  -8   1   28.00   12.30
   1  -8   1   29.30   26.80
   1  -8   1   35.00   27.00
  -2   8  -1  -13.90   32.00
  -2   8  -1   57.29   31.80
  -2   8  -1   14.30   30.70
   2  -8   1   -3.10   17.00
   2  -8   1   34.30   15.40
   2  -8   1   76.19   28.50
  -3   8  -1   -6.00   29.50
  -3   8  -1   28.00   29.80
  -3   8  -1   39.40   33.10
   3  -8   1   -3.80   27.90
   3  -8   1   13.70   19.50
   3  -8   1    3.50   12.70
  -4   8  -1  -11.20   32.90
  -4   8  -1  119.29   42.30
  -4   8  -1   15.00   33.10
   4  -8   1   12.30   29.10
   4  -8   1   46.40   22.70
   4  -8   1   35.50   35.50
  -5   8  -1  164.18   54.89
  -5   8  -1  220.28   68.59
  -5   8  -1  191.08   70.39
   5  -8   1  182.98   46.10
   5  -8   1  233.28   56.39
   5  -8   1  168.48   59.29
   9   7  -1  107.19   29.30
   9   7  -1   99.69   43.10
   9   7  -1    7.50   35.60
  -9  -7   1  125.09   36.60
  -9  -7   1   56.09   30.90
  -9  -7   1   21.00   32.60
   8   7  -1  117.59   35.70
   8   7  -1  162.88   68.79
   8   7  -1  242.48   58.09
   8   7  -1  200.18   17.10
  -8  -7   1  200.58   57.69
  -8  -7   1  185.58   49.99
  -8  -7   1  229.78   64.59
   7   7  -1  183.68   37.30
   7   7  -1  198.78   51.09
   7   7  -1  206.58   19.30
   7   7  -1  230.68   74.09
  -7  -7   1  188.48   53.69
  -7  -7   1  210.08   50.19
  -7  -7   1  244.08   58.29
   6   7  -1  110.69   29.70
   6   7  -1  118.19   21.40
   6   7  -1  136.09   54.69
   6   7  -1  100.49   31.20
  -6  -7   1  119.49   40.60
  -6  -7   1  112.59   33.90
  -6  -7   1  160.08   43.60
   5   7  -1  571.44   50.89
   5   7  -1  507.15   36.70
   5   7  -1  510.45   40.60
   5   7  -1  540.65   59.19
   5   7  -1  431.26   50.99
  -5  -7   1  506.95   62.49
  -5  -7   1  490.75   63.59
  -5  -7   1  528.95   64.89
  -5  -7   1  388.16   57.19
   4   7  -1  463.05   53.59
   4   7  -1  459.15   52.49
   4   7  -1  476.65   53.79
   4   7  -1  518.95   41.80
  -4  -7   1  494.25   60.19
  -4  -7   1  476.15   58.59
  -4  -7   1  365.46   53.99
  -4  -7   1  537.65   63.49
   3   7  -1 1056.19   82.49
   3   7  -1 1031.20   64.69
   3   7  -1  978.90   78.39
   3   7  -1 1039.50   89.59
  -3  -7   1  927.71   82.39
  -3  -7   1  952.90   83.89
  -3  -7   1 1029.10   81.79
  -3  -7   1 1099.19   90.29
  -3  -7   1  998.20   88.29
   2   7  -1 1043.60   68.69
   2   7  -1 1127.69   99.29
   2   7  -1 1054.39   88.69
  -2  -7   1 1129.99   92.69
  -2  -7   1 1070.79   77.19
  -2  -7   1 1169.88   70.09
  -2  -7   1 1189.58   95.49
  -2  -7   1 1114.19   87.29
   1   7  -1   23.10   12.50
   1   7  -1   39.60   18.80
   1   7  -1   55.19   18.30
   1   7  -1   48.10   30.50
   1   7  -1   50.29   22.60
   1   7  -1   38.50   26.30
  -1  -7   1   26.40   13.70
  -1  -7   1   25.60    9.20
  -1  -7   1   48.20   23.30
  -1  -7   1   14.60   15.90
   0   7  -1   85.39   21.90
   0   7  -1   45.20   19.00
   0   7  -1   27.10   24.50
   0   7  -1   13.40   25.20
   0   7  -1   53.59   17.80
   0  -7   1   19.30   12.80
   0  -7   1   30.70   16.10
   0  -7   1   20.50   22.40
   0  -7   1   47.10   12.50
  -1   7  -1  -12.30   37.20
  -1   7  -1   49.20   27.10
  -1   7  -1    7.10   13.10
  -1   7  -1   20.00   26.70
   1  -7   1   21.30   21.50
   1  -7   1   -1.70   13.80
   1  -7   1    8.00   11.70
   1  -7   1   -7.20   15.70
  -2   7  -1  105.89   38.90
  -2   7  -1   92.79   39.80
  -2   7  -1   46.00   29.00
   2  -7   1   68.19   22.70
   2  -7   1  102.09   38.00
  -3   7  -1  201.18   71.59
  -3   7  -1  119.99   50.49
  -3   7  -1  174.88   55.09
   3  -7   1  224.88   39.30
   3  -7   1  104.99   62.79
   3  -7   1  161.18   42.80
  -4   7  -1  -12.10   19.10
  -4   7  -1   -0.30   26.30
  -4   7  -1   87.29   35.00
   4  -7   1   11.80   27.30
   4  -7   1   11.30   20.10
   4  -7   1   -8.10   13.80
  -5   7  -1   33.90   33.90
  -5   7  -1  -42.40   42.70
  -5   7  -1   16.80   32.30
   5  -7   1   12.50   18.00
   5  -7   1   -7.30   34.60
  -6   7  -1  160.68   45.90
  -6   7  -1    1.60   47.60
  -6   7  -1   35.00   35.10
   6  -7   1   46.00   18.50
   6  -7   1   -3.70   36.30
   6  -7   1   33.90   20.40
   9   6  -1   35.20   40.40
   9   6  -1   28.80   17.50
   9   6  -1   80.09   27.40
  -9  -6   1   47.00   26.50
  -9  -6   1   53.39   30.20
  -9  -6   1   45.90   26.40
   8   6  -1   36.70    9.30
   8   6  -1    2.30   32.20
   8   6  -1   38.20   29.20
   8   6  -1   69.69   20.80
  -8  -6   1   44.80   26.20
  -8  -6   1   39.50   29.90
  -8  -6   1   19.70   21.20
   7   6  -1   54.79   30.40
   7   6  -1   67.79    9.30
   7   6  -1   72.99   22.80
   7   6  -1   19.20   14.90
  -7  -6   1   27.50   16.10
  -7  -6   1   59.89   24.80
  -7  -6   1   41.40   21.10
   6   6  -1   32.20    9.30
   6   6  -1   36.20   23.10
   6   6  -1   33.30   13.20
   6   6  -1   24.80   16.60
  -6  -6   1   60.39   29.00
  -6  -6   1   48.80   21.10
  -6  -6   1   34.20   19.30
   5   6  -1  109.39   32.70
   5   6  -1   99.49   18.00
   5   6  -1  135.29   13.90
   5   6  -1   91.69   25.60
   5   6  -1  131.19   36.90
  -5  -6   1  116.19   35.60
  -5  -6   1  131.09   38.90
  -5  -6   1  120.69   38.10
   4   6  -1  279.67   31.00
   4   6  -1  202.78   23.60
   4   6  -1  245.88   24.30
   4   6  -1  182.78   37.10
  -4  -6   1  227.98   24.10
  -4  -6   1  200.78   46.10
  -4  -6   1  151.28   38.10
   3   6  -1  678.43   52.79
   3   6  -1  682.83   49.40
   3   6  -1  686.63   69.19
   3   6  -1  658.53   59.39
   3   6  -1  692.43   60.89
   3   6  -1  647.94   45.80
  -3  -6   1  656.23   64.09
  -3  -6   1  767.12   69.09
  -3  -6   1  660.83   63.69
  -3  -6   1  699.43   65.39
  -3  -6   1  592.44   59.29
   2   6  -1  252.87   34.70
   2   6  -1  271.87   30.40
   2   6  -1  326.27   35.70
   2   6  -1  297.07   47.30
   2   6  -1  161.78   60.39
   2   6  -1  384.96   45.50
  -2  -6   1  312.67   43.10
  -2  -6   1  314.27   44.20
  -2  -6   1  255.57   39.90
  -2  -6   1  280.17   30.10
  -2  -6   1  318.27   38.70
  -2  -6   1  313.97   35.90
  -2  -6   1  295.47   39.60
   1   6  -1  508.25   52.29
   1   6  -1  321.27   77.99
   1   6  -1  385.96   56.89
   1   6  -1  462.25   41.70
   1   6  -1  424.86   41.20
  -1  -6   1  465.95   40.90
  -1  -6   1  470.25   46.50
  -1  -6   1  479.25   40.20
  -1  -6   1  465.05   54.99
  -1  -6   1  454.75   54.29
  -1  -6   1  437.36   48.70
   0   6  -1   54.09   18.50
   0   6  -1   12.00   15.40
   0   6  -1   40.00   31.80
   0   6  -1   76.59   22.50
   0   6  -1   33.70   23.30
   0  -6   1   40.90   12.30
   0  -6   1   43.10   13.90
   0  -6   1   90.39   25.60
   0  -6   1   49.40   24.20
  -1   6  -1   22.50   20.60
  -1   6  -1   37.70   24.90
  -1   6  -1   30.60   22.40
  -1   6  -1   21.40   11.40
   1  -6   1    8.40    7.30
   1  -6   1   21.20   24.90
   1  -6   1    9.90   14.10
  -2   6  -1  700.93   92.59
  -2   6  -1  680.33   84.69
  -2   6  -1  613.64   96.99
   2  -6   1  618.64   70.19
   2  -6   1  644.14   69.39
   2  -6   1  613.14   51.79
  -3   6  -1  820.72  124.69
  -3   6  -1  905.21   99.99
  -3   6  -1  923.11  104.69
   3  -6   1  827.02   63.09
   3  -6   1  876.81   87.49
   3  -6   1  901.51   88.09
  -4   6  -1  721.83   88.79
  -4   6  -1  666.73  106.29
  -4   6  -1  718.53   91.59
   4  -6   1  594.84   55.39
   4  -6   1  557.14   72.39
   4  -6   1  475.55   87.49
  -5   6  -1  495.75   77.39
  -5   6  -1  516.15   80.29
   5  -6   1  397.16   79.79
   5  -6   1  376.06   45.80
   5  -6   1  310.97  103.99
  -6   6  -1  -25.60   34.70
  -6   6  -1   54.69   32.60
  -6   6  -1   -3.30   30.90
   6  -6   1   39.20   22.40
   6  -6   1   12.00   42.50
   6  -6   1   75.69   29.10
   9   5  -1  -18.90   26.00
   9   5  -1   -7.90   36.80
   9   5  -1  -21.10   10.00
  -9  -5   1   25.50   22.20
  -9  -5   1    1.20   16.70
  -9  -5   1  -16.10   18.00
   8   5  -1   -3.40   15.30
   8   5  -1    4.20   12.70
   8   5  -1    2.40    4.80
  -8  -5   1   -3.60   17.60
  -8  -5   1   20.90   30.00
  -8  -5   1   33.80   24.10
   7   5  -1  147.09   42.90
   7   5  -1  120.79   28.50
   7   5  -1  182.88   18.90
   7   5  -1  158.48   12.10
   7   5  -1  118.39   50.09
  -7  -5   1  107.89   18.60
  -7  -5   1  162.08   42.20
  -7  -5   1  198.78   45.10
  -7  -5   1  161.88   46.20
   6   5  -1  148.69   52.89
   6   5  -1  194.58   20.10
   6   5  -1  154.28   13.80
   6   5  -1  121.29   32.80
   6   5  -1  154.78   31.30
  -6  -5   1  130.29   40.90
  -6  -5   1  171.18   42.80
  -6  -5   1  170.78   38.30
  -6  -5   1  147.19   19.10
   5   5  -1  167.58   31.60
   5   5  -1  171.08   16.30
   5   5  -1  164.68   37.30
   5   5  -1  157.68   17.50
  -5  -5   1  175.58   21.20
  -5  -5   1  175.68   43.70
  -5  -5   1  185.18   40.90
  -5  -5   1  136.39   37.20
   4   5  -1  110.49   25.10
   4   5  -1  115.69   13.70
   4   5  -1  126.29   28.30
   4   5  -1  111.69   25.00
   4   5  -1  105.49   13.70
   4   5  -1   98.19   17.00
   4   5  -1   86.89   25.20
  -4  -5   1   92.59   27.10
  -4  -5   1   71.09   24.40
  -4  -5   1   49.80   21.40
  -4  -5   1   99.29   28.80
  -4  -5   1  110.49   15.20
   3   5  -1  804.32   43.40
   3   5  -1  753.92   58.39
   3   5  -1  824.12   53.49
   3   5  -1  698.63   45.00
   3   5  -1  660.63   57.79
   3   5  -1  725.83   44.00
   3   5  -1  702.33   55.29
  -3  -5   1  677.53   60.99
  -3  -5   1  717.03   62.49
  -3  -5   1  758.72   64.19
  -3  -5   1  764.32   47.70
  -3  -5   1  708.33   61.89
   2   5  -1   94.49   16.20
   2   5  -1   64.99   19.10
   2   5  -1   86.39   27.00
   2   5  -1   74.89   20.50
   2   5  -1  117.29   37.10
   2   5  -1   84.79   23.70
   2   5  -1   66.39   16.60
   2   5  -1   79.49   21.90
   2   5  -1   55.79   16.30
  -2  -5   1   47.10   19.60
  -2  -5   1   84.79   24.20
  -2  -5   1   72.19   24.00
  -2  -5   1   68.89   18.70
  -2  -5   1   72.39   22.20
  -2  -5   1   52.29   16.40
   1   5  -1  134.19   48.10
   1   5  -1  250.97   27.60
   1   5  -1  118.79   38.40
   1   5  -1  233.28   32.70
   1   5  -1  255.97   52.59
   1   5  -1  192.68   26.40
   1   5  -1  281.57   36.70
   1   5  -1  214.58   26.60
   1   5  -1  250.17   41.50
   1   5  -1  205.68   31.60
  -1  -5   1  230.88   28.60
  -1  -5   1  197.98   26.00
  -1  -5   1  180.08   22.00
  -1  -5   1  240.88   34.20
  -1  -5   1  215.08   34.80
  -1  -5   1  215.98   31.10
  -1  -5   1  245.28   34.30
   0   5  -1  119.49   32.50
   0   5  -1   79.39   32.60
   0   5  -1   53.09   26.10
   0   5  -1  130.19   38.70
   0   5  -1  100.89   23.70
   0   5  -1  114.19   26.60
   0   5  -1  121.39   19.90
   0  -5   1   65.19   25.80
   0  -5   1  124.59   29.50
   0  -5   1   92.59   13.30
   0  -5   1   84.89   26.00
   0  -5   1  110.39   28.50
   0  -5   1   79.29   18.10
  -1   5  -1 1112.39   96.09
  -1   5  -1 1219.38   86.59
  -1   5  -1  997.20  114.29
  -1   5  -1 1175.68   77.19
   1  -5   1 1223.58   86.99
   1  -5   1 1153.08   65.19
   1  -5   1 1244.78   87.89
  -2   5  -1  219.88   55.19
  -2   5  -1  153.58   56.39
  -2   5  -1  220.78   60.19
  -2   5  -1  246.68   39.00
   2  -5   1  111.79   43.10
   2  -5   1  185.28   25.70
   2  -5   1  228.48   47.10
  -3   5  -1  571.04   80.39
  -3   5  -1  541.85   96.29
  -3   5  -1  651.03   78.89
   3  -5   1  656.73   67.59
   3  -5   1  581.24   48.10
   3  -5   1  548.75   64.69
  -4   5  -1  732.13  112.69
  -4   5  -1  797.52   90.19
  -4   5  -1  792.52   89.99
   4  -5   1  658.93   73.39
   4  -5   1  768.32   84.49
   4  -5   1  703.23   55.69
  -5   5  -1   67.69   40.90
  -5   5  -1   47.80   28.40
  -5   5  -1   81.99   40.90
   5  -5   1   51.89   23.40
   5  -5   1   55.09   31.50
   5  -5   1   50.99   18.70
  -6   5  -1  181.48   50.49
  -6   5  -1  148.99   70.39
  -6   5  -1  135.49   49.50
   6  -5   1  160.28   34.10
   6  -5   1  157.68   46.00
   6  -5   1  181.88   55.59
  -7   5  -1   11.40   45.80
  -7   5  -1  -12.10   28.80
  -7   5  -1  -13.30   45.30
   7  -5   1  -27.00   20.50
   7  -5   1  -21.90   32.00
   7  -5   1   11.30   26.10
   9   4  -1  101.69   29.60
   9   4  -1  152.78   53.19
   9   4  -1   90.29   54.99
  -9  -4   1   78.49   39.50
  -9  -4   1  153.48   48.00
  -9  -4   1   92.99   46.50
   8   4  -1   84.39   24.80
   8   4  -1   52.09   45.80
   8   4  -1   74.79   38.20
   8   4  -1  121.59   11.40
  -8  -4   1   94.19   40.00
  -8  -4   1  102.19   37.70
  -8  -4   1   83.79   30.30
   7   4  -1    9.30   13.30
   7   4  -1    4.60    4.10
   7   4  -1  -25.40   13.90
   7   4  -1    7.60    8.30
  -7  -4   1   14.20   13.70
  -7  -4   1    2.80   14.40
  -7  -4   1   -2.70    7.20
  -7  -4   1   -0.10   13.90
   6   4  -1  486.35   28.90
   6   4  -1  411.06   41.50
   6   4  -1  494.35   82.29
   6   4  -1  430.46   22.10
   6   4  -1  461.15   56.39
  -6  -4   1  468.15   62.29
  -6  -4   1  454.05   58.89
  -6  -4   1  449.46   50.49
  -6  -4   1  454.75   30.20
   5   4  -1  905.81   60.19
   5   4  -1  971.10   75.19
   5   4  -1  902.21   44.10
   5   4  -1  944.01   38.20
  -5  -4   1  974.50   94.39
  -5  -4   1  978.30   70.29
  -5  -4   1  976.40   46.80
  -5  -4   1  937.51   96.49
   4   4  -1  568.04   26.30
   4   4  -1  527.45   31.30
   4   4  -1  568.24   33.80
   4   4  -1  554.84   43.50
   4   4  -1  533.15   45.70
   4   4  -1  514.45   48.00
  -4  -4   1  569.84   57.79
  -4  -4   1  553.34   55.79
  -4  -4   1  536.35   48.60
  -4  -4   1  498.05   30.20
  -4  -4   1  514.35   33.20
   3   4  -1  630.44   50.69
   3   4  -1  482.95   43.80
   3   4  -1  595.04   51.19
   3   4  -1  535.15   45.50
   3   4  -1  646.44   44.00
   3   4  -1  584.94   33.50
   3   4  -1  542.95   33.10
   3   4  -1  589.34   33.90
  -3  -4   1  590.54   35.90
  -3  -4   1  574.54   52.19
  -3  -4   1  575.84   49.99
  -3  -4   1  519.55   47.60
  -3  -4   1  678.03   53.29
  -3  -4   1  593.14   54.09
   2   4  -1  343.87   34.30
   2   4  -1  355.36   27.00
   2   4  -1  390.46   39.10
   2   4  -1  302.87   32.60
   2   4  -1  288.87   31.90
   2   4  -1  303.57   37.80
   2   4  -1  365.96   34.60
   2   4  -1  314.37   45.30
   2   4  -1  347.77   28.60
   2   4  -1  355.06   33.00
   2   4  -1  336.27   24.20
  -2  -4   1  345.67   36.30
  -2  -4   1  355.96   36.70
  -2  -4   1  374.16   26.60
  -2  -4   1  372.86   38.90
  -2  -4   1  335.17   36.90
  -2  -4   1  328.87   37.00
   1   4  -1  125.79   14.70
   1   4  -1   80.59   28.60
   1   4  -1  181.48   24.00
   1   4  -1  158.68   25.20
   1   4  -1  188.38   28.40
   1   4  -1   89.09   34.10
   1   4  -1  163.88   31.50
   1   4  -1  165.78   21.40
   1   4  -1  220.78   35.10
   1   4  -1  159.28   19.90
   1   4  -1  156.68   25.70
  -1  -4   1  149.79   17.60
  -1  -4   1  162.88   21.20
  -1  -4   1  178.38   22.40
  -1  -4   1  219.38   27.60
  -1  -4   1  153.28   25.50
  -1  -4   1  129.49   25.60
   0   4  -1  460.95   64.59
   0   4  -1  626.34   47.10
   0   4  -1  633.44   47.10
   0   4  -1  625.64   46.50
   0   4  -1  635.54   50.79
   0   4  -1  642.64   63.49
   0   4  -1  541.25   34.30
   0   4  -1  627.24   44.00
   0   4  -1  584.04   54.29
   0  -4   1  609.74   46.00
   0  -4   1  585.14   50.19
   0  -4   1  655.63   52.49
   0  -4   1  632.54   39.10
   0  -4   1  658.53   36.80
   0  -4   1  471.65   61.19
  -1   4  -1  818.12   64.39
  -1   4  -1  847.22   76.99
  -1   4  -1  851.11   56.59
  -1   4  -1  722.93   89.89
   1  -4   1  825.02   57.49
   1  -4   1  800.22   47.40
   1  -4   1  580.74   78.79
   1  -4   1  859.71   63.19
   1  -4   1  806.72   63.49
  -2   4  -1  256.97   46.30
  -2   4  -1  256.47   73.29
  -2   4  -1  249.78   36.90
  -2   4  -1  275.67   44.20
   2  -4   1  159.48   43.70
   2  -4   1  256.87   36.30
   2  -4   1  217.58   35.50
   2  -4   1  234.48   25.50
  -3   4  -1  204.28   51.09
  -3   4  -1  147.69   44.50
  -3   4  -1  123.79   45.80
   3  -4   1  151.38   38.50
   3  -4   1  171.88   40.50
   3  -4   1   80.59   52.59
   3  -4   1  172.38   28.30
  -4   4  -1   36.20   21.70
  -4   4  -1    2.80   14.50
  -4   4  -1   30.80   27.90
   4  -4   1   -6.50    7.70
   4  -4   1   11.00   16.60
  -5   4  -1  327.37   85.99
  -5   4  -1  311.37   72.09
  -5   4  -1  392.56   69.19
   5  -4   1  324.17   48.80
   5  -4   1  269.97   32.70
   5  -4   1  356.16   77.49
  -6   4  -1  152.78   47.50
  -6   4  -1  306.07   90.29
  -6   4  -1  151.08   49.50
   6  -4   1  132.19   28.20
   6  -4   1  147.79   47.00
   6  -4   1  134.99   39.90
  -7   4  -1   41.10   27.70
  -7   4  -1   16.70   31.90
  -7   4  -1   53.89   53.59
   7  -4   1   12.10   13.40
   7  -4   1   17.50   18.60
   7  -4   1    3.00   33.60
  -8   4  -1  -56.39   29.50
  -8   4  -1  -49.90   35.00
  -8   4  -1  -19.10   31.00
   8  -4   1   48.70   40.90
   8  -4   1    4.70   17.20
   9   3  -1   20.80   13.40
   9   3  -1   45.20   44.60
   9   3  -1   42.30   34.60
  -9  -3   1   36.70   32.20
  -9  -3   1   23.30   22.70
  -9  -3   1   42.30   23.80
   8   3  -1   15.70    5.80
   8   3  -1   25.20   35.70
   8   3  -1    9.90   11.90
   8   3  -1   -6.20   25.30
  -8  -3   1   30.50   22.40
  -8  -3   1   -3.40   15.70
  -8  -3   1   -3.10   15.50
   7   3  -1  313.67   19.00
   7   3  -1  280.57   36.80
   7   3  -1  365.56   87.79
   7   3  -1  303.87   49.70
  -7  -3   1  321.87   47.50
  -7  -3   1  354.16   52.29
  -7  -3   1  310.77   23.80
  -7  -3   1  306.47   54.59
   6   3  -1   15.90   13.20
   6   3  -1    4.00   17.40
   6   3  -1    6.30    7.90
  -6  -3   1   -7.30    4.50
  -6  -3   1    0.10   13.20
  -6  -3   1   -0.80    8.80
   5   3  -1 1193.38  115.09
   5   3  -1 1147.79   82.39
   5   3  -1 1049.70   38.60
   5   3  -1 1040.40   62.39
  -5  -3   1 1191.48   92.99
  -5  -3   1 1052.29   46.30
  -5  -3   1 1125.29   86.39
  -5  -3   1 1168.08   75.89
   4   3  -1  328.07   29.90
   4   3  -1  357.96   38.90
   4   3  -1  307.77   19.50
   4   3  -1  343.77   17.80
   4   3  -1  303.07   37.70
  -4  -3   1  346.17   21.50
  -4  -3   1  348.97   35.70
  -4  -3   1  355.46   43.00
  -4  -3   1  358.96   43.90
   3   3  -1  197.98   13.90
   3   3  -1  152.48   24.00
   3   3  -1  179.48   21.00
   3   3  -1  178.38   14.80
   3   3  -1  186.68   14.70
   3   3  -1  200.88   29.90
   3   3  -1  209.98   25.60
   3   3  -1  155.68   26.00
  -3  -3   1  179.48   23.30
  -3  -3   1  198.98   16.10
  -3  -3   1  146.59   23.30
  -3  -3   1  183.18   16.20
  -3  -3   1  133.99   23.40
  -3  -3   1  176.68   22.70
  -3  -3   1  183.58   27.30
   2   3  -1 1457.65   68.19
   2   3  -1 1246.58   66.09
   2   3  -1 1366.56   71.59
   2   3  -1 1341.97   53.79
   2   3  -1 1391.76   52.89
   2   3  -1 1429.26   73.29
   2   3  -1 1394.66   57.29
   2   3  -1 1338.87   95.29
   2   3  -1 1449.15   66.39
   2   3  -1 1409.36   82.89
  -2  -3   1 1325.27   71.39
  -2  -3   1 1341.67   58.49
  -2  -3   1 1312.27   73.29
  -2  -3   1 1436.36   72.19
  -2  -3   1 1280.07   71.29
  -2  -3   1 1437.86   75.69
   1   3  -1  720.63   45.30
   1   3  -1  696.33   43.70
   1   3  -1  663.43   45.30
   1   3  -1  651.73   46.20
   1   3  -1  690.93   37.60
   1   3  -1  664.13   46.10
   1   3  -1  673.53   32.60
   1   3  -1  672.53   39.60
  -1  -3   1  676.73   46.40
  -1  -3   1  670.33   34.80
  -1  -3   1  620.84   44.70
  -1  -3   1  677.23   40.70
  -1  -3   1  669.53   42.70
  -1  -3   1  683.63   47.50
  -1  -3   1  598.54   47.30
   0   3  -1 4411.76  143.99
   0   3  -1 4006.60  156.08
   0   3  -1 3613.64  119.09
   0   3  -1 3597.34  133.89
   0   3  -1 3695.93  136.59
   0   3  -1 3541.05  160.48
   0   3  -1 3805.72  142.59
   0   3  -1 3827.62  127.89
   0   3  -1 3886.31  141.39
   0  -3   1 3828.42  120.99
   0  -3   1 3784.52  142.79
   0  -3   1 3821.62  141.79
   0  -3   1 3711.83  122.89
   0  -3   1 3690.83  135.29
  -1   3  -1 3617.94  118.89
  -1   3  -1 3715.23  169.48
  -1   3  -1 3792.22  147.39
  -1   3  -1 3727.83  171.38
  -1   3  -1 3628.74  138.39
   1  -3   1 3807.72  139.89
   1  -3   1 3810.52  147.09
   1  -3   1 3563.74  142.89
   1  -3   1 3715.63  123.79
  -2   3  -1 4982.80  191.48
  -2   3  -1 5002.60  168.48
  -2   3  -1 4599.14  244.58
  -2   3  -1 4768.52  236.38
  -2   3  -1 4881.01  176.78
  -2   3  -1 4926.01  150.48
  -2   3  -1 4880.81  213.78
   2  -3   1 4866.41  179.98
   2  -3   1 4856.71  181.78
   2  -3   1 4040.50  199.88
   2  -3   1 4881.91  156.58
   2  -3   1 4661.03  191.88
  -3   3  -1 1509.05  133.49
  -3   3  -1 1589.34   94.59
  -3   3  -1 1791.32  139.49
  -3   3  -1 1544.65  109.19
   3  -3   1 1390.16   86.59
   3  -3   1 1544.15   71.29
   3  -3   1 1542.95  101.79
  -4   3  -1  330.87   59.59
  -4   3  -1  321.47   48.80
   4  -3   1  276.27   28.10
   4  -3   1  255.97   66.69
   4  -3   1  279.57   46.20
  -5   3  -1  441.16   94.49
  -5   3  -1  404.76   74.59
  -5   3  -1  419.16   57.29
   5  -3   1  283.77   39.50
   5  -3   1  324.47   44.60
   5  -3   1  425.96   46.50
   5  -3   1  333.57   34.80
   5  -3   1  373.66   73.29
  -6   3  -1    9.80   26.90
  -6   3  -1  -15.40   22.80
  -6   3  -1   37.40   23.60
   6  -3   1    3.70   13.00
   6  -3   1  -29.50   21.40
   6  -3   1   -7.70    8.20
   6  -3   1   13.10   21.70
  -7   3  -1  108.59   45.60
  -7   3  -1  120.89   60.29
  -7   3  -1  120.19   49.10
   7  -3   1   98.09   36.80
   7  -3   1  170.78   53.89
   7  -3   1   86.09   22.50
   7  -3   1   56.69   43.10
  -8   3  -1  136.39   50.99
  -8   3  -1  103.29   46.40
  -8   3  -1  133.99   76.59
   8  -3   1  -36.30   74.99
   8  -3   1   67.19   47.70
   8  -3   1   75.59   30.10
   8  -3   1  121.49   28.90
   9   2  -1   37.90   81.29
   9   2  -1   17.30   15.90
   9   2  -1  105.89   51.79
  -9  -2   1   16.50   18.50
  -9  -2   1   18.00   26.50
  -9  -2   1   50.59   37.20
   8   2  -1   79.99   58.49
   8   2  -1   92.79   28.10
   8   2  -1  134.39   14.20
   8   2  -1   99.99   45.90
  -8  -2   1  133.89   37.10
  -8  -2   1  101.69   36.30
  -8  -2   1  125.89   51.19
   7   2  -1  394.46   74.69
   7   2  -1  287.67   20.60
   7   2  -1  305.37   67.19
   7   2  -1  251.37   35.20
  -7  -2   1  336.97   51.09
  -7  -2   1  272.47   47.20
  -7  -2   1  249.68   29.20
  -7  -2   1  227.28   56.29
   6   2  -1   30.80   19.30
   6   2  -1   34.40   12.00
   6   2  -1   28.10   20.10
  -6  -2   1   25.60   21.10
  -6  -2   1    0.10   11.00
  -6  -2   1   10.10    6.70
   5   2  -1  240.28   37.10
   5   2  -1  226.38   14.00
   5   2  -1  240.58   27.00
   5   2  -1  233.18   54.99
  -5  -2   1  262.77   17.80
  -5  -2   1  243.18   35.50
  -5  -2   1  201.58   44.40
  -5  -2   1  219.88   34.10
   4   2  -1    7.20    8.90
   4   2  -1    5.40    1.80
   4   2  -1    2.20    5.60
   4   2  -1    0.40    4.80
   4   2  -1    4.60    5.20
  -4  -2   1    9.20    8.70
  -4  -2   1   -3.80    4.80
  -4  -2   1   -3.80    7.70
  -4  -2   1   -3.40    2.90
   3   2  -1  123.99   28.00
   3   2  -1  233.38   48.80
   3   2  -1  149.09    8.90
   3   2  -1  115.89   15.40
   3   2  -1  165.18   23.80
   3   2  -1  145.49   12.30
   3   2  -1  144.29   21.70
   3   2  -1  113.39   18.20
  -3  -2   1  138.69   19.20
  -3  -2   1  138.29   10.90
  -3  -2   1  158.38   20.80
  -3  -2   1  137.29   19.80
  -3  -2   1  139.89   24.50
  -3  -2   1  127.09   11.40
  -3  -2   1  120.49   21.50
   2   2  -1  105.89   13.10
   2   2  -1   76.79   15.80
   2   2  -1  110.09   14.30
   2   2  -1   79.09    8.50
   2   2  -1   90.09    8.40
   2   2  -1   97.69    8.60
   2   2  -1   94.89   19.00
   2   2  -1   81.39   19.10
   2   2  -1   83.49   15.70
  -2  -2   1   88.99    9.00
  -2  -2   1   81.79   14.30
  -2  -2   1   61.79   15.50
  -2  -2   1   88.89   15.40
  -2  -2   1   86.49   10.00
  -2  -2   1  102.89   13.80
  -2  -2   1   89.99   18.10
   1   2  -1  396.16   22.00
   1   2  -1  351.06   28.00
   1   2  -1  385.26   19.50
   1   2  -1  391.16   29.40
   1   2  -1  390.56   24.10
   1   2  -1  386.16   26.10
   1   2  -1  350.56   28.30
   1   2  -1  401.56   29.90
   1   2  -1  366.56   26.10
   1   2  -1  363.76   27.50
  -1  -2   1  370.06   28.10
  -1  -2   1  397.36   25.00
  -1  -2   1  379.86   27.80
  -1  -2   1  403.96   20.80
  -1  -2   1  377.06   27.90
  -1  -2   1  397.86   31.20
  -1  -2   1  369.46   30.80
   0   2  -1 1984.40   82.59
   0   2  -1 1957.10   64.69
   0   2  -1 2007.20   69.39
   0   2  -1 1935.61   75.29
   0   2  -1 2031.80   88.89
   0   2  -1 1906.11   75.09
   0   2  -1 1914.11   76.49
   0  -2   1 2084.69   67.59
   0  -2   1 2027.80   77.09
   0  -2   1 1907.91   75.59
   0  -2   1 1898.61   77.49
   0  -2   1 1892.81   65.89
   0  -2   1 1904.51   87.29
  -1   2  -1  835.92   46.10
  -1   2  -1  791.02   34.80
  -1   2  -1  854.81   48.40
  -1   2  -1  852.71   43.60
  -1   2  -1  867.71   62.49
  -1   2  -1  647.94   68.49
   1  -2   1  773.92   45.10
   1  -2   1  776.32   36.50
   1  -2   1  840.52   48.20
   1  -2   1  812.52   46.60
  -2   2  -1  255.47   43.10
  -2   2  -1  235.98   33.80
  -2   2  -1  194.58   22.90
  -2   2  -1  266.77   28.60
  -2   2  -1  232.08   22.70
  -2   2  -1  203.98   20.50
   2  -2   1  161.48   46.00
   2  -2   1  218.48   29.40
   2  -2   1  244.08   25.30
   2  -2   1  176.38   46.10
   2  -2   1  228.98   19.00
   2  -2   1  252.07   25.70
  -3   2  -1  147.99   13.70
  -3   2  -1  166.08   47.70
  -3   2  -1  152.08   23.30
  -3   2  -1  205.78   42.90
  -3   2  -1  142.79   38.00
  -3   2  -1  149.59   14.20
  -3   2  -1  140.49   21.50
   3  -2   1  141.89   20.70
   3  -2   1   99.29   36.90
   3  -2   1  116.29   23.10
   3  -2   1  220.88   44.50
   3  -2   1  196.48   21.60
   3  -2   1  159.38   21.50
  -4   2  -1   42.90   17.60
  -4   2  -1   -4.40   15.40
  -4   2  -1   35.50    6.50
  -4   2  -1   13.60   22.30
   4  -2   1   -0.70    9.20
   4  -2   1   38.50   13.10
   4  -2   1   26.90    9.80
   4  -2   1   20.30   12.30
   4  -2   1   12.40    7.40
  -5   2  -1   19.20    6.70
  -5   2  -1   45.70   26.10
  -5   2  -1    4.80   12.40
  -5   2  -1   20.50   30.10
   5  -2   1   -0.50   17.60
   5  -2   1   21.20   12.90
   5  -2   1    6.10   11.40
   5  -2   1    5.60   12.50
   5  -2   1   11.50    6.20
  -6   2  -1   93.29   33.00
  -6   2  -1   97.39   44.70
  -6   2  -1   71.69   35.00
   6  -2   1   19.20   16.10
   6  -2   1   88.99   29.60
   6  -2   1   68.09   24.00
   6  -2   1   54.79   30.50
   6  -2   1   49.99   18.20
  -7   2  -1   63.69   35.00
  -7   2  -1    6.20   37.20
  -7   2  -1   69.99   34.50
   7  -2   1   21.00   17.80
   7  -2   1   32.90   17.30
   7  -2   1   88.39   37.80
   7  -2   1   21.50   32.00
  -8   2  -1  163.78   65.39
  -8   2  -1   90.59   42.30
  -8   2  -1  141.69   53.89
   8  -2   1  104.89   38.00
   8  -2   1  109.89   28.20
   8  -2   1   62.59   50.39
   8  -2   1   39.70   48.20
   9   1  -1    0.70   40.00
   9   1  -1   56.29   20.00
   9   1  -1    6.80   36.20
  -9  -1   1   48.50   30.60
  -9  -1   1   -9.90   30.80
   8   1  -1   42.50   24.50
   8   1  -1   68.19   14.60
   8   1  -1   14.40   48.80
  -8  -1   1   51.49   13.40
  -8  -1   1   37.50   20.80
  -8  -1   1   70.19   35.10
  -8  -1   1   56.09   29.30
   7   1  -1  242.78   61.89
   7   1  -1  163.68   54.29
   7   1  -1  203.98   17.50
   7   1  -1  136.09   30.90
  -7  -1   1  238.48   59.89
  -7  -1   1  215.58   30.70
  -7  -1   1  146.29   19.40
  -7  -1   1  206.88   21.10
  -7  -1   1  211.18   38.30
  -7  -1   1  175.48   48.70
   6   1  -1  366.36   38.50
   6   1  -1  296.07   21.80
   6   1  -1  361.46   64.69
   6   1  -1  280.67   61.69
   6   1  -1  337.97   38.70
  -6  -1   1  403.66   59.89
  -6  -1   1  389.06   27.70
  -6  -1   1  307.97   29.00
  -6  -1   1  350.36   22.10
  -6  -1   1  364.36   54.99
  -6  -1   1  284.07   44.00
   5   1  -1   79.19   19.90
   5   1  -1   75.99   29.90
   5   1  -1   76.59   19.00
   5   1  -1   84.89    9.30
   5   1  -1   91.69   32.70
  -5  -1   1   65.59   27.20
  -5  -1   1   69.09   20.80
  -5  -1   1   93.19   30.70
  -5  -1   1   90.99    9.20
  -5  -1   1   97.69   16.60
   4   1  -1   15.30    4.40
   4   1  -1   21.60    9.80
   4   1  -1   32.50   14.80
   4   1  -1   13.50   13.50
   4   1  -1    7.00    5.70
  -4  -1   1   25.10    7.80
  -4  -1   1   18.10   13.20
  -4  -1   1   18.70   13.60
  -4  -1   1   29.10   11.20
   3   1  -1   81.79   20.60
   3   1  -1   87.69   12.70
   3   1  -1   90.19   22.50
   3   1  -1   90.19   12.30
   3   1  -1   82.39    6.00
   3   1  -1   89.69   21.40
   3   1  -1  118.49   32.00
   3   1  -1  108.79   26.50
  -3  -1   1   94.99    9.80
  -3  -1   1   87.99   20.00
  -3  -1   1   82.89   15.80
  -3  -1   1  107.49   14.10
  -3  -1   1   96.19    7.20
  -3  -1   1   70.39   17.10
  -3  -1   1   89.79   23.00
   2   1  -1  546.05   25.70
   2   1  -1  537.85   38.20
   2   1  -1  525.65   17.10
   2   1  -1  608.04   52.69
   2   1  -1  544.25   28.60
   2   1  -1  562.74   40.90
   2   1  -1  510.85   38.00
   2   1  -1  553.74   44.20
  -2  -1   1  573.34   38.70
  -2  -1   1  563.24   36.40
  -2  -1   1  521.35   30.20
  -2  -1   1  569.54   20.00
  -2  -1   1  551.84   23.20
  -2  -1   1  521.25   35.10
  -2  -1   1  589.24   43.20
   1   1  -1 2596.34   93.19
   1   1  -1 2647.54   73.79
   1   1  -1 2666.93   81.39
   1   1  -1 2518.65   91.29
   1   1  -1 2675.63   88.79
   1   1  -1 3039.40  115.99
   1   1  -1 2534.75   87.39
  -1  -1   1 2508.25   86.79
  -1  -1   1 2557.04   93.59
  -1  -1   1 2612.94   83.19
  -1  -1   1 2688.73   90.59
  -1  -1   1 2620.34   91.59
  -1  -1   1 2580.04   79.79
  -1  -1   1 2702.83   73.29
   0   1  -1    0.40    1.20
   0   1  -1   -0.40    1.80
   0   1  -1    2.20    4.00
   0   1  -1    3.50    4.90
   0   1  -1    0.00    1.90
   0   1  -1    1.00    1.90
   0  -1   1    4.40    3.80
   0  -1   1    3.40    1.30
   0  -1   1    5.20    2.50
   0  -1   1    3.70    3.50
   0  -1   1    0.80    1.60
   0  -1   1    7.70    4.40
   0  -1   1    6.70    6.20
   0  -1   1    4.20    2.70
  -1   1  -1 2969.00   96.39
  -1   1  -1 3150.58  103.29
  -1   1  -1 3228.98   91.19
  -1   1  -1 2479.05  138.69
  -1   1  -1 3297.27  103.69
   1  -1   1 3124.99  102.89
   1  -1   1 3254.97  102.39
   1  -1   1 3177.38   92.09
   1  -1   1 3154.98   99.89
  -2   1  -1 2010.30   77.59
  -2   1  -1 1910.41   94.29
  -2   1  -1 2041.30  121.09
  -2   1  -1 2024.70   70.69
  -2   1  -1 2027.00   77.69
  -2   1  -1 2011.60   63.69
  -2   1  -1 2045.10   73.89
   2  -1   1 1923.81   76.09
   2  -1   1 1746.73   83.49
   2  -1   1 1800.02   76.69
   2  -1   1 1857.21   86.49
   2  -1   1 1673.63  117.49
   2  -1   1 1917.91   65.29
  -3   1  -1  306.47   48.00
  -3   1  -1  329.97   26.20
  -3   1  -1  373.86   25.50
  -3   1  -1  363.66   30.00
  -3   1  -1  312.47   37.80
  -3   1  -1  357.16   29.30
  -3   1  -1  364.76   50.39
  -3   1  -1  322.57   27.20
   3  -1   1  304.37   31.10
   3  -1   1  328.17   51.49
   3  -1   1  280.97   35.40
   3  -1   1  283.27   47.20
   3  -1   1  340.17   22.10
   3  -1   1  338.57   38.00
  -4   1  -1  174.38   45.40
  -4   1  -1  147.19   37.80
  -4   1  -1  198.18   15.80
  -4   1  -1  155.88   22.70
  -4   1  -1  186.08   23.00
  -4   1  -1  180.08   47.70
  -4   1  -1  193.98   30.60
   4  -1   1  201.98   27.20
   4  -1   1  156.98   38.30
   4  -1   1  154.78   22.70
  -5   1  -1   48.10   25.20
  -5   1  -1   16.00   10.70
  -5   1  -1   29.90   11.40
  -5   1  -1   32.00   27.50
  -5   1  -1   12.80   12.40
   5  -1   1   25.60   14.10
   5  -1   1  -15.10   13.10
   5  -1   1   28.40    9.70
   5  -1   1   21.50   15.60
   5  -1   1   19.40   13.20
  -6   1  -1   11.80   19.00
  -6   1  -1    7.40    9.30
  -6   1  -1   18.30   27.40
  -6   1  -1    1.60   14.90
   6  -1   1   16.00    7.50
   6  -1   1    2.70   16.00
   6  -1   1   24.50   13.20
   6  -1   1    1.00    6.50
  -7   1  -1   25.00   21.20
  -7   1  -1   37.40   35.20
  -7   1  -1   -1.40   20.30
  -7   1  -1   44.20   13.40
   7  -1   1   33.90   12.80
   7  -1   1    3.10   13.10
   7  -1   1    7.70   28.30
   7  -1   1   20.00   23.10
  -8   1  -1  -11.50   13.10
  -8   1  -1  -35.60   22.70
  -8   1  -1  -42.20   31.90
  -8   1  -1   -8.00   27.80
   8  -1   1   62.49   41.50
   8  -1   1   14.60   18.30
   8  -1   1   10.90   11.90
   8  -1   1   -4.90   42.80
  -9   1  -1   72.29   57.09
  -9   1  -1   91.09   45.20
   9  -1   1   19.40   49.80
   9  -1   1  -13.60   52.39
   9  -1   1   66.49   29.30
   9   0  -1    4.80   16.30
   9   0  -1  -64.39   32.60
   9   0  -1  -23.40   56.69
  -9   0   1   28.30   28.80
  -9   0   1   47.80   37.20
   8   0  -1    1.10   39.80
   8   0  -1    6.40   16.70
   8   0  -1   29.80   11.70
   8   0  -1   41.00   33.30
  -8   0   1   23.00   19.20
  -8   0   1    0.10   28.40
  -8   0   1   20.50   20.60
   7   0  -1  179.28   39.60
   7   0  -1  216.18   71.19
   7   0  -1  129.99   49.60
   7   0  -1  188.38   19.40
  -7   0   1  175.58   40.10
  -7   0   1  125.19   44.80
  -7   0   1  197.18   33.70
  -7   0   1  128.89   39.30
   6   0  -1  355.56   47.50
   6   0  -1  417.36   69.19
   6   0  -1  385.76   27.90
   6   0  -1  339.97   76.69
   6   0  -1  389.96   43.40
  -6   0   1  397.56   59.19
  -6   0   1  441.76   52.99
  -6   0   1  453.75   25.80
  -6   0   1  393.86   46.70
  -6   0   1  372.36   62.89
  -6   0   1  341.17   35.60
   5   0  -1  171.88   25.10
   5   0  -1  161.78   44.40
   5   0  -1  121.79   41.90
   5   0  -1  149.79   14.70
   5   0  -1  135.39   30.50
  -5   0   1  168.68   21.10
  -5   0   1  130.79   37.70
  -5   0   1  165.08   27.00
  -5   0   1  161.38   42.10
  -5   0   1  155.18   13.00
  -5   0   1  197.78   23.20
   4   0  -1  234.48   46.50
   4   0  -1  217.08   29.40
   4   0  -1  200.38   28.60
   4   0  -1  189.48   14.70
   4   0  -1  207.38   24.30
   4   0  -1  233.98   70.89
  -4   0   1  230.08   34.10
  -4   0   1  208.68   22.10
  -4   0   1  198.68   34.00
  -4   0   1  198.78   12.90
  -4   0   1  244.68   40.70
   3   0  -1 1095.19   77.39
   3   0  -1 1221.08   81.69
   3   0  -1 1169.88   42.60
   3   0  -1 1343.67   91.99
   3   0  -1 1167.98   83.29
   3   0  -1 1123.79   65.69
   3   0  -1 1223.58   58.59
   3   0  -1 1181.08   62.49
  -3   0   1 1232.68   70.09
  -3   0   1 1324.67   79.29
  -3   0   1 1279.37   40.50
  -3   0   1 1294.97   65.99
  -3   0   1 1261.97   75.79
  -3   0   1 1216.68   56.79
  -3   0   1 1205.18   57.59
   2   0  -1 3554.44  124.19
   2   0  -1 3434.06  118.09
   2   0  -1 3922.51  156.78
   2   0  -1 3506.75   99.59
   2   0  -1 3428.26  138.49
   2   0  -1 3493.25  134.39
   2   0  -1 3588.64  114.19
  -2   0   1 3345.37  112.89
  -2   0   1 3613.74  114.19
  -2   0   1 3575.74  131.69
  -2   0   1 3806.62  133.89
  -2   0   1 3653.33  122.99
  -2   0   1 3591.64   97.69
   1   0  -1 6236.08  164.38
   1   0  -1 6366.36  185.78
   1   0  -1 6282.87  181.38
   1   0  -1 6239.68  194.98
   1   0  -1 6294.47  172.98
   1   0  -1 6527.85  212.28
   1   0  -1 6420.16  188.68
  -1   0   1 6231.18  174.28
  -1   0   1 6212.08  180.98
  -1   0   1 5957.00  172.38
  -1   0   1 6243.68  185.48
  -1   0   1 6438.96  185.98
  -1   0   1 5966.50  188.78
   0   0   1 3295.07   87.69
  -1   0  -1 2939.31  124.09
  -1   0  -1 3571.74  100.49
  -1   0  -1 3670.13  122.59
  -1   0  -1 3530.45   94.69
  -1   0  -1 3305.87  140.99
   1   0   1 3248.97   98.39
   1   0   1 3565.84  101.19
   1   0   1 3529.05   94.79
   1   0   1 3439.66   98.19
   1   0   1 3562.14   96.99
   1   0   1 3330.07  122.39
  -2   0  -1 1507.05   84.59
  -2   0  -1 1416.06   65.39
  -2   0  -1 1434.86   56.39
  -2   0  -1 1473.15   66.19
  -2   0  -1 1461.55   54.09
  -2   0  -1 1594.14   93.29
  -2   0  -1 1535.45   47.40
  -2   0  -1 1472.15   56.39
   2   0   1 1319.27   67.49
   2   0   1 1299.37   89.09
   2   0   1 1406.86   55.69
   2   0   1 1447.56   53.79
   2   0   1 1480.95   47.60
   2   0   1 1478.05   59.49
  -3   0  -1  143.19   15.70
  -3   0  -1  194.18   33.30
  -3   0  -1  142.19   32.50
  -3   0  -1  176.38   18.30
  -3   0  -1  163.18   11.80
  -3   0  -1  170.98   18.80
  -3   0  -1  140.39   18.70
  -3   0  -1  167.38   20.70
   3   0   1  129.99   35.00
   3   0   1  166.68   17.70
   3   0   1  147.99   20.50
   3   0   1  167.48   12.70
   3   0   1  162.28   28.20
   3   0   1  154.38   23.00
  -4   0  -1  210.28   24.70
  -4   0  -1  237.08   26.70
  -4   0  -1  188.48   25.30
  -4   0  -1  209.88   15.20
  -4   0  -1  183.38   20.00
  -4   0  -1  261.87   42.20
  -4   0  -1  233.38   42.40
   4   0   1  210.98   16.50
   4   0   1  205.18   24.00
   4   0   1  199.48   35.00
   4   0   1  253.77   57.29
  -5   0  -1  830.72   49.99
  -5   0  -1  821.72   39.60
  -5   0  -1  975.80   92.59
  -5   0  -1  919.11   64.89
  -5   0  -1  947.31   60.39
  -5   0  -1 1002.40   91.69
   5   0   1  935.81   78.99
   5   0   1  738.53   66.99
   5   0   1  873.21   59.29
   5   0   1  880.41   42.70
  -6   0  -1   72.99   32.80
  -6   0  -1   86.29   21.40
  -6   0  -1   57.69   17.60
  -6   0  -1   59.49   35.30
  -6   0  -1   54.09   20.30
   6   0   1   62.59   30.20
   6   0   1   63.29   14.60
   6   0   1   41.30   29.50
   6   0   1   50.39   17.50
  -7   0  -1  522.65   55.49
  -7   0  -1  452.95   53.89
  -7   0  -1  618.34   89.19
  -7   0  -1  538.75   42.20
  -7   0  -1  519.05   74.79
   7   0   1  498.35   76.09
   7   0   1  482.65   69.99
   7   0   1  493.35   36.40
   7   0   1  449.76   51.79
  -8   0  -1   13.70   43.50
  -8   0  -1   54.69   35.20
  -8   0  -1   14.80   17.70
  -8   0  -1    7.70   20.70
   8   0   1   63.09   43.60
   8   0   1   11.30   13.30
   8   0   1   13.60   18.80
   8   0   1   27.20   31.30
  -9   0  -1   -3.80   40.50
  -9   0  -1   28.40   20.80
  -9   0  -1   -3.60   23.20
  -9   0  -1   46.90   40.80
   9   0   1   58.19   53.59
   9   0   1   42.90   48.90
   9   0   1   81.49   26.60
   9   0   1   56.79   16.50
   8  -1  -1  -29.80   34.90
   8  -1  -1  -10.50   15.30
   8  -1  -1   30.40   12.20
  -8   1   1  -17.00   29.00
  -8   1   1   -5.00   22.30
  -8   1   1    8.90   14.90
   7  -1  -1   29.00   37.80
   7  -1  -1   45.80   11.80
   7  -1  -1   36.40   17.50
   7  -1  -1   82.99   27.50
  -7   1   1    6.40   30.30
  -7   1   1   34.20   22.40
  -7   1   1    8.50   16.80
   6  -1  -1   90.09   17.20
   6  -1  -1   41.40   16.30
   6  -1  -1   43.00   34.70
   6  -1  -1   90.29   42.00
  -6   1   1   91.69   40.30
  -6   1   1   87.59   27.20
  -6   1   1   74.79   30.40
   5  -1  -1   14.70   11.10
   5  -1  -1   23.00   19.70
   5  -1  -1    9.10    4.60
  -5   1   1   28.60   26.30
  -5   1   1    8.50   13.90
  -5   1   1    4.20    5.10
  -5   1   1    5.70   12.40
   4  -1  -1  -12.50    8.50
   4  -1  -1   -1.50    3.60
   4  -1  -1   11.20    8.70
   4  -1  -1   18.50    9.60
   4  -1  -1  -12.00    8.50
   4  -1  -1   11.80    6.60
  -4   1   1   11.70    4.90
  -4   1   1    2.80   15.40
  -4   1   1    0.80    8.10
  -4   1   1   12.40   12.90
  -4   1   1    5.60    3.50
   3  -1  -1  152.68   20.50
   3  -1  -1  188.98   25.30
   3  -1  -1  161.18   43.80
   3  -1  -1  142.19   37.70
   3  -1  -1  174.38   22.20
   3  -1  -1  192.08   31.70
   3  -1  -1  169.98   14.50
  -3   1   1  203.48   34.00
  -3   1   1  229.48   30.70
  -3   1   1  186.38   20.80
  -3   1   1  222.48   27.60
  -3   1   1  197.98   13.70
  -3   1   1  196.18   25.00
   2  -1  -1   19.80    5.20
   2  -1  -1   44.00   11.00
   2  -1  -1   25.50   13.50
   2  -1  -1   28.40    8.10
   2  -1  -1   33.50   13.20
   2  -1  -1   38.70   15.40
   2  -1  -1   38.40   11.00
   2  -1  -1   40.20   14.40
  -2   1   1   44.80   13.20
  -2   1   1   32.40   11.60
  -2   1   1   37.70   14.20
  -2   1   1   33.00    6.20
  -2   1   1   43.30   12.20
  -2   1   1   35.20   15.20
  -2   1   1   41.10   10.00
   1  -1  -1   59.39    7.00
   1  -1  -1   69.99   10.20
   1  -1  -1   72.69   17.90
   1  -1  -1   56.99   16.70
   1  -1  -1   90.49   13.40
   1  -1  -1   52.19   14.80
   1  -1  -1   97.49   14.20
  -1   1   1   70.19   17.10
  -1   1   1   71.29    9.40
  -1   1   1   99.89   13.80
  -1   1   1  111.59   17.40
  -1   1   1   87.09   11.60
  -1   1   1   70.49    7.20
  -1   1   1  109.29   23.30
   0  -1  -1   58.09    8.50
   0  -1  -1   64.49   17.50
  -1  -1  -1 1723.93   52.59
  -1  -1  -1 1745.83   66.59
  -1  -1  -1 1818.02   80.89
  -1  -1  -1 1727.13   54.09
  -1  -1  -1 1803.22   73.19
   1   1   1 1698.93   66.49
   1   1   1 1692.43   59.99
   1   1   1 1530.65   50.49
   1   1   1 1733.53   53.29
  -2  -1  -1  199.98   18.70
  -2  -1  -1  228.28   27.50
  -2  -1  -1  183.18   23.70
  -2  -1  -1  183.98   12.10
  -2  -1  -1  226.18   22.10
  -2  -1  -1  195.78   18.30
  -2  -1  -1  182.08   16.70
   2   1   1  182.78   22.10
   2   1   1  167.88   18.40
   2   1   1  172.38   15.30
   2   1   1  198.88   28.90
   2   1   1  177.48   16.60
   2   1   1  160.58   22.90
   2   1   1  188.58   11.50
  -3  -1  -1  146.09   21.50
  -3  -1  -1  173.78   19.20
  -3  -1  -1  166.28   25.50
  -3  -1  -1  164.48   12.20
  -3  -1  -1  147.99   11.20
  -3  -1  -1  153.98   23.90
  -3  -1  -1  183.58   30.50
   3   1   1  169.68   17.40
   3   1   1  164.18   19.10
   3   1   1  160.88   11.40
   3   1   1  166.88   20.20
   3   1   1  213.98   28.90
   3   1   1  177.38   26.00
   3   1   1  218.38   41.20
  -4  -1  -1    3.20    4.10
  -4  -1  -1   13.50    9.60
  -4  -1  -1   17.70    7.10
  -4  -1  -1   16.80    4.80
  -4  -1  -1   10.10    5.30
  -4  -1  -1    0.60    9.60
  -4  -1  -1   14.20    8.40
   4   1   1    0.30    9.40
   4   1   1   12.00   12.20
   4   1   1   11.40    6.30
   4   1   1   -4.20    6.40
   4   1   1    9.10    4.20
   4   1   1   -0.70    3.80
  -5  -1  -1   32.20    7.70
  -5  -1  -1   19.60   18.90
  -5  -1  -1   35.20   19.60
  -5  -1  -1   36.50   10.60
  -5  -1  -1   27.60    7.90
  -5  -1  -1   28.00   10.90
   5   1   1   31.50   11.90
   5   1   1   35.50   15.70
   5   1   1   17.90    5.60
  -6  -1  -1  689.53   64.29
  -6  -1  -1  631.64   78.89
  -6  -1  -1  637.24   37.20
  -6  -1  -1  737.93   42.80
  -6  -1  -1  717.33   76.79
   6   1   1  719.73   77.59
   6   1   1  639.64   52.79
   6   1   1  600.04   35.00
  -7  -1  -1 1399.16  126.39
  -7  -1  -1 1305.87   62.49
  -7  -1  -1 1457.95   76.79
  -7  -1  -1 1366.86   99.69
  -7  -1  -1 1615.74  126.99
   7   1   1 1522.45  137.39
   7   1   1 1341.47  117.09
   7   1   1 1401.56   90.29
   7   1   1 1310.37   61.69
  -8  -1  -1   93.39   46.00
  -8  -1  -1  119.29   44.40
  -8  -1  -1   81.59   29.00
   8   1   1  106.29   25.10
   8   1   1   95.29   40.80
   8   1   1  111.19   50.09
   8   1   1   86.79   17.20
  -9  -1  -1   22.30   32.90
  -9  -1  -1   62.79   21.40
  -9  -1  -1   31.90   26.80
   9   1   1   13.80   17.80
   9   1   1    1.40   38.20
   9   1   1   22.60   13.60
   9   1   1   46.30   37.20
   8  -2  -1  103.59   22.30
   8  -2  -1   37.20   18.40
   8  -2  -1    3.00   31.40
   8  -2  -1   68.49   66.59
  -8   2   1    4.20   44.00
  -8   2   1   70.29   33.00
  -8   2   1    4.20   24.20
   7  -2  -1   34.00   32.70
   7  -2  -1   24.00   39.70
   7  -2  -1   37.90   17.80
   7  -2  -1   16.10   10.90
  -7   2   1   25.90   46.10
  -7   2   1   43.50   25.90
  -7   2   1   30.00   29.30
   6  -2  -1   47.80   34.70
   6  -2  -1   64.69   37.10
   6  -2  -1   62.29   18.00
   6  -2  -1   52.79   16.00
  -6   2   1   58.79   29.80
  -6   2   1   90.19   41.70
  -6   2   1   87.69   33.80
   5  -2  -1  608.94   77.79
   5  -2  -1  622.74   42.00
   5  -2  -1  738.83   90.49
   5  -2  -1  648.84   60.69
   5  -2  -1  635.64   54.89
  -5   2   1  715.83   65.99
  -5   2   1  712.83   72.89
  -5   2   1  858.11   95.69
   4  -2  -1 1010.60   87.39
   4  -2  -1 1159.38   57.29
   4  -2  -1 1108.69  104.29
   4  -2  -1 1129.89   75.29
   4  -2  -1 1074.39   97.49
  -4   2   1 1240.98   50.39
  -4   2   1 1267.67   83.89
  -4   2   1 1194.98   86.39
  -4   2   1 1334.67  108.99
   3  -2  -1  863.81   82.49
   3  -2  -1  974.70   85.09
   3  -2  -1  843.22   78.09
   3  -2  -1 1125.09   50.29
   3  -2  -1 1034.30   65.19
   3  -2  -1 1014.90   54.09
   3  -2  -1  954.40   73.29
  -3   2   1 1112.99   72.59
  -3   2   1 1049.79   44.50
  -3   2   1 1114.79   91.39
   2  -2  -1 2390.36  130.69
   2  -2  -1 2476.25  123.69
   2  -2  -1 2589.44  106.69
   2  -2  -1 2554.04   88.09
   2  -2  -1 2056.19  156.88
   2  -2  -1 2168.58  133.69
   2  -2  -1 2655.73   92.29
  -2   2   1 2647.34  115.99
  -2   2   1 2547.95   99.69
  -2   2   1 2738.93  132.89
  -2   2   1 2585.44  107.49
  -2   2   1 2616.34   85.49
  -2   2   1 2646.14  134.89
   1  -2  -1 1499.65   58.49
   1  -2  -1 1376.96   89.19
   1  -2  -1 1567.94   80.39
   1  -2  -1 1497.95   74.29
   1  -2  -1 1543.75   72.29
   1  -2  -1 1573.84   88.79
  -1   2   1 1514.45   57.09
  -1   2   1 1522.05   76.79
  -1   2   1 1594.74   63.59
  -1   2   1 1754.42   93.19
  -1   2   1 1622.94   89.49
  -1   2   1 1586.04   68.29
   0  -2  -1  540.95   45.60
   0  -2  -1  556.44   36.60
   0  -2  -1  533.55   27.80
   0  -2  -1  525.05   36.90
   0  -2  -1  589.24   44.00
   0  -2  -1  487.35   41.10
   0  -2  -1  561.44   30.00
   0   2   1  582.94   28.70
   0   2   1  569.04   35.60
   0   2   1  571.44   40.60
   0   2   1  449.56   45.30
   0   2   1  557.64   43.30
  -1  -2  -1 9247.47  276.27
  -1  -2  -1 9422.56  259.37
  -1  -2  -1 9387.06  293.37
  -1  -2  -1 9429.76  285.27
  -1  -2  -1 9239.88  259.67
  -1  -2  -1 9497.45  269.17
   1   2   1 9396.96  299.17
   1   2   1 9610.64  266.17
   1   2   1 9389.56  285.17
   1   2   1 9657.73  276.07
   1   2   1 9100.79  258.77
   1   2   1 9198.08  275.87
  -2  -2  -1  535.45   39.60
  -2  -2  -1  524.05   38.80
  -2  -2  -1  510.15   26.60
  -2  -2  -1  545.95   35.80
  -2  -2  -1  532.65   44.30
  -2  -2  -1  557.54   24.80
  -2  -2  -1  553.14   25.80
   2   2   1  531.45   36.20
   2   2   1  506.15   21.80
   2   2   1  502.75   45.50
   2   2   1  486.95   25.20
   2   2   1  537.25   41.70
   2   2   1  528.25   34.00
   2   2   1  521.05   27.60
   2   2   1  487.35   37.90
  -3  -2  -1   13.40    8.60
  -3  -2  -1   26.20    9.80
  -3  -2  -1   40.10   15.60
  -3  -2  -1   32.70   10.70
  -3  -2  -1   33.90    7.30
  -3  -2  -1   12.20    9.00
  -3  -2  -1   19.50    8.00
   3   2   1   12.20    6.40
   3   2   1   10.70   19.50
   3   2   1   27.70    5.70
   3   2   1   26.80    9.80
   3   2   1   24.00   11.10
   3   2   1   37.60   17.10
   3   2   1   30.10   11.10
  -4  -2  -1   61.29   21.10
  -4  -2  -1   76.29   17.60
  -4  -2  -1   78.89   10.20
  -4  -2  -1  105.99   24.00
  -4  -2  -1   69.29   19.80
   4   2   1   91.59   27.90
   4   2   1  103.79   19.60
   4   2   1   69.79   18.00
   4   2   1   81.09   25.50
   4   2   1   96.99   21.00
   4   2   1   62.29    8.10
  -5  -2  -1    4.40   13.70
  -5  -2  -1    7.10    8.90
  -5  -2  -1   -0.50    3.80
  -5  -2  -1    7.10   11.10
   5   2   1   -2.70    6.40
   5   2   1   -4.70    4.40
  -6  -2  -1   13.20   15.50
  -6  -2  -1    7.60    8.10
  -6  -2  -1  -10.60   15.00
  -6  -2  -1   13.90    7.30
   6   2   1    2.90    7.90
   6   2   1    6.70    3.50
  -7  -2  -1   25.00   19.20
  -7  -2  -1   23.50   21.40
  -7  -2  -1   17.00   17.00
   7   2   1   19.90    8.20
   7   2   1   -1.30    8.60
   7   2   1   26.70   20.00
  -8  -2  -1   18.80   23.80
  -8  -2  -1   27.40   24.10
   8   2   1    7.40    7.50
   8   2   1   80.19   25.90
   8   2   1   24.60   16.50
   8   2   1   11.90   23.20
  -9  -2  -1   29.00   29.40
  -9  -2  -1   -4.30   19.30
  -9  -2  -1   -3.00   27.60
   9   2   1  -16.90   11.00
   9   2   1   -7.10   30.10
   9   2   1    4.50   34.70
   8  -3  -1  -36.00   44.30
   8  -3  -1   70.99   29.20
   8  -3  -1   62.09   22.30
   8  -3  -1  -91.99   70.69
  -8   3   1    1.60   37.60
  -8   3   1   49.50   34.10
  -8   3   1  -53.29   33.90
   7  -3  -1   69.39   30.90
   7  -3  -1   32.50   54.49
   7  -3  -1   65.99   56.19
   7  -3  -1  109.59   23.90
  -7   3   1  104.79   41.30
  -7   3   1  111.79   44.00
  -7   3   1  226.98   79.89
   6  -3  -1   72.99   19.80
   6  -3  -1   48.20   31.20
   6  -3  -1    9.60   44.80
   6  -3  -1   96.89   33.70
  -6   3   1   66.59   28.10
  -6   3   1   54.59   42.00
  -6   3   1  137.09   42.10
   5  -3  -1    9.50   20.40
   5  -3  -1   30.90   21.40
   5  -3  -1   -0.90    9.70
   5  -3  -1    5.10   11.90
   5  -3  -1   11.80    8.80
  -5   3   1   -3.30   25.20
  -5   3   1   10.20   11.90
  -5   3   1   10.30   24.40
   4  -3  -1  390.56   33.80
   4  -3  -1  291.27   51.79
   4  -3  -1  293.07   31.80
   4  -3  -1  423.56   81.89
   4  -3  -1  413.76   48.30
  -4   3   1  452.95   53.39
  -4   3   1  370.16   49.50
  -4   3   1  508.95   70.59
   3  -3  -1 1142.59   58.59
   3  -3  -1 1124.99   98.39
   3  -3  -1 1172.88   78.29
   3  -3  -1  936.41   92.99
   3  -3  -1 1100.29   54.49
  -3   3   1 1233.28   86.69
  -3   3   1 1288.47   80.49
  -3   3   1 1325.57  110.29
   2  -3  -1 1740.83   93.89
   2  -3  -1 1755.62   74.59
   2  -3  -1 1652.33  165.38
   2  -3  -1 1798.32  108.69
   2  -3  -1 1801.42   65.49
  -2   3   1 1810.32   70.89
  -2   3   1 1712.73  100.99
  -2   3   1 1986.20   89.89
  -2   3   1 1614.34  109.29
  -2   3   1 1824.22   88.59
  -2   3   1 1843.62  121.59
   1  -3  -1 1658.53  100.79
   1  -3  -1 1519.55   88.29
   1  -3  -1 1607.34   95.09
   1  -3  -1 1642.34   85.29
   1  -3  -1 1374.76  120.79
   1  -3  -1 1672.43   68.79
  -1   3   1 1822.82   73.69
  -1   3   1 1603.04  103.49
  -1   3   1 1751.12  104.49
  -1   3   1 1780.52   93.99
  -1   3   1 1472.95   75.29
  -1   3   1 1684.33   80.39
   0  -3  -1   29.50   12.00
   0  -3  -1   29.90   12.80
   0  -3  -1   21.70    8.00
   0  -3  -1   29.40   13.00
   0  -3  -1   26.90   12.40
   0   3   1   26.90   11.80
   0   3   1    9.20   14.80
   0   3   1   21.00    8.80
   0   3   1   28.70   12.80
   0   3   1   22.30    7.60
   0   3   1   33.00   13.00
   0   3   1   32.30    8.30
  -1  -3  -1  695.93   49.10
  -1  -3  -1  743.33   34.00
  -1  -3  -1  758.62   40.10
  -1  -3  -1  735.03   54.79
  -1  -3  -1  755.82   54.49
   1   3   1  809.92   42.60
   1   3   1  751.42   35.20
   1   3   1  778.42   39.00
   1   3   1  724.33   48.50
   1   3   1  723.83   59.09
   1   3   1  743.23   55.59
   1   3   1  728.93   38.70
   1   3   1  744.03   47.40
  -2  -3  -1 2660.33   99.49
  -2  -3  -1 2637.94  111.19
  -2  -3  -1 2444.06  114.49
  -2  -3  -1 2470.35   89.09
  -2  -3  -1 2484.65  118.59
  -2  -3  -1 2503.35  108.09
  -2  -3  -1 2526.95   99.19
  -2  -3  -1 2478.85   86.79
   2   3   1 2470.95  108.79
   2   3   1 2443.36  123.49
   2   3   1 2637.44   86.79
   2   3   1 2645.64  104.99
   2   3   1 2503.85  104.19
   2   3   1 2771.42   80.99
   2   3   1 2449.55  114.69
   2   3   1 2597.04   88.89
   2   3   1 2459.95   91.09
  -3  -3  -1 2754.12  115.69
  -3  -3  -1 2707.63  118.39
  -3  -3  -1 2567.14  119.29
  -3  -3  -1 2721.43  132.09
  -3  -3  -1 2869.11   94.59
  -3  -3  -1 2705.43   93.69
   3   3   1 2705.73   98.09
   3   3   1 2670.93  113.39
   3   3   1 2663.33   90.19
   3   3   1 2667.73  108.49
   3   3   1 2588.24  135.39
   3   3   1 2577.34  122.39
   3   3   1 2685.03  120.79
   3   3   1 2695.63  138.59
  -4  -3  -1  802.12   65.69
  -4  -3  -1  788.42   46.90
  -4  -3  -1  813.32   69.29
  -4  -3  -1  796.62   41.00
  -4  -3  -1  843.82   60.19
   4   3   1  751.12   55.79
   4   3   1  802.72   36.00
   4   3   1  751.32   54.69
   4   3   1  755.72   50.29
  -5  -3  -1  836.62   74.39
  -5  -3  -1  792.32   41.90
  -5  -3  -1  752.52   71.59
   5   3   1  689.83   33.60
   5   3   1  712.83   51.09
   5   3   1  721.73   58.69
   5   3   1  743.13   67.29
  -6  -3  -1  460.45   49.00
  -6  -3  -1  384.96   30.00
  -6  -3  -1  463.95   62.09
   6   3   1  402.86   40.30
   6   3   1  441.56   25.30
   6   3   1  460.35   49.99
  -7  -3  -1   57.09   25.20
  -7  -3  -1   49.20   19.00
   7   3   1   42.80    9.10
   7   3   1   48.00   18.20
   7   3   1   36.10   19.90
  -8  -3  -1  361.36   65.39
  -8  -3  -1  361.36   57.09
  -8  -3  -1  440.36   61.39
   8   3   1  264.87   39.60
   8   3   1  237.58   53.89
   8   3   1  312.27   81.59
   8   3   1  291.87   24.60
  -9  -3  -1   77.79   37.90
  -9  -3  -1   19.50   18.30
  -9  -3  -1   37.90   28.40
   9   3   1   61.39   37.90
   9   3   1   36.70   12.40
   9   3   1   49.00   17.00
   9   3   1  -15.00   26.00
 -10  -3  -1   75.69   33.20
 -10  -3  -1   51.49   31.90
  10   3   1  140.09   58.09
  10   3   1  -11.00   38.30
  10   3   1   72.59   23.60
   7  -4  -1  -21.80   14.90
   7  -4  -1   31.10   12.60
   7  -4  -1    3.70   34.10
  -7   4   1  -28.50   27.40
  -7   4   1  -13.40   37.60
  -7   4   1  -12.30   22.10
   6  -4  -1   52.79   19.80
   6  -4  -1  -36.20   24.80
   6  -4  -1   18.60   13.70
   6  -4  -1   -9.80   29.50
   6  -4  -1    2.60   36.70
  -6   4   1   13.60   40.00
  -6   4   1   -4.60   18.00
  -6   4   1   16.50   21.70
   5  -4  -1    4.20   42.30
   5  -4  -1  -18.90    7.30
   5  -4  -1   15.20   14.10
   5  -4  -1   28.10   22.10
  -5   4   1  -16.90   13.80
  -5   4   1  -14.00   28.20
   4  -4  -1   22.70   19.90
   4  -4  -1   -2.40   10.10
   4  -4  -1   51.59   19.40
   4  -4  -1    4.00    7.30
  -4   4   1   13.80   18.40
  -4   4   1   13.80   18.80
  -4   4   1   40.60   17.30
   3  -4  -1   57.99   11.80
   3  -4  -1   57.69   29.70
   3  -4  -1   42.80   20.10
   3  -4  -1   53.39   20.20
   3  -4  -1   53.49   15.80
   3  -4  -1   76.59   30.40
  -3   4   1   51.79   21.00
  -3   4   1   65.19   27.00
  -3   4   1   76.49   38.10
   2  -4  -1    2.70   14.80
   2  -4  -1    3.00    3.30
   2  -4  -1   -0.10    9.30
   2  -4  -1  -10.50   10.90
   2  -4  -1   -9.30    3.50
   2  -4  -1   10.60   15.90
  -2   4   1    9.00   15.00
  -2   4   1   13.30    7.00
  -2   4   1    2.50    7.10
  -2   4   1   -1.30    8.90
   1  -4  -1   16.50   10.40
   1  -4  -1  -11.30    7.40
   1  -4  -1   -8.70    3.20
   1  -4  -1    3.30    7.40
   1  -4  -1  -16.30    8.90
  -1   4   1   16.10   10.10
  -1   4   1   -4.60    8.90
  -1   4   1   -0.80    3.40
  -1   4   1    1.90    5.20
  -1   4   1    8.20    7.00
   0  -4  -1 1174.58   75.69
   0  -4  -1 1124.09   81.09
   0  -4  -1 1137.59   68.49
   0  -4  -1 1256.57   60.19
   0  -4  -1 1206.98   85.29
   0   4   1 1170.68   66.99
   0   4   1 1234.48   63.19
   0   4   1 1141.09   89.29
   0   4   1 1189.48   84.19
   0   4   1 1123.59   86.29
   0   4   1 1280.67   73.69
   0   4   1 1106.29   76.19
   0   4   1 1245.28   47.10
  -1  -4  -1   10.70    5.80
  -1  -4  -1   17.30    5.80
  -1  -4  -1   39.20   13.20
  -1  -4  -1   18.00    6.90
  -1  -4  -1   13.90    9.20
  -1  -4  -1    9.90    9.20
  -1  -4  -1   31.60   15.20
  -1  -4  -1   18.90    6.70
   1   4   1   17.40    6.50
   1   4   1   30.20   13.70
   1   4   1   22.90    8.20
   1   4   1   11.70    7.00
   1   4   1   28.70   15.30
   1   4   1   24.30    9.90
   1   4   1   36.90   14.50
   1   4   1   12.80   10.00
   1   4   1   15.80   10.90
   1   4   1   19.70    6.20
  -2  -4  -1   33.40   15.60
  -2  -4  -1   49.50   15.80
  -2  -4  -1   32.40   13.20
  -2  -4  -1   44.10   12.00
  -2  -4  -1   35.70    9.60
  -2  -4  -1   45.30   12.20
  -2  -4  -1   35.00   14.50
   2   4   1   44.10   12.90
   2   4   1   45.40   10.90
   2   4   1   57.59   19.40
   2   4   1   64.59   18.00
   2   4   1   45.80   12.90
   2   4   1   37.50   10.80
   2   4   1   50.39   18.40
   2   4   1   29.00    8.40
   2   4   1   32.50   10.10
   2   4   1   27.90   12.10
   2   4   1   36.00   12.00
  -3  -4  -1  930.51   59.69
  -3  -4  -1  849.41   54.59
  -3  -4  -1  905.21   69.49
  -3  -4  -1  975.50   75.29
  -3  -4  -1  893.41   64.39
  -3  -4  -1  880.41   49.20
  -3  -4  -1  837.02   46.40
   3   4   1  925.81   66.09
   3   4   1  869.81   69.19
   3   4   1  893.01   43.10
   3   4   1  898.91   64.29
   3   4   1  894.71   46.70
   3   4   1  949.11   43.50
   3   4   1  854.71   45.40
   3   4   1  878.11   59.69
   3   4   1  912.11   77.59
   3   4   1  907.91   63.39
  -4  -4  -1 3251.17  116.69
  -4  -4  -1 3391.46  122.99
  -4  -4  -1 3506.05  156.18
  -4  -4  -1 3278.87  148.69
  -4  -4  -1 3177.38  162.58
   4   4   1 3342.27  136.69
   4   4   1 3256.47  110.89
   4   4   1 3404.56  144.59
   4   4   1 3209.18  125.59
  -5  -4  -1 1379.66   97.49
  -5  -4  -1 1252.07   61.59
  -5  -4  -1 1442.96   73.49
  -5  -4  -1 1328.47  101.49
   5   4   1 1263.37   82.79
   5   4   1 1289.37   83.59
   5   4   1 1383.66   78.69
  -6  -4  -1 1071.59   69.69
  -6  -4  -1 1069.99   94.49
  -6  -4  -1 1082.69   95.09
   6   4   1 1057.19   45.80
   6   4   1 1043.50   80.99
   6   4   1  993.80   67.69
  -7  -4  -1  113.49   40.30
  -7  -4  -1  117.99   31.50
  -7  -4  -1  124.69   39.30
   7   4   1  110.59   33.30
   7   4   1   99.39   12.20
   7   4   1  101.39   25.30
  -8  -4  -1   14.70   16.00
  -8  -4  -1    8.90   18.40
  -8  -4  -1    6.10   16.40
   8   4   1    0.60    7.10
   8   4   1   10.00   13.00
   8   4   1    8.50   18.00
  -9  -4  -1   43.80   32.40
  -9  -4  -1   50.19   27.90
  -9  -4  -1   48.70   25.60
   9   4   1  115.59   31.00
   9   4   1   52.99   14.10
   9   4   1  132.79   43.90
 -10  -4  -1   55.09   35.00
 -10  -4  -1  117.69   42.70
 -10  -4  -1  118.69   43.30
  10   4   1    7.90   41.80
  10   4   1    5.80   40.60
  10   4   1   57.59   20.10
   7  -5  -1  -13.90   40.00
   7  -5  -1   14.00   29.60
   7  -5  -1    8.50   18.60
  -7   5   1   31.60   24.30
  -7   5   1   58.69   44.00
  -7   5   1   11.50   44.60
   6  -5  -1  188.48   37.00
   6  -5  -1  200.08   51.89
   6  -5  -1   79.79   45.60
  -6   5   1  239.38   80.69
  -6   5   1  220.28   54.29
  -6   5   1  119.79   41.70
   5  -5  -1  804.62   63.39
   5  -5  -1  854.61  111.89
   5  -5  -1  896.11   92.49
  -5   5   1  921.31  125.79
  -5   5   1 1015.60  100.79
  -5   5   1  971.50   88.69
   4  -5  -1    9.80   10.80
   4  -5  -1   -7.30   14.30
   4  -5  -1   23.10   21.80
  -4   5   1    8.50   17.50
  -4   5   1   -3.60   22.40
  -4   5   1   26.20   18.80
   3  -5  -1  786.62   77.99
   3  -5  -1  800.12   86.09
   3  -5  -1  822.42   59.29
  -3   5   1  779.32  100.19
  -3   5   1  788.42   82.29
  -3   5   1  963.60  109.69
   2  -5  -1   30.10   13.70
   2  -5  -1   62.29   22.00
   2  -5  -1   64.39   26.70
   2  -5  -1   16.50   15.20
  -2   5   1   39.30   26.30
  -2   5   1   46.20   20.20
  -2   5   1   38.90   16.80
   1  -5  -1    9.00    7.50
   1  -5  -1   -8.80    9.60
   1  -5  -1   -8.80    7.20
   1  -5  -1   11.20   13.50
   1  -5  -1   -0.40    9.40
  -1   5   1   -7.10    4.00
  -1   5   1   26.90   16.90
  -1   5   1   19.40   11.50
  -1   5   1    0.30   14.90
  -1   5   1  -12.60    5.60
   0  -5  -1  728.33   52.19
   0  -5  -1  737.63   64.99
   0  -5  -1  560.34   75.79
   0  -5  -1  771.32   49.99
   0  -5  -1  889.21   78.79
   0   5   1  746.23   52.39
   0   5   1  765.92   73.79
   0   5   1  794.02   69.69
   0   5   1  765.82   78.09
   0   5   1  807.12   38.20
  -1  -5  -1   62.99   15.30
  -1  -5  -1   74.69   27.90
  -1  -5  -1   28.90   22.20
  -1  -5  -1   57.09   20.70
  -1  -5  -1   54.69   16.70
  -1  -5  -1   67.69   23.50
  -1  -5  -1   58.59   14.30
   1   5   1   76.39   19.20
   1   5   1   71.09   23.60
   1   5   1  102.69   21.60
   1   5   1   74.99   23.80
   1   5   1   66.99   16.60
   1   5   1   48.50   21.20
   1   5   1   62.89   10.90
   1   5   1   69.59   20.50
   1   5   1   33.40   13.50
  -2  -5  -1  240.68   35.10
  -2  -5  -1  239.78   25.10
  -2  -5  -1  201.88   41.30
  -2  -5  -1  220.88   44.30
  -2  -5  -1  199.18   32.10
   2   5   1  183.18   28.60
   2   5   1  221.48   25.10
   2   5   1  186.88   23.40
   2   5   1  257.57   41.00
   2   5   1  197.48   24.10
   2   5   1  194.48   23.10
   2   5   1  193.28   26.80
   2   5   1  161.58   34.40
   2   5   1  241.58   32.20
  -3  -5  -1    1.40    5.50
  -3  -5  -1  -14.90    7.70
  -3  -5  -1    8.00    7.80
  -3  -5  -1    5.10    4.30
  -3  -5  -1   10.80   12.50
  -3  -5  -1    2.70    4.90
  -3  -5  -1   22.70    8.20
   3   5   1    5.90    7.00
   3   5   1    9.20    5.40
   3   5   1    7.00    9.10
   3   5   1    0.00    3.90
   3   5   1    2.00    3.00
   3   5   1   -5.50    6.00
   3   5   1    7.10    5.70
  -4  -5  -1   44.30   15.10
  -4  -5  -1   51.29   23.80
  -4  -5  -1   38.80   19.70
  -4  -5  -1   47.10   17.70
   4   5   1   62.79   20.70
   4   5   1   64.69   10.40
   4   5   1   57.59   12.90
   4   5   1   64.29   15.50
   4   5   1   73.59   24.40
   4   5   1   53.99   13.00
   4   5   1   45.40   15.20
  -5  -5  -1   20.00   11.70
  -5  -5  -1   11.60    8.10
  -5  -5  -1   21.20   17.60
  -5  -5  -1    6.50   11.50
   5   5   1    7.30    7.40
   5   5   1    6.60    7.80
   5   5   1   15.30    7.30
   5   5   1   -7.90   12.00
  -6  -5  -1    9.30   12.40
  -6  -5  -1   11.50   14.20
  -6  -5  -1   38.20   22.50
   6   5   1   22.00    8.20
   6   5   1    8.20    9.60
   6   5   1   18.20   13.00
  -7  -5  -1  268.17   37.40
  -7  -5  -1  300.07   52.39
  -7  -5  -1  269.57   49.40
   7   5   1  239.38   33.90
   7   5   1  294.27   21.90
   7   5   1  216.28   47.10
  -8  -5  -1   54.09   24.00
  -8  -5  -1  106.79   39.50
  -8  -5  -1   42.30   26.20
   8   5   1   46.20   18.70
   8   5   1   73.49   28.00
   8   5   1   70.29   13.60
  -9  -5  -1   18.70   29.30
  -9  -5  -1  -23.20   16.50
  -9  -5  -1   18.30   15.00
   9   5   1   20.80   12.90
   9   5   1   61.19   26.60
   9   5   1   16.40    8.10
   9   5   1   -3.80   32.70
 -10  -5  -1   29.70   26.70
 -10  -5  -1  -14.90   22.00
 -10  -5  -1   65.49   30.90
  10   5   1   21.50   23.10
  10   5   1   -9.00   41.80
  10   5   1   20.70   17.10
   6  -6  -1   44.20   23.50
   6  -6  -1   59.99   31.30
   6  -6  -1   17.10   32.70
  -6   6   1   43.20   29.50
  -6   6   1   62.29   47.70
  -6   6   1   29.00   36.30
  -6   6   1    0.70   22.00
   5  -6  -1   20.20   38.40
   5  -6  -1   56.39   21.50
   5  -6  -1   21.60   26.00
  -5   6   1   42.60   45.00
  -5   6   1   72.49   30.30
  -5   6   1   -1.30   18.90
  -5   6   1   57.19   34.30
   4  -6  -1  564.64   79.59
   4  -6  -1  623.74   78.79
   4  -6  -1  556.34   53.29
  -4   6   1  682.33   66.79
  -4   6   1  634.94   82.99
  -4   6   1  546.15   97.29
   3  -6  -1  584.14   71.19
   3  -6  -1  595.14   83.99
   3  -6  -1  705.93   57.19
  -3   6   1  603.54   75.09
  -3   6   1  680.43   68.59
  -3   6   1  663.63   62.39
  -3   6   1  507.35   90.69
   2  -6  -1   48.90   16.10
   2  -6  -1   14.10   24.80
   2  -6  -1   61.49   23.00
   2  -6  -1   13.20   18.00
  -2   6   1   67.49   21.60
  -2   6   1   61.49   25.90
  -2   6   1   13.70   18.00
   1  -6  -1   23.00   20.20
   1  -6  -1   25.30   12.60
   1  -6  -1   25.50   18.00
   1  -6  -1   28.70   21.80
  -1   6   1   40.70   16.20
  -1   6   1   35.10   12.00
  -1   6   1   38.80   13.60
  -1   6   1    4.60   18.80
  -1   6   1   29.00   25.90
  -1   6   1   24.20   25.60
   0  -6  -1   33.90   17.60
   0  -6  -1   28.60   12.70
   0  -6  -1    8.10   15.50
   0  -6  -1   15.10   15.90
   0   6   1   22.90   23.70
   0   6   1   32.60   14.30
   0   6   1   44.10   22.40
   0   6   1   10.90    6.50
   0   6   1   29.50   21.60
   0   6   1   26.70    8.50
  -1  -6  -1  613.44   53.49
  -1  -6  -1  553.14   60.89
  -1  -6  -1  749.33   75.09
  -1  -6  -1  644.14   47.70
  -1  -6  -1  448.36   63.79
   1   6   1  605.44   71.59
   1   6   1  602.74   47.70
   1   6   1  592.24   62.39
   1   6   1  485.15   63.99
   1   6   1  609.14   36.10
   1   6   1  572.74   56.19
  -2  -6  -1 2471.75  131.59
  -2  -6  -1 2596.14  142.09
  -2  -6  -1 2875.31  155.58
  -2  -6  -1 2339.67  136.09
   2   6   1 2423.26  130.09
   2   6   1 2711.03  113.29
   2   6   1 2670.83  140.29
   2   6   1 2618.04  106.79
   2   6   1 2511.65  117.09
  -3  -6  -1 3276.97  160.98
  -3  -6  -1 2712.63  151.18
  -3  -6  -1 3241.18  136.49
  -3  -6  -1 3154.58  161.38
  -3  -6  -1 3326.27  171.68
  -3  -6  -1 3105.69  131.99
   3   6   1 3281.87  120.89
   3   6   1 3168.48  152.08
   3   6   1 3121.19  139.59
   3   6   1 3107.79  138.09
   3   6   1 3037.70  125.69
   3   6   1 3162.68  124.79
  -4  -6  -1  936.81   86.39
  -4  -6  -1 1001.30   74.09
  -4  -6  -1 1191.18   94.19
   4   6   1  975.00   60.49
   4   6   1 1066.19   78.99
   4   6   1 1062.39   57.79
   4   6   1 1143.49   84.49
   4   6   1  999.40   58.89
   4   6   1 1051.69   54.59
  -5  -6  -1  492.45   46.30
  -5  -6  -1  561.54   68.89
  -5  -6  -1  540.45   58.79
  -5  -6  -1  454.65   57.69
   5   6   1  415.26   46.80
   5   6   1  518.65   37.90
   5   6   1  451.15   52.29
   5   6   1  472.45   42.70
   5   6   1  496.35   30.40
  -6  -6  -1  188.18   37.60
  -6  -6  -1  175.08   43.60
  -6  -6  -1  164.08   43.00
  -6  -6  -1  256.57   53.69
   6   6   1  231.68   38.60
   6   6   1  238.58   23.50
   6   6   1  216.28   32.90
  -7  -6  -1  229.28   37.30
  -7  -6  -1  225.68   55.19
  -7  -6  -1  279.07   51.39
   7   6   1  218.68   32.30
   7   6   1  272.47   23.00
   7   6   1  215.18   47.00
  -8  -6  -1   84.69   31.50
  -8  -6  -1  132.39   46.00
  -8  -6  -1   64.29   26.20
   8   6   1   94.79   26.00
   8   6   1   68.69   30.10
   8   6   1  123.49   15.00
  -9  -6  -1   47.40   25.00
  -9  -6  -1   30.50   24.00
  -9  -6  -1   27.20   26.40
   9   6   1   15.50   43.00
   9   6   1   43.00   16.60
   9   6   1   55.69   19.70
   9   6   1   53.69   26.00
   5  -7  -1   -4.70   42.70
   5  -7  -1   17.00   18.70
   5  -7  -1   22.90   21.90
  -5   7   1   14.30   19.10
  -5   7   1   11.30   22.50
  -5   7   1  -51.89   37.00
   4  -7  -1   -4.60   22.90
   4  -7  -1   -5.90   12.60
   4  -7  -1   -5.70   21.60
  -4   7   1   10.70   16.60
  -4   7   1   -2.90   29.90
  -4   7   1   -5.50   16.70
   3  -7  -1   45.20   15.70
   3  -7  -1   -8.50   33.80
   3  -7  -1   10.60   16.40
   3  -7  -1   40.30   31.20
  -3   7   1   -9.30   14.20
  -3   7   1    7.10   11.20
  -3   7   1   34.60   31.60
  -3   7   1   33.10   16.60
   2  -7  -1    7.60   18.20
   2  -7  -1    2.60   10.90
   2  -7  -1   10.40   21.90
   2  -7  -1   54.09   27.20
  -2   7   1   -7.90   20.60
  -2   7   1   25.50   13.70
  -2   7   1    9.70   12.60
  -2   7   1  -23.30   13.80
   1  -7  -1  -11.90   16.50
   1  -7  -1    5.80    6.50
   1  -7  -1   10.20    9.50
   1  -7  -1   -1.30   15.60
  -1   7   1   23.60   21.20
  -1   7   1    5.80    8.10
  -1   7   1    1.20   14.90
  -1   7   1   21.10   21.10
  -1   7   1   -3.30   10.00
   0  -7  -1  141.49   38.40
   0  -7  -1   88.39   36.40
   0  -7  -1  130.59   20.30
   0  -7  -1   99.99   25.10
   0   7   1  160.78   48.00
   0   7   1  165.48   48.00
   0   7   1  160.18   29.10
   0   7   1  139.69   16.10
   0   7   1   72.99   22.00
   0   7   1  200.28   52.49
  -1  -7  -1  239.88   56.59
  -1  -7  -1  328.37   83.19
  -1  -7  -1  341.47   62.79
  -1  -7  -1  296.97   55.19
   1   7   1  224.68   55.29
   1   7   1  287.87   59.59
   1   7   1  275.97   24.80
   1   7   1  216.98   38.50
  -2  -7  -1 1069.49   95.49
  -2  -7  -1 1020.60   89.49
  -2  -7  -1  950.90   78.19
  -2  -7  -1  933.41   65.69
   2   7   1  957.50   71.69
   2   7   1 1001.10   59.99
   2   7   1 1019.80   87.49
   2   7   1  976.70   65.59
   2   7   1  828.02   86.99
   2   7   1 1027.60   84.19
  -3  -7  -1 1207.58  103.99
  -3  -7  -1 1058.89   88.89
  -3  -7  -1 1316.37  107.89
   3   7   1 1135.69   84.39
   3   7   1 1195.28   76.19
   3   7   1 1079.19   97.39
   3   7   1 1057.59   73.49
   3   7   1 1038.60   67.09
  -4  -7  -1   53.29   26.50
  -4  -7  -1   57.39   23.40
  -4  -7  -1   32.40   23.80
  -4  -7  -1   39.20   16.90
   4   7   1   65.19   25.30
   4   7   1   29.60   18.20
   4   7   1   25.80   15.00
   4   7   1   58.89   14.90
   4   7   1   85.89   19.70
   4   7   1   59.29   20.10
   4   7   1   62.19   17.90
  -5  -7  -1   24.70   13.90
  -5  -7  -1   -2.30    8.40
  -5  -7  -1  -10.20    9.60
   5   7   1   -7.00    9.30
   5   7   1   17.80   10.20
   5   7   1    8.80    9.80
   5   7   1    8.80    8.80
   5   7   1   18.40   11.30
   5   7   1  -13.90    8.60
  -6  -7  -1    2.80   14.40
  -6  -7  -1   36.50   20.60
  -6  -7  -1   16.40   17.10
  -6  -7  -1   -3.80   13.00
   6   7   1    1.20   17.00
   6   7   1   15.50    8.00
   6   7   1    5.30   10.20
   6   7   1    3.90   12.30
  -7  -7  -1   40.40   25.90
  -7  -7  -1   37.80   22.90
  -7  -7  -1   16.70   15.40
   7   7   1   37.70   11.60
   7   7   1   28.80   14.80
   7   7   1    8.50   10.90
  -8  -7  -1   99.09   36.80
  -8  -7  -1   79.29   39.10
  -8  -7  -1  100.59   31.40
   8   7   1   74.29   15.10
   8   7   1   66.09   22.50
   8   7   1   88.19   38.80
  -9  -7  -1   63.09   32.20
  -9  -7  -1   68.79   28.20
  -9  -7  -1  105.79   36.50
   9   7   1   69.19   13.70
   9   7   1   46.20   26.80
   9   7   1   14.40   18.40
   5  -8  -1   50.39   25.00
   5  -8  -1   -0.40   21.30
   5  -8  -1  -30.20   40.40
  -5   8   1  -20.70   22.30
  -5   8   1   13.80   25.70
  -5   8   1   -4.20   37.40
   4  -8  -1   15.60   16.50
   4  -8  -1    7.00   33.60
   4  -8  -1  -34.00   17.20
  -4   8   1   17.90   20.60
  -4   8   1    8.20   18.30
  -4   8   1    1.50   32.50
  -4   8   1  -53.49   24.30
   3  -8  -1  -73.79   59.49
   3  -8  -1   55.69   30.30
   3  -8  -1    2.60   11.70
  -3   8   1    1.20   15.30
  -3   8   1   60.39   29.20
  -3   8   1    6.10   34.10
   2  -8  -1   26.80   24.40
   2  -8  -1  -20.20   15.60
   2  -8  -1  -14.70    7.90
   2  -8  -1  -10.40   11.10
  -2   8   1   10.40   14.80
  -2   8   1   18.30   20.60
  -2   8   1   24.50   32.40
  -2   8   1    7.60   14.40
  -2   8   1    9.80   13.00
   1  -8  -1  141.69   51.99
   1  -8  -1  221.08   41.10
   1  -8  -1  131.09   40.00
   1  -8  -1  153.68   17.60
  -1   8   1   97.29   35.10
  -1   8   1  141.99   18.60
  -1   8   1  123.29   32.40
  -1   8   1  157.18   57.29
  -1   8   1  224.18   59.79
   0  -8  -1  320.17   68.79
   0  -8  -1  359.96   38.00
   0  -8  -1  362.06   43.70
   0  -8  -1  375.86   58.99
   0   8   1  455.45   65.29
   0   8   1  400.06   90.29
   0   8   1  375.16   27.30
   0   8   1  405.56   75.69
   0   8   1  355.26   45.20
  -1  -8  -1  137.69   30.10
  -1  -8  -1  189.28   37.60
  -1  -8  -1  194.28   50.39
  -1  -8  -1  178.38   48.90
   1   8   1  217.58   64.49
   1   8   1  166.48   20.30
   1   8   1  116.69   28.50
   1   8   1   79.29   35.60
   1   8   1  251.47   59.69
  -2  -8  -1   20.30   11.80
  -2  -8  -1    4.50   10.80
  -2  -8  -1    1.20   12.70
   2   8   1   33.60   32.50
   2   8   1    5.90   17.10
   2   8   1   15.10   11.80
   2   8   1  -14.40    6.50
   2   8   1   10.80   19.40
  -3  -8  -1   20.90   10.20
  -3  -8  -1   13.30   18.40
  -3  -8  -1   -1.80   14.70
   3   8   1    7.50   16.70
   3   8   1    6.80   15.50
   3   8   1  -15.60   12.20
   3   8   1   10.40    6.00
   3   8   1   20.60   12.70
  -4  -8  -1  106.79   34.40
  -4  -8  -1  141.19   45.80
  -4  -8  -1  121.69   35.40
  -4  -8  -1   98.09   33.80
   4   8   1  138.89   21.10
   4   8   1  112.09   32.70
   4   8   1   99.79   31.00
   4   8   1  132.59   34.80
   4   8   1   75.29   22.30
  -5  -8  -1  315.17   86.19
  -5  -8  -1  266.97   39.70
  -5  -8  -1  300.57   66.69
  -5  -8  -1  295.47   52.99
   5   8   1  244.48   49.70
   5   8   1  318.37   36.20
   5   8   1  275.37   34.80
   5   8   1  314.07   49.80
   5   8   1  424.46   44.60
   5   8   1  289.77   32.00
  -6  -8  -1  211.68   56.09
  -6  -8  -1  134.59   44.40
  -6  -8  -1  172.98   39.30
  -6  -8  -1  162.88   43.50
   6   8   1  207.28   42.50
   6   8   1  139.59   39.00
   6   8   1  188.68   31.40
   6   8   1  228.08   22.10
   6   8   1  167.68   23.80
  -7  -8  -1   53.99   28.10
  -7  -8  -1   99.99   35.30
  -7  -8  -1   96.19   35.70
  -7  -8  -1  120.69   38.40
   7   8   1  112.19   33.30
   7   8   1   91.89   20.70
   7   8   1   66.19   25.90
  -8  -8  -1   79.79   35.40
  -8  -8  -1   95.19   34.70
  -8  -8  -1   72.29   35.70
   8   8   1  130.39   37.60
   8   8   1  142.99   19.60
   8   8   1  137.49   34.90
  -9  -8  -1   54.99   33.80
  -9  -8  -1   81.39   35.90
  -9  -8  -1   82.99   39.40
   9   8   1   89.29   31.70
   9   8   1   66.79   27.10
   9   8   1   70.39   14.80
   4  -9  -1   49.10   23.00
  -4   9   1   35.90   50.89
  -4   9   1   71.59   41.80
  -4   9   1   -1.60   20.40
   3  -9  -1   30.60   38.00
   3  -9  -1   17.60   19.60
   3  -9  -1   38.60   20.90
  -3   9   1   25.90   16.30
  -3   9   1   34.40   53.39
  -3   9   1   77.49   32.90
  -3   9   1   83.09   23.70
   2  -9  -1   22.40   20.70
   2  -9  -1   29.00   14.30
   2  -9  -1   16.80   23.20
  -2   9   1   12.90   21.90
  -2   9   1   96.39   48.70
  -2   9   1    8.60   12.70
   1  -9  -1  429.26   85.09
   1  -9  -1  556.94   85.89
   1  -9  -1  532.95   57.99
  -1   9   1  432.36   97.49
  -1   9   1  531.35   82.29
  -1   9   1  563.34   60.79
   0  -9  -1  829.62   98.59
   0  -9  -1  827.32   57.89
   0  -9  -1  762.32   90.09
   0  -9  -1  872.51   71.29
   0   9   1  778.02  109.69
   0   9   1  818.22   71.79
   0   9   1  864.71  100.99
   0   9   1  756.72  101.69
  -1  -9  -1  854.81   69.99
  -1  -9  -1  997.60   74.79
  -1  -9  -1  952.80  108.19
  -1  -9  -1  923.61   97.59
   1   9   1 1050.09  102.89
   1   9   1  835.92   72.19
   1   9   1  978.60   53.89
   1   9   1 1009.10  117.29
  -2  -9  -1  771.72   72.09
  -2  -9  -1  828.62   93.49
  -2  -9  -1  777.02   95.69
   2   9   1  860.71   88.59
   2   9   1  856.01   69.89
   2   9   1  744.73   57.69
   2   9   1  665.53   92.29
  -3  -9  -1  449.66   69.59
  -3  -9  -1  445.36   58.79
  -3  -9  -1  515.45   74.29
  -3  -9  -1  450.05   54.59
   3   9   1  491.15   67.59
   3   9   1  279.27   79.79
   3   9   1  469.15   49.50
   3   9   1  400.16   59.39
   3   9   1  428.36   69.99
  -4  -9  -1   73.69   33.80
  -4  -9  -1   64.19   30.00
  -4  -9  -1   67.49   28.90
  -4  -9  -1  106.59   41.30
   4   9   1   69.89   21.10
   4   9   1  109.79   35.30
   4   9   1  109.89   34.10
   4   9   1   95.89   27.30
   4   9   1  109.49   31.30
  -5  -9  -1   99.19   32.20
  -5  -9  -1   78.59   34.70
  -5  -9  -1  128.49   47.20
   5   9   1   94.09   28.30
   5   9   1   56.59   28.40
   5   9   1  125.99   20.80
   5   9   1   84.59   26.10
   5   9   1   39.20   31.70
   5   9   1   88.79   29.00
  -6  -9  -1   69.69   36.30
  -6  -9  -1   97.89   35.90
  -6  -9  -1   88.29   32.90
  -6  -9  -1   91.39   29.00
   6   9   1  125.69   44.60
   6   9   1  112.09   30.70
   6   9   1   98.09   33.10
   6   9   1   85.09   23.30
   6   9   1  123.59   28.70
  -7  -9  -1   72.29   36.50
  -7  -9  -1   58.59   32.00
  -7  -9  -1   79.89   39.00
  -7  -9  -1   78.19   33.80
   7   9   1   71.89   39.10
   7   9   1   75.49   21.10
   7   9   1   89.29   30.80
  -8  -9  -1   45.70   33.90
  -8  -9  -1   72.19   36.10
  -8  -9  -1   53.09   33.30
   8   9   1   41.30   26.90
   8   9   1   51.39   26.40
   8   9   1   92.09   20.40
  -9  -9  -1   10.70   26.30
  -9  -9  -1   50.99   26.40
  -9  -9  -1   59.39   39.70
   9   9   1   48.70   23.60
   9   9   1   42.90   21.30
   9   9   1    6.40   12.10
   3 -10  -1  -10.00   20.20
   3 -10  -1  -30.20   12.70
  -3  10   1  -11.50   51.99
  -3  10   1   43.90   20.50
  -3  10   1   18.30   34.20
   2 -10  -1   15.10   13.00
   2 -10  -1  -10.80   19.00
   2 -10  -1  -21.90   35.00
  -2  10   1  -17.60   34.70
  -2  10   1   21.50   15.10
  -2  10   1   26.50   26.50
   1 -10  -1  129.99   44.10
   1 -10  -1  222.98   69.69
   1 -10  -1  185.08   41.20
  -1  10   1  208.78   45.80
  -1  10   1  317.47   88.29
  -1  10   1  300.67   78.19
   0 -10  -1  282.67   87.79
   0 -10  -1  266.27   73.69
   0 -10  -1  306.87   75.99
   0 -10  -1  276.97   36.60
   0  10   1  326.37   86.49
   0  10   1  209.68   66.09
   0  10   1  212.58   83.69
  -1 -10  -1  168.48   47.90
  -1 -10  -1  161.88   46.60
  -1 -10  -1  141.59   32.80
  -1 -10  -1  187.48   41.20
   1  10   1  140.19   23.60
   1  10   1  155.68   62.49
   1  10   1  125.49   35.90
   1  10   1  141.19   52.09
  -2 -10  -1   32.10   18.50
  -2 -10  -1   90.39   37.00
  -2 -10  -1   17.40   34.80
   2  10   1   49.50   29.20
   2  10   1   27.50   23.90
   2  10   1   79.39   44.10
   2  10   1   36.60   21.30
   2  10   1   16.30   34.20
   2  10   1   42.40   20.80
  -3 -10  -1  130.79   35.50
  -3 -10  -1   86.39   33.70
  -3 -10  -1  128.19   33.20
  -3 -10  -1  126.39   47.20
   3  10   1  146.89   33.80
   3  10   1  140.59   45.40
   3  10   1  133.09   43.10
   3  10   1  125.59   48.20
   3  10   1   69.89   40.20
  -4 -10  -1   63.19   28.00
  -4 -10  -1   28.40   25.70
  -4 -10  -1    8.00   16.80
  -4 -10  -1   10.00   18.90
   4  10   1   -9.10   25.50
   4  10   1  -11.90   16.40
   4  10   1   17.70   17.20
   4  10   1    3.40   13.90
   4  10   1  -43.50   32.70
  -5 -10  -1   46.80   32.20
  -5 -10  -1   67.89   29.60
  -5 -10  -1   40.10   26.50
   5  10   1   86.89   34.50
   5  10   1   61.09   26.00
   5  10   1   71.39   24.30
   5  10   1   26.20   25.10
   5  10   1   35.10   17.90
  -6 -10  -1  112.29   37.60
  -6 -10  -1  132.59   50.29
   6  10   1  133.39   53.29
   6  10   1  105.79   39.70
   6  10   1  112.99   36.40
   6  10   1  146.99   50.89
   6  10   1   89.79   24.10
  -7 -10  -1  110.79   45.80
  -7 -10  -1  154.78   51.89
  -7 -10  -1   87.09   37.40
  -7 -10  -1  103.89   37.10
   7  10   1  101.19   33.30
   7  10   1  153.18   45.60
   7  10   1   59.49   44.60
   7  10   1  105.79   27.40
  -8 -10  -1  -11.90   33.60
  -8 -10  -1   81.59   40.60
  -8 -10  -1   71.19   33.00
   8  10   1   20.50   12.80
   8  10   1   56.39   25.30
   8  10   1   -2.50   38.50
   8  10   1   19.10   19.30
   2 -11  -1  182.38   42.60
   2 -11  -1  166.28   57.59
   2 -11  -1   86.39   56.79
  -2  11   1  211.68   42.50
   1 -11  -1  147.09   47.20
   1 -11  -1  185.78   67.59
   1 -11  -1   89.99   32.50
  -1  11   1   99.29   47.80
  -1  11   1  215.88   66.79
  -1  11   1  133.59   34.60
   0 -11  -1   36.70   34.70
   0 -11  -1   42.30   19.20
   0 -11  -1   76.59   23.00
   0 -11  -1   25.60   42.80
   0  11   1   48.60   35.90
   0  11   1   41.70   28.00
   0  11   1   43.00   48.60
  -1 -11  -1   38.00   20.60
  -1 -11  -1   65.79   44.30
  -1 -11  -1   59.99   22.10
  -1 -11  -1   50.39   37.00
   1  11   1   48.70   20.80
   1  11   1   76.09   38.20
   1  11   1   41.70   49.20
  -2 -11  -1   36.40   34.70
  -2 -11  -1   -8.80   32.40
  -2 -11  -1   -1.40   15.80
   2  11   1   35.40   37.50
   2  11   1   35.20   16.60
   2  11   1   12.40   30.80
   2  11   1  -16.00   37.50
   2  11   1    5.90   22.00
  -3 -11  -1  217.28   49.40
  -3 -11  -1  182.88   60.69
  -3 -11  -1  225.28   61.89
   3  11   1  324.07   73.89
   3  11   1  219.78   50.19
   3  11   1  207.88   57.29
  -4 -11  -1  150.18   47.10
  -4 -11  -1  138.09   41.00
  -4 -11  -1  196.68   45.80
   4  11   1   93.89   46.10
   4  11   1   92.49   35.50
   4  11   1  189.18   41.30
   4  11   1  138.79   42.50
   4  11   1   23.00   45.10
  -5 -11  -1   55.29   38.70
  -5 -11  -1   69.09   29.30
  -5 -11  -1   57.09   33.90
   5  11   1   -9.10   34.50
   5  11   1   34.60   40.30
   5  11   1   41.50   32.70
   5  11   1   51.59   33.20
   5  11   1   62.29   22.80
   5  11   1   41.80   28.00
  -6 -11  -1  102.59   47.50
  -6 -11  -1   87.99   40.50
  -6 -11  -1  102.29   38.40
   6  11   1   74.99   31.90
   6  11   1   58.19   32.20
   6  11   1  112.29   29.00
   6  11   1   40.70   25.80
   6  11   1   58.89   47.90
  -7 -11  -1   94.19   33.50
  -7 -11  -1   15.10   24.00
  -7 -11  -1   39.20   33.60
   7  11   1   10.70   19.20
   7  11   1  -15.00   57.39
   7  11   1   -9.00   17.60
   7  11   1   52.89   23.70
   0 -12  -1   49.60   45.10
   0 -12  -1  162.58   48.50
   0 -12  -1   82.99   27.30
   0  12   1  135.39   63.39
   0  12   1   58.39   23.40
   0  12   1   83.49   36.20
  -1 -12  -1  -28.70   16.90
  -1 -12  -1   -8.50   30.50
  -1 -12  -1   -2.00   31.30
   1  12   1    3.30   27.20
   1  12   1   28.00   14.00
   1  12   1  -19.90   32.70
   1  12   1   39.70   43.10
  -2 -12  -1   58.79   43.20
  -2 -12  -1  109.79   45.60
  -2 -12  -1   69.29   28.00
   2  12   1    4.90   30.60
   2  12   1   89.19   54.49
   2  12   1   60.19   35.30
   2  12   1   77.49   29.80
  -3 -12  -1   25.90   24.10
  -3 -12  -1  -19.00   20.90
  -3 -12  -1   10.30   31.00
   3  12   1   45.30   26.00
   3  12   1   28.80   16.90
   3  12   1    5.80   62.19
   3  12   1    9.10   14.30
   3  12   1   44.70   46.00
  -4 -12  -1   50.99   39.60
  -4 -12  -1   55.89   35.80
   4  12   1   23.00   19.80
   4  12   1   59.89   29.70
   4  12   1   54.39   52.29
   4  12   1   -0.30   21.50
   4  12   1    9.50   45.20
  -5 -12  -1   11.50   21.10
  -5 -12  -1   66.19   37.30
  -5 -12  -1   79.39   43.60
   5  12   1   38.20   18.80
   5  12   1   31.70   25.90
   5  12   1  102.29   46.00
   5  12   1   20.10   22.90
   5  12   1  -49.60   47.60
   5  12   1    1.00   19.90
  -6 -12  -1  103.69   48.90
  -6 -12  -1   92.19   43.30
  -6 -12  -1  139.79   46.50
   6  12   1   98.89   34.40
   6  12   1   26.50   65.39
   6  12   1   40.30   21.10
   6  12   1   49.00   33.20
   6  12   1   33.10   29.30
   5  12  -2  224.78   51.89
   4  12  -2  130.69   48.80
   4  12  -2  103.09   32.10
   4  12  -2   56.39   56.19
   4  12  -2  109.29   39.50
   4  12  -2  106.19   47.30
   4  12  -2  100.29   46.60
   4  12  -2  163.58   79.59
  -4 -12   2   73.29   40.20
  -4 -12   2  135.59   42.30
  -4 -12   2  109.19   34.00
   3  12  -2   98.79   52.49
   3  12  -2  145.29   45.50
   3  12  -2  107.69   29.10
   3  12  -2  135.09   78.09
   3  12  -2   75.29   33.80
   3  12  -2  115.89   63.29
   3  12  -2   85.39   37.20
  -3 -12   2   61.19   42.70
  -3 -12   2   44.20   29.20
  -3 -12   2  167.78   45.00
   2  12  -2   65.79   46.90
   2  12  -2   14.20   20.00
   2  12  -2   90.19   69.99
   2  12  -2   81.29   37.20
   2  12  -2   50.89   58.89
   2  12  -2   -9.00   23.00
   2  12  -2   26.90   24.90
  -2 -12   2    0.30   31.60
  -2 -12   2    9.60   22.10
  -2 -12   2   19.30   20.60
  -2 -12   2   21.00   37.00
   1  12  -2  141.09   58.69
   1  12  -2  102.39   70.39
   1  12  -2   49.90   81.09
   1  12  -2  131.89   68.69
   1  12  -2  160.78   31.90
  -1 -12   2  214.88   62.39
  -1 -12   2  130.59   38.20
  -1 -12   2   64.59   40.10
   6  11  -2    2.10   13.20
   6  11  -2  -11.70   16.90
   6  11  -2   12.10   17.20
   6  11  -2  -44.30   53.49
   6  11  -2  -57.29   30.70
   6  11  -2   40.30   25.00
   6  11  -2   19.30   53.19
  -6 -11   2  -12.30   17.30
  -6 -11   2  -46.40   27.80
  -6 -11   2    5.30   31.40
   5  11  -2  108.29   59.99
   5  11  -2   58.79   34.60
   5  11  -2    5.20   50.49
   5  11  -2   42.90   17.00
   5  11  -2   -4.20   28.60
   5  11  -2   -7.00   14.60
   5  11  -2   11.30   20.00
  -5 -11   2    8.80   23.60
  -5 -11   2   11.70   19.90
  -5 -11   2    0.00   31.30
  -5 -11   2   28.50   32.80
   4  11  -2   20.90   57.19
   4  11  -2    2.00   15.20
   4  11  -2    8.90   46.80
   4  11  -2    8.30   26.00
   4  11  -2   24.60   10.50
   4  11  -2   53.19   42.70
   4  11  -2   12.40   22.50
  -4 -11   2   20.60   18.50
  -4 -11   2  -41.00   24.40
  -4 -11   2    2.90   33.10
  -4 -11   2    1.00   29.70
   3  11  -2  294.27   62.59
   3  11  -2  161.38   75.59
   3  11  -2  364.96   78.19
   3  11  -2  212.18   49.80
   3  11  -2  230.88   67.29
   3  11  -2  246.58   77.99
  -3 -11   2  174.18   92.99
  -3 -11   2  205.08   63.09
  -3 -11   2  260.67   44.40
   2  11  -2  226.68   56.29
   2  11  -2   64.29   68.29
   2  11  -2  188.28   69.49
   2  11  -2  143.99   51.29
   2  11  -2  241.48   62.19
   2  11  -2  176.68   77.39
   2  11  -2  332.07   41.20
  -2 -11   2  162.38   37.70
  -2 -11   2  184.28   39.90
  -2 -11   2  182.08   52.59
  -2 -11   2  237.18   76.69
   1  11  -2  117.39   44.00
   1  11  -2  104.99   49.60
   1  11  -2   37.20   39.00
   1  11  -2  -10.90   52.19
   1  11  -2   72.29   27.40
  -1 -11   2  132.69   37.10
  -1 -11   2   58.59   38.40
  -1 -11   2   86.19   51.89
   0  11  -2  -32.70   58.29
   0  11  -2    3.80   16.90
   0  11  -2   -7.90   93.39
   0 -11   2  -16.00   32.30
   0 -11   2   18.30   21.20
  -1  11  -2   42.10   17.30
  -1  11  -2   36.00   38.30
  -1  11  -2   16.60   45.50
  -1  11  -2   -6.80   58.49
   1 -11   2   37.10   33.70
   1 -11   2   56.09   21.60
   1 -11   2   -8.50   29.60
   7  10  -2   76.49   56.59
   7  10  -2  191.88   50.19
   7  10  -2  142.79   28.60
   7  10  -2  162.08   43.80
  -7 -10   2  176.98   59.09
  -7 -10   2  104.29   50.99
  -7 -10   2  129.99   44.30
   6  10  -2  158.98   31.00
   6  10  -2  120.09   60.19
   6  10  -2   44.30   60.29
   6  10  -2  186.68   46.40
   6  10  -2  149.09   42.00
   6  10  -2  197.58   51.69
  -6 -10   2  169.58   53.19
  -6 -10   2  154.48   47.40
   5  10  -2   48.00   22.00
   5  10  -2  145.79   37.00
   5  10  -2   -4.50   53.19
   5  10  -2   55.09   39.10
   5  10  -2  102.49   32.30
   5  10  -2   39.00   40.40
  -5 -10   2   41.10   30.70
  -5 -10   2  113.59   59.39
  -5 -10   2   86.39   30.20
  -5 -10   2   97.29   37.60
   4  10  -2  135.79   39.10
   4  10  -2   75.79   42.30
   4  10  -2  143.99   33.20
   4  10  -2   91.69   66.69
   4  10  -2  175.28   51.59
   4  10  -2  189.38   70.89
   4  10  -2  114.09   37.80
  -4 -10   2   82.59   35.30
  -4 -10   2  219.68   62.59
  -4 -10   2  236.48   59.99
  -4 -10   2  172.38   42.40
   3  10  -2  236.88   44.40
   3  10  -2  228.88   74.59
   3  10  -2  364.26   77.19
   3  10  -2  473.15   84.19
   3  10  -2  288.17   59.69
   3  10  -2  337.87   63.69
  -3 -10   2  268.37   47.50
  -3 -10   2  375.26   76.69
  -3 -10   2  347.77   78.49
  -3 -10   2  260.97   46.50
  -3 -10   2  277.77   61.99
   2  10  -2  133.29   38.60
   2  10  -2  159.78   47.80
   2  10  -2  216.58   44.40
   2  10  -2   54.09   51.19
   2  10  -2  247.28   65.69
   2  10  -2  201.08   61.59
  -2 -10   2  201.38   37.20
  -2 -10   2  177.78   51.59
  -2 -10   2  162.78   51.59
  -2 -10   2  194.48   38.30
   1  10  -2  597.64   93.49
   1  10  -2  484.55   59.49
   1  10  -2  499.15  123.79
   1  10  -2  619.54   87.79
  -1 -10   2  625.44   84.49
  -1 -10   2  590.24   53.89
  -1 -10   2  615.04   78.59
  -1 -10   2  692.63   63.09
   0  10  -2  130.89   67.89
   0  10  -2  183.78   45.70
   0  10  -2  109.39   33.50
   0  10  -2  231.28  100.49
   0  10  -2   98.39   64.79
   0 -10   2  219.48   53.29
   0 -10   2  150.38   39.80
   0 -10   2  165.28   45.10
  -1  10  -2   38.70   51.99
  -1  10  -2   22.50   10.70
  -1  10  -2   82.49   49.70
  -1  10  -2   51.49   32.90
   1 -10   2    1.40   33.30
   1 -10   2  -43.00   25.80
   1 -10   2   43.10   12.90
  -2  10  -2   15.50   12.00
  -2  10  -2   -3.10   41.50
  -2  10  -2    2.30   26.90
   2 -10   2  -12.00   15.30
   2 -10   2   -9.10   33.40
   2 -10   2  -22.60   30.70
  -3  10  -2  -21.10   40.10
  -3  10  -2  -25.30   42.90
  -3  10  -2   20.90   19.00
  -3  10  -2   29.80   39.00
   3 -10   2   43.50   28.60
   3 -10   2   -8.30   36.00
   3 -10   2   16.70   17.10
   8   9  -2  107.79   42.20
   8   9  -2  219.08   26.40
   8   9  -2  140.59   33.40
   8   9  -2  164.98   70.99
  -8  -9   2  135.69   50.29
  -8  -9   2  155.08   44.90
  -8  -9   2  106.49   54.49
   7   9  -2   72.39   29.20
   7   9  -2   56.29   15.20
   7   9  -2   90.09   24.00
   7   9  -2   40.20   47.90
  -7  -9   2   74.19   29.70
  -7  -9   2   78.29   29.90
  -7  -9   2   95.79   37.80
   6   9  -2   37.40   23.90
   6   9  -2   21.20   15.40
   6   9  -2   26.40   19.40
   6   9  -2   24.50   11.90
   6   9  -2   25.70   26.30
  -6  -9   2   20.10   19.50
  -6  -9   2   62.99   31.30
  -6  -9   2    4.00   16.90
   5   9  -2   19.80   26.30
   5   9  -2   98.09   25.50
   5   9  -2   36.60   39.50
   5   9  -2   98.59   29.50
   5   9  -2   87.39   31.40
   5   9  -2   68.49   36.50
  -5  -9   2  105.89   40.00
  -5  -9   2   66.09   28.50
  -5  -9   2   67.29   32.10
  -5  -9   2   69.39   37.20
   4   9  -2   31.90   16.40
   4   9  -2   -0.90   30.90
   4   9  -2  -34.30   19.70
   4   9  -2   47.60   23.50
   4   9  -2   24.80   28.10
   4   9  -2  -26.80   26.30
   4   9  -2   12.90   13.70
  -4  -9   2   37.30   22.60
  -4  -9   2  -24.20   16.50
  -4  -9   2   11.10   14.40
  -4  -9   2   10.40   22.70
   3   9  -2   84.39   24.40
   3   9  -2   79.59   45.20
   3   9  -2   67.49   26.30
   3   9  -2   64.39   26.00
   3   9  -2   17.30   51.99
   3   9  -2  129.19   47.10
   3   9  -2   46.50   34.70
  -3  -9   2   83.59   32.90
  -3  -9   2   98.99   29.60
  -3  -9   2   67.89   32.60
  -3  -9   2   90.99   28.20
  -3  -9   2  115.59   41.30
  -3  -9   2  120.39   46.40
   2   9  -2  214.38   84.29
   2   9  -2  294.97   46.80
   2   9  -2  316.97   74.59
   2   9  -2  279.97   60.09
   2   9  -2  356.36   45.10
  -2  -9   2  417.36   76.09
  -2  -9   2  318.27   41.60
  -2  -9   2  338.97   48.60
  -2  -9   2  355.56   70.09
   1   9  -2   33.70   31.40
   1   9  -2   37.20   24.00
   1   9  -2   30.10   26.50
   1   9  -2   50.79   24.20
  -1  -9   2   30.30   19.20
  -1  -9   2   -8.40   22.60
  -1  -9   2   23.10   13.40
  -1  -9   2   -0.40   13.50
   0   9  -2  228.28   48.10
   0   9  -2   93.49   55.49
   0   9  -2  132.49   50.69
   0   9  -2  167.88   40.30
   0   9  -2  110.09   63.09
   0  -9   2  210.18   55.29
   0  -9   2  183.38   45.20
   0  -9   2  138.79   34.50
  -1   9  -2  -11.40   11.00
  -1   9  -2   86.99   39.20
  -1   9  -2  -11.30   40.40
  -1   9  -2   56.89   32.10
   1  -9   2    5.60   13.40
   1  -9   2   -1.20   23.20
   1  -9   2   22.20   25.00
  -2   9  -2  148.49   56.99
  -2   9  -2    6.70   51.19
  -2   9  -2   54.29   52.39
   2  -9   2   97.09   40.70
   2  -9   2  139.99   36.40
   2  -9   2   92.39   39.20
  -3   9  -2  164.28   53.39
  -3   9  -2   15.80   49.20
  -3   9  -2    0.90   43.90
   3  -9   2   43.80   25.40
   3  -9   2   54.99   35.40
   3  -9   2   79.29   44.20
  -4   9  -2  195.08   73.49
  -4   9  -2   67.49   50.59
  -4   9  -2  178.98   66.79
   4  -9   2  156.08   36.70
   4  -9   2  194.78   58.99
   4  -9   2  154.98   51.69
   8   8  -2   27.00    8.50
   8   8  -2   17.90   34.90
   8   8  -2   47.10   17.40
   8   8  -2    3.40   21.20
  -8  -8   2   43.70   31.30
  -8  -8   2    9.60   29.90
  -8  -8   2   31.00   27.60
   7   8  -2  -19.60   10.00
   7   8  -2    3.60    7.30
   7   8  -2    1.30   15.70
   7   8  -2   37.20   33.40
  -7  -8   2    4.70   23.70
  -7  -8   2   13.10   26.60
  -7  -8   2   47.00   16.70
   6   8  -2   56.49   17.80
   6   8  -2    2.10    9.80
   6   8  -2   45.40   16.60
   6   8  -2   24.00   16.90
  -6  -8   2   13.60   20.10
  -6  -8   2   10.60   18.90
  -6  -8   2    3.80   20.00
   5   8  -2  154.48   53.19
   5   8  -2  196.68   43.40
   5   8  -2  244.08   50.09
   5   8  -2  205.38   28.90
   5   8  -2  218.28   46.70
  -5  -8   2  263.57   63.99
  -5  -8   2  236.18   56.29
  -5  -8   2  206.68   52.89
   4   8  -2  643.04   76.09
   4   8  -2  732.63   70.49
   4   8  -2  888.61  113.79
   4   8  -2  645.24   65.59
  -4  -8   2  736.33   75.29
  -4  -8   2  636.24   78.69
  -4  -8   2  636.44   57.89
  -4  -8   2  647.44   73.29
  -4  -8   2  617.04   75.69
   3   8  -2  171.48   38.30
   3   8  -2  119.19   26.50
   3   8  -2   96.19   29.40
   3   8  -2   25.30   55.59
   3   8  -2  124.19   46.70
   3   8  -2  133.19   50.19
  -3  -8   2  124.79   34.70
  -3  -8   2  117.79   27.80
  -3  -8   2  178.58   57.29
  -3  -8   2   75.79   35.80
  -3  -8   2  140.49   38.10
  -3  -8   2  155.08   38.10
  -3  -8   2   82.89   38.70
   2   8  -2   16.50   29.00
   2   8  -2    9.50    7.50
   2   8  -2  -16.60   27.90
   2   8  -2    4.70   14.30
   2   8  -2   -6.90   13.50
   2   8  -2  -20.00   18.50
  -2  -8   2    3.10   10.00
  -2  -8   2    2.30   14.90
  -2  -8   2   -3.10   13.30
  -2  -8   2   31.80   18.50
  -2  -8   2    3.20   16.40
  -2  -8   2   -2.60    7.30
   1   8  -2  678.13   62.29
   1   8  -2  676.43   79.89
   1   8  -2  409.26  100.79
   1   8  -2  633.64   87.39
  -1  -8   2  713.53   55.29
  -1  -8   2  814.82   84.39
  -1  -8   2  683.53   72.09
  -1  -8   2  727.03   60.79
  -1  -8   2  750.82   70.99
   0   8  -2   87.29   29.40
   0   8  -2   73.79   26.30
   0   8  -2   97.19   53.59
   0   8  -2   63.89   38.00
   0   8  -2   75.39   38.50
   0   8  -2   59.49   24.00
   0  -8   2   78.39   30.20
   0  -8   2   88.79   18.60
   0  -8   2   36.00   25.50
   0  -8   2  120.59   26.90
  -1   8  -2  122.49   40.60
  -1   8  -2   -0.60   26.80
  -1   8  -2    2.30   15.30
   1  -8   2   15.00   19.00
   1  -8   2   33.20   15.30
   1  -8   2   27.40   21.90
  -2   8  -2   42.10   31.80
  -2   8  -2   32.20   21.50
  -2   8  -2  -23.00   31.40
   2  -8   2   -8.10    7.30
   2  -8   2   22.70   21.60
   2  -8   2   11.40   18.60
  -3   8  -2   -7.10   13.80
  -3   8  -2   26.40   38.40
  -3   8  -2   47.00   39.90
   3  -8   2   26.10   26.10
   3  -8   2  -14.20   11.40
   3  -8   2   13.10   19.60
  -4   8  -2   76.79   60.49
  -4   8  -2  145.39   58.69
  -4   8  -2  165.38   62.99
   4  -8   2  151.38   49.80
   4  -8   2  126.49   29.70
   4  -8   2   85.49   33.10
  -5   8  -2  103.19   52.09
  -5   8  -2   64.79   52.49
  -5   8  -2  107.89   51.29
   5  -8   2   55.29   36.60
   5  -8   2   63.89   39.00
   5  -8   2   57.09   26.00
   8   7  -2  160.88   51.79
   8   7  -2  187.68   36.10
   8   7  -2  159.68   62.59
   8   7  -2  144.69   13.10
  -8  -7   2  107.69   41.80
  -8  -7   2  176.88   50.09
  -8  -7   2  165.48   50.09
   7   7  -2  198.68   72.59
   7   7  -2  184.28   37.00
   7   7  -2   92.39   39.00
   7   7  -2  179.98   16.90
  -7  -7   2  168.58   54.79
  -7  -7   2  112.49   40.30
   6   7  -2  253.67   38.50
   6   7  -2  250.57   25.30
   6   7  -2  280.07   22.20
   6   7  -2  235.08   35.70
   6   7  -2  264.47   57.39
   6   7  -2  270.07   81.99
  -6  -7   2  301.97   55.79
  -6  -7   2  197.48   51.29
  -6  -7   2  250.77   47.10
   5   7  -2  173.48   23.40
   5   7  -2  189.78   43.00
   5   7  -2  246.88   53.19
   5   7  -2  198.18   66.49
   5   7  -2  257.17   22.70
   5   7  -2  169.18   37.30
  -5  -7   2  159.48   43.40
  -5  -7   2  240.88   55.89
  -5  -7   2  197.38   44.70
  -5  -7   2  180.78   50.39
   4   7  -2  870.71   71.19
   4   7  -2  901.81   81.09
   4   7  -2  892.21   57.29
   4   7  -2  909.31   74.89
   4   7  -2  806.12  104.19
  -4  -7   2  957.50   81.79
  -4  -7   2  875.31   62.49
  -4  -7   2  858.21   80.29
  -4  -7   2  892.11   87.99
  -4  -7   2  913.21   89.49
   3   7  -2  348.77   36.70
   3   7  -2  197.58   80.89
   3   7  -2  354.16   87.09
   3   7  -2  416.46   69.39
   3   7  -2  418.36   49.30
   3   7  -2  339.17   50.89
  -3  -7   2  330.47   40.60
  -3  -7   2  359.26   49.90
  -3  -7   2  381.06   56.69
  -3  -7   2  317.57   51.09
  -3  -7   2  309.47   45.20
  -3  -7   2  366.66   36.00
  -3  -7   2  421.26   87.69
   2   7  -2  313.87   36.00
   2   7  -2  224.38   80.99
   2   7  -2  372.76   74.29
   2   7  -2  366.96   61.99
   2   7  -2  343.57   48.50
   2   7  -2  328.17   41.40
   2   7  -2  243.88   73.89
  -2  -7   2  340.97   41.90
  -2  -7   2  320.37   52.19
  -2  -7   2  371.96   37.60
  -2  -7   2  350.46   51.89
  -2  -7   2  346.67   55.19
  -2  -7   2  409.36   52.39
  -2  -7   2  369.16   43.00
   1   7  -2   50.59   32.20
   1   7  -2  105.29   37.10
   1   7  -2   59.79   33.40
   1   7  -2  119.69   36.80
  -1  -7   2  115.69   32.90
  -1  -7   2  106.89   19.50
  -1  -7   2   74.69   27.50
  -1  -7   2  131.49   34.20
   0   7  -2   16.20   20.60
   0   7  -2   26.40   17.70
   0   7  -2   29.40   25.30
   0   7  -2   59.99   22.90
   0   7  -2    8.20   19.70
   0  -7   2    9.40   23.90
   0  -7   2   17.30   11.50
   0  -7   2   26.30   19.30
   0  -7   2   33.90   15.50
   0  -7   2    7.90    7.10
  -1   7  -2   24.30   26.60
  -1   7  -2   54.99   33.90
  -1   7  -2    3.00   22.50
   1  -7   2   52.29   17.50
   1  -7   2   19.00   20.20
   1  -7   2   28.80   20.20
  -2   7  -2  221.58   76.19
  -2   7  -2  212.28   65.69
  -2   7  -2  431.16   96.29
   2  -7   2  260.97   35.60
   2  -7   2  251.07   57.79
   2  -7   2  307.27   58.69
  -3   7  -2  404.96   85.19
  -3   7  -2  431.56   97.69
  -3   7  -2  222.88   73.99
   3  -7   2  358.76   68.99
   3  -7   2  365.86   46.20
   3  -7   2  463.85   63.69
  -4   7  -2  147.89   71.99
  -4   7  -2  307.77   80.89
  -4   7  -2  173.78   64.29
   4  -7   2  172.18   51.59
   4  -7   2  176.38   53.09
   4  -7   2  206.38   40.40
  -5   7  -2   76.49   55.09
  -5   7  -2   19.20   49.00
  -5   7  -2  -39.90   28.20
   5  -7   2   21.30   31.50
   5  -7   2   45.30   35.50
   5  -7   2   76.69   20.90
  -6   7  -2   68.89   27.20
  -6   7  -2  -38.60   31.80
   6  -7   2    6.30   14.90
   6  -7   2   26.60   38.80
   6  -7   2   49.80   27.60
   9   6  -2  108.69   54.49
   9   6  -2  159.78   36.80
   9   6  -2   70.49   37.00
  -9  -6   2  121.29   45.70
  -9  -6   2  171.08   45.80
  -9  -6   2  140.09   48.80
   8   6  -2   17.30   18.00
   8   6  -2   -9.40   32.40
   8   6  -2   14.40   16.40
  -8  -6   2   17.10   17.80
  -8  -6   2  -14.90   21.30
  -8  -6   2   37.70   28.70
   7   6  -2   39.30   30.80
   7   6  -2   11.30   18.00
   7   6  -2   12.50   11.40
  -7  -6   2   -3.40   19.60
  -7  -6   2   10.00   18.60
  -7  -6   2   -7.90   11.90
   6   6  -2   17.20   14.50
   6   6  -2   16.90    8.90
   6   6  -2  -15.40   12.20
   6   6  -2   15.30    5.70
  -6  -6   2   20.00   17.10
  -6  -6   2   -7.60   13.50
  -6  -6   2    0.00   13.80
   5   6  -2   89.39   19.60
   5   6  -2   68.69   20.80
   5   6  -2   75.39   27.30
   5   6  -2   43.30   24.50
   5   6  -2   80.79   15.10
   5   6  -2   66.59   15.80
  -5  -6   2   48.40   23.20
  -5  -6   2   75.79   30.10
  -5  -6   2   68.69   18.70
  -5  -6   2   82.29   34.50
   4   6  -2  250.87   25.50
   4   6  -2  235.78   61.49
   4   6  -2  249.48   25.80
   4   6  -2  229.78   34.80
   4   6  -2  269.87   35.70
   4   6  -2  320.67   46.70
  -4  -6   2  252.97   44.70
  -4  -6   2  314.57   82.69
  -4  -6   2  223.98   28.30
  -4  -6   2  257.27   42.90
   3   6  -2  172.78   50.49
   3   6  -2  166.78   34.10
   3   6  -2  146.49   25.30
   3   6  -2  164.08   27.20
   3   6  -2  155.78   41.20
  -3  -6   2  157.18   26.10
  -3  -6   2  161.98   30.80
  -3  -6   2  131.99   37.10
  -3  -6   2  153.88   36.40
  -3  -6   2  168.88   31.90
  -3  -6   2  156.58   41.30
   2   6  -2  122.19   53.89
   2   6  -2  258.77   34.50
   2   6  -2  270.37   38.80
   2   6  -2  346.77   55.59
   2   6  -2  273.07   31.00
   2   6  -2  122.99   51.99
   2   6  -2  234.08   52.19
  -2  -6   2  294.57   36.70
  -2  -6   2  273.87   29.50
  -2  -6   2  251.67   38.40
  -2  -6   2  218.68   32.60
  -2  -6   2  297.97   45.10
  -2  -6   2  256.27   40.10
  -2  -6   2  254.87   44.10
   1   6  -2  134.69   37.50
   1   6  -2   83.89   40.90
   1   6  -2  150.08   33.70
   1   6  -2   74.49   19.80
   1   6  -2  116.89   49.70
   1   6  -2  131.19   38.10
  -1  -6   2   78.39   21.10
  -1  -6   2  144.09   26.30
  -1  -6   2  136.89   35.60
  -1  -6   2  111.09   33.10
  -1  -6   2  141.99   34.20
  -1  -6   2   83.49   30.00
  -1  -6   2  119.79   29.40
   0   6  -2  598.64   56.19
   0   6  -2  678.43   62.59
   0   6  -2  661.93   54.39
   0   6  -2  592.84   60.49
   0   6  -2  649.14   80.89
   0   6  -2  443.16  101.69
   0  -6   2  596.94   40.50
   0  -6   2  658.83   66.49
   0  -6   2  604.84   56.69
   0  -6   2  567.04   56.89
   0  -6   2  600.54   47.30
  -1   6  -2  441.36   79.49
  -1   6  -2  242.58   76.99
  -1   6  -2  370.76   40.00
  -1   6  -2  429.36   94.69
  -1   6  -2  417.56   50.19
  -1   6  -2  369.86   40.40
  -1   6  -2  237.58   64.79
   1  -6   2  397.96   52.59
   1  -6   2  362.76   50.69
   1  -6   2  298.07   73.49
   1  -6   2  368.56   48.50
   1  -6   2  217.38   72.29
  -2   6  -2 1205.08  116.99
  -2   6  -2  828.12  126.29
  -2   6  -2  990.00  120.79
   2  -6   2 1062.29   70.69
   2  -6   2 1185.98   91.89
   2  -6   2 1114.29   93.19
  -3   6  -2  696.63  120.99
  -3   6  -2  911.21  119.39
  -3   6  -2  890.91  105.59
   3  -6   2  756.72   81.89
   3  -6   2  755.52   76.99
   3  -6   2  744.43   60.09
  -4   6  -2  421.46   88.29
  -4   6  -2  457.05  116.89
  -4   6  -2  616.04  172.98
   4  -6   2  502.45   69.19
   4  -6   2  503.85   49.10
   4  -6   2  397.26   64.79
  -5   6  -2  219.08   61.89
  -5   6  -2  193.48   64.89
   5  -6   2  193.48   56.59
   5  -6   2  208.38   60.29
   5  -6   2  215.18   38.20
  -6   6  -2  -13.00   38.40
  -6   6  -2   -4.10   26.60
  -6   6  -2   30.10   23.30
   6  -6   2   -8.10   16.30
   6  -6   2   25.10   14.70
   6  -6   2   -7.00   34.60
   9   5  -2   -7.50   12.40
   9   5  -2   51.09   32.20
   9   5  -2  -16.30   27.10
  -9  -5   2  -27.20   17.90
  -9  -5   2  -27.00   20.20
  -9  -5   2   19.20   24.10
   8   5  -2   20.70   13.80
   8   5  -2   24.60   35.90
   8   5  -2   14.20   21.00
  -8  -5   2   41.40   28.50
  -8  -5   2   62.49   27.60
  -8  -5   2   56.59   23.90
   7   5  -2  120.29   42.80
   7   5  -2  132.19   29.70
   7   5  -2  127.39   44.30
  -7  -5   2  115.49   36.50
  -7  -5   2  126.89   43.00
  -7  -5   2  225.78   53.59
   6   5  -2  456.85   72.69
   6   5  -2  377.26   23.70
   6   5  -2  377.06   50.79
   6   5  -2  402.06   41.60
  -6  -5   2  428.96   59.79
  -6  -5   2  425.36   61.99
  -6  -5   2  394.46   55.29
   5   5  -2  156.38   38.50
   5   5  -2  180.48   15.80
   5   5  -2  122.79   46.70
   5   5  -2  129.99   28.00
   5   5  -2  192.58   16.90
   5   5  -2  176.28   15.00
  -5  -5   2  151.58   40.00
  -5  -5   2  126.79   35.90
  -5  -5   2  179.88   46.60
  -5  -5   2  162.58   19.70
   4   5  -2    1.00    4.80
   4   5  -2  -12.90   10.10
   4   5  -2   13.00    6.90
   4   5  -2   -3.90    5.00
   4   5  -2    2.30    4.10
  -4  -5   2   -1.10    9.00
  -4  -5   2   -3.00    6.20
   3   5  -2  402.66   32.60
   3   5  -2  370.66   39.20
   3   5  -2  358.96   38.60
   3   5  -2  430.56   32.10
   3   5  -2  330.97   25.40
   3   5  -2  430.46   63.49
  -3  -5   2  293.67   43.10
  -3  -5   2  349.77   46.90
  -3  -5   2  425.26   45.10
  -3  -5   2  343.17   42.20
  -3  -5   2  332.87   33.40
   2   5  -2  506.95   63.89
   2   5  -2  347.47   41.60
   2   5  -2  377.76   43.20
   2   5  -2  410.76   28.50
   2   5  -2  392.86   41.50
   2   5  -2  401.16   36.80
   2   5  -2  423.96   39.90
   2   5  -2  252.77   62.49
  -2  -5   2  383.66   47.10
  -2  -5   2  445.86   48.40
  -2  -5   2  419.86   44.30
  -2  -5   2  441.76   43.90
  -2  -5   2  359.86   47.60
  -2  -5   2  386.26   43.90
   1   5  -2   75.29   32.20
   1   5  -2  127.69   33.40
   1   5  -2   55.69   42.60
   1   5  -2   72.79   20.80
   1   5  -2   36.70   26.00
   1   5  -2   95.39   23.80
   1   5  -2   79.89   21.60
   1   5  -2  110.69   25.60
  -1  -5   2   97.09   24.70
  -1  -5   2   96.79   23.80
  -1  -5   2  100.59   25.90
  -1  -5   2   87.19   20.10
  -1  -5   2   80.59   17.50
  -1  -5   2  114.09   32.70
  -1  -5   2   63.89   23.90
   0   5  -2   29.60   10.30
   0   5  -2   35.90   15.70
   0   5  -2   24.30   13.10
   0   5  -2    4.50   12.60
   0   5  -2    3.70   10.00
   0   5  -2   11.50   22.80
   0  -5   2    9.30    9.60
   0  -5   2   16.90    7.80
   0  -5   2   21.30   13.50
   0  -5   2    9.10    5.50
   0  -5   2   22.40   10.30
  -1   5  -2   23.90   13.90
  -1   5  -2   26.10   14.90
  -1   5  -2   38.40   28.40
  -1   5  -2   60.99   35.80
  -1   5  -2   36.10   14.20
  -1   5  -2   90.79   26.90
  -1   5  -2   21.20   12.50
   1  -5   2   20.40   17.00
   1  -5   2   31.10   16.20
   1  -5   2   44.90   18.30
   1  -5   2   36.60   13.30
   1  -5   2   43.60   25.20
  -2   5  -2   46.10   35.40
  -2   5  -2  -19.80   19.00
  -2   5  -2    9.20   24.40
  -2   5  -2   99.79   36.40
   2  -5   2   19.60   14.20
   2  -5   2   32.50   10.80
   2  -5   2   69.29   19.10
   2  -5   2   50.09   21.30
  -3   5  -2  304.37   70.29
  -3   5  -2  327.47   83.29
  -3   5  -2  355.26   98.09
  -3   5  -2  415.96   85.09
   3  -5   2  256.47   51.69
   3  -5   2  304.07   48.20
   3  -5   2  313.57   34.30
  -4   5  -2  208.88   64.59
  -4   5  -2  317.67   82.99
  -4   5  -2  164.18   68.69
   4  -5   2  229.28   49.70
   4  -5   2  178.18   46.60
   4  -5   2  224.38   30.00
  -5   5  -2   31.80   35.20
  -5   5  -2   48.80   32.60
  -5   5  -2   80.79   37.70
   5  -5   2   37.20   28.30
   5  -5   2   64.39   31.90
   5  -5   2   71.89   19.00
  -6   5  -2   53.79   44.70
  -6   5  -2   50.69   54.89
  -6   5  -2   98.49   35.80
   6  -5   2   -1.80   17.20
   6  -5   2   69.79   37.30
   6  -5   2   32.80   20.70
  -7   5  -2    7.10   35.90
  -7   5  -2  131.29   57.39
  -7   5  -2  214.18   87.39
   7  -5   2   45.20   28.60
   7  -5   2   67.99   19.60
   7  -5   2   33.90   41.80
   9   4  -2    4.30   25.90
   9   4  -2    9.20   32.70
   9   4  -2   40.20   21.40
  -9  -4   2    7.30   26.20
  -9  -4   2   -1.20   20.20
  -9  -4   2    8.10   20.50
   8   4  -2   40.90   58.69
   8   4  -2   82.69   22.00
   8   4  -2   61.19   33.80
  -8  -4   2  104.19   32.80
  -8  -4   2  125.89   40.30
  -8  -4   2   69.99   31.20
   7   4  -2  154.28   32.30
   7   4  -2  131.19   54.19
   7   4  -2  172.38   49.99
  -7  -4   2  144.59   43.30
  -7  -4   2  173.58   44.50
  -7  -4   2  120.99   35.70
   6   4  -2  332.97   86.79
   6   4  -2  248.98   54.39
   6   4  -2  279.97   33.10
  -6  -4   2  249.68   42.30
  -6  -4   2  321.17   50.29
  -6  -4   2  240.88   58.59
   5   4  -2  118.29    9.50
   5   4  -2  137.19   25.30
   5   4  -2   71.39   33.50
   5   4  -2  107.69   17.80
   5   4  -2  137.19   11.50
   5   4  -2  106.69   30.00
  -5  -4   2   82.99   27.10
  -5  -4   2   98.29   29.20
  -5  -4   2  111.69   31.10
  -5  -4   2  133.69   16.10
   4   4  -2  126.09   42.50
   4   4  -2  130.89   30.60
   4   4  -2   97.89   21.50
   4   4  -2  100.79   10.70
   4   4  -2  124.89   12.90
   4   4  -2  125.79   11.20
  -4  -4   2  110.29   16.10
  -4  -4   2  102.29   26.80
  -4  -4   2  147.39   37.20
  -4  -4   2  119.39   31.90
   3   4  -2    4.30    6.00
   3   4  -2    5.80    3.70
   3   4  -2    0.70    3.60
   3   4  -2   18.20    9.20
   3   4  -2    0.10    4.00
   3   4  -2   29.20   10.90
  -3  -4   2    6.00    9.30
  -3  -4   2    2.70    7.10
  -3  -4   2    5.20    6.10
  -3  -4   2   -3.50    6.70
  -3  -4   2   -2.50    7.40
   2   4  -2   75.89   18.20
   2   4  -2  113.89   18.40
   2   4  -2   54.19   21.90
   2   4  -2   82.69   23.40
   2   4  -2   46.30   12.50
   2   4  -2   75.79   19.60
   2   4  -2   57.79   15.40
   2   4  -2   72.59    9.70
   2   4  -2   87.79   17.80
   2   4  -2   76.29   20.20
   2   4  -2   87.99   20.90
  -2  -4   2   70.79   19.20
  -2  -4   2   57.49   17.50
  -2  -4   2   68.29   13.50
  -2  -4   2   80.49   20.10
  -2  -4   2   79.29   24.10
  -2  -4   2   75.89   24.10
  -2  -4   2   95.39   21.50
   1   4  -2  741.53   38.20
   1   4  -2  741.33   49.80
   1   4  -2  728.33   48.20
   1   4  -2  687.33   57.89
   1   4  -2  755.12   56.59
   1   4  -2  807.02   77.89
   1   4  -2  774.52   56.69
   1   4  -2  737.53   54.69
   1   4  -2  877.41   72.99
  -1  -4   2  787.52   49.99
  -1  -4   2  767.12   56.19
  -1  -4   2  768.72   52.19
  -1  -4   2  766.32   53.49
  -1  -4   2  744.13   42.10
  -1  -4   2  683.23   61.59
  -1  -4   2  726.83   61.69
   0   4  -2 1415.36   95.89
   0   4  -2 1593.84   81.49
   0   4  -2 1694.53  109.29
   0   4  -2 1853.31   99.19
   0   4  -2 1439.46   80.09
   0   4  -2 1689.33   76.99
   0   4  -2 1528.85   84.09
   0   4  -2 1580.14   65.79
   0   4  -2 1536.55  109.89
   0  -4   2 1647.94   69.39
   0  -4   2 1653.83   90.79
   0  -4   2 1732.33   93.59
   0  -4   2 1717.03   84.99
   0  -4   2 1638.24   89.59
   0  -4   2 1697.23  105.29
  -1   4  -2 2010.70  106.39
  -1   4  -2 2489.75  149.69
  -1   4  -2 2480.95   88.89
  -1   4  -2 2477.45  106.99
  -1   4  -2 2428.96  113.39
   1  -4   2 2475.75   97.59
   1  -4   2 2449.85  115.19
   1  -4   2 2611.74  113.79
   1  -4   2 2446.86  118.49
  -2   4  -2  444.26   59.29
  -2   4  -2  350.56   83.49
  -2   4  -2  225.98   65.59
  -2   4  -2  369.86   42.20
   2  -4   2  406.96   46.40
   2  -4   2  454.35   35.60
   2  -4   2  416.16   43.20
   2  -4   2  376.66   40.70
  -3   4  -2  485.15   84.89
  -3   4  -2  532.05   70.09
  -3   4  -2  543.45   89.89
  -3   4  -2  340.87   47.90
   3  -4   2  480.65   52.19
   3  -4   2  504.75   50.69
   3  -4   2  497.85   52.29
   3  -4   2  523.95   40.80
  -4   4  -2   69.69   35.80
  -4   4  -2   93.69   45.10
   4  -4   2   32.10   24.00
   4  -4   2   45.50   21.70
   4  -4   2   67.19   17.90
  -5   4  -2  -28.50   18.60
  -5   4  -2   29.00   21.60
  -5   4  -2   -3.30   25.70
   5  -4   2   40.20   18.10
   5  -4   2   -4.70    5.10
  -6   4  -2  374.16   98.89
  -6   4  -2  373.16   88.39
  -6   4  -2  299.47   72.19
   6  -4   2  274.37   56.69
   6  -4   2  233.98   59.89
   6  -4   2  185.08   35.00
  -7   4  -2   59.09   39.40
  -7   4  -2  -45.90   38.90
  -7   4  -2  -15.80   25.40
   7  -4   2   34.10   15.10
   7  -4   2   17.20   30.20
   7  -4   2    6.40   18.90
  -8   4  -2  -28.70   31.80
  -8   4  -2  -37.20   35.30
  -8   4  -2  -10.20   48.10
   8  -4   2  -33.50   39.50
   8  -4   2  -26.80   10.60
   9   3  -2  -40.60   38.90
   9   3  -2  -48.40   40.80
   9   3  -2   11.90   15.30
  -9  -3   2  -12.70   21.60
  -9  -3   2  -18.30   17.60
  -9  -3   2    1.20   21.40
   8   3  -2   40.00   32.70
   8   3  -2    4.40   14.20
   8   3  -2    5.10   36.50
  -8  -3   2   19.70   20.50
  -8  -3   2   15.20   21.00
  -8  -3   2   31.40   25.40
   7   3  -2  -22.50   15.00
   7   3  -2    4.40    9.10
   7   3  -2   54.19   16.70
  -7  -3   2   14.10   17.40
  -7  -3   2   27.00   15.10
  -7  -3   2    9.10   15.40
   6   3  -2  103.69   37.00
   6   3  -2   67.99   20.30
   6   3  -2   52.79   36.30
  -6  -3   2  119.49   33.30
  -6  -3   2   88.19   29.00
  -6  -3   2   65.29   31.20
   5   3  -2  557.54   59.49
   5   3  -2  557.24   36.00
   5   3  -2  674.93   91.99
   5   3  -2  538.25   42.50
  -5  -3   2  624.54   35.10
  -5  -3   2  538.85   58.59
  -5  -3   2  550.34   55.19
  -5  -3   2  609.64   67.19
   4   3  -2 1178.48   43.10
   4   3  -2 1221.18   38.80
   4   3  -2 1187.98   50.99
   4   3  -2 1198.18   62.59
   4   3  -2 1200.38   80.09
   4   3  -2 1373.36  120.59
  -4  -3   2 1202.38   55.29
  -4  -3   2 1288.67   79.79
  -4  -3   2 1113.99   85.69
  -4  -3   2 1177.58   83.29
   3   3  -2  623.84   31.10
   3   3  -2  580.84   46.90
   3   3  -2  599.24   27.80
   3   3  -2  608.74   48.40
   3   3  -2  603.24   39.20
   3   3  -2  647.54   74.79
   3   3  -2  675.23   49.20
   3   3  -2  592.94   27.20
  -3  -3   2  650.43   46.80
  -3  -3   2  561.74   53.79
  -3  -3   2  608.84   65.69
  -3  -3   2  619.14   37.20
  -3  -3   2  589.14   52.19
   2   3  -2 2007.50   99.09
   2   3  -2 2090.39   92.99
   2   3  -2 1985.70  100.29
   2   3  -2 1939.11   95.69
   2   3  -2 2021.90   68.39
   2   3  -2 2080.39   78.89
   2   3  -2 2304.87  122.39
   2   3  -2 2016.60   89.39
   2   3  -2 2252.17  132.79
   2   3  -2 2134.89   74.09
   2   3  -2 2086.99   93.29
  -2  -3   2 2021.20   97.19
  -2  -3   2 2111.19   95.29
  -2  -3   2 2149.19   72.79
  -2  -3   2 2133.19   93.09
  -2  -3   2 2025.10   83.89
  -2  -3   2 2084.99  104.29
  -2  -3   2 1933.11  102.99
   1   3  -2  222.08   28.30
   1   3  -2  228.98   16.40
   1   3  -2  220.68   27.20
   1   3  -2  141.59   46.30
   1   3  -2  220.58   22.50
   1   3  -2  214.98   24.00
   1   3  -2  247.68   26.20
   1   3  -2  296.57   39.30
   1   3  -2  235.38   22.10
   1   3  -2  238.48   24.80
   1   3  -2  225.08   22.80
  -1  -3   2  189.58   23.70
  -1  -3   2  207.88   24.10
  -1  -3   2  223.18   30.20
  -1  -3   2  222.58   23.70
  -1  -3   2  227.28   24.10
  -1  -3   2  187.58   27.80
  -1  -3   2  228.88   18.50
   0   3  -2 3808.02  151.08
   0   3  -2 3664.03  131.89
   0   3  -2 3736.63  126.49
   0   3  -2 3798.32  140.19
   0   3  -2 3611.34  115.69
   0   3  -2 3674.73  134.29
   0   3  -2 3543.35  155.18
   0   3  -2 3966.50  159.68
   0  -3   2 3588.24  157.78
   0  -3   2 3759.22  120.79
   0  -3   2 3700.43  122.19
   0  -3   2 3711.93  130.49
   0  -3   2 3562.94  136.49
   0  -3   2 3636.44  138.09
  -1   3  -2 2776.92  116.69
  -1   3  -2 2962.00  114.59
  -1   3  -2 2853.61  141.39
  -1   3  -2 2871.51  110.59
  -1   3  -2 2845.12   96.19
  -1   3  -2 2953.80   92.99
  -1   3  -2 2667.33  147.29
   1  -3   2 2875.71  111.49
   1  -3   2 2748.82  100.39
   1  -3   2 2850.31  119.49
   1  -3   2 3036.10  122.09
  -2   3  -2 4926.31  277.37
  -2   3  -2 5962.60  248.68
  -2   3  -2 6029.10  209.48
  -2   3  -2 5660.83  187.38
  -2   3  -2 4672.23  273.27
  -2   3  -2 5816.32  201.48
   2  -3   2 5719.53  204.48
   2  -3   2 5797.72  203.28
   2  -3   2 5636.34  179.18
   2  -3   2 5966.10  201.88
  -3   3  -2  346.57   38.20
  -3   3  -2  340.37   82.19
  -3   3  -2  379.36   68.49
  -3   3  -2  389.16   54.99
   3  -3   2  438.96   43.50
   3  -3   2  381.66   41.40
   3  -3   2  409.06   32.50
   3  -3   2  448.36   46.50
  -4   3  -2   48.50   39.30
  -4   3  -2   61.99   16.20
  -4   3  -2   95.09   39.90
  -4   3  -2   56.29   24.30
   4  -3   2   35.00   12.50
   4  -3   2   52.89   20.10
   4  -3   2   29.00   17.50
  -5   3  -2    7.00   18.00
  -5   3  -2   -2.40   24.40
  -5   3  -2   22.40   22.40
   5  -3   2   47.80   20.90
   5  -3   2    6.30    9.70
   5  -3   2   -5.50   12.10
  -6   3  -2   95.59   41.80
  -6   3  -2  157.28   62.89
  -6   3  -2  239.18   79.49
   6  -3   2  173.08   42.20
   6  -3   2  103.29   34.30
   6  -3   2  185.48   25.50
  -7   3  -2  442.86   83.19
  -7   3  -2  416.36   81.99
   7  -3   2  347.57   66.39
   7  -3   2  466.05   43.90
   7  -3   2  470.55   90.89
   7  -3   2  433.76   55.89
  -8   3  -2   93.79   63.89
  -8   3  -2  111.19   50.49
  -8   3  -2   83.19   44.30
   8  -3   2   89.29   34.60
   8  -3   2   88.19   23.60
   8  -3   2  -18.90   42.10
   9   2  -2  -28.00   42.20
   9   2  -2  -23.30   49.40
   9   2  -2   40.60   20.50
  -9  -2   2   25.80   28.60
  -9  -2   2    2.40   28.00
   8   2  -2  122.39   32.90
   8   2  -2   35.20   42.20
   8   2  -2  146.89   52.79
  -8  -2   2  155.48   51.69
  -8  -2   2  113.39   48.80
  -8  -2   2  130.09   35.10
   7   2  -2   26.40   27.40
   7   2  -2   33.00   28.50
   7   2  -2   20.80   15.50
  -7  -2   2   33.40   19.20
  -7  -2   2   12.20   18.40
  -7  -2   2   27.80   19.20
  -7  -2   2   23.20   13.70
   6   2  -2   33.70   31.10
   6   2  -2   38.40   16.30
   6   2  -2    2.40   13.30
   6   2  -2   40.20   17.80
  -6  -2   2   19.30   19.70
  -6  -2   2   14.20   18.60
  -6  -2   2   48.70   21.20
   5   2  -2   14.50   12.50
   5   2  -2   -2.50    5.90
   5   2  -2   17.40    9.10
   5   2  -2    7.80   13.00
  -5  -2   2   -1.80    8.20
  -5  -2   2    4.80   10.70
  -5  -2   2    1.80    4.20
  -5  -2   2   -1.70    7.40
   4   2  -2   47.20   20.10
   4   2  -2   53.09   27.30
   4   2  -2   44.90   12.20
   4   2  -2   50.89   11.90
  -4  -2   2   34.80   16.40
  -4  -2   2   42.80   10.80
  -4  -2   2   34.20   18.70
  -4  -2   2   37.50   15.30
   3   2  -2    8.30    9.20
   3   2  -2    3.70    8.40
   3   2  -2   19.60    7.10
   3   2  -2    9.70    4.80
   3   2  -2    6.40   11.50
  -3  -2   2   19.30    7.20
  -3  -2   2    8.50    4.70
  -3  -2   2   11.10    8.60
  -3  -2   2   15.20    7.00
   2   2  -2   72.29   16.80
   2   2  -2   49.90   18.40
   2   2  -2   60.49   17.50
   2   2  -2   45.70   22.80
   2   2  -2   35.60   10.50
   2   2  -2   47.90    6.00
   2   2  -2   52.29   13.90
   2   2  -2   50.29    5.20
   2   2  -2   67.19    9.50
   2   2  -2   57.69   10.40
  -2  -2   2   35.10   12.80
  -2  -2   2   43.00   19.70
  -2  -2   2   44.10   11.00
  -2  -2   2   55.09   12.40
  -2  -2   2   63.49   15.80
  -2  -2   2   52.99   16.50
   1   2  -2   29.90   10.80
   1   2  -2   36.10   13.10
   1   2  -2   46.10   10.20
   1   2  -2   44.10   10.00
   1   2  -2   39.00    5.30
   1   2  -2   33.20   10.30
   1   2  -2   37.00    9.50
   1   2  -2   65.49   16.50
   1   2  -2   36.00    9.50
   1   2  -2   41.90    9.50
  -1  -2   2   47.90   15.00
  -1  -2   2   32.70    6.10
  -1  -2   2   33.40    9.20
  -1  -2   2   29.80    9.80
  -1  -2   2   30.30   14.10
  -1  -2   2   60.59   17.70
  -1  -2   2   36.10    9.80
  -1  -2   2   32.30    9.80
   0   2  -2   93.19   21.40
   0   2  -2   56.09   25.70
   0   2  -2   91.59   11.70
   0   2  -2   74.29   11.90
   0   2  -2   77.39   12.30
   0   2  -2   83.49    9.70
   0   2  -2  103.79   18.60
   0   2  -2   72.39   22.00
   0   2  -2   85.89   11.90
   0   2  -2   89.09    8.50
   0  -2   2   80.79   16.40
   0  -2   2   94.29   11.30
   0  -2   2   85.59   13.20
   0  -2   2   82.59   20.30
   0  -2   2  121.09   26.20
   0  -2   2   56.69   25.10
   0  -2   2   91.19   20.90
   0  -2   2   71.29    8.60
  -1   2  -2  408.26   57.69
  -1   2  -2  528.45   26.50
  -1   2  -2  563.84   48.80
  -1   2  -2  544.05   32.40
  -1   2  -2  580.94   32.20
  -1   2  -2  509.45   36.80
   1  -2   2  540.95   36.70
   1  -2   2  557.54   29.40
   1  -2   2  538.75   38.70
   1  -2   2  558.24   30.90
   1  -2   2  576.74   42.00
  -2   2  -2  819.32   37.20
  -2   2  -2  784.22   69.49
  -2   2  -2  743.83   84.29
  -2   2  -2  927.91   47.90
  -2   2  -2  837.12   47.20
  -2   2  -2  712.33   87.69
  -2   2  -2  835.52   48.20
  -2   2  -2  756.52   51.99
   2  -2   2  859.01   51.29
   2  -2   2  791.72   49.30
   2  -2   2  866.01   53.59
   2  -2   2  831.12   40.70
  -3   2  -2    8.30    5.60
  -3   2  -2   19.30    8.70
  -3   2  -2   13.30   19.70
  -3   2  -2   18.70   15.20
  -3   2  -2   26.10   18.60
  -3   2  -2   14.70    7.80
   3  -2   2   48.10   21.90
   3  -2   2   12.10    9.50
   3  -2   2   28.00   11.70
   3  -2   2   19.50    7.70
   3  -2   2  -15.70   11.30
   3  -2   2    9.20    4.80
  -4   2  -2   65.39   15.70
  -4   2  -2   57.29   35.70
  -4   2  -2   57.29   28.00
  -4   2  -2   60.19   21.00
  -4   2  -2   59.79   10.20
   4  -2   2   34.00   14.00
   4  -2   2   34.60   11.20
   4  -2   2   53.89   17.60
   4  -2   2   19.10   19.90
  -5   2  -2  -15.10   23.00
  -5   2  -2   19.40    8.40
  -5   2  -2  -13.30   13.90
  -5   2  -2   13.90   30.70
   5  -2   2   14.30    9.90
   5  -2   2   12.80    6.50
   5  -2   2  -21.70   14.90
  -6   2  -2   22.60   29.90
  -6   2  -2   92.69   37.30
  -6   2  -2   51.49   13.70
  -6   2  -2  136.99   47.80
   6  -2   2   52.19   17.90
   6  -2   2   33.80   24.40
   6  -2   2   17.00   13.60
  -7   2  -2  117.79   46.70
  -7   2  -2   83.39   40.70
  -7   2  -2  146.29   69.79
   7  -2   2   99.19   28.00
   7  -2   2  144.29   37.80
   7  -2   2  143.89   44.30
   7  -2   2  100.99   23.90
  -8   2  -2  172.78   70.89
  -8   2  -2  138.29   50.19
  -8   2  -2  186.28   65.39
   8  -2   2  103.69   48.40
   8  -2   2  220.78   30.30
   8  -2   2  139.39   60.39
   8  -2   2  129.99   39.40
  -9   2  -2   89.79   56.89
   9  -2   2  132.09   32.90
   9  -2   2   83.49   26.70
   9  -2   2   44.00   47.40
   9   1  -2    3.90   17.20
   9   1  -2   48.70   60.89
   9   1  -2  112.89   43.60
  -9  -1   2   62.79   29.50
  -9  -1   2   35.60   30.90
   8   1  -2   74.19   62.59
   8   1  -2   74.49   44.50
   8   1  -2   58.79   29.00
  -8  -1   2  134.59   44.90
  -8  -1   2   89.79   40.00
  -8  -1   2  127.19   30.80
   7   1  -2   45.50   25.50
   7   1  -2   83.29   12.40
   7   1  -2   47.20   39.40
   7   1  -2   78.79   25.20
   7   1  -2   94.69   43.30
  -7  -1   2  132.69   35.60
  -7  -1   2  143.09   42.90
  -7  -1   2   77.99   13.30
  -7  -1   2  134.99   22.30
  -7  -1   2  121.69   39.40
   6   1  -2  126.39   54.29
   6   1  -2  278.57   36.10
   6   1  -2  212.18   16.20
   6   1  -2  216.08   31.10
   6   1  -2  200.18   55.09
  -6  -1   2  241.08   22.50
  -6  -1   2  260.37   54.69
  -6  -1   2  238.38   16.30
  -6  -1   2  224.88   52.79
  -6  -1   2  224.78   38.50
   5   1  -2  -14.30   12.70
   5   1  -2   20.40   11.10
   5   1  -2    9.00    6.90
   5   1  -2    5.20   16.20
   5   1  -2    5.70    4.60
  -5  -1   2   22.20    6.30
  -5  -1   2   17.60    4.70
  -5  -1   2   15.20    9.20
  -5  -1   2   26.00   20.60
   4   1  -2  336.97   47.10
   4   1  -2  372.96   32.00
   4   1  -2  354.06   30.80
   4   1  -2  412.76   65.39
  -4  -1   2  350.96   39.60
  -4  -1   2  412.56   44.90
  -4  -1   2  343.37   44.50
   3   1  -2 1628.44   93.69
   3   1  -2 1684.03   89.69
   3   1  -2 1695.03   94.49
   3   1  -2 1716.33   96.29
   3   1  -2 1696.53   71.39
   3   1  -2 1782.82  183.38
   3   1  -2 1737.43   70.29
  -3  -1   2 1617.04   92.19
  -3  -1   2 1691.13   86.49
  -3  -1   2 1724.93   62.79
  -3  -1   2 1992.10  131.79
  -3  -1   2 1727.53   73.79
   2   1  -2 5145.29  187.28
   2   1  -2 5476.45  161.58
   2   1  -2 5553.04  184.88
   2   1  -2 5349.86  160.18
   2   1  -2 5491.75  230.58
   2   1  -2 5387.46  188.38
   2   1  -2 5305.87  183.98
  -2  -1   2 5620.24  182.48
  -2  -1   2 5291.27  163.78
  -2  -1   2 5576.64  183.58
  -2  -1   2 6314.07  230.08
  -2  -1   2 5343.56  182.78
  -2  -1   2 5319.87  189.68
  -2  -1   2 5397.26  159.08
   1   1  -2 7493.85  230.38
   1   1  -2 7833.32  238.68
   1   1  -2 7620.34  209.68
   1   1  -2 7627.84  214.98
   1   1  -2 7497.45  230.08
   1   1  -2 7598.64  277.67
   1   1  -2 8055.99  232.48
   1   1  -2 7807.32  201.68
  -1  -1   2 7693.43  203.48
  -1  -1   2 7554.74  241.28
  -1  -1   2 7611.64  235.48
  -1  -1   2 7856.41  227.68
  -1  -1   2 7542.25  218.28
  -1  -1   2 7512.85  213.38
  -1  -1   2 8429.46  274.87
   0   1  -2 5635.14  179.58
   0   1  -2 4531.55  200.08
   0   1  -2 5600.04  183.78
   0   1  -2 5493.45  162.38
   0   1  -2 5528.15  151.68
   0   1  -2 5547.34  154.88
   0  -1   2 5376.26  164.68
   0  -1   2 5676.43  153.98
   0  -1   2 5565.64  153.68
   0  -1   2 5619.74  150.18
   0  -1   2 5478.45  181.68
   0  -1   2 5237.48  183.98
   0  -1   2 5706.63  206.28
  -1   1  -2 2099.59   63.59
  -1   1  -2 1936.11   91.09
  -1   1  -2 1951.30   75.79
  -1   1  -2 2059.79   66.99
   1  -1   2 1978.80   77.69
   1  -1   2 1965.80   64.19
   1  -1   2 2112.39   94.69
   1  -1   2 1880.91   68.49
  -2   1  -2   17.10    4.60
  -2   1  -2   13.70    3.30
  -2   1  -2   19.10    7.30
  -2   1  -2   16.70   17.00
  -2   1  -2   35.40   12.10
  -2   1  -2   14.00   13.00
  -2   1  -2   10.00    4.90
   2  -1   2   23.90   13.90
   2  -1   2   11.50    4.40
   2  -1   2   19.70    8.90
   2  -1   2   19.90   11.90
   2  -1   2   22.60   12.40
   2  -1   2    8.90    6.30
   2  -1   2   25.10    8.30
  -3   1  -2  442.46   34.30
  -3   1  -2  379.16   22.50
  -3   1  -2  406.66   30.50
  -3   1  -2  396.86   27.80
  -3   1  -2  436.06   61.69
  -3   1  -2  375.36   31.20
  -3   1  -2  426.96   45.30
  -3   1  -2  332.47   59.29
   3  -1   2  405.76   32.60
   3  -1   2  287.57   51.19
   3  -1   2  347.57   35.50
   3  -1   2  351.36   30.70
   3  -1   2  379.56   24.50
   3  -1   2  345.07   56.59
  -4   1  -2  352.76   30.80
  -4   1  -2  351.46   45.10
  -4   1  -2  404.46   64.49
  -4   1  -2  377.06   33.80
  -4   1  -2  270.87   28.10
  -4   1  -2  478.05   68.49
   4  -1   2  282.37   31.00
   4  -1   2  290.17   37.60
   4  -1   2  324.07   24.90
   4  -1   2  363.36   32.80
   4  -1   2  317.07   39.90
  -5   1  -2  373.46   35.70
  -5   1  -2  426.56   70.69
  -5   1  -2  330.37   33.80
  -5   1  -2  483.55   72.59
  -5   1  -2  343.07   46.20
   5  -1   2  356.76   50.49
   5  -1   2  343.77   28.00
   5  -1   2  388.36   47.10
   5  -1   2  348.37   47.60
  -6   1  -2  136.89   51.59
  -6   1  -2   66.99   28.60
  -6   1  -2   93.39   40.00
  -6   1  -2  106.39   19.90
   6  -1   2   67.69   21.80
   6  -1   2   43.10   13.10
   6  -1   2   51.49   27.80
   6  -1   2   26.40   13.40
  -7   1  -2  157.18   56.49
  -7   1  -2  188.78   44.10
  -7   1  -2  206.08   32.80
  -7   1  -2  202.28   71.69
   7  -1   2  200.08   57.89
   7  -1   2  156.88   47.00
   7  -1   2  149.79   26.40
   7  -1   2  142.69   34.60
  -8   1  -2  -19.10   39.80
  -8   1  -2   43.30   20.40
  -8   1  -2   22.00   28.20
  -8   1  -2    5.90   32.80
   8  -1   2   76.99   48.10
   8  -1   2   34.40   13.80
   8  -1   2    4.60   13.30
   8  -1   2   -8.40   27.60
  -9   1  -2   16.70   19.80
  -9   1  -2  -44.70   34.50
  -9   1  -2  -41.80   27.00
   9  -1   2   24.30   12.80
   9  -1   2   -1.70   12.20
   9  -1   2   19.90   58.09
   8   0  -2   69.29   20.90
   8   0  -2   82.49   29.70
   8   0  -2   45.80   45.80
  -8   0   2   60.89   18.80
  -8   0   2   59.69   36.90
  -8   0   2   70.09   37.90
   7   0  -2   40.60   11.40
   7   0  -2   27.60   28.70
   7   0  -2   60.99   44.90
   7   0  -2   56.99   20.00
  -7   0   2   46.80   22.90
  -7   0   2   69.09   19.60
  -7   0   2   90.49   38.60
  -7   0   2   25.20   10.40
   6   0  -2  410.16   45.60
   6   0  -2  403.06   97.09
   6   0  -2  337.37   25.00
   6   0  -2  415.86   86.09
  -6   0   2  459.85   64.49
  -6   0   2  388.36   22.80
  -6   0   2  380.56   56.89
  -6   0   2  428.06   38.40
   5   0  -2  307.77   34.80
   5   0  -2  305.97   72.19
   5   0  -2  309.77   39.30
   5   0  -2  442.16   85.39
   5   0  -2  324.87   21.20
  -5   0   2  360.56   18.80
  -5   0   2  343.17   51.79
   4   0  -2  906.41   63.09
   4   0  -2  862.91   84.39
   4   0  -2  918.51   38.30
   4   0  -2 1075.29  104.69
   4   0  -2  912.41   56.89
  -4   0   2 1008.00   66.79
  -4   0   2  978.10   34.00
  -4   0   2 1059.79   79.19
  -4   0   2 1063.19   78.59
  -4   0   2  976.40   53.39
   3   0  -2  550.84   44.10
   3   0  -2  628.34   39.10
   3   0  -2  591.04   52.29
   3   0  -2  585.14   67.09
   3   0  -2  585.64   60.59
   3   0  -2  573.44   24.20
   3   0  -2  508.35   39.70
  -3   0   2  630.24   37.10
  -3   0   2  581.14   51.39
  -3   0   2  615.04   45.40
  -3   0   2  555.94   20.90
  -3   0   2  541.95   52.89
  -3   0   2  616.34   37.40
   2   0  -2 1549.24  117.39
   2   0  -2 1785.02   67.89
   2   0  -2 1746.83   52.99
   2   0  -2 1767.32   79.29
   2   0  -2 1751.32   73.69
   2   0  -2 1793.52   85.19
   2   0  -2 1835.52   99.99
   2   0  -2 1774.02  116.29
  -2   0   2 2114.89  112.89
  -2   0   2 1868.31   68.69
  -2   0   2 1709.63  105.39
  -2   0   2 1836.42   84.49
  -2   0   2 1825.72   85.29
  -2   0   2 1843.22   67.79
   1   0  -2 4582.94  150.08
   1   0  -2 4692.33  131.79
   1   0  -2 4534.95  139.19
   1   0  -2 4012.20  189.48
   1   0  -2 4640.04  166.48
   1   0  -2 4722.83  151.18
  -1   0   2 4665.43  158.78
  -1   0   2 4603.74  121.99
  -1   0   2 4495.65  130.29
  -1   0   2 4815.42  191.88
  -1   0   2 4547.65  151.98
  -1   0   2 4614.94  135.29
  -1   0   2 4715.03  149.09
   0   0  -2 1664.13   69.39
   0   0  -2 1582.74   61.09
   0   0  -2 1574.14   53.59
   0   0  -2 1505.65   66.29
   0   0   2 1557.94   46.00
   0   0   2 1567.84   65.69
   0   0   2 1573.54   63.19
   0   0   2 1528.35   69.09
   0   0   2 1507.85   53.69
  -1   0  -2 7438.26  196.48
  -1   0  -2 5953.80  243.58
  -1   0  -2 7028.70  212.08
  -1   0  -2 6900.81  187.08
  -1   0  -2 7179.58  191.68
   1   0   2 7294.27  214.08
   1   0   2 6757.92  188.38
   1   0   2 7132.49  198.28
   1   0   2 6616.44  186.68
  -2   0  -2 2757.82   90.19
  -2   0  -2 2709.63   80.49
  -2   0  -2 2240.08  128.19
  -2   0  -2 2657.23   88.09
  -2   0  -2 2429.06  148.89
  -2   0  -2 2884.21  124.59
  -2   0  -2 2685.73   85.59
   2   0   2 2632.94   87.79
   2   0   2 2744.23   81.49
   2   0   2 2743.43   84.99
   2   0   2 2466.25  126.19
   2   0   2 2554.94   87.79
   2   0   2 2731.03   92.29
  -3   0  -2   26.90    9.70
  -3   0  -2   22.50    6.60
  -3   0  -2   17.10    4.50
  -3   0  -2   17.40    7.20
  -3   0  -2   16.80    9.80
  -3   0  -2   24.30    7.90
  -3   0  -2   21.30   16.30
  -3   0  -2   41.30   17.10
   3   0   2   25.60    6.40
   3   0   2   22.30   16.20
   3   0   2   18.40    7.90
   3   0   2   26.30   14.50
   3   0   2   11.90   16.70
   3   0   2   13.40    5.50
   3   0   2   16.20    7.80
   3   0   2   23.50    7.80
  -4   0  -2  408.36   56.29
  -4   0  -2  361.76   28.80
  -4   0  -2  410.66   61.99
  -4   0  -2  334.07   31.00
  -4   0  -2  431.66   41.40
  -4   0  -2  362.86   22.20
  -4   0  -2  383.86   38.50
   4   0   2  389.76   29.80
   4   0   2  382.96   24.40
   4   0   2  357.36   30.90
   4   0   2  370.16   32.40
   4   0   2  305.27   53.79
   4   0   2  326.17   43.80
   4   0   2  378.06   37.10
  -5   0  -2  986.40   56.49
  -5   0  -2 1193.78   75.49
  -5   0  -2 1169.58  104.59
  -5   0  -2 1314.87  116.59
   5   0   2  951.50   82.79
   5   0   2 1130.69   80.89
   5   0   2 1095.59   50.49
   5   0   2  996.80   64.99
  -6   0  -2 1413.06   74.29
  -6   0  -2 1820.12  140.79
  -6   0  -2 1752.52   95.49
  -6   0  -2 1675.83   99.79
  -6   0  -2 1690.53  139.29
   6   0   2 1452.45   89.29
   6   0   2 1384.46  108.79
   6   0   2 1457.55   67.29
  -7   0  -2   13.60   15.50
  -7   0  -2   17.00   11.90
  -7   0  -2   35.60   17.40
  -7   0  -2  -11.30   23.50
  -7   0  -2   49.80   37.50
   7   0   2   -7.70   19.60
   7   0   2   19.20   14.00
   7   0   2   39.20   20.40
   7   0   2   12.50    8.80
  -8   0  -2   86.99   29.60
  -8   0  -2  145.49   56.69
  -8   0  -2   89.69   37.80
  -8   0  -2  171.08   38.80
   8   0   2  103.29   21.30
   8   0   2   89.59   41.00
   8   0   2   41.10   37.00
   8   0   2  114.39   38.70
  -9   0  -2   32.10   20.70
  -9   0  -2  -17.20   36.80
  -9   0  -2   31.10   36.00
   9   0   2   67.49   52.59
   9   0   2  -21.60   34.40
   9   0   2   46.30   17.30
   9   0   2    0.10   17.40
   8  -1  -2   33.80   20.70
   8  -1  -2   13.30   36.20
   8  -1  -2  -27.00   41.80
   8  -1  -2   18.20   11.90
  -8   1   2    8.70   32.10
  -8   1   2   51.19   23.40
  -8   1   2  -35.40   19.60
  -8   1   2   13.80   15.30
   7  -1  -2   36.20   49.60
   7  -1  -2   92.59   16.50
   7  -1  -2  -32.80   36.90
   7  -1  -2   33.20   20.50
  -7   1   2   71.89   34.20
  -7   1   2   81.69   32.30
  -7   1   2   82.49   29.10
   6  -1  -2   -6.80    9.90
   6  -1  -2   -2.00    7.00
   6  -1  -2  -33.50   21.40
  -6   1   2    3.70   13.00
  -6   1   2   -7.30   19.90
  -6   1   2   -5.10   12.90
  -6   1   2   -7.10    5.00
   5  -1  -2   22.80   12.40
   5  -1  -2    6.60   15.40
   5  -1  -2  -21.00   19.20
  -5   1   2   17.20   23.50
  -5   1   2   17.70   12.20
  -5   1   2   -0.80   18.40
   4  -1  -2  218.08   52.39
   4  -1  -2  241.18   43.10
   4  -1  -2  225.48   28.90
   4  -1  -2  271.57   51.49
   4  -1  -2  235.18   19.00
  -4   1   2  232.68   48.60
  -4   1   2  245.98   37.20
  -4   1   2  251.87   30.40
  -4   1   2  210.78   15.10
   3  -1  -2  204.98   50.89
   3  -1  -2  176.88   14.60
   3  -1  -2  162.68   22.00
   3  -1  -2  152.98   34.10
   3  -1  -2  142.29   20.10
   3  -1  -2  150.98   30.70
   3  -1  -2  149.69   40.40
  -3   1   2  183.08   20.30
  -3   1   2  194.88   33.10
  -3   1   2  242.98   36.60
  -3   1   2  156.88   24.10
  -3   1   2  149.29   12.00
  -3   1   2  192.68   32.70
   2  -1  -2   67.29   24.70
   2  -1  -2   82.69   21.40
   2  -1  -2   70.69   18.30
   2  -1  -2   70.09   31.40
   2  -1  -2   68.59    8.60
   2  -1  -2   87.09   13.30
   2  -1  -2   64.39   12.10
   2  -1  -2  102.89   22.80
  -2   1   2   79.39   17.30
  -2   1   2   90.09   25.20
  -2   1   2   64.49   20.40
  -2   1   2   76.49   20.20
  -2   1   2   71.29    9.40
  -2   1   2   64.69   13.20
  -2   1   2   75.59   18.80
  -2   1   2   73.99    7.80
   1  -1  -2    7.40    5.40
   1  -1  -2    4.00    2.90
   1  -1  -2    7.50    5.90
   1  -1  -2   10.70    4.40
   1  -1  -2   18.70    8.00
   1  -1  -2    7.60    9.50
   1  -1  -2   27.80    9.50
  -1   1   2   12.10    3.70
  -1   1   2   11.40    5.50
  -1   1   2    6.90    3.30
  -1   1   2   15.00   10.20
  -1   1   2   20.20    7.60
  -1   1   2   10.70    6.80
  -1   1   2    6.70    4.40
   0  -1  -2   33.70   13.90
   0  -1  -2   62.89    9.50
   0  -1  -2   44.30   20.50
   0  -1  -2   59.79   16.10
   0  -1  -2   66.59   12.60
   0  -1  -2   64.69   11.00
   0  -1  -2   54.69    8.50
   0   1   2   71.19    9.60
   0   1   2   58.79   11.10
   0   1   2   67.89    9.90
   0   1   2   53.19    9.00
   0   1   2   80.49   19.40
   0   1   2   59.89    6.60
  -1  -1  -2  501.65   22.90
  -1  -1  -2  483.25   23.70
  -1  -1  -2  475.75   50.89
  -1  -1  -2  470.35   32.10
  -1  -1  -2  469.15   23.70
   1   1   2  490.45   22.60
   1   1   2  474.25   27.70
   1   1   2  452.05   24.80
   1   1   2  471.55   21.20
   1   1   2  503.05   34.10
   1   1   2  488.75   26.00
  -2  -1  -2  135.79   31.30
  -2  -1  -2  162.68   28.80
  -2  -1  -2  116.99   13.30
  -2  -1  -2   90.99    8.60
  -2  -1  -2   89.39   13.30
  -2  -1  -2  100.79    9.50
  -2  -1  -2  104.89   17.80
   2   1   2  144.89   24.50
   2   1   2   88.69    8.60
   2   1   2   89.19   11.20
   2   1   2   73.79   19.20
   2   1   2   52.79   22.00
   2   1   2  102.59    9.90
   2   1   2   75.69   11.20
   2   1   2   89.89   14.80
  -3  -1  -2    6.20    5.80
  -3  -1  -2    2.10    2.60
  -3  -1  -2    8.10    2.50
  -3  -1  -2   24.00   10.40
  -3  -1  -2    8.60    9.70
  -3  -1  -2    9.60    8.30
   3   1   2    2.70    3.20
   3   1   2   13.40   12.50
   3   1   2    0.00    5.70
   3   1   2    9.00    9.10
   3   1   2   -2.90    3.80
  -4  -1  -2  523.65   39.50
  -4  -1  -2  628.24   68.49
  -4  -1  -2  533.75   52.09
  -4  -1  -2  473.15   27.30
  -4  -1  -2  574.04   58.49
  -4  -1  -2  535.35   28.80
  -4  -1  -2  602.94   41.20
   4   1   2  541.45   27.50
   4   1   2  511.85   29.20
   4   1   2  407.76   53.59
   4   1   2  498.45   55.29
   4   1   2  540.95   42.30
   4   1   2  528.05   40.90
   4   1   2  532.35   38.00
  -5  -1  -2 1026.00   76.49
  -5  -1  -2 1125.29   59.09
  -5  -1  -2  922.21   44.80
  -5  -1  -2 1013.60   88.19
  -5  -1  -2 1004.30   97.49
   5   1   2  941.11   59.39
   5   1   2  948.71   43.70
   5   1   2  980.40   68.49
  -6  -1  -2  886.01   89.09
  -6  -1  -2  938.71   99.19
  -6  -1  -2  709.53   40.50
  -6  -1  -2  779.32   51.99
  -6  -1  -2  854.21   74.29
   6   1   2  766.12   57.99
   6   1   2  735.33   40.60
   6   1   2  807.02   70.39
  -7  -1  -2  227.58   21.50
  -7  -1  -2  238.58   62.99
  -7  -1  -2  259.67   42.10
  -7  -1  -2  246.68   62.59
   7   1   2  221.58   22.80
   7   1   2  196.58   37.60
   7   1   2  239.78   54.09
  -8  -1  -2  157.18   57.59
  -8  -1  -2  225.98   63.19
  -8  -1  -2  149.09   40.80
   8   1   2  182.98   23.40
   8   1   2  164.78   53.29
   8   1   2  149.39   34.20
   8   1   2  174.68   56.49
  -9  -1  -2   44.10   19.20
  -9  -1  -2   -7.40   27.50
   9   1   2  -11.80   12.50
   9   1   2   12.50   11.00
   9   1   2   -9.00   32.00
   9   1   2  -38.70   28.60
   8  -2  -2   94.89   30.90
   8  -2  -2  161.48   66.69
   8  -2  -2  -40.60   70.09
   8  -2  -2   70.09   23.60
  -8   2   2   82.09   35.00
  -8   2   2   40.90   36.00
  -8   2   2   72.29   46.20
  -8   2   2   50.39   22.00
   7  -2  -2  135.19   83.09
   7  -2  -2   86.69   70.59
   7  -2  -2   69.29   37.10
   7  -2  -2   91.79   18.60
  -7   2   2  103.69   34.90
  -7   2   2   97.09   38.90
  -7   2   2  138.79   58.99
   6  -2  -2   98.59   44.30
   6  -2  -2   84.89   26.00
   6  -2  -2   87.19   19.20
   6  -2  -2   47.40   41.50
  -6   2   2   54.79   32.80
  -6   2   2   71.59   39.60
  -6   2   2  112.99   35.10
   5  -2  -2  432.06   77.19
   5  -2  -2  518.05   36.60
   5  -2  -2  481.85   50.59
   5  -2  -2  469.15   77.49
  -5   2   2  457.45  108.39
  -5   2   2  545.65   76.59
  -5   2   2  449.76   53.29
   4  -2  -2 1163.68   72.19
   4  -2  -2 1134.19  155.78
   4  -2  -2 1225.38   58.79
   4  -2  -2 1188.48   78.79
   4  -2  -2 1140.59  111.89
  -4   2   2 1423.66  110.79
  -4   2   2 1319.97   84.69
  -4   2   2 1264.77   51.79
  -4   2   2 1411.26   91.49
   3  -2  -2 2923.71  151.78
   3  -2  -2 3232.48  150.38
   3  -2  -2 2988.80  130.69
   3  -2  -2 3075.89  108.29
   3  -2  -2 2982.90  174.58
  -3   2   2 3139.69  136.49
  -3   2   2 3462.75  164.48
  -3   2   2 3153.18  105.89
  -3   2   2 3136.99  137.99
  -3   2   2 3379.46  165.38
   2  -2  -2  814.82   45.00
   2  -2  -2  734.53   47.90
   2  -2  -2  766.12   74.49
   2  -2  -2  737.53   68.59
   2  -2  -2  799.22   59.29
   2  -2  -2  785.72   52.19
   2  -2  -2  794.82   57.29
  -2   2   2  797.12   45.30
  -2   2   2  828.62   66.19
  -2   2   2  815.82   37.80
  -2   2   2  949.51   73.09
  -2   2   2  831.22   53.59
  -2   2   2  788.82   55.79
  -2   2   2  903.51   74.79
  -2   2   2  896.41   50.09
   1  -2  -2   88.29   20.60
   1  -2  -2   65.29   11.30
   1  -2  -2   85.89   22.00
   1  -2  -2   44.30   18.80
   1  -2  -2   75.49   13.50
   1  -2  -2   71.59   18.90
   1  -2  -2  111.49   27.00
  -1   2   2   86.49   10.40
  -1   2   2   75.39   12.80
  -1   2   2   51.09   22.90
  -1   2   2   89.99   14.10
  -1   2   2   90.39   21.50
  -1   2   2   92.09   26.10
  -1   2   2   90.59   11.90
  -1   2   2  100.09   21.50
   0  -2  -2   35.90   10.40
   0  -2  -2   52.19   15.80
   0  -2  -2   60.59   14.20
   0  -2  -2   44.10    8.90
   0  -2  -2   51.29    6.00
   0  -2  -2   53.39   16.10
   0  -2  -2   35.90   16.80
   0  -2  -2   29.80    9.50
   0   2   2   49.70    8.90
   0   2   2   54.39   14.10
   0   2   2   45.20   10.80
   0   2   2   46.60    8.50
   0   2   2   42.10    6.50
   0   2   2   42.00   12.90
  -1  -2  -2  251.17   26.60
  -1  -2  -2  184.48   20.60
  -1  -2  -2  203.58   16.50
  -1  -2  -2  198.88   36.00
  -1  -2  -2  199.28   25.00
  -1  -2  -2  202.98   19.70
  -1  -2  -2  217.88   16.00
   1   2   2  150.98   22.70
   1   2   2  173.18   19.70
   1   2   2  237.58   26.80
   1   2   2  203.68   16.10
   1   2   2  176.88   20.00
   1   2   2  213.28   12.10
   1   2   2  213.68   19.40
   1   2   2  175.98   42.90
  -2  -2  -2 9426.56  293.07
  -2  -2  -2 9999.00  330.27
  -2  -2  -2 9374.16  264.47
  -2  -2  -2 9703.03  305.67
  -2  -2  -2 9471.55  281.67
  -2  -2  -2 9365.86  261.87
   2   2   2 9360.26  293.87
   2   2   2 9550.24  278.47
   2   2   2 9570.34  287.37
   2   2   2 9062.79  329.37
   2   2   2 8767.82  315.47
   2   2   2 9366.26  261.27
   2   2   2 9984.30  257.27
  -3  -2  -2 1448.16   91.19
  -3  -2  -2 1503.75   75.59
  -3  -2  -2 1524.55   66.59
  -3  -2  -2 1476.95   56.39
  -3  -2  -2 1414.46   92.39
  -3  -2  -2 1451.45   47.40
  -3  -2  -2 1427.26   70.29
   3   2   2 1428.96  103.69
   3   2   2 1432.86   47.40
   3   2   2 1408.66   76.39
   3   2   2 1424.46   65.69
   3   2   2 1201.88  110.59
   3   2   2 1419.96   69.19
   3   2   2 1148.19   70.79
   3   2   2 1414.56   51.99
  -4  -2  -2  149.99   38.80
  -4  -2  -2  145.99   14.40
  -4  -2  -2  126.19   32.90
  -4  -2  -2  185.78   24.20
   4   2   2  160.48   37.70
   4   2   2  147.39   12.80
   4   2   2  144.39   25.50
   4   2   2  140.09   28.10
   4   2   2  141.39   18.80
   4   2   2  128.29   19.10
  -5  -2  -2   -4.60    8.10
  -5  -2  -2    4.20    3.80
  -5  -2  -2   23.30   13.00
  -5  -2  -2   16.50   13.10
   5   2   2   -2.40    5.30
   5   2   2    8.00    3.10
   5   2   2  -11.50   11.40
  -6  -2  -2   53.49   25.30
  -6  -2  -2   21.30   21.30
  -6  -2  -2   11.20   12.30
   6   2   2    5.10    4.40
   6   2   2    9.60    9.30
   6   2   2    2.60    7.90
  -7  -2  -2    3.80   15.70
  -7  -2  -2   11.80   16.10
  -7  -2  -2    9.00   23.20
   7   2   2   -2.60    5.90
   7   2   2    8.60   13.00
   7   2   2    7.00    5.60
  -8  -2  -2   85.89   39.80
  -8  -2  -2   49.40   35.90
  -8  -2  -2   74.09   29.80
   8   2   2   98.29   40.00
   8   2   2   74.19   23.90
   8   2   2   80.89   21.90
  -9  -2  -2   83.19   39.30
  -9  -2  -2   99.39   46.10
  -9  -2  -2  138.59   39.20
   9   2   2   51.49   48.50
   9   2   2   92.69   28.30
   9   2   2  137.19   21.70
   9   2   2  125.89   49.20
 -10  -2  -2  -13.10   23.30
 -10  -2  -2   -5.60   33.50
 -10  -2  -2   -9.70   32.00
  10   2   2   64.99   21.40
  10   2   2  -46.00   45.00
  10   2   2   45.10   15.20
  10   2   2    9.40   43.10
   7  -3  -2   37.50   35.10
   7  -3  -2   -6.50   53.79
   7  -3  -2   -9.00   20.70
   7  -3  -2   45.10   16.10
  -7   3   2  -10.50   35.20
  -7   3   2    8.40   23.20
  -7   3   2   28.50   20.50
   6  -3  -2   38.10   15.30
   6  -3  -2  -53.39   36.10
   6  -3  -2   25.50   10.70
   6  -3  -2   30.30   24.10
  -6   3   2   32.30   23.20
  -6   3   2   52.29   21.90
  -6   3   2    7.50   31.00
   5  -3  -2   77.99   26.70
   5  -3  -2  108.49   44.90
   5  -3  -2   75.79   15.90
   5  -3  -2   28.00   33.90
  -5   3   2  111.99   39.10
  -5   3   2   82.29   35.60
   4  -3  -2   87.19   35.40
   4  -3  -2   49.80   14.20
   4  -3  -2   50.79   14.20
   4  -3  -2   45.60   20.10
  -4   3   2   54.29   20.10
  -4   3   2   56.49   24.70
  -4   3   2   75.49   33.80
   3  -3  -2 1044.40   54.99
   3  -3  -2  976.10   55.09
   3  -3  -2  844.82   83.89
   3  -3  -2  807.62   88.69
   3  -3  -2  979.90   71.89
  -3   3   2 1044.00   49.99
  -3   3   2 1138.49   98.39
  -3   3   2 1065.19   69.79
  -3   3   2 1253.57   84.09
  -3   3   2 1066.79   77.49
   2  -3  -2 1238.78   84.89
   2  -3  -2 1410.26   64.49
   2  -3  -2 1396.16   83.29
  -2   3   2 1348.27   59.99
  -2   3   2 1443.06   88.09
  -2   3   2 1556.74   96.19
  -2   3   2 1490.85   71.09
  -2   3   2 1435.86   70.49
  -2   3   2 1518.35  103.29
   1  -3  -2   29.90   14.10
   1  -3  -2   27.90   16.70
   1  -3  -2   22.30    7.90
   1  -3  -2   21.80    9.40
   1  -3  -2    7.60   13.50
   1  -3  -2   40.20   19.70
   1  -3  -2   26.00   13.50
  -1   3   2   37.70   17.00
  -1   3   2   13.80   14.50
  -1   3   2   33.80   12.40
  -1   3   2   32.00   10.40
  -1   3   2   29.90   10.40
  -1   3   2   29.50    7.50
  -1   3   2   26.60   15.20
   0  -3  -2  238.08   20.90
   0  -3  -2  251.47   23.00
   0  -3  -2  211.98   27.50
   0  -3  -2  245.28   38.80
   0  -3  -2  231.78   28.50
   0  -3  -2  258.17   33.40
   0  -3  -2  272.47   34.80
   0   3   2  263.87   21.50
   0   3   2  214.18   39.50
   0   3   2  239.58   21.60
   0   3   2  240.98   35.90
   0   3   2  226.08   27.70
   0   3   2  258.77   28.60
   0   3   2  278.77   30.20
  -1  -3  -2  108.39   27.50
  -1  -3  -2  132.19   27.60
  -1  -3  -2  118.49   13.80
  -1  -3  -2  120.59   11.70
  -1  -3  -2  101.19   22.60
  -1  -3  -2  127.39   18.80
  -1  -3  -2  163.08   37.30
   1   3   2  118.49   14.20
   1   3   2  197.38   34.40
   1   3   2  125.09   18.50
   1   3   2  123.39   18.70
   1   3   2  124.59   14.80
   1   3   2  139.19   16.20
   1   3   2  141.79   18.90
   1   3   2  145.59   23.60
  -2  -3  -2 2921.31  146.89
  -2  -3  -2 3037.70  102.79
  -2  -3  -2 2926.81  121.09
  -2  -3  -2 2990.10  112.29
  -2  -3  -2 2928.11  131.19
  -2  -3  -2 2993.40  108.49
  -2  -3  -2 2854.81  120.79
   2   3   2 2792.62  129.39
   2   3   2 2853.51  126.79
   2   3   2 3049.69  102.19
   2   3   2 2897.51  100.19
   2   3   2 2873.41  153.98
   2   3   2 2781.12  115.19
   2   3   2 3025.50  123.29
  -3  -3  -2 2190.78  109.29
  -3  -3  -2 2229.38   80.29
  -3  -3  -2 2330.07   72.49
  -3  -3  -2 2288.07  103.59
  -3  -3  -2 2280.97  127.19
  -3  -3  -2 2235.38  108.59
   3   3   2 2163.28   78.89
   3   3   2 2142.69  130.09
   3   3   2 2111.69  120.59
   3   3   2 2060.19   83.19
   3   3   2 2338.97   70.89
   3   3   2 2250.57  106.79
   3   3   2 2293.47   98.19
   3   3   2 2145.99  109.59
  -4  -3  -2 2132.19  107.39
  -4  -3  -2 2138.39   82.09
  -4  -3  -2 2185.68   84.79
  -4  -3  -2 2243.68  129.09
  -4  -3  -2 2254.47  122.19
   4   3   2 2130.69   75.19
   4   3   2 2061.69  100.59
   4   3   2 1952.80  100.59
   4   3   2 2083.39   94.79
  -5  -3  -2 1232.18   97.29
  -5  -3  -2 1280.87   98.79
  -5  -3  -2 1223.88   57.69
  -5  -3  -2 1369.06   72.49
   5   3   2 1196.38   50.19
   5   3   2 1208.68   69.69
   5   3   2 1171.08   74.69
   5   3   2  987.20   79.79
  -6  -3  -2  192.68   33.70
  -6  -3  -2  261.07   42.80
  -6  -3  -2  177.68   47.60
   6   3   2  180.08   16.70
   6   3   2  192.48   27.20
   6   3   2  150.78   32.90
  -7  -3  -2  110.09   34.90
  -7  -3  -2  146.79   47.30
  -7  -3  -2   72.29   25.50
   7   3   2   99.29   13.60
   7   3   2  105.99   33.00
   7   3   2   69.09   19.90
  -8  -3  -2  542.55   68.69
  -8  -3  -2  513.25   70.09
  -8  -3  -2  566.84   83.49
   8   3   2  512.05   34.70
   8   3   2  509.25   52.69
   8   3   2  545.35   66.89
  -9  -3  -2   11.30   22.80
  -9  -3  -2   -2.40   21.30
  -9  -3  -2   26.30   26.00
   9   3   2   28.90   26.50
   9   3   2   23.40    8.90
   9   3   2   21.00   12.60
   9   3   2   42.70   35.20
 -10  -3  -2  120.99   36.50
 -10  -3  -2   99.29   41.00
 -10  -3  -2   97.09   51.39
  10   3   2   44.70   44.70
  10   3   2   65.49   56.39
  10   3   2  111.09   19.70
  10   3   2  149.39   35.80
   7  -4  -2   33.10   17.40
   7  -4  -2  -78.19   65.59
   7  -4  -2   24.90   26.50
   7  -4  -2   70.59   47.50
  -7   4   2  -11.70   30.60
  -7   4   2   49.10   39.90
  -7   4   2   -5.60   18.90
  -7   4   2  -23.70   22.80
   6  -4  -2   84.49   50.79
   6  -4  -2  104.19   53.49
   6  -4  -2  112.89   25.50
  -6   4   2  128.99   30.60
  -6   4   2   87.09   40.20
  -6   4   2   74.19   51.29
  -6   4   2   82.59   33.00
   5  -4  -2  296.17   46.30
   5  -4  -2  255.37   32.60
   5  -4  -2  174.58   68.99
   5  -4  -2  246.88   33.80
   5  -4  -2  128.89   52.79
  -5   4   2  251.37   58.99
  -5   4   2  314.37   63.19
  -5   4   2  306.87   77.39
  -5   4   2  240.88   50.89
   4  -4  -2  229.18   29.20
   4  -4  -2  147.09   49.99
   4  -4  -2  271.67   53.49
   4  -4  -2  226.68   60.09
  -4   4   2  266.27   34.50
  -4   4   2  279.07   64.79
  -4   4   2  251.87   52.49
  -4   4   2  244.88   36.90
   3  -4  -2   49.40   12.90
   3  -4  -2   61.39   34.70
   3  -4  -2   50.39   12.60
   3  -4  -2   -6.90   25.40
  -3   4   2   40.90   15.60
  -3   4   2   42.60   15.40
  -3   4   2   41.20   30.40
  -3   4   2   30.80   16.40
  -3   4   2   37.00   17.20
   2  -4  -2  259.47   42.30
   2  -4  -2  286.57   28.40
   2  -4  -2  326.47   67.09
   2  -4  -2  301.27   41.90
   2  -4  -2  262.97   40.90
  -2   4   2  289.97   41.40
  -2   4   2  322.17   33.70
  -2   4   2  336.47   53.89
  -2   4   2  356.86   44.00
  -2   4   2  305.87   28.40
   1  -4  -2   19.80   12.40
   1  -4  -2   38.40   23.10
   1  -4  -2   39.50   22.30
   1  -4  -2   43.50   17.50
   1  -4  -2   42.00   12.30
   1  -4  -2   32.50   15.30
  -1   4   2   35.30   17.70
  -1   4   2   53.99   15.20
  -1   4   2   35.40   18.20
  -1   4   2   46.60   10.50
  -1   4   2   71.89   24.60
  -1   4   2   36.70    9.90
   0  -4  -2   18.50   16.30
   0  -4  -2   33.90   14.60
   0  -4  -2   25.20    9.20
   0  -4  -2   20.50   19.00
   0  -4  -2   40.80   20.70
   0  -4  -2   39.20   21.50
   0   4   2   27.40   16.70
   0   4   2   43.40   18.10
   0   4   2   29.20   10.00
   0   4   2   62.19   14.20
   0   4   2   36.50   11.60
   0   4   2   32.40   14.10
   0   4   2   43.80   19.90
  -1  -4  -2   10.80    7.90
  -1  -4  -2   -2.70    5.70
  -1  -4  -2    1.10    4.20
  -1  -4  -2   10.40    9.30
  -1  -4  -2    3.00   11.60
  -1  -4  -2    6.10    4.30
   1   4   2   10.50    6.00
   1   4   2   -0.60    2.80
   1   4   2   23.00   12.10
   1   4   2    2.30    3.60
   1   4   2   16.40    6.30
   1   4   2   -3.20    7.90
  -2  -4  -2  108.09   24.50
  -2  -4  -2  134.69   32.50
  -2  -4  -2  128.39   25.50
  -2  -4  -2  163.28   35.60
  -2  -4  -2  132.09   16.10
  -2  -4  -2  123.59   16.60
   2   4   2  124.59   27.90
   2   4   2   95.59   21.30
   2   4   2   97.19   29.00
   2   4   2  162.48   23.70
   2   4   2  133.19   16.30
   2   4   2   93.89   16.90
   2   4   2  164.78   23.40
   2   4   2  126.59   28.60
  -3  -4  -2 1285.57   62.49
  -3  -4  -2 1317.57   73.79
  -3  -4  -2 1383.36   89.99
  -3  -4  -2 1368.36   98.49
  -3  -4  -2 1287.57   81.19
  -3  -4  -2 1369.86   68.89
   3   4   2 1293.07  102.49
   3   4   2 1336.97   60.89
   3   4   2 1332.27   58.59
   3   4   2 1376.66   91.09
   3   4   2 1301.17   85.19
   3   4   2 1307.57   83.09
  -4  -4  -2 1969.40   80.79
  -4  -4  -2 1847.92  104.19
  -4  -4  -2 1940.41  124.59
  -4  -4  -2 1859.91  108.79
  -4  -4  -2 1931.81   73.79
   4   4   2 1892.41   64.99
   4   4   2 1927.41   74.49
   4   4   2 1764.12   98.59
   4   4   2 1899.81   94.99
   4   4   2 1751.12   83.29
  -5  -4  -2  213.98   38.70
  -5  -4  -2  258.37   36.80
  -5  -4  -2  253.97   45.60
  -5  -4  -2  275.07   27.10
   5   4   2  177.98   29.70
   5   4   2  266.57   32.40
   5   4   2  218.78   32.70
   5   4   2  231.48   19.70
  -6  -4  -2   85.69   23.30
  -6  -4  -2   69.89   31.20
  -6  -4  -2   86.09   35.10
   6   4   2   72.39   13.00
   6   4   2   79.09   22.10
   6   4   2   95.09   26.10
   6   4   2   89.79   24.80
  -7  -4  -2   25.20   19.20
  -7  -4  -2   60.29   29.40
  -7  -4  -2   15.00   13.40
   7   4   2   43.90   10.90
   7   4   2   47.40   18.70
   7   4   2   31.80   14.60
  -8  -4  -2   11.00   19.10
  -8  -4  -2    8.70   15.90
  -8  -4  -2   -6.10   14.80
   8   4   2   13.30    6.30
   8   4   2   -1.40   18.60
   8   4   2   22.00   15.60
  -9  -4  -2   74.29   37.40
  -9  -4  -2   86.79   33.00
  -9  -4  -2   82.79   29.60
   9   4   2   83.79   26.50
   9   4   2  120.09   16.50
   9   4   2   97.49   41.60
 -10  -4  -2   35.70   27.90
 -10  -4  -2  -13.20   22.90
 -10  -4  -2   58.09   27.50
  10   4   2   70.89   37.10
  10   4   2   -0.70   34.40
  10   4   2   55.99   11.10
  10   4   2   26.00   18.20
   6  -5  -2   92.79   64.89
   6  -5  -2  195.68   35.10
   6  -5  -2  247.78   57.79
  -6   5   2  172.28   39.50
  -6   5   2  196.18   48.70
  -6   5   2  207.88   58.79
  -6   5   2  114.79   54.79
   5  -5  -2  200.18   33.50
   5  -5  -2  236.78   38.20
   5  -5  -2  205.38   46.40
   5  -5  -2  182.58   47.40
   5  -5  -2  255.57   76.09
  -5   5   2  243.38   44.80
  -5   5   2  260.47   46.00
  -5   5   2  242.58   71.19
  -5   5   2  306.47   67.49
   4  -5  -2  175.48   43.20
   4  -5  -2  121.49   48.70
   4  -5  -2  159.98   21.70
   4  -5  -2  120.19   26.20
  -4   5   2  154.78   46.90
  -4   5   2  189.58   68.39
  -4   5   2  151.28   34.90
  -4   5   2  109.19   28.00
   3  -5  -2   37.30   23.60
   3  -5  -2    5.30   22.40
   3  -5  -2   13.00    7.50
   3  -5  -2   15.20   10.00
   3  -5  -2    1.50   25.20
   3  -5  -2   25.60   18.30
  -3   5   2   12.00   10.90
  -3   5   2   69.59   30.40
  -3   5   2   22.60   14.50
  -3   5   2   15.90   10.80
  -3   5   2   12.50   19.10
   2  -5  -2   15.80   15.20
   2  -5  -2   13.30   11.30
   2  -5  -2    0.60    7.50
   2  -5  -2   -8.60   13.10
   2  -5  -2   -6.50   16.60
  -2   5   2   14.80    7.10
  -2   5   2    7.50   21.70
  -2   5   2    5.90    6.70
  -2   5   2    2.10    8.50
   1  -5  -2   99.29   35.70
   1  -5  -2  176.58   31.30
   1  -5  -2  116.09   22.60
   1  -5  -2  164.68   39.20
  -1   5   2  134.09   35.50
  -1   5   2  125.59   25.90
  -1   5   2  138.79   39.50
  -1   5   2  182.28   33.30
   0  -5  -2  452.55   62.49
   0  -5  -2  582.04   42.60
   0  -5  -2  517.35   63.99
   0  -5  -2  539.05   58.29
   0  -5  -2  582.64   57.39
   0   5   2  578.14   44.30
   0   5   2  565.14   56.59
   0   5   2  726.83   66.49
   0   5   2  467.15   67.79
  -1  -5  -2  256.47   54.19
  -1  -5  -2  231.38   38.70
  -1  -5  -2  279.87   38.00
  -1  -5  -2  267.37   42.60
   1   5   2  283.97   36.30
   1   5   2  366.06  103.59
   1   5   2  240.58   26.20
   1   5   2  318.37   38.30
  -2  -5  -2 1098.09   86.69
  -2  -5  -2 1113.29  109.89
  -2  -5  -2  957.80   70.99
  -2  -5  -2  989.20   75.49
  -2  -5  -2 1016.40   50.49
   2   5   2  812.72   57.89
   2   5   2 1001.20   65.49
   2   5   2  997.70   73.99
   2   5   2  982.90   56.19
   2   5   2  958.50   52.99
   2   5   2  902.01   88.39
   2   5   2 1047.70   59.89
  -3  -5  -2  231.88   38.70
  -3  -5  -2  200.18   25.90
  -3  -5  -2  235.08   41.60
  -3  -5  -2  260.57   36.80
  -3  -5  -2  274.27   32.90
   3   5   2  217.18   32.00
   3   5   2  215.88   25.50
   3   5   2  228.38   24.00
   3   5   2  222.98   34.50
   3   5   2  162.18   21.50
   3   5   2  215.88   23.90
   3   5   2  230.78   16.20
  -4  -5  -2  424.86   51.29
  -4  -5  -2  455.55   41.80
  -4  -5  -2  446.66   59.79
  -4  -5  -2  441.76   45.70
  -4  -5  -2  382.56   30.70
   4   5   2  417.86   29.70
   4   5   2  428.86   44.70
   4   5   2  417.86   47.30
   4   5   2  447.46   33.50
   4   5   2  439.76   31.70
   4   5   2  455.35   30.50
  -5  -5  -2   11.40   10.60
  -5  -5  -2   31.50   17.70
  -5  -5  -2   -0.60    7.70
  -5  -5  -2   16.30   13.10
   5   5   2   16.00    9.60
   5   5   2   12.20    7.10
   5   5   2   16.80    9.30
  -6  -5  -2  321.57   43.90
  -6  -5  -2  227.08   25.70
  -6  -5  -2  215.68   53.19
  -6  -5  -2  320.77   50.19
   6   5   2  259.07   22.20
   6   5   2  225.98   38.10
   6   5   2  234.58   34.30
   6   5   2  268.57   39.70
  -7  -5  -2  178.28   49.90
  -7  -5  -2  207.88   31.30
  -7  -5  -2  142.49   40.90
   7   5   2  164.18   34.60
   7   5   2  206.28   43.70
   7   5   2  188.28   19.60
  -8  -5  -2   38.20   26.60
  -8  -5  -2   47.00   25.40
  -8  -5  -2   56.99   20.40
   8   5   2   56.89   13.90
   8   5   2   29.80   19.00
   8   5   2   50.19   18.80
  -9  -5  -2   38.40   32.10
  -9  -5  -2   47.20   34.30
  -9  -5  -2   66.09   26.10
   9   5   2   82.39   21.20
   9   5   2   43.20   26.30
   9   5   2   79.29   14.50
 -10  -5  -2   99.59   37.90
 -10  -5  -2   52.49   34.30
 -10  -5  -2   51.19   32.30
  10   5   2   20.70   49.30
  10   5   2   55.59   29.10
  10   5   2   56.49   11.90
   6  -6  -2   91.79   30.30
   6  -6  -2  -44.50   39.80
   6  -6  -2   54.49   23.80
  -6   6   2  110.39   60.69
  -6   6   2   92.79   31.70
  -6   6   2   26.30   25.40
  -6   6   2    0.50   22.60
   5  -6  -2   79.09   49.00
   5  -6  -2  169.88   33.10
   5  -6  -2  145.49   43.60
  -5   6   2  151.88   62.49
  -5   6   2   67.29   29.70
  -5   6   2  130.19   36.00
  -5   6   2  138.19   48.60
   4  -6  -2  239.98   41.20
   4  -6  -2  175.98   52.29
   4  -6  -2  295.77   76.19
  -4   6   2  208.58   72.19
  -4   6   2  290.37   40.70
  -4   6   2  305.47   71.49
  -4   6   2  238.68   44.80
   3  -6  -2  102.69   22.80
   3  -6  -2  107.49   42.20
   3  -6  -2   41.40   33.50
   3  -6  -2   59.19   26.70
  -3   6   2   63.59   19.40
  -3   6   2   35.90   17.60
  -3   6   2   94.79   33.40
  -3   6   2   95.49   39.70
   2  -6  -2   36.30   14.50
   2  -6  -2   55.09   25.40
   2  -6  -2    7.20   14.50
   2  -6  -2   27.10   20.00
   2  -6  -2   37.50   14.00
  -2   6   2    8.60    9.60
  -2   6   2    6.40   16.20
  -2   6   2   18.50   13.00
  -2   6   2   20.40   26.90
   1  -6  -2  321.87   40.00
   1  -6  -2  262.87   32.20
   1  -6  -2  329.07   51.59
   1  -6  -2  296.27   66.59
  -1   6   2  322.47   62.39
  -1   6   2  189.18   52.39
  -1   6   2  281.47   35.00
  -1   6   2  325.37   54.69
   0  -6  -2 1363.06  112.79
   0  -6  -2 1280.97   98.29
   0  -6  -2 1358.66   75.29
   0  -6  -2 1335.47   88.79
   0   6   2 1299.77   98.29
   0   6   2 1000.90  111.79
   0   6   2 1351.16  106.09
   0   6   2 1371.16   78.79
  -1  -6  -2 4597.94  204.68
  -1  -6  -2 4483.35  164.98
  -1  -6  -2 4651.23  221.98
  -1  -6  -2 4367.16  193.78
   1   6   2 4486.55  167.88
   1   6   2 4263.97  240.98
   1   6   2 4057.19  195.68
   1   6   2 4650.33  198.58
  -2  -6  -2 2860.11  107.79
  -2  -6  -2 2762.72  148.59
  -2  -6  -2 2933.61  164.68
  -2  -6  -2 2854.11  151.68
   2   6   2 2426.06  130.29
   2   6   2 2739.93  111.69
   2   6   2 2686.53  117.49
   2   6   2 2805.22  117.69
   2   6   2 2795.82  135.99
   2   6   2 2763.72  145.79
  -3  -6  -2  131.19   21.70
  -3  -6  -2  133.19   36.60
  -3  -6  -2  149.99   39.30
  -3  -6  -2  155.68   41.30
  -3  -6  -2  139.09   33.60
   3   6   2  147.39   28.70
   3   6   2  122.09   21.10
   3   6   2  142.39   32.00
   3   6   2  129.89   16.60
   3   6   2  123.19   23.80
   3   6   2  112.09   29.10
   3   6   2  105.89   44.90
  -4  -6  -2 1250.57   86.79
  -4  -6  -2 1348.37  105.49
  -4  -6  -2 1233.08   63.49
  -4  -6  -2 1364.76  109.19
  -4  -6  -2 1405.16   84.79
   4   6   2 1300.37   68.49
   4   6   2 1314.27   89.19
   4   6   2 1299.07   68.79
   4   6   2 1356.66   56.29
   4   6   2 1269.07   66.19
  -5  -6  -2  429.56   50.09
  -5  -6  -2  462.85   58.19
  -5  -6  -2  351.76   35.20
  -5  -6  -2  354.66   58.09
   5   6   2  436.36   36.30
   5   6   2  408.96   28.80
   5   6   2  353.46   47.10
   5   6   2  369.96   45.40
   5   6   2  418.76   33.90
   5   6   2  388.16   27.20
  -6  -6  -2  201.98   45.70
  -6  -6  -2  252.17   54.19
  -6  -6  -2  154.88   27.30
  -6  -6  -2  167.08   45.60
   6   6   2  214.88   36.40
   6   6   2  209.48   41.40
   6   6   2  279.27   40.50
   6   6   2  233.28   23.60
  -7  -6  -2  432.06   70.49
  -7  -6  -2  439.46   46.50
  -7  -6  -2  476.45   66.99
   7   6   2  514.85   53.59
   7   6   2  498.65   34.00
   7   6   2  450.15   55.99
  -8  -6  -2  106.09   37.50
  -8  -6  -2  106.89   30.40
  -8  -6  -2  136.09   48.90
   8   6   2  104.39   17.30
   8   6   2  135.59   38.80
   8   6   2   72.49   21.90
  -9  -6  -2   41.60   26.10
  -9  -6  -2   11.20   30.90
  -9  -6  -2   70.49   27.00
   9   6   2   58.59   12.20
   9   6   2    9.70   14.50
   9   6   2   42.50   22.50
 -10  -6  -2   25.80   30.30
 -10  -6  -2   30.70   31.70
 -10  -6  -2    5.90   22.80
  10   6   2   13.60   10.10
  10   6   2   45.90   26.80
  10   6   2   43.20   17.70
   5  -7  -2  -47.90   20.50
   5  -7  -2   18.80   15.60
   5  -7  -2   10.40   37.20
  -5   7   2  -28.60   23.10
  -5   7   2  -46.30   30.80
   4  -7  -2   16.20   17.10
   4  -7  -2   17.20   23.50
   4  -7  -2   20.10   32.60
  -4   7   2   11.20   16.00
  -4   7   2   57.69   69.69
  -4   7   2   29.10   30.00
   3  -7  -2  292.87   38.70
   3  -7  -2  111.49   51.29
   3  -7  -2  217.88   55.49
  -3   7   2  194.78   51.49
  -3   7   2  268.37   76.59
  -3   7   2  224.58   29.70
  -3   7   2  164.38   38.70
   2  -7  -2   39.40   24.60
   2  -7  -2   31.20   14.40
   2  -7  -2   68.79   21.70
   2  -7  -2   -7.90   19.90
  -2   7   2   26.50   14.40
  -2   7   2   80.79   34.30
  -2   7   2   45.40   11.60
  -2   7   2   57.29   27.90
  -2   7   2   82.39   22.10
   1  -7  -2   12.60   17.10
   1  -7  -2  -11.50   10.40
   1  -7  -2    2.70    9.70
   1  -7  -2   23.80   20.20
  -1   7   2   22.90   11.60
  -1   7   2    4.00   14.40
  -1   7   2   30.70   28.50
   0  -7  -2   61.59   17.90
   0  -7  -2   57.19   19.30
   0  -7  -2   31.40   18.30
   0   7   2   12.60   15.20
   0   7   2   63.59   25.80
   0   7   2   51.49   33.00
   0   7   2   30.30   16.00
  -1  -7  -2  148.09   41.70
  -1  -7  -2  151.08   35.10
  -1  -7  -2  122.19   41.70
  -1  -7  -2  142.89   28.80
  -1  -7  -2   63.59   30.80
   1   7   2  148.69   38.10
   1   7   2   76.69   20.40
   1   7   2  146.69   40.40
   1   7   2   82.69   28.80
  -2  -7  -2  227.18   26.90
  -2  -7  -2  220.18   41.50
  -2  -7  -2  287.97   62.59
  -2  -7  -2  259.07   60.29
   2   7   2  243.78   48.30
   2   7   2  268.77   33.50
   2   7   2  291.77   41.00
   2   7   2  250.37   62.09
   2   7   2  270.47   29.40
  -3  -7  -2  465.05   41.90
  -3  -7  -2  437.56   94.69
  -3  -7  -2  519.05  104.29
  -3  -7  -2  427.46   58.59
   3   7   2  365.16   41.90
   3   7   2  410.46   39.60
   3   7   2  453.85   36.00
   3   7   2  413.16   46.80
   3   7   2  410.06  102.79
   3   7   2  366.46   45.60
  -4  -7  -2  -10.50   21.50
  -4  -7  -2   -3.80    4.90
  -4  -7  -2    5.60   13.20
  -4  -7  -2   -6.80   12.90
   4   7   2    1.60   10.00
   4   7   2   11.10    7.40
   4   7   2    0.10    8.40
   4   7   2   24.50   10.90
   4   7   2   -0.70    5.60
  -5  -7  -2   33.60   21.80
  -5  -7  -2   32.40   23.50
  -5  -7  -2   64.79   19.90
  -5  -7  -2   47.10   22.60
   5   7   2   60.09   21.10
   5   7   2   40.00   13.10
   5   7   2   90.19   20.30
   5   7   2   61.19   15.30
   5   7   2   54.79   23.90
   5   7   2   36.50   19.80
  -6  -7  -2   -0.40   10.10
  -6  -7  -2    0.60   16.40
  -6  -7  -2   -2.80   11.80
  -6  -7  -2   -9.70   12.80
   6   7   2   -2.30    6.00
   6   7   2   -6.50    9.40
   6   7   2  -22.60   15.30
   6   7   2  -13.10    6.40
  -7  -7  -2   12.70   19.20
  -7  -7  -2   45.90   28.70
  -7  -7  -2   32.10   20.00
  -7  -7  -2   65.39   26.40
   7   7   2   55.79   23.20
   7   7   2   60.19   15.40
   7   7   2   13.90   14.50
   7   7   2   75.09   27.10
  -8  -7  -2   88.39   25.30
  -8  -7  -2   61.59   36.20
  -8  -7  -2   81.19   46.50
   8   7   2   86.69   37.20
   8   7   2   94.69   18.00
  -9  -7  -2   66.29   40.90
  -9  -7  -2   68.19   32.60
  -9  -7  -2   32.40   23.90
   9   7   2   38.50    9.80
   9   7   2   38.00   17.90
   9   7   2   -0.70   20.10
   5  -8  -2   58.19   27.30
   4  -8  -2   10.40   12.40
   4  -8  -2   59.09   55.89
   4  -8  -2   -5.60   26.30
  -4   8   2    3.40   12.00
  -4   8   2    9.80   34.20
  -4   8   2   -8.30   14.70
  -4   8   2  -38.10   34.20
   3  -8  -2   34.10   19.80
   3  -8  -2   29.80   29.40
   3  -8  -2   40.10   23.90
  -3   8   2   15.00   35.50
  -3   8   2    2.50   26.10
  -3   8   2   29.00   13.10
  -3   8   2   28.20   17.00
   2  -8  -2  750.72   92.19
   2  -8  -2  682.43   62.29
   2  -8  -2  732.53  102.09
  -2   8   2  881.31  111.69
  -2   8   2  783.32   92.19
  -2   8   2  713.13   69.99
   1  -8  -2  175.18   35.00
   1  -8  -2  150.48   32.40
   1  -8  -2  120.89   41.50
   1  -8  -2   82.39   43.00
  -1   8   2  111.89   48.70
  -1   8   2  109.79   30.70
  -1   8   2   63.89   43.90
  -1   8   2  159.18   47.90
   0  -8  -2  439.36   63.19
   0  -8  -2  516.55   51.89
   0  -8  -2  523.35   51.29
   0  -8  -2  449.76   73.99
   0   8   2  519.35   54.49
   0   8   2  486.75   72.39
   0   8   2  338.87   82.39
   0   8   2  487.25   67.79
  -1  -8  -2  290.97   43.10
  -1  -8  -2  345.17   68.39
  -1  -8  -2  309.67   65.79
  -1  -8  -2  355.36   41.10
   1   8   2  313.27   40.20
   1   8   2  337.17   65.39
   1   8   2  317.57   69.99
  -2  -8  -2   47.00   26.30
  -2  -8  -2   46.60   26.60
  -2  -8  -2   77.39   26.50
   2   8   2   24.50   13.90
   2   8   2   18.80   19.20
   2   8   2   48.10   25.80
   2   8   2   58.89   17.70
   2   8   2   70.59   24.80
   2   8   2   94.59   31.80
  -3  -8  -2  622.44   53.69
  -3  -8  -2  716.23   80.29
  -3  -8  -2  693.53   76.49
  -3  -8  -2  748.63   87.49
   3   8   2  568.44   56.99
   3   8   2  675.13   55.69
   3   8   2  591.74   62.99
   3   8   2  749.62   78.19
   3   8   2  647.94   66.39
  -4  -8  -2   25.60   14.80
  -4  -8  -2   57.49   22.80
  -4  -8  -2   15.30   17.10
  -4  -8  -2   -0.50   14.00
   4   8   2   14.70   10.90
   4   8   2   30.70   16.20
   4   8   2   -5.20   14.20
   4   8   2   30.40    7.80
  -5  -8  -2  338.57   60.59
  -5  -8  -2  468.15   70.59
  -5  -8  -2  286.57   44.40
   5   8   2  387.66   54.39
   5   8   2  387.26   39.90
   5   8   2  444.46   42.00
   5   8   2  425.16   58.39
   5   8   2  396.86   32.70
  -6  -8  -2   40.40   21.20
  -6  -8  -2   54.79   20.70
  -6  -8  -2   63.89   27.70
  -6  -8  -2   48.60   23.10
   6   8   2   64.09   23.80
   6   8   2   84.59   23.60
   6   8   2   36.20   20.70
   6   8   2   78.29   20.70
   6   8   2   39.70   15.90
   6   8   2   67.89   27.20
  -7  -8  -2  -14.60   17.10
  -7  -8  -2    5.50   21.00
  -7  -8  -2   15.70   19.40
  -7  -8  -2   54.19   15.90
   7   8   2   20.70   15.70
   7   8   2  -15.10   22.50
   7   8   2   -3.40   14.80
   7   8   2   -9.00    8.50
  -8  -8  -2    0.20   17.30
  -8  -8  -2    1.60   21.50
  -8  -8  -2    7.20   20.00
   8   8   2   -6.50   17.80
   8   8   2    7.10    8.60
   8   8   2  -11.30   13.10
  -9  -8  -2  127.29   36.90
  -9  -8  -2  113.79   41.10
  -9  -8  -2  114.99   41.60
   9   8   2   77.79   34.10
   9   8   2  121.09   33.60
   9   8   2  103.39   17.60
   4  -9  -2   49.80   39.70
   4  -9  -2  -37.70   22.50
   4  -9  -2   34.10   18.70
  -4   9   2   11.80   18.30
  -4   9   2   43.70   33.30
  -4   9   2  -29.80   45.20
   3  -9  -2   38.70   26.50
   3  -9  -2   80.49   37.90
  -3   9   2   87.29   23.10
  -3   9   2   18.70   28.50
  -3   9   2   97.79   57.89
   2  -9  -2  265.27   66.59
   2  -9  -2  365.86   83.89
   2  -9  -2  271.87   70.29
  -2   9   2  214.98   74.99
  -2   9   2  305.87   77.89
  -2   9   2  257.97   68.79
   1  -9  -2  465.35   88.19
   1  -9  -2  472.65   52.89
   1  -9  -2  552.34   82.69
  -1   9   2  588.14   62.09
  -1   9   2  535.95   94.29
  -1   9   2  615.04  111.09
  -1   9   2  554.34   70.49
   0  -9  -2  614.34   89.39
   0  -9  -2  599.44   76.19
   0  -9  -2  529.25   54.49
   0  -9  -2  454.15   52.59
   0   9   2  570.74   59.59
   0   9   2  522.45   74.79
   0   9   2  470.05   80.99
  -1  -9  -2  356.26   48.70
  -1  -9  -2  430.46   48.50
  -1  -9  -2  412.26   59.49
  -1  -9  -2  380.86   85.79
   1   9   2  372.06   47.50
   1   9   2  414.86   63.59
   1   9   2  381.96   80.89
  -2  -9  -2   61.39   31.40
  -2  -9  -2  110.39   41.70
   2   9   2  105.09   29.80
   2   9   2  128.89   40.10
   2   9   2   90.99   33.10
  -3  -9  -2    7.30   21.60
  -3  -9  -2   35.80   20.60
  -3  -9  -2   19.20   16.00
  -3  -9  -2    6.60   10.40
   3   9   2    1.30   17.30
   3   9   2   20.10   12.00
   3   9   2   51.89   24.10
   3   9   2   29.20   14.00
   3   9   2    3.70   17.90
   3   9   2   38.50   23.50
   3   9   2   22.20   19.70
  -4  -9  -2  315.87   71.39
  -4  -9  -2  324.57   66.89
  -4  -9  -2  350.46   58.19
  -4  -9  -2  375.46   48.90
   4   9   2  388.96   43.60
   4   9   2  311.07   51.59
   4   9   2  388.66   54.69
   4   9   2  390.46   49.30
  -5  -9  -2   98.99   42.20
  -5  -9  -2   50.99   29.60
  -5  -9  -2   45.40   23.70
   5   9   2   47.40   14.80
   5   9   2   50.99   24.60
   5   9   2   71.79   21.90
   5   9   2   62.99   21.90
   5   9   2   93.19   23.50
   5   9   2   43.70   23.50
  -6  -9  -2  153.78   47.10
  -6  -9  -2  160.78   47.00
  -6  -9  -2  154.98   44.20
   6   9   2  225.98   30.50
   6   9   2  191.68   46.10
   6   9   2  152.08   29.80
   6   9   2  180.48   28.60
   6   9   2  158.78   43.10
  -7  -9  -2  106.99   33.70
  -7  -9  -2  156.18   43.60
  -7  -9  -2  127.69   30.00
  -7  -9  -2   93.79   40.30
   7   9   2  143.09   33.60
   7   9   2   72.99   40.60
   7   9   2  119.09   33.90
   7   9   2  127.89   23.10
  -8  -9  -2   -4.70   14.70
  -8  -9  -2   47.80   25.30
   8   9   2   37.40   12.30
   8   9   2   30.60   11.60
   8   9   2   28.00   18.90
  -9  -9  -2   -6.00   24.20
  -9  -9  -2  113.19   52.89
  -9  -9  -2   27.80   28.10
   9   9   2   19.30   11.00
   9   9   2   -5.30   17.00
   9   9   2   27.50   21.50
   3 -10  -2   20.20   24.30
   3 -10  -2   16.70   43.20
  -3  10   2   36.30   20.10
  -3  10   2  -18.60   33.60
   2 -10  -2   18.00   32.50
   2 -10  -2  -43.50   27.90
   2 -10  -2    5.30   17.60
  -2  10   2    0.50   32.70
  -2  10   2   17.60   20.10
  -2  10   2   57.79   35.30
   1 -10  -2   41.30   27.10
   1 -10  -2   19.60   14.20
   1 -10  -2  -21.10   29.90
  -1  10   2   14.90   22.30
  -1  10   2   -9.00   12.20
  -1  10   2  -30.80   33.10
   0 -10  -2  130.39   65.99
   0 -10  -2  116.29   48.90
   0 -10  -2  150.58   28.40
   0  10   2  181.08   89.09
   0  10   2  155.18   53.29
   0  10   2   99.29   53.49
  -1 -10  -2   29.40   20.60
  -1 -10  -2  -11.70   22.30
   1  10   2   55.49   28.20
   1  10   2   29.70   18.60
  -2 -10  -2   17.40   24.30
  -2 -10  -2   -2.70   20.40
  -2 -10  -2  -12.70   17.00
   2  10   2   18.00   26.30
   2  10   2   14.80   19.60
  -3 -10  -2    8.40   25.90
  -3 -10  -2   13.30   17.80
  -3 -10  -2  -13.90   14.50
   3  10   2  -14.80   21.90
   3  10   2   24.60   20.60
   3  10   2    8.40   16.80
   3  10   2   17.60   26.00
   3  10   2    3.30    9.40
   3  10   2  -26.80   18.60
  -4 -10  -2   11.60   17.50
  -4 -10  -2    9.30   22.80
  -4 -10  -2   37.40   19.70
  -4 -10  -2   -0.40   16.70
   4  10   2   13.20   14.80
   4  10   2   75.79   27.20
   4  10   2   30.60   34.50
   4  10   2   -0.80   19.30
  -5 -10  -2  105.89   49.00
  -5 -10  -2  109.49   43.30
  -5 -10  -2   93.49   32.50
   5  10   2  103.89   26.80
   5  10   2  140.79   39.00
   5  10   2  119.29   37.20
   5  10   2  116.59   22.70
   5  10   2   82.49   36.10
   5  10   2  117.09   38.90
  -6 -10  -2  214.98   54.29
  -6 -10  -2  228.38   61.59
  -6 -10  -2  160.48   47.80
   6  10   2  239.28   45.30
   6  10   2  290.67   62.89
   6  10   2  193.08   53.09
   6  10   2  223.08   39.40
   6  10   2  268.67   45.90
  -7 -10  -2  239.78   57.79
  -7 -10  -2  166.28   48.30
  -7 -10  -2  184.48   55.69
   7  10   2  195.38   49.90
   7  10   2  152.68   40.90
   7  10   2  162.18   46.10
   7  10   2  276.07   33.80
  -8 -10  -2   68.99   27.20
  -8 -10  -2  127.69   43.50
  -8 -10  -2   92.19   37.60
   8  10   2   38.10   16.40
   8  10   2   31.90   21.10
   8  10   2   76.59   30.30
   1 -11  -2   66.09   26.90
   1 -11  -2   66.09   52.49
   1 -11  -2  124.99   41.50
  -1  11   2   55.19   41.10
  -1  11   2   97.39   30.70
  -1  11   2  -19.60   37.30
   0 -11  -2   74.09   23.00
   0 -11  -2   28.00   41.60
   0 -11  -2   77.79   43.90
   0 -11  -2  120.59   36.20
   0  11   2    8.30   25.00
   0  11   2   56.49   44.00
  -1 -11  -2   31.90   27.10
  -1 -11  -2   33.70   45.10
  -1 -11  -2   14.20   19.60
   1  11   2   20.60   14.20
   1  11   2  -37.20   24.10
   1  11   2   -6.30   32.00
  -2 -11  -2   52.59   38.70
  -2 -11  -2   63.29   31.70
  -2 -11  -2   47.10   27.60
   2  11   2   -2.10   23.80
   2  11   2   22.00   34.60
   2  11   2   50.79   23.00
   2  11   2   47.20   32.50
  -3 -11  -2  132.69   42.80
  -3 -11  -2  159.78   63.19
  -3 -11  -2   78.99   36.20
   3  11   2  100.79   43.90
   3  11   2  143.39   49.70
   3  11   2   70.49   40.20
   3  11   2   85.69   26.20
   3  11   2  166.88   48.80
  -4 -11  -2  147.29   43.20
  -4 -11  -2  105.59   41.10
  -4 -11  -2   85.99   50.09
  -4 -11  -2  161.08   38.80
   4  11   2   96.09   37.50
   4  11   2   86.59   33.50
   4  11   2  122.09   39.20
   4  11   2   18.80   37.40
   4  11   2   96.49   40.00
  -5 -11  -2   14.20   21.10
  -5 -11  -2  -12.10   24.10
   5  11   2   27.10   22.50
   5  11   2   22.70   18.70
   5  11   2  -11.30   18.60
  -6 -11  -2   31.20   24.90
  -6 -11  -2   -6.20   33.60
  -6 -11  -2   17.00   22.90
   6  11   2   18.30   24.10
   6  11   2    4.80   27.10
   6  11   2    6.10   16.40
   6  11   2   78.19   35.80
  -7 -11  -2   70.79   31.00
  -7 -11  -2    6.00   24.50
  -7 -11  -2   11.20   21.70
   7  11   2   16.00   20.10
   7  11   2   54.49   20.80
   7  11   2  -26.50   17.60
   7  11   2  -42.50   19.90
   8  11   2   19.50   17.00
   0 -12  -2  150.88   45.30
   0 -12  -2   44.50   46.80
   0  12   2   80.89   22.10
   0  12   2   39.30   42.80
  -1 -12  -2  -36.90   35.90
  -1 -12  -2  -20.60   19.80
  -1 -12  -2   41.80   28.50
   1  12   2    8.40   40.60
   1  12   2  -31.30   29.30
   1  12   2   14.00   14.40
  -2 -12  -2   63.29   29.70
  -2 -12  -2   82.69   47.80
  -2 -12  -2   18.80   23.10
   2  12   2   -9.20   22.70
   2  12   2   43.10   38.90
   2  12   2   -8.40   16.70
   2  12   2   17.50   27.30
  -3 -12  -2   59.69   34.10
  -3 -12  -2   62.59   47.80
  -3 -12  -2   36.90   43.30
   3  12   2   96.69   48.70
   3  12   2   24.80   19.70
   3  12   2  118.19   46.00
   3  12   2   86.69   37.60
  -4 -12  -2   74.99   48.90
  -4 -12  -2   47.50   40.20
  -4 -12  -2   33.20   28.60
   4  12   2   95.09   31.20
   4  12   2  114.69   41.80
   4  12   2  103.09   51.49
   4  12   2   56.89   30.80
   4  12   2   43.00   47.60
  -5 -12  -2   53.19   30.70
  -5 -12  -2  173.38   63.69
  -5 -12  -2  109.09   53.99
  -5 -12  -2  177.38   49.40
   5  12   2   51.79   32.20
   5  12   2   86.29   46.90
   5  12   2    7.60   46.30
   5  12   2   65.79   36.00
   5  12   2  131.89   38.70
   5  12   2   68.99   33.30
  -6 -12  -2  138.19   47.70
  -6 -12  -2   65.49   42.20
  -6 -12  -2   86.09   38.30
   6  12   2  164.18   37.10
   6  12   2   99.59   34.00
   6  12   2   55.29   32.00
   6  12   2  130.69   31.40
   3  12  -3   47.80   43.10
   3  12  -3   43.20   25.90
   3  12  -3  113.39   56.59
   3  12  -3    5.50   23.70
   3  12  -3   39.60   30.90
   3  12  -3   80.29   74.59
   3  12  -3  191.58   70.69
  -3 -12   3   32.00   33.90
  -3 -12   3   48.70   42.40
  -3 -12   3   38.80   28.50
   2  12  -3    6.80   21.10
   2  12  -3   44.40   31.50
   2  12  -3   55.59   38.40
   2  12  -3   35.10   45.40
   2  12  -3   -2.80   16.30
   2  12  -3  109.69   76.49
  -2 -12   3  -12.40   34.20
  -2 -12   3   -7.00   18.70
   1  12  -3   39.60   17.60
   1  12  -3   51.39   30.00
   1  12  -3  104.59   44.50
   1  12  -3   69.59   63.89
   1  12  -3   81.89   31.20
  -1 -12   3   24.20   41.20
  -1 -12   3   18.50   24.10
  -1 -12   3   94.29   39.90
   5  11  -3   14.70   18.40
   5  11  -3   16.00   33.30
   5  11  -3 -103.49   53.59
   5  11  -3   22.80   18.10
   5  11  -3   17.80   24.70
   5  11  -3   31.90   60.39
   5  11  -3  -58.79   35.00
  -5 -11   3   12.30   33.10
  -5 -11   3  -48.00   23.70
  -5 -11   3   -5.10   14.90
   4  11  -3   58.39   45.70
   4  11  -3   75.69   28.90
   4  11  -3   36.40   20.20
   4  11  -3   79.89   38.50
   4  11  -3   -4.20   57.29
   4  11  -3   81.69   61.29
   4  11  -3   86.29   30.20
  -4 -11   3   26.10   25.20
  -4 -11   3   38.00   22.30
  -4 -11   3   68.59   36.80
   3  11  -3   66.99   51.89
   3  11  -3   77.49   51.19
   3  11  -3   69.29   26.50
   3  11  -3   14.60   57.59
   3  11  -3   80.69   39.40
   3  11  -3   41.10   19.80
   3  11  -3   38.70   35.50
  -3 -11   3   24.10   28.40
  -3 -11   3   82.79   31.50
  -3 -11   3   68.49   37.90
   2  11  -3  232.08   93.69
   2  11  -3  301.67   83.89
   2  11  -3  251.97   75.89
   2  11  -3  310.87   49.50
   2  11  -3  318.97   58.69
   2  11  -3  225.68   61.39
  -2 -11   3  318.77   86.69
  -2 -11   3  265.17   51.69
  -2 -11   3  306.47   64.09
   1  11  -3  172.78   48.30
   1  11  -3   66.29   68.49
   1  11  -3   55.49   54.29
   1  11  -3   84.49   51.49
   1  11  -3   25.20   25.20
   1  11  -3   39.90   21.30
  -1 -11   3   57.69   27.50
  -1 -11   3   49.90   36.20
  -1 -11   3  -27.00   27.90
   0  11  -3   -0.80   16.80
   0  11  -3   56.59   55.89
   0  11  -3   71.89   47.20
   0  11  -3   75.09   43.60
   0  11  -3   21.80   45.60
   0 -11   3   32.30   21.30
   0 -11   3  -15.80   27.90
  -1  11  -3   28.30   49.20
  -1  11  -3    9.80   21.50
  -1  11  -3   26.30   40.70
  -1  11  -3   17.70   48.40
   1 -11   3   12.40   37.30
   1 -11   3    3.60   28.30
   1 -11   3   20.10   16.80
   7  10  -3  104.09   35.20
   7  10  -3   17.80   51.69
   7  10  -3   50.99   28.50
   6  10  -3   66.89   49.10
   6  10  -3   26.00   47.20
   6  10  -3  190.28   42.40
   6  10  -3  141.59   39.30
   6  10  -3  105.39   31.70
   6  10  -3   93.59   24.40
  -6 -10   3  102.89   39.90
  -6 -10   3  107.59   44.50
  -6 -10   3  100.19   45.30
   5  10  -3  112.89   32.80
   5  10  -3   76.09   55.89
   5  10  -3   22.50   53.59
   5  10  -3  113.99   28.30
   5  10  -3  105.59   60.89
   5  10  -3  130.49   46.50
   5  10  -3  114.09   34.60
  -5 -10   3   79.99   34.70
  -5 -10   3  113.99   46.80
  -5 -10   3   77.69   40.20
   4  10  -3  290.17   36.40
   4  10  -3  233.18   48.30
   4  10  -3  179.88   60.79
   4  10  -3  212.58   71.39
   4  10  -3  221.48   53.39
   4  10  -3  138.99   74.49
  -4 -10   3  324.07   49.80
  -4 -10   3  212.98   57.59
  -4 -10   3  231.38   64.29
  -4 -10   3  259.77   55.69
   3  10  -3  265.27   60.39
   3  10  -3  164.58   80.59
   3  10  -3  259.37   89.99
   3  10  -3  337.27   88.19
   3  10  -3  327.77   44.20
   3  10  -3  243.08   54.19
   3  10  -3  272.97   44.20
  -3 -10   3  372.26   47.40
  -3 -10   3  409.06   75.89
  -3 -10   3  306.27   73.69
  -3 -10   3  314.17   64.09
  -3 -10   3  359.36   51.99
   2  10  -3  267.27   63.29
   2  10  -3  327.67   83.29
   2  10  -3  307.57   84.49
   2  10  -3  337.57   50.29
   2  10  -3  344.07   46.70
   2  10  -3  197.68   63.79
  -2 -10   3  417.56   60.19
  -2 -10   3  278.67   44.00
  -2 -10   3  362.76   47.10
  -2 -10   3  346.77   76.19
   1  10  -3  172.78   43.40
   1  10  -3  112.69   34.10
   1  10  -3  206.28   50.59
   1  10  -3  120.59   70.99
   1  10  -3  164.08   60.59
   1  10  -3  171.08   61.69
  -1 -10   3  136.49   34.00
  -1 -10   3  163.68   42.00
  -1 -10   3  186.48   56.29
   0  10  -3   20.50   16.20
   0  10  -3   18.10   49.10
   0  10  -3   15.30   40.00
   0  10  -3   12.20   26.20
   0  10  -3   55.69   41.60
   0 -10   3   23.60   27.00
   0 -10   3   36.40   17.60
   0 -10   3  113.89   46.90
  -1  10  -3   21.00   25.70
  -1  10  -3  -41.00   41.40
  -1  10  -3   -3.90   14.60
  -1  10  -3  -18.90   41.10
   1 -10   3  -13.70   12.10
   1 -10   3  -23.90   22.30
   1 -10   3   -6.70   23.30
  -2  10  -3  -16.80   50.79
  -2  10  -3  -29.00   27.70
  -2  10  -3  -83.29   44.30
  -2  10  -3    1.20   16.80
   2 -10   3  -14.90   13.80
   2 -10   3   -1.90   27.60
   2 -10   3   19.20   38.00
  -3  10  -3   29.30   56.19
  -3  10  -3   39.60   21.80
   3 -10   3  -14.00   29.80
   3 -10   3   37.90   24.30
   3 -10   3   25.00   39.80
   7   9  -3   52.29   26.60
   7   9  -3   13.90   20.50
   7   9  -3  119.09   62.79
   7   9  -3   74.09   15.30
  -7  -9   3   17.90   23.50
  -7  -9   3   72.39   40.60
  -7  -9   3   91.19   44.80
   6   9  -3   19.40   11.20
   6   9  -3  -17.80   29.60
   6   9  -3   35.50   19.50
   6   9  -3   81.09   29.10
   6   9  -3   -1.00   12.90
  -6  -9   3   19.60   30.50
  -6  -9   3    8.90   22.40
  -6  -9   3    6.10   15.80
   5   9  -3  -14.50   24.70
   5   9  -3    2.70   16.00
   5   9  -3   18.90   12.80
   5   9  -3   13.80   34.20
   5   9  -3    2.40   13.80
   5   9  -3  -12.10   37.20
   5   9  -3  -15.90   11.00
  -5  -9   3   -5.70   16.60
  -5  -9   3   -3.80   13.60
  -5  -9   3    4.20   23.50
   4   9  -3    2.80   11.70
   4   9  -3    0.30   24.30
   4   9  -3   14.60   41.40
   4   9  -3  -16.80   28.30
   4   9  -3  -29.10   19.40
   4   9  -3   -8.20    7.30
   4   9  -3   38.70   16.20
  -4  -9   3    3.30   15.10
  -4  -9   3  -14.50   16.60
  -4  -9   3    4.30   15.90
  -4  -9   3  -35.30   21.00
  -4  -9   3   25.10   19.40
   3   9  -3   27.30   30.10
   3   9  -3   31.00   31.90
   3   9  -3   19.60   14.20
   3   9  -3   78.49   31.30
   3   9  -3    8.70   32.00
   3   9  -3   34.90   19.30
   3   9  -3   18.00   17.50
  -3  -9   3    3.20   19.50
  -3  -9   3   26.50   17.60
  -3  -9   3  -14.50   16.30
  -3  -9   3   24.00   16.30
  -3  -9   3   60.09   22.90
  -3  -9   3   23.50   27.10
  -3  -9   3   33.10   18.90
   2   9  -3   29.60   30.00
   2   9  -3   48.60   16.90
   2   9  -3    5.90   23.60
   2   9  -3    7.90   36.60
   2   9  -3   32.40   41.00
   2   9  -3   35.20   20.10
   2   9  -3   18.20   22.40
  -2  -9   3   32.10   26.90
  -2  -9   3   21.60   21.00
  -2  -9   3   25.40   14.80
  -2  -9   3   26.00   22.80
  -2  -9   3   28.20   15.50
   1   9  -3   38.00   26.20
   1   9  -3  -15.00   19.50
   1   9  -3    3.30   10.70
   1   9  -3  -16.30   30.60
  -1  -9   3   23.30   17.40
  -1  -9   3  -34.80   19.50
  -1  -9   3   16.00   10.90
  -1  -9   3  -16.00   15.10
   0   9  -3   47.40   51.89
   0   9  -3   84.49   60.79
   0   9  -3  138.39   50.59
   0   9  -3  175.28   40.10
   0   9  -3  203.28   50.09
   0  -9   3  198.28   37.70
   0  -9   3  164.88   45.00
   0  -9   3  174.48   60.49
  -1   9  -3   47.40   31.30
  -1   9  -3   30.60   44.60
  -1   9  -3   60.39   51.19
   1  -9   3   19.30   14.30
   1  -9   3   39.10   24.90
  -2   9  -3  124.59   62.49
  -2   9  -3   61.29   53.59
  -2   9  -3  127.69   40.10
   2  -9   3   94.29   40.80
   2  -9   3   93.69   31.20
   2  -9   3   96.39   42.60
  -3   9  -3  132.89   60.29
  -3   9  -3  165.48   53.79
  -3   9  -3  111.79   64.09
   3  -9   3  281.67   59.79
   3  -9   3  296.77   73.19
   3  -9   3  310.17   53.99
  -4   9  -3  125.89   60.09
  -4   9  -3  151.68   69.79
  -4   9  -3  242.58   73.09
   4  -9   3   95.59   34.70
   4  -9   3   76.39   48.30
   4  -9   3  142.39   34.60
   8   8  -3   13.70   25.50
   8   8  -3   17.40   13.60
   8   8  -3   41.20   37.60
  -8  -8   3    0.70   16.00
  -8  -8   3   -3.30   21.50
   7   8  -3   21.70   17.60
   7   8  -3   -3.40   13.70
   7   8  -3   11.50    7.90
   7   8  -3   18.70   27.90
  -7  -8   3    1.20   17.30
  -7  -8   3   -3.20   25.10
  -7  -8   3   -6.80   28.20
   6   8  -3   29.70   31.20
   6   8  -3   58.99   28.70
   6   8  -3   50.79   14.10
   6   8  -3   56.29   43.80
   6   8  -3   50.69   19.20
  -6  -8   3   67.89   30.10
  -6  -8   3   78.09   41.00
  -6  -8   3   39.40   30.40
   5   8  -3  302.57   45.80
   5   8  -3  269.97   33.10
   5   8  -3  293.57   40.80
   5   8  -3  391.46   57.39
  -5  -8   3  210.58   50.59
  -5  -8   3  214.18   61.09
  -5  -8   3  260.87   37.00
  -5  -8   3  252.27   65.59
   4   8  -3   81.69   27.90
   4   8  -3  152.38   34.60
   4   8  -3  136.69   74.99
   4   8  -3  114.89   23.00
   4   8  -3  134.19   50.89
   4   8  -3   79.99   39.60
   4   8  -3   72.49   48.80
  -4  -8   3  101.59   37.70
  -4  -8   3  140.69   49.90
  -4  -8   3  124.49   33.40
  -4  -8   3   93.69   31.20
   3   8  -3   95.69   23.50
   3   8  -3  165.28   55.29
   3   8  -3  135.29   37.70
   3   8  -3  110.89   27.70
   3   8  -3   87.69   61.39
   3   8  -3  181.58   58.69
   3   8  -3   44.90   36.50
  -3  -8   3  143.59   30.10
  -3  -8   3  103.69   39.80
  -3  -8   3  149.88   38.30
  -3  -8   3  108.09   35.00
  -3  -8   3  123.99   33.50
  -3  -8   3  147.49   43.30
  -3  -8   3   58.59   31.90
   2   8  -3   -3.50   17.00
   2   8  -3   10.70    8.60
   2   8  -3   10.90    9.80
   2   8  -3    8.00   13.90
   2   8  -3   31.30   31.40
   2   8  -3  -31.80   25.20
   2   8  -3   20.70   17.40
  -2  -8   3  -12.00    8.20
  -2  -8   3    6.80   18.80
  -2  -8   3  -16.30   14.90
  -2  -8   3   14.10   18.20
  -2  -8   3   13.60   13.30
  -2  -8   3    1.20    8.50
  -2  -8   3   -0.40   14.40
   1   8  -3  702.33   64.59
   1   8  -3  744.23   91.39
   1   8  -3  516.75   92.99
   1   8  -3  571.54   88.89
   1   8  -3  664.93   62.49
  -1  -8   3  685.83   79.29
  -1  -8   3  683.83   55.29
  -1  -8   3  611.14   65.99
  -1  -8   3  732.53   70.29
  -1  -8   3  724.83   60.49
   0   8  -3   36.20   20.20
   0   8  -3   18.30   26.70
   0   8  -3    7.50   20.90
   0   8  -3   -3.10   19.70
   0   8  -3  -10.20   25.40
   0  -8   3   -5.80   14.90
   0  -8   3    7.80   22.20
   0  -8   3   10.00   13.60
  -1   8  -3   86.69   48.50
  -1   8  -3   75.19   26.10
  -1   8  -3   28.00   41.10
  -1   8  -3  103.69   28.20
  -1   8  -3   78.99   43.90
   1  -8   3   82.89   27.70
   1  -8   3   64.19   21.20
   1  -8   3   17.40   20.70
   1  -8   3   79.79   28.40
  -2   8  -3   -0.20   16.90
  -2   8  -3   32.70   39.40
   2  -8   3   26.80   21.40
   2  -8   3  -40.30   18.30
  -3   8  -3  -59.29   42.70
  -3   8  -3  -29.60   37.90
   3  -8   3    7.30   23.20
   3  -8   3  -12.80   21.20
  -4   8  -3   82.19   52.39
  -4   8  -3   87.59   54.79
  -4   8  -3   65.09   38.80
   4  -8   3   66.39   34.50
   4  -8   3  139.89   28.50
   4  -8   3   71.09   30.00
  -5   8  -3   50.29   51.39
  -5   8  -3   13.70   46.60
  -5   8  -3   29.80   57.69
   5  -8   3   31.70   43.90
   5  -8   3   27.10   15.50
   5  -8   3   87.29   39.60
   8   7  -3  104.19   38.60
   8   7  -3   59.69   23.30
   8   7  -3   68.39   34.10
  -8  -7   3   -6.60   25.80
  -8  -7   3   93.99   40.50
  -8  -7   3   36.40   30.90
   7   7  -3  166.18   36.50
   7   7  -3  187.08   48.90
   7   7  -3  103.79   59.29
   7   7  -3  194.98   13.60
  -7  -7   3  156.28   43.20
  -7  -7   3  141.49   50.59
  -7  -7   3  146.29   52.19
   6   7  -3  140.69   63.39
   6   7  -3  147.99   29.50
   6   7  -3  156.48   18.40
   6   7  -3  141.59   37.50
   6   7  -3  140.29   16.30
   6   7  -3  144.69   17.90
   6   7  -3  103.29   60.69
  -6  -7   3  143.59   50.19
  -6  -7   3  136.89   38.90
  -6  -7   3  182.68   33.40
  -6  -7   3  176.88   57.49
   5   7  -3   68.69   32.20
   5   7  -3   92.79   23.80
   5   7  -3   46.90   32.80
   5   7  -3   89.19   27.20
   5   7  -3  106.79   19.70
  -5  -7   3  118.79   41.00
  -5  -7   3  100.09   41.40
  -5  -7   3   93.09   24.70
  -5  -7   3   91.99   30.60
   4   7  -3  347.47   46.00
   4   7  -3  306.17   81.19
   4   7  -3  287.17   41.90
   4   7  -3  391.86   74.39
   4   7  -3  308.87   31.80
  -4  -7   3  359.06   51.89
  -4  -7   3  325.77   40.20
  -4  -7   3  305.67   55.89
  -4  -7   3  329.97   58.39
   3   7  -3  317.37   76.59
   3   7  -3  332.37   71.79
   3   7  -3  355.36   36.80
   3   7  -3  183.88   71.79
   3   7  -3  353.56   43.90
   3   7  -3  401.26   47.90
  -3  -7   3  353.56   43.80
  -3  -7   3  393.46   77.59
  -3  -7   3  338.37   55.69
  -3  -7   3  340.37   45.60
  -3  -7   3  408.16   53.79
  -3  -7   3  331.27   35.20
  -3  -7   3  327.87   44.90
   2   7  -3   22.90   29.40
   2   7  -3   74.49   20.40
   2   7  -3   75.09   35.60
   2   7  -3  130.09   30.70
   2   7  -3  102.19   30.20
   2   7  -3  101.09   40.50
   2   7  -3  132.29   45.50
  -2  -7   3   99.49   39.60
  -2  -7   3  128.69   33.30
  -2  -7   3  109.49   34.70
  -2  -7   3   74.49   32.80
  -2  -7   3  117.99   31.60
  -2  -7   3  137.79   28.80
  -2  -7   3   76.09   23.50
   1   7  -3  137.99   43.40
   1   7  -3   59.59   21.20
   1   7  -3   87.19   60.49
   1   7  -3   88.99   37.30
  -1  -7   3  130.29   41.30
  -1  -7   3   76.19   20.70
  -1  -7   3   92.09   29.80
  -1  -7   3   72.99   20.10
  -1  -7   3   88.19   28.40
  -1  -7   3   82.69   27.10
   0   7  -3   -5.80   22.90
   0   7  -3  -20.20   24.90
   0   7  -3   21.40   20.90
   0   7  -3   31.50   20.60
   0   7  -3   55.29   17.10
   0  -7   3   11.40   10.10
   0  -7   3   12.30   12.00
   0  -7   3   25.60   12.90
   0  -7   3   41.40   18.10
  -1   7  -3  624.34  143.99
  -1   7  -3  508.65   58.69
  -1   7  -3  578.04   86.49
   1  -7   3  634.84   67.99
   1  -7   3  629.44   54.99
   1  -7   3  602.44   71.59
   1  -7   3  669.03   61.09
  -2   7  -3  785.82  102.49
  -2   7  -3  587.94  110.49
  -2   7  -3  552.84  135.09
   2  -7   3  752.62   72.29
   2  -7   3  776.72   77.69
   2  -7   3  890.11   89.29
   2  -7   3  730.73   61.89
  -3   7  -3  887.71  148.59
  -3   7  -3  843.72  129.69
  -3   7  -3  951.00  115.59
   3  -7   3  753.72   88.69
   3  -7   3  855.71   79.79
   3  -7   3  712.83   64.69
  -4   7  -3  301.17   79.09
  -4   7  -3  192.38   85.39
  -4   7  -3  205.98   78.19
   4  -7   3  246.28   43.00
   4  -7   3  241.48   55.49
   4  -7   3  308.27   59.29
  -5   7  -3  -27.90   43.00
  -5   7  -3   -4.70   31.90
  -5   7  -3   33.00   47.40
   5  -7   3   29.80   27.80
   5  -7   3   51.39   20.30
   5  -7   3   27.70   28.20
  -6   7  -3   26.40   38.90
  -6   7  -3   45.80   41.50
   6  -7   3   -4.50   39.40
   6  -7   3   47.90   19.40
   8   6  -3   -7.30   28.10
   8   6  -3   85.89   32.80
   8   6  -3   18.20   20.80
  -8  -6   3   42.70   27.90
  -8  -6   3   11.10   22.20
  -8  -6   3    5.60   16.50
   7   6  -3    9.60   20.80
   7   6  -3   65.99   17.70
   7   6  -3   87.89   41.60
  -7  -6   3   42.40   26.60
  -7  -6   3    9.60   16.70
  -7  -6   3   18.80   16.50
   6   6  -3   -0.10    3.80
   6   6  -3   15.20    5.50
   6   6  -3   -9.10   11.10
   6   6  -3  -20.60   16.80
   6   6  -3    5.80   10.80
   6   6  -3   -8.10   16.80
  -6  -6   3  -13.90    9.00
  -6  -6   3   -5.50   15.70
  -6  -6   3    5.60   10.10
  -6  -6   3   -7.20   15.20
   5   6  -3  119.69   15.00
   5   6  -3   91.39   22.00
   5   6  -3  126.09   47.60
   5   6  -3  100.69   14.90
   5   6  -3  117.69   32.70
  -5  -6   3   95.89   37.20
  -5  -6   3  100.29   29.60
  -5  -6   3  103.49   38.70
   4   6  -3   97.19   13.70
   4   6  -3  119.99   16.80
   4   6  -3  112.79   26.00
   4   6  -3   79.29   25.00
   4   6  -3  145.39   52.59
  -4  -6   3  106.89   27.90
  -4  -6   3   96.79   36.20
  -4  -6   3  119.09   40.70
  -4  -6   3  106.99   33.30
   3   6  -3  174.68   24.10
   3   6  -3  183.98   62.69
   3   6  -3  189.58   37.10
   3   6  -3  165.98   34.40
  -3  -6   3  189.68   43.70
  -3  -6   3  181.08   23.00
  -3  -6   3  168.18   46.40
  -3  -6   3  110.49   36.80
  -3  -6   3  167.38   26.90
   2   6  -3  352.56   35.40
   2   6  -3  312.47   68.89
   2   6  -3  344.97   38.10
   2   6  -3  270.47   38.10
   2   6  -3  236.88   60.59
   2   6  -3  168.28   68.99
  -2  -6   3  282.97   42.20
  -2  -6   3  283.77   37.70
  -2  -6   3  272.77   36.60
  -2  -6   3  312.07   38.80
  -2  -6   3  300.87   49.60
  -2  -6   3  276.77   49.00
  -2  -6   3  304.27   31.40
   1   6  -3  514.85   46.20
   1   6  -3  533.15   69.39
   1   6  -3  371.96   95.39
   1   6  -3  582.34   73.09
  -1  -6   3  566.14   59.69
  -1  -6   3  525.65   43.60
  -1  -6   3  512.85   50.99
  -1  -6   3  507.85   64.29
  -1  -6   3  493.85   51.49
  -1  -6   3  509.35   45.30
  -1  -6   3  454.65   62.39
   0   6  -3 1031.80   78.59
   0   6  -3  975.50   69.59
   0   6  -3  957.30  102.39
   0   6  -3 1109.89   95.79
   0  -6   3  895.21   74.59
   0  -6   3  968.60   62.89
   0  -6   3 1126.39   87.09
  -1   6  -3  955.90   57.49
  -1   6  -3  779.62   92.59
  -1   6  -3  678.13   67.49
  -1   6  -3  851.31   70.39
  -1   6  -3  587.14  147.19
   1  -6   3  868.41   60.49
   1  -6   3  794.12   71.39
   1  -6   3  942.61   68.69
   1  -6   3  918.71   82.09
  -2   6  -3  729.03   93.89
  -2   6  -3  847.82   72.89
  -2   6  -3  521.45   99.89
   2  -6   3  822.32   68.99
   2  -6   3  759.92   71.79
   2  -6   3  763.12   77.39
   2  -6   3  782.52   58.99
  -3   6  -3  873.11  132.99
  -3   6  -3 1122.79  121.39
  -3   6  -3  862.01  139.49
   3  -6   3 1060.49   89.09
   3  -6   3  992.80   70.89
   3  -6   3  985.20   93.19
   3  -6   3 1011.70   82.39
  -4   6  -3   83.89   62.79
  -4   6  -3  126.19   62.89
  -4   6  -3  158.08   45.10
   4  -6   3  160.88   33.60
   4  -6   3  146.99   39.50
   4  -6   3  144.49   38.80
  -5   6  -3   60.59   45.20
  -5   6  -3   72.89   51.29
  -5   6  -3   86.19   40.90
   5  -6   3   75.89   24.20
   5  -6   3   72.59   27.40
   5  -6   3   59.39   34.30
  -6   6  -3   -0.70   34.30
  -6   6  -3   31.50   41.50
   6  -6   3   17.10   32.00
   6  -6   3  -39.20   21.00
   6  -6   3  -25.60   16.60
   7  -6   3  -64.79   41.00
   8   5  -3  -11.80   37.70
   8   5  -3    1.90   22.30
   8   5  -3   22.90   13.30
  -8  -5   3   15.90   22.80
  -8  -5   3   24.60   24.10
  -8  -5   3   74.99   41.50
   7   5  -3   79.39   21.60
   7   5  -3   69.69   51.69
   7   5  -3  162.38   60.89
  -7  -5   3   58.49   32.30
  -7  -5   3   80.59   32.20
   6   5  -3  909.11  122.39
   6   5  -3  707.93   46.40
   6   5  -3  809.02   58.19
   6   5  -3  783.42   80.79
  -6  -5   3  896.31   94.19
  -6  -5   3  908.71   87.99
  -6  -5   3  813.62   82.69
   5   5  -3   92.29    8.60
   5   5  -3   49.00   15.70
   5   5  -3   49.60   21.40
   5   5  -3   67.89   14.30
   5   5  -3   75.79    9.30
   5   5  -3   73.49   36.10
  -5  -5   3   49.20   23.00
  -5  -5   3   78.29   30.90
  -5  -5   3   99.09   23.00
  -5  -5   3   65.69   29.70
   4   5  -3   20.30   21.40
   4   5  -3   29.80    6.50
   4   5  -3   36.70    9.30
   4   5  -3   18.30    9.40
   4   5  -3    1.70    6.00
   4   5  -3   20.10   12.70
  -4  -5   3   10.30   10.10
  -4  -5   3   10.70   14.50
  -4  -5   3   11.40   16.20
  -4  -5   3   12.90   14.10
   3   5  -3   54.09   15.60
   3   5  -3   63.89   14.40
   3   5  -3   79.59   19.40
   3   5  -3   65.79   14.90
   3   5  -3   59.79   29.70
  -3  -5   3   59.19   17.60
  -3  -5   3   58.39   14.10
  -3  -5   3   61.29   27.00
  -3  -5   3   54.19   20.90
  -3  -5   3   54.79   22.90
   2   5  -3  969.00   96.99
   2   5  -3  834.52   60.59
   2   5  -3  886.31   44.10
   2   5  -3  883.01   64.09
   2   5  -3  898.81   59.99
   2   5  -3  879.11   56.29
  -2  -5   3  877.11   63.29
  -2  -5   3  928.51   66.09
  -2  -5   3  851.21   80.29
  -2  -5   3  855.91   79.39
  -2  -5   3  867.61   61.89
  -2  -5   3  911.71   66.29
   1   5  -3  242.08   43.30
   1   5  -3  243.58   30.70
   1   5  -3  261.57   32.80
   1   5  -3  229.18   27.20
   1   5  -3  254.37   32.20
   1   5  -3  147.99   61.69
  -1  -5   3  277.77   31.90
  -1  -5   3  236.18   33.10
  -1  -5   3  254.17   26.60
  -1  -5   3  234.88   40.90
  -1  -5   3  272.47   56.99
  -1  -5   3  276.27   61.09
  -1  -5   3  208.08   27.30
   0   5  -3  221.18   49.50
   0   5  -3  276.97   37.10
   0   5  -3  113.59   47.70
   0   5  -3  154.68   59.29
   0   5  -3  185.08   49.99
   0  -5   3  264.37   31.70
   0  -5   3  209.98   31.60
   0  -5   3  245.28   37.20
   0  -5   3  303.87   29.40
   0  -5   3  266.57   44.80
  -1   5  -3  163.78   59.99
  -1   5  -3  338.97   35.70
  -1   5  -3  143.29   56.69
  -1   5  -3  252.67   25.70
  -1   5  -3  278.77   35.70
  -1   5  -3  228.78   60.79
   1  -5   3  238.48   37.20
   1  -5   3  231.98   27.40
   1  -5   3  200.68   32.10
   1  -5   3  295.37   33.60
  -2   5  -3   16.70   19.70
  -2   5  -3   23.40   19.30
  -2   5  -3   -7.80   21.90
  -2   5  -3   31.00   13.80
   2  -5   3   15.30   13.20
   2  -5   3   27.30   13.20
   2  -5   3   12.80   11.30
   2  -5   3   10.00   10.60
  -3   5  -3    1.30   18.10
  -3   5  -3   23.20   33.40
  -3   5  -3   22.40   27.30
   3  -5   3  -10.80    9.90
   3  -5   3   -6.70    6.10
   3  -5   3    3.10   10.80
   3  -5   3    3.20   10.60
  -4   5  -3   -2.70   17.60
  -4   5  -3  -10.60   23.70
  -4   5  -3   26.80   46.00
   4  -5   3  -11.50   11.20
   4  -5   3    6.90    8.90
   4  -5   3   22.10   18.70
  -5   5  -3   21.70   32.70
  -5   5  -3    0.60   33.20
  -5   5  -3    3.20   23.60
   5  -5   3  -24.90   21.50
   5  -5   3   -5.90   16.60
   5  -5   3   22.10   10.00
  -6   5  -3    3.50   29.80
  -6   5  -3   20.50   32.30
  -6   5  -3   22.20   44.20
   6  -5   3   29.90   13.80
   6  -5   3   23.90   29.50
  -7   5  -3  -27.60   43.80
  -7   5  -3   29.10   99.79
   7  -5   3   46.20   15.30
   7  -5   3   47.70   45.40
   7  -5   3   61.39   35.70
   8   4  -3   66.09   17.50
   8   4  -3   31.00   31.80
   8   4  -3   98.79   44.10
  -8  -4   3   80.69   30.20
  -8  -4   3   40.40   29.60
  -8  -4   3   37.40   36.30
   7   4  -3   80.69   22.00
   7   4  -3   55.09   27.30
   7   4  -3   79.69   49.50
  -7  -4   3   46.20   27.60
  -7  -4   3   96.59   34.60
  -7  -4   3  104.79   43.90
   6   4  -3   -1.20   10.40
   6   4  -3    0.60    8.20
   6   4  -3   13.90   17.60
   6   4  -3  -32.50   20.50
  -6  -4   3   -6.60   11.60
  -6  -4   3   -5.50   12.70
  -6  -4   3    0.00   10.30
   5   4  -3  513.25   59.59
   5   4  -3  413.86   33.60
   5   4  -3  474.65   39.10
   5   4  -3  647.94   98.39
  -5  -4   3  525.15   59.19
  -5  -4   3  455.85   55.09
  -5  -4   3  393.96   59.69
  -5  -4   3  466.55   37.10
   4   4  -3  288.37   80.49
   4   4  -3  267.57   28.40
   4   4  -3  238.48   15.90
   4   4  -3  246.58   36.10
   4   4  -3  241.48   23.10
   4   4  -3  233.18   15.30
  -4  -4   3  282.77   80.09
  -4  -4   3  259.07   40.10
  -4  -4   3  234.18   26.80
  -4  -4   3  221.88   42.30
   3   4  -3  316.27   36.20
   3   4  -3  276.87   23.90
   3   4  -3  313.77   22.30
   3   4  -3  333.87   36.80
   3   4  -3  333.97   60.29
   3   4  -3  295.87   18.50
   3   4  -3  287.87   31.40
  -3  -4   3  325.67   46.60
  -3  -4   3  313.47   32.00
  -3  -4   3  267.07   40.20
  -3  -4   3  316.77   40.10
  -3  -4   3  291.07   34.80
   2   4  -3  153.58   20.30
   2   4  -3  116.09   12.10
   2   4  -3  168.88   24.30
   2   4  -3   81.49   31.10
   2   4  -3  149.39   17.40
   2   4  -3  127.29   20.00
   2   4  -3  121.29   17.80
   2   4  -3  137.69   32.80
  -2  -4   3  148.39   25.30
  -2  -4   3  143.99   27.80
  -2  -4   3  127.09   34.90
  -2  -4   3  127.19   35.50
  -2  -4   3  144.09   16.40
   1   4  -3  981.60   74.79
   1   4  -3  833.42   55.59
   1   4  -3  855.81   50.99
   1   4  -3  935.01   61.69
   1   4  -3  905.81   86.09
   1   4  -3  845.12   57.29
   1   4  -3  961.10   57.49
   1   4  -3  871.11   41.50
  -1  -4   3  942.41   48.40
  -1  -4   3  924.21   60.59
  -1  -4   3  868.01   54.69
  -1  -4   3  812.82   72.89
  -1  -4   3  831.02   74.29
  -1  -4   3  904.11   57.29
  -1  -4   3  881.11   60.59
   0   4  -3 2751.32  103.89
   0   4  -3 2687.43  151.08
   0   4  -3 2703.63  110.39
   0   4  -3 2664.03   94.59
   0   4  -3 2702.43  136.09
   0   4  -3 2663.43  115.89
   0   4  -3 2717.63  113.29
   0  -4   3 2747.23  108.59
   0  -4   3 2875.21  125.69
   0  -4   3 2643.64  122.59
   0  -4   3 2629.64  145.99
   0  -4   3 2771.92  103.49
  -1   4  -3 2759.32  171.28
  -1   4  -3 3050.09  155.18
  -1   4  -3 3249.57  125.59
  -1   4  -3 3223.48  127.39
  -1   4  -3 3315.77  113.59
   1  -4   3 3104.29  140.39
   1  -4   3 3026.80  116.69
   1  -4   3 3286.47  122.19
  -2   4  -3  369.66   89.89
  -2   4  -3  602.14   49.99
  -2   4  -3  606.64   75.99
   2  -4   3  630.64   57.79
   2  -4   3  614.94   55.99
   2  -4   3  576.44   46.60
   2  -4   3  584.54   42.10
  -3   4  -3   46.50   37.80
  -3   4  -3   67.39   36.20
  -3   4  -3   48.30   16.10
  -3   4  -3   78.99   36.60
   3  -4   3   35.20   12.50
   3  -4   3   50.19   17.90
   3  -4   3   71.29   22.70
   3  -4   3   50.09   19.80
  -4   4  -3   21.80   20.10
  -4   4  -3   -1.70   19.90
  -4   4  -3   19.20    9.60
  -4   4  -3   39.60   31.90
   4  -4   3    0.80    8.80
   4  -4   3    6.20   12.10
   4  -4   3  -10.00    8.90
   4  -4   3   -2.10   11.20
  -5   4  -3   96.39   36.10
  -5   4  -3   39.60   39.60
  -5   4  -3   31.90   30.80
   5  -4   3    0.90   14.80
   5  -4   3   16.80   11.60
   5  -4   3   28.90   24.50
  -6   4  -3  106.49   53.59
  -6   4  -3  101.09   56.49
  -6   4  -3   55.39   35.20
   6  -4   3   63.69   19.20
   6  -4   3   33.60   29.60
   6  -4   3   32.40   19.70
  -7   4  -3   18.00   33.70
  -7   4  -3   16.10   43.00
  -7   4  -3   32.20   56.59
   7  -4   3  -24.80   19.80
   7  -4   3    2.60   13.30
   7  -4   3   27.10   36.20
  -8   4  -3   15.30   44.40
  -8   4  -3   28.30   36.70
   8  -4   3   91.89   50.69
   8  -4   3   26.70   18.60
   8  -4   3   57.89   20.70
   8   3  -3   11.20   14.40
   8   3  -3  -58.19   33.70
   8   3  -3   28.80   28.30
  -8  -3   3   -0.90   18.30
  -8  -3   3   12.70   20.30
   7   3  -3  -13.10   23.50
   7   3  -3    0.30    8.10
   7   3  -3   -2.90   21.70
  -7  -3   3   -3.30   13.40
  -7  -3   3   17.70   13.40
   6   3  -3  383.26   37.10
   6   3  -3  393.26   60.09
   6   3  -3  334.77   37.20
   6   3  -3  358.86   90.39
  -6  -3   3  466.15   56.19
  -6  -3   3  396.36   58.69
  -6  -3   3  371.16   31.40
  -6  -3   3  392.26   54.69
   5   3  -3   68.19   37.80
   5   3  -3   64.79   16.50
   5   3  -3   32.10   12.20
   5   3  -3   66.09   27.10
  -5  -3   3   35.20   18.60
  -5  -3   3   45.70   20.00
  -5  -3   3   63.89   28.90
  -5  -3   3   60.89   14.40
   4   3  -3  417.06   49.60
   4   3  -3  488.15   33.00
   4   3  -3  459.65   75.89
   4   3  -3  480.35   34.70
  -4  -3   3  493.05   57.29
  -4  -3   3  460.25   50.59
  -4  -3   3  497.95   35.60
  -4  -3   3  487.15   52.19
   3   3  -3  370.16   39.40
   3   3  -3  309.07   26.60
   3   3  -3  345.87   18.20
   3   3  -3  355.66   16.30
   3   3  -3  343.97   34.30
   3   3  -3  400.86   64.29
   3   3  -3  331.37   24.00
  -3  -3   3  358.66   31.00
  -3  -3   3  340.37   45.30
  -3  -3   3  369.66   43.20
  -3  -3   3  365.96   32.40
  -3  -3   3  362.36   41.60
   2   3  -3  510.75   34.30
   2   3  -3  503.45   43.00
   2   3  -3  596.64   70.09
   2   3  -3  454.35   41.00
   2   3  -3  469.85   28.10
   2   3  -3  390.86   32.50
   2   3  -3  473.85   22.70
   2   3  -3  448.56   38.40
   2   3  -3  534.95   38.80
  -2  -3   3  475.35   37.60
  -2  -3   3  504.85   27.10
  -2  -3   3  473.55   50.99
  -2  -3   3  470.85   37.10
  -2  -3   3  441.06   37.60
  -2  -3   3  430.56   47.50
  -2  -3   3  500.25   43.70
   1   3  -3 3725.23  189.48
   1   3  -3 3461.95  125.09
   1   3  -3 3465.25  108.59
   1   3  -3 3467.05  127.59
   1   3  -3 3434.26  128.29
   1   3  -3 3760.02  155.18
   1   3  -3 3474.05  137.79
   1   3  -3 3615.94  127.09
   1   3  -3 3592.44  135.79
   1   3  -3 3540.15  149.88
  -1  -3   3 3645.74  137.29
  -1  -3   3 4123.39  181.68
  -1  -3   3 3429.36  159.48
  -1  -3   3 3378.06  159.78
  -1  -3   3 3653.13  115.79
  -1  -3   3 3539.75  130.99
  -1  -3   3 3701.93  131.09
   0   3  -3 1925.51   71.59
   0   3  -3 1941.11   81.99
   0   3  -3 1818.52  141.69
   0   3  -3 1897.51   81.49
   0   3  -3 1905.61  104.69
   0   3  -3 1840.12   86.09
   0   3  -3 1760.82  103.59
   0   3  -3 1876.41   79.29
   0  -3   3 2154.48  112.19
   0  -3   3 1792.92  108.29
   0  -3   3 1827.32   89.89
   0  -3   3 1790.02   71.29
   0  -3   3 1832.62   84.69
   0  -3   3 1859.21   73.59
  -1   3  -3 2252.27   88.69
  -1   3  -3 2141.99  123.89
  -1   3  -3 2198.98   79.69
  -1   3  -3 2285.07   83.99
  -1   3  -3 2361.46   91.59
  -1   3  -3 2233.08  102.29
   1  -3   3 2373.26  110.79
   1  -3   3 2253.67  106.79
   1  -3   3 2192.38   82.19
   1  -3   3 2308.27  101.99
  -2   3  -3   44.20   12.60
  -2   3  -3   45.60   29.00
  -2   3  -3   17.50   15.50
  -2   3  -3   14.90   16.60
  -2   3  -3   46.60   13.20
  -2   3  -3   64.09   28.60
   2  -3   3   32.10   15.90
   2  -3   3   45.70   12.60
   2  -3   3   39.70   11.00
   2  -3   3   60.29   14.70
   2  -3   3   30.60   15.20
  -3   3  -3   99.09   46.40
  -3   3  -3  132.79   42.60
  -3   3  -3  116.99   21.40
  -3   3  -3  107.99   42.40
   3  -3   3  169.68   35.00
   3  -3   3  134.09   27.40
   3  -3   3  105.79   19.50
   3  -3   3  104.89   25.70
  -4   3  -3   10.50   26.70
  -4   3  -3    5.70   15.30
  -4   3  -3    5.60    8.30
  -4   3  -3   40.30   25.50
   4  -3   3   11.20    7.30
   4  -3   3   -9.00    8.20
   4  -3   3    4.90   11.80
   4  -3   3    7.80    9.40
  -5   3  -3   80.09   37.60
  -5   3  -3   82.39   47.10
  -5   3  -3  153.88   61.79
   5  -3   3  167.08   36.70
   5  -3   3   54.99   23.50
   5  -3   3   90.29   19.80
  -6   3  -3  450.05   68.49
  -6   3  -3  465.65  109.89
  -6   3  -3  448.56  100.69
   6  -3   3  348.47   71.39
   6  -3   3  405.96   37.30
   6  -3   3  362.56   48.30
  -7   3  -3  465.45  105.39
  -7   3  -3  528.95   82.69
  -7   3  -3  518.05  143.19
   7  -3   3  405.36   63.19
   7  -3   3  304.97   69.69
   7  -3   3  461.15   45.60
  -8   3  -3  123.39   75.29
  -8   3  -3   89.19   56.79
  -8   3  -3  154.48   50.09
   8  -3   3   61.99   33.50
   8  -3   3  165.88   31.70
   8  -3   3  -32.30   36.10
   8   2  -3   45.80   32.70
  -8  -2   3   28.50   22.70
  -8  -2   3   58.49   30.30
   7   2  -3  122.39   29.90
   7   2  -3  108.39   63.99
   7   2  -3  173.38   59.39
  -7  -2   3  114.19   39.90
  -7  -2   3  140.99   20.50
  -7  -2   3  149.79   41.70
   6   2  -3  -17.70   16.00
   6   2  -3   13.30   10.60
   6   2  -3  -30.40   16.90
  -6  -2   3   -3.30   12.40
  -6  -2   3   26.00   16.90
  -6  -2   3    6.70    7.90
  -6  -2   3    4.00   13.10
   5   2  -3  232.48   65.59
   5   2  -3  220.78   28.00
   5   2  -3  282.27   29.30
   5   2  -3  279.67   60.19
  -5  -2   3  230.58   43.30
  -5  -2   3  317.77   43.30
  -5  -2   3  250.57   24.00
  -5  -2   3  308.77   41.20
   4   2  -3  162.88   20.50
   4   2  -3  192.88   42.70
   4   2  -3  233.78   63.49
   4   2  -3  225.08   25.80
  -4  -2   3  178.08   19.50
  -4  -2   3  209.98   32.00
  -4  -2   3  240.28   35.60
  -4  -2   3  198.18   43.70
   3   2  -3   63.39   12.90
   3   2  -3   53.19   18.70
   3   2  -3   81.49   33.50
   3   2  -3   93.29   12.10
  -3  -2   3   71.29   19.70
  -3  -2   3   84.09   17.20
  -3  -2   3   94.49   18.20
  -3  -2   3   57.99   20.90
  -3  -2   3   83.49   23.70
   2   2  -3  917.41   63.59
   2   2  -3  894.81   60.09
   2   2  -3  898.71   57.49
   2   2  -3  924.71   90.39
   2   2  -3  889.21   58.59
   2   2  -3  912.11   42.80
   2   2  -3  913.91   33.90
   2   2  -3  899.71   28.80
   2   2  -3  915.01   41.20
  -2  -2   3  924.81   32.80
  -2  -2   3  896.21   46.70
  -2  -2   3 1028.40   86.79
  -2  -2   3  882.61   59.39
  -2  -2   3  891.91   64.79
  -2  -2   3  857.41   48.10
  -2  -2   3  920.71   55.49
  -2  -2   3  894.71   67.79
   1   2  -3 2167.58  104.49
   1   2  -3 2137.89   86.09
   1   2  -3 2108.89   85.09
   1   2  -3 2026.50  121.59
   1   2  -3 2201.98   74.69
   1   2  -3 2111.69   79.39
   1   2  -3 2232.28   99.79
   1   2  -3 2054.99   80.59
   1   2  -3 2132.89   64.99
   1   2  -3 2089.39  136.09
  -1  -2   3 2260.47   86.09
  -1  -2   3 2046.10  108.39
  -1  -2   3 2217.28   69.79
  -1  -2   3 2090.49  106.59
  -1  -2   3 2164.48   88.79
   0   2  -3  542.35   28.90
   0   2  -3  557.44   25.30
   0   2  -3  593.84   37.00
   0   2  -3  564.84   30.50
   0   2  -3  585.34   50.69
   0   2  -3  558.84   32.20
   0   2  -3  511.55   57.99
   0   2  -3  578.04   37.80
   0   2  -3  517.45   46.40
   0  -2   3  548.55   39.80
   0  -2   3  657.63   61.19
   0  -2   3  590.34   51.09
   0  -2   3  538.85   51.29
   0  -2   3  527.35   32.40
   0  -2   3  546.45   28.00
   0  -2   3  568.34   31.00
  -1   2  -3   17.80    6.20
  -1   2  -3   -1.70    6.50
  -1   2  -3    0.00   10.70
  -1   2  -3    5.70    6.70
  -1   2  -3    7.40    9.60
  -1   2  -3    8.70   16.10
  -1   2  -3   12.50    3.70
   1  -2   3   16.50    8.00
   1  -2   3   12.50   12.20
   1  -2   3   11.30    4.00
   1  -2   3   -9.50   13.10
   1  -2   3   29.50    9.30
   1  -2   3   17.30    8.50
   1  -2   3    1.60    9.80
  -2   2  -3   -1.50    1.80
  -2   2  -3   23.50   16.50
  -2   2  -3    6.30    7.50
  -2   2  -3    1.60    4.50
  -2   2  -3   13.90    5.40
  -2   2  -3   19.10   10.00
  -2   2  -3  -12.70   10.80
   2  -2   3   -6.20   12.50
   2  -2   3    3.80    5.50
   2  -2   3    2.90    5.40
   2  -2   3    2.80    4.60
   2  -2   3   23.50   14.90
   2  -2   3    1.40    2.00
  -3   2  -3  280.77   31.80
  -3   2  -3  141.59   53.49
  -3   2  -3  154.88   52.99
  -3   2  -3  185.88   25.70
  -3   2  -3  201.58   18.90
  -3   2  -3  242.58   39.00
   3  -2   3  219.48   21.00
   3  -2   3  202.98   27.30
   3  -2   3  237.48   28.00
   3  -2   3  209.28   26.00
   3  -2   3  148.49   34.90
  -4   2  -3    6.90   22.40
  -4   2  -3    9.00    6.50
  -4   2  -3    1.10   16.40
  -4   2  -3   14.80   26.50
   4  -2   3   29.40   12.10
   4  -2   3   -6.50    4.70
   4  -2   3   -3.80    3.30
   4  -2   3    2.00    7.40
   4  -2   3    2.50   10.80
  -5   2  -3   65.29   38.50
  -5   2  -3   13.20   23.10
  -5   2  -3   78.99   64.69
   5  -2   3   52.79   23.60
   5  -2   3   55.29   28.70
   5  -2   3   25.50   14.30
   5  -2   3   63.19   22.40
   5  -2   3   43.90   13.10
  -6   2  -3  171.58   70.59
  -6   2  -3  166.28   46.50
  -6   2  -3  212.78   69.19
  -6   2  -3  179.88   23.50
   6  -2   3  136.59   44.30
   6  -2   3  171.48   23.10
   6  -2   3   97.69   41.20
  -7   2  -3  129.99   49.20
  -7   2  -3   94.29   40.50
  -7   2  -3  132.59   53.49
  -7   2  -3   85.39   22.20
   7  -2   3   98.09   43.90
   7  -2   3   67.59   26.10
   7  -2   3   69.69   18.10
   7  -2   3   77.39   41.10
   7  -2   3   61.39   30.80
  -8   2  -3   43.60   55.99
  -8   2  -3  162.28   66.09
  -8   2  -3  129.39   49.40
   8  -2   3  109.09   48.30
   8  -2   3  153.98   28.40
   8  -2   3  151.68   51.09
   8  -2   3   83.39   31.40
  -9   2  -3   -1.40   48.70
  -9   2  -3   57.19   62.89
  -9   2  -3  123.79   48.90
   9  -2   3  113.49   28.50
   9  -2   3  156.98   58.19
   9  -2   3   59.69   23.70
   8   1  -3   76.89   61.79
   8   1  -3   62.19   45.80
  -8  -1   3  126.59   24.90
  -8  -1   3  106.79   43.30
  -8  -1   3  119.59   41.50
   7   1  -3  183.78   35.30
   7   1  -3  137.09   61.29
  -7  -1   3  220.98   51.89
  -7  -1   3  191.28   53.79
  -7  -1   3  236.88   26.80
   6   1  -3  104.49   57.59
   6   1  -3  161.28   47.90
   6   1  -3  149.88   29.40
  -6  -1   3  169.58   20.50
  -6  -1   3  201.28   47.90
  -6  -1   3  163.98   48.60
   5   1  -3  439.86   39.10
   5   1  -3  353.26  141.69
   5   1  -3  431.76   65.99
   5   1  -3  375.36   40.80
  -5  -1   3  440.16   57.79
  -5  -1   3  424.46   51.39
  -5  -1   3  449.16   33.40
   4   1  -3  537.75   42.20
   4   1  -3  503.55   37.70
   4   1  -3  498.65   79.29
   4   1  -3  460.55   59.19
  -4  -1   3  507.75   56.39
  -4  -1   3  473.85   50.19
  -4  -1   3  566.44   34.30
   3   1  -3 3043.10  192.38
   3   1  -3 3039.30  151.68
   3   1  -3 3133.09  107.69
   3   1  -3 2856.71  113.29
  -3  -1   3 3010.30  104.79
  -3  -1   3 3210.48  112.89
  -3  -1   3 3094.29  143.89
  -3  -1   3 3089.39  133.89
   2   1  -3 2963.20   93.39
   2   1  -3 2930.71  121.29
   2   1  -3 2896.91  100.69
   2   1  -3 2616.94  167.68
   2   1  -3 2867.11  124.39
   2   1  -3 2875.21  130.39
   2   1  -3 2715.43  117.99
  -2  -1   3 2951.60  121.39
  -2  -1   3 2952.90   97.59
  -2  -1   3 2684.93  102.19
  -2  -1   3 3127.79  162.98
  -2  -1   3 2786.72  127.79
  -2  -1   3 2989.80  119.79
   1   1  -3 3501.45  194.68
   1   1  -3 4125.29  111.49
   1   1  -3 4060.79  154.38
   1   1  -3 3995.80  148.89
   1   1  -3 4132.19  128.69
   1   1  -3 4101.09  145.29
   1   1  -3 3983.20  115.19
   1   1  -3 4400.56  148.59
  -1  -1   3 4323.07  113.59
  -1  -1   3 4622.34  201.08
  -1  -1   3 4025.70  152.48
  -1  -1   3 4193.78  120.99
  -1  -1   3 4121.09  140.79
  -1  -1   3 4025.70  132.89
  -1  -1   3 4112.09  160.98
   0   1  -3 1028.70   64.99
   0   1  -3 1052.89   60.49
   0   1  -3 1093.79   50.99
   0   1  -3 1063.19   48.00
   0   1  -3 1026.70   35.40
   0  -1   3 1042.10   84.89
   0  -1   3 1031.30   50.99
   0  -1   3 1063.89   37.20
   0  -1   3  982.50   66.49
   0  -1   3  970.00   62.49
   0  -1   3 1060.99   44.30
  -1   1  -3  127.49   20.70
  -1   1  -3  128.49   15.80
  -1   1  -3  147.19   11.30
  -1   1  -3   80.99   28.20
  -1   1  -3  141.79   10.80
  -1   1  -3  116.19   34.60
   1  -1   3  145.19   23.40
   1  -1   3   89.69   33.60
   1  -1   3   93.39   30.70
   1  -1   3  133.99   12.70
   1  -1   3  142.29   21.40
   1  -1   3  161.18   12.30
  -2   1  -3  448.16   61.29
  -2   1  -3  672.23   31.10
  -2   1  -3  624.24   62.09
  -2   1  -3  597.24   52.99
  -2   1  -3  451.85   71.59
  -2   1  -3  676.43   33.80
  -2   1  -3  588.84   39.40
   2  -1   3  654.63   31.30
   2  -1   3  745.13   46.10
   2  -1   3  601.14   34.80
   2  -1   3  445.46   56.79
  -3   1  -3  126.99   16.00
  -3   1  -3  159.08   49.00
  -3   1  -3  135.99   13.00
  -3   1  -3  133.69   14.00
  -3   1  -3  158.28   47.50
  -3   1  -3  192.78   26.30
  -3   1  -3  125.29   19.30
   3  -1   3  131.69   14.10
   3  -1   3  138.49   20.70
   3  -1   3  123.79   13.10
   3  -1   3  105.59   16.80
   3  -1   3  127.69   35.50
   3  -1   3   74.39   31.70
   3  -1   3  118.69   17.20
  -4   1  -3  283.77   43.90
  -4   1  -3  251.87   66.49
  -4   1  -3  274.17   72.09
  -4   1  -3  258.97   28.70
  -4   1  -3  271.17   24.20
   4  -1   3  206.18   27.60
   4  -1   3  251.67   41.40
   4  -1   3  243.58   28.60
   4  -1   3  234.38   28.40
   4  -1   3  233.98   21.80
  -5   1  -3  238.28   29.50
  -5   1  -3  212.58   24.60
  -5   1  -3  270.27   39.20
  -5   1  -3  226.48   65.29
  -5   1  -3  177.18   56.29
   5  -1   3  173.98   40.30
   5  -1   3  201.48   29.00
   5  -1   3  202.58   23.50
   5  -1   3  189.68   21.00
   5  -1   3  184.68   27.20
   5  -1   3  194.28   46.00
  -6   1  -3    4.10   25.40
  -6   1  -3   -3.90   18.30
  -6   1  -3    5.50    8.90
  -6   1  -3  -28.00   20.40
   6  -1   3    2.90    5.70
   6  -1   3  -23.70   25.80
   6  -1   3    4.00   19.00
   6  -1   3   -6.30    9.10
  -7   1  -3  179.38   46.60
  -7   1  -3  205.08   63.99
  -7   1  -3  202.68   70.59
   7  -1   3  135.69   47.60
   7  -1   3  155.18   26.70
   7  -1   3  137.49   35.40
  -8   1  -3   14.30   16.00
  -8   1  -3  -20.80   28.90
  -8   1  -3   51.99   35.50
  -8   1  -3   20.20   39.00
   8  -1   3    3.70   30.10
   8  -1   3   23.20    9.80
   8  -1   3  -27.20   23.40
   8  -1   3   -8.80   11.30
  -9   1  -3   43.70   19.60
  -9   1  -3  -44.70   28.20
  -9   1  -3    0.60   49.90
   9  -1   3  -32.70   36.40
   9  -1   3  -30.00   37.70
   9  -1   3  -23.50    9.00
   9  -1   3   26.00   13.60
   8   0  -3  -79.89   48.60
   8   0  -3   78.39   51.09
   8   0  -3    2.50   16.80
  -8   0   3   43.00   27.50
  -8   0   3   36.80   22.50
  -8   0   3   46.90   16.40
   7   0  -3   74.19   23.80
   7   0  -3  109.89   42.10
  -7   0   3  110.79   24.50
  -7   0   3   98.29   45.00
  -7   0   3   90.49   31.90
   6   0  -3  127.79   40.40
   6   0  -3   91.39   47.40
   6   0  -3  113.59   28.10
  -6   0   3   88.29   33.60
  -6   0   3  141.89   22.50
  -6   0   3  119.09   41.50
   5   0  -3   74.69   24.50
   5   0  -3   85.29   36.60
   5   0  -3   63.59   33.40
  -5   0   3   29.20   20.50
  -5   0   3   95.79   33.00
  -5   0   3   62.49   17.80
   4   0  -3   42.80   12.00
   4   0  -3   12.40    7.60
   4   0  -3   -3.60   14.30
   4   0  -3   10.30   22.00
  -4   0   3   24.10   16.40
  -4   0   3   31.30   11.40
  -4   0   3   38.20   19.30
   3   0  -3  377.26   29.90
   3   0  -3  378.86   35.70
   3   0  -3  365.96   50.49
   3   0  -3  364.76   62.19
  -3   0   3  383.76   42.50
  -3   0   3  363.16   29.00
  -3   0   3  379.26   29.50
  -3   0   3  391.16   41.90
   2   0  -3  840.02   89.19
   2   0  -3  874.21   61.09
   2   0  -3  862.41   49.70
   2   0  -3  835.62   56.59
   2   0  -3  796.72   40.80
   2   0  -3  855.51   76.29
   2   0  -3  834.42   53.39
  -2   0   3  976.10   83.99
  -2   0   3  905.61   41.50
  -2   0   3  933.21   44.50
  -2   0   3  928.61   63.39
  -2   0   3  912.71   78.79
  -2   0   3  868.51   59.29
   1   0  -3 1196.28   39.10
   1   0  -3 1123.89   42.90
   1   0  -3 1068.89   71.99
   1   0  -3 1171.08   52.99
   1   0  -3  942.51   92.39
   1   0  -3 1204.28   63.19
   1   0  -3 1166.48   60.89
  -1   0   3 1207.88   41.90
  -1   0   3 1138.79   68.09
  -1   0   3 1180.58   68.19
  -1   0   3 1144.89   93.79
  -1   0   3 1205.58   50.59
  -1   0   3 1181.78   35.60
  -1   0   3 1181.68   61.19
   0   0  -3   12.10    5.80
   0   0  -3   17.50    5.70
   0   0  -3    4.00    7.50
   0   0  -3    5.40    8.10
   0   0  -3   12.30    8.00
   0   0  -3   23.40    4.50
   0   0  -3   20.20    8.70
   0   0   3   19.10    9.20
   0   0   3    4.20    6.50
   0   0   3   19.70    3.80
   0   0   3   18.10   14.60
   0   0   3   21.70    7.40
   0   0   3    8.40    8.50
   0   0   3   21.40    6.80
  -1   0  -3    6.60    8.50
  -1   0  -3   12.00    3.00
  -1   0  -3   17.10    5.20
  -1   0  -3   10.10   11.60
  -1   0  -3    8.90    3.00
  -1   0  -3    4.60    4.30
  -1   0  -3    4.70    3.90
   1   0   3   11.70    5.00
   1   0   3   -2.00   10.70
   1   0   3   12.80    5.80
   1   0   3    9.30    2.80
   1   0   3    8.20    9.80
   1   0   3    9.10    6.20
   1   0   3    5.80    2.70
  -2   0  -3 2618.64  147.59
  -2   0  -3 2606.04   85.49
  -2   0  -3 2740.43   94.89
  -2   0  -3 2593.64  114.89
  -2   0  -3 2829.12   91.09
  -2   0  -3 2832.12   85.19
   2   0   3 2620.44   89.39
   2   0   3 2625.84   98.59
   2   0   3 2766.12   85.19
   2   0   3 2743.43   83.69
   2   0   3 2738.73   91.59
  -3   0  -3 2221.68   81.39
  -3   0  -3 2405.56  126.19
  -3   0  -3 2215.98  163.38
  -3   0  -3 2199.18   73.69
  -3   0  -3 2170.98   84.09
  -3   0  -3 2248.77   84.79
  -3   0  -3 1907.01  133.99
   3   0   3 2075.39   83.29
   3   0   3 1862.31  126.49
   3   0   3 2035.10   82.59
   3   0   3 2299.37   80.69
   3   0   3 2248.97   74.99
   3   0   3 2108.49   87.69
  -4   0  -3 1060.59   75.99
  -4   0  -3  953.10   52.09
  -4   0  -3 1048.30  101.09
  -4   0  -3  976.50   52.49
  -4   0  -3 1034.90  111.79
   4   0   3 1042.20   59.19
   4   0   3  987.40   56.29
   4   0   3 1034.20   46.50
   4   0   3  777.62   84.79
   4   0   3 1014.40   56.59
   4   0   3  928.21   55.19
  -5   0  -3 1632.64  101.99
  -5   0  -3 1524.75  130.39
  -5   0  -3 1841.32  153.68
  -5   0  -3 1575.64   79.59
  -5   0  -3 1477.35   72.89
   5   0   3 1509.45   88.99
   5   0   3 1609.04   65.99
   5   0   3 1500.35   75.39
   5   0   3 1526.25   81.59
   5   0   3 1488.95   80.59
   5   0   3 1339.47  109.59
  -6   0  -3 1628.34   99.39
  -6   0  -3 1404.86   73.39
  -6   0  -3 1820.42  155.78
  -6   0  -3 1517.45   98.79
   6   0   3 1426.86   67.39
   6   0   3 1372.96   85.79
   6   0   3 1477.05  102.89
  -7   0  -3  134.09   33.10
  -7   0  -3  225.48   69.29
  -7   0  -3  132.39   31.50
  -7   0  -3  164.28   49.40
   7   0   3  114.39   40.40
   7   0   3  126.39   30.30
   7   0   3  100.29   19.70
  -8   0  -3   77.29   38.20
  -8   0  -3   13.80   25.30
  -8   0  -3   53.39   22.00
  -8   0  -3   -2.20   27.60
   8   0   3   50.29   21.30
   8   0   3   33.40   11.70
   8   0   3   43.30   33.90
  -9   0  -3  -30.00   37.10
  -9   0  -3  -30.20   30.10
  -9   0  -3   19.60   17.90
  -9   0  -3   21.30   37.20
   9   0   3   43.40   23.80
   9   0   3   30.60   13.70
   9   0   3   48.80   43.50
   9   0   3   -8.80   33.10
   8  -1  -3  -57.89   59.09
   8  -1  -3  -34.00   43.40
   8  -1  -3   17.10   21.90
  -8   1   3   -7.50   17.80
  -8   1   3  -30.50   21.30
  -8   1   3  -12.50   23.70
   7  -1  -3   23.80   19.90
   7  -1  -3  -40.30   30.70
   7  -1  -3  -51.89   43.00
   7  -1  -3    5.00    7.70
  -7   1   3   32.60   28.50
  -7   1   3  -17.20   14.40
  -7   1   3   -7.00    8.90
  -7   1   3  -12.50   17.10
   6  -1  -3    5.90   13.20
   6  -1  -3    5.40    5.50
   6  -1  -3   -3.40   30.50
   6  -1  -3   -8.40   24.50
  -6   1   3    6.90   15.70
  -6   1   3  -21.90   12.90
  -6   1   3    9.80    9.00
  -6   1   3   14.50   24.20
   5  -1  -3  166.48   59.49
   5  -1  -3  135.89   16.10
   5  -1  -3  184.78   35.90
   5  -1  -3  195.98   57.29
  -5   1   3  195.28   13.80
  -5   1   3  155.48   42.40
  -5   1   3  190.08   23.30
  -5   1   3  202.28   46.80
  -5   1   3  201.18   31.30
   4  -1  -3  342.37   36.60
   4  -1  -3  400.26   74.89
   4  -1  -3  375.36   24.10
   4  -1  -3  484.15  120.89
  -4   1   3  444.46   50.29
  -4   1   3  417.16   52.89
  -4   1   3  427.96   27.30
  -4   1   3  385.76   20.30
  -4   1   3  411.46   39.30
   3  -1  -3  256.17   31.20
   3  -1  -3  265.77   65.39
   3  -1  -3  245.08   30.10
   3  -1  -3  279.17   18.40
   3  -1  -3  253.87   27.80
   3  -1  -3  334.17   51.59
  -3   1   3  271.97   19.00
  -3   1   3  248.48   33.50
  -3   1   3  302.27   47.50
  -3   1   3  298.07   30.40
  -3   1   3  286.17   39.20
  -3   1   3  269.37   16.40
   2  -1  -3  870.51   78.09
   2  -1  -3  949.21   59.69
   2  -1  -3  936.81   51.19
   2  -1  -3  885.41   86.69
   2  -1  -3  954.70   70.49
   2  -1  -3  922.41   55.69
  -2   1   3 1067.79   89.59
  -2   1   3  983.90   64.69
  -2   1   3  983.80   37.50
  -2   1   3  993.10   48.00
  -2   1   3  989.90   75.99
  -2   1   3  945.11   38.70
  -2   1   3  962.00   60.39
  -2   1   3  941.61   53.39
   1  -1  -3   15.50    4.90
   1  -1  -3   16.00    8.00
   1  -1  -3   13.90    7.10
   1  -1  -3   -4.00    6.70
   1  -1  -3   15.90   10.30
   1  -1  -3   14.60    9.20
  -1   1   3   11.40    3.90
  -1   1   3   10.00    6.80
  -1   1   3   27.70   10.10
  -1   1   3   14.50    5.00
  -1   1   3   11.20    7.30
  -1   1   3   13.70    4.90
  -1   1   3   15.10    7.90
  -1   1   3  -12.00   10.50
   0  -1  -3  393.76   28.50
   0  -1  -3  385.56   28.40
   0  -1  -3  346.47   36.50
   0  -1  -3  389.46   24.50
   0  -1  -3  235.68   55.09
   0  -1  -3  380.76   30.50
   0  -1  -3  402.06   22.00
   0   1   3  440.16   41.40
   0   1   3  398.46   28.10
   0   1   3  385.76   19.90
   0   1   3  377.46   25.10
   0   1   3  373.96   23.50
   0   1   3  356.66   31.60
  -1  -1  -3  175.78   21.80
  -1  -1  -3  198.48   13.90
  -1  -1  -3  166.78   17.10
  -1  -1  -3  180.58   16.40
  -1  -1  -3  167.28   15.60
   1   1   3  168.28   14.50
   1   1   3  175.38   18.20
   1   1   3  179.88   14.80
   1   1   3  167.48   12.50
   1   1   3  167.48   16.30
   1   1   3  195.98   24.30
  -2  -1  -3 6428.66  182.68
  -2  -1  -3 6762.22  272.17
  -2  -1  -3 6735.43  193.48
  -2  -1  -3 6343.46  200.88
  -2  -1  -3 6151.28  180.78
  -2  -1  -3 6493.25  199.98
   2   1   3 6290.67  186.88
   2   1   3 6366.56  186.08
   2   1   3 6634.24  204.58
   2   1   3 5504.95  262.67
   2   1   3 6200.78  188.38
  -3  -1  -3   16.40   11.70
  -3  -1  -3   27.00   11.90
  -3  -1  -3   12.90    5.30
  -3  -1  -3   15.00   10.80
  -3  -1  -3   13.70    4.90
  -3  -1  -3   30.80   15.10
  -3  -1  -3   13.00    6.10
   3   1   3   19.80    9.20
   3   1   3   12.20   12.40
   3   1   3    8.70    4.50
   3   1   3    6.30    3.40
   3   1   3   25.30   16.30
   3   1   3    5.90    3.60
   3   1   3    3.90    3.90
   3   1   3   13.00    6.90
  -4  -1  -3   20.00   14.40
  -4  -1  -3   11.10    4.10
  -4  -1  -3   17.20   19.20
   4   1   3    2.80    5.40
   4   1   3    9.30    4.50
   4   1   3   11.40   13.00
   4   1   3    5.00    5.00
   4   1   3    7.40   14.60
   4   1   3    7.60    3.50
   4   1   3    2.80    8.80
  -5  -1  -3  523.15   48.40
  -5  -1  -3  477.75   49.30
  -5  -1  -3  507.25   31.60
  -5  -1  -3  603.84   82.19
  -5  -1  -3  552.24   68.59
  -5  -1  -3  571.34   58.29
   5   1   3  531.65   44.60
   5   1   3  531.65   42.70
   5   1   3  512.45   35.50
   5   1   3  486.05   30.20
  -6  -1  -3  405.66   55.89
  -6  -1  -3  451.65   69.19
  -6  -1  -3  482.05   80.29
  -6  -1  -3  371.06   50.19
  -6  -1  -3  338.77   27.10
   6   1   3  364.26   45.20
   6   1   3  383.36   28.20
   6   1   3  355.56   37.80
  -7  -1  -3  276.27   31.90
  -7  -1  -3  226.38   64.59
  -7  -1  -3  222.08   42.30
  -7  -1  -3  253.57   24.20
  -7  -1  -3  340.27   75.69
   7   1   3  241.78   44.30
   7   1   3  215.68   47.60
   7   1   3  221.68   34.20
  -8  -1  -3  126.59   30.60
  -8  -1  -3  108.99   49.20
  -8  -1  -3   95.19   33.50
  -8  -1  -3  155.28   57.09
   8   1   3  150.88   30.80
   8   1   3  121.99   20.60
   8   1   3  116.79   46.40
  -9  -1  -3   13.60   18.80
  -9  -1  -3   26.80   30.50
  -9  -1  -3  -46.60   30.20
   9   1   3   -2.30    9.20
   9   1   3  -30.10   24.00
   9   1   3   -9.50   12.80
   9   1   3   10.40   34.50
   8  -2  -3   56.29   19.30
   8  -2  -3  -77.09   68.59
  -8   2   3  -25.90   24.40
   7  -2  -3   51.39   53.19
   7  -2  -3   43.80   23.90
   7  -2  -3   48.10   15.00
   7  -2  -3   53.39   52.29
  -7   2   3   -0.60   26.40
  -7   2   3   36.50   27.40
  -7   2   3   33.10   13.70
  -7   2   3   48.10   25.90
   6  -2  -3   44.30   20.20
   6  -2  -3   36.60   12.70
   6  -2  -3   46.00   44.10
   6  -2  -3  -10.50   42.70
  -6   2   3   16.20   12.70
  -6   2   3   38.00   19.60
  -6   2   3    3.70   19.30
  -6   2   3   -9.60   21.30
   5  -2  -3  770.52   50.89
   5  -2  -3  613.44   98.09
   5  -2  -3  654.73   61.69
   5  -2  -3  602.54   87.99
  -5   2   3  702.03   83.99
  -5   2   3  692.13   34.50
  -5   2   3  706.23   70.89
  -5   2   3  724.03   63.79
   4  -2  -3 1135.99   77.99
   4  -2  -3 1153.08   56.19
   4  -2  -3 1099.39  115.49
  -4   2   3 1232.18   82.29
  -4   2   3 1317.67   62.69
  -4   2   3 1417.16  108.09
  -4   2   3 1290.27   89.19
  -4   2   3 1204.18   50.39
   3  -2  -3 1371.36  116.89
   3  -2  -3 1391.46   93.89
   3  -2  -3 1433.06   82.39
   3  -2  -3 1438.26   62.09
   3  -2  -3 1402.36   76.89
  -3   2   3 1541.15  103.89
  -3   2   3 1583.34   59.09
  -3   2   3 1444.66   84.89
  -3   2   3 1477.75   65.29
  -3   2   3 1818.32  120.29
  -3   2   3 1537.75   87.49
   2  -2  -3  122.19   25.20
   2  -2  -3  123.69   28.70
   2  -2  -3   89.49   18.70
   2  -2  -3  102.19   23.70
   2  -2  -3   35.90   27.20
   2  -2  -3   87.49   31.40
  -2   2   3  107.69   13.80
  -2   2   3  107.29   16.70
  -2   2   3  116.69   28.60
  -2   2   3  124.19   27.20
  -2   2   3  114.99   34.60
  -2   2   3  103.09   17.80
  -2   2   3  106.59   12.20
   1  -2  -3   71.59   15.40
   1  -2  -3   52.39   22.50
   1  -2  -3   63.89   15.70
   1  -2  -3  114.79   27.40
   1  -2  -3   74.19   19.40
   1  -2  -3   51.99   21.60
   1  -2  -3   95.69   12.20
  -1   2   3   78.59   13.10
  -1   2   3   86.59   11.00
  -1   2   3   86.59   16.20
  -1   2   3   81.39   11.10
  -1   2   3   97.69   21.80
  -1   2   3   99.49   32.90
  -1   2   3   54.09   15.50
  -1   2   3   59.79   17.10
   0  -2  -3   19.00    8.90
   0  -2  -3   24.90    7.90
   0  -2  -3   16.20   10.90
   0  -2  -3   14.50   14.60
   0  -2  -3    4.20   10.10
   0  -2  -3   25.80    5.50
   0  -2  -3   11.20    8.70
   0  -2  -3   18.80    8.70
   0   2   3    8.20    6.30
   0   2   3   11.20   13.30
   0   2   3   24.10    7.10
   0   2   3   25.00   10.30
   0   2   3   21.80    8.30
   0   2   3   32.30    9.40
   0   2   3   21.40    8.90
  -1  -2  -3  266.97   24.40
  -1  -2  -3  297.07   47.90
  -1  -2  -3  285.47   33.00
  -1  -2  -3  188.08   30.60
  -1  -2  -3  278.47   19.50
  -1  -2  -3  286.37   25.80
  -1  -2  -3  259.47   19.90
   1   2   3  286.07   22.50
   1   2   3  295.87   33.60
   1   2   3  305.27   26.40
   1   2   3  269.07   18.80
   1   2   3  237.98   23.70
   1   2   3  175.18   47.40
   1   2   3  285.27   19.30
  -2  -2  -3 1599.64  114.79
  -2  -2  -3 1423.36  101.09
  -2  -2  -3 1432.56   58.59
  -2  -2  -3 1453.75   58.39
  -2  -2  -3 1409.46   77.19
  -2  -2  -3 1458.75   53.39
  -2  -2  -3 1459.85   68.59
   2   2   3 1441.36   71.19
   2   2   3 1526.75   54.99
   2   2   3 1493.55  115.79
   2   2   3 1375.56   64.59
   2   2   3 1519.45   80.59
   2   2   3 1466.15   54.89
  -3  -2  -3  270.17   30.40
  -3  -2  -3  359.26   52.59
  -3  -2  -3  322.47   45.70
  -3  -2  -3  295.17   29.50
  -3  -2  -3  267.47   20.90
  -3  -2  -3  301.47   19.90
  -3  -2  -3  285.37   31.10
   3   2   3  279.87   25.70
   3   2   3  282.27   19.20
   3   2   3  322.67   92.69
   3   2   3  304.37   33.00
   3   2   3  298.37   20.00
   3   2   3  296.37   48.60
  -4  -2  -3  706.93   30.80
  -4  -2  -3  749.92   77.99
  -4  -2  -3  779.52   74.39
  -4  -2  -3  716.33   50.79
  -4  -2  -3  707.83   37.70
  -4  -2  -3  767.72   58.29
   4   2   3  679.63   44.90
   4   2   3  683.73   47.60
   4   2   3  718.93   77.19
   4   2   3  722.23   36.20
   4   2   3  636.94   52.09
   4   2   3  707.63   41.50
  -5  -2  -3  489.35   52.09
  -5  -2  -3  423.66   22.10
  -5  -2  -3  512.45   69.39
  -5  -2  -3  485.15   59.39
   5   2   3  410.46   26.40
   5   2   3  452.85   38.30
   5   2   3  434.16   26.60
   5   2   3  487.05   42.90
   5   2   3  313.87   50.89
  -6  -2  -3  216.88   49.99
  -6  -2  -3  242.88   51.89
  -6  -2  -3  198.38   57.79
   6   2   3  168.58   26.30
   6   2   3  217.38   31.10
   6   2   3  195.58   18.80
  -7  -2  -3  285.47   68.09
  -7  -2  -3  317.27   56.29
  -7  -2  -3  302.17   52.49
   7   2   3  329.57   27.00
   7   2   3  297.67   45.80
   7   2   3  318.47   38.00
  -8  -2  -3   24.60   21.10
  -8  -2  -3  -25.60   26.10
  -8  -2  -3    6.10   12.00
   8   2   3   -0.70    7.40
   8   2   3    1.20   16.00
   8   2   3    8.90   11.30
  -9  -2  -3   61.39   26.80
  -9  -2  -3   31.40   38.00
  -9  -2  -3   33.50   36.90
   9   2   3   84.59   37.80
   9   2   3   56.19   15.40
   9   2   3   67.59   23.00
 -10  -2  -3  -25.30   31.40
 -10  -2  -3  -23.70   30.30
 -10  -2  -3   81.69   45.70
  10   2   3  -41.60   34.90
  10   2   3   25.80   14.10
  10   2   3   30.60   14.60
  10   2   3  -10.70   42.50
   7  -3  -3  -15.00   31.40
   7  -3  -3  -45.00   58.29
   7  -3  -3  -18.20   14.60
   7  -3  -3  -13.10   13.80
  -7   3   3   13.80   17.80
  -7   3   3   -7.10   27.30
  -7   3   3   26.60   38.60
  -7   3   3   47.90   26.40
   6  -3  -3   27.00   12.30
   6  -3  -3   31.20   21.40
   6  -3  -3   16.20   47.10
   6  -3  -3   -1.80   32.90
  -6   3   3    9.60   22.80
  -6   3   3   -2.10   28.40
  -6   3   3   -7.60   11.80
  -6   3   3   26.60   20.60
   5  -3  -3   19.10   11.70
   5  -3  -3   23.90   35.90
   5  -3  -3   25.20   17.40
   5  -3  -3  -14.20   39.30
  -5   3   3    9.90   17.80
  -5   3   3   34.50   18.30
  -5   3   3   15.10   12.10
  -5   3   3    9.20   25.50
   4  -3  -3   -3.10   13.00
   4  -3  -3  -17.80   20.80
   4  -3  -3   17.60    9.30
   4  -3  -3  -18.60   14.60
  -4   3   3   32.30   17.30
  -4   3   3   33.40   10.00
  -4   3   3   49.90   18.30
  -4   3   3   51.59   29.50
   3  -3  -3  409.36   67.39
   3  -3  -3  393.26   51.39
   3  -3  -3  282.67   75.09
   3  -3  -3  459.85   33.80
   3  -3  -3  416.36   46.20
   3  -3  -3  491.65   39.90
  -3   3   3  462.65   36.20
  -3   3   3  472.25   45.00
  -3   3   3  511.75   52.39
  -3   3   3  513.25   63.39
  -3   3   3  477.85   31.20
  -3   3   3  620.64   66.59
   2  -3  -3  104.39   42.40
   2  -3  -3  121.29   25.20
   2  -3  -3  168.88   19.10
   2  -3  -3  146.29   24.70
   2  -3  -3  135.59   42.50
  -2   3   3  171.88   36.60
  -2   3   3  165.98   48.30
  -2   3   3  130.99   15.90
  -2   3   3  130.79   18.00
  -2   3   3  190.48   42.90
  -2   3   3  125.39   20.10
   1  -3  -3 1037.30   52.09
   1  -3  -3 1069.29   53.69
   1  -3  -3 1093.59   68.19
   1  -3  -3  986.00   87.59
   1  -3  -3  979.20   78.59
  -1   3   3 1133.79   54.99
  -1   3   3 1092.19   69.39
  -1   3   3 1074.49   62.59
  -1   3   3 1091.99   51.49
  -1   3   3 1115.29   52.59
  -1   3   3 1098.99   72.69
   0  -3  -3  418.76   41.40
   0  -3  -3  372.36   46.80
   0  -3  -3  454.05   33.10
   0  -3  -3  472.05   40.50
   0  -3  -3  449.16   40.40
   0  -3  -3  459.95   22.20
   0  -3  -3  370.96   55.69
   0   3   3  349.96   55.79
   0   3   3  425.66   41.50
   0   3   3  403.76   29.60
   0   3   3  503.15   34.50
   0   3   3  462.05   39.80
   0   3   3  474.25   52.59
   0   3   3  431.56   37.50
  -1  -3  -3   81.99   23.60
  -1  -3  -3  104.39   14.40
  -1  -3  -3  107.69   22.60
  -1  -3  -3   94.19   19.40
  -1  -3  -3   65.99   18.00
  -1  -3  -3   85.19   20.20
  -1  -3  -3   86.29   29.40
   1   3   3   70.09   16.40
   1   3   3   96.79   11.80
   1   3   3   82.19   34.10
   1   3   3   73.59   31.70
   1   3   3   91.99   18.60
   1   3   3  128.59   14.00
   1   3   3   50.59   17.30
  -2  -3  -3 5564.44  190.68
  -2  -3  -3 5534.85  199.38
  -2  -3  -3 5197.88  187.98
  -2  -3  -3 5815.62  252.87
  -2  -3  -3 5179.18  173.28
  -2  -3  -3 5365.96  168.48
  -2  -3  -3 5296.17  204.38
   2   3   3 5062.19  263.97
   2   3   3 5188.88  182.48
   2   3   3 5241.78  165.58
   2   3   3 5058.49  163.38
   2   3   3 5434.96  222.28
   2   3   3 5355.86  190.58
  -3  -3  -3 4503.35  179.38
  -3  -3  -3 4314.57  164.98
  -3  -3  -3 4363.66  141.69
  -3  -3  -3 4598.84  188.88
  -3  -3  -3 4314.77  143.99
  -3  -3  -3 4762.72  228.08
   3   3   3 4528.35  171.48
   3   3   3 3965.40  215.38
   3   3   3 4354.26  158.18
   3   3   3 3960.10  204.88
   3   3   3 4678.03  132.19
   3   3   3 4502.25  138.59
   3   3   3 4159.08  176.78
  -4  -3  -3 4725.03  154.08
  -4  -3  -3 4915.11  213.68
  -4  -3  -3 4665.43  154.28
  -4  -3  -3 4805.32  187.38
  -4  -3  -3 4690.63  142.89
  -4  -3  -3 5057.09  228.58
   4   3   3 4573.94  144.89
   4   3   3 4719.33  176.98
   4   3   3 4644.24  167.88
   4   3   3 4409.56  187.48
   4   3   3 4600.24  137.69
  -5  -3  -3  597.24   70.59
  -5  -3  -3  645.14   48.00
  -5  -3  -3  537.15   67.79
  -5  -3  -3  503.45   48.30
   5   3   3  516.45   31.00
   5   3   3  581.34   45.70
   5   3   3  431.26   50.79
   5   3   3  581.74   49.30
  -6  -3  -3  211.88   50.39
  -6  -3  -3  135.39   33.20
  -6  -3  -3  135.09   43.80
   6   3   3  107.89   23.40
   6   3   3  162.78   34.30
   6   3   3  136.89   14.90
  -7  -3  -3   11.40   23.10
  -7  -3  -3   38.00   26.40
  -7  -3  -3   32.30   18.70
   7   3   3   35.80   16.60
   7   3   3   36.10   10.20
   7   3   3   38.00   15.80
  -8  -3  -3   10.50   17.80
  -8  -3  -3    0.80   21.10
  -8  -3  -3   21.40   23.80
   8   3   3   35.50   15.40
   8   3   3   11.90    7.80
  -9  -3  -3  483.65   71.09
  -9  -3  -3  499.95   73.49
  -9  -3  -3  473.85   84.19
   9   3   3  560.64   59.29
   9   3   3  408.06   66.99
   9   3   3  468.95   36.40
 -10  -3  -3  -12.80   27.80
 -10  -3  -3   -6.80   32.40
 -10  -3  -3   15.80   29.00
  10   3   3   48.20   14.90
  10   3   3    9.80   39.00
  10   3   3   13.10   19.20
  10   3   3   21.40   35.90
   7  -4  -3   66.89  108.09
   7  -4  -3  114.99   23.70
   7  -4  -3   74.79   29.90
   7  -4  -3   10.10   43.30
  -7   4   3   13.20   23.80
  -7   4   3   69.59   31.50
  -7   4   3   58.49   35.60
  -7   4   3   31.20   42.50
   6  -4  -3  105.29   22.30
   6  -4  -3   82.69   74.09
   6  -4  -3  130.39   50.89
   6  -4  -3   91.99   34.70
  -6   4   3  126.19   40.40
  -6   4   3  131.19   42.60
  -6   4   3  111.39   53.09
  -6   4   3  101.79   29.70
   5  -4  -3  114.49   25.30
   5  -4  -3   67.29   45.10
   5  -4  -3  112.69   40.90
   5  -4  -3    0.40   43.10
  -5   4   3  140.99   44.60
  -5   4   3  112.09   33.20
  -5   4   3  102.29   49.99
  -5   4   3   93.09   24.90
   4  -4  -3  -14.70   32.60
   4  -4  -3   13.40   11.20
   4  -4  -3  -13.60   11.10
   4  -4  -3   11.10   27.80
  -4   4   3   30.10   22.40
  -4   4   3   19.50   12.40
  -4   4   3   19.10   25.60
  -4   4   3   11.10   11.50
   3  -4  -3  266.07   29.40
   3  -4  -3  224.68   51.99
   3  -4  -3  222.08   26.40
   3  -4  -3  209.18   57.79
   3  -4  -3  245.78   38.30
   3  -4  -3  266.97   62.59
  -3   4   3  294.97   33.20
  -3   4   3  277.87   65.79
  -3   4   3  208.68   47.10
   2  -4  -3  -11.50    6.30
   2  -4  -3    6.90   15.40
   2  -4  -3   -5.20   11.80
   2  -4  -3    2.40   12.10
   2  -4  -3   -6.20    4.70
  -2   4   3   26.80   17.40
  -2   4   3   19.60   20.40
  -2   4   3   11.80    5.80
  -2   4   3   13.70   10.30
   1  -4  -3  219.98   32.10
   1  -4  -3  178.58   43.50
   1  -4  -3  153.98   43.70
   1  -4  -3  207.28   22.90
   1  -4  -3  167.78   25.50
  -1   4   3  179.98   16.30
  -1   4   3  196.28   39.80
  -1   4   3  114.39   39.00
  -1   4   3  194.58   23.50
  -1   4   3  254.37   37.80
   0  -4  -3    2.20   11.60
   0  -4  -3   27.10   12.50
   0  -4  -3   22.20    7.00
   0  -4  -3    9.70    8.70
   0  -4  -3   30.10   16.20
   0   4   3    1.40    4.80
   0   4   3   21.30   20.40
   0   4   3   16.20    9.90
   0   4   3   27.40   10.70
   0   4   3    7.80    4.90
   0   4   3    4.30    7.50
  -1  -4  -3  470.05   35.20
  -1  -4  -3  381.46   42.10
  -1  -4  -3  473.05   64.09
  -1  -4  -3  452.55   45.50
  -1  -4  -3  469.65   56.79
  -1  -4  -3  459.75   44.50
   1   4   3  505.85   35.60
   1   4   3  487.05   42.20
   1   4   3  574.94   58.29
   1   4   3  516.45   46.20
   1   4   3  446.06   33.80
   1   4   3  597.34  105.19
  -2  -4  -3  132.49   38.60
  -2  -4  -3  104.99   23.90
  -2  -4  -3  116.59   49.60
  -2  -4  -3   87.49   15.80
  -2  -4  -3  141.19   29.10
  -2  -4  -3  136.09   17.10
   2   4   3  102.59   28.90
   2   4   3   70.29   16.70
   2   4   3   99.49   20.20
   2   4   3   77.29   20.20
   2   4   3  105.59   37.70
   2   4   3  129.79   30.90
   2   4   3  116.69   25.80
  -3  -4  -3  329.17   50.69
  -3  -4  -3  330.17   28.50
  -3  -4  -3  308.77   41.60
  -3  -4  -3  289.97   33.90
  -3  -4  -3  276.17   27.60
   3   4   3  273.67   42.80
   3   4   3  270.57   31.70
   3   4   3  299.27   25.60
   3   4   3  287.87   24.30
   3   4   3  298.07   44.50
  -4  -4  -3  208.38   34.10
  -4  -4  -3  212.38   50.89
  -4  -4  -3  188.88   22.20
  -4  -4  -3  187.08   33.70
   4   4   3  248.98   46.20
   4   4   3  176.68   25.80
   4   4   3  223.18   20.80
   4   4   3  199.58   15.40
  -5  -4  -3  402.26   55.49
  -5  -4  -3  353.16   57.19
  -5  -4  -3  325.27   27.00
  -5  -4  -3  369.56   44.60
   5   4   3  354.46   26.20
   5   4   3  301.87   37.30
   5   4   3  318.07   37.20
   5   4   3  331.17   36.30
  -6  -4  -3   19.20   17.20
  -6  -4  -3   14.00   19.30
  -6  -4  -3  -11.70   14.80
  -6  -4  -3   12.50   10.50
   6   4   3   40.60   19.50
   6   4   3   14.60    8.40
   6   4   3    2.40    8.00
   6   4   3    6.50    4.50
  -7  -4  -3   11.90   21.00
  -7  -4  -3    3.70   18.90
  -7  -4  -3    9.10   14.40
   7   4   3    8.90    5.40
   7   4   3   -4.70   10.70
   7   4   3    3.20    9.90
  -8  -4  -3   -9.10   11.20
  -8  -4  -3   -6.70   12.30
   8   4   3  -16.40    7.00
   8   4   3   19.90   15.50
   8   4   3   -7.70    4.10
  -9  -4  -3   15.80   30.80
  -9  -4  -3   62.99   30.30
  -9  -4  -3  124.29   43.30
   9   4   3   61.89   16.00
   9   4   3   65.09   26.80
   9   4   3   55.39   29.60
 -10  -4  -3   74.99   36.70
 -10  -4  -3   90.39   36.00
 -10  -4  -3   39.00   24.40
  10   4   3   43.20   20.30
  10   4   3   23.00   13.50
  10   4   3    3.50   29.90
   6  -5  -3  -44.30   69.59
   6  -5  -3  139.59   61.89
   6  -5  -3  122.29   42.60
   6  -5  -3  155.18   30.20
  -6   5   3  113.39   38.90
  -6   5   3  130.99   28.50
  -6   5   3  133.59   66.49
   5  -5  -3   74.49   38.20
   5  -5  -3  117.19   58.19
   5  -5  -3  247.88   50.89
   5  -5  -3  157.28   31.50
  -5   5   3  125.39   43.40
  -5   5   3  152.68   67.09
  -5   5   3  184.88   41.70
  -5   5   3  215.78   40.70
   4  -5  -3  245.88   30.60
   4  -5  -3  229.58   37.70
   4  -5  -3  171.08   60.39
   4  -5  -3  190.58   67.99
   4  -5  -3  210.48   51.09
  -4   5   3  232.68   52.89
  -4   5   3  293.67   46.10
  -4   5   3  311.87   76.49
  -4   5   3  283.17   39.60
   3  -5  -3  253.87   26.10
   3  -5  -3  134.29   51.29
   3  -5  -3  254.57   30.80
   3  -5  -3  216.98   66.09
   3  -5  -3  236.88   49.40
   3  -5  -3  207.78   54.19
  -3   5   3  225.58   30.20
  -3   5   3  353.06   45.40
  -3   5   3  278.47   34.50
  -3   5   3  276.87   56.89
  -3   5   3  211.98   54.89
   2  -5  -3   90.49   41.00
   2  -5  -3  100.19   22.50
   2  -5  -3   87.59   30.50
   2  -5  -3   49.20   27.10
   2  -5  -3   47.60   22.30
  -2   5   3   21.50   16.80
  -2   5   3   64.79   16.90
  -2   5   3  108.99   35.40
  -2   5   3   69.69   16.00
   1  -5  -3   68.29   29.70
   1  -5  -3   99.89   38.70
   1  -5  -3   90.99   19.40
   1  -5  -3   88.69   28.40
  -1   5   3   97.29   22.00
  -1   5   3  133.99   49.10
  -1   5   3  138.39   38.80
  -1   5   3  122.99   34.80
   0  -5  -3  890.81   73.59
   0  -5  -3  940.91   89.39
   0  -5  -3  952.80   91.89
   0  -5  -3  680.03   76.79
   0   5   3  949.80   72.29
   0   5   3  880.21   56.49
   0   5   3  814.92   68.59
  -1  -5  -3 2975.00  165.58
  -1  -5  -3 3160.98  176.08
  -1  -5  -3 2864.91  144.39
   1   5   3 2851.21  127.59
   1   5   3 3155.28  139.89
   1   5   3 3064.99  120.19
   1   5   3 2728.73  192.48
  -2  -5  -3  949.31   45.50
  -2  -5  -3  908.71   72.99
  -2  -5  -3  959.40   70.09
  -2  -5  -3  988.40   92.59
  -2  -5  -3 1016.50   85.69
   2   5   3  842.12   99.09
   2   5   3 1014.70   76.69
   2   5   3  932.01   67.29
   2   5   3  894.11   54.39
   2   5   3  906.51   71.29
   2   5   3  961.60   50.29
   2   5   3  906.91   46.80
  -3  -5  -3 2095.59  140.89
  -3  -5  -3 2070.49  127.29
  -3  -5  -3 2019.30   93.09
  -3  -5  -3 2126.39  117.39
  -3  -5  -3 1993.00  102.79
   3   5   3 1933.61  118.79
   3   5   3 1912.51   87.99
   3   5   3 2006.50  108.49
   3   5   3 1982.30   87.49
  -4  -5  -3   50.59   24.80
  -4  -5  -3   81.09   24.70
  -4  -5  -3   77.79   20.70
  -4  -5  -3   53.29   23.90
   4   5   3   63.69   17.10
   4   5   3   75.39   21.90
   4   5   3   54.49   25.20
   4   5   3   56.09   15.10
  -5  -5  -3  144.69   17.80
  -5  -5  -3  206.48   45.70
  -5  -5  -3  125.49   39.90
  -5  -5  -3  208.68   45.90
   5   5   3  157.28   33.40
   5   5   3  181.98   39.70
   5   5   3  135.79   27.60
   5   5   3  131.69   16.00
   5   5   3  157.68   19.10
  -6  -5  -3  177.98   49.00
  -6  -5  -3  178.28   49.50
  -6  -5  -3  142.49   20.50
  -6  -5  -3  226.08   48.30
   6   5   3  136.19   31.00
   6   5   3  194.38   20.30
   6   5   3  153.08   31.70
   6   5   3  158.58   36.40
  -7  -5  -3   82.59   31.50
  -7  -5  -3  123.89   44.90
  -7  -5  -3   94.89   22.90
   7   5   3   82.69   21.30
   7   5   3  104.89   26.60
   7   5   3  101.99   28.60
  -8  -5  -3   -5.60   17.60
  -8  -5  -3   72.09   33.40
  -8  -5  -3   25.60   16.80
   8   5   3   30.50    9.50
   8   5   3   25.30   14.40
   8   5   3   23.50   19.70
  -9  -5  -3   27.50   27.30
  -9  -5  -3   13.90   17.40
   9   5   3  -52.29   28.40
   9   5   3  -10.50   11.30
   9   5   3    3.20    8.00
 -10  -5  -3   22.90   27.50
 -10  -5  -3   40.00   34.50
 -10  -5  -3   25.40   30.50
  10   5   3    3.70   17.90
  10   5   3   51.09   15.80
  10   5   3   57.79   29.60
   6  -6  -3  -42.20   37.90
   6  -6  -3   29.30   16.50
   6  -6  -3   14.50   22.90
  -6   6   3  -11.70   20.80
  -6   6   3  -17.10   31.20
  -6   6   3   48.80   27.30
   5  -6  -3   76.69   22.70
   5  -6  -3   42.40   40.40
   5  -6  -3   57.29   30.00
  -5   6   3   49.90   46.70
  -5   6   3   80.69   32.20
  -5   6   3   -5.80   33.10
  -5   6   3   69.19   24.70
   4  -6  -3   67.39   28.60
   4  -6  -3   53.99   39.30
   4  -6  -3   36.90   41.20
   4  -6  -3   59.69   21.50
  -4   6   3   54.99   34.80
  -4   6   3   81.69   26.20
  -4   6   3   83.29   24.30
  -4   6   3   40.30   34.90
   3  -6  -3  313.47   47.90
   3  -6  -3  230.48   68.69
   3  -6  -3  267.27   35.20
   3  -6  -3  220.38   51.29
   3  -6  -3  148.39   49.70
  -3   6   3  202.88   52.69
  -3   6   3  266.67   30.70
  -3   6   3  242.68   42.10
  -3   6   3  313.77   74.59
   2  -6  -3  195.68   60.59
   2  -6  -3  200.28   49.80
   2  -6  -3  250.87   32.60
   2  -6  -3  205.88   34.80
   2  -6  -3  204.88   47.50
  -2   6   3  256.77   64.89
  -2   6   3  250.87   42.00
  -2   6   3  277.57   25.00
  -2   6   3  180.98   51.29
   1  -6  -3  407.46   54.99
   1  -6  -3  365.16   56.79
   1  -6  -3  462.45   41.10
   1  -6  -3  401.56   66.19
  -1   6   3  419.66   59.69
  -1   6   3  395.06   41.50
  -1   6   3  338.07   51.49
  -1   6   3  467.65   62.59
   0  -6  -3  968.40   62.09
   0  -6  -3  919.61   85.49
   0  -6  -3  904.81   95.59
   0  -6  -3  871.01   80.69
   0   6   3  969.60   80.49
   0   6   3  974.00   64.69
   0   6   3  767.82   94.99
   0   6   3  909.21   78.99
  -1  -6  -3 1852.41  127.09
  -1  -6  -3 1739.03  130.19
  -1  -6  -3 1760.02  115.59
   1   6   3 1739.93  156.88
   1   6   3 1731.43  101.39
   1   6   3 1850.11   91.39
   1   6   3 1836.12  110.29
  -2  -6  -3 2234.28   83.29
  -2  -6  -3 2354.16  135.19
  -2  -6  -3 2411.46  150.78
  -2  -6  -3 2507.75  153.78
   2   6   3 2432.56  106.29
   2   6   3 2126.49  106.59
   2   6   3 2279.87  102.29
   2   6   3 2197.48  100.59
   2   6   3 2337.77  132.29
   2   6   3 2181.88  116.19
  -3  -6  -3 1050.29   80.99
  -3  -6  -3 1134.89   87.89
  -3  -6  -3 1191.28  100.59
  -3  -6  -3 1046.30   59.79
  -3  -6  -3 1123.59  102.79
   3   6   3 1051.99   80.29
   3   6   3 1154.88   65.79
   3   6   3 1131.59   70.69
   3   6   3  910.11   76.09
  -4  -6  -3   -0.50   11.20
  -4  -6  -3   22.60   18.30
  -4  -6  -3    3.40    7.50
  -4  -6  -3   16.70   13.00
   4   6   3   23.10   11.30
   4   6   3   23.10   11.70
   4   6   3   23.90   16.20
   4   6   3   10.20    8.80
  -5  -6  -3  111.09   38.00
  -5  -6  -3   84.39   29.90
  -5  -6  -3   92.99   24.80
  -5  -6  -3  102.19   30.80
   5   6   3   97.79   29.20
   5   6   3   88.29   18.80
   5   6   3  115.19   20.90
   5   6   3  103.59   15.00
   5   6   3   97.49   26.80
  -6  -6  -3  165.28   45.60
  -6  -6  -3  175.28   53.49
  -6  -6  -3  132.39   21.50
  -6  -6  -3  129.29   39.50
   6   6   3  170.38   40.00
   6   6   3  119.39   30.00
   6   6   3  110.69   20.10
  -7  -6  -3  281.07   43.60
  -7  -6  -3  277.77   68.49
  -7  -6  -3  279.17   32.00
  -7  -6  -3  250.57   60.19
   7   6   3  240.28   49.60
   7   6   3  315.47   42.50
   7   6   3  258.97   38.50
   7   6   3  243.68   24.60
  -8  -6  -3  254.57   37.40
  -8  -6  -3  337.07   64.29
  -8  -6  -3  349.67   62.19
   8   6   3  316.07   42.80
   8   6   3  297.17   27.40
   8   6   3  278.07   46.50
  -9  -6  -3  122.99   44.10
  -9  -6  -3  150.78   56.29
   9   6   3  112.59   19.40
   9   6   3  105.39   33.90
   9   6   3   63.69   20.50
 -10  -6  -3   28.30   21.20
 -10  -6  -3   22.50   27.00
 -10  -6  -3    9.10   25.30
  10   6   3  -11.90   18.80
  10   6   3   10.90   13.30
  10   6   3    7.70    9.30
   5  -7  -3   21.40   17.90
   5  -7  -3   -1.20   19.10
   5  -7  -3  -17.00   35.10
  -5   7   3  -17.40   16.00
  -5   7   3   30.50   29.70
  -5   7   3  -33.20   37.20
  -5   7   3   -3.00   21.20
   4  -7  -3   15.00   36.70
   4  -7  -3   15.40   14.10
   4  -7  -3   -6.00   11.10
  -4   7   3    3.60   13.90
  -4   7   3   11.30   20.20
  -4   7   3  -11.40   24.80
  -4   7   3   -9.30   27.10
   3  -7  -3  -33.70   36.40
   3  -7  -3   10.60   21.60
   3  -7  -3   13.40   13.30
   3  -7  -3    5.90   22.00
   3  -7  -3   -2.80    9.70
  -3   7   3   -8.60   17.40
  -3   7   3  -18.80   19.40
  -3   7   3    8.80   14.80
  -3   7   3   38.20   17.30
  -3   7   3   21.90   10.30
   2  -7  -3  115.89   46.40
   2  -7  -3  105.69   34.50
   2  -7  -3   74.79   26.20
   2  -7  -3   78.99   21.40
  -2   7   3   99.99   42.60
  -2   7   3   58.79   23.70
  -2   7   3  189.58   45.20
  -2   7   3   93.29   34.80
   1  -7  -3   14.90   21.00
   1  -7  -3   85.89   32.30
   1  -7  -3   85.49   38.10
   1  -7  -3   49.10   17.60
  -1   7   3  145.89   46.40
  -1   7   3   91.09   34.20
  -1   7   3   42.30   15.90
   0  -7  -3   -6.00   11.70
   0  -7  -3   -5.30    8.30
   0  -7  -3   -5.00   12.30
   0  -7  -3    5.40   14.20
   0   7   3   26.50   21.80
   0   7   3   31.50   16.50
   0   7   3  -12.40    5.80
  -1  -7  -3  115.19   29.80
  -1  -7  -3   93.49   33.20
  -1  -7  -3   64.29   27.10
  -1  -7  -3  165.38   48.20
   1   7   3  109.29   49.00
   1   7   3   53.69   18.50
   1   7   3   93.49   25.90
  -2  -7  -3   41.40   23.20
  -2  -7  -3   71.79   43.10
  -2  -7  -3   51.39   22.50
  -2  -7  -3    9.60   23.90
   2   7   3   39.90   14.00
   2   7   3   26.20   17.40
   2   7   3   24.80   12.90
   2   7   3   32.10   14.70
  -3  -7  -3   19.50   17.70
  -3  -7  -3   32.80   11.20
  -3  -7  -3    5.90   16.30
  -3  -7  -3   40.30   20.20
   3   7   3   19.20   14.40
   3   7   3   31.50   10.90
   3   7   3   25.30   15.70
   3   7   3   17.70   10.10
   3   7   3   45.60   20.80
   3   7   3   58.19   21.80
  -4  -7  -3  106.29   34.70
  -4  -7  -3   96.59   32.30
  -4  -7  -3   73.89   22.40
  -4  -7  -3   53.49   24.40
   4   7   3   33.70   13.80
   4   7   3   75.09   20.70
   4   7   3   70.49   25.10
   4   7   3  115.19   32.60
  -5  -7  -3   63.89   21.00
  -5  -7  -3   22.50   26.30
  -5  -7  -3   42.30   21.50
  -5  -7  -3   46.30   27.20
   5   7   3   36.80   14.00
   5   7   3   57.49   19.90
   5   7   3   65.09   16.90
   5   7   3   56.79   15.70
  -6  -7  -3   62.99   26.90
  -6  -7  -3   39.20   26.20
  -6  -7  -3   22.90   19.50
   6   7   3   10.90   11.80
   6   7   3   35.80   13.90
   6   7   3   21.60   16.40
  -7  -7  -3  237.48   55.59
  -7  -7  -3  242.08   31.40
  -7  -7  -3  174.88   51.89
  -7  -7  -3  275.67   63.69
   7   7   3  219.18   49.99
   7   7   3  281.47   41.30
   7   7   3  239.78   36.60
   7   7   3  226.68   26.00
  -8  -7  -3  434.26   66.39
  -8  -7  -3  336.97   41.60
  -8  -7  -3  382.86  115.79
   8   7   3  382.86   32.10
   8   7   3  282.57   64.89
   8   7   3  352.66   53.79
  -9  -7  -3   30.40   34.00
  -9  -7  -3   54.69   26.30
  -9  -7  -3   64.19   37.10
   9   7   3   40.90   20.20
   9   7   3   65.89   27.50
   9   7   3   71.09   16.20
 -10  -7  -3  -49.10   23.80
 -10  -7  -3   22.70   22.60
 -10  -7  -3   36.20   33.10
  10   7   3   10.40   17.60
  10   7   3  -24.10   10.40
  10   7   3    7.60    9.50
   4  -8  -3   21.80   16.10
   4  -8  -3   55.59   30.20
   4  -8  -3   48.20   42.90
  -4   8   3  -27.90   15.70
  -4   8   3  -47.30   37.60
  -4   8   3   20.10   40.40
   3  -8  -3  127.89   45.00
   3  -8  -3   71.79   40.80
   3  -8  -3  142.49   31.90
  -3   8   3  155.28   63.19
  -3   8   3  166.58   49.10
  -3   8   3   91.19   28.30
   2  -8  -3  475.45   74.69
   2  -8  -3  347.57   72.69
   2  -8  -3  344.17   45.10
  -2   8   3  448.76   52.69
  -2   8   3  523.25   72.69
  -2   8   3  472.25   81.19
  -2   8   3  572.44   64.29
   1  -8  -3 1122.59   82.99
   1  -8  -3 1296.97   84.69
   1  -8  -3 1197.48  112.49
   1  -8  -3 1255.77  130.79
  -1   8   3 1250.77   87.99
  -1   8   3 1259.37  121.09
  -1   8   3 1419.26  118.19
  -1   8   3 1121.59  111.29
   0  -8  -3  842.92   91.39
   0  -8  -3  846.82   76.89
   0  -8  -3  868.11   68.29
   0  -8  -3  873.71  106.69
   0   8   3  881.91   71.49
   0   8   3 1009.10   97.99
   0   8   3 1029.80  100.19
  -1  -8  -3  309.57   52.79
  -1  -8  -3  479.25   73.99
  -1  -8  -3  377.26   58.49
   1   8   3  328.47   40.50
   1   8   3  377.46   57.39
   1   8   3  397.36   55.89
  -2  -8  -3   49.10   24.20
  -2  -8  -3  103.79   41.00
  -2  -8  -3   84.69   32.80
  -2  -8  -3  121.89   42.50
   2   8   3   97.69   26.30
   2   8   3   95.39   27.90
   2   8   3  113.59   35.10
  -3  -8  -3   29.30   25.60
  -3  -8  -3   42.20   23.80
  -3  -8  -3   55.29   25.10
   3   8   3   19.20   14.60
   3   8   3   47.40   14.40
   3   8   3   36.00   21.20
   3   8   3   49.60   22.00
   3   8   3   42.90   22.50
   3   8   3   36.90   20.80
  -4  -8  -3   31.30   27.10
  -4  -8  -3   19.20   16.70
  -4  -8  -3   39.60   14.70
  -4  -8  -3   54.39   28.80
   4   8   3    8.00   13.50
   4   8   3  100.29   42.30
   4   8   3   48.70   21.40
   4   8   3   24.10   14.60
  -5  -8  -3  818.12   69.69
  -5  -8  -3  996.20  101.09
  -5  -8  -3  879.01  102.19
   5   8   3  835.12   80.29
   5   8   3  776.32   58.59
   5   8   3  862.81   61.79
  -6  -8  -3   33.20   26.10
  -6  -8  -3   57.69   30.30
  -6  -8  -3   64.59   27.70
   6   8   3   55.19   16.00
   6   8   3   80.69   21.90
   6   8   3   63.69   24.70
   6   8   3   63.79   30.00
  -7  -8  -3   10.70   16.00
  -7  -8  -3    3.80   17.50
  -7  -8  -3    7.10   21.90
   7   8   3    4.80   11.10
   7   8   3   12.50   11.90
   7   8   3   -9.30   10.50
  -8  -8  -3   -8.00   20.70
  -8  -8  -3   18.50   17.20
  -8  -8  -3   10.40   20.50
  -8  -8  -3    5.40   18.50
   8   8   3    7.20   14.10
   8   8   3  -24.60   15.20
   8   8   3   -0.10    6.70
  -9  -8  -3   72.89   37.90
  -9  -8  -3   19.40   27.80
  -9  -8  -3    8.50   26.00
   9   8   3   57.39   20.80
   9   8   3   63.89   27.20
   9   8   3   40.80   12.70
   3  -9  -3  -14.30   30.50
   3  -9  -3   23.30   18.90
   3  -9  -3   63.69   42.20
  -3   9   3   14.40   43.80
  -3   9   3   26.80   17.50
  -3   9   3   54.19   36.60
   2  -9  -3  248.08   66.89
   2  -9  -3  204.48   60.99
   2  -9  -3  227.48   76.79
  -2   9   3  227.58   71.19
  -2   9   3  258.47   64.69
   1  -9  -3  297.07   41.90
   1  -9  -3  385.96   75.89
   1  -9  -3  286.27   48.70
   1  -9  -3  456.15   75.89
  -1   9   3  354.56   78.99
  -1   9   3  276.97   67.39
  -1   9   3  399.16   80.29
  -1   9   3  275.67   49.40
   0  -9  -3  181.88   53.79
   0  -9  -3  221.88   64.29
   0  -9  -3  246.58   45.20
   0   9   3  248.38   45.60
   0   9   3  249.68   56.79
   0   9   3  371.06   84.09
  -1  -9  -3   34.50   25.20
  -1  -9  -3   55.79   37.20
  -1  -9  -3  125.59   36.60
   1   9   3  122.79   41.50
   1   9   3   96.59   37.90
   1   9   3  104.49   27.60
  -2  -9  -3   20.30   25.30
  -2  -9  -3  -22.00   16.00
  -2  -9  -3   17.20   20.10
   2   9   3   16.60   20.10
   2   9   3    4.30   16.80
  -3  -9  -3    8.10   12.60
  -3  -9  -3    4.90   22.90
  -3  -9  -3   -1.60   15.40
  -3  -9  -3   -0.60   20.80
   3   9   3   36.40   13.30
   3   9   3   21.70   14.90
   3   9   3    1.00   17.00
   3   9   3   18.80   17.50
   3   9   3   24.40   17.00
   3   9   3    7.90   20.20
  -4  -9  -3  208.48   56.09
  -4  -9  -3  193.08   31.70
  -4  -9  -3  339.97   71.99
  -4  -9  -3  236.58   54.19
   4   9   3  218.98   52.79
   4   9   3  173.68   33.80
   4   9   3  276.37   80.09
  -5  -9  -3  100.39   46.30
  -5  -9  -3  259.07   66.99
  -5  -9  -3  205.18   43.80
   5   9   3  187.68   48.90
   5   9   3  218.38   43.50
   5   9   3  187.58   35.20
  -6  -9  -3  202.48   52.29
  -6  -9  -3  248.78   45.10
  -6  -9  -3  329.57   73.29
   6   9   3  179.08   45.70
   6   9   3  258.27   55.49
   6   9   3  203.38   35.00
   6   9   3  201.38   36.00
  -7  -9  -3  138.19   35.50
  -7  -9  -3  110.29   41.30
  -7  -9  -3   89.29   48.80
   7   9   3  176.18   52.09
   7   9   3  198.68   49.00
   7   9   3  194.48   26.00
  -8  -9  -3   38.80   33.40
  -8  -9  -3   67.39   34.40
  -8  -9  -3   52.19   33.50
   8   9   3   48.80   32.40
   8   9   3   27.20   23.10
   8   9   3   78.39   19.90
  -9  -9  -3   33.20   33.40
  -9  -9  -3   39.80   28.80
   9   9   3   26.60   19.20
   9   9   3   35.60   14.10
   9   9   3   67.59   25.30
   2 -10  -3   34.20   34.80
   2 -10  -3  -25.40   17.10
   2 -10  -3    8.40   27.80
  -2  10   3   25.50   20.50
  -2  10   3   51.79   45.00
  -2  10   3   -0.80   39.80
   1 -10  -3   50.89   25.10
   1 -10  -3   56.09   36.50
   1 -10  -3   51.69   56.99
   1 -10  -3   37.70   17.60
  -1  10   3   52.79   35.50
  -1  10   3   25.10   20.50
  -1  10   3  110.49   38.10
   0 -10  -3  140.09   60.79
   0 -10  -3   80.59   30.80
   0 -10  -3   43.70   37.60
   0  10   3   92.69   42.10
   0  10   3  117.79   49.50
   0  10   3   77.19   28.30
  -1 -10  -3   12.30   22.50
  -1 -10  -3  -13.90   28.70
  -1 -10  -3   62.49   37.40
   1  10   3   42.90   27.10
   1  10   3   13.30   18.80
   1  10   3   -2.20   10.20
  -2 -10  -3   15.20   25.80
  -2 -10  -3   24.40   23.40
  -2 -10  -3  -13.90   26.70
   2  10   3   38.00   19.50
   2  10   3    8.50   19.40
   2  10   3   13.70   20.90
  -3 -10  -3   -1.20   16.10
  -3 -10  -3   -9.00   19.00
   3  10   3    9.60   22.90
   3  10   3    0.40   14.80
   3  10   3   -5.20   10.40
   3  10   3   26.00   18.30
  -4 -10  -3   44.80   28.90
  -4 -10  -3    5.60   15.30
  -4 -10  -3    4.90   20.40
   4  10   3   18.80   25.90
   4  10   3   49.60   12.50
   4  10   3   13.40   18.20
   4  10   3   31.00   20.30
   4  10   3   32.90   37.30
   4  10   3   19.50   16.90
   4  10   3   45.70   19.90
  -5 -10  -3  726.13   93.49
  -5 -10  -3  691.53   69.09
  -5 -10  -3  728.13   93.89
   5  10   3  586.14   63.79
   5  10   3  649.14   60.39
   5  10   3  638.14   79.19
  -6 -10  -3  277.97   64.39
  -6 -10  -3  222.18   49.90
  -6 -10  -3  277.47   73.19
   6  10   3  190.38   36.50
   6  10   3  201.48   51.79
   6  10   3  233.28   56.79
   6  10   3  214.48   41.60
  -7 -10  -3  148.09   40.90
  -7 -10  -3  149.19   44.20
  -7 -10  -3  154.28   56.09
   7  10   3   93.89   22.80
   7  10   3  106.89   34.00
   7  10   3  126.59   30.00
   7  10   3   88.69   31.90
  -8 -10  -3   42.40   32.80
  -8 -10  -3   40.30   28.60
  -8 -10  -3   33.00   30.20
   8  10   3   71.69   26.60
   8  10   3   18.80   23.00
   8  10   3   40.00   16.60
   1 -11  -3   89.89   61.69
   1 -11  -3   90.69   36.10
  -1  11   3  130.09   57.29
  -1  11   3  116.29   33.50
  -1  11   3  169.18   49.40
   0 -11  -3   46.40   42.20
   0 -11  -3   24.50   33.60
   0 -11  -3   10.30   21.20
   0  11   3   -0.30   14.90
   0  11   3   48.00   30.10
   0  11   3  -56.69   29.00
  -1 -11  -3  -13.10   18.30
  -1 -11  -3   28.20   35.80
  -1 -11  -3  -34.90   27.00
   1  11   3  -39.30   33.60
   1  11   3   11.90   15.80
   1  11   3  -29.30   21.00
  -2 -11  -3   78.49   36.50
  -2 -11  -3   29.80   25.00
  -2 -11  -3   25.90   42.60
   2  11   3   91.39   29.60
   2  11   3   35.60   31.20
   2  11   3   49.60   24.00
  -3 -11  -3   57.89   30.80
  -3 -11  -3   31.60   38.10
  -3 -11  -3  -10.50   26.00
   3  11   3    7.70   16.40
   3  11   3   19.70   21.90
   3  11   3   43.50   30.50
   3  11   3   57.39   26.40
  -4 -11  -3  127.29   40.10
  -4 -11  -3  213.08   72.59
  -4 -11  -3  114.39   49.70
  -4 -11  -3  155.98   45.90
   4  11   3   82.29   37.10
   4  11   3  105.69   23.50
   4  11   3  121.59   43.50
   4  11   3  130.69   40.60
  -5 -11  -3   39.50   32.20
  -5 -11  -3   36.20   24.30
  -5 -11  -3   26.60   33.10
  -5 -11  -3    4.50   21.20
   5  11   3   32.20   16.40
   5  11   3   14.50   23.50
   5  11   3   37.20   26.00
  -6 -11  -3   13.10   21.40
  -6 -11  -3  -25.70   14.70
   6  11   3  -12.30   15.80
   6  11   3  -16.80   13.50
   6  11   3   25.80   21.60
   6  11   3    0.30   19.20
  -7 -11  -3    7.60   34.20
  -7 -11  -3  -11.00   21.10
  -7 -11  -3    6.40   23.30
   7  11   3  -19.40   21.00
   7  11   3   22.00   21.10
   7  11   3   54.39   24.60
   7  11   3    8.40   16.10
  -8 -11  -3    7.70   27.60
  -8 -11  -3    1.60   25.10
  -8 -11  -3    6.20   28.70
   8  11   3   44.50   15.60
   8  11   3    7.50   21.20
   8  11   3  -12.50   17.40
  -1 -12  -3   43.20   37.50
  -1 -12  -3    6.30   36.50
  -1 -12  -3   16.90   28.90
   1  12   3   33.80   18.20
   1  12   3  -12.80   27.10
   1  12   3  -25.30   31.80
  -2 -12  -3   30.90   28.30
  -2 -12  -3   79.29   41.70
  -2 -12  -3  141.49   59.69
   2  12   3   51.99   39.70
   2  12   3   59.69   22.20
   2  12   3   59.19   37.50
   2  12   3   -6.20   33.40
  -3 -12  -3  421.86  102.79
  -3 -12  -3  341.37   83.29
  -3 -12  -3  215.58   55.19
   3  12   3  326.47   68.59
   3  12   3  283.57   54.49
   3  12   3  234.98   65.09
   3  12   3  281.77   71.59
  -4 -12  -3  398.96   88.69
  -4 -12  -3  287.47   84.79
  -4 -12  -3  238.78   62.39
   4  12   3  246.88   56.39
   4  12   3  226.78   65.69
   4  12   3  249.97   48.00
   4  12   3  315.27   69.29
  -5 -12  -3  209.58   58.69
  -5 -12  -3  189.98   47.70
  -5 -12  -3  143.99   52.29
  -5 -12  -3  237.98   78.39
   5  12   3  145.89   47.90
   5  12   3  210.68   58.29
   5  12   3  198.68   42.50
   5  12   3   26.30   64.59
  -6 -12  -3   18.00   30.30
  -6 -12  -3   76.49   57.49
  -6 -12  -3   36.30   36.40
   6  12   3   31.50   27.50
   6  12   3   71.39   24.60
   6  12   3   11.50   30.30
   6  12   3  108.19   36.90
   7  12   3  110.09   36.60
   5  11  -4   18.50   25.40
   5  11  -4  -16.60   46.40
   5  11  -4  -23.30   47.30
   5  11  -4   57.89   35.70
   5  11  -4   15.50   17.50
   5  11  -4   38.40   21.20
   5  11  -4  -52.29   46.70
  -5 -11   4  -22.40   21.20
   4  11  -4   93.79   42.80
   4  11  -4  110.29   32.70
   4  11  -4   56.49   24.20
   4  11  -4   93.09   62.99
   4  11  -4  -68.59   62.49
   4  11  -4   97.49   31.10
  -4 -11   4   34.60   29.70
  -4 -11   4   38.10   50.69
  -4 -11   4   32.00   36.60
   3  11  -4  100.49   47.70
   3  11  -4   71.39   28.00
   3  11  -4   50.39   42.90
   3  11  -4   67.59   27.40
   3  11  -4  104.09   46.20
   3  11  -4   52.69   55.59
  -3 -11   4   51.89   26.50
  -3 -11   4   67.89   26.80
   2  11  -4  176.28   67.89
   2  11  -4  123.79   35.40
   2  11  -4   31.70   56.59
   2  11  -4  131.89   80.99
   2  11  -4  200.78   42.20
   2  11  -4  240.28   80.79
   2  11  -4  143.49   47.30
  -2 -11   4  125.49   31.80
  -2 -11   4  151.68   67.59
  -2 -11   4  124.39   42.50
   1  11  -4  129.09   58.39
   1  11  -4    2.50   44.10
   1  11  -4   39.90   17.60
   1  11  -4   29.80   25.50
   1  11  -4   33.90   24.70
   1  11  -4   15.30   54.39
  -1 -11   4   -4.70   25.00
  -1 -11   4   18.40   18.40
  -1 -11   4   56.39   30.00
   0  11  -4   -7.70   47.80
   0  11  -4   -0.70   52.49
   0  11  -4   58.79   24.60
   0  11  -4   15.50   28.50
   0  11  -4   24.30   63.09
   0  11  -4   49.99   20.50
   0 -11   4   14.30   30.70
   0 -11   4   31.80   22.10
   0 -11   4   43.40   35.20
  -1  11  -4   57.69   71.79
  -1  11  -4   46.00   67.69
  -1  11  -4   50.09   45.00
  -1  11  -4   30.10   27.20
   1 -11   4   73.09   27.70
   1 -11   4   84.09   37.30
   1 -11   4  127.69   46.90
   6  10  -4  128.89   23.40
   6  10  -4   45.10   87.49
   6  10  -4  135.49   40.00
   6  10  -4   79.09   56.29
   6  10  -4   67.29   27.00
   6  10  -4  178.78   62.99
   6  10  -4   55.69   30.00
  -6 -10   4   38.50   45.70
  -6 -10   4   40.70   48.50
  -6 -10   4   76.69   31.70
   5  10  -4   82.09   42.40
   5  10  -4  171.98   40.10
   5  10  -4   81.19   30.70
   5  10  -4   74.79   55.19
   5  10  -4   65.69   63.19
   5  10  -4  101.49   26.20
   5  10  -4   43.30   56.79
  -5 -10   4   50.39   41.30
  -5 -10   4  131.39   56.59
  -5 -10   4   73.49   31.00
  -5 -10   4   81.29   35.80
   4  10  -4  100.29   32.30
   4  10  -4   68.59   61.59
   4  10  -4  113.99   60.69
   4  10  -4   66.09   23.60
   4  10  -4   31.30   27.50
   4  10  -4   51.59   47.50
   4  10  -4   68.39   42.20
  -4 -10   4   75.99   40.40
  -4 -10   4   70.69   24.70
  -4 -10   4   12.20   30.70
  -4 -10   4   67.89   29.50
   3  10  -4  101.99   30.80
   3  10  -4  112.99   32.90
   3  10  -4  107.79   52.59
   3  10  -4  184.08   37.00
   3  10  -4  129.89   34.80
   3  10  -4  113.09   79.59
   3  10  -4   62.79   60.39
  -3 -10   4   97.39   30.20
  -3 -10   4  115.49   48.50
  -3 -10   4  111.99   48.90
  -3 -10   4  163.38   41.80
  -3 -10   4  184.98   49.30
  -3 -10   4  149.09   43.90
  -3 -10   4  141.59   36.40
   2  10  -4  294.17  105.39
   2  10  -4  376.06   51.79
   2  10  -4  378.36   97.29
   2  10  -4  473.45   56.09
   2  10  -4  333.87   84.09
   2  10  -4  437.26   63.69
   2  10  -4  205.68   82.99
  -2 -10   4  448.96   70.79
  -2 -10   4  363.56   57.89
  -2 -10   4  523.35   67.79
  -2 -10   4  430.76   51.89
   1  10  -4   32.10   23.50
   1  10  -4    9.90   42.60
   1  10  -4   30.40   40.10
   1  10  -4   68.29   51.99
   1  10  -4   41.60   20.90
   1  10  -4   43.90   52.59
  -1 -10   4   72.89   39.20
  -1 -10   4   58.59   28.60
  -1 -10   4   53.89   27.80
   0  10  -4  -11.60   56.79
   0  10  -4   62.49   24.80
   0  10  -4   58.29   25.70
   0  10  -4   60.69   42.20
   0  10  -4   64.99   43.20
   0 -10   4   69.39   32.40
   0 -10   4  104.39   34.20
   0 -10   4  106.39   31.90
  -1  10  -4  -22.50   50.89
  -1  10  -4    1.80   10.50
  -1  10  -4  -29.20   27.90
  -1  10  -4   13.80   45.10
   1 -10   4   18.10   33.30
   1 -10   4  -37.00   14.30
   1 -10   4   13.00   23.50
  -2  10  -4    7.60   38.70
  -2  10  -4   81.29   59.69
  -2  10  -4   40.80   65.99
   2 -10   4  -12.00   30.50
   2 -10   4   73.19   24.70
   2 -10   4   16.60   31.50
  -3  10  -4  166.88   68.69
  -3  10  -4  240.48   64.69
   3 -10   4   87.79   46.60
   3 -10   4   67.59   48.50
   3 -10   4  133.99   32.70
   7   9  -4  -40.30   36.50
   7   9  -4   -7.00   21.30
   7   9  -4    3.20   17.60
  -7  -9   4   11.10   20.00
  -7  -9   4   11.60   35.90
  -7  -9   4   18.80   32.60
   6   9  -4   50.19   44.20
   6   9  -4  -14.10   11.20
   6   9  -4   61.49   36.60
   6   9  -4   20.80   17.80
   6   9  -4    5.40   20.90
  -6  -9   4   16.10   17.00
  -6  -9   4    3.40   30.10
  -6  -9   4   18.80   29.00
  -6  -9   4   12.30   27.70
   5   9  -4   96.69   46.40
   5   9  -4   80.69   35.10
   5   9  -4   63.69   41.40
   5   9  -4   42.40   14.90
   5   9  -4   30.90   23.10
  -5  -9   4   33.30   27.60
  -5  -9   4   -6.90   14.80
  -5  -9   4    1.90   26.90
   4   9  -4   -8.40   13.20
   4   9  -4   -2.70   22.40
   4   9  -4   49.60   32.30
   4   9  -4   23.90   19.30
   4   9  -4    8.60   31.40
   4   9  -4   19.80   34.80
   4   9  -4   -2.10   13.10
  -4  -9   4   24.60   24.10
  -4  -9   4    2.40   14.50
  -4  -9   4  -14.60   15.20
  -4  -9   4   25.60   32.70
   3   9  -4   29.10   19.30
   3   9  -4   88.79   51.39
   3   9  -4   31.10   37.70
   3   9  -4   18.40   35.00
   3   9  -4  123.49   47.70
   3   9  -4   37.60   19.90
   3   9  -4   54.29   25.40
  -3  -9   4   67.69   29.20
  -3  -9   4   34.30   25.90
  -3  -9   4   42.30   18.10
  -3  -9   4   68.29   40.10
  -3  -9   4   50.29   28.10
  -3  -9   4   59.99   37.10
  -3  -9   4   24.30   15.40
   2   9  -4  325.17   85.79
   2   9  -4  227.78   43.70
   2   9  -4  319.67   78.49
   2   9  -4  333.27   43.60
   2   9  -4  128.09   75.69
   2   9  -4  385.76   54.89
  -2  -9   4  298.27   47.30
  -2  -9   4  320.97   65.69
  -2  -9   4  347.27   80.39
  -2  -9   4  368.76   47.40
  -2  -9   4  360.56   46.60
   1   9  -4    7.70   11.20
   1   9  -4   94.59   49.80
   1   9  -4  -13.90   10.10
   1   9  -4   27.10   25.60
   1   9  -4   12.80   29.80
   1   9  -4  -15.40   33.60
  -1  -9   4   37.50   27.40
  -1  -9   4    5.40   13.80
  -1  -9   4   -2.80   16.00
  -1  -9   4   19.70   21.00
   0   9  -4   24.40   11.90
   0   9  -4    9.20   38.90
   0   9  -4   67.09   51.09
   0   9  -4   14.70   20.20
   0   9  -4   13.80   36.30
   0  -9   4  -15.60   12.80
   0  -9   4    4.10   10.40
   0  -9   4   -0.10   16.50
   0  -9   4   16.30   30.20
  -1   9  -4   51.79   61.79
  -1   9  -4   95.69   36.50
  -1   9  -4   36.70   51.79
  -1   9  -4  110.59   71.29
   1  -9   4  186.28   43.80
   1  -9   4   78.59   31.00
   1  -9   4  167.58   47.40
  -2   9  -4  112.89   61.89
  -2   9  -4  107.59   64.09
  -2   9  -4  180.68   60.89
   2  -9   4  122.79   37.20
   2  -9   4   90.39   29.30
   2  -9   4  117.39   50.09
  -3   9  -4  205.48   88.29
  -3   9  -4  363.76   88.59
  -3   9  -4  192.18   93.19
   3  -9   4  261.97   52.99
   3  -9   4  319.17   66.89
   3  -9   4  273.47   51.99
  -4   9  -4   85.59   71.69
  -4   9  -4  176.48   91.29
  -4   9  -4  236.38   60.39
   4  -9   4  177.78   41.50
   4  -9   4  190.08   48.70
   7   8  -4    0.00   14.60
   7   8  -4  -15.10   34.20
   7   8  -4   -7.80   14.40
  -7  -8   4  -26.40   25.20
  -7  -8   4  -35.20   21.10
  -7  -8   4   -1.50   16.60
   6   8  -4  107.19   37.80
   6   8  -4  183.78   74.79
   6   8  -4  114.29   30.30
   6   8  -4   95.99   18.40
   6   8  -4   86.29   36.20
  -6  -8   4   80.09   42.50
  -6  -8   4  143.29   29.30
  -6  -8   4   69.99   29.90
  -6  -8   4  134.79   50.29
   5   8  -4  180.98   36.60
   5   8  -4  181.78   28.00
   5   8  -4  152.68   37.70
   5   8  -4  100.49   42.40
   5   8  -4  134.39   50.59
  -5  -8   4  158.78   53.19
  -5  -8   4  114.89   42.90
  -5  -8   4  130.89   39.00
  -5  -8   4  185.98   40.80
   4   8  -4  320.17   37.20
   4   8  -4  359.06   46.20
   4   8  -4  330.37   75.59
   4   8  -4  330.57   47.80
   4   8  -4  184.08   94.99
   4   8  -4  330.37   88.79
  -4  -8   4  307.07   50.89
  -4  -8   4  229.28   64.49
  -4  -8   4  325.57   61.59
  -4  -8   4  321.97   44.80
   3   8  -4   16.60   12.50
   3   8  -4   18.30   13.60
   3   8  -4   14.30   21.50
   3   8  -4   50.39   32.80
   3   8  -4   43.40   15.50
   3   8  -4  -20.00   24.80
  -3  -8   4   21.20   25.50
  -3  -8   4   12.50   11.60
  -3  -8   4   -0.80   21.10
  -3  -8   4   25.00   14.70
   2   8  -4   97.39   29.80
   2   8  -4  108.29   51.69
   2   8  -4   78.89   58.09
   2   8  -4   95.89   25.80
   2   8  -4   83.79   23.40
   2   8  -4  116.09   51.29
  -2  -8   4   94.09   39.90
  -2  -8   4  101.89   25.50
  -2  -8   4  117.29   31.10
  -2  -8   4  108.09   29.80
  -2  -8   4   70.49   36.70
  -2  -8   4   93.19   30.00
  -2  -8   4   88.49   33.50
   1   8  -4   52.99   31.00
   1   8  -4   23.30   10.20
   1   8  -4   -0.30   32.70
   1   8  -4   24.00   28.40
   1   8  -4   25.90   12.70
   1   8  -4   51.39   33.30
  -1  -8   4   53.89   32.10
  -1  -8   4   33.00   16.70
  -1  -8   4   41.30   23.30
  -1  -8   4   47.90   19.60
   0   8  -4   51.69   31.10
   0   8  -4  100.19   26.60
   0   8  -4  103.49   51.39
   0   8  -4   60.99   50.59
   0   8  -4   33.80   21.90
   0  -8   4  131.19   42.20
   0  -8   4   72.99   28.80
   0  -8   4   71.59   27.80
   0  -8   4   62.49   20.30
  -1   8  -4   39.00   44.20
  -1   8  -4   80.69   52.29
  -1   8  -4  111.89   31.80
  -1   8  -4   79.49   45.00
   1  -8   4   80.59   31.10
   1  -8   4  104.09   29.60
   1  -8   4  115.39   40.00
   1  -8   4  140.49   33.00
  -2   8  -4  146.39   70.69
  -2   8  -4   83.99   31.50
   2  -8   4  198.28   46.00
   2  -8   4  144.09   36.00
   2  -8   4  141.19   38.20
   2  -8   4  126.19   37.90
  -3   8  -4   49.99   28.30
  -3   8  -4  -22.00   33.80
  -3   8  -4   44.80   52.59
   3  -8   4   25.40   28.60
   3  -8   4    1.70   20.30
  -4   8  -4   79.49   44.50
  -4   8  -4  -59.89   45.60
  -4   8  -4  -25.30   45.40
   4  -8   4   11.10   15.10
   4  -8   4  -43.60   25.70
   4  -8   4  -14.50   24.00
  -5   8  -4   43.80   35.10
  -5   8  -4  -18.00   43.50
  -5   8  -4  -14.10   41.60
   5  -8   4   -8.30   13.50
   5  -8   4  -33.60   43.30
   5  -8   4  -20.00   23.90
   8   7  -4   29.40   16.20
   8   7  -4   97.79   43.20
   8   7  -4   -8.40   26.00
  -8  -7   4  -10.00   19.00
  -8  -7   4   15.50   33.00
   7   7  -4  -49.10   34.70
   7   7  -4    1.30   12.70
   7   7  -4  -24.00   27.90
   7   7  -4    0.70   17.80
  -7  -7   4   -2.80   23.20
  -7  -7   4   11.60   14.50
  -7  -7   4  -21.30   20.80
   6   7  -4  157.48   61.09
   6   7  -4  149.49   44.90
   6   7  -4   85.69   39.50
   6   7  -4  127.49   27.20
   6   7  -4  179.98   15.20
  -6  -7   4   95.89   35.90
  -6  -7   4  206.58   49.60
  -6  -7   4  182.28   33.60
  -6  -7   4  116.19   52.09
   5   7  -4  155.58   47.60
   5   7  -4  151.28   21.00
   5   7  -4  249.18   81.49
   5   7  -4  193.58   35.80
   5   7  -4  165.88   37.00
  -5  -7   4  136.09   48.90
  -5  -7   4  145.19   52.99
  -5  -7   4  145.09   37.00
  -5  -7   4  143.79   34.10
   4   7  -4  221.48   71.39
   4   7  -4  209.98   27.00
   4   7  -4  126.39   34.40
   4   7  -4  219.18   53.59
   4   7  -4  182.88   53.49
  -4  -7   4  181.48   54.99
  -4  -7   4  156.58   49.30
  -4  -7   4  169.68   43.90
  -4  -7   4  210.68   41.50
   3   7  -4  177.98   56.09
   3   7  -4  234.78   42.80
   3   7  -4  285.67   38.00
   3   7  -4  321.97   79.79
   3   7  -4  338.77   34.40
  -3  -7   4  226.38   40.70
  -3  -7   4  305.47   70.19
  -3  -7   4  280.37   32.90
  -3  -7   4  292.97   55.59
  -3  -7   4  302.37   42.90
   2   7  -4    7.90   24.00
   2   7  -4   84.29   23.50
   2   7  -4   64.39   32.40
   2   7  -4   26.90   29.30
   2   7  -4   69.59   21.90
   2   7  -4   94.19   67.79
   2   7  -4   68.29   20.00
  -2  -7   4  109.89   26.10
  -2  -7   4   68.69   33.70
  -2  -7   4   75.89   29.60
  -2  -7   4   44.40   26.40
  -2  -7   4   45.20   23.70
  -2  -7   4   56.49   17.80
   1   7  -4   82.49   21.60
   1   7  -4   81.99   39.50
   1   7  -4   73.79   37.90
   1   7  -4   43.10   44.30
   1   7  -4   89.49   50.29
  -1  -7   4  105.59   27.60
  -1  -7   4   93.39   24.00
  -1  -7   4  123.29   34.80
  -1  -7   4   98.89   37.60
  -1  -7   4  123.89   37.80
   0   7  -4  124.19   59.69
   0   7  -4  176.38   62.89
   0   7  -4  160.38   49.30
   0   7  -4  153.08   30.60
   0   7  -4   66.39   48.20
   0  -7   4  185.28   29.00
   0  -7   4  197.88   35.10
   0  -7   4  215.58   48.40
   0  -7   4  253.57   52.89
  -1   7  -4  881.71   72.99
  -1   7  -4  653.73   73.89
  -1   7  -4  570.64  133.19
  -1   7  -4  789.52  106.79
   1  -7   4  799.22   63.79
   1  -7   4  908.01   88.79
   1  -7   4  733.33   61.79
   1  -7   4  843.32   80.19
  -2   7  -4  552.94  133.09
  -2   7  -4  468.55  121.59
  -2   7  -4  766.82  102.29
  -2   7  -4  857.31   71.39
   2  -7   4  768.42   64.19
   2  -7   4  853.31   89.59
   2  -7   4  798.02   64.99
   2  -7   4  764.12   77.29
  -3   7  -4  329.17  111.39
  -3   7  -4  330.67  101.79
  -3   7  -4  433.26   97.99
   3  -7   4  497.85   64.19
   3  -7   4  354.06   48.10
   3  -7   4  416.96   47.40
   3  -7   4  440.16   80.59
  -4   7  -4  329.67   90.79
  -4   7  -4  184.78   88.29
  -4   7  -4  207.58   82.79
   4  -7   4  249.88   49.20
   4  -7   4  288.37   63.09
   4  -7   4  168.38   53.19
  -5   7  -4  -27.30   41.00
  -5   7  -4   -4.90   22.50
  -5   7  -4   -1.50   46.30
   5  -7   4   33.70   32.40
   5  -7   4  -26.60   26.00
   5  -7   4  -11.50    8.50
  -6   7  -4   21.60   44.20
  -6   7  -4   89.29   50.09
   6  -7   4    9.60   42.10
   6  -7   4   39.00   13.70
   6  -7   4   25.20   25.10
   8   6  -4   15.80   37.60
   8   6  -4   30.10   24.70
   8   6  -4   17.40   21.50
  -8  -6   4   14.40   15.70
  -8  -6   4  -13.50   22.50
  -8  -6   4  -29.90   23.20
   7   6  -4   31.20   16.60
   7   6  -4   67.69   27.80
   7   6  -4   73.79   38.20
  -7  -6   4   11.40   26.20
  -7  -6   4   41.50   33.10
  -7  -6   4   37.20   25.50
   6   6  -4   86.89   20.40
   6   6  -4   87.49   51.09
   6   6  -4   98.59   28.90
  -6  -6   4  104.29   43.90
  -6  -6   4   95.19   36.50
  -6  -6   4   83.69   33.30
  -6  -6   4   68.69   20.80
   5   6  -4  101.79   33.20
   5   6  -4   75.39   13.10
   5   6  -4   66.29   20.60
   5   6  -4  111.79   51.59
  -5  -6   4   84.29   36.70
  -5  -6   4  104.99   38.20
  -5  -6   4   75.49   29.60
  -5  -6   4   92.19   26.60
   4   6  -4  329.37   88.39
   4   6  -4  344.17   23.40
   4   6  -4  290.37   43.10
   4   6  -4  341.47   36.20
  -4  -6   4  308.07   38.70
  -4  -6   4  291.17   69.59
  -4  -6   4  310.87   56.69
  -4  -6   4  302.47   47.20
   3   6  -4  253.27   90.09
   3   6  -4  489.35   39.50
   3   6  -4  526.85   47.70
   3   6  -4  448.66   47.80
   3   6  -4  481.55   81.79
  -3  -6   4  442.56   53.19
  -3  -6   4  443.16   65.89
  -3  -6   4  434.76   37.40
  -3  -6   4  455.95   67.09
  -3  -6   4  499.65   50.79
   2   6  -4   55.39   16.60
   2   6  -4   -4.60   50.79
   2   6  -4   29.50   25.20
   2   6  -4   13.80   19.70
   2   6  -4   44.40   16.40
   2   6  -4   42.50   15.10
  -2  -6   4   47.80   20.90
  -2  -6   4   27.60   18.80
  -2  -6   4   45.60   16.00
  -2  -6   4   45.10   19.20
  -2  -6   4   21.90   17.10
  -2  -6   4   41.40   22.50
   1   6  -4  114.99   46.70
   1   6  -4   49.90   39.80
   1   6  -4  110.59   44.80
   1   6  -4  138.39   21.60
  -1  -6   4  146.99   26.40
  -1  -6   4  121.99   40.50
  -1  -6   4  152.28   35.70
  -1  -6   4  145.39   36.50
  -1  -6   4  165.08   26.10
  -1  -6   4  149.99   45.90
   0   6  -4  944.01   59.39
   0   6  -4  730.13   93.89
   0   6  -4 1063.19   71.19
   0   6  -4  806.52   92.09
   0   6  -4  839.82   70.59
   0  -6   4  989.80   81.69
   0  -6   4  947.61   62.69
   0  -6   4 1013.80  130.99
   0  -6   4  928.21   77.49
   0  -6   4  893.71   62.19
  -1   6  -4  691.53   93.89
  -1   6  -4  802.42   65.79
  -1   6  -4  828.52   60.69
  -1   6  -4  530.75  123.79
   1  -6   4  754.72   71.99
   1  -6   4  833.52   60.39
   1  -6   4  874.31   58.19
   1  -6   4  821.92   76.49
  -2   6  -4  768.22   97.29
  -2   6  -4  419.96  114.19
  -2   6  -4  545.05  127.59
   2  -6   4  768.72   73.89
   2  -6   4  723.03   57.39
   2  -6   4  666.03   55.49
   2  -6   4  806.22   78.79
  -3   6  -4  372.66   95.49
  -3   6  -4  442.96   46.40
  -3   6  -4  261.27   84.29
  -3   6  -4  305.27  100.39
   3  -6   4  381.26   43.60
   3  -6   4  471.65   58.99
   3  -6   4  342.57   40.30
   3  -6   4  382.46   56.69
  -4   6  -4   58.79   39.20
  -4   6  -4   51.99   47.50
  -4   6  -4   74.79   49.30
   4  -6   4   31.80   22.90
   4  -6   4   48.00   21.30
   4  -6   4   44.70   26.50
   4  -6   4   12.10   21.10
  -5   6  -4   10.70   30.90
  -5   6  -4    8.50   47.70
  -5   6  -4   29.10   30.50
   5  -6   4  -32.80   23.30
   5  -6   4   48.20   28.30
   5  -6   4  -20.30    9.60
  -6   6  -4   26.60   44.20
  -6   6  -4   26.10   36.80
  -6   6  -4   -0.60   43.20
   6  -6   4   16.10   17.00
   6  -6   4    4.30   24.10
   6  -6   4  -28.90   25.60
   8   5  -4  -28.90   48.90
   8   5  -4   30.50   24.60
   8   5  -4   34.80   19.60
  -8  -5   4   49.99   30.90
  -8  -5   4    4.40   26.50
   7   5  -4  123.69   40.50
   7   5  -4   36.20   44.10
   7   5  -4  156.38   33.30
  -7  -5   4   78.29   34.30
  -7  -5   4  116.49   42.10
  -7  -5   4   73.99   33.90
   6   5  -4  157.98   67.49
   6   5  -4  148.39   44.00
   6   5  -4  147.19   29.00
   6   5  -4  214.68   28.20
  -6  -5   4  204.38   53.99
  -6  -5   4  111.39   36.00
  -6  -5   4  105.59   37.50
  -6  -5   4  182.88   46.60
   5   5  -4   61.59   25.00
   5   5  -4   46.60   28.90
   5   5  -4   51.79   15.40
  -5  -5   4   33.40   18.20
  -5  -5   4   29.40   14.50
  -5  -5   4   15.60   16.60
  -5  -5   4   20.10   15.60
   4   5  -4   28.20    5.40
   4   5  -4   51.19   14.90
   4   5  -4    6.20   23.60
   4   5  -4    8.50   12.30
  -4  -5   4   29.10   24.90
  -4  -5   4   39.40   26.80
  -4  -5   4   41.00   20.60
  -4  -5   4   51.09   14.40
   3   5  -4   18.30    6.20
   3   5  -4   26.70   13.10
   3   5  -4   27.20   22.70
   3   5  -4   28.90    9.30
   3   5  -4   18.60   10.30
  -3  -5   4   26.10   12.40
  -3  -5   4   21.20   16.50
  -3  -5   4   50.59   17.00
  -3  -5   4   25.50   20.60
  -3  -5   4   21.10    8.60
   2   5  -4  209.98   32.40
   2   5  -4  266.77   67.39
   2   5  -4  267.67   31.90
   2   5  -4  177.48   69.19
   2   5  -4  264.17   20.20
  -2  -5   4  236.28   34.60
  -2  -5   4  305.77   50.39
  -2  -5   4  280.47   36.20
  -2  -5   4  312.27   27.50
  -2  -5   4  305.77   64.39
   1   5  -4  602.84   52.39
   1   5  -4  521.45   59.29
   1   5  -4  503.85   75.09
   1   5  -4  578.14   47.20
  -1  -5   4  577.94   69.59
  -1  -5   4  647.84   56.09
  -1  -5   4  606.64   62.09
  -1  -5   4  566.64   68.79
  -1  -5   4  545.45   53.19
  -1  -5   4  610.94   42.90
   0   5  -4  133.49   60.19
   0   5  -4  265.57   30.10
   0   5  -4  254.77   35.20
   0   5  -4  248.08   25.00
   0   5  -4  266.77   32.50
   0   5  -4  145.19   60.59
   0  -5   4  275.67   28.70
   0  -5   4  341.57   31.50
   0  -5   4  296.17   63.59
   0  -5   4  318.37   40.60
   0  -5   4  319.37   41.60
  -1   5  -4  222.58   30.90
  -1   5  -4  231.78   63.69
  -1   5  -4  159.48   40.60
  -1   5  -4  112.49   52.19
  -1   5  -4  258.47   27.50
   1  -5   4  213.38   25.90
   1  -5   4  258.17   29.40
   1  -5   4  220.48   35.70
   1  -5   4  261.37   35.10
  -2   5  -4   46.70   17.10
  -2   5  -4    6.00   22.20
  -2   5  -4   13.10   21.90
  -2   5  -4  -20.00   25.00
   2  -5   4   10.50   11.80
   2  -5   4   27.80   19.00
   2  -5   4   24.80   11.30
   2  -5   4   15.70   12.50
  -3   5  -4   68.29   40.40
  -3   5  -4   47.40   18.70
  -3   5  -4   64.19   35.00
  -3   5  -4  -18.10   28.50
   3  -5   4   45.30   15.10
   3  -5   4   37.90   18.40
   3  -5   4    9.70   14.00
   3  -5   4   20.60   26.50
  -4   5  -4   15.00   34.70
  -4   5  -4  -27.40   29.80
  -4   5  -4   22.90   22.30
  -4   5  -4   16.00   10.80
   4  -5   4   16.40   16.20
   4  -5   4   11.90   11.10
   4  -5   4   -9.40   12.80
  -5   5  -4    5.00   35.50
  -5   5  -4   43.40   38.10
  -5   5  -4    4.90   27.00
   5  -5   4   18.40    8.30
   5  -5   4   -7.10   18.60
   5  -5   4  -19.30   18.30
  -6   5  -4  -19.10   29.20
  -6   5  -4   57.39   48.10
  -6   5  -4   56.29   21.30
   6  -5   4   41.50   23.20
   6  -5   4   66.99   26.20
   6  -5   4   30.90   14.70
  -7   5  -4  118.79   41.00
  -7   5  -4   42.80   47.40
  -7   5  -4   96.99   56.89
   7  -5   4   -7.00   33.70
   7  -5   4   19.40   20.70
   7  -5   4   35.50   23.50
   8   4  -4   35.70   19.80
   8   4  -4   30.90   36.90
   8   4  -4   68.29   31.70
  -8  -4   4   18.10   23.20
  -8  -4   4    8.30   26.60
   7   4  -4  140.49   67.19
   7   4  -4  191.88   35.90
   7   4  -4  160.68   53.69
  -7  -4   4  140.49   43.50
  -7  -4   4  231.58   57.99
  -7  -4   4  225.38   27.40
   6   4  -4  312.67   36.80
   6   4  -4  344.27   70.99
   6   4  -4  433.46   41.40
   6   4  -4  237.98   83.89
  -6  -4   4  412.76   63.79
  -6  -4   4  388.36   58.79
  -6  -4   4  384.06   37.10
  -6  -4   4  378.26   59.59
   5   4  -4  204.58   65.49
   5   4  -4  351.66   33.30
   5   4  -4  304.37   32.80
   5   4  -4  278.17   46.70
  -5  -4   4  356.26   58.39
  -5  -4   4  379.86   52.69
  -5  -4   4  351.96   46.60
  -5  -4   4  327.17   51.79
   4   4  -4   81.49   24.90
   4   4  -4  129.59   17.50
   4   4  -4  107.99   15.70
  -4  -4   4  122.39   37.70
  -4  -4   4   82.19   30.20
  -4  -4   4  132.69   28.10
  -4  -4   4  102.39   31.50
   3   4  -4  233.78   19.50
   3   4  -4  225.28   31.90
   3   4  -4  231.58   29.70
   3   4  -4  199.78   23.30
   3   4  -4  244.08   14.80
   3   4  -4  223.38   63.29
  -3  -4   4  278.67   31.50
  -3  -4   4  236.58   42.70
  -3  -4   4  240.38   35.90
  -3  -4   4  281.37   20.90
  -3  -4   4  212.18   30.00
  -3  -4   4  234.08   41.60
   2   4  -4  955.50   54.79
   2   4  -4  973.00   40.90
   2   4  -4 1009.70   61.29
   2   4  -4  985.30   63.79
   2   4  -4 1044.40  111.49
  -2  -4   4  949.90   84.79
  -2  -4   4  914.81   84.19
  -2  -4   4 1064.89   50.09
  -2  -4   4  921.31   64.39
   1   4  -4  985.10  104.09
   1   4  -4  960.30   62.99
   1   4  -4  914.11   55.79
   1   4  -4  975.10   43.50
   1   4  -4 1048.00   60.79
   1   4  -4  989.40   55.99
  -1  -4   4  894.31   82.79
  -1  -4   4  914.11   84.59
  -1  -4   4 1042.20   62.29
  -1  -4   4  953.80   67.29
  -1  -4   4  978.20   50.79
   0   4  -4 3467.85  204.08
   0   4  -4 3695.93  152.68
   0   4  -4 3722.03  128.09
   0   4  -4 3523.75  143.09
   0   4  -4 3744.03  146.19
   0  -4   4 3874.81  134.09
   0  -4   4 4452.45  193.58
   0  -4   4 3808.72  192.28
   0  -4   4 3830.32  161.78
   0  -4   4 3976.10  154.28
   0  -4   4 3719.03  130.39
  -1   4  -4 1327.57   68.99
  -1   4  -4 1328.27   67.89
  -1   4  -4 1348.67   67.29
  -1   4  -4 1320.47   56.59
   1  -4   4 1342.17   67.19
   1  -4   4 1279.37   58.89
   1  -4   4 1324.57   86.39
   1  -4   4 1468.65   85.39
   1  -4   4 1299.97  105.09
   1  -4   4 1591.84   94.89
  -2   4  -4  548.65   59.69
  -2   4  -4  481.45  113.49
  -2   4  -4  716.03   46.80
  -2   4  -4  744.03   40.20
   2  -4   4  778.12   49.60
   2  -4   4  668.83   39.80
   2  -4   4  675.93   61.29
   2  -4   4  779.42   64.19
   2  -4   4  770.92   55.99
  -3   4  -4   -1.30   28.80
  -3   4  -4   55.19   44.80
  -3   4  -4   67.89   15.00
  -3   4  -4   67.29   28.90
   3  -4   4   53.89   16.10
   3  -4   4   29.90   12.20
   3  -4   4   38.90   17.80
   3  -4   4   77.79   25.80
  -4   4  -4   75.49   16.70
  -4   4  -4   57.49   52.69
  -4   4  -4   67.29   37.50
  -4   4  -4   90.99   49.50
   4  -4   4   65.09   23.90
   4  -4   4   72.19   20.30
   4  -4   4   76.09   26.80
   4  -4   4  107.69   33.00
  -5   4  -4   15.50    9.80
  -5   4  -4  -10.60   23.40
  -5   4  -4   61.59   31.50
  -5   4  -4   24.60   42.60
   5  -4   4   12.20    9.20
   5  -4   4   21.30   13.80
   5  -4   4  -10.90   14.20
  -6   4  -4   42.00   42.80
  -6   4  -4   80.39   47.50
  -6   4  -4  119.89   44.70
   6  -4   4   82.19   33.20
   6  -4   4   67.39   29.10
   6  -4   4   83.99   23.30
  -7   4  -4  158.38   45.60
  -7   4  -4  141.69   62.99
  -7   4  -4   95.09   61.19
   7  -4   4   81.99   30.60
   7  -4   4   49.00   31.60
  -8   4  -4   -4.90   42.90
  -8   4  -4  -42.60   37.60
  -8   4  -4  128.59   63.39
   8  -4   4   12.70   15.30
   8  -4   4    3.60   38.70
   8  -4   4   32.20   25.70
   8   3  -4  -31.50   50.29
   8   3  -4   -5.70   21.80
   8   3  -4  -29.40   28.60
  -8  -3   4   39.80   26.60
   7   3  -4  104.09   37.70
   7   3  -4   70.29   19.90
   7   3  -4   27.30   38.20
  -7  -3   4   75.19   31.40
  -7  -3   4   63.89   34.70
   6   3  -4  209.88   59.39
   6   3  -4  219.68   30.30
   6   3  -4  245.98   77.09
   6   3  -4  196.38   26.60
  -6  -3   4  210.68   50.89
  -6  -3   4  174.28   46.40
  -6  -3   4  181.88   29.00
   5   3  -4   88.59   46.30
   5   3  -4   57.69   16.90
   5   3  -4   97.99   36.00
   5   3  -4   71.99   21.70
  -5  -3   4   73.29   32.70
  -5  -3   4   72.99   28.20
  -5  -3   4   43.10   19.00
   4   3  -4  304.47   29.50
   4   3  -4  383.66   49.60
   4   3  -4  306.57   28.20
   4   3  -4  238.58   69.29
  -4  -3   4  404.26   48.90
  -4  -3   4  300.47   48.70
   3   3  -4  109.29   43.20
   3   3  -4   83.59   16.80
   3   3  -4   78.89   14.90
   3   3  -4   72.19   22.70
   3   3  -4  139.99   19.00
  -3  -3   4   77.79   17.30
  -3  -3   4   80.79   28.10
  -3  -3   4   93.89   23.60
  -3  -3   4   76.69   29.20
   2   3  -4  311.87   58.69
   2   3  -4  247.68   14.40
   2   3  -4  276.37   22.30
   2   3  -4  265.77   24.00
   2   3  -4  261.77   27.90
   2   3  -4  233.88   29.70
  -2  -3   4  299.27   44.30
  -2  -3   4  290.07   19.80
  -2  -3   4  280.17   43.50
  -2  -3   4  244.38   39.30
   1   3  -4 1619.34   71.79
   1   3  -4 1595.54   56.99
   1   3  -4 1714.73   70.29
   1   3  -4 1721.73   77.49
   1   3  -4 1363.76  123.19
   1   3  -4 1763.12   93.49
   1   3  -4 1595.54   76.09
   1   3  -4 1626.74   85.69
  -1  -3   4 1823.32   75.29
  -1  -3   4 1721.23   65.19
  -1  -3   4 1692.83   81.69
  -1  -3   4 1676.63   87.59
  -1  -3   4 1646.94  110.29
  -1  -3   4 1515.75  104.29
   0   3  -4   72.69   11.30
   0   3  -4   57.19   13.10
   0   3  -4   65.49   28.10
   0   3  -4   35.90   19.00
   0   3  -4   51.89   13.80
   0   3  -4   36.50    9.30
   0   3  -4   48.90    8.70
   0   3  -4   10.20   14.20
   0  -3   4   43.20   18.20
   0  -3   4   56.29   18.10
   0  -3   4   25.40   36.80
   0  -3   4   39.90   12.40
   0  -3   4   71.59   22.30
   0  -3   4   39.80   10.00
  -1   3  -4  451.35   22.30
  -1   3  -4  335.37   50.39
  -1   3  -4  421.06   29.90
  -1   3  -4  480.85   34.40
  -1   3  -4  467.45   29.80
   1  -3   4  443.86   43.80
   1  -3   4  424.36   30.80
   1  -3   4  408.56   53.29
   1  -3   4  496.05   54.89
   1  -3   4  464.25   38.50
  -2   3  -4   61.79   37.30
  -2   3  -4   85.99   41.20
  -2   3  -4  109.09   17.00
  -2   3  -4   72.19   29.70
   2  -3   4  103.09   18.40
   2  -3   4  106.89   27.50
   2  -3   4  152.28   27.90
   2  -3   4  166.58   32.30
  -3   3  -4   47.50   33.90
  -3   3  -4   64.59   16.20
  -3   3  -4   21.20   21.80
  -3   3  -4   40.10    9.00
  -3   3  -4   35.70   23.50
   3  -3   4   17.20    8.20
   3  -3   4   15.30   11.20
   3  -3   4   35.00   14.80
   3  -3   4    8.20    9.80
   3  -3   4   20.10   14.20
  -4   3  -4   15.00   25.90
  -4   3  -4    6.30    5.90
  -4   3  -4   29.00   28.20
  -4   3  -4    6.50   17.30
  -4   3  -4   14.60    8.40
   4  -3   4   -2.80    4.30
   4  -3   4    1.00    7.10
   4  -3   4   13.00   12.00
   4  -3   4   10.00    9.70
  -5   3  -4  151.98   20.40
  -5   3  -4  155.98   64.49
  -5   3  -4  210.48   21.10
  -5   3  -4  179.78   73.19
  -5   3  -4  195.98   59.89
   5  -3   4  130.69   36.40
   5  -3   4  180.18   39.70
   5  -3   4  119.89   32.30
   5  -3   4  193.78   32.20
   5  -3   4  125.59   35.20
  -6   3  -4  616.94  108.09
  -6   3  -4  730.13  117.69
  -6   3  -4  574.84   86.19
   6  -3   4  608.64   50.39
   6  -3   4  454.75   62.49
   6  -3   4  509.25   57.99
  -7   3  -4  371.56  112.39
  -7   3  -4  555.64   88.09
  -7   3  -4  453.65  112.19
   7  -3   4  491.35   48.00
   7  -3   4  381.86   75.39
   7  -3   4  387.26  100.89
  -8   3  -4  346.67  116.79
  -8   3  -4  340.87   78.59
  -8   3  -4  462.55  114.79
   8  -3   4  424.96   45.70
   8  -3   4  306.97   66.39
   8  -3   4  259.57   67.19
   8   2  -4   14.10   16.60
   8   2  -4   92.49   34.00
   8   2  -4  104.59   59.99
  -8  -2   4   33.00   20.10
  -8  -2   4   77.09   31.30
  -8  -2   4   48.70   30.90
   7   2  -4    4.70   10.50
   7   2  -4  -13.10   26.00
  -7  -2   4   25.10   13.70
  -7  -2   4    1.10   16.20
   6   2  -4    9.10   11.20
   6   2  -4  -19.90   14.10
   6   2  -4  -17.80   31.50
  -6  -2   4  -15.30    8.00
  -6  -2   4    4.10    8.10
  -6  -2   4   -7.30   10.70
   5   2  -4   34.40   11.70
   5   2  -4   14.70   27.60
   5   2  -4   25.70   19.60
  -5  -2   4   -2.00   13.20
  -5  -2   4    5.10   13.60
  -5  -2   4    7.20    9.00
   4   2  -4  401.36   38.10
   4   2  -4  403.86  126.49
   4   2  -4  464.45   34.20
   4   2  -4  398.16   57.09
  -4  -2   4  499.95   62.09
  -4  -2   4  348.07   44.00
   3   2  -4  634.54   93.69
   3   2  -4  645.94   41.30
   3   2  -4  627.04   36.30
   3   2  -4  585.34   57.79
  -3  -2   4  675.73   50.39
  -3  -2   4  588.14   41.80
  -3  -2   4  696.53   60.89
  -3  -2   4  597.44   63.29
   2   2  -4  666.43   32.00
   2   2  -4  682.53   41.50
   2   2  -4  639.14   22.70
   2   2  -4  693.03   55.29
   2   2  -4  698.23   90.19
   2   2  -4  677.43   38.70
  -2  -2   4  693.33   50.09
  -2  -2   4  680.63   63.29
  -2  -2   4  605.24   56.89
  -2  -2   4  656.83   45.10
  -2  -2   4  665.23   39.10
  -2  -2   4  699.03   27.40
   1   2  -4    4.40    5.00
   1   2  -4    5.10    4.70
   1   2  -4    3.50    4.40
   1   2  -4    6.40    1.70
   1   2  -4    3.80    2.00
   1   2  -4   15.90    9.30
   1   2  -4    0.60    7.90
   1   2  -4    4.90    4.40
   1   2  -4   -3.20   10.10
   1   2  -4   11.40    4.90
  -1  -2   4    0.70    5.50
  -1  -2   4    9.50    7.40
  -1  -2   4   31.50   10.30
  -1  -2   4   -1.80    4.20
  -1  -2   4    2.90    3.70
  -1  -2   4    2.80    1.80
   0   2  -4    6.20   16.70
   0   2  -4    8.60    9.80
   0   2  -4    8.00    6.50
   0   2  -4    4.00    4.50
   0   2  -4   14.80    6.90
   0   2  -4    7.80    9.10
   0   2  -4   23.70    7.00
   0   2  -4   20.00    4.00
   0   2  -4   16.60    6.70
   0  -2   4   19.10   10.90
   0  -2   4   10.50   11.90
   0  -2   4   12.80    4.30
   0  -2   4   16.00    8.50
   0  -2   4    2.10    4.40
   0  -2   4   24.20    6.60
   0  -2   4   30.00   22.30
   0  -2   4   12.90    7.50
  -1   2  -4   33.90    7.40
  -1   2  -4   46.30   18.60
  -1   2  -4   41.80   17.90
  -1   2  -4   35.10   10.00
  -1   2  -4   55.39    7.00
   1  -2   4   33.60   18.70
   1  -2   4   24.50   13.30
   1  -2   4   26.80   10.10
   1  -2   4   39.70    9.30
   1  -2   4   28.40   20.60
   1  -2   4   24.60   11.20
  -2   2  -4  196.18   35.90
  -2   2  -4  144.29   22.80
  -2   2  -4   95.99   34.00
  -2   2  -4  128.69   14.10
  -2   2  -4   80.19   39.40
   2  -2   4  127.19   33.10
   2  -2   4  155.48   30.50
   2  -2   4  120.99   14.10
   2  -2   4   53.99   28.30
   2  -2   4  131.49   23.10
  -3   2  -4   86.09   48.20
  -3   2  -4  122.09   35.00
  -3   2  -4   70.89   35.90
   3  -2   4  130.29   20.70
   3  -2   4  155.58   33.20
   3  -2   4  116.69   23.20
  -4   2  -4   54.89   41.10
  -4   2  -4   99.49   38.70
  -4   2  -4   46.90   35.90
   4  -2   4   67.39   19.20
   4  -2   4   47.50   12.70
   4  -2   4   46.90   16.60
   4  -2   4   62.09   18.30
   4  -2   4   68.69   11.30
   4  -2   4   72.29   24.60
  -5   2  -4   20.90   27.90
  -5   2  -4  111.59   14.50
  -5   2  -4   50.19   37.40
  -5   2  -4   70.79   37.40
  -5   2  -4   71.19   23.00
   5  -2   4   76.19   14.70
   5  -2   4   81.19   24.40
   5  -2   4   56.49   13.30
   5  -2   4   58.59   19.90
   5  -2   4   88.69   28.20
   5  -2   4   89.19   23.70
  -6   2  -4  345.67   75.19
  -6   2  -4  291.07   91.49
  -6   2  -4  293.87   77.49
  -6   2  -4  311.87   34.70
   6  -2   4  331.97   64.39
   6  -2   4  304.97   41.10
   6  -2   4  309.87   43.90
   6  -2   4  303.27   32.90
   6  -2   4  276.37   61.79
  -7   2  -4  226.78   74.79
  -7   2  -4  205.28   30.80
  -7   2  -4  171.18   55.79
  -7   2  -4  121.29   65.09
   7  -2   4   88.59   32.00
   7  -2   4  188.58   32.30
   7  -2   4  173.88   50.29
   7  -2   4  100.19   57.29
  -8   2  -4  139.89   47.90
  -8   2  -4   45.80   52.99
  -8   2  -4  131.59   58.49
  -8   2  -4  138.49   29.60
   8  -2   4   86.39   36.20
   8  -2   4  111.19   41.10
   8  -2   4  107.59   27.80
   8  -2   4   97.39   43.50
  -9   2  -4  -79.09   38.70
  -9   2  -4   10.00   34.20
  -9   2  -4  -60.19   42.70
   9  -2   4   27.80   12.50
   9  -2   4   18.70   40.60
   9  -2   4   10.70   11.50
   8   1  -4   81.09   28.10
   8   1  -4  186.38   66.69
   8   1  -4   40.90   62.59
  -8  -1   4  127.19   27.00
  -8  -1   4   90.79   43.30
  -8  -1   4  114.19   43.90
   7   1  -4   67.39   22.00
   7   1  -4   74.49   34.90
   7   1  -4   12.50   54.19
  -7  -1   4  113.69   21.90
  -7  -1   4   79.39   32.60
  -7  -1   4  167.48   59.59
   6   1  -4   46.00   45.90
   6   1  -4  107.39   48.30
   6   1  -4  122.59   28.00
  -6  -1   4  136.19   43.00
  -6  -1   4  156.88   20.90
  -6  -1   4  106.89   34.90
   5   1  -4  180.58   60.89
   5   1  -4  234.18   56.29
   5   1  -4  217.18   28.00
  -5  -1   4  263.97   57.69
  -5  -1   4  276.77   27.90
  -5  -1   4  262.37   44.10
   4   1  -4  302.87   80.29
   4   1  -4  345.97   57.49
   4   1  -4  321.77   29.70
  -4  -1   4  273.47   40.80
  -4  -1   4  348.47   48.70
  -4  -1   4  284.37   26.70
   3   1  -4  981.80  117.99
   3   1  -4 1229.18   56.29
   3   1  -4 1164.18   94.69
   3   1  -4 1131.09   63.89
  -3  -1   4 1185.08   57.99
  -3  -1   4 1299.07   66.89
  -3  -1   4 1153.88   78.39
  -3  -1   4 1133.69   85.29
   2   1  -4 2862.91  200.38
   2   1  -4 3351.66  104.49
   2   1  -4 3299.97  118.69
   2   1  -4 3344.97  157.38
  -2  -1   4 3342.77  108.69
  -2  -1   4 3313.17  117.89
  -2  -1   4 3318.77  153.18
  -2  -1   4 3371.36  143.89
   1   1  -4 1262.57   77.99
   1   1  -4 1248.48   69.89
   1   1  -4 1379.06   73.09
   1   1  -4 1320.07   57.69
   1   1  -4 1313.57   78.89
   1   1  -4 1329.97   42.10
   1   1  -4 1058.69  107.49
   1   1  -4 1234.58   41.40
  -1  -1   4 1290.27   67.09
  -1  -1   4 1285.87   61.99
  -1  -1   4 1311.57   85.69
  -1  -1   4 1337.77   42.90
  -1  -1   4 1305.07  109.79
  -1  -1   4 1312.67   46.50
  -1  -1   4 1334.97   79.49
   0   1  -4 1807.82   85.89
   0   1  -4 1939.91   93.59
   0   1  -4 1990.30  104.09
   0   1  -4 1888.11   59.59
   0   1  -4 1839.12   75.19
   0  -1   4 1843.42  106.59
   0  -1   4 1849.02   74.39
   0  -1   4 1786.92   80.69
   0  -1   4 1969.80   62.49
   0  -1   4 1830.22   99.99
  -1   1  -4   22.00    7.40
  -1   1  -4   12.60   11.70
  -1   1  -4   15.10   13.70
  -1   1  -4   20.60    6.60
  -1   1  -4   30.60    4.40
  -1   1  -4   10.40   17.40
  -1   1  -4   27.90    6.00
   1  -1   4   27.20   20.30
   1  -1   4   28.10    5.90
   1  -1   4    9.60    8.80
   1  -1   4   33.30    7.30
   1  -1   4   26.30    6.70
   1  -1   4   56.89   22.30
   1  -1   4   15.50    8.40
  -2   1  -4  226.48   33.50
  -2   1  -4  253.37   17.10
  -2   1  -4  158.88   49.10
  -2   1  -4  200.98   23.20
  -2   1  -4  117.39   44.50
  -2   1  -4  172.78   48.60
  -2   1  -4  244.78   18.50
   2  -1   4  237.08   18.50
   2  -1   4  164.68   49.40
   2  -1   4  232.98   20.30
   2  -1   4  150.28   42.60
   2  -1   4  128.29   44.80
   2  -1   4  211.88   33.80
   2  -1   4  201.58   25.50
  -3   1  -4  344.67   57.29
  -3   1  -4  164.98   57.69
  -3   1  -4  211.88   61.69
  -3   1  -4  239.68   26.40
  -3   1  -4  271.57   23.70
  -3   1  -4  260.17   38.70
   3  -1   4  263.67   21.10
   3  -1   4  250.67   20.90
   3  -1   4  252.47   30.10
   3  -1   4  249.58   24.70
   3  -1   4  216.48   57.99
   3  -1   4  214.48   51.69
   3  -1   4  219.98   18.40
  -4   1  -4 1280.97   58.19
  -4   1  -4 1200.58  144.19
  -4   1  -4 1397.26   95.09
  -4   1  -4 1120.39  125.09
   4  -1   4 1328.37   72.29
   4  -1   4 1364.36   77.89
   4  -1   4 1320.17   60.09
   4  -1   4 1283.67   60.49
   4  -1   4 1149.98  104.79
   4  -1   4 1222.98   70.39
  -5   1  -4  749.82  100.99
  -5   1  -4  664.13  198.68
  -5   1  -4  761.82   64.09
  -5   1  -4  708.93   45.80
  -5   1  -4  637.64   73.39
   5  -1   4  667.33   56.89
   5  -1   4  704.63   56.39
   5  -1   4  636.24   44.80
   5  -1   4  676.13   80.49
   5  -1   4  579.74   50.99
   5  -1   4  710.53   44.10
  -6   1  -4  358.76   89.59
  -6   1  -4  345.37   69.49
  -6   1  -4  402.36  102.09
  -6   1  -4  356.86   43.50
   6  -1   4  296.27   44.00
   6  -1   4  265.97   28.40
   6  -1   4  278.37   38.80
   6  -1   4  308.67   37.90
  -7   1  -4   42.20   33.00
  -7   1  -4   79.69   25.40
  -7   1  -4   84.29   51.19
  -7   1  -4   61.19   47.50
   7  -1   4   67.89   16.50
   7  -1   4   27.40   26.30
  -8   1  -4   82.89   61.99
  -8   1  -4  112.19   29.10
  -8   1  -4  159.18   82.59
   8  -1   4   79.79   21.80
   8  -1   4   43.50   17.60
   8  -1   4   83.99   44.00
  -9   1  -4   86.19   47.00
  -9   1  -4   72.79   46.90
  -9   1  -4  144.69   71.19
  -9   1  -4  119.39   32.80
   9  -1   4  125.99   31.70
   9  -1   4   12.80   43.30
   9  -1   4   82.29   51.69
   9  -1   4  105.29   32.90
   8   0  -4   23.10   21.50
   8   0  -4  -57.29   51.09
  -8   0   4   51.99   29.20
  -8   0   4   11.60   20.70
  -8   0   4   46.30   19.70
   7   0  -4   47.30   47.30
   7   0  -4   25.90   33.50
   7   0  -4   33.20   17.50
  -7   0   4   36.50   27.10
  -7   0   4   55.59   25.70
   6   0  -4   57.89   32.30
   6   0  -4   63.19   21.80
  -6   0   4   63.99   19.30
  -6   0   4   75.19   32.50
  -6   0   4   78.09   32.60
   5   0  -4   51.39   34.80
   5   0  -4   44.40   33.50
   5   0  -4   71.19   24.20
  -5   0   4   40.10   15.30
  -5   0   4   23.30   21.20
  -5   0   4   33.90   22.40
   4   0  -4   45.20   36.20
   4   0  -4   99.79   32.10
   4   0  -4   65.29   16.60
  -4   0   4  104.59   33.10
  -4   0   4   66.29   15.90
  -4   0   4   52.69   21.80
   3   0  -4  384.26   55.49
   3   0  -4  362.16   43.80
   3   0  -4  227.58   66.69
   3   0  -4  340.07   28.40
  -3   0   4  379.16   43.50
  -3   0   4  329.77   43.00
  -3   0   4  379.56   29.30
  -3   0   4  341.47   29.00
   2   0  -4   12.60    9.60
   2   0  -4    7.30    6.40
   2   0  -4   -1.20   13.70
   2   0  -4   10.30    5.20
   2   0  -4   26.50   10.20
  -2   0   4    5.90    5.40
  -2   0   4    4.10    7.10
  -2   0   4   -1.80    3.50
  -2   0   4   -2.30    5.80
   1   0  -4  364.66   64.79
   1   0  -4  496.75   34.60
   1   0  -4  491.75   39.70
   1   0  -4  532.25   44.20
   1   0  -4  482.85   22.90
   1   0  -4  457.75   24.90
   1   0  -4  451.55   49.90
  -1   0   4  502.85   19.70
  -1   0   4  484.35   45.50
  -1   0   4  517.95   23.10
  -1   0   4  483.05   41.30
  -1   0   4  504.15   46.90
  -1   0   4  475.25   31.70
  -1   0   4  582.14   70.59
   0   0  -4  202.88   13.10
   0   0  -4  124.99   41.70
   0   0  -4  218.78   28.70
   0   0  -4  203.58   19.70
   0   0  -4  183.48   22.70
   0   0  -4  149.79   48.40
   0   0  -4  187.48   26.00
   0   0   4  208.78   26.00
   0   0   4  190.28   12.00
   0   0   4  198.98   56.19
   0   0   4  176.08   24.40
   0   0   4  199.18   19.30
   0   0   4  160.68   27.30
   0   0   4  168.68   50.29
  -1   0  -4   96.09    9.20
  -1   0  -4   76.69    8.70
  -1   0  -4   74.79   18.80
  -1   0  -4   71.29   11.00
  -1   0  -4   84.49   18.20
  -1   0  -4   46.30   26.90
  -1   0  -4   35.80   21.80
   1   0   4   62.89   30.80
   1   0   4   86.99    7.20
   1   0   4   98.49   14.10
   1   0   4   88.59   26.50
   1   0   4   62.09   28.90
   1   0   4  103.49   20.40
  -2   0  -4  842.72   38.60
  -2   0  -4  851.61   36.90
  -2   0  -4  740.13   83.19
  -2   0  -4  892.41   45.40
  -2   0  -4  860.51   39.40
  -2   0  -4  778.62   57.79
   2   0   4  803.62   48.30
   2   0   4  813.12   60.99
   2   0   4  813.82   42.40
   2   0   4  826.62   37.80
   2   0   4  828.02   36.20
  -3   0  -4   63.89   20.20
  -3   0  -4   57.99   27.90
  -3   0  -4   73.89    9.70
  -3   0  -4  104.59   37.00
  -3   0  -4   91.19   12.10
  -3   0  -4   95.99   33.80
   3   0   4   82.19   33.40
   3   0   4   34.40   16.60
   3   0   4   33.30   23.30
   3   0   4   75.79   14.60
   3   0   4   74.99   12.60
   3   0   4   80.89   18.30
   3   0   4   75.89    8.80
   3   0   4   78.09   11.80
  -4   0  -4 3813.22  137.69
  -4   0  -4 4412.16  199.38
  -4   0  -4 3857.31  223.78
  -4   0  -4 4273.87  265.17
   4   0   4 3743.53  139.19
   4   0   4 3872.21  146.79
   4   0   4 3643.04  137.99
   4   0   4 3927.31  126.79
   4   0   4 3364.96  204.48
   4   0   4 3994.80  135.19
  -5   0  -4 1764.82  150.28
  -5   0  -4 1909.31  119.79
  -5   0  -4 1729.93  116.39
  -5   0  -4 1949.41  175.58
  -5   0  -4 1696.63   81.29
  -5   0  -4 1721.13   85.39
   5   0   4 1790.12   74.89
   5   0   4 1780.82   89.39
   5   0   4 1549.24  130.09
   5   0   4 1967.50   94.49
   5   0   4 1693.03   86.99
   5   0   4 1828.92   91.49
  -6   0  -4  878.11   79.19
  -6   0  -4  938.11  117.79
  -6   0  -4  903.51   79.49
  -6   0  -4  925.21  123.39
   6   0   4  827.62   57.09
   6   0   4  777.52   61.69
   6   0   4  888.11   71.49
   6   0   4  825.12   50.89
  -7   0  -4   97.59   42.80
  -7   0  -4  148.09   44.60
  -7   0  -4  198.68   37.30
  -7   0  -4  151.68   63.19
   7   0   4  124.29   31.10
   7   0   4  113.69   21.80
   7   0   4  140.19   39.20
  -8   0  -4   -2.70   16.60
  -8   0  -4   55.89   38.10
  -8   0  -4  -18.90   35.70
   8   0   4   -1.50    6.50
   8   0   4    7.10   27.20
   8   0   4   25.90   12.50
  -9   0  -4  -23.20   27.90
  -9   0  -4   50.89   32.80
  -9   0  -4   38.60   33.10
  -9   0  -4   32.80   19.60
   9   0   4  -15.10    9.30
   9   0   4  -39.50   32.00
   9   0   4    4.50   18.50
   7  -1  -4  -23.80   35.10
   7  -1  -4   46.60   22.00
   7  -1  -4  -53.99   39.90
  -7   1   4   36.60   20.80
  -7   1   4   32.80   29.40
  -7   1   4   69.79   32.40
   6  -1  -4  -18.50   49.50
   6  -1  -4   62.79   24.80
   6  -1  -4   83.99   53.49
  -6   1   4  145.79   47.00
  -6   1   4   84.59   31.00
  -6   1   4  115.49   28.70
   5  -1  -4  233.68   60.69
   5  -1  -4  236.58   43.90
   5  -1  -4  183.28   64.19
  -5   1   4  173.68   43.30
  -5   1   4  225.18   13.30
  -5   1   4  217.88   31.80
  -5   1   4  204.78   50.19
   4  -1  -4  401.46   39.70
   4  -1  -4  441.96   71.29
   4  -1  -4  347.27   91.49
  -4   1   4  418.96   22.90
  -4   1   4  390.06   53.09
  -4   1   4  423.76   40.60
  -4   1   4  396.96   51.79
  -4   1   4  411.06   19.50
   3  -1  -4  251.97   71.59
   3  -1  -4  248.18   28.80
   3  -1  -4  206.58   52.89
  -3   1   4  286.07   40.40
  -3   1   4  278.47   18.00
  -3   1   4  300.47   32.20
  -3   1   4  331.97   41.90
  -3   1   4  300.07   17.00
   2  -1  -4   70.19   21.50
   2  -1  -4  111.29   25.70
   2  -1  -4   32.20   25.10
   2  -1  -4   84.39   29.20
   2  -1  -4   73.09   16.20
  -2   1   4  110.99   50.09
  -2   1   4   73.79   22.20
  -2   1   4   66.49   15.50
  -2   1   4   74.79    9.20
  -2   1   4   66.19   19.70
  -2   1   4   58.59   15.30
  -2   1   4   68.09    8.90
   1  -1  -4   10.20   11.90
   1  -1  -4   12.70    7.80
   1  -1  -4   13.30   10.10
   1  -1  -4    2.30    3.60
   1  -1  -4   10.70    6.50
   1  -1  -4   13.90    6.90
  -1   1   4    9.50   10.10
  -1   1   4    5.90    7.30
  -1   1   4    9.40    4.70
  -1   1   4   11.30    4.00
  -1   1   4   16.80    8.90
  -1   1   4   18.40   12.80
  -1   1   4    8.70    7.50
   0  -1  -4    8.40    4.80
   0  -1  -4   14.50    7.10
   0  -1  -4    4.30    6.40
   0  -1  -4   16.00    7.90
   0  -1  -4    9.30    6.30
   0  -1  -4   10.70    3.20
   0  -1  -4  -17.90   11.50
   0   1   4    6.00    4.70
   0   1   4   10.00    5.10
   0   1   4    6.00    6.50
   0   1   4   11.90    3.80
   0   1   4   -0.50   25.70
   0   1   4   12.80    9.10
   0   1   4    5.50    5.20
  -1  -1  -4   38.10   10.70
  -1  -1  -4   57.59    7.50
  -1  -1  -4   59.59   16.70
  -1  -1  -4   16.80   14.50
  -1  -1  -4   41.20   11.50
  -1  -1  -4   40.40   19.50
   1   1   4   31.00   10.00
   1   1   4   61.49   15.90
   1   1   4   36.20   13.80
   1   1   4   30.60    7.40
   1   1   4   26.90    8.30
   1   1   4   46.50   10.80
  -2  -1  -4   -6.30    4.30
  -2  -1  -4    7.40    4.90
  -2  -1  -4    8.20    6.10
  -2  -1  -4    1.80    4.20
  -2  -1  -4   28.10   16.80
  -2  -1  -4    1.50    3.00
  -2  -1  -4    9.30    4.00
  -2  -1  -4   -6.00    9.30
   2   1   4    4.00    6.90
   2   1   4  -13.00   12.40
   2   1   4   35.30   15.20
   2   1   4    1.00    1.50
   2   1   4    3.30    2.50
   2   1   4    3.10    4.00
  -3  -1  -4   86.49   38.90
  -3  -1  -4   73.89   19.30
  -3  -1  -4   80.49   13.40
  -3  -1  -4   84.29   10.20
  -3  -1  -4   66.39   24.00
  -3  -1  -4   89.29   21.60
  -3  -1  -4   88.69   34.60
  -3  -1  -4   65.39   12.80
   3   1   4   48.40   17.40
   3   1   4   83.19   14.70
   3   1   4   80.49   16.80
   3   1   4   83.79   12.40
   3   1   4   44.00   32.00
   3   1   4   48.60   28.20
   3   1   4   78.49   15.70
   3   1   4   71.79   16.40
  -4  -1  -4  836.12  103.09
  -4  -1  -4  731.13   39.40
  -4  -1  -4  737.53   76.99
   4   1   4  693.83   36.20
   4   1   4  647.84   49.70
   4   1   4  669.63   82.19
   4   1   4  728.93   43.60
   4   1   4  643.14   43.10
   4   1   4  745.33   46.20
  -5  -1  -4  206.68   21.20
  -5  -1  -4  279.97   47.80
  -5  -1  -4  194.78   37.10
  -5  -1  -4  231.48   67.89
   5   1   4  219.88   25.40
   5   1   4  169.28   18.10
   5   1   4  191.98   25.80
   5   1   4  229.28   27.80
   5   1   4  238.88   30.20
  -6  -1  -4   82.39   16.30
  -6  -1  -4   72.29   25.60
  -6  -1  -4  124.69   57.49
  -6  -1  -4   72.79   29.10
  -6  -1  -4  131.99   49.90
   6   1   4   81.09   21.60
   6   1   4  127.49   21.20
   6   1   4   79.19   18.70
   6   1   4  105.49   14.80
  -7  -1  -4   -8.70   13.10
  -7  -1  -4    0.00   16.70
  -7  -1  -4  -22.30   26.40
  -7  -1  -4   21.20   27.60
   7   1   4   12.20    7.20
   7   1   4   13.10   16.70
   7   1   4   -1.40    9.30
  -8  -1  -4  148.79   21.70
  -8  -1  -4  159.78   45.80
  -8  -1  -4  185.78   67.09
  -8  -1  -4  170.88   63.99
  -8  -1  -4  107.29   29.90
   8   1   4  125.99   23.60
   8   1   4   76.09   23.80
   8   1   4  116.09   36.10
  -9  -1  -4    0.70   34.80
  -9  -1  -4   26.20   22.40
  -9  -1  -4  -51.09   33.00
   9   1   4    0.00    8.30
   9   1   4   -8.10   31.40
   9   1   4   12.50   13.80
 -10  -1  -4   77.29   28.20
  10   1   4  -10.10   14.00
  10   1   4   17.20   47.50
  10   1   4  -26.70   40.30
  10   1   4    5.10   15.40
   7  -2  -4   31.10   20.20
   7  -2  -4  -82.79   50.69
   7  -2  -4   44.40   41.90
  -7   2   4   -4.70   20.20
  -7   2   4   36.20   26.40
  -7   2   4   40.50   26.50
  -7   2   4   24.80   15.80
   6  -2  -4   96.49   43.60
   6  -2  -4  181.18   41.90
   6  -2  -4  134.09   78.49
  -6   2   4  152.98   21.40
  -6   2   4  175.78   40.60
  -6   2   4  167.48   21.30
  -6   2   4  151.98   51.89
  -6   2   4  200.38   49.00
   5  -2  -4  121.19   32.00
   5  -2  -4  107.29   84.19
   5  -2  -4  187.98   57.19
  -5   2   4  208.58   42.50
  -5   2   4  141.29   21.60
  -5   2   4   90.99   35.90
  -5   2   4  131.39   33.60
   4  -2  -4  556.34   81.99
   4  -2  -4  535.55   52.59
   4  -2  -4  397.36  105.29
  -4   2   4  510.05   34.80
  -4   2   4  593.84   54.89
  -4   2   4  567.94   59.29
  -4   2   4  643.44   71.29
   3  -2  -4  231.58   29.20
   3  -2  -4  148.09   63.89
   3  -2  -4  268.27   68.99
  -3   2   4  245.08   21.80
  -3   2   4  224.98   33.60
  -3   2   4  236.18   34.70
  -3   2   4  236.68   19.10
  -3   2   4  292.07   44.10
   2  -2  -4  308.17   49.80
   2  -2  -4  319.87   34.00
   2  -2  -4  210.78   58.49
  -2   2   4  337.77   35.30
  -2   2   4  421.56   64.49
  -2   2   4  285.17   39.20
  -2   2   4  330.87   23.20
  -2   2   4  340.87   36.90
  -2   2   4  340.87   29.80
   1  -2  -4  397.46   42.60
   1  -2  -4  344.37   49.60
   1  -2  -4  361.56   31.10
   1  -2  -4  393.46   39.40
   1  -2  -4  338.07   30.90
   1  -2  -4  336.37   24.90
  -1   2   4  347.17   33.40
  -1   2   4  330.77   35.10
  -1   2   4  346.17   56.19
  -1   2   4  382.66   30.10
  -1   2   4  348.77   24.50
  -1   2   4  356.36   28.90
   0  -2  -4   86.79   20.40
   0  -2  -4   64.99   30.10
   0  -2  -4   75.79   14.00
   0  -2  -4   54.19   22.10
   0  -2  -4  116.99   19.20
   0  -2  -4   92.19   18.60
   0  -2  -4   86.69   10.90
   0  -2  -4  110.09   30.60
   0   2   4   36.00   19.80
   0   2   4   95.99   12.40
   0   2   4   80.29   14.30
   0   2   4   95.09   17.00
   0   2   4   79.99   17.70
   0   2   4   84.09   17.00
   0   2   4   94.89   29.60
  -1  -2  -4  789.32   46.00
  -1  -2  -4  818.32   62.19
  -1  -2  -4  783.02   41.20
  -1  -2  -4  820.42   41.10
  -1  -2  -4  622.14   84.49
   1   2   4  751.12   45.00
   1   2   4  849.52   65.99
   1   2   4  798.02   47.10
   1   2   4  774.42   43.40
   1   2   4  768.82   37.00
   1   2   4  751.62   41.60
  -2  -2  -4 2678.23  179.68
  -2  -2  -4 2884.31   98.49
  -2  -2  -4 2728.63  164.98
  -2  -2  -4 2945.61  111.79
  -2  -2  -4 2835.72   99.19
  -2  -2  -4 2865.11  102.79
   2   2   4 2953.20  130.69
   2   2   4 2873.71   93.69
   2   2   4 2730.73  104.99
   2   2   4 2850.91  105.39
   2   2   4 2822.32   96.99
   2   2   4 2904.11  113.99
  -3  -2  -4 1896.21   86.09
  -3  -2  -4 1932.41  145.99
  -3  -2  -4 1968.00   71.29
  -3  -2  -4 1887.41   72.99
  -3  -2  -4 1509.15   96.89
  -3  -2  -4 1731.43   79.69
  -3  -2  -4 2012.60  143.69
  -3  -2  -4 1872.31   93.29
   3   2   4 1852.21   95.89
   3   2   4 1906.91   79.29
   3   2   4 1570.94  135.79
   3   2   4 1818.82   73.19
  -4  -2  -4 1095.09   48.00
  -4  -2  -4 1128.39   68.09
  -4  -2  -4 1313.87  121.79
  -4  -2  -4 1317.67  109.59
  -4  -2  -4 1186.58   85.29
   4   2   4 1160.98   50.29
   4   2   4 1096.89   72.69
   4   2   4 1164.68   55.19
   4   2   4 1120.79   60.99
   4   2   4 1188.68   65.29
  -5  -2  -4  322.77   21.40
  -5  -2  -4  353.46   57.99
  -5  -2  -4  434.46   72.79
  -5  -2  -4  464.85   53.59
   5   2   4  329.87   32.40
   5   2   4  323.67   24.30
   5   2   4  321.87   27.50
   5   2   4  294.27   45.60
   5   2   4  328.57   32.80
  -6  -2  -4  162.48   45.70
  -6  -2  -4  151.78   33.40
  -6  -2  -4  123.79   12.60
  -6  -2  -4  195.48   56.79
  -6  -2  -4  183.58   49.00
   6   2   4  129.89   28.70
   6   2   4  154.08   24.10
   6   2   4  140.39   18.10
   6   2   4  138.69   15.70
  -7  -2  -4  271.27   60.79
  -7  -2  -4  264.77   63.49
  -7  -2  -4  242.28   70.49
  -7  -2  -4  235.88   35.40
   7   2   4  201.98   31.50
   7   2   4  258.17   67.19
   7   2   4  199.88   21.80
  -8  -2  -4  248.28   74.59
  -8  -2  -4  164.78   46.50
  -8  -2  -4  123.39   50.39
   8   2   4  153.38   43.70
   8   2   4  208.88   24.20
   8   2   4  143.89   33.20
  -9  -2  -4   29.40   21.80
   9   2   4    1.80    7.70
   9   2   4   -0.20   13.30
   9   2   4  -16.30   22.50
 -10  -2  -4   44.90   24.40
 -10  -2  -4  -52.29   31.40
 -10  -2  -4  -43.10   30.20
  10   2   4   24.50   13.10
  10   2   4  -58.09   33.30
  10   2   4   43.30   16.30
   7  -3  -4  -80.59   59.19
   7  -3  -4  -19.80   21.10
   7  -3  -4   16.80   44.30
  -7   3   4    0.60   21.10
  -7   3   4   11.10   18.60
  -7   3   4   10.90   23.00
   6  -3  -4    3.60   18.80
   6  -3  -4  -18.10   30.50
   6  -3  -4  -14.00   51.39
  -6   3   4   10.10   19.90
  -6   3   4    4.30   11.70
  -6   3   4   -4.40   20.00
  -6   3   4   11.90   22.50
   5  -3  -4   33.20   12.10
   5  -3  -4   11.80   31.30
   5  -3  -4   31.60   20.20
   5  -3  -4   15.60   39.10
  -5   3   4   58.79   27.50
  -5   3   4   62.19   28.30
  -5   3   4   37.60   13.10
  -5   3   4   36.20   29.20
   4  -3  -4  182.38   60.79
   4  -3  -4   92.49   51.79
   4  -3  -4  257.77   50.39
   4  -3  -4  155.18   21.60
  -4   3   4  219.08   54.79
  -4   3   4  224.08   46.20
  -4   3   4  225.78   35.20
  -4   3   4  183.78   24.10
   3  -3  -4  462.05   50.69
   3  -3  -4  431.36   69.69
   3  -3  -4  273.27   82.09
  -3   3   4  508.35   62.69
  -3   3   4  497.45   54.19
  -3   3   4  486.15   44.30
  -3   3   4  512.25   32.50
  -3   3   4  555.44   50.69
   2  -3  -4  529.05   63.69
   2  -3  -4  490.15   48.70
   2  -3  -4  505.05   68.89
  -2   3   4  537.75   44.20
  -2   3   4  552.14   58.39
  -2   3   4  538.25   35.30
  -2   3   4  556.44   76.39
  -2   3   4  620.24   54.89
  -2   3   4  562.34   37.50
   1  -3  -4   15.60   12.80
   1  -3  -4    6.50    4.60
   1  -3  -4   -0.40    5.30
   1  -3  -4    2.30    3.60
   1  -3  -4    1.40   12.90
  -1   3   4    6.20    9.20
  -1   3   4    7.00    4.70
  -1   3   4    2.50    2.90
  -1   3   4    4.10    7.10
  -1   3   4    0.00    5.60
  -1   3   4    5.40    9.90
   0  -3  -4  288.87   22.60
   0  -3  -4  163.48   49.10
   0  -3  -4  258.97   33.90
   0  -3  -4  306.37   44.70
   0  -3  -4  248.58   29.40
   0  -3  -4  251.47   36.70
   0  -3  -4  314.47   25.00
   0   3   4  224.58   27.30
   0   3   4  309.57   60.99
   0   3   4  315.17   30.20
   0   3   4  318.17   25.50
   0   3   4  250.07   41.70
   0   3   4  277.87   24.70
   0   3   4  161.38   46.10
  -1  -3  -4 1140.49   67.79
  -1  -3  -4 1157.18   85.69
  -1  -3  -4 1123.99   66.39
  -1  -3  -4  957.40  107.19
  -1  -3  -4 1177.48   60.49
  -1  -3  -4 1211.28   57.29
  -1  -3  -4 1083.49   57.99
   1   3   4 1309.27   54.89
   1   3   4 1183.48   54.69
   1   3   4 1266.47   69.89
   1   3   4 1216.08   89.19
   1   3   4 1117.69   60.69
  -2  -3  -4 5945.31  289.97
  -2  -3  -4 5586.14  242.28
  -2  -3  -4 5990.30  167.18
  -2  -3  -4 5741.63  202.88
  -2  -3  -4 5694.83  222.88
  -2  -3  -4 5935.61  184.88
   2   3   4 5895.01  181.58
   2   3   4 5650.23  236.38
   2   3   4 5719.23  173.18
   2   3   4 5957.40  198.48
   2   3   4 5754.42  178.18
   2   3   4 5247.77  290.87
   2   3   4 6257.57  233.68
  -3  -3  -4 7329.07  221.78
  -3  -3  -4 7761.22  330.07
  -3  -3  -4 7656.03  298.37
  -3  -3  -4 7192.78  242.48
  -3  -3  -4 6961.80  255.47
  -3  -3  -4 7140.19  220.38
   3   3   4 6109.39  326.47
   3   3   4 6982.90  231.88
   3   3   4 7354.16  209.38
   3   3   4 7056.49  246.38
   3   3   4 7122.79  211.28
   3   3   4 7136.09  261.47
  -4  -3  -4 1980.40   87.59
  -4  -3  -4 1821.12   81.09
  -4  -3  -4 1887.71  104.89
  -4  -3  -4 2057.79  147.29
  -4  -3  -4 1954.10   76.19
  -4  -3  -4 1990.40  138.29
   4   3   4 1832.62  106.29
   4   3   4 1946.11   74.19
   4   3   4 1884.21   89.89
   4   3   4 1967.20   72.59
  -5  -3  -4   20.10   14.40
  -5  -3  -4    5.00   19.60
  -5  -3  -4    5.10   12.50
  -5  -3  -4   14.80    7.30
   5   3   4    9.00    7.90
   5   3   4    8.30    4.80
   5   3   4   21.60    9.30
   5   3   4   45.90   18.10
   5   3   4   15.60    6.20
  -6  -3  -4   68.19   31.90
  -6  -3  -4  127.19   38.10
  -6  -3  -4  100.59   43.60
   6   3   4   90.59   24.40
   6   3   4   96.69   22.70
   6   3   4   88.49   12.30
   6   3   4   82.59   33.20
  -7  -3  -4   63.69   28.50
  -7  -3  -4   35.00   18.70
  -7  -3  -4   41.30   39.40
   7   3   4   37.90   15.30
   7   3   4   50.09   21.90
   7   3   4   65.49   14.30
  -8  -3  -4  196.28   54.59
  -8  -3  -4  208.38   52.09
  -8  -3  -4  180.08   65.29
   8   3   4  144.69   32.20
   8   3   4  168.38   20.50
   8   3   4  161.58   39.80
  -9  -3  -4  322.67   61.19
  -9  -3  -4  332.07   70.69
  -9  -3  -4  292.27   81.39
   9   3   4  228.38   44.10
   9   3   4  224.28   27.30
   9   3   4  206.48   54.59
 -10  -3  -4   21.00   28.20
 -10  -3  -4  -41.20   28.50
 -10  -3  -4   32.70   30.50
  10   3   4   51.99   16.10
  10   3   4   52.79   33.70
  10   3   4   21.90   17.10
   6  -4  -4   29.80   29.30
   6  -4  -4   40.00   38.60
   6  -4  -4   21.60   14.50
   6  -4  -4   78.29   61.39
  -6   4   4   48.50   40.70
  -6   4   4   34.80   21.60
  -6   4   4   39.90   27.00
  -6   4   4   53.29   35.00
   5  -4  -4  -13.10   44.10
   5  -4  -4   16.90   11.90
   5  -4  -4   60.39   34.80
   5  -4  -4   22.20   20.40
  -5   4   4   21.60   15.40
  -5   4   4    8.10   26.80
  -5   4   4   -8.10   24.90
  -5   4   4   55.99   22.40
   4  -4  -4   95.19   27.90
   4  -4  -4   26.40   11.70
   4  -4  -4    4.90   26.80
   4  -4  -4  -19.60   39.60
  -4   4   4   33.10   28.90
  -4   4   4   64.79   20.60
  -4   4   4   93.79   36.70
  -4   4   4   50.39   20.50
   3  -4  -4   38.60   23.50
   3  -4  -4  -34.20   24.00
   3  -4  -4   -5.20   18.50
   3  -4  -4   12.60   14.50
   3  -4  -4   17.50    8.10
  -3   4   4   42.50   22.50
  -3   4   4   14.50   10.10
  -3   4   4   18.70    9.90
  -3   4   4    8.50   17.60
   2  -4  -4   65.19   43.10
   2  -4  -4   56.39   21.60
   2  -4  -4   27.80   17.30
   2  -4  -4   60.29   33.50
  -2   4   4   45.70   22.40
  -2   4   4   80.99   17.70
  -2   4   4   61.79   16.50
  -2   4   4   41.20   25.00
   1  -4  -4    6.20   30.90
   1  -4  -4   51.99   27.10
   1  -4  -4   36.40   15.40
   1  -4  -4   22.30   10.70
  -1   4   4   54.49   22.80
  -1   4   4   58.19   25.90
  -1   4   4   40.10   11.30
  -1   4   4   24.10   10.70
  -1   4   4   37.90   17.40
   0  -4  -4    0.30    5.30
   0  -4  -4   23.70   18.10
   0  -4  -4   18.70   12.30
   0  -4  -4   10.20   13.10
   0   4   4   15.80   10.70
   0   4   4   28.80   11.80
   0   4   4    4.70   10.30
   0   4   4   -4.20   17.50
  -1  -4  -4    5.60   14.60
  -1  -4  -4   -9.30    7.20
  -1  -4  -4    5.00    9.60
  -1  -4  -4   -0.20    3.60
  -1  -4  -4    8.30    7.80
  -1  -4  -4    4.60    8.40
   1   4   4   -1.60    9.90
   1   4   4   26.50   17.80
   1   4   4    6.20    5.00
   1   4   4   13.00    9.20
   1   4   4   16.30    9.10
   1   4   4   18.30    7.50
  -2  -4  -4  319.47   37.10
  -2  -4  -4  309.17   45.00
  -2  -4  -4  363.06   35.40
  -2  -4  -4  361.86   63.49
  -2  -4  -4  296.27   27.70
   2   4   4  203.08   49.30
   2   4   4  336.97   31.70
   2   4   4  284.87   68.99
   2   4   4  294.07   26.90
   2   4   4  317.27   19.10
   2   4   4  332.17   36.90
  -3  -4  -4  123.89   42.70
  -3  -4  -4  152.38   35.80
  -3  -4  -4  169.58   30.00
   3   4   4  161.78   18.40
   3   4   4  106.79   36.00
   3   4   4  150.68   29.70
   3   4   4  146.69   18.70
  -4  -4  -4  251.97   26.40
  -4  -4  -4  283.57   66.69
  -4  -4  -4  268.67   38.60
  -4  -4  -4  289.57   46.60
   4   4   4  250.17   64.89
   4   4   4  260.67   23.40
   4   4   4  193.08   28.10
  -5  -4  -4   60.09   14.40
  -5  -4  -4   94.09   14.60
  -5  -4  -4   80.39   24.20
  -5  -4  -4   54.79   27.50
  -5  -4  -4   50.19   30.00
   5   4   4   45.90   11.40
   5   4   4   54.39   17.60
   5   4   4   54.89   11.20
   5   4   4   41.20   20.90
   5   4   4   49.60   19.60
  -6  -4  -4  190.58   52.19
  -6  -4  -4  187.88   40.90
  -6  -4  -4  216.48   29.10
  -6  -4  -4  162.58   46.60
   6   4   4  196.38   31.50
   6   4   4  212.18   38.00
   6   4   4  226.18   58.29
   6   4   4  214.48   20.50
  -7  -4  -4  -17.50   15.90
  -7  -4  -4    1.00   14.10
  -7  -4  -4  -10.60   18.40
   7   4   4    2.90    8.60
   7   4   4   -0.50    8.90
   7   4   4   11.50    6.90
  -8  -4  -4   26.60   20.60
  -8  -4  -4   60.29   26.20
  -8  -4  -4   25.60   28.00
   8   4   4   -2.40   11.40
   8   4   4   16.40    6.90
   8   4   4    4.20   15.40
  -9  -4  -4  181.48   56.59
  -9  -4  -4  148.39   42.20
  -9  -4  -4  207.58   72.19
   9   4   4  112.39   28.30
   9   4   4  128.19   39.90
   9   4   4  144.59   23.70
 -10  -4  -4  138.59   46.10
 -10  -4  -4  160.08   47.80
 -10  -4  -4   93.79   49.20
  10   4   4  101.69   33.50
  10   4   4  160.08   38.40
  10   4   4  119.59   24.10
   6  -5  -4  168.98   33.40
   6  -5  -4   29.20   59.69
   6  -5  -4  171.08   55.49
   6  -5  -4    5.50   82.39
  -6   5   4  183.98   41.70
  -6   5   4  124.89   56.69
  -6   5   4  173.38   33.90
  -6   5   4  153.08   54.99
   5  -5  -4  109.59   41.30
   5  -5  -4   58.19   20.90
   5  -5  -4   83.49   47.10
   5  -5  -4    7.10   54.79
  -5   5   4  100.29   43.20
  -5   5   4   89.79   26.30
  -5   5   4  104.09   31.90
  -5   5   4   89.99   46.50
   4  -5  -4   66.59   51.69
   4  -5  -4   67.09   49.60
   4  -5  -4   62.59   18.00
   4  -5  -4  119.29   37.20
  -4   5   4   82.69   25.40
  -4   5   4   31.60   27.60
  -4   5   4   37.90   39.60
  -4   5   4   59.99   21.60
   3  -5  -4    9.00   10.50
   3  -5  -4   44.30   41.40
   3  -5  -4   34.30   24.20
   3  -5  -4   29.00   25.80
   3  -5  -4   17.70   17.90
  -3   5   4   44.70   25.10
  -3   5   4   41.00   24.20
  -3   5   4   10.10    9.90
   2  -5  -4  481.65   42.00
   2  -5  -4  347.07   50.39
   2  -5  -4  507.15   58.79
   2  -5  -4  363.26   82.59
   2  -5  -4  430.26   69.99
  -2   5   4  467.95   49.10
  -2   5   4  570.44   68.39
  -2   5   4  556.24   46.20
  -2   5   4  540.05   63.09
  -2   5   4  647.84   82.49
   1  -5  -4  711.83   88.89
   1  -5  -4  772.52   71.29
   1  -5  -4  838.52  100.19
  -1   5   4  898.11   77.29
  -1   5   4  715.03   89.99
  -1   5   4  749.33   81.29
  -1   5   4  826.82   56.09
   0  -5  -4 3143.79  183.28
   0  -5  -4 3156.98  154.88
   0  -5  -4 2898.21  195.68
   0  -5  -4 2488.55  158.08
   0   5   4 3433.36  145.39
   0   5   4 3024.00  123.99
   0   5   4 3228.58  150.28
  -1  -5  -4 2006.40  135.49
  -1  -5  -4 1765.12  111.19
  -1  -5  -4 1999.40  115.09
  -1  -5  -4 2228.68  163.08
   1   5   4 1591.34  179.38
   1   5   4 1926.41  104.79
   1   5   4 1955.60   90.29
   1   5   4 2042.50   90.79
  -2  -5  -4  123.29   16.20
  -2  -5  -4  111.99   35.70
  -2  -5  -4   87.89   36.10
  -2  -5  -4   83.99   24.90
   2   5   4   92.49   19.40
   2   5   4   89.89   23.70
   2   5   4  132.99   28.60
   2   5   4   81.39   24.40
   2   5   4  113.79   12.50
  -3  -5  -4  502.35   42.80
  -3  -5  -4  561.84   76.89
  -3  -5  -4  507.05   54.09
  -3  -5  -4  565.44   63.79
  -3  -5  -4  525.25   47.90
   3   5   4  469.65   40.90
   3   5   4  442.16   47.70
   3   5   4  458.45   59.69
   3   5   4  556.64   40.50
  -4  -5  -4  466.75   49.60
  -4  -5  -4  440.26   55.39
  -4  -5  -4  471.65   58.89
  -4  -5  -4  463.25   71.09
   4   5   4  381.76   61.29
   4   5   4  419.36   45.10
   4   5   4  450.25   35.50
   4   5   4  446.16   32.10
  -5  -5  -4  503.55   61.99
  -5  -5  -4  513.25   59.39
  -5  -5  -4  532.65   40.40
   5   5   4  549.85   37.40
   5   5   4  520.45   28.20
   5   5   4  539.75   55.49
   5   5   4  479.05   50.39
  -6  -5  -4   46.10   27.00
  -6  -5  -4   23.50   10.10
  -6  -5  -4   22.40   21.20
  -6  -5  -4    6.30   12.20
   6   5   4   45.70   17.50
   6   5   4   29.80   14.70
   6   5   4    5.10   12.00
   6   5   4   19.00    8.20
  -7  -5  -4   82.99   38.60
  -7  -5  -4   72.39   27.70
  -7  -5  -4   64.09   34.30
  -7  -5  -4   84.29   19.80
   7   5   4   77.99   16.80
   7   5   4   83.39   28.30
   7   5   4   97.49   26.30
   7   5   4  142.69   33.70
  -8  -5  -4   23.20   17.70
  -8  -5  -4    9.70   23.40
  -8  -5  -4   -6.40   11.60
   8   5   4   20.90   16.30
  -9  -5  -4   40.70   31.50
  -9  -5  -4   61.89   27.60
   9   5   4   48.50   14.40
   9   5   4   58.39   20.40
   9   5   4   45.50   27.50
 -10  -5  -4   33.70   27.20
 -10  -5  -4   13.80   32.50
 -10  -5  -4   80.59   34.90
  10   5   4   34.60   32.70
  10   5   4   37.70   13.80
  10   5   4   28.70   12.60
   5  -6  -4   53.19   25.20
   5  -6  -4   48.60   50.19
   5  -6  -4  -31.50   65.09
   5  -6  -4  108.49   25.20
  -5   6   4   38.20   23.20
  -5   6   4   -7.40   24.50
  -5   6   4   76.09   40.30
  -5   6   4   57.09   25.00
   4  -6  -4   82.39   35.70
   4  -6  -4   88.99   24.00
   4  -6  -4   46.30   45.10
   4  -6  -4   -9.20   41.70
  -4   6   4   99.89   44.10
  -4   6   4   50.99   21.90
  -4   6   4   49.70   33.90
  -4   6   4   85.59   26.10
   3  -6  -4   50.29   39.00
   3  -6  -4   49.10   28.70
   3  -6  -4   31.40   37.20
   3  -6  -4   92.49   24.50
  -3   6   4   87.39   25.60
  -3   6   4   88.99   20.00
  -3   6   4   53.09   32.70
  -3   6   4  135.09   41.10
   2  -6  -4   58.89   34.30
   2  -6  -4   17.20   39.10
   2  -6  -4   64.09   19.40
   2  -6  -4   61.99   29.50
   2  -6  -4   67.09   25.80
  -2   6   4  103.29   16.30
  -2   6   4   82.69   21.90
  -2   6   4  154.48   43.10
  -2   6   4   92.69   38.10
   1  -6  -4  393.86   53.59
   1  -6  -4  306.37   69.29
   1  -6  -4  272.57   66.99
  -1   6   4  423.86   56.39
  -1   6   4  515.95   78.59
  -1   6   4  484.25   59.99
   0  -6  -4 1918.61  123.09
   0  -6  -4 1941.61  154.38
   0  -6  -4 1734.03  142.89
   0   6   4 1998.50   98.79
   0   6   4 1789.92  115.69
   0   6   4 1993.50  116.49
  -1  -6  -4  989.90   92.49
  -1  -6  -4 1162.08   91.89
  -1  -6  -4 1217.78  117.99
  -1  -6  -4 1180.68  107.49
   1   6   4 1191.28   85.09
   1   6   4 1184.78   73.19
   1   6   4 1123.19   68.89
  -2  -6  -4 1190.08   92.39
  -2  -6  -4 1344.47  112.09
  -2  -6  -4 1259.87  116.59
   2   6   4 1203.58   80.79
   2   6   4 1190.48   59.79
   2   6   4 1241.08   92.59
   2   6   4 1166.58   69.29
  -3  -6  -4   29.40   24.70
  -3  -6  -4    7.40   15.20
  -3  -6  -4   -6.60   11.80
   3   6   4   17.50   20.10
   3   6   4   17.50   10.20
   3   6   4   11.30   12.40
   3   6   4   12.00   11.60
  -4  -6  -4  456.65   50.59
  -4  -6  -4  427.16   61.29
  -4  -6  -4  533.05   76.29
  -4  -6  -4  496.75   47.40
   4   6   4  433.26   49.30
   4   6   4  386.46   62.59
   4   6   4  481.25   46.60
   4   6   4  405.76   37.20
  -5  -6  -4   45.50   33.40
  -5  -6  -4   86.09   30.20
  -5  -6  -4   63.99   30.80
  -5  -6  -4   69.89   26.10
   5   6   4  102.69   14.10
   5   6   4   48.10   20.20
  -6  -6  -4  407.96   56.19
  -6  -6  -4  309.17   50.89
  -6  -6  -4  268.47   64.59
   6   6   4  362.26   45.10
   6   6   4  303.17   29.20
   6   6   4  337.97   48.10
  -7  -6  -4  344.37   52.09
  -7  -6  -4  451.45   75.49
  -7  -6  -4  350.66   59.59
   7   6   4  326.37   44.20
   7   6   4  322.97   41.90
   7   6   4  312.77   29.80
   7   6   4  257.77   52.49
  -8  -6  -4  385.86   70.49
  -8  -6  -4  301.67   71.19
  -8  -6  -4  306.67   34.70
   8   6   4  304.27   29.00
   8   6   4  294.97   41.40
   8   6   4  331.47   50.79
  -9  -6  -4   83.19   34.90
  -9  -6  -4   87.29   27.10
  -9  -6  -4   86.09   42.90
   9   6   4   64.89   16.00
   9   6   4  101.29   35.50
   9   6   4   64.99   24.30
 -10  -6  -4  122.59   51.19
 -10  -6  -4  115.69   34.90
 -10  -6  -4   88.39   36.90
  10   6   4  113.69   30.70
  10   6   4   79.39   18.30
  10   6   4   73.99   32.60
   5  -7  -4  -34.00   34.90
   5  -7  -4   13.00   14.50
   5  -7  -4    2.90   25.00
  -5   7   4    8.50   37.60
  -5   7   4  -27.20   31.20
  -5   7   4    7.40   24.00
   4  -7  -4  -15.00   20.10
   4  -7  -4  -21.90    9.40
   4  -7  -4   -9.80   28.60
  -4   7   4   25.30   35.00
  -4   7   4  -13.90   21.50
  -4   7   4   -5.50   16.80
  -4   7   4  -10.20   16.40
   3  -7  -4   25.50   15.80
   3  -7  -4   43.60   20.80
   3  -7  -4   24.50   40.00
   3  -7  -4   17.40   29.90
   3  -7  -4  -57.89   38.40
   3  -7  -4   18.70   17.40
  -3   7   4   26.90   16.00
  -3   7   4   57.59   38.30
  -3   7   4   40.50   15.50
  -3   7   4   72.99   28.90
  -3   7   4   57.69   27.30
   2  -7  -4   -2.20   17.20
   2  -7  -4   -4.00    8.40
   2  -7  -4  -26.00   16.40
   2  -7  -4  -36.30   23.00
  -2   7   4   26.40   10.60
  -2   7   4   66.39   45.30
  -2   7   4    4.50   16.40
  -2   7   4    0.50   23.20
   1  -7  -4   34.00   27.50
   1  -7  -4   81.69   30.40
   1  -7  -4   10.40   26.40
  -1   7   4   56.79   28.90
  -1   7   4   22.50   15.20
  -1   7   4   83.09   36.40
   0  -7  -4   25.20   20.20
   0  -7  -4   55.29   31.10
   0  -7  -4   64.19   33.60
   0   7   4   51.69   25.90
   0   7   4   60.69   26.10
  -1  -7  -4   95.79   31.70
  -1  -7  -4   88.29   35.70
  -1  -7  -4   46.10   29.40
  -1  -7  -4   59.69   30.10
   1   7   4   95.09   30.00
   1   7   4   83.39   25.20
   1   7   4   36.20   15.50
  -2  -7  -4   47.60   30.80
  -2  -7  -4   23.90   16.60
  -2  -7  -4   37.40   24.30
  -2  -7  -4   70.29   31.90
   2   7   4   16.80   14.30
   2   7   4   32.30   16.70
   2   7   4   44.60   22.50
   2   7   4   29.90   14.40
  -3  -7  -4   -3.20   13.50
  -3  -7  -4   13.50    8.10
  -3  -7  -4   14.50   12.40
  -3  -7  -4   33.80   15.70
   3   7   4    4.00    8.00
   3   7   4    8.10   15.20
   3   7   4   -2.70    7.00
   3   7   4   40.00   18.00
  -4  -7  -4   38.00   21.90
  -4  -7  -4    9.70   13.60
  -4  -7  -4   24.10   22.10
  -4  -7  -4   32.80   25.90
   4   7   4   25.20   10.90
   4   7   4   69.49   27.30
   4   7   4   32.10   14.80
  -5  -7  -4  176.78   37.10
  -5  -7  -4  128.89   32.00
  -5  -7  -4  188.38   60.09
  -5  -7  -4   90.89   36.40
   5   7   4  126.69   36.20
   5   7   4  145.79   27.70
   5   7   4  131.39   25.00
   5   7   4  119.59   26.00
  -6  -7  -4  175.58   53.99
  -6  -7  -4  200.28   47.10
  -6  -7  -4  208.78   53.79
  -6  -7  -4  184.38   37.40
   6   7   4  168.08   22.90
   6   7   4  187.08   17.40
   6   7   4  171.48   38.10
   6   7   4  240.58   25.10
   6   7   4  130.49   37.00
  -7  -7  -4  265.87   58.29
  -7  -7  -4  279.77   51.79
  -7  -7  -4  273.37   66.49
   7   7   4  254.97   28.80
   7   7   4  240.58   51.69
   7   7   4  290.97   40.20
  -8  -7  -4  109.79   56.69
  -8  -7  -4  257.37   54.89
  -8  -7  -4  223.98   60.89
   8   7   4  229.68   75.89
   8   7   4  201.68   48.40
   8   7   4  225.78   25.00
  -9  -7  -4  108.59   29.40
  -9  -7  -4   71.09   42.10
  -9  -7  -4  105.49   37.30
   9   7   4   90.19   26.30
   9   7   4  109.49   21.30
   9   7   4   86.69   36.00
 -10  -7  -4  -30.10   24.00
 -10  -7  -4  -15.20   24.00
 -10  -7  -4    2.30   20.30
  10   7   4  -32.40   17.30
  10   7   4    7.10    9.10
  10   7   4   50.59   18.30
   4  -8  -4   47.00   28.10
   4  -8  -4   15.60   23.00
   4  -8  -4   57.29   50.09
  -4   8   4   34.20   40.00
  -4   8   4    7.30   21.70
  -4   8   4   17.30   37.80
   3  -8  -4  346.47   91.99
   3  -8  -4  515.65   99.09
   3  -8  -4  262.97   50.59
   3  -8  -4  475.55   52.19
  -3   8   4  475.85   98.99
  -3   8   4  344.07   47.80
  -3   8   4  298.17   72.39
   2  -8  -4  526.25  109.19
   2  -8  -4  352.16   65.79
   2  -8  -4  492.35   70.09
  -2   8   4  635.74   60.79
  -2   8   4  499.25   79.99
  -2   8   4  545.45   79.39
   1  -8  -4  827.52  109.99
   1  -8  -4  782.32   92.89
   1  -8  -4  810.42   84.49
  -1   8   4  840.82   90.09
  -1   8   4  873.61   94.19
  -1   8   4  722.93   66.89
   0  -8  -4  129.09   39.00
   0  -8  -4  111.29   40.30
   0  -8  -4  250.27   74.49
   0   8   4  148.89   46.40
   0   8   4  199.88   49.10
   0   8   4  105.99   30.20
  -1  -8  -4  128.49   39.30
  -1  -8  -4  143.29   47.60
  -1  -8  -4  184.78   59.19
   1   8   4  197.68   51.69
   1   8   4  193.98   45.30
   1   8   4  175.68   34.40
  -2  -8  -4   52.19   29.10
  -2  -8  -4   51.69   23.50
  -2  -8  -4   67.39   32.80
   2   8   4   97.09   31.60
   2   8   4   59.09   17.70
   2   8   4   78.59   22.80
  -3  -8  -4  187.48   57.09
  -3  -8  -4  107.59   39.60
  -3  -8  -4  176.28   22.00
  -3  -8  -4  177.58   42.60
   3   8   4  257.37   41.10
   3   8   4  182.68   62.59
   3   8   4  145.89   29.90
   3   8   4  164.18   23.00
   3   8   4  148.99   39.60
  -4  -8  -4  626.44   86.49
  -4  -8  -4  532.55   78.49
  -4  -8  -4  646.14   74.19
  -4  -8  -4  567.64   48.50
   4   8   4  574.44   65.99
   4   8   4  512.65   76.39
   4   8   4  658.43   60.49
   4   8   4  628.04   53.89
  -5  -8  -4   67.29   39.80
  -5  -8  -4   52.09   25.60
  -5  -8  -4   11.00   12.80
   5   8   4   38.60   16.40
   5   8   4   22.80   16.80
   5   8   4   33.30   18.30
  -6  -8  -4  244.08   68.69
  -6  -8  -4  205.58   45.20
  -6  -8  -4  259.67   61.39
  -6  -8  -4  253.57   46.50
   6   8   4  221.18   46.10
   6   8   4  201.78   27.60
   6   8   4  269.67   29.20
   6   8   4  199.88   53.69
  -7  -8  -4   16.50   19.10
  -7  -8  -4   -2.80   18.40
  -7  -8  -4    4.10   17.00
   7   8   4    7.00   10.10
   7   8   4   -4.00   15.60
  -8  -8  -4   46.10   21.80
  -8  -8  -4    7.90   11.50
  -8  -8  -4   20.20   19.80
   8   8   4   -6.30   11.50
   8   8   4  -27.20   12.70
   8   8   4   -0.30    8.10
  -9  -8  -4   31.80   32.50
  -9  -8  -4   47.00   30.70
   9   8   4   19.60   24.40
   9   8   4   56.69   14.60
   9   8   4   44.80   24.80
   3  -9  -4  -66.49   35.40
   3  -9  -4   17.10   24.10
  -3   9   4  -39.20   33.60
  -3   9   4   15.60   28.60
  -3   9   4   17.50   20.20
   2  -9  -4   91.69   55.09
   2  -9  -4  119.59   35.10
   2  -9  -4  164.58   45.80
  -2   9   4  128.99   38.30
  -2   9   4  114.29   42.80
  -2   9   4  164.18   56.29
   1  -9  -4  285.37   84.49
   1  -9  -4  317.37   86.89
   1  -9  -4  247.08   50.09
  -1   9   4  253.97   63.69
  -1   9   4  293.17   52.89
  -1   9   4  360.16   77.49
   0  -9  -4   17.00   19.30
   0  -9  -4   46.80   28.70
   0  -9  -4   31.80   39.00
   0   9   4   56.99   36.00
   0   9   4   23.60   17.10
   0   9   4   94.49   33.50
  -1  -9  -4   21.30   20.00
  -1  -9  -4   19.00   22.70
  -1  -9  -4   16.40   23.10
   1   9   4   30.00   24.10
   1   9   4    1.10   10.70
   1   9   4   32.30   19.80
  -2  -9  -4    5.30   20.20
  -2  -9  -4  -11.50   18.00
  -2  -9  -4    7.20   15.60
   2   9   4    8.80    8.50
   2   9   4   15.10   17.10
   2   9   4   13.30   16.00
  -3  -9  -4   26.80   19.40
  -3  -9  -4    1.10   19.40
  -3  -9  -4  -15.10   15.10
   3   9   4    4.30   20.40
   3   9   4    8.50   10.40
   3   9   4   43.20   15.50
   3   9   4   16.80   15.60
   3   9   4  -13.00    9.80
  -4  -9  -4  176.98   55.29
  -4  -9  -4  143.89   27.00
  -4  -9  -4   96.99   36.70
  -4  -9  -4  168.38   52.19
   4   9   4  113.79   39.50
   4   9   4  228.78   47.20
   4   9   4  125.79   29.60
   4   9   4  120.59   33.70
  -5  -9  -4  598.94   57.49
  -5  -9  -4  532.45   77.49
  -5  -9  -4  638.34   90.89
   5   9   4  551.94   65.49
   5   9   4  542.05   50.79
   5   9   4  499.15   52.29
  -6  -9  -4  577.84   63.89
  -6  -9  -4  624.34   91.39
  -6  -9  -4  618.84   86.99
   6   9   4  585.34   75.39
   6   9   4  572.94   48.30
   6   9   4  521.25   50.69
   6   9   4  590.24   69.39
  -7  -9  -4  198.18   70.99
  -7  -9  -4  326.07   85.29
  -7  -9  -4  225.48   51.99
   7   9   4  250.07   52.19
   7   9   4  264.57   33.10
   7   9   4  214.68   63.19
  -8  -9  -4  144.29   40.90
  -8  -9  -4   75.19   45.60
  -8  -9  -4   97.49   35.90
   8   9   4   91.69   20.70
   8   9   4   96.39   37.50
   8   9   4   66.69   27.30
  -9  -9  -4   51.09   33.30
  -9  -9  -4   32.60   39.80
   9   9   4   60.59   28.50
   9   9   4   81.69   26.70
   9   9   4   60.29   22.40
   2 -10  -4  -23.50   40.80
   2 -10  -4   78.99   33.00
  -2  10   4   67.09   30.30
  -2  10   4   65.39   28.80
  -2  10   4   -1.60   29.20
   1 -10  -4   39.50   35.20
   1 -10  -4    4.60   25.00
   1 -10  -4   30.10   28.00
  -1  10   4    6.70   19.50
  -1  10   4  -28.80   24.70
  -1  10   4   -2.10   30.70
   0 -10  -4   72.19   67.39
   0 -10  -4   69.69   30.80
   0 -10  -4  112.89   42.40
   0  10   4   83.39   41.70
   0  10   4  131.89   36.00
   0  10   4   70.89   43.40
  -1 -10  -4    9.60   17.40
  -1 -10  -4   16.70   25.50
  -1 -10  -4  -10.20   20.40
   1  10   4   38.40   15.90
   1  10   4    4.60   24.50
   1  10   4   23.50   21.40
  -2 -10  -4   14.00   24.10
  -2 -10  -4   -9.00   19.20
  -2 -10  -4   44.80   31.40
   2  10   4  -13.80   19.80
   2  10   4   20.60   11.70
   2  10   4    4.40   23.20
  -3 -10  -4   -7.10   18.00
  -3 -10  -4   -6.50   21.10
  -3 -10  -4  -20.90   17.90
   3  10   4   10.80   18.60
   3  10   4   -8.00    9.20
   3  10   4   13.40   20.10
   3  10   4   41.30   19.00
   3  10   4    1.50   15.30
  -4 -10  -4  159.18   30.20
  -4 -10  -4  200.98   60.39
  -4 -10  -4  222.48   63.09
  -4 -10  -4  159.78   50.19
   4  10   4  169.48   36.20
   4  10   4  149.09   88.99
   4  10   4  227.28   56.29
   4  10   4  235.18   52.99
  -5 -10  -4  318.47   77.59
  -5 -10  -4  346.67   66.19
  -5 -10  -4  307.77   43.80
   5  10   4  362.86   43.60
   5  10   4  267.47   59.39
   5  10   4  294.27   47.50
  -6 -10  -4  106.69   38.40
  -6 -10  -4   90.69   32.10
  -6 -10  -4  122.29   48.60
   6  10   4  110.59   26.60
   6  10   4   98.49   27.20
   6  10   4   71.49   32.50
  -7 -10  -4   70.99   31.50
  -7 -10  -4    7.10   28.00
  -7 -10  -4   41.70   26.20
   7  10   4   34.40   21.80
   7  10   4   24.90   21.70
   7  10   4   18.60   12.40
   7  10   4   24.40   12.70
  -8 -10  -4   16.80   22.40
  -8 -10  -4  -17.80   26.10
  -8 -10  -4  -12.70   21.00
   8  10   4    7.00   10.90
   8  10   4  -14.90   10.70
   8  10   4    5.00   17.90
   1 -11  -4   24.60   44.10
   1 -11  -4   40.00   34.30
  -1  11   4  -27.10   34.20
  -1  11   4   23.30   14.30
  -1  11   4   63.69   44.70
   0 -11  -4   13.00   27.80
   0 -11  -4  -38.00   21.50
   0  11   4  -40.30   25.00
   0  11   4  -24.90   32.50
   0  11   4    8.00   15.40
  -1 -11  -4   27.10   28.10
  -1 -11  -4  -40.50   34.00
  -1 -11  -4   21.70   28.40
   1  11   4    1.30   30.70
   1  11   4   22.90   25.60
  -2 -11  -4   30.40   25.90
  -2 -11  -4   81.39   37.20
  -2 -11  -4   80.79   45.60
   2  11   4   55.59   33.40
   2  11   4   36.60   28.40
   2  11   4   48.20   23.30
   2  11   4   83.89   20.70
  -3 -11  -4   88.89   43.30
  -3 -11  -4   75.99   39.30
  -3 -11  -4   92.29   48.50
   3  11   4  150.48   41.60
   3  11   4  108.59   46.20
   3  11   4   79.39   29.20
   3  11   4  124.59   41.40
  -4 -11  -4   93.69   39.80
  -4 -11  -4   77.09   40.30
  -4 -11  -4   88.69   49.60
   4  11   4   99.89   36.30
   4  11   4  102.79   30.00
   4  11   4   20.10   24.20
  -5 -11  -4   49.00   37.30
  -5 -11  -4   97.19   38.60
  -5 -11  -4   41.80   32.20
  -5 -11  -4    8.80   20.20
   5  11   4   48.90   28.00
   5  11   4   27.00   14.60
   5  11   4   12.90   24.20
  -6 -11  -4   32.80   36.50
  -6 -11  -4   24.00   29.70
  -6 -11  -4   94.79   34.50
   6  11   4   26.40   27.90
   6  11   4   26.40   18.10
   6  11   4   69.29   27.80
  -7 -11  -4  -22.20   20.60
  -7 -11  -4   31.10   28.40
  -7 -11  -4   25.70   22.30
   7  11   4   28.70   22.30
   7  11   4  -18.20   10.40
   7  11   4  -23.80   15.40
  -8 -11  -4  160.88   62.29
  -8 -11  -4   52.09   41.60
  -8 -11  -4   76.49   38.40
   8  11   4  135.89   30.20
   8  11   4   97.09   34.80
   8  11   4  111.39   36.40
  -1 -12  -4   61.09   38.00
  -1 -12  -4   81.69   41.20
  -1 -12  -4  114.29   51.99
   1  12   4  127.29   49.00
   1  12   4  126.99   28.20
   1  12   4   58.09   48.60
  -2 -12  -4  274.97   84.89
  -2 -12  -4  176.88   51.19
  -2 -12  -4  310.57   70.79
   2  12   4  138.29   53.09
   2  12   4  171.58   54.59
   2  12   4  190.58   43.00
   2  12   4  215.08   60.59
  -3 -12  -4  236.58   63.29
  -3 -12  -4  484.25  108.29
  -3 -12  -4  332.67   70.19
   3  12   4  389.06   67.19
   3  12   4  333.17   70.89
   3  12   4  294.37   53.59
   3  12   4  383.96   83.19
  -4 -12  -4  160.68   56.89
  -4 -12  -4  232.98   58.99
  -4 -12  -4  263.57   80.39
   4  12   4  231.18   52.69
   4  12   4  197.28   42.40
  -5 -12  -4  280.27   69.69
  -5 -12  -4  263.37   58.99
  -5 -12  -4  324.47   80.39
  -5 -12  -4  308.87   86.19
   5  12   4  260.57   66.79
   5  12   4  316.47   64.69
   5  12   4  294.77   49.70
  -6 -12  -4   58.59   44.00
  -6 -12  -4   91.89   43.40
  -6 -12  -4  151.28   43.90
   6  12   4   81.19   34.40
   6  12   4  150.88   41.10
   6  12   4   83.09   27.30
   7  12   4  -29.70   21.40
   4  11  -5  176.98   64.09
   4  11  -5   13.90   26.50
   4  11  -5   68.09   27.90
   3  11  -5   93.19   26.80
   3  11  -5   43.30   21.80
   3  11  -5   79.39   71.39
   3  11  -5  177.48   75.99
   3  11  -5  122.99   59.19
  -3 -11   5   41.00   54.19
  -3 -11   5    7.90   26.50
  -3 -11   5   25.80   30.00
   2  11  -5  -10.20   13.70
   2  11  -5   -5.60   26.70
   2  11  -5   24.00   35.10
   2  11  -5  -28.70   12.10
   2  11  -5   -2.00   54.59
   2  11  -5   -6.40   39.70
  -2 -11   5  -34.50   15.80
  -2 -11   5   41.60   64.59
  -2 -11   5   -2.90   18.50
   1  11  -5  -15.70   49.70
   1  11  -5   36.60   57.49
   1  11  -5   16.80   18.20
   1  11  -5  -32.30   35.30
   1  11  -5  -28.00   16.30
   1  11  -5  -41.40   24.50
   1  11  -5  121.79   60.89
  -1 -11   5  -11.30   19.50
  -1 -11   5    4.00   22.30
  -1 -11   5   20.40   23.60
  -1 -11   5  -15.20   33.90
   0  11  -5   92.09   36.00
   0  11  -5   38.30   21.80
   0  11  -5   40.80   18.10
   0  11  -5   13.60   45.40
   0 -11   5   42.30   29.40
   0 -11   5   16.40   18.70
   0 -11   5    3.30   35.50
   5  10  -5   28.80   37.10
   5  10  -5   -4.50   17.00
   5  10  -5   28.90   16.80
   5  10  -5   26.30   22.20
   5  10  -5   76.09   48.30
   5  10  -5   62.09   61.59
  -5 -10   5   45.20   26.90
  -5 -10   5   23.30   24.30
  -5 -10   5   25.20   39.50
   4  10  -5   75.59   36.20
   4  10  -5   78.09   26.10
   4  10  -5   48.20   55.49
   4  10  -5   76.79   22.30
   4  10  -5  133.09   56.79
   4  10  -5   80.39   65.79
   4  10  -5   58.49   25.30
  -4 -10   5   52.19   27.40
  -4 -10   5  109.49   49.99
   3  10  -5  176.48   34.90
   3  10  -5   70.59   46.80
   3  10  -5   28.30   47.50
   3  10  -5  129.29   65.49
   3  10  -5  133.99   73.19
   3  10  -5  166.98   43.50
   3  10  -5  129.49   40.30
  -3 -10   5  204.08   66.69
  -3 -10   5  162.48   46.00
  -3 -10   5  121.99   36.20
   2  10  -5   -7.30   46.60
   2  10  -5   90.79   43.50
   2  10  -5    6.90   27.10
   2  10  -5   36.60   17.80
   2  10  -5   80.29   27.20
   2  10  -5   16.00   53.89
  -2 -10   5   19.20   22.30
  -2 -10   5   36.80   37.40
   1  10  -5  128.79   71.49
   1  10  -5  179.88   55.49
   1  10  -5  199.78   80.69
   1  10  -5  230.08   43.20
   1  10  -5  157.28   66.49
   1  10  -5  132.69   79.89
   1  10  -5  228.68   49.60
  -1 -10   5  286.97   54.19
  -1 -10   5  259.87   48.40
  -1 -10   5  184.78   52.29
  -1 -10   5  315.97   67.79
   0  10  -5   82.19   23.20
   0  10  -5   58.09   32.10
   0  10  -5   94.99   46.10
   0  10  -5   33.40   36.70
   0  10  -5  -43.00   43.30
   0  10  -5   44.30   61.79
   0 -10   5   60.09   43.90
   0 -10   5   75.29   26.70
   0 -10   5   59.89   33.60
   0 -10   5  108.99   30.60
  -1  10  -5   11.50   55.19
  -1  10  -5  105.59   59.79
  -1  10  -5   91.19   45.60
   1 -10   5    6.80   36.00
   1 -10   5   47.20   32.00
   1 -10   5    5.40   24.70
   1 -10   5   91.09   27.70
  -2  10  -5  126.09   56.79
  -2  10  -5  196.48   31.50
  -2  10  -5   53.89   60.29
   2 -10   5  172.48   61.99
   2 -10   5  142.89   39.80
   6   9  -5   52.39   19.80
   6   9  -5   18.80   16.20
   6   9  -5  -35.50   42.70
   6   9  -5    0.30   13.70
   6   9  -5   63.89   33.60
   6   9  -5  -50.49   38.20
  -6  -9   5  -25.60   21.70
  -6  -9   5   -8.80   26.10
  -6  -9   5    7.40   26.30
   5   9  -5    9.10   15.50
   5   9  -5  -18.30   12.70
   5   9  -5   54.19   51.79
   5   9  -5   10.60   35.80
   5   9  -5   49.60   34.30
   5   9  -5  -15.30   12.40
  -5  -9   5   11.80   33.60
  -5  -9   5    4.30   26.30
  -5  -9   5   -6.70   21.40
   4   9  -5   54.69   23.70
   4   9  -5   77.39   25.40
   4   9  -5  -34.30   33.60
   4   9  -5   13.20   45.90
   4   9  -5    3.20   41.40
   4   9  -5   43.60   18.50
   4   9  -5   13.20   35.10
  -4  -9   5   59.69   28.10
  -4  -9   5   50.59   36.00
  -4  -9   5    6.60   27.90
   3   9  -5   63.79   39.90
   3   9  -5   28.40   32.40
   3   9  -5   36.00   56.59
   3   9  -5   42.50   19.60
   3   9  -5   75.89   28.60
   3   9  -5   15.80   18.10
   3   9  -5   59.19   61.39
  -3  -9   5   17.70   17.00
  -3  -9   5   60.29   33.60
  -3  -9   5   98.39   41.60
  -3  -9   5  120.89   37.10
   2   9  -5   49.80   47.30
   2   9  -5  168.28   36.30
   2   9  -5  103.09   31.10
   2   9  -5  135.19   63.19
   2   9  -5  102.29   56.69
   2   9  -5  164.28   44.20
  -2  -9   5  161.98   42.60
  -2  -9   5  166.08   38.40
  -2  -9   5  117.39   55.19
  -2  -9   5  118.49   25.40
   1   9  -5  193.88   44.90
   1   9  -5  203.88   75.69
   1   9  -5  224.58   32.90
   1   9  -5  155.78   67.39
   1   9  -5  225.98   52.89
   1   9  -5  180.28   71.39
   1   9  -5  102.99   55.59
  -1  -9   5  190.68   40.60
  -1  -9   5  202.48   50.79
  -1  -9   5  314.77   66.09
  -1  -9   5  227.28   37.20
   0   9  -5  -31.40   34.80
   0   9  -5   17.20   21.40
   0   9  -5   -9.40   35.50
   0   9  -5    4.20   10.40
   0  -9   5   -0.40   12.00
   0  -9   5    0.10   15.40
   0  -9   5    0.10   13.60
   0  -9   5   31.40   19.00
  -1   9  -5  119.19   82.29
  -1   9  -5  156.48   31.60
  -1   9  -5   91.59   56.89
  -1   9  -5  139.89   54.69
  -1   9  -5  173.58   76.29
   1  -9   5  231.58   58.09
   1  -9   5  248.98   38.50
   1  -9   5  194.28   40.90
   1  -9   5  265.87   67.29
  -2   9  -5    5.00   63.49
  -2   9  -5  115.19   42.10
  -2   9  -5  154.28   68.59
   2  -9   5   48.80   32.30
   2  -9   5   60.69   27.00
   2  -9   5   52.79   35.20
   2  -9   5   81.19   30.70
  -3   9  -5  204.98   68.89
  -3   9  -5  119.89   70.69
  -3   9  -5   69.79   60.69
   3  -9   5   51.99   21.90
   3  -9   5   54.89   31.00
   3  -9   5  122.09   44.40
  -4   9  -5   -4.10   71.99
  -4   9  -5   59.79   55.49
  -4   9  -5  115.49   46.20
   4  -9   5   83.19   22.90
   4  -9   5   61.69   43.90
   7   8  -5   70.39   25.30
   7   8  -5   78.69   40.20
   7   8  -5  -19.40   39.90
  -7  -8   5   30.10   38.50
  -7  -8   5   32.60   45.80
   6   8  -5    4.40   30.00
   6   8  -5    1.70   14.40
   6   8  -5   -4.20   21.30
  -6  -8   5    7.90   26.60
   5   8  -5    0.60   42.50
   5   8  -5   33.40   29.20
   5   8  -5   73.99   27.40
   5   8  -5   70.29   20.00
   5   8  -5   70.99   20.50
   5   8  -5   47.30   45.90
  -5  -8   5  106.29   43.80
  -5  -8   5   11.10   26.80
  -5  -8   5   13.80   18.40
   4   8  -5  166.28   38.80
   4   8  -5  206.48   39.30
   4   8  -5   58.39   53.69
   4   8  -5  199.98   32.20
   4   8  -5  225.18   67.29
   4   8  -5  177.48   62.49
  -4  -8   5  113.79   57.19
  -4  -8   5  152.08   53.09
  -4  -8   5  180.78   44.40
   3   8  -5    6.60   36.90
   3   8  -5   20.90   12.60
   3   8  -5   -8.20   13.40
   3   8  -5   -9.40   20.50
   3   8  -5  -18.20   23.30
   3   8  -5   10.10   12.60
   3   8  -5    3.50   39.80
  -3  -8   5   30.60   24.50
  -3  -8   5   14.20   21.50
  -3  -8   5   -3.90   11.70
  -3  -8   5   -1.40   15.50
   2   8  -5  -29.10   29.30
   2   8  -5  -28.40   35.90
   2   8  -5  -14.40   10.70
   2   8  -5   14.00   29.70
   2   8  -5  -18.20    7.00
   2   8  -5    1.70   12.50
   2   8  -5  -26.40   27.40
  -2  -8   5   -5.00   20.40
  -2  -8   5   -0.30   21.50
  -2  -8   5   -5.00   11.50
  -2  -8   5    0.90   18.80
  -2  -8   5  -16.60    9.30
   1   8  -5  -13.90   30.50
   1   8  -5  132.79   52.29
   1   8  -5   66.79   21.00
   1   8  -5   73.19   45.80
   1   8  -5   70.59   29.20
   1   8  -5    5.40   35.00
  -1  -8   5   67.99   21.40
  -1  -8   5   92.49   35.30
  -1  -8   5   64.89   20.10
  -1  -8   5   59.49   36.00
  -1  -8   5   94.99   35.60
   0   8  -5   27.60   30.70
   0   8  -5   57.59   33.50
   0   8  -5   37.40   12.70
   0   8  -5   -6.90   15.70
   0   8  -5   28.70   34.10
   0  -8   5   22.00   15.90
   0  -8   5   -1.60   11.10
   0  -8   5   12.50   11.80
   0  -8   5   29.00   23.00
  -1   8  -5  582.24   94.49
  -1   8  -5  425.96  121.09
  -1   8  -5  558.94   62.19
  -1   8  -5  633.54   49.90
   1  -8   5  590.34   58.99
   1  -8   5  569.14   50.89
   1  -8   5  628.64   81.69
   1  -8   5  612.84   71.89
  -2   8  -5   69.29   50.29
  -2   8  -5   56.69   42.20
  -2   8  -5    0.80   44.10
   2  -8   5  110.39   42.20
   2  -8   5   76.69   25.60
   2  -8   5   68.29   21.00
   2  -8   5   76.89   32.20
  -3   8  -5   14.70   52.19
  -3   8  -5   27.20   49.40
  -3   8  -5   35.60   31.90
   3  -8   5   41.20   37.40
   3  -8   5   13.20   23.40
   3  -8   5   23.10   17.20
   3  -8   5   50.79   25.90
  -4   8  -5    1.60   60.09
  -4   8  -5  -54.89   34.60
  -4   8  -5   25.10   26.60
   4  -8   5  -16.90   22.90
   4  -8   5  -10.90   12.60
   4  -8   5  -47.30   20.60
  -5   8  -5  -36.70   30.40
  -5   8  -5   72.69   39.00
  -5   8  -5  -21.70   89.29
   5  -8   5   45.60   19.20
   5  -8   5  113.79   41.00
   7   7  -5   75.39   26.40
   7   7  -5  112.99   42.20
   7   7  -5   95.99   21.10
   7   7  -5   50.19   55.19
  -7  -7   5   73.19   31.00
  -7  -7   5   63.09   36.50
  -7  -7   5   40.10   41.60
   6   7  -5  -42.50   38.80
   6   7  -5   10.60   11.70
   6   7  -5   17.10   21.90
  -6  -7   5   22.30   20.80
  -6  -7   5  -18.90   24.20
  -6  -7   5    3.80   23.40
   5   7  -5  186.78   15.90
   5   7  -5  159.98   41.50
   5   7  -5  132.19   29.20
   5   7  -5  120.49   51.89
  -5  -7   5  145.59   50.79
  -5  -7   5  144.79   45.70
  -5  -7   5  132.79   34.60
   4   7  -5  161.18   37.40
   4   7  -5  134.39   24.80
   4   7  -5   56.89   44.10
   4   7  -5  114.89   29.20
   4   7  -5  120.79   54.59
  -4  -7   5   72.59   37.60
  -4  -7   5   98.59   42.60
  -4  -7   5  114.89   34.20
   3   7  -5  413.46   39.80
   3   7  -5  480.05   47.40
   3   7  -5  206.88   70.19
   3   7  -5  311.17  109.49
   3   7  -5  383.46   45.10
  -3  -7   5  306.47   76.29
  -3  -7   5  353.06   49.30
  -3  -7   5  307.57   71.49
  -3  -7   5  411.36   40.80
   2   7  -5  225.68   75.79
   2   7  -5  328.87   37.80
   2   7  -5  300.07   39.60
   2   7  -5  267.07   52.39
  -2  -7   5  287.97   35.60
  -2  -7   5  327.07   47.30
  -2  -7   5  277.37   66.59
  -2  -7   5  345.07   79.79
  -2  -7   5  284.77   51.69
   1   7  -5  478.45   43.10
   1   7  -5  449.56   83.59
   1   7  -5  547.65   58.49
   1   7  -5  306.47   81.29
  -1  -7   5  440.16   45.50
  -1  -7   5  583.14   63.69
  -1  -7   5  455.35   75.69
  -1  -7   5  534.65   61.29
   0   7  -5  100.39   48.30
   0   7  -5   39.80   41.90
   0   7  -5   69.99   54.99
   0   7  -5  113.99   49.70
   0  -7   5  109.09   25.30
   0  -7   5  175.28   42.70
   0  -7   5   89.19   22.00
   0  -7   5  110.29   34.40
  -1   7  -5  268.77   32.10
  -1   7  -5  410.46   46.10
  -1   7  -5  218.08   78.89
  -1   7  -5  268.67   79.59
  -1   7  -5  260.37   65.19
   1  -7   5  307.67   40.70
   1  -7   5  264.97   57.39
   1  -7   5  328.07   63.49
   1  -7   5  244.08   31.90
  -2   7  -5  480.75  134.39
  -2   7  -5  866.51  112.49
  -2   7  -5  841.52   55.59
  -2   7  -5  508.95  133.99
  -2   7  -5  801.52   65.79
  -2   7  -5  561.54   88.99
   2  -7   5  885.71   68.99
   2  -7   5  761.72   54.59
   2  -7   5  972.30   87.29
   2  -7   5  867.01   89.19
  -3   7  -5  418.76   59.49
  -3   7  -5  152.18   81.79
  -3   7  -5  361.76  112.29
  -3   7  -5  293.17   77.89
   3  -7   5  306.17   69.49
   3  -7   5  334.77   65.89
   3  -7   5  284.87   35.30
   3  -7   5  314.77   42.40
  -4   7  -5   94.79   67.89
  -4   7  -5   35.70   49.80
  -4   7  -5   92.39   40.80
   4  -7   5    3.00   22.60
   4  -7   5   35.80   19.90
   4  -7   5   33.70   18.20
   4  -7   5   97.49   31.10
  -5   7  -5  -36.80   31.20
  -5   7  -5  -10.20   44.70
  -5   7  -5  -10.80   57.89
   5  -7   5   28.50   17.00
   5  -7   5   38.20   27.80
   5  -7   5  -43.20   23.80
  -6   7  -5   63.49   47.40
  -6   7  -5  -39.40   49.60
  -6   7  -5   38.10   35.90
   6  -7   5   48.60   16.50
   6  -7   5  -10.50   24.80
   7   6  -5   78.69   27.90
   7   6  -5   33.10   18.80
   7   6  -5   64.69   31.00
  -7  -6   5   54.99   30.80
  -7  -6   5  -14.80   17.70
  -7  -6   5   -0.80   19.90
   6   6  -5   56.19   17.10
   6   6  -5   22.20   45.00
   6   6  -5  114.69   51.89
  -6  -6   5   60.29   36.40
  -6  -6   5   55.59   32.00
  -6  -6   5  105.19   29.00
   5   6  -5  122.79   69.29
   5   6  -5  134.89   27.90
   5   6  -5  255.87   38.80
   5   6  -5  185.88   15.00
  -5  -6   5  147.29   49.70
  -5  -6   5  159.48   49.70
  -5  -6   5  130.99   34.10
   4   6  -5  213.98   15.70
   4   6  -5  194.38   44.10
   4   6  -5  140.69   48.90
   4   6  -5  233.78   26.80
   4   6  -5  248.38   22.60
  -4  -6   5  165.68   52.19
  -4  -6   5  161.88   54.49
  -4  -6   5  219.18   44.80
   3   6  -5   48.60   21.20
   3   6  -5   49.00   14.80
   3   6  -5   61.89   18.40
   3   6  -5   49.00   42.20
   3   6  -5   76.29   39.10
  -3  -6   5   56.79   25.50
  -3  -6   5   34.40   14.30
  -3  -6   5   26.50   22.70
  -3  -6   5   41.20   25.20
   2   6  -5  189.88   36.70
   2   6  -5  167.98   24.70
  -2  -6   5  164.98   28.20
  -2  -6   5  227.18   33.80
  -2  -6   5   81.79   36.90
  -2  -6   5  115.89   44.10
   1   6  -5   54.89   44.40
   1   6  -5   83.69   20.90
   1   6  -5   53.49   17.00
   1   6  -5   76.39   36.90
   1   6  -5   15.80   36.50
  -1  -6   5   87.09   22.50
  -1  -6   5   71.09   34.20
  -1  -6   5   45.30   22.80
  -1  -6   5   69.39   23.20
   0   6  -5   36.60   27.50
   0   6  -5   -5.90   21.40
   0   6  -5   18.10   39.60
   0   6  -5   12.50    8.00
   0   6  -5   14.00   15.70
   0  -6   5   27.70    8.20
   0  -6   5   16.40   10.20
   0  -6   5   25.90   12.10
   0  -6   5    9.60   14.10
   0  -6   5   14.90   17.50
  -1   6  -5  610.84   52.49
  -1   6  -5  543.85   87.29
  -1   6  -5  456.35  119.59
  -1   6  -5  720.53   55.19
  -1   6  -5  674.93   42.20
   1  -6   5  723.73   71.49
   1  -6   5  602.04   52.09
   1  -6   5  644.44   44.90
   1  -6   5  733.13   70.69
  -2   6  -5  174.68   26.00
  -2   6  -5  210.88   28.50
  -2   6  -5  112.79   50.99
  -2   6  -5  149.09   55.69
   2  -6   5  138.09   20.70
   2  -6   5  217.88   48.80
   2  -6   5  180.98   45.80
   2  -6   5  135.29   30.30
  -3   6  -5   94.39   20.80
  -3   6  -5  106.49   44.70
  -3   6  -5   82.59   51.59
  -3   6  -5   22.10   48.10
   3  -6   5   66.39   18.90
   3  -6   5   72.19   16.90
   3  -6   5   52.69   21.80
   3  -6   5   74.09   32.30
  -4   6  -5  102.59   51.09
  -4   6  -5  -17.00   33.20
  -4   6  -5   71.39   59.79
   4  -6   5   67.59   23.20
   4  -6   5   74.69   35.40
   4  -6   5   83.59   24.20
   4  -6   5   58.89   26.30
  -5   6  -5   20.90   40.60
  -5   6  -5  -20.10   33.70
  -5   6  -5  -15.90   28.50
   5  -6   5   15.10   20.60
   5  -6   5  -16.30   12.00
   5  -6   5   32.90   21.50
   5  -6   5   -9.10   23.30
  -6   6  -5  139.39   48.00
  -6   6  -5   51.09   39.50
  -6   6  -5   86.19   80.09
   6  -6   5  -28.30   30.00
   6  -6   5    5.80   28.90
   6  -6   5   33.70   18.80
   8   5  -5   38.30   32.70
   8   5  -5   44.80   53.09
  -8  -5   5   14.50   24.40
  -8  -5   5   24.80   30.30
   7   5  -5    8.40   42.40
   7   5  -5   73.29   33.90
   7   5  -5   25.30   15.20
  -7  -5   5   65.69   23.80
  -7  -5   5   48.00   30.90
  -7  -5   5    9.40   24.50
   6   5  -5    3.80   17.60
   6   5  -5   34.90   11.90
  -6  -5   5  -12.90   11.20
  -6  -5   5   35.40   26.20
  -6  -5   5   -5.10   30.10
   5   5  -5  426.36   61.69
   5   5  -5  366.16   35.10
   5   5  -5  318.57   97.09
  -5  -5   5  389.46   64.09
  -5  -5   5  469.85   48.00
  -5  -5   5  492.15   71.59
   4   5  -5    8.30    7.00
   4   5  -5    6.60    6.30
   4   5  -5   -9.60   10.50
   4   5  -5  -16.30   24.10
  -4  -5   5   -4.40   14.20
  -4  -5   5   -7.00    9.50
  -4  -5   5    5.30   14.40
   3   5  -5   28.30    5.90
   3   5  -5   12.00   29.60
   3   5  -5   17.90    7.60
   3   5  -5   24.40   18.00
   3   5  -5   24.00   14.60
   3   5  -5   -0.20   21.70
   3   5  -5   13.20    7.20
  -3  -5   5    9.50   16.30
  -3  -5   5   13.90   12.20
  -3  -5   5   25.40   10.00
  -3  -5   5   24.50   14.20
   2   5  -5  234.38   31.70
   2   5  -5  256.37   31.00
   2   5  -5  222.48   88.59
   2   5  -5  234.58   73.59
   2   5  -5  248.38   27.30
   2   5  -5  289.07   28.90
  -2  -5   5  275.67   38.70
  -2  -5   5  199.58   54.19
  -2  -5   5  226.68   25.10
  -2  -5   5  237.28   59.99
   1   5  -5  575.24   87.79
   1   5  -5  720.13   53.89
   1   5  -5  557.14   50.49
   1   5  -5  635.34   47.40
   1   5  -5  585.14   44.60
  -1  -5   5  672.43   61.89
  -1  -5   5  598.44   76.19
  -1  -5   5  705.93   56.19
  -1  -5   5  636.54   78.59
  -1  -5   5  644.54   45.00
   0   5  -5 1330.57   63.69
   0   5  -5 1316.87   70.59
   0   5  -5 1231.98   82.29
   0   5  -5 1100.19  123.89
   0  -5   5 1332.57   70.89
   0  -5   5 1304.67   91.99
   0  -5   5 1328.17   89.69
   0  -5   5 1292.47  133.19
  -1   5  -5   54.49   37.20
  -1   5  -5   86.69   14.60
  -1   5  -5   58.29   12.20
  -1   5  -5   49.99   31.30
  -1   5  -5   66.99   19.20
  -1   5  -5   37.70   31.80
   1  -5   5   55.69   11.70
   1  -5   5   35.60   13.40
   1  -5   5  100.69   24.70
   1  -5   5   45.20   27.80
   1  -5   5   31.50   19.50
  -2   5  -5   -0.80    4.30
  -2   5  -5  -24.50   17.60
  -2   5  -5   35.80   21.00
  -2   5  -5   -9.50   14.60
  -2   5  -5   -1.70    5.80
  -2   5  -5   29.70   26.70
   2  -5   5   -0.70    7.00
   2  -5   5    9.20    5.30
   2  -5   5   -2.90    8.00
  -3   5  -5   31.70   40.50
  -3   5  -5   73.99   14.80
  -3   5  -5   -3.10   32.40
  -3   5  -5   63.79   39.70
   3  -5   5   55.49   18.40
   3  -5   5   76.59   28.90
   3  -5   5   47.20   21.20
  -4   5  -5   -3.80   37.40
  -4   5  -5   14.70   29.10
  -4   5  -5   -0.40    5.60
  -4   5  -5  -17.20   17.00
   4  -5   5   -5.00   12.30
   4  -5   5    1.40   14.50
   4  -5   5    5.10    9.70
   4  -5   5   32.50   20.80
  -5   5  -5   73.69   44.50
  -5   5  -5   79.89   67.19
  -5   5  -5   72.39   60.39
   5  -5   5   88.69   23.60
   5  -5   5  101.19   24.60
   5  -5   5   58.49   32.60
   5  -5   5   96.29   36.50
  -6   5  -5  -15.30   32.70
  -6   5  -5  -56.29   30.30
  -6   5  -5   -5.10   34.90
   6  -5   5  -19.30   21.70
   6  -5   5  -14.10   18.30
   6  -5   5   12.20   11.70
  -7   5  -5   71.29   46.40
  -7   5  -5   -4.60   32.20
  -7   5  -5   28.10   51.79
   7  -5   5  -19.20   26.30
   7  -5   5   22.10   35.20
   7  -5   5   15.00   17.60
   8   4  -5  -16.40   57.39
   8   4  -5   30.90   41.00
  -8  -4   5   83.99   31.70
  -8  -4   5   44.50   31.10
   7   4  -5   78.49   61.49
   7   4  -5   81.09   23.10
   7   4  -5   57.79   32.40
  -7  -4   5  110.19   39.00
  -7  -4   5   43.70   22.20
  -7  -4   5   91.89   39.80
   6   4  -5   16.60   45.10
   6   4  -5   96.09   41.30
   6   4  -5  104.69   24.10
  -6  -4   5   92.79   35.00
  -6  -4   5   94.19   35.70
  -6  -4   5  102.19   27.10
   5   4  -5  583.74   69.79
   5   4  -5  527.55   40.00
   5   4  -5  601.84  106.99
  -5  -4   5  446.86   68.99
  -5  -4   5  536.15   51.29
  -5  -4   5  531.55   69.19
   4   4  -5  500.95   93.19
   4   4  -5  540.85   63.99
   4   4  -5  535.55   37.60
  -4  -4   5  525.85   50.09
  -4  -4   5  544.55   73.89
  -4  -4   5  509.45   66.89
   3   4  -5  455.05  104.79
   3   4  -5  453.25   20.50
   3   4  -5  489.45   28.70
   3   4  -5  420.86   50.39
   3   4  -5  409.56   40.90
   3   4  -5  439.26   31.70
  -3  -4   5  468.85   47.60
  -3  -4   5  427.96   59.69
  -3  -4   5  480.95   28.60
  -3  -4   5  469.15   64.79
   2   4  -5  608.04   45.70
   2   4  -5  702.83   56.59
   2   4  -5  614.64   96.49
   2   4  -5  434.76  117.19
   2   4  -5  760.22   42.40
  -2  -4   5  639.14   74.49
  -2  -4   5  735.03   40.50
  -2  -4   5  610.34   74.49
  -2  -4   5  631.34   56.59
   1   4  -5  578.84   30.20
   1   4  -5  613.34   50.09
   1   4  -5  563.24   39.50
   1   4  -5  516.55   84.49
   1   4  -5  529.95   42.60
   1   4  -5  619.24   44.10
  -1  -4   5  568.04   69.39
  -1  -4   5  573.64   40.50
  -1  -4   5  592.04   54.99
  -1  -4   5  539.05   68.99
   0   4  -5 1086.19   61.89
   0   4  -5  800.62   96.29
   0   4  -5  964.10   61.69
   0   4  -5 1023.40   54.79
   0  -4   5 1119.69   66.49
   0  -4   5 1086.29   78.09
   0  -4   5 1110.39   57.39
   0  -4   5  984.30   93.79
  -1   4  -5  974.50   52.69
  -1   4  -5  993.40   59.99
  -1   4  -5  923.31   53.39
  -1   4  -5  971.60   42.90
   1  -4   5 1024.10   57.49
   1  -4   5 1044.50   69.29
   1  -4   5  949.51   75.19
   1  -4   5 1014.90   95.49
   1  -4   5 1113.89   90.99
  -2   4  -5   82.69   47.60
  -2   4  -5  214.08   39.20
  -2   4  -5  190.48   22.50
  -2   4  -5  136.19   59.69
   2  -4   5  209.28   42.30
   2  -4   5  242.28   38.00
   2  -4   5  204.68   25.30
   2  -4   5  254.27   36.60
  -3   4  -5  -26.10   27.40
  -3   4  -5   10.60   19.20
  -3   4  -5   12.60   21.30
  -3   4  -5    6.90   17.30
  -3   4  -5   16.90    5.90
   3  -4   5    3.30   11.30
   3  -4   5    6.70    8.00
   3  -4   5   20.50   10.50
   3  -4   5   -5.20    7.80
  -4   4  -5   55.79   11.00
  -4   4  -5   -8.30   32.90
  -4   4  -5   77.09   35.40
  -4   4  -5   54.79   43.50
   4  -4   5   59.89   23.30
   4  -4   5   75.39   27.00
   4  -4   5   26.40   12.70
  -5   4  -5  101.89   54.99
  -5   4  -5  287.67  100.29
  -5   4  -5  262.27   23.00
  -5   4  -5  200.28   63.49
   5  -4   5  298.77   46.30
   5  -4   5  301.77   46.00
   5  -4   5  157.28   34.80
   5  -4   5  241.58   32.80
  -6   4  -5   46.30   61.49
  -6   4  -5  189.28   71.89
  -6   4  -5  167.38   68.59
  -6   4  -5  161.38   21.90
   6  -4   5  173.28   32.90
   6  -4   5  121.69   38.00
   6  -4   5  154.88   25.60
   6  -4   5   74.59   35.00
   6  -4   5  150.48   41.90
  -7   4  -5  202.08   79.09
  -7   4  -5  270.47   64.39
  -7   4  -5   68.89   54.99
   7  -4   5  126.09   45.20
   7  -4   5  157.98   46.00
   7  -4   5  157.08   32.80
  -8   4  -5    7.90   42.30
  -8   4  -5  -44.80   35.30
  -8   4  -5   -7.00   39.10
   8  -4   5   48.70   17.30
   8  -4   5  -52.59   37.70
   8  -4   5   -3.70   22.70
   8   3  -5  -15.40   54.19
   8   3  -5   17.10   20.10
   8   3  -5   27.40   35.70
  -8  -3   5    9.60   21.70
  -8  -3   5   35.00   33.00
   7   3  -5   32.80   17.40
   7   3  -5  -41.20   20.30
   7   3  -5   64.59   46.50
  -7  -3   5  -14.60   22.20
  -7  -3   5   14.00   24.50
  -7  -3   5   44.70   18.40
   6   3  -5   42.50   14.80
   6   3  -5    4.20   27.20
   6   3  -5   78.69   37.10
  -6  -3   5   30.80   18.90
  -6  -3   5   42.40   23.40
  -6  -3   5   50.09   22.60
   5   3  -5  115.49   49.50
   5   3  -5  179.48   24.00
   5   3  -5  136.69   47.20
  -5  -3   5  170.08   48.50
  -5  -3   5  186.68   34.60
  -5  -3   5  206.68   52.59
   4   3  -5  218.58   23.00
   4   3  -5  288.47   45.80
   4   3  -5  209.28   75.19
  -4  -3   5  222.28   48.10
  -4  -3   5  215.28   53.49
  -4  -3   5  187.38   28.30
   3   3  -5    1.30   10.50
   3   3  -5   21.30   15.40
   3   3  -5   -6.60   19.80
  -3  -3   5   16.60   16.40
  -3  -3   5    9.90    8.70
  -3  -3   5    8.80    7.10
  -3  -3   5   18.70   21.80
   2   3  -5    6.50    7.90
   2   3  -5   23.60    7.30
   2   3  -5   15.40    3.60
   2   3  -5   -9.50   15.20
   2   3  -5   -0.30   15.40
   2   3  -5   16.20    4.10
  -2  -3   5   19.00    4.90
  -2  -3   5    2.30   12.60
  -2  -3   5    7.10   11.40
  -2  -3   5  -10.70    6.30
   1   3  -5   -5.70   12.40
   1   3  -5    4.40    2.40
   1   3  -5   13.20    3.60
   1   3  -5    2.20   19.30
   1   3  -5   16.60    5.60
   1   3  -5    6.90    5.90
   1   3  -5    3.60    5.60
  -1  -3   5   -2.00    6.20
  -1  -3   5   10.80    4.60
  -1  -3   5    5.20    5.00
  -1  -3   5    7.60    8.20
  -1  -3   5   -8.10    5.30
   0   3  -5  653.93   91.59
   0   3  -5  851.91   42.10
   0   3  -5  888.11   39.20
   0   3  -5  894.61   51.89
   0   3  -5  920.31   50.59
   0  -3   5  984.70   52.39
   0  -3   5  836.02   81.49
   0  -3   5  955.00   67.69
   0  -3   5 1050.99   64.49
  -1   3  -5  562.74   29.10
  -1   3  -5  564.04   32.60
  -1   3  -5  437.86   68.89
  -1   3  -5  531.35   32.70
   1  -3   5  570.04   71.19
   1  -3   5  527.65   46.90
   1  -3   5  556.74   52.39
   1  -3   5  543.55   36.00
   1  -3   5  491.65   62.49
  -2   3  -5    5.70   15.30
  -2   3  -5   -2.90   23.00
  -2   3  -5   -4.50    5.00
  -2   3  -5   18.80   19.50
   2  -3   5   14.40   12.00
   2  -3   5    1.40    3.80
   2  -3   5    2.20    7.10
   2  -3   5    6.60    8.90
  -3   3  -5   17.00   20.10
  -3   3  -5   35.50   26.80
   3  -3   5    6.20    5.70
   3  -3   5    2.60   15.50
   3  -3   5    3.40    9.30
  -4   3  -5   95.49   35.50
  -4   3  -5   39.50   28.40
  -4   3  -5   79.09   46.40
   4  -3   5   51.49   22.40
   4  -3   5   42.20   14.00
   4  -3   5   85.69   41.70
   4  -3   5   37.00   23.20
  -5   3  -5  552.24  128.69
  -5   3  -5  648.54   85.39
  -5   3  -5  592.64   35.60
  -5   3  -5  733.53  158.08
  -5   3  -5  512.75   60.69
   5  -3   5  501.95   44.40
   5  -3   5  448.56   53.29
   5  -3   5  567.54   60.49
   5  -3   5  474.15   34.70
  -6   3  -5  512.45   38.80
  -6   3  -5  436.86  118.39
  -6   3  -5  619.54   89.29
  -6   3  -5  622.54  115.79
   6  -3   5  465.05   59.49
   6  -3   5  620.14   51.39
   6  -3   5  528.95   60.19
   6  -3   5  436.86   57.09
   6  -3   5  474.25   40.00
  -7   3  -5  450.15  113.79
   7  -3   5  264.97   52.99
   7  -3   5  348.07   41.90
  -8   3  -5  184.48   77.49
  -8   3  -5  104.89   73.09
  -8   3  -5   55.69   44.60
   8  -3   5   95.29   22.00
   8  -3   5   21.90   40.80
   8  -3   5  125.89   43.40
   8   2  -5  -12.30   55.49
   8   2  -5  116.29   39.60
   8   2  -5   74.59   26.30
  -8  -2   5   42.20   29.10
  -8  -2   5   98.69   29.20
   7   2  -5   50.09   22.60
   7   2  -5   48.00   45.10
  -7  -2   5  105.79   25.00
  -7  -2   5   65.49   37.40
  -7  -2   5   40.50   19.60
   6   2  -5   90.89   58.39
   6   2  -5  102.09   23.30
   6   2  -5  134.69   49.80
  -6  -2   5  103.49   39.30
  -6  -2   5   71.59   29.40
  -6  -2   5  113.29   24.50
   5   2  -5   66.79   17.20
   5   2  -5   62.09   47.30
   5   2  -5   31.80   28.90
  -5  -2   5  104.79   24.90
  -5  -2   5   60.69   29.80
  -5  -2   5   75.79   24.70
   4   2  -5  116.99   16.50
   4   2  -5  103.69   40.40
   4   2  -5   40.70   40.60
  -4  -2   5  124.99   35.60
  -4  -2   5  108.99   39.70
  -4  -2   5   82.19   21.70
   3   2  -5  309.67   86.39
   3   2  -5  385.76   26.20
   3   2  -5  415.26   54.99
  -3  -2   5  430.26   51.49
  -3  -2   5  372.66   53.09
  -3  -2   5  413.86   37.90
   2   2  -5  880.01   37.70
   2   2  -5  827.22  109.09
   2   2  -5  849.91   46.50
   2   2  -5  866.11   71.59
   2   2  -5  950.60   31.60
  -2  -2   5  865.61   80.29
  -2  -2   5  823.82   56.39
  -2  -2   5  954.80   78.59
  -2  -2   5  937.71   35.30
  -2  -2   5  902.51   45.40
   1   2  -5  639.64   30.70
   1   2  -5  628.74   26.10
   1   2  -5  505.05   84.19
   1   2  -5  669.53   53.29
  -1  -2   5  606.34   47.70
  -1  -2   5  628.64   44.60
  -1  -2   5  555.74   59.49
  -1  -2   5  688.93   31.60
  -1  -2   5  589.64   64.79
   0   2  -5  482.55   25.20
   0   2  -5  434.86   28.40
   0   2  -5  456.45   39.60
   0  -2   5  488.05   28.10
   0  -2   5  470.55   31.30
   0  -2   5  429.46   53.69
   0  -2   5  512.95   25.70
   0  -2   5  499.15   43.80
   0  -2   5  602.04   76.79
  -1   2  -5  107.79   11.10
  -1   2  -5   92.39   11.10
  -1   2  -5  135.99   13.80
  -1   2  -5   64.19   32.70
  -1   2  -5   96.29   11.00
   1  -2   5  111.29   37.00
   1  -2   5  108.49   14.30
   1  -2   5  117.59   27.20
   1  -2   5   61.69   25.90
   1  -2   5  137.39   15.90
  -2   2  -5   30.00    7.90
  -2   2  -5   63.19   24.10
  -2   2  -5   29.90   26.10
  -2   2  -5   -3.30   17.30
   2  -2   5   22.10    7.50
   2  -2   5    5.00   32.40
   2  -2   5   17.80   15.20
   2  -2   5    8.20    8.30
   2  -2   5   38.90    9.30
  -3   2  -5   -7.40   18.40
  -3   2  -5   -2.10   11.80
  -3   2  -5    8.70    6.40
  -3   2  -5   -3.10   19.00
   3  -2   5   31.60   17.80
   3  -2   5    7.90    5.40
   3  -2   5    2.20    8.10
  -4   2  -5   53.99   19.00
  -4   2  -5  -23.60   26.60
  -4   2  -5   20.10   28.60
   4  -2   5   39.40   18.90
   4  -2   5    6.60   10.90
   4  -2   5    9.50    7.10
   4  -2   5    9.30   10.30
  -5   2  -5   14.90   26.70
  -5   2  -5   26.00    7.90
  -5   2  -5   59.09   28.70
  -5   2  -5   -4.20   17.90
  -5   2  -5    1.90   15.00
   5  -2   5    3.60    8.10
   5  -2   5   13.20    7.10
   5  -2   5    1.00    9.70
   5  -2   5   15.40   11.30
   5  -2   5   38.70   26.70
  -6   2  -5  240.08   34.60
  -6   2  -5  108.49   62.79
  -6   2  -5  181.58   25.70
  -6   2  -5  170.58   55.29
  -6   2  -5  190.58   71.39
   6  -2   5  133.29   33.80
   6  -2   5  176.18   65.89
   6  -2   5  153.18   50.79
   6  -2   5  220.98   45.00
   6  -2   5  157.68   30.40
   6  -2   5  154.28   26.90
  -7   2  -5   42.80   41.40
  -7   2  -5   63.99   47.70
  -7   2  -5   84.89   51.29
  -7   2  -5   80.89   18.40
   7  -2   5   57.29   15.50
   7  -2   5   29.70   25.80
  -8   2  -5   59.49   49.90
  -8   2  -5  -16.50   39.80
  -8   2  -5  -50.19   31.50
  -8   2  -5   24.20   16.00
   8  -2   5   16.20   25.30
   8  -2   5    0.50   12.70
   8  -2   5   18.90   31.10
  -9   2  -5  -19.30   44.80
  -9   2  -5  -51.89   33.50
  -9   2  -5  -22.90   55.59
   9  -2   5  -23.50   42.40
   9  -2   5   25.20   16.30
   9  -2   5   22.70   19.10
   8   1  -5    3.90   39.30
   8   1  -5   82.09   73.99
   8   1  -5    5.80   21.90
   7   1  -5   45.90   53.79
   7   1  -5   89.69   27.30
   7   1  -5  152.38  107.69
  -7  -1   5   95.59   36.40
  -7  -1   5   82.29   36.40
   6   1  -5  176.38   64.69
   6   1  -5   85.99   56.59
   6   1  -5  181.18   34.80
  -6  -1   5  186.08   51.19
  -6  -1   5  223.18   28.60
  -6  -1   5  196.58   49.40
   5   1  -5   74.39   17.50
   5   1  -5   50.29   46.30
   5   1  -5   78.29   37.30
  -5  -1   5   98.19   23.80
  -5  -1   5   60.69   29.20
  -5  -1   5  102.99   31.20
   4   1  -5   10.60   35.50
   4   1  -5   63.49   35.50
  -4  -1   5   41.20   20.20
  -4  -1   5   36.10   17.90
  -4  -1   5   28.40   14.40
   3   1  -5  775.32   80.19
   3   1  -5  627.14  104.59
   3   1  -5  806.52   43.90
  -3  -1   5  771.12   75.39
  -3  -1   5  867.31   52.59
  -3  -1   5  928.21   74.09
  -3  -1   5  858.01   47.20
   2   1  -5 1052.79   86.39
   2   1  -5 1034.00   43.70
   2   1  -5  765.92  108.89
  -2  -1   5 1041.00   84.29
  -2  -1   5 1066.89   77.19
  -2  -1   5 1052.99   58.69
  -2  -1   5 1058.69   46.60
   1   1  -5  384.46   43.90
   1   1  -5  217.68   63.09
   1   1  -5  372.86   35.30
   1   1  -5  385.46   19.20
  -1  -1   5  342.77   42.60
  -1  -1   5  413.76   19.60
  -1  -1   5  399.26   49.90
  -1  -1   5  385.06   36.20
  -1  -1   5  416.16   34.50
   0   1  -5   80.89   24.10
   0   1  -5  111.19   18.30
   0   1  -5   93.89    9.00
   0   1  -5   70.19   15.10
   0   1  -5   96.79   24.60
   0  -1   5   46.40   15.00
   0  -1   5   70.09    9.00
   0  -1   5   68.69   34.40
   0  -1   5   94.39   32.90
   0  -1   5   96.79   13.50
   0  -1   5   47.20   19.30
   0  -1   5   93.09   25.70
  -1   1  -5   98.59   29.50
  -1   1  -5   78.19   11.80
  -1   1  -5   76.79    9.00
  -1   1  -5   75.09    7.60
  -1   1  -5   49.99   28.30
  -1   1  -5   50.09   23.30
  -1   1  -5   79.49   24.20
  -1   1  -5   92.99   18.60
   1  -1   5   47.20   25.10
   1  -1   5   81.09   13.80
   1  -1   5   69.79   26.10
   1  -1   5   84.99   20.90
   1  -1   5   72.59   30.90
   1  -1   5   64.79    9.30
   1  -1   5   77.49    9.70
  -2   1  -5  112.89   44.20
  -2   1  -5  159.68   14.40
  -2   1  -5   95.69   30.30
  -2   1  -5  190.18   40.90
  -2   1  -5  112.69   49.40
   2  -1   5  116.59   40.40
   2  -1   5  147.39   37.80
   2  -1   5  141.39   15.10
   2  -1   5  160.18   16.40
   2  -1   5  155.58   24.10
  -3   1  -5 3226.38  194.28
  -3   1  -5 3308.37  115.09
   3  -1   5 3259.27  113.29
   3  -1   5 3338.37  120.99
   3  -1   5 3203.58  138.99
  -4   1  -5  566.74  107.09
  -4   1  -5  553.04   70.39
  -4   1  -5  406.46   93.69
   4  -1   5  471.45   67.79
   4  -1   5  523.05   33.50
   4  -1   5  544.35   36.50
   4  -1   5  550.64   50.59
   4  -1   5  530.95   37.60
   4  -1   5  557.14   43.80
  -5   1  -5 1019.40  104.99
  -5   1  -5  831.92  113.79
  -5   1  -5  794.72  129.09
   5  -1   5  688.63   61.09
   5  -1   5  822.02   64.29
   5  -1   5  782.32   58.29
   5  -1   5  764.42   47.80
   5  -1   5  709.13   47.80
   5  -1   5  552.34   83.09
  -6   1  -5  159.48   69.19
  -6   1  -5  263.07   66.99
  -6   1  -5  224.88   48.50
  -6   1  -5  209.98   77.79
  -6   1  -5  188.38   27.90
   6  -1   5  195.68   28.20
   6  -1   5  221.58   35.30
   6  -1   5  156.58   53.09
   6  -1   5  216.88   33.90
   6  -1   5  215.68   26.20
  -7   1  -5   13.70   39.40
  -7   1  -5   93.29   31.60
  -7   1  -5  115.99   54.19
  -7   1  -5   75.39   30.90
   7  -1   5   88.09   26.30
   7  -1   5  129.59   37.60
   7  -1   5   99.09   22.40
   7  -1   5   56.49   20.30
  -8   1  -5  160.48   36.50
  -8   1  -5  269.37   88.29
  -8   1  -5  202.28   84.99
  -8   1  -5  165.98   60.09
   8  -1   5  144.59   28.50
   8  -1   5  110.69   37.00
   8  -1   5  146.79   52.09
  -9   1  -5  124.99   58.59
  -9   1  -5   87.09   46.30
  -9   1  -5  133.39   34.10
   9  -1   5  105.29   25.90
   9  -1   5   38.10   25.90
   9  -1   5   90.69   55.39
   9  -1   5   29.30   40.30
   7   0  -5  -59.99   42.80
   7   0  -5    0.20   17.20
   7   0  -5   28.70   36.80
  -7   0   5   -5.10   19.40
  -7   0   5   29.60   15.70
  -7   0   5    3.30   24.70
   6   0  -5  -55.09   33.60
   6   0  -5    3.70   27.60
   6   0  -5   13.80   12.00
  -6   0   5   32.60   21.80
  -6   0   5   18.20   11.00
  -6   0   5    1.40   17.20
   5   0  -5   77.19   33.70
   5   0  -5   19.20   13.20
   5   0  -5   28.50   41.90
  -5   0   5   59.49   30.20
  -5   0   5   24.40   17.90
  -5   0   5   49.40   16.30
   4   0  -5   -2.50   19.50
   4   0  -5   17.90   36.90
   4   0  -5   48.80   14.30
  -4   0   5    3.00   13.60
  -4   0   5   36.50   14.60
  -4   0   5    7.50   15.20
   3   0  -5  201.28   53.59
   3   0  -5  207.18   24.30
   3   0  -5  205.48   70.99
  -3   0   5  230.88   24.70
  -3   0   5  200.68   45.60
  -3   0   5  226.48   40.00
  -3   0   5  239.68   21.70
   2   0  -5  344.67   83.39
   2   0  -5  421.86   29.40
   2   0  -5  446.76   22.50
   2   0  -5  436.66   57.19
  -2   0   5  483.55   52.49
  -2   0   5  464.75   27.30
  -2   0   5  461.95   21.80
  -2   0   5  450.95   17.30
  -2   0   5  417.06   44.60
  -2   0   5  441.86   34.20
   1   0  -5 2131.69  128.19
   1   0  -5 2101.69   70.19
   1   0  -5 2036.00  106.99
   1   0  -5 1967.90   71.39
  -1   0   5 2223.08  112.79
  -1   0   5 2115.79   65.39
  -1   0   5 1936.61  114.49
  -1   0   5 2074.29  106.89
  -1   0   5 2023.20   85.89
  -1   0   5 2121.49   63.59
   0   0  -5  298.57   75.79
   0   0  -5  508.55   25.20
   0   0  -5  455.15   40.00
   0   0  -5  505.85   49.10
   0   0  -5  475.95   33.40
   0   0  -5  516.65   49.70
   0   0   5  454.55   72.49
   0   0   5  505.35   45.60
   0   0   5  457.85   45.20
   0   0   5  483.65   52.59
   0   0   5  472.15   38.00
   0   0   5  481.05   23.00
  -1   0  -5    6.40    6.50
  -1   0  -5   24.40   17.20
  -1   0  -5    7.00    6.30
  -1   0  -5    7.60    7.20
  -1   0  -5    6.10   13.80
  -1   0  -5    5.20    3.50
  -1   0  -5   13.60    5.90
   1   0   5    4.40    7.70
   1   0   5    1.60    6.90
   1   0   5   15.10    4.90
   1   0   5   -7.70   15.40
   1   0   5    4.60    4.30
   1   0   5   -3.10    2.90
   1   0   5    9.80    2.70
   1   0   5   24.50   16.00
  -2   0  -5  994.60   45.00
  -2   0  -5  984.90   49.00
  -2   0  -5  983.90   69.59
  -2   0  -5  778.02   97.69
  -2   0  -5 1015.90   52.99
  -2   0  -5 1082.09   45.00
   2   0   5  947.81   71.79
   2   0   5 1071.89   43.30
   2   0   5  992.00   56.99
   2   0   5 1007.40   52.79
   2   0   5  975.50   58.89
  -3   0  -5  129.29   13.70
  -3   0  -5  165.88   36.20
  -3   0  -5  171.58   52.39
  -3   0  -5  108.69   37.70
  -3   0  -5  145.79   17.30
  -3   0  -5   86.49   46.10
  -3   0  -5  137.19   18.20
   3   0   5  130.99   12.60
   3   0   5   71.89   29.40
   3   0   5  128.49   15.90
   3   0   5  122.39   20.90
   3   0   5   87.49   34.60
   3   0   5  121.29   14.00
  -4   0  -5 4424.96  267.77
  -4   0  -5 3117.89  215.88
  -4   0  -5 3986.30  141.59
  -4   0  -5 3521.45  261.57
   4   0   5 3861.11  152.08
   4   0   5 3822.02  126.09
   4   0   5 3856.01  138.39
   4   0   5 3903.01  127.79
   4   0   5 3744.13  137.69
  -5   0  -5 1653.83  123.69
  -5   0  -5 1526.75  234.08
  -5   0  -5 1331.77  138.29
   5   0   5 1588.94   82.49
   5   0   5 1492.95   80.89
   5   0   5 1594.34   87.79
   5   0   5 1552.44   78.69
   5   0   5 1568.94   70.49
  -6   0  -5  519.35  163.58
  -6   0  -5  389.16   55.49
  -6   0  -5  334.67   68.79
  -6   0  -5  356.76   95.19
   6   0   5  343.27   30.00
   6   0   5  322.27   38.40
   6   0   5  332.47   37.30
   6   0   5  275.57   35.40
  -7   0  -5  153.78   60.39
  -7   0  -5  156.28   45.90
  -7   0  -5  243.18   80.89
  -7   0  -5  114.79   37.20
   7   0   5   85.39   26.00
   7   0   5  129.29   31.20
   7   0   5  114.49   36.00
   7   0   5   95.19   20.50
  -8   0  -5   -7.60   25.50
  -8   0  -5    4.00   18.00
  -8   0  -5   33.70   30.30
   8   0   5   -9.90   21.40
   8   0   5   21.80    9.10
   8   0   5   54.19   16.70
  -9   0  -5   60.59   41.60
  -9   0  -5   26.20   18.60
  -9   0  -5   55.09   52.79
  -9   0  -5   14.90   52.49
   9   0   5   47.50   16.90
   9   0   5   18.30   23.00
   9   0   5  -28.70   27.80
   7  -1  -5  -57.19   31.50
   7  -1  -5   24.80   30.00
   7  -1  -5  -47.70   61.39
  -7   1   5   20.60   27.20
  -7   1   5   68.99   23.60
  -7   1   5   12.90   25.80
   6  -1  -5   87.89   28.70
   6  -1  -5   88.89   34.20
   6  -1  -5  116.29   56.69
  -6   1   5   98.69   33.10
  -6   1   5   98.79   25.00
  -6   1   5  105.09   35.80
   5  -1  -5  338.77   44.10
   5  -1  -5  373.76   88.49
  -5   1   5  532.15   66.59
  -5   1   5  503.25   45.10
  -5   1   5  465.85   63.29
   4  -1  -5  311.87   78.39
   4  -1  -5  202.98   29.40
   4  -1  -5  133.89   63.39
  -4   1   5  256.57   59.69
  -4   1   5  221.28   29.20
  -4   1   5  251.37   43.70
   3  -1  -5   75.09   38.20
   3  -1  -5   71.89   20.00
   3  -1  -5   40.10   32.20
  -3   1   5  108.49   30.40
  -3   1   5   64.09   24.10
  -3   1   5   88.19    9.10
  -3   1   5   73.49   19.20
  -3   1   5   96.69    9.70
   2  -1  -5   94.89   34.10
   2  -1  -5   84.89   42.30
   2  -1  -5   79.79   19.00
  -2   1   5   76.99   22.50
  -2   1   5  109.49   29.40
  -2   1   5  136.89   19.80
  -2   1   5  113.79   12.10
  -2   1   5  103.89    9.80
  -2   1   5  111.69   25.80
   1  -1  -5  118.59   46.40
   1  -1  -5  184.58   15.50
   1  -1  -5  165.08   40.70
   1  -1  -5  145.89   18.00
   1  -1  -5  189.28   25.50
   1  -1  -5   83.19   45.10
  -1   1   5  192.48   16.50
  -1   1   5  163.88   25.50
  -1   1   5  176.38   30.20
  -1   1   5  156.58   20.40
  -1   1   5  163.88   12.10
   0  -1  -5  100.69   40.70
   0  -1  -5   94.19   19.60
   0  -1  -5  136.69   29.30
   0  -1  -5  122.99   12.90
   0  -1  -5  119.59   19.20
   0  -1  -5   51.79   23.20
   0  -1  -5   97.59   28.00
   0  -1  -5   89.59   11.10
   0   1   5   95.79   18.90
   0   1   5   71.89   18.70
   0   1   5  111.59   28.60
   0   1   5   98.29   15.60
   0   1   5  101.39   11.20
   0   1   5  133.09   29.90
  -1  -1  -5  793.32   53.09
  -1  -1  -5  875.01   52.59
  -1  -1  -5  894.01   48.60
  -1  -1  -5  895.11   82.89
   1   1   5  847.22   64.29
   1   1   5  827.12   37.10
   1   1   5  818.52   46.40
   1   1   5  859.31   59.59
   1   1   5  866.21   42.70
   1   1   5  853.21   37.00
  -2  -1  -5  172.48   18.30
  -2  -1  -5  171.18   21.90
  -2  -1  -5  180.68   18.40
  -2  -1  -5  145.69   49.20
  -2  -1  -5  143.59   22.60
  -2  -1  -5  176.08   15.80
   2   1   5  159.88   15.40
   2   1   5   87.59   35.90
   2   1   5  158.48   14.40
   2   1   5  179.78   20.70
   2   1   5  144.29   24.10
   2   1   5  200.28   25.20
  -3  -1  -5  111.09   14.50
  -3  -1  -5   87.99   29.60
  -3  -1  -5  109.19   21.80
  -3  -1  -5  204.18   59.69
  -3  -1  -5   70.49   31.00
  -3  -1  -5  108.09   25.90
  -3  -1  -5  127.99   26.20
   3   1   5   19.00   49.80
   3   1   5   94.69   13.40
   3   1   5  105.19   16.20
   3   1   5   92.29   36.90
   3   1   5  104.59   12.10
   3   1   5  142.39   21.20
  -4  -1  -5  383.56   37.70
  -4  -1  -5  398.76   94.89
  -4  -1  -5  306.17   40.50
  -4  -1  -5  243.48   59.39
  -4  -1  -5  502.55   69.19
  -4  -1  -5  353.26   27.50
   4   1   5  332.67   24.50
   4   1   5  327.47   32.60
   4   1   5  320.97   28.80
   4   1   5  195.58   56.19
   4   1   5  296.67   32.60
  -5  -1  -5   33.90   21.50
  -5  -1  -5   15.10    8.10
  -5  -1  -5   -2.30   17.80
  -5  -1  -5    4.30   25.80
   5   1   5   14.30    7.20
   5   1   5    3.50    8.60
   5   1   5   21.10   11.00
   5   1   5    3.80    8.50
   5   1   5   10.00    6.40
  -6  -1  -5   17.10   24.00
  -6  -1  -5   13.40    7.80
  -6  -1  -5   -1.30   22.90
  -6  -1  -5  -16.10   14.20
   6   1   5    0.60    5.90
   6   1   5   -0.40   10.80
   6   1   5   -9.60    8.80
   6   1   5   -2.10    4.90
  -7  -1  -5   66.99   41.20
  -7  -1  -5   58.59   22.30
  -7  -1  -5   59.59   39.70
  -7  -1  -5   40.40   25.60
   7   1   5   44.40   12.10
   7   1   5   67.69   18.80
   7   1   5   11.90   15.30
  -8  -1  -5   13.10   27.20
  -8  -1  -5   -5.10   17.40
  -8  -1  -5   -7.30   28.40
  -8  -1  -5  -22.50   24.40
   8   1   5    4.90    7.00
   8   1   5  -17.40   19.60
   8   1   5  -16.50   12.30
  -9  -1  -5  -59.09   32.30
  -9  -1  -5    2.70   19.80
  -9  -1  -5   31.30   41.90
  -9  -1  -5   14.40   25.70
   9   1   5   -9.40   13.00
   9   1   5   33.70   11.40
 -10  -1  -5   21.50   27.20
  10   1   5  -50.19   32.80
  10   1   5  -15.40   11.20
  10   1   5  -16.30   13.00
   7  -2  -5    3.00   21.20
   7  -2  -5  -81.89   42.70
   7  -2  -5  -72.49   59.99
  -7   2   5  -13.30   17.40
  -7   2   5   26.00   17.70
  -7   2   5  -39.40   23.40
   6  -2  -5   42.80   36.30
   6  -2  -5  -59.79   39.80
   6  -2  -5   46.80   22.40
  -6   2   5   14.30   19.20
  -6   2   5    4.30   21.30
  -6   2   5   20.50   18.00
   5  -2  -5   10.60   14.80
   5  -2  -5   48.90   54.29
   5  -2  -5   30.50   27.90
  -5   2   5   18.80    8.60
  -5   2   5   41.50   24.50
  -5   2   5   37.10    7.70
  -5   2   5   42.50   20.00
  -5   2   5   30.60   22.50
   4  -2  -5  540.05   86.79
   4  -2  -5  357.96  117.29
   4  -2  -5  507.35   70.79
  -4   2   5  570.84   33.90
  -4   2   5  572.04   63.29
  -4   2   5  581.64   68.19
  -4   2   5  582.74   29.30
  -4   2   5  587.34   53.99
   3  -2  -5  292.27   94.29
   3  -2  -5  315.57   38.50
   3  -2  -5  283.27   63.49
  -3   2   5  347.27   40.20
  -3   2   5  411.36   53.09
  -3   2   5  346.07   24.90
  -3   2   5  330.57   44.20
  -3   2   5  432.86   25.30
   2  -2  -5  143.49   45.80
   2  -2  -5  163.48   27.20
   2  -2  -5  141.99   26.90
   2  -2  -5   74.69   37.10
  -2   2   5  157.58   31.00
  -2   2   5  118.09   14.80
  -2   2   5  164.98   16.00
  -2   2   5  146.79   26.40
  -2   2   5  170.58   36.60
  -2   2   5  181.18   20.60
   1  -2  -5    6.50    5.90
   1  -2  -5   20.10   16.50
   1  -2  -5   22.60   15.00
   1  -2  -5   25.60   22.20
   1  -2  -5    5.70    4.70
   1  -2  -5   16.60    7.20
  -1   2   5   -0.10    6.30
  -1   2   5    9.20    9.20
  -1   2   5   11.30    5.10
  -1   2   5    7.40    6.50
  -1   2   5   11.60    6.90
  -1   2   5    2.60    3.60
   0  -2  -5  925.31   53.59
   0  -2  -5  992.70   50.39
   0  -2  -5  644.34   97.19
   0  -2  -5  913.31   80.09
   0  -2  -5  947.91   59.59
   0  -2  -5  930.01   59.99
   0   2   5  990.90   58.79
   0   2   5  897.81   64.89
   0   2   5  867.71   51.49
   0   2   5  966.50   51.19
   0   2   5  880.01   41.90
   0   2   5 1020.90   85.19
  -1  -2  -5 2685.03  124.59
  -1  -2  -5 2696.33  111.49
  -1  -2  -5 2704.93  136.59
  -1  -2  -5 2931.61  107.59
  -1  -2  -5 2732.53   99.69
  -1  -2  -5 2657.33  105.29
   1   2   5 2668.33  105.09
   1   2   5 2808.02  107.79
   1   2   5 2747.43  104.19
   1   2   5 2787.52   92.59
   1   2   5 2825.82  114.39
   1   2   5 2942.01  145.69
  -2  -2  -5 2020.20   89.19
  -2  -2  -5 1702.33  155.48
  -2  -2  -5 2100.99   82.99
  -2  -2  -5 2017.50   79.19
  -2  -2  -5 1873.31   82.99
  -2  -2  -5 1951.60  104.19
   2   2   5 1925.91   91.09
   2   2   5 1967.80   89.59
   2   2   5 2009.40   80.09
   2   2   5 2021.30   86.09
   2   2   5 2147.19  112.69
  -3  -2  -5 2175.28  107.49
  -3  -2  -5 2137.09   96.69
  -3  -2  -5 2375.16  101.59
  -3  -2  -5 1998.00  234.18
  -3  -2  -5 2710.63  188.48
  -3  -2  -5 2184.28   87.19
   3   2   5 2396.56  116.99
   3   2   5 2240.48   81.89
   3   2   5 2397.36   92.69
   3   2   5 2265.17   89.79
  -4  -2  -5   34.30   12.60
  -4  -2  -5   46.40   21.00
  -4  -2  -5   42.50   10.70
  -4  -2  -5   58.79   37.40
  -4  -2  -5   22.60   14.70
  -4  -2  -5   27.40   23.10
   4   2   5   17.30    6.20
   4   2   5   34.20   12.10
   4   2   5   35.70   11.30
   4   2   5   66.99   17.00
   4   2   5   22.60   12.50
   4   2   5   25.20    8.30
  -5  -2  -5  540.15   79.19
  -5  -2  -5  509.75   44.90
  -5  -2  -5  640.94   38.10
  -5  -2  -5  598.84   54.79
  -5  -2  -5  550.84   68.09
  -5  -2  -5  691.93  100.69
   5   2   5  559.14   52.19
   5   2   5  558.64   34.40
   5   2   5  543.25   41.20
   5   2   5  521.05   42.30
   5   2   5  552.44   44.10
  -6  -2  -5   87.99   39.00
  -6  -2  -5  122.09   55.99
  -6  -2  -5  144.29   17.90
  -6  -2  -5  216.18   54.69
   6   2   5  179.88   25.00
   6   2   5  133.09   25.40
   6   2   5  152.48   18.40
   6   2   5  112.29   24.00
  -7  -2  -5  184.08   53.49
  -7  -2  -5  178.88   56.49
  -7  -2  -5  125.69   58.39
  -7  -2  -5  156.38   34.30
   7   2   5   71.89   22.10
   7   2   5  112.19   29.40
   7   2   5  123.09   19.40
   7   2   5  121.49   20.80
  -8  -2  -5  136.19   46.00
  -8  -2  -5   81.19   43.80
  -8  -2  -5  204.68   72.39
  -8  -2  -5  115.39   19.30
   8   2   5   85.29   26.70
   8   2   5  172.18   38.10
   8   2   5  150.28   20.60
  -9  -2  -5  -35.90   31.60
  -9  -2  -5   13.00   18.10
  -9  -2  -5  -13.50   35.40
   9   2   5  -20.80   21.50
   9   2   5   -6.00   12.10
   9   2   5   13.40    8.70
 -10  -2  -5  -25.60   34.10
 -10  -2  -5  -17.90   15.00
  10   2   5  -10.00   13.10
  10   2   5   41.20   14.10
  10   2   5   11.90   33.40
   6  -3  -5  -57.09   29.70
   6  -3  -5   68.39   27.50
   6  -3  -5  -78.29   58.59
  -6   3   5  -32.40   15.70
  -6   3   5  -23.50   13.00
  -6   3   5   15.20   30.50
  -6   3   5    8.40   20.40
   5  -3  -5   36.50   59.79
   5  -3  -5  -26.80   28.40
   5  -3  -5  -10.20   16.60
  -5   3   5   19.90   23.10
  -5   3   5   27.40   17.00
  -5   3   5   42.30   25.20
  -5   3   5   36.30   12.00
   4  -3  -5  200.48   65.29
   4  -3  -5  119.59   69.59
   4  -3  -5  267.27   41.20
  -4   3   5  259.67   39.20
  -4   3   5  175.78   41.20
  -4   3   5  246.68   24.40
  -4   3   5  298.97   52.19
   3  -3  -5   71.09   49.70
   3  -3  -5   85.89   26.60
   3  -3  -5   62.59   33.20
  -3   3   5  101.49   21.20
  -3   3   5   68.29   29.70
  -3   3   5  100.19   29.10
  -3   3   5  130.99   31.30
  -3   3   5   97.99   15.30
   2  -3  -5  351.86   40.60
   2  -3  -5  449.56  104.39
   2  -3  -5  255.47   82.69
   2  -3  -5  333.57   40.10
  -2   3   5  441.56   51.19
  -2   3   5  411.36   31.20
  -2   3   5  348.37   40.30
  -2   3   5  433.26   46.30
  -2   3   5  411.26   30.20
   1  -3  -5  114.59   15.10
   1  -3  -5   84.89   20.00
   1  -3  -5   83.69   22.10
   1  -3  -5   54.09   23.20
   1  -3  -5   40.20   24.50
   1  -3  -5  101.69   43.90
  -1   3   5  102.09   27.30
  -1   3   5  105.49   19.00
  -1   3   5   78.29   15.30
  -1   3   5   80.79   18.40
  -1   3   5   99.69   24.00
  -1   3   5   97.69   23.80
   0  -3  -5  296.07   26.00
   0  -3  -5  302.97   28.00
   0  -3  -5  260.17   30.80
   0  -3  -5  289.27   36.10
   0  -3  -5  258.27   54.09
   0   3   5  308.27   25.80
   0   3   5  332.07   32.90
   0   3   5  390.66   32.90
   0   3   5  232.18   29.50
   0   3   5  281.17   25.70
  -1  -3  -5 1300.97   72.29
  -1  -3  -5 1235.98   92.79
  -1  -3  -5 1311.17   67.99
  -1  -3  -5 1257.87   72.59
  -1  -3  -5 1142.69  129.89
  -1  -3  -5 1362.96   63.79
   1   3   5 1248.08   65.89
   1   3   5 1386.96   68.29
   1   3   5 1264.57   63.99
   1   3   5 1373.26  100.89
   1   3   5 1329.17   72.99
  -2  -3  -5 1247.18   71.99
  -2  -3  -5 1198.88   86.39
  -2  -3  -5 1224.68   54.09
  -2  -3  -5 1249.57   69.09
  -2  -3  -5 1197.28  128.59
   2   3   5 1244.58   74.39
   2   3   5 1246.48   68.39
   2   3   5 1211.98   55.39
   2   3   5 1218.38   61.49
   2   3   5 1367.86   93.39
  -3  -3  -5 2517.95  188.18
  -3  -3  -5 2580.24  114.89
  -3  -3  -5 2398.56  167.68
  -3  -3  -5 2382.26   99.79
  -3  -3  -5 2235.78  122.29
  -3  -3  -5 2486.15   85.59
   3   3   5 2519.55  132.79
   3   3   5 2384.36   90.39
   3   3   5 2350.06  104.69
   3   3   5 2376.16  114.69
   3   3   5 2391.66   88.59
  -4  -3  -5  786.82   96.79
  -4  -3  -5  627.14   54.39
  -4  -3  -5  749.62   50.09
  -4  -3  -5  758.52   61.49
  -4  -3  -5  661.43   44.70
  -4  -3  -5  672.33   92.59
   4   3   5  699.53   40.90
   4   3   5  687.43   62.59
   4   3   5  704.73   39.50
   4   3   5  706.13   49.50
  -5  -3  -5  227.38   23.00
  -5  -3  -5  274.37   67.39
  -5  -3  -5  324.17   77.39
  -5  -3  -5  204.38   31.90
  -5  -3  -5  187.78   28.20
  -5  -3  -5  167.58   42.10
   5   3   5  246.38   22.40
   5   3   5  195.38   26.30
   5   3   5  222.68   22.50
   5   3   5  123.49   33.10
   5   3   5  176.48   27.40
  -6  -3  -5  113.99   34.20
  -6  -3  -5  130.99   16.60
  -6  -3  -5  175.38   57.79
  -6  -3  -5  159.18   34.10
  -6  -3  -5  120.19   63.79
   6   3   5  126.09   23.60
   6   3   5  100.89   36.90
   6   3   5  139.39   27.10
   6   3   5   78.89   23.30
   6   3   5  140.39   28.50
  -7  -3  -5   61.79   30.30
  -7  -3  -5   82.89   40.20
  -7  -3  -5   65.49   32.20
   7   3   5   53.59   23.00
   7   3   5   47.70   16.70
   7   3   5   47.80   12.60
  -8  -3  -5  283.97   80.29
  -8  -3  -5  289.97   82.49
  -8  -3  -5  303.67   70.09
   8   3   5  233.58   24.30
   8   3   5  236.08   33.10
   8   3   5  233.38   46.20
  -9  -3  -5  180.88   56.99
  -9  -3  -5  205.28   66.49
  -9  -3  -5  189.78   58.99
   9   3   5  117.19   30.10
   9   3   5  200.68   23.70
   9   3   5  148.49   48.30
 -10  -3  -5  114.29   52.79
 -10  -3  -5  190.08   50.29
 -10  -3  -5  158.08   70.59
  10   3   5  129.89   25.60
  10   3   5  118.09   58.19
  10   3   5  167.38   38.90
   6  -4  -5    8.70   23.80
   6  -4  -5  -50.39   65.59
   6  -4  -5   70.49   36.30
  -6   4   5   42.80   28.70
  -6   4   5  -29.00   13.80
  -6   4   5   48.30   22.20
   5  -4  -5   20.30   21.50
   5  -4  -5   16.10   22.70
  -5   4   5   -4.10   20.00
  -5   4   5   12.60   23.80
  -5   4   5   16.10   12.20
  -5   4   5   34.10   19.70
   4  -4  -5   88.49   49.30
   4  -4  -5   46.10   25.80
  -4   4   5   33.90   15.20
  -4   4   5   35.00   25.10
  -4   4   5   33.60   26.80
  -4   4   5   52.49   24.90
   3  -4  -5   13.70   37.40
   3  -4  -5   20.90   23.80
   3  -4  -5   27.90   16.30
  -3   4   5   33.00   23.00
  -3   4   5   10.10   10.90
  -3   4   5    8.50   12.90
  -3   4   5   13.20   11.40
   2  -4  -5  211.68   60.19
   2  -4  -5  195.18   65.79
   2  -4  -5  230.58   32.20
   2  -4  -5  193.38   39.40
  -2   4   5  278.57   33.80
  -2   4   5  231.98   27.20
  -2   4   5  254.27   41.20
  -2   4   5  272.97   44.40
   1  -4  -5  374.26   56.19
   1  -4  -5  189.88   63.79
   1  -4  -5  291.67   40.30
   1  -4  -5  363.86   31.90
  -1   4   5  315.97   42.00
  -1   4   5  344.77   32.00
  -1   4   5  297.57   31.80
  -1   4   5  370.46   44.90
   0  -4  -5  169.88   39.00
   0  -4  -5  183.18   35.80
   0  -4  -5  197.08   53.29
   0  -4  -5  113.19   45.40
   0  -4  -5  179.98   18.40
   0   4   5  173.18   24.90
   0   4   5  164.58   21.60
   0   4   5  177.68   35.10
  -1  -4  -5  325.77   40.10
  -1  -4  -5  333.67   50.99
  -1  -4  -5  312.17   81.69
  -1  -4  -5  242.58   40.20
  -1  -4  -5  369.96   39.50
  -1  -4  -5  331.47   29.20
   1   4   5  342.37   30.00
   1   4   5  322.77   36.30
   1   4   5  367.96   30.10
   1   4   5  358.26   37.20
   1   4   5  244.88   40.90
  -2  -4  -5   18.10   13.30
  -2  -4  -5    0.00   16.30
  -2  -4  -5   14.50    8.50
  -2  -4  -5   10.40    6.50
  -2  -4  -5    2.30    6.80
   2   4   5    0.30    7.60
   2   4   5   -2.80    4.70
   2   4   5   -2.40    3.90
   2   4   5    3.50    6.30
   2   4   5   -3.70    3.40
   2   4   5   13.10   11.30
  -3  -4  -5   83.99   41.30
  -3  -4  -5   83.09   28.90
  -3  -4  -5   83.99   22.40
  -3  -4  -5   92.09   30.70
   3   4   5   57.79   13.70
   3   4   5   75.89   26.80
   3   4   5   56.29   17.00
   3   4   5   96.69   46.70
  -4  -4  -5    8.60   16.50
  -4  -4  -5   17.50   12.00
  -4  -4  -5   30.10   19.10
  -4  -4  -5    5.20    7.80
   4   4   5    1.80    5.10
   4   4   5   -5.30    3.30
   4   4   5    7.30    8.10
  -5  -4  -5    9.90    9.30
  -5  -4  -5   29.80   21.00
  -5  -4  -5   17.60   11.90
  -5  -4  -5   -8.50    6.50
  -5  -4  -5   24.50   14.70
  -5  -4  -5   36.50   27.40
   5   4   5   11.00    8.80
   5   4   5   23.90   14.40
   5   4   5   23.90    8.60
   5   4   5    5.50    5.90
   5   4   5  -21.90   11.50
  -6  -4  -5   51.89   38.10
  -6  -4  -5   67.69   18.50
  -6  -4  -5   73.59   24.30
  -6  -4  -5   45.00   30.20
  -6  -4  -5   86.49   23.10
   6   4   5   64.69   20.20
   6   4   5   94.59   26.70
   6   4   5   64.49   13.90
   6   4   5   98.29   17.90
   6   4   5   47.50   25.70
  -7  -4  -5  -19.50   17.60
  -7  -4  -5  -23.50   14.30
  -7  -4  -5    8.50   23.30
   7   4   5    1.10    9.50
   7   4   5    8.90    6.80
  -8  -4  -5   81.69   32.30
  -8  -4  -5   86.39   36.40
  -8  -4  -5  103.79   46.50
   8   4   5   48.90   11.90
   8   4   5   52.89   23.70
   8   4   5   90.29   24.70
  -9  -4  -5   72.09   47.70
  -9  -4  -5   92.39   39.10
  -9  -4  -5   61.29   33.40
   9   4   5   53.69   31.80
   9   4   5   49.70   23.90
   9   4   5   94.99   18.00
 -10  -4  -5  248.18   60.79
 -10  -4  -5  278.07   83.39
  10   4   5  213.38   57.99
  10   4   5  286.17   30.00
  10   4   5  184.28   39.30
   6  -5  -5  -13.60  103.09
   6  -5  -5  184.68   49.70
   6  -5  -5  294.87   87.49
  -6   5   5  184.48   59.29
  -6   5   5  166.88   38.60
  -6   5   5  129.19   46.30
   5  -5  -5   79.89   40.30
   5  -5  -5   72.29   56.19
   5  -5  -5  122.19   75.49
  -5   5   5   67.09   40.80
  -5   5   5  127.49   29.80
  -5   5   5  117.69   33.50
   4  -5  -5  120.19   54.79
   4  -5  -5   79.49   36.40
   4  -5  -5    4.50   53.19
  -4   5   5   86.39   24.10
  -4   5   5  147.39   34.20
  -4   5   5   74.49   32.70
  -4   5   5   99.49   40.90
   3  -5  -5  163.58   65.89
   3  -5  -5  252.37   66.19
   3  -5  -5  291.27   57.29
  -3   5   5  296.87   34.90
  -3   5   5  350.96   40.10
  -3   5   5  322.67   66.29
  -3   5   5  325.97   62.99
   2  -5  -5  134.19   39.10
   2  -5  -5   70.09   32.20
   2  -5  -5   83.19   38.50
   2  -5  -5   67.89   48.10
  -2   5   5  129.89   38.90
  -2   5   5  167.68   44.10
  -2   5   5  114.09   24.70
   1  -5  -5 1385.76  151.38
   1  -5  -5 1608.54  138.49
   1  -5  -5 1533.45  106.19
   1  -5  -5 1484.75   76.79
  -1   5   5 1683.83   84.59
  -1   5   5 1698.73  108.49
  -1   5   5 1809.22  108.79
  -1   5   5 1585.84   74.89
   0  -5  -5  917.81   94.49
   0  -5  -5  895.21   75.09
   0  -5  -5  872.11  113.39
   0   5   5  903.01   65.09
   0   5   5  865.41   71.69
   0   5   5  889.61   57.49
  -1  -5  -5 2010.30  173.98
  -1  -5  -5 2068.29  144.59
  -1  -5  -5 1974.80  115.69
  -1  -5  -5 1896.01  138.79
   1   5   5 2065.09   90.89
   1   5   5 2093.69   93.99
   1   5   5 1987.70  106.99
  -2  -5  -5  699.23   57.19
  -2  -5  -5  811.12  106.59
  -2  -5  -5  707.83   52.19
  -2  -5  -5  838.32   69.99
  -2  -5  -5  902.41   87.19
   2   5   5  757.82   57.19
   2   5   5  822.22   40.60
   2   5   5  808.42   51.99
   2   5   5  741.83   65.39
  -3  -5  -5  282.07   44.30
  -3  -5  -5  271.27   35.20
  -3  -5  -5  198.98   39.70
  -3  -5  -5  243.68   67.19
   3   5   5  188.48   24.10
   3   5   5  184.28   25.30
   3   5   5  109.39   39.20
   3   5   5  198.08   37.70
  -4  -5  -5  302.37   73.59
  -4  -5  -5  276.07   57.89
  -4  -5  -5  219.58   32.40
  -4  -5  -5  292.47   44.20
   4   5   5  222.58   56.49
   4   5   5  254.07   26.70
   4   5   5  280.97   37.50
   4   5   5  247.38   35.10
  -5  -5  -5  140.39   36.50
  -5  -5  -5  173.28   59.59
  -5  -5  -5  164.78   31.50
  -5  -5  -5  198.78   50.19
   5   5   5  154.98   16.40
   5   5   5  112.49   22.90
  -6  -5  -5  121.19   35.40
  -6  -5  -5  109.19   25.40
  -6  -5  -5  105.99   49.90
  -6  -5  -5  157.48   44.30
   6   5   5  107.19   27.00
   6   5   5   86.49   27.00
   6   5   5  141.69   26.90
   6   5   5   99.29   18.60
  -7  -5  -5  168.28   38.10
  -7  -5  -5  142.19   23.20
  -7  -5  -5  137.49   49.30
  -7  -5  -5  118.19   42.00
   7   5   5  152.18   33.50
   7   5   5  154.38   19.90
   7   5   5  149.69   36.80
  -8  -5  -5  -13.40   21.70
  -8  -5  -5   22.90   15.00
  -8  -5  -5   11.50   14.40
   8   5   5   32.80    9.60
   8   5   5   -2.20   14.60
   8   5   5   36.90   16.50
  -9  -5  -5   15.30   27.20
  -9  -5  -5   -7.30   16.00
   9   5   5   -2.90   17.00
   9   5   5    8.40    6.10
   9   5   5    8.90   12.10
 -10  -5  -5  -24.90   16.80
 -10  -5  -5    3.30   28.20
 -10  -5  -5  -44.10   22.40
  10   5   5  -14.10    8.20
  10   5   5   29.70   20.20
  10   5   5   15.00    9.20
   5  -6  -5  -16.20   75.99
   5  -6  -5   11.20   26.40
   5  -6  -5   35.80   41.30
  -5   6   5   38.10   38.20
  -5   6   5   61.59   28.50
  -5   6   5  -11.50   25.30
  -5   6   5  -10.70   20.50
   4  -6  -5   25.60   22.90
   4  -6  -5  -48.10   57.49
   4  -6  -5  -53.29   28.30
  -4   6   5   -1.80   35.90
  -4   6   5   26.90   17.80
  -4   6   5   -6.40   24.20
   3  -6  -5   -5.00   21.70
   3  -6  -5  -43.20   39.20
   3  -6  -5   20.60   21.80
  -3   6   5   -4.10    9.30
  -3   6   5    4.30   19.10
  -3   6   5    6.50   10.50
  -3   6   5   -9.20   17.90
   2  -6  -5   12.80   17.40
   2  -6  -5   15.30   24.30
   2  -6  -5   34.30   48.00
   2  -6  -5   11.90   26.50
  -2   6   5   56.29   26.80
  -2   6   5   39.80   27.60
  -2   6   5   29.10   16.80
  -2   6   5   41.10   14.70
   1  -6  -5   84.39   39.10
   1  -6  -5   72.29   40.40
   1  -6  -5   67.69   28.50
  -1   6   5   77.39   21.50
  -1   6   5   95.99   31.70
  -1   6   5   84.49   58.49
   0  -6  -5  250.27   71.09
   0  -6  -5  188.28   54.29
   0  -6  -5  221.38   61.99
   0   6   5  274.07   42.80
   0   6   5  361.56   65.49
   0   6   5  291.97   43.00
  -1  -6  -5  364.36   57.39
  -1  -6  -5  512.75   72.59
  -1  -6  -5  416.06   93.19
  -1  -6  -5  468.45   56.69
   1   6   5  352.86   79.69
   1   6   5  429.36   41.20
   1   6   5  535.65   45.10
  -2  -6  -5    5.30   14.50
  -2  -6  -5   65.69   31.80
  -2  -6  -5   23.30   15.90
  -2  -6  -5   49.70   24.00
   2   6   5   30.00   18.30
   2   6   5   34.50   14.40
   2   6   5   48.70   18.90
   2   6   5   59.99   13.60
  -3  -6  -5   34.60   20.20
  -3  -6  -5   12.20   20.60
  -3  -6  -5   59.09   28.50
   3   6   5   55.69   21.90
   3   6   5   62.19   19.00
   3   6   5   28.50   12.90
   3   6   5   62.79   21.30
  -4  -6  -5  -14.30   19.90
  -4  -6  -5   20.00   21.50
  -4  -6  -5   30.00   15.40
   4   6   5   21.00   13.10
   4   6   5    1.10   10.40
   4   6   5   28.30   10.90
   4   6   5   94.59   32.20
  -5  -6  -5   18.50   14.00
  -5  -6  -5    9.20   18.10
  -5  -6  -5   36.20   20.80
  -5  -6  -5    5.10   24.40
   5   6   5    4.50    8.80
  -6  -6  -5  463.55   64.19
  -6  -6  -5  477.45   83.89
  -6  -6  -5  367.36   43.40
  -6  -6  -5  464.25   62.79
   6   6   5  426.16   55.29
   6   6   5  441.66   37.00
   6   6   5  402.06   48.70
   6   6   5  433.36   28.70
  -7  -6  -5  816.92   79.49
  -7  -6  -5  617.74   83.19
  -7  -6  -5  765.82  103.29
   7   6   5  723.83   64.39
   7   6   5  681.53   45.00
   7   6   5  664.63   69.99
  -8  -6  -5  350.76   55.59
  -8  -6  -5  320.17   31.80
  -8  -6  -5  371.66   67.69
  -8  -6  -5  406.66   69.79
   8   6   5  320.37   47.30
   8   6   5  209.38   49.90
   8   6   5  295.67   42.10
   8   6   5  305.47   29.70
  -9  -6  -5   79.69   37.10
  -9  -6  -5   71.69   24.40
  -9  -6  -5   69.39   40.40
   9   6   5   83.89   18.20
   9   6   5   61.39   35.40
   9   6   5   50.49   21.70
 -10  -6  -5   55.99   35.30
 -10  -6  -5   -3.90   28.90
  10   6   5   65.49   15.40
  10   6   5   45.60   22.80
   4  -7  -5   26.80   32.80
   4  -7  -5  -41.80   53.89
   4  -7  -5   -2.00   45.40
  -4   7   5   41.20   39.80
  -4   7   5   57.09   21.40
  -4   7   5   -1.00   25.00
  -4   7   5   12.10   21.20
   3  -7  -5   75.59   48.90
   3  -7  -5   92.79   57.39
   3  -7  -5  129.39   43.90
  -3   7   5  175.18   38.90
  -3   7   5   78.09   36.50
  -3   7   5  190.78   59.59
   2  -7  -5  194.48   67.29
   2  -7  -5  123.59   46.30
   2  -7  -5   58.79   48.40
  -2   7   5  180.48   49.70
  -2   7   5  192.58   55.69
  -2   7   5  125.89   30.80
   1  -7  -5   79.89   47.60
   1  -7  -5  167.58   57.49
   1  -7  -5  109.69   37.70
  -1   7   5  177.08   45.80
  -1   7   5  149.39   45.50
  -1   7   5  145.19   33.10
   0  -7  -5  -17.90   14.50
   0  -7  -5   13.50   28.60
   0  -7  -5   22.20   20.20
   0   7   5   15.00   13.30
   0   7   5    9.00   21.90
   0   7   5   40.10   19.40
  -1  -7  -5   24.20   19.40
  -1  -7  -5   10.30   26.10
  -1  -7  -5    8.30   14.80
   1   7   5   11.50   12.60
   1   7   5   23.90   19.10
   1   7   5   10.10    8.30
  -2  -7  -5   -5.20   23.80
  -2  -7  -5   -4.80   23.30
  -2  -7  -5   10.00   15.30
  -2  -7  -5   20.20   27.40
   2   7   5    8.50    8.30
   2   7   5   18.20   12.80
   2   7   5    6.70   11.30
   2   7   5    7.10    9.70
  -3  -7  -5   -4.10    5.60
  -3  -7  -5   -8.40   22.00
  -3  -7  -5   -5.20   14.30
  -3  -7  -5  -16.70   11.30
   3   7   5    3.10    8.70
   3   7   5   16.40   14.60
   3   7   5   24.30   22.30
   3   7   5   -7.70    9.80
  -4  -7  -5    4.10   23.40
  -4  -7  -5   11.30    8.40
  -4  -7  -5   14.30   14.40
  -4  -7  -5    6.60   17.60
   4   7   5    8.10   11.90
   4   7   5   14.80   13.60
   4   7   5   25.30   25.80
   4   7   5   18.10   10.60
  -5  -7  -5  131.19   34.90
  -5  -7  -5   83.79   37.50
  -5  -7  -5  121.39   46.50
   5   7   5  113.49   34.30
   5   7   5  106.19   23.90
   5   7   5  144.99   26.80
  -6  -7  -5  524.85   74.09
  -6  -7  -5  589.14   73.59
  -6  -7  -5  319.57   49.40
  -6  -7  -5  498.75   81.09
   6   7   5  506.35   32.10
   6   7   5  440.36   59.69
   6   7   5  482.95   40.90
   6   7   5  444.86   53.79
  -7  -7  -5  425.16   63.59
  -7  -7  -5  531.85   70.79
  -7  -7  -5  404.66   94.99
   7   7   5  421.26   37.00
   7   7   5  380.46   49.10
   7   7   5  484.75   59.09
  -8  -7  -5  101.19   74.99
  -8  -7  -5  169.38   46.00
  -8  -7  -5  146.39   51.89
   8   7   5   76.39   28.10
   8   7   5  157.88   25.70
  -9  -7  -5    2.00   28.00
  -9  -7  -5   -3.40   24.10
   9   7   5   65.29   25.30
   9   7   5   51.29   19.10
   9   7   5   49.20   13.00
 -10  -7  -5  -11.30   24.20
 -10  -7  -5   34.70   34.00
  10   7   5    7.80   12.40
  10   7   5   -1.80    9.60
  10   7   5   -8.20   21.70
   4  -8  -5  -84.39   40.50
   4  -8  -5   31.50   29.50
  -4   8   5   90.49   47.20
  -4   8   5   22.10   22.10
  -4   8   5   38.70   36.10
   3  -8  -5  160.98   60.29
   3  -8  -5  233.88   62.29
   3  -8  -5  271.67   83.29
  -3   8   5  299.87   74.79
  -3   8   5  273.27   70.19
  -3   8   5  254.97   51.49
   2  -8  -5  143.49   57.99
   2  -8  -5  340.57  112.79
   2  -8  -5  309.37   68.89
  -2   8   5  302.37   73.89
  -2   8   5  272.47   48.00
  -2   8   5  230.68   63.39
   1  -8  -5  190.48   60.39
   1  -8  -5  180.58   46.50
   1  -8  -5  204.28   68.59
  -1   8   5  180.38   52.29
  -1   8   5  197.18   37.20
  -1   8   5  197.78   53.79
   0  -8  -5   80.69   34.30
   0  -8  -5   65.29   39.30
   0  -8  -5  145.89   50.89
   0   8   5  119.39   63.99
   0   8   5  110.89   38.80
   0   8   5   87.39   24.60
  -1  -8  -5  117.19   39.80
  -1  -8  -5  165.88   54.29
  -1  -8  -5   85.19   41.80
   1   8   5   87.29   25.90
   1   8   5   76.79   29.40
   1   8   5  109.79   31.00
  -2  -8  -5  -30.30   24.40
  -2  -8  -5   51.29   31.70
  -2  -8  -5   20.40   24.40
  -2  -8  -5    7.90   17.70
   2   8   5    3.90   12.80
   2   8   5  -20.30   11.90
   2   8   5   14.10   12.00
   2   8   5   17.40   13.40
  -3  -8  -5  123.59   43.50
  -3  -8  -5  129.29   51.19
  -3  -8  -5  147.19   48.80
   3   8   5   62.69   29.60
   3   8   5   90.39   24.30
   3   8   5   82.49   29.70
  -4  -8  -5  420.26   63.09
  -4  -8  -5  380.06   37.60
  -4  -8  -5  474.65   79.69
  -4  -8  -5  384.96   80.69
   4   8   5  297.07   69.29
   4   8   5  367.66   55.69
   4   8   5  412.06   42.80
   4   8   5  384.96   47.80
  -5  -8  -5   69.69   32.40
  -5  -8  -5   20.80   27.00
  -5  -8  -5   56.59   20.70
   5   8   5   71.09   26.30
   5   8   5   66.69   22.70
  -6  -8  -5  318.27   78.89
  -6  -8  -5  444.96   82.79
  -6  -8  -5  406.06   67.09
   6   8   5  342.67   31.20
   6   8   5  385.56   38.50
   6   8   5  322.47   48.40
  -7  -8  -5    7.60   21.10
  -7  -8  -5   19.20   30.90
  -7  -8  -5   47.30   18.00
   7   8   5   -6.10   11.60
   7   8   5   39.50   16.40
   7   8   5   26.40    9.90
  -8  -8  -5  115.29   39.20
  -8  -8  -5   73.19   33.60
  -8  -8  -5   81.79   39.20
   8   8   5   30.70   21.60
   8   8   5   75.99   28.50
   8   8   5   63.99   18.00
  -9  -8  -5  140.79   58.29
  -9  -8  -5   41.80   29.50
   9   8   5   74.29   26.20
   9   8   5   25.40   25.50
   9   8   5  103.19   19.90
   3  -9  -5   22.30   26.30
   3  -9  -5  -46.20   46.10
  -3   9   5  -34.00   25.40
  -3   9   5   22.50   17.30
  -3   9   5   17.80   30.90
   2  -9  -5   51.39   35.00
   2  -9  -5   76.99   40.70
   2  -9  -5  168.58   64.99
  -2   9   5   54.39   23.90
  -2   9   5   86.49   43.00
  -2   9   5   17.40   37.00
   1  -9  -5  101.49   31.00
   1  -9  -5   23.40   36.20
   1  -9  -5   31.40   46.90
  -1   9   5  115.99   47.90
  -1   9   5   79.29   31.00
  -1   9   5   99.29   36.60
   0  -9  -5  229.58   57.99
   0  -9  -5  152.48   53.39
   0  -9  -5  247.38   79.49
   0   9   5  147.29   48.70
   0   9   5  206.98   41.40
   0   9   5  291.27   64.79
  -1  -9  -5   33.90   35.40
  -1  -9  -5  -10.10   18.60
  -1  -9  -5  -10.20   26.00
   1   9   5   21.90   16.80
   1   9   5   10.10   12.50
   1   9   5    6.60   20.80
  -2  -9  -5  -25.80   16.60
  -2  -9  -5   26.60   22.00
  -2  -9  -5   -0.30   16.70
   2   9   5   10.90   17.90
   2   9   5   31.00   21.30
   2   9   5   -8.70    8.40
   2   9   5    5.70   15.30
  -3  -9  -5  220.08   56.49
  -3  -9  -5  385.36   90.69
  -3  -9  -5  225.48   61.29
   3   9   5  238.28   41.60
   3   9   5  264.37   52.99
   3   9   5  227.28   29.40
   3   9   5  139.59   42.20
  -4  -9  -5  633.94   90.39
  -4  -9  -5  603.24   46.30
  -4  -9  -5  682.33   87.89
  -4  -9  -5  484.85   71.29
   4   9   5  602.44   73.69
   4   9   5  365.06   86.29
   4   9   5  543.95   60.09
   4   9   5  556.34   54.59
  -5  -9  -5 1178.48  129.09
  -5  -9  -5  996.90   72.99
  -5  -9  -5 1009.70  114.09
   5   9   5 1066.99   74.29
   5   9   5 1109.99  107.39
   5   9   5  984.40   92.99
  -6  -9  -5  364.16   90.79
  -6  -9  -5  227.08   59.49
   6   9   5  253.57   33.30
   6   9   5  308.07   37.50
   6   9   5  237.58   50.19
  -7  -9  -5  229.78   64.09
  -7  -9  -5  209.08   49.50
  -7  -9  -5  270.87   64.59
   7   9   5  192.18   58.59
   7   9   5  243.28   22.70
   7   9   5  242.08   31.40
   7   9   5  229.88   51.79
  -8  -9  -5  111.79   46.50
  -8  -9  -5   54.59   28.90
  -8  -9  -5   16.00   30.30
   8   9   5   22.30   19.30
   8   9   5   62.99   17.00
   8   9   5   60.59   26.70
  -9  -9  -5   35.20   21.30
  -9  -9  -5   30.20   27.80
  -9  -9  -5    9.70   28.50
   9   9   5   57.29   29.50
   9   9   5   37.00   15.90
   9   9   5   28.60   19.50
   2 -10  -5   82.59   30.70
  -2  10   5    3.20   36.70
  -2  10   5    1.20   26.90
  -2  10   5  -23.30   18.70
   1 -10  -5    4.30   31.00
   1 -10  -5  -23.50   30.00
   1 -10  -5   46.70   44.10
  -1  10   5  -58.19   28.40
  -1  10   5    1.50   30.20
  -1  10   5  -28.40   13.30
   0 -10  -5  -27.40   25.00
   0 -10  -5   -8.20   23.10
   0 -10  -5   -1.50   29.20
   0  10   5   30.40   23.70
   0  10   5   -1.40   13.20
  -1 -10  -5  -31.50   22.70
  -1 -10  -5  -45.00   22.20
  -1 -10  -5   -3.90   25.20
   1  10   5  -32.10   20.20
   1  10   5    0.30   20.60
   1  10   5  -18.90   10.70
  -2 -10  -5   81.19   37.30
  -2 -10  -5  104.29   51.39
  -2 -10  -5  130.89   42.20
   2  10   5  101.19   38.40
   2  10   5   96.19   30.90
   2  10   5  108.39   31.30
   2  10   5   97.29   40.90
  -3 -10  -5  -20.90   24.90
  -3 -10  -5  -22.00   17.40
  -3 -10  -5    3.80   24.70
   3  10   5   -9.90    9.40
   3  10   5  -12.70   15.60
   3  10   5   -4.70   19.60
   3  10   5  -18.50   11.50
  -4 -10  -5    8.70   27.40
  -4 -10  -5   32.20   32.40
  -4 -10  -5   72.89   30.50
   4  10   5   34.70   16.50
   4  10   5   34.20   37.10
   4  10   5   23.40   19.50
   4  10   5   65.39   26.50
  -5 -10  -5   49.60   20.30
  -5 -10  -5   43.90   33.00
   5  10   5   59.29   27.60
   5  10   5   60.79   28.80
  -6 -10  -5  290.57   48.40
  -6 -10  -5  331.87   79.29
   6  10   5  255.87   56.49
   6  10   5  336.87   43.40
  -7 -10  -5   39.20   30.30
  -7 -10  -5   78.29   38.30
  -7 -10  -5  113.39   39.60
   7  10   5   62.89   21.90
   7  10   5   38.80   32.90
   7  10   5  118.39   36.80
  -8 -10  -5   57.79   31.20
  -8 -10  -5   42.20   42.40
  -8 -10  -5   16.50   24.50
   8  10   5   85.09   21.40
   8  10   5   14.20   13.10
   8  10   5    4.80   21.60
   0 -11  -5   38.40   45.80
   0 -11  -5   79.89   30.60
   0 -11  -5   25.70   43.80
   0  11   5   99.39   35.20
   0  11   5   -8.30   32.40
  -1 -11  -5   52.29   26.40
  -1 -11  -5   57.89   40.80
  -1 -11  -5   56.29   37.10
   1  11   5   52.09   24.90
   1  11   5  -11.40   26.40
  -2 -11  -5  179.18   51.99
  -2 -11  -5  157.38   56.79
  -2 -11  -5  179.68   58.49
   2  11   5  144.89   53.69
   2  11   5  161.48   43.50
   2  11   5  231.88   56.89
   2  11   5  125.89   27.70
  -3 -11  -5  298.97   67.19
  -3 -11  -5  276.87   74.09
  -3 -11  -5  284.27   68.29
   3  11   5  288.07   42.40
   3  11   5  261.67   64.99
   3  11   5  253.97   48.60
   3  11   5  290.17   65.59
  -4 -11  -5   89.49   46.00
  -4 -11  -5   47.80   32.60
  -4 -11  -5   98.49   48.20
   4  11   5  134.49   45.50
   4  11   5  108.49   30.90
   4  11   5  171.28   45.70
  -5 -11  -5  127.49   45.90
  -5 -11  -5  132.69   56.49
  -5 -11  -5  123.29   48.20
   5  11   5   34.00   25.90
   5  11   5  -26.40   22.10
   5  11   5   45.60   18.80
  -6 -11  -5   42.10   24.00
  -6 -11  -5  -35.40   26.30
  -6 -11  -5   12.90   26.70
   6  11   5   23.10   23.00
   6  11   5   24.20   21.20
   6  11   5   14.40   17.30
  -7 -11  -5  102.09   36.70
  -7 -11  -5  224.28   63.39
  -7 -11  -5   81.39   47.50
   7  11   5   70.59   26.80
   7  11   5  123.49   48.10
   7  11   5  151.58   28.50
   7  11   5  153.38   39.70
  -8 -11  -5   -0.50   27.70
  -8 -11  -5  -26.20   27.20
  -8 -11  -5   79.09   41.70
   8  11   5   72.59   19.80
   8  11   5   38.30   18.30
   8  11   5   54.09   21.70
  -1 -12  -5   53.99   37.70
   1  12   5   -6.90   33.10
   1  12   5   87.99   27.40
  -2 -12  -5  252.87   70.99
  -2 -12  -5  205.58   59.89
  -2 -12  -5  258.27   85.99
   2  12   5  239.48   45.60
   2  12   5  239.28   56.29
   2  12   5  209.28   62.89
   2  12   5  146.89   51.99
  -3 -12  -5  305.97   73.29
  -3 -12  -5  209.38   62.09
  -3 -12  -5  347.77   98.99
   3  12   5  174.68   42.70
   3  12   5  261.07   63.59
   3  12   5  309.77   50.89
   3  12   5  214.68   55.59
  -4 -12  -5  185.28   71.89
  -4 -12  -5  269.67   63.29
  -4 -12  -5  234.98   80.69
   4  12   5  202.28   57.39
   4  12   5  246.68   58.59
   4  12   5  182.38   41.30
  -5 -12  -5   30.20   29.40
  -5 -12  -5   34.70   28.00
  -5 -12  -5  135.59   46.80
   5  12   5  -13.00   26.10
   5  12   5   13.30   26.20
   5  12   5   66.19   18.50
  -6 -12  -5   75.49   43.00
  -6 -12  -5   20.00   29.40
  -6 -12  -5  -53.99   28.40
   6  12   5   14.70   25.90
   6  12   5   69.19   23.80
   6  12   5   71.89   23.70
   4  10  -6   32.20   24.70
   4  10  -6   68.99   24.70
   4  10  -6   64.59   22.70
   4  10  -6   60.59   73.59
   4  10  -6   45.20   62.19
   4  10  -6  114.69   51.19
  -4 -10   6   67.29   32.70
  -4 -10   6   63.79   43.20
  -4 -10   6   34.00   47.50
   3  10  -6  -21.00   51.69
   3  10  -6   97.69   27.40
   3  10  -6   69.49   49.00
   3  10  -6   83.09   27.30
   3  10  -6  102.99   31.90
   3  10  -6  -42.20   53.09
   3  10  -6  147.49   60.19
  -3 -10   6  100.19   40.10
  -3 -10   6   89.49   29.00
  -3 -10   6  135.49   57.29
   2  10  -6   67.89   48.50
   2  10  -6   50.49   31.30
   2  10  -6    4.00   54.79
   2  10  -6  128.79   31.30
   2  10  -6  104.29   42.80
   2  10  -6  137.19   36.90
  -2 -10   6  151.98   50.19
  -2 -10   6   98.59   30.70
  -2 -10   6  116.89   37.50
   1  10  -6    5.30   44.50
   1  10  -6   58.59   25.40
   1  10  -6   59.19   21.70
   1  10  -6   66.49   54.79
   1  10  -6   48.60   52.29
   1  10  -6   18.80   63.89
   1  10  -6   78.49   31.90
  -1 -10   6   81.99   41.90
  -1 -10   6  126.99   33.20
  -1 -10   6   25.70   32.60
   0  10  -6  116.29   58.09
   0  10  -6   18.00   61.29
   0  10  -6   97.79   65.29
   0  10  -6   10.20   69.39
   0 -10   6   19.30   35.40
   0 -10   6   72.49   37.10
   0 -10   6   45.70   25.50
  -1  10  -6  170.08   33.30
  -1  10  -6  179.28   74.49
  -1  10  -6  141.59   80.59
  -1  10  -6  118.69   69.69
   1 -10   6  109.99   41.00
   1 -10   6  224.28   70.69
   1 -10   6  137.49   31.60
   1 -10   6  123.69   39.30
  -2  10  -6  209.68   70.09
  -2  10  -6  104.79   68.39
   2 -10   6   80.49   53.09
   2 -10   6  121.69   36.30
   2 -10   6  155.78   36.50
   5   9  -6  -31.10   54.79
   5   9  -6   64.99   18.40
   5   9  -6   76.49   68.09
   5   9  -6   42.60   19.80
   5   9  -6   62.99   17.40
   5   9  -6   13.40   30.30
  -5  -9   6   -9.80   22.60
  -5  -9   6  -17.50   30.20
  -5  -9   6   10.90   20.50
   4   9  -6   65.89   27.40
   4   9  -6   78.49   41.50
   4   9  -6   64.69   22.10
   4   9  -6   65.69   15.70
   4   9  -6  -34.00   40.90
   4   9  -6    7.90   58.29
   4   9  -6   44.00   36.90
  -4  -9   6   41.00   35.10
  -4  -9   6   69.09   33.60
  -4  -9   6   48.60   33.00
   3   9  -6  212.88   37.40
   3   9  -6  154.68   40.10
   3   9  -6  117.09   35.70
   3   9  -6  175.08   75.59
   3   9  -6  180.38   56.99
  -3  -9   6  152.68   72.19
  -3  -9   6  116.09   85.19
  -3  -9   6  189.98   37.60
  -3  -9   6  154.48   44.50
   2   9  -6  122.19   30.90
   2   9  -6  141.99   60.59
   2   9  -6  167.08   38.30
   2   9  -6   97.69   53.29
   2   9  -6    9.30   54.59
   2   9  -6  111.99   50.29
   2   9  -6  122.99   33.70
  -2  -9   6   93.89   31.60
  -2  -9   6  102.39   42.20
  -2  -9   6   64.09   42.50
  -2  -9   6  119.59   39.60
   1   9  -6   72.99   60.49
   1   9  -6  195.28   69.49
   1   9  -6  165.28   97.59
   1   9  -6  129.89   42.70
  -1  -9   6   93.99   29.90
  -1  -9   6   75.69   37.60
  -1  -9   6  169.48   52.59
   0   9  -6   31.40   25.80
   0   9  -6    6.10   45.50
   0   9  -6   45.20   11.70
   0  -9   6   22.80   15.80
   0  -9   6  -25.20   25.20
   0  -9   6   -2.50   16.80
  -1   9  -6   34.50   49.60
  -1   9  -6   47.60   49.99
  -1   9  -6   13.30   10.90
  -1   9  -6   54.39   36.60
  -1   9  -6  -10.00   39.40
   1  -9   6  -26.10   28.10
   1  -9   6  -16.50   13.50
   1  -9   6   54.19   23.50
  -2   9  -6   -4.40   40.30
  -2   9  -6   11.10   26.50
  -2   9  -6   11.20   57.29
  -2   9  -6   60.09   17.20
   2  -9   6   54.89   24.40
   2  -9   6   18.30   35.20
   2  -9   6   70.49   27.80
  -3   9  -6   65.89   51.39
  -3   9  -6  111.89   45.30
  -3   9  -6   81.49   58.99
   3  -9   6   65.89   33.20
   3  -9   6  146.89   41.10
   3  -9   6   63.79   21.40
   6   8  -6  106.79   21.00
   6   8  -6   91.49   32.80
   6   8  -6  105.79   58.99
   6   8  -6  138.59   37.40
  -6  -8   6   30.70   40.90
  -6  -8   6   16.60   28.30
  -6  -8   6   21.30   38.10
   5   8  -6  171.38   26.70
   5   8  -6  157.18   72.69
   5   8  -6  128.89   21.10
   5   8  -6   95.39   32.70
   5   8  -6   71.59   58.99
  -5  -8   6  114.59   40.20
  -5  -8   6   62.39   38.70
  -5  -8   6  116.39   51.89
   4   8  -6   49.90   16.60
   4   8  -6   29.10   12.50
   4   8  -6   21.50   13.50
   4   8  -6   66.89   39.90
  -4  -8   6   37.30   25.90
  -4  -8   6   41.40   31.00
   3   8  -6   28.80   15.80
   3   8  -6   69.39   29.20
   3   8  -6  -23.00   27.80
   3   8  -6   26.70   49.70
   3   8  -6   16.00   14.50
   3   8  -6   20.60   16.20
  -3  -8   6  -12.90   21.20
  -3  -8   6    0.00   15.70
  -3  -8   6   44.70   26.00
  -3  -8   6   22.60   21.10
   2   8  -6    1.40   29.20
   2   8  -6   10.70   13.00
   2   8  -6   -8.50   11.10
   2   8  -6   56.89   35.10
   2   8  -6   12.30   16.90
   2   8  -6  -17.80   22.40
   2   8  -6   40.80   24.90
  -2  -8   6   31.70   29.90
  -2  -8   6   20.80   18.90
  -2  -8   6   28.40   17.40
  -2  -8   6    1.90   25.50
   1   8  -6   23.30   21.60
   1   8  -6   28.00   43.40
   1   8  -6   20.20   14.10
   1   8  -6    3.80   47.40
   1   8  -6    0.10   41.70
   1   8  -6   50.59   47.40
  -1  -8   6  -22.20   21.40
  -1  -8   6    2.00   16.70
  -1  -8   6   -7.70   12.30
  -1  -8   6   33.90   31.20
   0   8  -6  617.24   99.89
   0   8  -6  597.84   99.99
   0   8  -6  371.86  121.89
   0   8  -6  737.43   53.19
   0  -8   6  686.53   79.39
   0  -8   6  745.63   64.29
   0  -8   6  782.62   87.39
  -1   8  -6  553.04   42.30
  -1   8  -6  501.25  113.59
  -1   8  -6  546.65   60.99
   1  -8   6  603.64   61.49
   1  -8   6  667.93   80.29
   1  -8   6  538.55   69.69
  -2   8  -6  135.69   18.60
  -2   8  -6  165.78   72.09
  -2   8  -6  140.49   61.99
  -2   8  -6  130.79   60.49
   2  -8   6   83.19   34.90
   2  -8   6  154.18   47.60
   2  -8   6  129.99   31.00
  -3   8  -6  -30.50   33.30
  -3   8  -6   44.30   45.50
  -3   8  -6   43.80   36.90
   3  -8   6   13.10   18.30
   3  -8   6    4.20   32.30
   3  -8   6  -12.90   14.70
  -4   8  -6  -75.59   47.50
  -4   8  -6   -6.40   23.30
  -4   8  -6   28.00   34.30
   4  -8   6   15.50   13.80
   4  -8   6   39.10   34.90
   4  -8   6   61.49   29.60
   6   7  -6   56.29   28.10
   6   7  -6   -4.00   49.50
   6   7  -6   55.19   16.80
  -6  -7   6   65.19   30.40
  -6  -7   6   23.40   25.20
  -6  -7   6   41.00   31.60
   5   7  -6  134.39   81.69
   5   7  -6  233.38   27.60
   5   7  -6  182.78   19.50
   5   7  -6  154.08   47.30
   5   7  -6  153.48   74.89
  -5  -7   6  181.88   44.30
  -5  -7   6  183.68   61.89
  -5  -7   6  139.79   51.89
   4   7  -6  264.37   28.60
   4   7  -6  207.48   50.59
   4   7  -6  273.77   30.10
   4   7  -6  178.48   73.99
  -4  -7   6  257.67   72.59
  -4  -7   6  204.18   63.29
  -4  -7   6  234.68   50.99
   3   7  -6  252.37   33.40
   3   7  -6  227.18   75.09
   3   7  -6  296.57   34.20
   3   7  -6  298.27   42.10
  -3  -7   6  246.58   32.80
  -3  -7   6  288.87   75.99
  -3  -7   6  294.07   55.99
  -3  -7   6  268.47   73.19
   2   7  -6  136.89   73.69
   2   7  -6   39.00   42.70
   2   7  -6  148.59   72.99
   2   7  -6  159.98   35.60
  -2  -7   6  136.79   52.79
  -2  -7   6  114.69   46.10
  -2  -7   6  188.68   48.20
  -2  -7   6  148.59   35.20
   1   7  -6  167.78   27.90
   1   7  -6   54.99   52.79
   1   7  -6  150.28   36.10
   1   7  -6   51.79   43.80
   1   7  -6   91.09   45.70
  -1  -7   6  182.48   34.00
  -1  -7   6  226.58   50.39
  -1  -7   6  115.69   49.99
  -1  -7   6  206.18   45.30
   0   7  -6  959.90   58.29
   0  -7   6  873.91   86.39
   0  -7   6  947.21   85.49
   0  -7   6 1005.90   72.49
   0  -7   6  965.60  114.89
  -1   7  -6   41.50   57.49
  -1   7  -6   47.30   36.40
  -1   7  -6   86.69   27.10
  -1   7  -6  103.39   15.20
  -1   7  -6    1.40   40.20
  -1   7  -6   74.19   44.70
   1  -7   6  111.09   29.10
   1  -7   6  106.09   38.10
   1  -7   6   93.39   25.30
  -2   7  -6  579.24   49.10
  -2   7  -6  570.94   43.60
  -2   7  -6  355.86   95.39
   2  -7   6  431.66   61.69
   2  -7   6  411.76   48.20
   2  -7   6  417.16   66.19
  -3   7  -6  -75.79   62.99
  -3   7  -6   -4.30   35.90
  -3   7  -6   71.49   32.30
   3  -7   6   43.90   24.10
   3  -7   6   57.99   16.50
   3  -7   6   37.90   18.60
  -4   7  -6   21.60   35.40
  -4   7  -6    5.70   32.70
  -4   7  -6   20.60   44.90
   4  -7   6   29.90   20.10
   4  -7   6   -2.80    9.80
   4  -7   6    3.70   19.40
  -5   7  -6    3.70   54.29
  -5   7  -6   20.40   40.70
  -5   7  -6   29.60   43.20
   5  -7   6    7.60   22.10
   5  -7   6    0.30   16.60
   5  -7   6    0.80   24.90
   7   6  -6   36.40   26.80
   7   6  -6   13.80   15.00
   7   6  -6   43.50   44.80
  -7  -6   6  -37.90   20.50
  -7  -6   6   12.90   24.00
  -7  -6   6  -16.30   32.70
   6   6  -6   23.20   22.70
   6   6  -6   -7.10   44.60
   6   6  -6    1.80   10.40
  -6  -6   6  -12.10   16.50
  -6  -6   6   13.50   26.00
  -6  -6   6    0.80   19.90
   5   6  -6   90.29   33.20
   5   6  -6  135.29   75.19
   5   6  -6  159.28   40.30
  -5  -6   6  147.29   53.39
  -5  -6   6  122.29   61.39
  -5  -6   6  115.09   35.30
   4   6  -6   55.49   15.20
   4   6  -6   37.90   49.60
   4   6  -6   69.19   15.20
   4   6  -6   88.79    8.80
   4   6  -6   65.79   26.30
   4   6  -6   13.00   26.90
  -4  -6   6    9.70   22.80
  -4  -6   6   49.70   29.40
  -4  -6   6   79.79   26.40
   3   6  -6    4.00   11.60
   3   6  -6   12.70    9.90
   3   6  -6  -35.00   31.60
   3   6  -6  -30.30   29.30
   3   6  -6   25.40    8.40
  -3  -6   6   -5.00   13.60
  -3  -6   6  -18.20   12.90
  -3  -6   6    2.60   18.80
  -3  -6   6   16.40   11.20
   2   6  -6   29.20   16.00
   2   6  -6   33.60   26.30
   2   6  -6    9.70    7.30
   2   6  -6   42.80   44.70
  -2  -6   6   15.40   17.20
  -2  -6   6   -7.20   16.60
  -2  -6   6   16.40   12.70
  -2  -6   6   23.10   14.30
   1   6  -6    1.60   14.20
   1   6  -6  -15.50   38.30
   1   6  -6   21.40   12.80
   1   6  -6   44.10   14.30
   1   6  -6   -3.30   23.40
  -1  -6   6   22.70   16.70
  -1  -6   6   23.90   20.00
  -1  -6   6   11.60   15.60
  -1  -6   6   18.00   12.40
   0   6  -6   97.89   24.00
   0   6  -6    8.90   36.00
   0   6  -6   67.99   17.20
   0   6  -6   64.69   36.70
   0  -6   6   42.40   19.10
   0  -6   6   39.70   22.80
   0  -6   6   53.69   18.80
   0  -6   6   64.89   34.70
  -1   6  -6   11.00   32.80
  -1   6  -6   93.89   21.20
  -1   6  -6   30.10   38.10
  -1   6  -6   60.19   20.70
  -1   6  -6   26.70   33.80
   1  -6   6   11.20   17.00
   1  -6   6   98.29   32.20
   1  -6   6   59.89   19.30
  -2   6  -6   83.89   36.40
  -2   6  -6   66.59   19.10
  -2   6  -6   24.40   26.10
  -2   6  -6  -21.30   24.90
   2  -6   6   32.90   20.60
   2  -6   6   50.69   19.90
  -3   6  -6   31.30   47.20
  -3   6  -6   48.90   29.30
  -3   6  -6   51.19   33.00
   3  -6   6   44.10   17.00
   3  -6   6   34.30   20.20
   3  -6   6   24.70   25.50
  -4   6  -6   23.20   31.70
  -4   6  -6   32.30   38.60
  -4   6  -6   -5.70   29.50
   4  -6   6   22.60   15.40
   4  -6   6    3.40   14.30
   4  -6   6  -18.60   20.60
  -5   6  -6  117.39   58.99
  -5   6  -6   48.50   55.59
  -5   6  -6   24.90   42.10
   5  -6   6   71.19   33.40
   5  -6   6   50.49   21.10
   5  -6   6   86.79   30.50
  -6   6  -6  137.29   72.69
  -6   6  -6  234.68   65.79
  -6   6  -6  183.38   76.19
   6  -6   6  123.09   47.30
   6  -6   6  136.59   33.00
   7   5  -6  150.58   66.99
   7   5  -6   94.19   39.90
   7   5  -6   67.59   17.30
  -7  -5   6    9.80   30.30
  -7  -5   6   35.30   27.50
  -7  -5   6  103.29   30.10
   6   5  -6  150.28   28.30
   6   5  -6  105.19   46.00
   6   5  -6  120.89   63.89
  -6  -5   6  158.68   50.89
  -6  -5   6  138.29   34.70
  -6  -5   6  132.49   49.10
   5   5  -6   32.60   12.20
   5   5  -6   20.20   38.10
   5   5  -6   14.60   22.90
  -5  -5   6   41.70   28.10
  -5  -5   6   32.10   26.30
  -5  -5   6   12.90   16.00
   4   5  -6   31.00   14.30
   4   5  -6   15.50    9.80
   4   5  -6  -38.80   33.20
   4   5  -6   44.10   31.90
  -4  -5   6    8.70   19.80
  -4  -5   6   17.00   15.70
  -4  -5   6   12.60   17.40
   3   5  -6  313.97   27.80
   3   5  -6  160.98   68.89
   3   5  -6  393.26   36.30
   3   5  -6  310.17   18.60
   3   5  -6  185.28   88.39
   3   5  -6  296.87   28.40
   3   5  -6  290.57   43.30
  -3  -5   6  311.67   27.20
  -3  -5   6  254.07   51.39
  -3  -5   6  289.77   69.89
  -3  -5   6  221.48   63.19
   2   5  -6  755.52   63.79
   2   5  -6  757.02  118.59
   2   5  -6  810.82   54.49
   2   5  -6  744.23   47.80
  -2  -5   6  769.72   93.39
  -2  -5   6  689.13   75.49
  -2  -5   6  806.22   49.30
  -2  -5   6  736.03   90.39
   1   5  -6  932.71   58.09
   1   5  -6  870.61   52.89
   1   5  -6  832.82   58.69
   1   5  -6  663.13  106.59
  -1  -5   6  728.73   89.79
  -1  -5   6  883.11   55.19
  -1  -5   6  801.42   94.79
  -1  -5   6  839.82   74.59
  -1  -5   6  946.11   61.39
   0   5  -6  505.95   36.90
   0   5  -6  451.45   49.40
   0   5  -6  513.05   38.40
   0   5  -6  316.87   86.89
   0  -5   6  580.94   44.60
   0  -5   6  420.56   68.69
   0  -5   6  547.35   51.99
   0  -5   6  485.75   57.49
  -1   5  -6  181.98   25.30
  -1   5  -6  172.38   17.00
  -1   5  -6   85.39   51.69
  -1   5  -6  133.59   54.19
  -1   5  -6   78.69   42.40
   1  -5   6  140.19   40.20
   1  -5   6  194.48   26.20
   1  -5   6  190.38   36.40
   1  -5   6  197.88   60.29
  -2   5  -6   96.89   21.70
  -2   5  -6   44.10   36.90
  -2   5  -6   81.59   53.59
  -2   5  -6  161.18   65.79
   2  -5   6  125.69   27.40
   2  -5   6  119.79   36.50
   2  -5   6  106.79   32.30
   2  -5   6  124.49   34.80
  -3   5  -6   32.70   12.40
  -3   5  -6   15.70   25.90
  -3   5  -6   -5.30   28.20
  -3   5  -6   95.99   34.70
  -3   5  -6   10.70   30.00
   3  -5   6   29.20   17.30
   3  -5   6   43.60   24.40
   3  -5   6    8.90   14.20
   3  -5   6    9.90   10.90
  -4   5  -6    2.40   41.60
  -4   5  -6   -0.10   31.50
  -4   5  -6   36.90   29.10
   4  -5   6   31.90   23.00
   4  -5   6   -1.10   19.60
   4  -5   6   47.20   15.20
  -5   5  -6   45.70   38.70
  -5   5  -6   10.10   40.80
  -5   5  -6    3.80   33.50
   5  -5   6   -3.70   10.10
   5  -5   6    6.70   18.00
   5  -5   6   -9.50   17.00
  -6   5  -6   -3.70   30.60
  -6   5  -6   90.99   60.99
  -6   5  -6   -0.20   42.40
   6  -5   6   32.10   23.10
   6  -5   6    8.20   34.70
   6  -5   6    0.60   12.40
  -7   5  -6  -38.10   47.70
  -7   5  -6    8.90   36.70
  -7   5  -6  -75.09   40.10
   7  -5   6  -11.20   12.90
   7  -5   6   -6.70   24.40
   7   4  -6  117.39   25.90
   7   4  -6  123.89   45.90
   7   4  -6  -22.00   58.09
  -7  -4   6  115.19   43.60
  -7  -4   6   81.49   38.10
  -7  -4   6   88.79   31.60
   6   4  -6  123.69   48.30
   6   4  -6   85.99   57.19
   6   4  -6  169.88   31.80
  -6  -4   6  127.69   35.30
  -6  -4   6  136.49   56.99
  -6  -4   6  210.98   59.19
   5   4  -6  131.29   45.00
   5   4  -6  128.39   18.30
   5   4  -6  104.99   53.19
  -5  -4   6  108.19   38.50
  -5  -4   6  103.09   39.80
  -5  -4   6   85.69   27.50
   4   4  -6  613.54  117.09
   4   4  -6  716.03   80.69
   4   4  -6  755.02   44.60
  -4  -4   6  718.53   84.59
  -4  -4   6  689.53   62.59
  -4  -4   6  731.43   91.39
   3   4  -6   52.79   25.80
   3   4  -6   70.69   49.50
   3   4  -6   76.29   10.20
   3   4  -6    5.40   23.90
   3   4  -6   62.29   13.90
  -3  -4   6   46.40   28.60
  -3  -4   6   51.89   30.50
  -3  -4   6   72.19   25.50
  -3  -4   6   52.59   11.90
   2   4  -6  412.36   22.20
   2   4  -6  422.66   46.70
   2   4  -6  315.77   89.49
   2   4  -6  461.15   34.80
   2   4  -6  512.65   42.60
  -2  -4   6  449.36   50.39
  -2  -4   6  425.96   30.70
  -2  -4   6  394.26   63.09
  -2  -4   6  431.26   64.19
   1   4  -6  874.11   45.60
   1   4  -6  574.44   93.39
   1   4  -6  760.22   57.89
   1   4  -6  794.92   45.40
   1   4  -6  889.01   66.49
  -1  -4   6  821.42   47.70
  -1  -4   6  748.73   87.49
  -1  -4   6  741.43   65.79
  -1  -4   6  920.81   73.89
  -1  -4   6  678.63   82.09
   0   4  -6   71.39   50.09
   0   4  -6  103.39   47.10
   0   4  -6  209.88   19.50
   0   4  -6  198.28   26.60
   0   4  -6  229.08   23.40
   0  -4   6  196.88   41.60
   0  -4   6  225.58   34.10
   0  -4   6  153.28   21.30
  -1   4  -6  185.28   20.30
  -1   4  -6  181.88   23.30
  -1   4  -6   92.69   47.50
  -1   4  -6   85.29   43.90
  -1   4  -6  133.39   67.59
  -1   4  -6  197.98   17.80
   1  -4   6  195.98   24.30
   1  -4   6  169.68   38.40
   1  -4   6  183.18   53.79
   1  -4   6  236.88   29.80
  -2   4  -6  111.09   68.09
  -2   4  -6  219.18   27.70
  -2   4  -6  110.29   54.09
  -2   4  -6  172.08   51.09
   2  -4   6  252.07   51.39
   2  -4   6  202.38   26.60
   2  -4   6  233.78   34.50
   2  -4   6  289.47   46.90
  -3   4  -6  118.59   55.49
  -3   4  -6  102.19   63.49
  -3   4  -6  144.29   49.40
   3  -4   6  170.08   44.30
   3  -4   6  113.89   23.90
   3  -4   6  156.48   37.50
   3  -4   6  152.78   38.20
  -4   4  -6   76.89   55.49
  -4   4  -6  144.59   52.09
  -4   4  -6  296.07   46.40
  -4   4  -6  115.59   60.99
   4  -4   6  174.98   32.70
   4  -4   6  211.98   36.30
   4  -4   6  186.58   46.60
   4  -4   6  190.68   43.20
  -5   4  -6  636.64  159.58
  -5   4  -6  464.15  128.89
  -5   4  -6  578.84  117.49
   5  -4   6  704.63   57.79
   5  -4   6  625.64   70.49
   5  -4   6  734.83   75.59
  -6   4  -6  404.36   97.79
  -6   4  -6  384.76  111.69
  -6   4  -6  272.97  101.69
   6  -4   6  392.96   57.69
   6  -4   6  364.26   53.99
   6  -4   6  394.06   44.70
  -7   4  -6  125.89   73.39
  -7   4  -6  224.28   82.19
  -7   4  -6  157.48   73.49
   7  -4   6  125.89   32.10
   7  -4   6  149.29   44.00
   7   3  -6   18.30   12.60
   7   3  -6   13.10   58.29
   7   3  -6   54.99   38.10
  -7  -3   6   16.10   25.20
  -7  -3   6   26.00   24.50
  -7  -3   6   -4.50   18.10
   6   3  -6   56.79   43.80
   6   3  -6   51.69   22.30
  -6  -3   6    7.80   14.60
  -6  -3   6   28.20   28.30
  -6  -3   6   33.20   22.50
   5   3  -6   -7.50    6.50
   5   3  -6    4.30   23.70
   5   3  -6   20.90   36.00
  -5  -3   6   -5.30   16.60
  -5  -3   6    9.80   16.30
  -5  -3   6  -11.50   10.30
   4   3  -6  616.34  115.09
   4   3  -6  561.04   73.59
   4   3  -6  566.44   37.50
  -4  -3   6  643.04   82.59
  -4  -3   6  578.44   54.09
  -4  -3   6  638.24   76.39
   3   3  -6   60.59   16.50
   3   3  -6   77.79   10.60
   3   3  -6   96.49   32.10
   3   3  -6   46.00   36.90
  -3  -3   6   52.39   20.20
  -3  -3   6   91.69   33.30
  -3  -3   6   71.29   32.30
  -3  -3   6   69.39   17.10
   2   3  -6   22.40    9.40
   2   3  -6   16.00    5.20
   2   3  -6    8.00   26.20
   2   3  -6    3.20   13.10
   2   3  -6    7.70   26.40
  -2  -3   6   17.60   16.40
  -2  -3   6   24.30   15.80
  -2  -3   6   30.00    6.50
  -2  -3   6    9.20   15.40
   1   3  -6  231.58   32.40
   1   3  -6  187.28   16.90
   1   3  -6  199.08   14.20
   1   3  -6  143.99   60.29
   1   3  -6  217.48   15.30
   1   3  -6  221.48   26.50
  -1  -3   6  203.78   19.00
  -1  -3   6  157.28   43.50
  -1  -3   6  223.58   55.09
  -1  -3   6  215.88   33.40
  -1  -3   6  235.48   26.90
   0   3  -6   42.00   13.40
   0   3  -6   58.09    9.90
   0   3  -6   48.40   11.50
   0   3  -6   55.99   14.80
   0   3  -6   18.40   22.30
   0   3  -6   12.60   22.10
   0  -3   6   81.29   12.00
   0  -3   6   54.09   12.20
   0  -3   6   61.19   14.70
   0  -3   6   49.50   25.30
   0  -3   6   50.49   19.80
  -1   3  -6   78.69   33.30
  -1   3  -6   34.70   12.70
  -1   3  -6   62.29   12.50
  -1   3  -6   26.10   31.40
  -1   3  -6    1.00   27.70
  -1   3  -6   59.89    8.40
   1  -3   6   53.49   14.30
   1  -3   6   57.09   13.90
   1  -3   6   26.00   20.60
   1  -3   6   45.00   18.90
  -2   3  -6  659.83   37.40
  -2   3  -6  445.86   79.89
   2  -3   6  707.73   81.19
   2  -3   6  579.24   75.39
   2  -3   6  610.64   59.69
   2  -3   6  631.94   49.70
   2  -3   6  596.94   42.00
  -3   3  -6  154.08   66.39
  -3   3  -6  290.77   52.59
  -3   3  -6   70.29   47.30
   3  -3   6  182.18   23.40
   3  -3   6  187.28   50.99
   3  -3   6  127.59   41.70
   3  -3   6  215.68   38.80
  -4   3  -6  368.06  110.09
  -4   3  -6  519.35   70.39
   4  -3   6  461.05   51.19
   4  -3   6  376.86   65.49
   4  -3   6  398.06   50.89
   4  -3   6  536.25   43.60
  -5   3  -6  483.25   52.59
  -5   3  -6  360.36  107.89
  -5   3  -6  223.38   85.79
  -5   3  -6  374.96   93.69
   5  -3   6  403.66   53.29
   5  -3   6  408.26   40.50
   5  -3   6  332.47   61.79
   5  -3   6  394.06   50.49
  -6   3  -6  265.87   74.29
  -6   3  -6  315.47  102.49
  -6   3  -6  189.68   69.39
  -6   3  -6  264.87   36.10
   6  -3   6  300.37   46.60
   6  -3   6  277.27   42.50
   6  -3   6  239.38   28.50
   6  -3   6  266.67   33.70
  -7   3  -6   85.19   75.89
  -7   3  -6  158.28   63.49
  -7   3  -6   80.29   55.19
   7  -3   6  152.88   39.20
   7  -3   6  117.39   28.90
  -8   3  -6  -37.20   49.50
  -8   3  -6    3.50   50.79
  -8   3  -6   26.40   47.00
   8  -3   6   42.00   26.90
   8  -3   6    5.40   15.00
   8  -3   6  -37.80   33.30
   7   2  -6   19.90   17.80
   7   2  -6   42.00   64.79
   7   2  -6   24.80   36.60
  -7  -2   6   44.90   28.40
  -7  -2   6   27.70   22.10
  -7  -2   6   47.60   27.20
   6   2  -6   55.79   36.10
   6   2  -6   -6.60   40.30
   6   2  -6   22.20   17.30
  -6  -2   6   12.80   17.60
  -6  -2   6   59.19   38.20
   5   2  -6  165.18   51.29
   5   2  -6  118.39   59.99
   5   2  -6  151.18   23.80
  -5  -2   6  162.08   46.50
  -5  -2   6  109.19   27.00
  -5  -2   6  114.59   44.70
   4   2  -6  774.22   91.79
   4   2  -6  692.73   45.10
   4   2  -6  479.65  116.59
  -4  -2   6  752.82   57.59
  -4  -2   6  778.12   79.29
  -4  -2   6  829.52   91.39
   3   2  -6  916.61   90.39
   3   2  -6  862.71   43.70
   3   2  -6  736.13  121.19
  -3  -2   6  934.51   84.59
  -3  -2   6  961.40   64.89
  -3  -2   6  874.31   51.89
  -3  -2   6  942.81   92.69
   2   2  -6   65.69   41.00
   2   2  -6  146.69   59.59
   2   2  -6  124.99   19.60
   2   2  -6  186.18   42.00
   2   2  -6  147.89   11.00
   2   2  -6  169.78   13.20
  -2  -2   6  131.89   12.00
  -2  -2   6  129.39   40.00
  -2  -2   6  128.29   35.70
  -2  -2   6  143.59   31.50
  -2  -2   6  124.49   16.90
   1   2  -6   27.90    4.60
   1   2  -6   35.10   33.80
   1   2  -6   17.00   24.40
   1   2  -6    9.50   12.70
  -1  -2   6   26.20    6.20
  -1  -2   6   17.50    7.90
  -1  -2   6   31.30   19.20
  -1  -2   6   25.50   17.40
  -1  -2   6   15.50   11.60
   0   2  -6  109.89   50.69
   0   2  -6  202.28   28.70
   0   2  -6  186.38   14.10
   0  -2   6  176.58   44.50
   0  -2   6  187.28   17.40
   0  -2   6  166.18   26.30
   0  -2   6  163.08   18.80
  -1   2  -6   52.59   29.20
  -1   2  -6  122.79   17.80
  -1   2  -6  115.09   10.40
  -1   2  -6   47.50   34.40
  -1   2  -6   97.89   13.20
   1  -2   6   84.29   23.60
   1  -2   6   88.49   29.60
   1  -2   6  114.89   15.50
   1  -2   6   95.29   12.10
   1  -2   6  101.29   13.80
  -2   2  -6   86.49   10.00
  -2   2  -6   66.59   29.90
  -2   2  -6   39.00   29.90
   2  -2   6   44.50   11.90
   2  -2   6   57.19   30.30
   2  -2   6   93.49   34.00
   2  -2   6   77.19   17.00
   2  -2   6   95.69   28.30
  -3   2  -6  588.84   36.50
   3  -2   6  551.34   43.30
   3  -2   6  384.36   69.29
   3  -2   6  528.25   38.00
   3  -2   6  537.85   54.69
  -4   2  -6   52.79   43.20
  -4   2  -6  139.69   50.09
   4  -2   6   30.90   25.10
   4  -2   6   74.29   23.80
   4  -2   6  102.59   24.80
   4  -2   6  107.79   20.70
  -5   2  -6  -22.60   27.90
  -5   2  -6   38.70   24.40
  -5   2  -6   36.50   27.70
   5  -2   6   22.00   15.80
   5  -2   6   47.80   26.90
   5  -2   6   18.60   10.40
   5  -2   6    8.40   11.40
  -6   2  -6   -4.80   34.80
  -6   2  -6   12.10   22.90
  -6   2  -6  -10.90   23.90
  -6   2  -6   32.00   14.40
   6  -2   6   -3.00   12.80
   6  -2   6   -3.70   13.20
   6  -2   6   16.90   13.20
   6  -2   6    7.40    5.50
  -7   2  -6  -24.70   42.20
  -7   2  -6   62.89   31.20
  -7   2  -6  -11.90   27.70
  -7   2  -6   75.29   24.40
   7  -2   6   48.40   15.20
   7  -2   6   49.70   22.50
   7  -2   6   36.20   24.10
  -8   2  -6   11.60   44.50
  -8   2  -6   24.40   51.49
  -8   2  -6    6.70   16.10
  -8   2  -6   29.90   34.20
   8  -2   6   -1.90   20.30
   8  -2   6   -6.60   12.40
   8  -2   6  -11.20   31.00
   7   1  -6   51.39   23.70
   7   1  -6  -69.49   52.79
  -7  -1   6   52.59   36.30
  -7  -1   6   89.89   26.30
  -7  -1   6   46.00   25.70
   6   1  -6   16.80   32.70
   6   1  -6  -36.90   33.90
   6   1  -6   36.40   13.80
  -6  -1   6   18.70   19.60
  -6  -1   6    2.90   19.20
  -6  -1   6   34.50   15.90
   5   1  -6   74.09   44.80
   5   1  -6  131.69   27.30
   5   1  -6  100.29   48.30
  -5  -1   6  133.59   40.50
  -5  -1   6  123.09   38.30
  -5  -1   6  120.49   41.50
   4   1  -6  320.37   30.80
   4   1  -6  145.79   68.99
   4   1  -6  373.26   80.39
  -4  -1   6  320.67   51.19
  -4  -1   6  337.67   35.50
  -4  -1   6  344.07   56.79
   3   1  -6   57.99   26.60
   3   1  -6    5.20   25.80
   3   1  -6   38.10    9.60
  -3  -1   6   65.09   14.40
  -3  -1   6   18.50   18.10
  -3  -1   6   14.70   10.50
  -3  -1   6   31.30   18.30
   2   1  -6  288.27   44.60
   2   1  -6  247.28   15.80
   2   1  -6  167.48   64.99
   2   1  -6  227.68   18.60
   2   1  -6  124.49   53.89
  -2  -1   6  245.08   43.00
  -2  -1   6  251.47   40.80
  -2  -1   6  261.27   13.80
  -2  -1   6  242.68   20.30
  -2  -1   6  222.78   27.90
   1   1  -6  372.26   20.30
   1   1  -6  356.86   46.00
   1   1  -6  260.47   81.29
  -1  -1   6  348.07   46.10
  -1  -1   6  356.76   20.00
  -1  -1   6  301.17   48.90
  -1  -1   6  363.36   35.60
   0   1  -6  156.48   13.50
   0   1  -6   45.90   35.00
   0   1  -6  106.39   47.40
   0   1  -6  192.88   29.70
   0  -1   6  134.39   12.70
   0  -1   6   91.09   28.50
   0  -1   6  138.89   29.40
   0  -1   6  132.49   28.10
  -1   1  -6 1322.47   51.39
  -1   1  -6 1314.47   70.39
   1  -1   6 1265.07   58.49
   1  -1   6 1180.08   51.79
   1  -1   6 1169.88   92.29
   1  -1   6 1252.77   75.79
  -2   1  -6 1087.29   46.10
   2  -1   6 1141.29   50.99
   2  -1   6 1063.19   71.09
   2  -1   6 1000.90   49.00
   2  -1   6 1029.80   86.59
   2  -1   6  779.92  124.99
  -3   1  -6  718.63  122.29
  -3   1  -6 1082.79   53.19
  -3   1  -6 1121.19  117.59
   3  -1   6 1141.19   57.59
   3  -1   6 1120.49   54.59
   3  -1   6 1078.09   74.09
  -4   1  -6 1596.94  138.59
  -4   1  -6 1299.37  171.68
  -4   1  -6 1272.17  143.79
   4  -1   6 1511.45   76.79
   4  -1   6 1564.74   70.19
   4  -1   6 1533.35   93.19
   4  -1   6 1106.49  150.68
  -5   1  -6  720.43  133.99
  -5   1  -6  689.23   83.09
   5  -1   6  573.34   41.80
   5  -1   6  610.44   49.40
   5  -1   6  542.55   54.99
   5  -1   6  575.74   44.70
   5  -1   6  556.74   38.70
  -6   1  -6  235.18   54.59
  -6   1  -6  209.08   82.19
  -6   1  -6   98.79   53.89
  -6   1  -6  271.07   66.69
   6  -1   6  195.88   28.30
   6  -1   6  193.88   30.70
   6  -1   6  204.58   32.70
   6  -1   6  158.88   27.10
  -7   1  -6  -11.40   23.50
  -7   1  -6   28.00   52.19
  -7   1  -6   34.10   18.80
  -7   1  -6    9.70   31.20
   7  -1   6   -7.20   11.00
   7  -1   6    0.00    7.40
   7  -1   6   -1.60   16.60
   7  -1   6   15.90   21.80
  -8   1  -6  139.69   33.30
  -8   1  -6  155.08   55.29
  -8   1  -6  116.39   63.59
  -8   1  -6   68.79   57.19
   8  -1   6   92.09   39.50
   8  -1   6   25.40   22.30
   8  -1   6   82.39   22.40
  -9   1  -6  -60.59   45.80
  -9   1  -6   13.40   50.99
  -9   1  -6   63.79   28.40
   9  -1   6   21.80   25.10
   9  -1   6   43.30   15.10
   9  -1   6  -39.20   45.70
   7   0  -6   23.10   19.30
   7   0  -6  -52.49   31.90
   7   0  -6   32.40   61.99
  -7   0   6   10.50   22.70
  -7   0   6   41.50   30.50
  -7   0   6  -21.60   14.40
   6   0  -6   -6.80   17.40
   6   0  -6  -61.59   42.10
   6   0  -6   48.90   27.80
  -6   0   6   30.60   23.70
  -6   0   6   82.09   35.50
  -6   0   6   41.20   16.00
   5   0  -6   40.60   16.80
   5   0  -6   59.39   36.80
   5   0  -6  -31.90   41.30
  -5   0   6   66.49   27.20
  -5   0   6   68.79   26.80
  -5   0   6   67.09   20.30
   4   0  -6  143.49   47.50
   4   0  -6   76.79   51.79
   4   0  -6   84.99   21.00
  -4   0   6   90.29   35.30
  -4   0   6  133.09   34.90
  -4   0   6   97.99   26.00
   3   0  -6   90.29   37.90
   3   0  -6   88.69   21.60
   3   0  -6   28.60   26.90
  -3   0   6  129.09   37.30
  -3   0   6   76.79   15.90
  -3   0   6  122.49   26.10
  -3   0   6   95.29   27.10
   2   0  -6  484.85   33.00
   2   0  -6  603.94   72.29
   2   0  -6  509.75   26.80
  -2   0   6  546.45   41.80
  -2   0   6  459.05   58.69
  -2   0   6  498.05   54.39
  -2   0   6  587.74   31.20
  -2   0   6  500.55   26.20
  -2   0   6  535.25   21.40
   1   0  -6  137.99   12.00
   1   0  -6   98.99   10.50
   1   0  -6   73.79   40.70
   1   0  -6  148.99   40.40
  -1   0   6  101.49    9.30
  -1   0   6  118.29   18.80
  -1   0   6  112.59    9.50
  -1   0   6   62.79   22.70
  -1   0   6   69.29   26.70
   0   0  -6  295.87   20.70
   0   0  -6  288.17   38.40
   0   0  -6  167.88   62.29
   0   0   6  271.67   17.40
   0   0   6  312.17   44.80
   0   0   6  267.97   38.50
   0   0   6  269.37   28.90
   0   0   6  331.97   39.30
  -1   0  -6 1711.23   96.89
  -1   0  -6 1663.83   63.09
  -1   0  -6 1517.85   97.89
   1   0   6 1587.94  102.59
   1   0   6 1578.34   81.29
   1   0   6 1866.31   92.49
   1   0   6 1650.13   60.89
  -2   0  -6  416.66   75.79
  -2   0  -6  615.74   33.50
  -2   0  -6  559.14   40.10
  -2   0  -6  561.94   52.49
   2   0   6  612.74   29.70
   2   0   6  563.54   31.60
   2   0   6  571.14   46.60
   2   0   6  580.34   58.99
   2   0   6  546.25   42.30
  -3   0  -6  925.41   43.90
  -3   0  -6  904.81  109.29
  -3   0  -6  954.40   49.90
   3   0   6  967.10   80.19
   3   0   6  838.22   43.70
   3   0   6  875.41   61.99
   3   0   6  918.11   46.60
   3   0   6  876.31   50.99
  -4   0  -6  905.61  131.99
  -4   0  -6 1143.09  117.39
  -4   0  -6  846.12  111.89
   4   0   6  977.20   55.89
   4   0   6 1038.50   51.59
   4   0   6  973.00   44.70
   4   0   6 1072.59   71.19
   4   0   6  999.70   55.69
  -5   0  -6  362.06  103.39
  -5   0  -6  458.15   73.69
  -5   0  -6  332.97   85.69
   5   0   6  422.66   35.70
   5   0   6  342.07   30.30
   5   0   6  414.16   38.50
   5   0   6  389.06   34.10
   5   0   6  420.16   44.90
  -6   0  -6   61.09   51.39
  -6   0  -6   62.39   33.40
  -6   0  -6   70.29   29.20
   6   0   6   57.99   18.70
   6   0   6   44.30   20.50
   6   0   6   90.09   27.00
   6   0   6   29.30   15.10
   6   0   6   58.69   15.80
  -7   0  -6   14.30   29.70
  -7   0  -6   13.60   28.00
  -7   0  -6    2.20   32.40
  -7   0  -6   -6.00   12.50
   7   0   6   -7.20    6.20
   7   0   6  -12.10   19.60
   7   0   6   -2.60    8.30
   7   0   6    6.90   11.70
  -8   0  -6   -7.70   38.00
  -8   0  -6  -13.60   37.70
  -8   0  -6   34.90   31.60
  -8   0  -6   -0.30   22.50
   8   0   6    6.00   16.30
   8   0   6    1.20   24.20
   8   0   6   -3.20    6.90
   8   0   6    7.00   12.30
  -9   0  -6  146.49   86.09
  -9   0  -6   89.59   33.40
  -9   0  -6   62.19   66.39
   9   0   6   86.59   29.80
   9   0   6  105.59   45.00
   9   0   6  133.59   27.10
   7  -1  -6   28.90   41.60
   7  -1  -6 -113.89   65.09
   7  -1  -6   66.69   26.80
  -7   1   6   77.99   27.90
  -7   1   6   31.10   23.20
  -7   1   6   56.49   31.20
   6  -1  -6   98.39   32.70
   6  -1  -6  136.49   64.89
   6  -1  -6   22.00   58.89
  -6   1   6  129.59   40.70
  -6   1   6   69.39   33.80
  -6   1   6  125.19   27.50
   5  -1  -6   69.39   63.09
   5  -1  -6   74.49   50.79
   5  -1  -6  139.29   29.30
  -5   1   6  128.79   28.40
  -5   1   6  116.49   39.20
  -5   1   6   93.89   30.50
   4  -1  -6   37.10   15.10
   4  -1  -6   41.80   25.00
  -4   1   6   61.29   20.20
  -4   1   6   55.29   27.50
  -4   1   6   70.59   32.70
   3  -1  -6    6.30   24.10
   3  -1  -6  -10.80   15.50
   3  -1  -6    9.00    8.30
  -3   1   6    9.50   11.50
  -3   1   6   -0.40   10.80
  -3   1   6   -3.90    6.70
   2  -1  -6  -36.20   18.60
   2  -1  -6   45.60   16.90
   2  -1  -6   24.60    6.30
   2  -1  -6   10.40    6.40
  -2   1   6   22.60    8.60
  -2   1   6    8.40   14.10
  -2   1   6    7.60   12.50
  -2   1   6   12.20    4.30
  -2   1   6   14.00    5.90
  -2   1   6   18.60   10.10
   1  -1  -6   63.69   13.10
   1  -1  -6   62.79   11.40
   1  -1  -6   72.79   27.30
   1  -1  -6   62.89   41.30
  -1   1   6   61.49   10.50
  -1   1   6   59.29   20.70
  -1   1   6   63.39   16.50
  -1   1   6   39.50   18.80
  -1   1   6   62.39    9.40
   0  -1  -6  279.77   28.10
   0  -1  -6  284.17   36.50
   0  -1  -6  152.78   60.09
   0  -1  -6  282.47   42.50
   0  -1  -6  257.87   20.00
   0   1   6  300.77   28.50
   0   1   6  274.37   18.10
   0   1   6  243.08   33.70
   0   1   6  283.07   18.90
   0   1   6  283.67   40.40
  -1  -1  -6  216.68   75.59
  -1  -1  -6  437.46   28.30
  -1  -1  -6  416.86   49.30
  -1  -1  -6  392.46   36.60
  -1  -1  -6  388.06   44.00
   1   1   6  250.97   64.69
   1   1   6  415.26   27.60
   1   1   6  404.86   61.39
   1   1   6  370.06   32.80
   1   1   6  368.46   41.80
   1   1   6  415.36   22.30
   1   1   6  412.46   24.20
  -2  -1  -6 1470.25  156.48
  -2  -1  -6 1979.60   79.69
  -2  -1  -6 2023.20   97.79
  -2  -1  -6 1762.72  118.79
   2   1   6 1982.10   82.39
   2   1   6 1809.62  104.79
   2   1   6 1957.50   69.19
   2   1   6 1873.21   87.19
   2   1   6 1915.91   69.99
   2   1   6 2075.49  104.49
  -3  -1  -6  252.07   34.10
  -3  -1  -6  258.77   74.29
  -3  -1  -6  223.88   26.90
  -3  -1  -6  235.18   31.60
  -3  -1  -6  218.88   73.79
   3   1   6  297.87   37.60
   3   1   6  254.27   20.10
   3   1   6  255.47   21.90
   3   1   6  293.27   31.10
   3   1   6  234.18   31.30
  -4  -1  -6  316.87   43.90
  -4  -1  -6  405.86  105.99
  -4  -1  -6  273.17   40.10
  -4  -1  -6  380.96   82.69
  -4  -1  -6  407.96   74.99
   4   1   6  413.16   39.50
   4   1   6  357.06   36.30
   4   1   6  410.16   31.90
   4   1   6  404.16   28.30
   4   1   6  376.96   31.00
  -5  -1  -6  142.29   51.59
  -5  -1  -6   82.39   54.39
  -5  -1  -6  153.68   47.10
   5   1   6   75.29   18.80
   5   1   6   81.99   25.30
   5   1   6  101.39   15.10
   5   1   6  104.79   26.90
  -6  -1  -6   22.10   36.80
  -6  -1  -6   65.59   36.70
  -6  -1  -6   87.89   39.70
   6   1   6   78.39   22.00
   6   1   6   41.90   12.80
   6   1   6   51.59   15.20
   6   1   6   71.99   19.30
   6   1   6   45.20   19.30
  -7  -1  -6   77.69   36.00
  -7  -1  -6   37.10   38.60
  -7  -1  -6   22.00   28.80
  -7  -1  -6   16.20   28.10
   7   1   6   40.70   14.20
   7   1   6   33.00   16.90
   7   1   6   25.40   16.00
   7   1   6   51.99   23.50
  -8  -1  -6   48.40   31.20
  -8  -1  -6   60.49   41.80
  -8  -1  -6   15.20   37.40
  -8  -1  -6   -1.80   19.20
   8   1   6   53.09   15.90
   8   1   6    1.70    8.50
   8   1   6  -13.10    8.80
   8   1   6  -12.00   36.30
  -9  -1  -6  -56.29   38.10
  -9  -1  -6  -45.50   32.40
  -9  -1  -6  -10.40   33.30
  -9  -1  -6  -12.30   24.70
   9   1   6   17.60   32.90
   9   1   6    9.20   10.60
   9   1   6    3.80   16.70
   6  -2  -6   67.69   41.10
   6  -2  -6    8.20   59.39
   6  -2  -6   57.69   30.60
  -6   2   6   49.50   33.20
  -6   2   6  105.19   29.50
  -6   2   6   76.79   38.20
   5  -2  -6  176.08   68.79
   5  -2  -6  222.58   44.60
  -5   2   6  280.77   36.30
  -5   2   6  149.19   42.80
   4  -2  -6   81.19   37.70
   4  -2  -6   23.40   33.60
   4  -2  -6   80.09   24.50
  -4   2   6   65.59   25.10
  -4   2   6   72.89   11.00
  -4   2   6   42.70   18.50
  -4   2   6   52.79   15.40
  -4   2   6   49.80   26.20
   3  -2  -6  178.38   27.50
   3  -2  -6  222.48   62.39
  -3   2   6  134.99   33.10
  -3   2   6  131.09   14.50
  -3   2   6  124.19   14.70
  -3   2   6  138.09   35.20
  -3   2   6  146.89   40.10
   2  -2  -6  327.27   36.30
   2  -2  -6  394.16   80.89
  -2   2   6  355.46   24.20
  -2   2   6  381.06   39.50
  -2   2   6  397.36   28.30
  -2   2   6  426.56   33.10
  -2   2   6  393.36   49.00
   1  -2  -6  580.74   45.00
   1  -2  -6  664.33   76.99
   1  -2  -6  622.84   51.49
   1  -2  -6  708.03   40.30
  -1   2   6  666.13   48.30
  -1   2   6  606.74   32.50
  -1   2   6  679.03   57.49
  -1   2   6  547.35   57.19
  -1   2   6  623.84   38.00
  -1   2   6  647.54   44.70
   0  -2  -6 1982.40  132.39
   0  -2  -6 2162.48   85.59
   0  -2  -6 2066.59  105.89
   0  -2  -6 1998.70   89.19
   0   2   6 2059.59   74.89
   0   2   6 2112.39   92.19
   0   2   6 2209.78   86.29
   0   2   6 2190.08  106.19
  -1  -2  -6 2527.15  159.88
  -1  -2  -6 2584.64  130.19
  -1  -2  -6 2495.45  101.49
  -1  -2  -6 2684.03  100.19
  -1  -2  -6 2735.33  111.19
   1   2   6 2688.03  104.59
   1   2   6 2544.35  119.09
   1   2   6 2507.25  102.79
   1   2   6 2836.72  150.08
   1   2   6 2687.33  100.29
   1   2   6 2615.44   90.99
  -2  -2  -6 2020.00  187.68
  -2  -2  -6 2430.96   99.89
  -2  -2  -6 2361.36  122.79
   2   2   6 2301.07   95.79
   2   2   6 2506.85  131.89
   2   2   6 2478.05  103.79
   2   2   6 2273.17  112.09
   2   2   6 2323.37   84.09
  -3  -2  -6  499.95  111.59
  -3  -2  -6  771.32   50.49
  -3  -2  -6  636.74   48.10
  -3  -2  -6  778.62  107.59
  -3  -2  -6  732.33   57.89
   3   2   6  706.23   52.39
   3   2   6  649.14   36.70
   3   2   6  892.91   98.69
   3   2   6  731.53   47.00
   3   2   6  653.03   54.39
   3   2   6  702.03   42.50
  -4  -2  -6   24.20   27.60
  -4  -2  -6   13.70    9.00
  -4  -2  -6   24.30    9.50
  -4  -2  -6   18.00   25.70
  -4  -2  -6   -5.90   13.90
   4   2   6   29.90   10.40
   4   2   6    2.00    6.80
   4   2   6   14.60    6.70
   4   2   6   32.90   16.90
  -5  -2  -6   44.50   25.60
  -5  -2  -6   79.39   29.50
  -5  -2  -6   53.49   13.50
  -5  -2  -6   31.00   14.90
  -5  -2  -6   35.50   16.10
  -5  -2  -6   71.29   43.70
   5   2   6   43.30   13.50
   5   2   6   50.79   12.10
   5   2   6   75.99   21.90
   5   2   6   51.39   17.40
   5   2   6   25.00   23.70
  -6  -2  -6  348.57   95.79
  -6  -2  -6  268.37   23.70
  -6  -2  -6  298.97   77.09
  -6  -2  -6  259.27   62.29
   6   2   6  279.07   33.00
   6   2   6  277.67   31.20
   6   2   6  304.57   31.30
   6   2   6  249.48   24.80
  -7  -2  -6  134.59   52.29
  -7  -2  -6   53.99   41.90
  -7  -2  -6   88.29   16.70
  -7  -2  -6  132.99   54.69
   7   2   6   75.09   21.30
   7   2   6   94.09   19.50
   7   2   6  112.49   26.20
   7   2   6   98.09   26.20
  -8  -2  -6  263.37   85.79
  -8  -2  -6  160.38   50.69
  -8  -2  -6  154.68   61.79
  -8  -2  -6  158.98   21.80
   8   2   6  146.89   41.60
   8   2   6  149.69   35.50
   8   2   6  149.59   26.20
   8   2   6  172.58   26.00
  -9  -2  -6  -22.00   37.90
  -9  -2  -6   13.90   24.80
  -9  -2  -6   16.20   34.30
   9   2   6   -4.60   10.40
   9   2   6    4.90   22.30
   9   2   6   31.60   12.50
 -10  -2  -6  -24.90   41.80
 -10  -2  -6  -27.00   31.50
 -10  -2  -6   21.50   25.70
  10   2   6   31.10   11.60
  10   2   6    3.50   13.60
  10   2   6  -54.69   29.50
   6  -3  -6  -11.60   27.10
   6  -3  -6  -27.40   19.70
   6  -3  -6  -43.90   54.39
  -6   3   6   26.20   27.00
  -6   3   6    2.70   20.00
  -6   3   6  -14.90   17.90
   5  -3  -6  -39.60   22.90
   5  -3  -6   31.80   59.19
   5  -3  -6    6.30   17.80
  -5   3   6   30.70   25.10
  -5   3   6   -6.40   15.90
   4  -3  -6   -9.80   42.20
   4  -3  -6   54.99   21.70
   4  -3  -6   19.00   24.10
  -4   3   6   11.30   21.20
  -4   3   6   17.70    9.10
  -4   3   6   49.20   25.80
  -4   3   6   21.50   15.80
  -4   3   6   -0.70    8.70
   3  -3  -6  245.98   85.69
   3  -3  -6  221.88   32.50
   3  -3  -6  229.88   61.89
  -3   3   6  259.37   40.80
  -3   3   6  252.07   38.00
  -3   3   6  236.98   51.39
  -3   3   6  252.57   23.50
  -3   3   6  229.28   25.30
   2  -3  -6  282.67   33.50
   2  -3  -6  116.49   61.59
   2  -3  -6  316.27   73.39
  -2   3   6  235.68   35.60
  -2   3   6  265.67   25.20
  -2   3   6  313.57   26.80
  -2   3   6  238.88   37.70
  -2   3   6  259.67   39.60
   1  -3  -6  -12.40   10.10
   1  -3  -6   42.80   26.30
   1  -3  -6  -14.10   11.50
   1  -3  -6    7.30    5.70
   1  -3  -6   15.80    7.90
   1  -3  -6   -5.20    8.60
  -1   3   6   19.70   11.20
  -1   3   6   -3.00    6.00
  -1   3   6   -2.60    8.90
  -1   3   6   17.70    4.80
  -1   3   6   -3.70    9.80
  -1   3   6   28.60    9.80
   0  -3  -6   74.39   25.50
   0  -3  -6   14.60    8.00
   0  -3  -6    7.20   11.30
   0  -3  -6   15.10   19.90
   0  -3  -6    5.10   20.40
   0   3   6   21.40   11.00
   0   3   6   28.60    8.30
   0   3   6   29.70   12.20
   0   3   6   28.80   11.90
  -1  -3  -6  124.39   25.20
  -1  -3  -6   50.59   28.60
  -1  -3  -6  118.59   27.20
  -1  -3  -6  145.39   38.00
  -1  -3  -6  147.39   23.30
   1   3   6   91.29   31.60
   1   3   6  145.19   16.80
   1   3   6  139.39   22.00
   1   3   6  108.29   21.80
   1   3   6  107.39   23.00
  -2  -3  -6  164.38   40.40
  -2  -3  -6  156.68   19.90
  -2  -3  -6   93.89   45.40
   2   3   6  130.19   46.80
   2   3   6  127.89   16.00
   2   3   6  156.48   20.30
   2   3   6  138.99   19.60
   2   3   6  169.68   24.20
  -3  -3  -6  948.61   74.59
  -3  -3  -6  869.31  107.99
  -3  -3  -6  962.60  120.29
  -3  -3  -6  938.11   48.60
  -3  -3  -6  901.91   64.89
   3   3   6  951.90   52.19
   3   3   6  847.72   63.39
   3   3   6  923.21   76.99
   3   3   6  881.91   56.99
   3   3   6  938.51   47.10
  -4  -3  -6   50.89   29.30
  -4  -3  -6    6.60   10.30
  -4  -3  -6    2.00    8.00
  -4  -3  -6  -11.00   21.90
  -4  -3  -6   12.20    7.40
  -4  -3  -6   16.10   13.00
   4   3   6  -10.70   16.90
   4   3   6   17.20    7.60
   4   3   6    0.80    5.80
  -5  -3  -6   78.29   17.00
  -5  -3  -6   59.79   17.20
  -5  -3  -6   12.70   30.80
  -5  -3  -6   81.59   30.60
  -5  -3  -6   60.79   21.20
  -5  -3  -6   71.09   38.60
   5   3   6   42.30   11.60
   5   3   6   40.00   14.60
   5   3   6   37.20   16.20
  -6  -3  -6  -12.10   17.70
  -6  -3  -6   -0.30   17.80
  -6  -3  -6    9.60   10.80
  -6  -3  -6    1.50   14.40
  -6  -3  -6   45.00   36.70
  -6  -3  -6   13.30    8.80
   6   3   6   -1.20   20.20
   6   3   6   -1.90    5.40
   6   3   6    4.30    6.20
   6   3   6    9.90    7.50
   6   3   6    4.70    8.20
  -7  -3  -6  423.36   73.69
  -7  -3  -6  411.76   76.79
  -7  -3  -6  408.86   94.09
  -7  -3  -6  325.67   29.80
   7   3   6  421.26   35.60
   7   3   6  354.76   30.70
   7   3   6  318.07   39.00
   7   3   6  365.66   43.20
  -8  -3  -6  488.05   55.39
  -8  -3  -6  492.65   92.29
  -8  -3  -6  497.65   82.29
  -8  -3  -6  435.96   71.59
   8   3   6  494.35   49.60
   8   3   6  346.17   43.90
   8   3   6  495.15   35.20
   8   3   6  426.66   36.70
  -9  -3  -6  194.38   60.29
  -9  -3  -6  263.27   83.39
  -9  -3  -6  308.57   72.69
   9   3   6  214.48   52.79
   9   3   6  318.17   32.00
   9   3   6  313.17   43.90
 -10  -3  -6    7.50   29.30
 -10  -3  -6  109.89   41.90
 -10  -3  -6   83.29   48.20
  10   3   6   69.39   27.90
  10   3   6  104.79   35.00
  10   3   6   62.89   20.10
   6  -4  -6  -26.90   23.30
   6  -4  -6 -130.89   67.69
  -6   4   6   42.70   27.00
  -6   4   6  -10.90   23.90
  -6   4   6  -26.90   18.60
   5  -4  -6    9.60   17.50
   5  -4  -6   -5.60   35.40
  -5   4   6    9.20   14.80
  -5   4   6   45.10   23.30
  -5   4   6    9.50   23.70
  -5   4   6  -13.90   19.90
   4  -4  -6  -23.10   45.60
   4  -4  -6    9.90   26.20
   4  -4  -6   21.80   15.80
  -4   4   6   13.30   12.80
  -4   4   6   23.70   22.60
  -4   4   6   49.60   23.50
   3  -4  -6   60.29   52.89
   3  -4  -6  128.99   32.70
   3  -4  -6   72.19   33.70
  -3   4   6   97.69   31.70
  -3   4   6   58.89   28.20
  -3   4   6   64.09   17.80
  -3   4   6   82.39   26.20
   2  -4  -6  502.15   50.49
   2  -4  -6  563.74   84.09
   2  -4  -6  317.77   98.29
   2  -4  -6  535.65   55.19
  -2   4   6  548.95   41.90
  -2   4   6  574.54   62.29
  -2   4   6  490.35   52.09
  -2   4   6  533.55   57.19
   1  -4  -6   48.90   23.80
   1  -4  -6   28.60   45.30
   1  -4  -6   54.49   29.80
   1  -4  -6   86.49   22.50
   1  -4  -6   92.59   26.80
  -1   4   6   59.99   20.50
  -1   4   6   89.49   28.40
  -1   4   6  104.29   21.40
  -1   4   6   98.99   27.80
   0  -4  -6  383.86   99.19
   0  -4  -6  525.75   73.09
   0  -4  -6  642.74   55.29
   0  -4  -6  625.64   42.00
   0   4   6  651.53   43.50
   0   4   6  571.84   49.40
   0   4   6  562.64   51.79
  -1  -4  -6  129.29   29.60
  -1  -4  -6  112.39   52.19
  -1  -4  -6  147.59   39.90
  -1  -4  -6   90.69   29.90
  -1  -4  -6  145.99   22.30
  -1  -4  -6  147.89   32.20
   1   4   6  154.38   21.60
   1   4   6  138.49   19.20
   1   4   6  171.28   33.10
   1   4   6  169.58   27.30
  -2  -4  -6  107.49   26.70
  -2  -4  -6  101.99   48.80
  -2  -4  -6   89.49   30.40
  -2  -4  -6   93.99   36.70
  -2  -4  -6   92.89   21.40
   2   4   6   57.29   16.80
   2   4   6   85.09   16.10
   2   4   6  111.69   28.60
   2   4   6   95.99   33.20
   2   4   6   99.69   15.20
   2   4   6  117.29   26.30
  -3  -4  -6   39.80   20.60
  -3  -4  -6   39.00   10.30
  -3  -4  -6   36.60   33.90
  -3  -4  -6   57.69   30.60
   3   4   6   32.90   11.60
   3   4   6   79.09   28.50
   3   4   6   32.20   10.30
   3   4   6   44.20    9.70
   3   4   6   21.20   12.00
  -4  -4  -6   35.30   30.20
  -4  -4  -6   15.20   16.40
  -4  -4  -6   18.80   31.60
   4   4   6   14.60    9.40
   4   4   6   24.60    8.70
   4   4   6    6.20    6.20
  -5  -4  -6   28.70   13.30
  -5  -4  -6    7.60   25.30
  -5  -4  -6   20.90   12.60
  -5  -4  -6   -5.00   10.30
  -5  -4  -6   -7.90    7.80
  -5  -4  -6   13.40   23.40
   5   4   6   -3.60    8.80
   5   4   6    5.10    4.80
   5   4   6    1.30    6.80
  -6  -4  -6   13.40   17.80
  -6  -4  -6   37.50   14.30
  -6  -4  -6   26.70   24.10
  -6  -4  -6    2.60    9.00
  -6  -4  -6    6.70   29.80
  -6  -4  -6   -1.10   11.80
   6   4   6   13.30   10.50
   6   4   6    0.90    3.90
   6   4   6   42.70   17.40
   6   4   6   -6.40    8.40
   6   4   6    2.90    8.70
  -7  -4  -6  -16.40   11.00
  -7  -4  -6  -19.40   25.00
  -7  -4  -6    2.30   16.00
  -7  -4  -6   10.30   22.40
  -7  -4  -6   22.40   12.40
   7   4   6   55.59   26.20
   7   4   6    9.70    7.00
   7   4   6   -9.70    9.50
   7   4   6    1.60    8.00
   7   4   6   -6.60   10.40
  -8  -4  -6  126.99   40.00
  -8  -4  -6  138.99   47.90
  -8  -4  -6  141.59   54.99
   8   4   6  107.39   21.00
   8   4   6  144.09   34.90
   8   4   6  116.19   29.50
  -9  -4  -6   88.99   50.99
  -9  -4  -6   92.99   41.40
  -9  -4  -6   50.89   35.60
   9   4   6   45.90   22.50
   9   4   6   75.09   17.50
   9   4   6   50.99   24.00
 -10  -4  -6  -49.99   28.20
 -10  -4  -6   41.10   34.40
 -10  -4  -6   48.10   28.80
  10   4   6  -17.50   11.20
  10   4   6  -38.80   32.00
  10   4   6  -23.90   10.10
   5  -5  -6   55.19   26.50
   5  -5  -6   82.19   41.50
   5  -5  -6   61.79   82.19
  -5   5   6   27.20   22.90
  -5   5   6   -5.20   28.30
  -5   5   6  105.29   33.70
  -5   5   6   39.80   29.40
   4  -5  -6   11.80   55.19
   4  -5  -6   18.10   25.60
   4  -5  -6   29.30   38.70
  -4   5   6   58.09   29.10
  -4   5   6    9.90   16.40
  -4   5   6   64.89   30.00
  -4   5   6   27.80   23.80
   3  -5  -6  127.69   56.59
   3  -5  -6  230.88   46.50
   3  -5  -6  214.78   66.49
  -3   5   6  267.27   57.89
  -3   5   6  286.17   50.79
  -3   5   6  222.38   35.80
  -3   5   6  284.37   41.00
   2  -5  -6  180.28   45.60
   2  -5  -6  115.09   61.89
   2  -5  -6  118.59   45.30
  -2   5   6  197.38   47.20
  -2   5   6  213.78   28.90
  -2   5   6  207.48   48.10
  -2   5   6  269.87   34.20
   1  -5  -6 2092.69   97.89
   1  -5  -6 2392.56  176.18
   1  -5  -6 2266.27  132.19
   1  -5  -6 1786.52  191.98
  -1   5   6 2481.25  107.09
  -1   5   6 2394.16  131.39
  -1   5   6 2434.06  134.59
   0  -5  -6  801.42   43.40
   0  -5  -6  810.52   72.09
   0  -5  -6  827.42   96.49
   0  -5  -6  638.54  114.99
   0   5   6  914.61   71.99
   0   5   6  872.21   56.79
   0   5   6  941.21   66.99
  -1  -5  -6  421.36   81.49
  -1  -5  -6  321.87   25.50
  -1  -5  -6  310.27   40.80
  -1  -5  -6  281.17   84.29
  -1  -5  -6  306.77   42.20
  -1  -5  -6  256.77   39.80
   1   5   6  326.17   41.70
   1   5   6  321.37   32.00
   1   5   6  289.87   30.30
  -2  -5  -6   42.70   35.10
  -2  -5  -6   34.90   13.90
  -2  -5  -6   63.99   28.90
  -2  -5  -6   68.59   21.30
  -2  -5  -6   34.60   14.90
  -2  -5  -6   38.30   17.10
   2   5   6   30.00   16.00
   2   5   6   36.40   13.80
   2   5   6   46.70   12.40
   2   5   6   50.19   15.20
  -3  -5  -6  214.68   49.60
  -3  -5  -6  222.88   44.70
  -3  -5  -6  221.98   68.89
  -3  -5  -6  211.48   40.10
   3   5   6  224.28   26.70
   3   5   6  215.28   32.40
   3   5   6  205.48   25.00
   3   5   6  143.79   49.70
  -4  -5  -6  662.43   74.79
  -4  -5  -6  617.84   70.59
  -4  -5  -6  578.34  154.48
   4   5   6  658.23   43.20
   4   5   6  602.64   54.79
   4   5   6  604.54   63.89
  -5  -5  -6  628.04   67.99
  -5  -5  -6  829.22  108.99
  -5  -5  -6  692.83   85.79
  -5  -5  -6  640.74   70.49
   5   5   6  678.43   41.70
   5   5   6  611.04   59.89
   5   5   6  591.34   42.30
  -6  -5  -6  842.52   81.39
  -6  -5  -6  901.21  117.29
  -6  -5  -6  877.41  101.49
  -6  -5  -6  751.72   56.09
   6   5   6  836.22   74.19
   6   5   6  831.42   66.29
   6   5   6  792.42   47.20
   6   5   6  857.71   51.09
  -7  -5  -6   19.70   27.10
  -7  -5  -6   34.90   15.80
  -7  -5  -6   41.80   20.40
  -7  -5  -6   50.49   32.80
  -7  -5  -6    6.70   16.00
   7   5   6   48.80   20.60
   7   5   6   43.40   12.90
   7   5   6   53.59   20.70
   7   5   6   54.89   13.40
   7   5   6   21.40   16.10
  -8  -5  -6  184.68   60.49
  -8  -5  -6   60.49   28.00
  -8  -5  -6   76.29   27.40
  -8  -5  -6  120.69   50.79
   8   5   6   42.40   40.50
   8   5   6  109.29   32.60
   8   5   6   98.89   20.50
   8   5   6   82.89   25.00
  -9  -5  -6   49.90   29.30
  -9  -5  -6  -14.80   29.80
  -9  -5  -6   34.40   22.40
   9   5   6   20.10   10.80
   9   5   6   15.10   20.90
   9   5   6    7.80   15.70
 -10  -5  -6  108.69   42.20
 -10  -5  -6   36.60   34.60
 -10  -5  -6   16.10   27.50
  10   5   6  -17.40   16.70
  10   5   6    8.80   14.50
  10   5   6    8.10   26.40
   5  -6  -6   51.39   30.60
   5  -6  -6  -30.20   95.99
   5  -6  -6  -15.50   47.60
  -5   6   6   19.20   35.50
  -5   6   6  102.09   40.30
  -5   6   6    7.90   25.30
   4  -6  -6  -54.79   28.30
   4  -6  -6  -83.29   53.99
   4  -6  -6  -22.20   23.70
  -4   6   6   17.80   18.20
  -4   6   6   14.50   26.20
  -4   6   6   -3.50   14.50
  -4   6   6   -6.90   21.50
   3  -6  -6  -13.50   20.50
   3  -6  -6  -54.19   48.10
   3  -6  -6  -37.80   36.90
  -3   6   6  -14.70   15.00
  -3   6   6    9.90   14.80
  -3   6   6  -10.40   13.20
  -3   6   6   19.70   22.30
   2  -6  -6   39.40   29.30
   2  -6  -6   43.50   21.30
   2  -6  -6  -16.30   10.10
   2  -6  -6   37.70   22.40
   2  -6  -6   10.00   37.00
  -2   6   6   14.40   18.90
  -2   6   6    3.00   22.70
  -2   6   6    7.70   12.00
   1  -6  -6  116.19   31.00
   1  -6  -6   73.79   40.80
   1  -6  -6   80.59   51.99
  -1   6   6   96.09   31.80
  -1   6   6   98.59   32.00
  -1   6   6   91.09   25.10
   0  -6  -6  217.78   59.49
   0  -6  -6  200.78   75.89
   0  -6  -6  254.47   53.19
   0   6   6  263.37   40.90
   0   6   6  224.28   30.40
   0   6   6  308.87   47.60
  -1  -6  -6  206.18   72.49
  -1  -6  -6  260.57   73.29
  -1  -6  -6  300.67   70.89
  -1  -6  -6  299.97   46.90
   1   6   6  309.67   33.10
   1   6   6  368.26   37.50
   1   6   6  297.57   52.79
  -2  -6  -6   61.19   26.70
  -2  -6  -6   39.20   19.80
  -2  -6  -6   45.80   29.80
  -2  -6  -6   78.89   39.50
  -2  -6  -6   33.90   12.00
   2   6   6   50.89   18.60
   2   6   6   27.90   17.80
   2   6   6   47.50   15.80
   2   6   6   28.70   35.40
   2   6   6   60.19   14.60
  -3  -6  -6   40.70   18.30
  -3  -6  -6   90.69   28.90
  -3  -6  -6   73.19   57.29
  -3  -6  -6   52.29   26.30
   3   6   6   52.29   19.90
   3   6   6   76.09   19.80
   3   6   6   41.40   25.30
   3   6   6   43.10   19.70
  -4  -6  -6   22.10   18.30
  -4  -6  -6   33.30   34.80
  -4  -6  -6    6.70   19.80
   4   6   6   13.00    9.10
   4   6   6   53.69   25.70
   4   6   6   22.90   18.90
   4   6   6   13.30   12.50
  -5  -6  -6  479.45   87.89
  -5  -6  -6  396.16   58.09
  -5  -6  -6  380.46   73.19
   5   6   6  340.67   45.70
   5   6   6  373.16   35.60
   5   6   6  396.76   31.60
  -6  -6  -6  798.72   86.69
  -6  -6  -6 1046.90  128.19
  -6  -6  -6  953.00   96.09
  -6  -6  -6  892.91   66.49
   6   6   6  970.00   57.49
   6   6   6  954.30   53.19
   6   6   6  861.51   72.29
  -7  -6  -6  509.65   47.00
  -7  -6  -6  474.05   86.79
  -7  -6  -6  429.76   70.39
  -7  -6  -6  351.66   56.59
   7   6   6  468.05   32.60
   7   6   6  426.86   36.10
   7   6   6  319.47   48.50
   7   6   6  366.86   46.20
  -8  -6  -6  208.88   60.89
  -8  -6  -6  236.88   52.19
  -8  -6  -6  229.68   72.39
   8   6   6  211.28   49.60
   8   6   6  156.78   37.10
   8   6   6  236.58   27.10
  -9  -6  -6   18.80   20.30
  -9  -6  -6   90.29   39.50
  -9  -6  -6   58.69   36.40
   9   6   6   45.10   13.30
   9   6   6   40.70   15.90
   9   6   6   -3.30   21.00
 -10  -6  -6   15.80   28.90
 -10  -6  -6  -16.70   21.80
  10   6   6  -14.60   16.30
  10   6   6    1.10    9.60
  10   6   6   -1.10   12.20
   4  -7  -6   83.29   39.80
   4  -7  -6   -4.00   74.79
   4  -7  -6    4.90   39.40
  -4   7   6  114.39   47.30
  -4   7   6   94.39   45.30
  -4   7   6   91.19   30.10
   3  -7  -6  174.68   70.09
   3  -7  -6  272.17   76.19
  -3   7   6  182.88   38.40
  -3   7   6  171.38   54.59
  -3   7   6  177.18   50.39
   2  -7  -6  270.07   85.99
   2  -7  -6  259.17   59.29
   2  -7  -6  123.79   62.99
  -2   7   6  227.58   55.39
  -2   7   6  237.68   39.70
  -2   7   6  260.37   61.19
   1  -7  -6   -2.30   15.90
   1  -7  -6   -3.80   16.90
   1  -7  -6  -25.60   25.60
  -1   7   6   -1.20   11.80
  -1   7   6   24.70   18.40
  -1   7   6    2.40   14.50
   0  -7  -6  119.09   47.70
   0  -7  -6   70.49   25.60
   0  -7  -6   58.49   46.50
   0   7   6   99.09   30.20
   0   7   6  127.99   30.00
   0   7   6   93.99   33.30
  -1  -7  -6   29.20   28.50
  -1  -7  -6   -4.30   16.90
   1   7   6    5.90   12.00
   1   7   6   19.90   18.70
   1   7   6   -2.50   10.60
  -2  -7  -6   22.90   19.00
  -2  -7  -6   24.70   27.20
  -2  -7  -6   32.60   36.10
   2   7   6   38.40   21.90
   2   7   6   24.20   19.60
   2   7   6   34.90   13.70
   2   7   6   42.00   17.40
  -3  -7  -6    9.90    7.70
  -3  -7  -6   13.40   13.50
  -3  -7  -6    4.40   27.50
  -3  -7  -6   -6.30   18.00
   3   7   6   -0.10   13.40
   3   7   6    2.50    7.40
   3   7   6    8.60   15.40
  -4  -7  -6   -5.00   22.20
  -4  -7  -6    4.00   12.60
  -4  -7  -6    0.00   16.10
  -4  -7  -6   11.10   16.20
   4   7   6   14.70    9.90
   4   7   6    9.90   13.90
   4   7   6    3.50   13.60
  -5  -7  -6   30.80   33.40
  -5  -7  -6   75.89   34.20
  -5  -7  -6   46.70   23.70
   5   7   6   56.29   18.40
   5   7   6   45.00   23.60
   5   7   6   69.19   18.70
  -6  -7  -6    6.00   13.80
  -6  -7  -6   42.20   28.60
  -6  -7  -6   25.30   19.90
   6   7   6   27.50   10.10
   6   7   6   25.00   13.10
   6   7   6   13.90    9.40
  -7  -7  -6   50.59   31.50
  -7  -7  -6   56.59   32.40
  -7  -7  -6   23.30   20.40
  -7  -7  -6   37.60   29.60
   7   7   6    2.70   14.00
   7   7   6   25.00   19.60
   7   7   6   22.30   10.30
   7   7   6   47.70   11.80
  -8  -7  -6    1.40   23.80
  -8  -7  -6   13.50   22.70
  -8  -7  -6   29.80   24.90
   8   7   6    5.20    9.10
   8   7   6    9.90   16.40
   8   7   6  -13.60   12.60
  -9  -7  -6   57.99   38.00
  -9  -7  -6   23.20   30.40
   9   7   6    5.10   14.80
   9   7   6    7.40   10.30
   9   7   6   41.80   15.50
 -10  -7  -6  -11.40   24.40
 -10  -7  -6  -25.20   22.80
  10   7   6   -4.20   12.10
  10   7   6   52.49   24.50
  10   7   6    9.70    9.20
   3  -8  -6   66.89   47.60
   3  -8  -6  100.19   43.00
   3  -8  -6   85.49   71.89
  -3   8   6   78.39   43.40
  -3   8   6   41.50   36.80
  -3   8   6  107.19   35.60
   2  -8  -6  244.78   68.09
   2  -8  -6  200.58   70.99
   2  -8  -6  154.58   93.39
  -2   8   6  214.78   61.29
  -2   8   6  192.08   54.69
  -2   8   6  194.88   36.70
   1  -8  -6   16.70   24.50
   1  -8  -6   -5.10   31.90
  -1   8   6   37.10   30.90
  -1   8   6   28.90   17.60
   0  -8  -6   25.30   18.00
   0  -8  -6  -14.90   30.60
   0  -8  -6   33.50   17.00
   0   8   6   13.90   15.90
   0   8   6   22.30   11.80
   0   8   6   -3.60   20.00
  -1  -8  -6   33.80   31.20
  -1  -8  -6   21.40   19.40
  -1  -8  -6   26.70   34.20
   1   8   6   29.40   13.50
   1   8   6   32.70   18.80
   1   8   6   35.50   21.20
  -2  -8  -6  226.08   49.00
  -2  -8  -6  244.98   72.79
  -2  -8  -6  146.49   52.29
  -2  -8  -6  264.07   71.79
   2   8   6  286.77   32.40
   2   8   6  289.37   38.00
   2   8   6  287.37   58.49
   2   8   6  292.97   58.69
  -3  -8  -6  329.97   74.39
  -3  -8  -6  319.67   64.49
  -3  -8  -6  325.67   83.09
   3   8   6  348.87   48.90
   3   8   6  272.17   36.70
   3   8   6  313.87   60.89
  -4  -8  -6  749.53   83.49
  -4  -8  -6  622.34   86.89
  -4  -8  -6  632.84   48.10
  -4  -8  -6  697.83  107.39
   4   8   6  666.63   56.09
   4   8   6  746.83   77.79
   4   8   6  510.85   79.39
   4   8   6  681.83   60.09
  -5  -8  -6  531.95   82.69
  -5  -8  -6  597.34   56.79
  -5  -8  -6  613.54  100.99
   5   8   6  551.14   50.09
   5   8   6  522.05   65.49
   5   8   6  560.64   48.50
  -6  -8  -6   82.99   36.00
  -6  -8  -6   64.89   38.60
  -6  -8  -6   71.69   39.50
   6   8   6   85.69   19.10
   6   8   6   22.90   16.80
   6   8   6   67.29   19.20
  -7  -8  -6   86.29   41.00
  -7  -8  -6   60.79   31.80
  -7  -8  -6   62.89   35.10
   7   8   6  101.29   33.90
   7   8   6  113.59   15.30
   7   8   6   92.79   32.20
   7   8   6   64.19   18.90
  -8  -8  -6  109.79   33.60
  -8  -8  -6   74.69   34.00
  -8  -8  -6   39.90   34.30
   8   8   6   49.60   23.80
   8   8   6   51.19   28.20
   8   8   6   64.19   17.30
  -9  -8  -6   96.79   37.50
  -9  -8  -6   87.19   36.80
  -9  -8  -6   44.60   33.60
   9   8   6   63.29   27.90
   9   8   6   71.49   18.00
   9   8   6   79.99   27.20
   2  -9  -6  -26.20   21.30
   2  -9  -6  -50.49   40.70
   2  -9  -6   59.59   35.70
  -2   9   6  -38.40   20.80
  -2   9   6   20.70   33.40
  -2   9   6    7.60   18.40
   1  -9  -6   63.59   47.80
   1  -9  -6   29.50   27.70
   1  -9  -6   21.40   40.70
  -1   9   6  121.19   46.20
  -1   9   6  139.89   43.50
   0  -9  -6   17.30   36.20
   0  -9  -6   50.09   37.40
   0  -9  -6  -33.30   28.90
   0   9   6   41.70   32.40
   0   9   6   44.90   20.00
   0   9   6   49.99   27.10
  -1  -9  -6    3.40   28.70
  -1  -9  -6   31.80   40.90
  -1  -9  -6   57.29   28.80
   1   9   6   57.09   26.90
   1   9   6   35.00   14.10
   1   9   6   41.10   25.70
  -2  -9  -6  164.98   58.29
  -2  -9  -6  145.89   42.10
  -2  -9  -6   57.99   44.10
   2   9   6   71.29   34.70
   2   9   6  120.59   27.50
   2   9   6   98.79   33.00
   2   9   6   90.99   34.70
  -3  -9  -6  308.47   79.99
  -3  -9  -6  271.87   65.39
  -3  -9  -6  377.36   85.59
   3   9   6  299.47   39.70
   3   9   6  375.16   54.19
   3   9   6  297.37   64.29
  -4  -9  -6  595.14  100.19
  -4  -9  -6  602.64   56.99
  -4  -9  -6  511.25  104.09
  -4  -9  -6  593.04   79.09
   4   9   6  647.04   74.59
   4   9   6  532.75   53.29
   4   9   6  587.24   61.79
  -5  -9  -6  530.45   50.79
  -5  -9  -6  683.53   88.79
  -5  -9  -6  721.63  102.69
   5   9   6  578.64   55.39
   5   9   6  564.34   53.79
   5   9   6  504.85   66.29
  -6  -9  -6   53.29   22.20
  -6  -9  -6   12.30   25.20
  -6  -9  -6   95.29   36.70
   6   9   6   58.89   16.80
   6   9   6   64.19   29.10
   6   9   6   86.09   23.30
  -7  -9  -6  151.78   59.49
  -7  -9  -6  154.18   50.69
  -7  -9  -6  169.58   46.80
   7   9   6  182.38   44.70
   7   9   6  146.59   28.60
   7   9   6  223.38   23.20
   7   9   6  247.08   63.99
  -8  -9  -6   15.40   26.50
  -8  -9  -6   11.80   21.80
  -8  -9  -6   -7.80   29.50
   8   9   6    6.50   13.50
   8   9   6   45.70   26.90
   8   9   6   43.40   16.80
  -9  -9  -6   39.60   25.20
  -9  -9  -6   19.30   29.60
  -9  -9  -6   26.50   26.50
   9   9   6   25.10   12.00
   9   9   6   49.60   18.20
   9   9   6   11.30   27.20
   1 -10  -6  -46.00   34.80
   1 -10  -6  -40.40   27.00
   1 -10  -6   -3.20   34.90
  -1  10   6  -42.20   20.10
  -1  10   6  -26.40   27.60
  -1  10   6  -24.10   17.40
   0 -10  -6  -49.70   29.00
   0 -10  -6  -18.70   23.00
   0 -10  -6   22.10   36.60
   0  10   6  -17.90   12.40
   0  10   6  -33.70   19.90
  -1 -10  -6   67.09   46.40
  -1 -10  -6  106.79   47.00
  -1 -10  -6   76.59   40.00
   1  10   6   28.30   34.70
   1  10   6   33.10   24.30
   1  10   6   14.30   15.40
  -2 -10  -6   25.00   37.20
  -2 -10  -6   44.80   29.50
   2  10   6   21.10   38.00
   2  10   6   20.60   18.70
   2  10   6   20.00   15.80
   2  10   6  -17.70   16.30
  -3 -10  -6    9.90   20.00
  -3 -10  -6   18.20   27.80
  -3 -10  -6  -21.10   19.30
   3  10   6   13.50   23.40
   3  10   6   19.60   21.40
   3  10   6   -0.90    8.90
   3  10   6   43.20   17.70
  -4 -10  -6   -2.70   17.50
  -4 -10  -6   25.20   35.20
  -4 -10  -6   -5.40   12.40
   4  10   6  -27.30   16.20
   4  10   6  -26.30   18.30
   4  10   6    4.80   18.50
  -5 -10  -6    8.20   26.30
  -5 -10  -6   -3.00   11.70
   5  10   6   11.60   14.90
   5  10   6   -4.80   17.50
  -6 -10  -6   14.20   31.30
  -6 -10  -6   13.80   20.90
  -6 -10  -6   18.00   29.90
   6  10   6   13.90   23.70
   6  10   6   12.00   11.60
   6  10   6   -1.20   14.40
  -7 -10  -6   -6.50   24.90
  -7 -10  -6   58.79   41.00
  -7 -10  -6   33.70   25.00
   7  10   6   12.70   13.30
   7  10   6   14.20   22.80
   7  10   6   61.99   16.10
   7  10   6   24.00   24.50
  -8 -10  -6   23.80   28.10
  -8 -10  -6  140.29   45.70
  -8 -10  -6   54.39   41.00
   8  10   6   22.90   13.80
   8  10   6   52.99   25.00
   8  10   6   41.50   27.70
   0 -11  -6  151.58   58.29
   0 -11  -6  117.79   50.59
   0 -11  -6  169.88   43.20
   0  11   6   51.79   38.70
   0  11   6   41.70   40.20
   0  11   6  101.39   24.10
  -1 -11  -6  150.78   51.19
  -1 -11  -6  220.18   62.69
  -1 -11  -6  318.17   86.59
   1  11   6  254.27   47.10
   1  11   6  276.87   56.09
   1  11   6  172.78   56.39
  -2 -11  -6  211.88   65.89
  -2 -11  -6  300.27   69.09
  -2 -11  -6  397.56  101.39
   2  11   6  260.27   67.89
   2  11   6  279.57   47.50
   2  11   6  308.27   76.69
   2  11   6  219.38   46.70
  -3 -11  -6  245.88   76.39
  -3 -11  -6  215.78   62.09
  -3 -11  -6  204.98   68.19
   3  11   6  189.38   60.29
   3  11   6  215.58   43.20
   3  11   6  230.88   59.69
  -4 -11  -6  153.38   47.00
  -4 -11  -6  174.58   65.49
  -4 -11  -6   54.89   46.00
   4  11   6  134.59   48.70
   4  11   6  119.49   30.10
   4  11   6   91.49   38.30
  -5 -11  -6  142.19   52.89
  -5 -11  -6   14.10   35.00
  -5 -11  -6   99.19   37.90
   5  11   6   15.00   26.70
   5  11   6   85.19   29.10
   5  11   6   41.60   32.00
  -6 -11  -6   39.60   32.70
  -6 -11  -6   29.10   24.80
  -6 -11  -6   51.99   35.30
   6  11   6   12.70   17.80
   6  11   6   24.00   24.30
   6  11   6   77.99   31.80
  -7 -11  -6   35.10   30.80
  -7 -11  -6   38.80   55.09
  -7 -11  -6   16.70   26.10
   7  11   6   17.90   16.80
   7  11   6   11.20   20.90
   7  11   6   78.59   21.60
   7  11   6   55.39   20.10
  -8 -11  -6   64.49   42.60
   8  11   6   49.40   35.10
  -2 -12  -6   63.89   44.30
  -2 -12  -6   53.89   48.10
   2  12   6   48.80   32.00
   2  12   6   38.90   23.50
   2  12   6   86.29   42.00
   2  12   6   73.79   40.40
  -3 -12  -6  150.58   54.59
  -3 -12  -6   28.30   42.50
  -3 -12  -6  100.79   48.00
   3  12   6  109.19   38.60
   3  12   6   46.10   36.80
   3  12   6   84.79   24.90
  -4 -12  -6  154.18   52.69
  -4 -12  -6   39.60   38.10
  -4 -12  -6   71.79   35.80
   4  12   6    7.20   28.30
   4  12   6   41.70   31.00
   4  12   6   48.90   16.80
  -5 -12  -6  -20.40   27.30
  -5 -12  -6  -13.60   28.60
   5  12   6   -2.30   23.00
   5  12   6   28.00   19.00
   5  12   6  -18.20   33.40
  -6 -12  -6  -44.30   33.70
  -6 -12  -6   43.00   34.80
   6  12   6   93.39   33.20
   6  12   6   29.20   16.20
   3  10  -7   18.00   68.39
   3  10  -7  120.39   69.89
   3  10  -7  152.88   42.60
   3  10  -7  129.19   31.90
   3  10  -7   78.09   60.89
   3  10  -7   80.49   64.19
  -3 -10   7  133.29   61.29
  -3 -10   7   89.39   33.50
  -3 -10   7  116.09   44.50
   2  10  -7   19.40   62.39
   2  10  -7  115.19   30.20
   2  10  -7  102.29   29.10
   2  10  -7  100.39   31.00
   2  10  -7  138.69   83.49
   2  10  -7   44.30   50.19
  -2 -10   7  107.79   53.19
  -2 -10   7   62.49   29.20
  -2 -10   7  102.99   42.00
  -2 -10   7   18.20   41.60
   1  10  -7    3.90   21.70
   1  10  -7  -45.60   28.90
   1  10  -7   20.10   18.10
   1  10  -7  -21.60   57.89
   1  10  -7   26.20   21.70
   1  10  -7   51.79   54.59
   1  10  -7   31.10   56.59
  -1 -10   7    8.30   19.70
  -1 -10   7  -22.40   21.50
   0  10  -7  132.79   64.59
   0  10  -7  193.28   56.59
   0  10  -7   46.20   32.00
   0  10  -7   66.99   59.99
   0  10  -7   91.89   27.50
   0  10  -7  -45.10   62.39
   0 -10   7   56.19   22.40
   0 -10   7   93.49   36.50
   0 -10   7  113.29   45.40
   1 -10   7  204.68   45.60
   1 -10   7  203.58   52.29
   1 -10   7  182.38   74.99
   4   9  -7   -1.90   13.80
   4   9  -7    7.70   38.20
   4   9  -7   23.10   18.60
   4   9  -7  -25.10   54.89
   4   9  -7   73.09   55.89
   4   9  -7   28.00   40.50
  -4  -9   7    5.40   36.90
  -4  -9   7   -9.90   26.10
  -4  -9   7  -30.40   28.30
   3   9  -7  -44.30   44.90
   3   9  -7   24.90   42.60
   3   9  -7   52.19   22.70
   3   9  -7   -1.20   47.60
   3   9  -7   52.29   26.80
  -3  -9   7   86.79   46.20
  -3  -9   7   78.79   45.80
  -3  -9   7   52.69   22.50
   2   9  -7   11.00   35.80
   2   9  -7   -3.10   17.40
   2   9  -7  -28.60   39.50
   2   9  -7   -0.80   43.60
   2   9  -7    8.20   38.30
  -2  -9   7   28.40   13.50
  -2  -9   7   -1.70   31.00
  -2  -9   7   36.30   17.20
   1   9  -7  -24.10   21.60
   1   9  -7   42.00   18.60
   1   9  -7  -12.90   41.60
   1   9  -7    3.80   12.50
   1   9  -7   84.39   46.80
   1   9  -7    8.50   48.70
  -1  -9   7    1.00   14.90
  -1  -9   7   24.90   26.60
  -1  -9   7  -15.20   30.90
  -1  -9   7  -25.10   20.50
   0   9  -7   36.10   16.10
   0   9  -7  -10.90   35.70
   0   9  -7   78.89   43.30
   0   9  -7  -38.90   25.70
   0  -9   7   36.90   30.70
   0  -9   7    3.40   32.70
   0  -9   7   16.50   20.20
  -1   9  -7   20.30   13.70
  -1   9  -7   26.90   48.30
  -1   9  -7   -5.10   29.70
  -1   9  -7  -60.19   83.49
  -1   9  -7   26.10   49.40
   1  -9   7    8.20   21.00
   1  -9   7    2.00   14.10
  -2   9  -7  116.49   55.39
  -2   9  -7  103.79   38.20
  -2   9  -7   42.20   60.29
   2  -9   7   62.19   34.10
   2  -9   7   75.09   42.60
  -3   9  -7  -64.49   52.09
  -3   9  -7  -13.60   38.20
  -3   9  -7   17.10   43.00
   3  -9   7   20.60   21.10
   3  -9   7  -12.30   16.50
   3  -9   7  -70.69   35.80
   5   8  -7  116.69   58.89
   5   8  -7   58.39   61.19
   5   8  -7  129.89   35.20
   5   8  -7   77.79   21.00
  -5  -8   7   53.09   34.60
  -5  -8   7  140.09   55.69
  -5  -8   7  123.59   44.50
   4   8  -7    2.40   36.60
   4   8  -7   59.39   18.90
   4   8  -7  -44.00   39.20
   4   8  -7    6.30   24.70
  -4  -8   7   -1.00   26.50
  -4  -8   7   37.40   37.20
  -4  -8   7   30.00   26.70
   3   8  -7   64.69   26.70
   3   8  -7   50.99   19.40
   3   8  -7   75.59   44.70
   3   8  -7   42.00   36.10
   3   8  -7   27.50   56.29
  -3  -8   7   18.70   17.90
  -3  -8   7   23.70   32.00
  -3  -8   7   62.29   29.30
  -3  -8   7   31.10   36.20
   2   8  -7  -73.49   40.90
   2   8  -7   41.90   21.40
   2   8  -7   19.10   18.80
   2   8  -7   41.00   33.80
   2   8  -7    1.50   14.10
  -2  -8   7   13.20   15.20
  -2  -8   7   27.10   22.20
  -2  -8   7    1.10   27.10
   1   8  -7  115.49   68.09
   1   8  -7  296.57   34.40
   1   8  -7  219.38   91.29
   1   8  -7  115.09   65.49
   1   8  -7  179.78   68.69
   1   8  -7  302.27   46.70
  -1  -8   7  197.48   54.79
  -1  -8   7  263.97   70.59
  -1  -8   7  181.38   61.89
  -1  -8   7  225.48   42.00
   0  -8   7  186.08   53.99
   0  -8   7  197.88   49.99
   0  -8   7  237.38   42.90
  -1   8  -7  335.87   29.60
  -1   8  -7  189.78   70.39
  -1   8  -7  192.28   85.19
  -1   8  -7  363.86   97.19
  -1   8  -7  296.97  113.39
   1  -8   7  387.26   73.39
   1  -8   7  335.77   46.10
   1  -8   7  362.86   76.59
  -2   8  -7   98.39   60.79
  -2   8  -7   80.79   59.39
  -2   8  -7  229.18   75.99
  -2   8  -7  246.38   67.39
   2  -8   7  199.48   39.30
   2  -8   7  255.77   61.89
   2  -8   7  229.38   58.49
  -3   8  -7  104.89   38.60
   3  -8   7   29.80   18.80
   3  -8   7   31.90   30.60
   3  -8   7   84.69   34.70
  -4   8  -7   31.10   53.49
  -4   8  -7  -35.60   56.89
  -4   8  -7   23.40   30.20
   4  -8   7   42.50   14.40
   4  -8   7  -43.70   31.20
   4  -8   7   49.20   26.20
   6   7  -7  167.68   90.59
   6   7  -7  185.18   53.09
   6   7  -7   82.79   58.09
   6   7  -7  164.18   30.20
  -6  -7   7  113.09   50.99
  -6  -7   7  177.88   47.50
  -6  -7   7  191.18   63.79
   5   7  -7  136.09   38.70
   5   7  -7   28.10   14.40
   5   7  -7  127.09   71.19
   5   7  -7  114.89   57.69
  -5  -7   7   44.20   25.30
  -5  -7   7    9.20   32.80
  -5  -7   7   35.60   30.00
   4   7  -7  143.69   21.70
   4   7  -7  121.29   31.40
   4   7  -7   22.60   38.10
   4   7  -7   88.99   20.90
   4   7  -7   38.60   40.00
  -4  -7   7  139.09   48.60
  -4  -7   7  112.39   39.10
   3   7  -7  131.79   26.50
   3   7  -7   96.79   32.80
   3   7  -7  204.08   74.09
   3   7  -7  137.29   27.40
  -3  -7   7  117.39   51.79
  -3  -7   7  147.19   56.19
  -3  -7   7  166.08   29.40
  -3  -7   7  106.49   39.60
   2   7  -7  331.27   35.40
   2   7  -7  213.68   43.40
   2   7  -7   92.09   53.59
   2   7  -7  119.89   67.99
  -2  -7   7  227.08   66.29
  -2  -7   7  234.08   68.59
  -2  -7   7  256.27   40.60
  -2  -7   7  247.08   53.69
   1   7  -7  172.98   35.50
   1   7  -7   57.09   60.99
   1   7  -7  192.68   29.00
   1   7  -7  104.79   50.39
  -1  -7   7   95.29   47.10
  -1  -7   7  132.49   30.30
  -1  -7   7  170.18   49.30
  -1  -7   7  150.58   42.50
   0   7  -7  136.99   61.89
   0   7  -7  264.97   29.50
   0  -7   7  228.68   58.19
   0  -7   7  253.67   68.49
   0  -7   7  276.77   52.99
   0  -7   7  257.07   35.10
  -1   7  -7  154.28   55.19
  -1   7  -7  254.07   24.50
  -1   7  -7  251.57   35.90
  -1   7  -7  142.09   74.59
  -1   7  -7  186.78   78.99
  -1   7  -7  212.68   81.49
   1  -7   7  279.07   67.79
   1  -7   7  272.17   45.50
   1  -7   7  277.27   59.69
  -2   7  -7   31.30   37.20
  -2   7  -7  135.09   52.49
  -2   7  -7   64.49   44.00
  -2   7  -7   80.59   55.19
   2  -7   7   90.99   37.80
   2  -7   7   58.79   29.80
   2  -7   7   80.09   26.40
  -3   7  -7   27.50   37.70
  -3   7  -7   40.60   41.60
  -3   7  -7   36.00   53.39
   3  -7   7   63.09   29.20
   3  -7   7    9.10   25.80
   3  -7   7   22.80   17.00
  -4   7  -7   20.50   40.50
  -4   7  -7   81.59   43.00
  -4   7  -7  -29.80   75.29
   4  -7   7   25.40   22.20
   4  -7   7   33.10   29.50
   4  -7   7    6.50   17.30
  -5   7  -7    5.50   60.29
  -5   7  -7   58.29   43.10
  -5   7  -7    2.40   31.20
   5  -7   7  -14.10   21.90
   5  -7   7    1.70   29.30
   5  -7   7   43.50   17.20
   6   6  -7   53.19   47.10
   6   6  -7   18.80   26.60
   6   6  -7   49.90   49.00
   6   6  -7   -6.10   12.00
  -6  -6   7   77.69   34.50
  -6  -6   7    1.00   21.70
  -6  -6   7  -10.40   28.10
   5   6  -7   19.10    9.10
   5   6  -7   21.10   41.40
   5   6  -7   59.69   37.20
  -5  -6   7   13.40   20.70
  -5  -6   7    4.40   25.10
  -5  -6   7   -4.50   20.90
   4   6  -7  -25.30   27.00
   4   6  -7   -6.20    7.30
   4   6  -7   33.90    9.10
   4   6  -7   57.29   18.50
  -4  -6   7    5.50   15.60
  -4  -6   7    4.50   23.90
   3   6  -7   27.50    9.10
   3   6  -7   10.80    9.20
   3   6  -7   -4.40   15.10
   3   6  -7   -3.70   31.30
   3   6  -7   38.30   49.00
  -3  -6   7   -2.50   21.30
  -3  -6   7  -10.10   17.50
  -3  -6   7   -7.20   15.40
  -3  -6   7   10.50   10.70
   2   6  -7  154.78   21.20
   2   6  -7  152.98   54.79
   2   6  -7   64.19   52.29
   2   6  -7  102.29   39.80
  -2  -6   7  107.49   42.30
  -2  -6   7  176.78   45.20
  -2  -6   7  115.09   26.20
  -2  -6   7   68.79   34.60
   1   6  -7   36.40   15.30
   1   6  -7  -17.80   25.60
   1   6  -7   -1.30   31.20
   1   6  -7   37.00   19.10
   1   6  -7   39.50   13.60
  -1  -6   7   69.59   22.80
  -1  -6   7   35.10   24.90
  -1  -6   7   30.50   14.20
  -1  -6   7   69.09   31.50
   0   6  -7   -9.90   15.50
   0   6  -7  -35.70   31.00
   0   6  -7  -22.20   32.70
   0   6  -7   32.80   19.30
   0   6  -7   -4.60   32.20
   0  -6   7  -13.10    9.40
   0  -6   7  -15.60   22.10
   0  -6   7   10.80   12.20
   0  -6   7  -28.50   12.50
  -1   6  -7   11.40   13.70
  -1   6  -7    1.10   30.90
  -1   6  -7  -60.89   32.40
   1  -6   7    7.10   12.70
   1  -6   7  -22.50   18.40
   1  -6   7    2.10    9.30
   1  -6   7    8.10   14.30
  -2   6  -7  -22.50   32.20
  -2   6  -7   31.50   42.50
  -2   6  -7   16.90   30.90
   2  -6   7   37.60   28.20
   2  -6   7   87.69   21.80
   2  -6   7   30.90   16.90
  -3   6  -7   48.20   16.40
  -3   6  -7   10.40   27.00
  -3   6  -7   24.70   30.90
   3  -6   7   18.10   20.30
   3  -6   7   70.29   27.30
   3  -6   7   42.50   19.20
  -4   6  -7   15.50   55.89
  -4   6  -7   51.89   39.40
  -4   6  -7   41.10   37.30
   4  -6   7   21.60   10.60
   4  -6   7   41.40   27.30
  -5   6  -7    6.70   41.70
  -5   6  -7   61.29   51.89
  -5   6  -7   37.60   45.00
   5  -6   7  102.49   24.50
   5  -6   7   40.80   29.30
   5  -6   7   17.30   31.40
  -6   6  -7   97.49   81.59
  -6   6  -7  114.69   58.09
  -6   6  -7  100.39   60.79
   6  -6   7  128.29   32.90
   6  -6   7  174.38   42.60
   6  -6   7  133.39   42.40
   6   5  -7   -1.20   33.90
   6   5  -7   73.89   17.80
   6   5  -7   80.99   62.19
  -6  -5   7   35.90   26.10
  -6  -5   7   54.99   32.70
  -6  -5   7   56.59   40.80
   5   5  -7   55.99   60.49
   5   5  -7   62.89   15.80
   5   5  -7  133.99   65.79
   5   5  -7   67.89   36.10
  -5  -5   7   47.30   33.20
  -5  -5   7   54.19   26.50
  -5  -5   7   62.49   32.60
   4   5  -7   36.90   58.29
   4   5  -7   67.49   55.09
   4   5  -7  126.09   21.20
  -4  -5   7   91.19   40.80
  -4  -5   7   80.99   30.60
  -4  -5   7  100.09   45.10
   3   5  -7   29.90   46.90
   3   5  -7   75.09   15.60
   3   5  -7    7.10   32.00
   3   5  -7   85.59    9.00
   3   5  -7  151.08   23.30
   3   5  -7  115.39   35.40
  -3  -5   7   60.49   14.10
  -3  -5   7   64.59   23.50
  -3  -5   7   74.79   34.20
  -3  -5   7   68.99   37.30
   2   5  -7  223.08   91.79
   2   5  -7  413.96   35.00
   2   5  -7  239.58   79.49
   2   5  -7  414.66   47.40
   2   5  -7  398.76   29.40
  -2  -5   7  407.36   69.69
  -2  -5   7  452.05   36.80
  -2  -5   7  359.16   50.89
  -2  -5   7  441.36   74.79
   1   5  -7  409.86  103.29
   1   5  -7  398.56   45.10
   1   5  -7  375.86   32.80
   1   5  -7  425.26   31.40
  -1  -5   7  338.47   79.69
  -1  -5   7  385.76   52.69
  -1  -5   7  381.96   36.30
   0   5  -7   99.39   23.40
   0   5  -7  122.69   19.60
   0   5  -7   55.59   33.30
   0   5  -7  101.49   26.10
   0   5  -7   26.40   24.70
   0   5  -7   30.30   48.60
   0  -5   7   77.49   26.60
   0  -5   7   70.09   18.60
   0  -5   7   88.49   24.60
   0  -5   7   49.90   29.70
  -1   5  -7   14.10   35.90
  -1   5  -7   84.19   46.70
  -1   5  -7  107.09   22.00
  -1   5  -7   45.50   41.50
  -1   5  -7   96.29   17.40
   1  -5   7   64.89   22.30
   1  -5   7   77.49   31.40
   1  -5   7  101.89   24.00
   1  -5   7   65.79   37.10
  -2   5  -7  278.47   94.99
  -2   5  -7  330.87   92.09
   2  -5   7  464.65   45.10
   2  -5   7  572.24   66.69
   2  -5   7  523.95   56.69
  -3   5  -7   32.00   16.40
  -3   5  -7   12.60   40.50
  -3   5  -7   -1.20   33.30
  -3   5  -7   99.99   34.50
   3  -5   7   22.20   19.80
   3  -5   7   26.90   29.40
   3  -5   7   20.20   11.20
  -4   5  -7  102.69   57.09
  -4   5  -7   43.30   32.80
  -4   5  -7   37.60   17.60
  -4   5  -7   10.10   37.00
  -4   5  -7   93.99   55.99
   4  -5   7    9.70   13.10
   4  -5   7   54.59   28.40
   4  -5   7   40.40   23.90
  -5   5  -7   22.20   43.30
  -5   5  -7  108.29   64.39
  -5   5  -7   54.29   60.69
   5  -5   7   83.39   24.90
   5  -5   7   46.60   29.70
   5  -5   7   72.19   33.10
  -6   5  -7   76.69   57.99
  -6   5  -7  136.49   45.90
  -6   5  -7    7.80   54.39
   6  -5   7   74.39   23.10
   6  -5   7   37.20   30.90
   6  -5   7   83.79   35.50
  -7   5  -7  -64.49   32.90
  -7   5  -7  -34.80   53.99
  -7   5  -7  -52.59   40.40
   7  -5   7  -24.20   24.10
   7  -5   7   -5.20   11.20
   7   4  -7   22.50   32.20
   7   4  -7   30.80   61.39
   7   4  -7   -9.60   15.60
  -7  -4   7   22.20   31.40
  -7  -4   7   58.59   28.80
  -7  -4   7   46.80   30.50
   6   4  -7   61.69   16.00
   6   4  -7   38.90   54.19
   6   4  -7   37.50   26.70
  -6  -4   7   10.40   27.90
  -6  -4   7   35.10   26.70
  -6  -4   7   13.30   21.90
   5   4  -7   32.80   30.60
   5   4  -7   11.50   10.80
   5   4  -7   27.30   37.80
  -5  -4   7  -16.80   16.60
  -5  -4   7    8.30   23.70
  -5  -4   7   27.70   21.10
   4   4  -7   57.89   32.80
   4   4  -7   -6.80   39.00
   4   4  -7   75.29   55.09
   4   4  -7  113.19   38.00
  -4  -4   7  136.19   47.50
  -4  -4   7  145.39   37.60
  -4  -4   7   91.69   40.20
   3   4  -7  142.89   39.30
   3   4  -7  170.48   10.40
   3   4  -7  209.78   24.40
   3   4  -7   69.39   40.20
   3   4  -7  147.29   15.60
   3   4  -7  147.79   16.00
  -3  -4   7  186.48   57.69
  -3  -4   7  145.39   15.30
  -3  -4   7  117.99   44.40
  -3  -4   7  117.09   37.10
   2   4  -7  169.68   12.80
   2   4  -7  101.49   61.49
   2   4  -7  106.29   55.69
   2   4  -7  177.38   13.90
   2   4  -7  182.28   41.20
   2   4  -7  202.18   19.50
  -2  -4   7  120.79   43.60
  -2  -4   7  178.68   41.20
  -2  -4   7  153.98   20.30
  -2  -4   7  179.18   54.29
   1   4  -7  256.17   20.60
   1   4  -7  114.29   69.19
   1   4  -7  308.07   39.20
   1   4  -7  127.39   64.39
   1   4  -7  320.07   20.60
  -1  -4   7  217.78   59.19
  -1  -4   7  260.77   26.60
  -1  -4   7  275.07   42.30
  -1  -4   7  199.48   55.49
   0   4  -7  151.28   76.99
   0   4  -7  164.98   58.39
   0   4  -7  224.18   25.70
   0   4  -7  320.07   33.70
   0   4  -7  298.57   20.10
   0   4  -7  277.17   34.30
   0  -4   7  285.67   28.40
   0  -4   7  232.68   48.70
   0  -4   7  271.87   65.19
   0  -4   7  329.87   29.70
  -1   4  -7  203.38   89.69
  -1   4  -7  342.67   31.60
   1  -4   7  450.05   55.49
   1  -4   7  479.45   39.80
   1  -4   7  488.25   43.10
   1  -4   7  414.16   68.69
  -2   4  -7   24.10   29.30
  -2   4  -7   -0.70   36.90
  -2   4  -7    6.50   26.50
   2  -4   7    7.70    7.80
   2  -4   7    5.90   16.90
   2  -4   7   -8.80   10.60
   2  -4   7   17.80   17.30
  -3   4  -7  429.56   80.29
  -3   4  -7  333.07  114.09
  -3   4  -7  283.37   97.79
   3  -4   7  521.45   54.99
   3  -4   7  507.45   62.29
   3  -4   7  478.75   44.20
  -4   4  -7  222.28   84.59
  -4   4  -7  370.46  110.49
   4  -4   7  410.56   56.49
   4  -4   7  522.15   47.80
   4  -4   7  460.55   56.79
   4  -4   7  424.46   64.19
  -5   4  -7  511.05  139.59
  -5   4  -7  485.35  129.79
  -5   4  -7  911.31   78.09
  -5   4  -7  682.43  136.19
   5  -4   7  907.41   83.99
   5  -4   7  822.52   83.29
   5  -4   7  862.41   66.09
   5  -4   7  788.12   78.99
  -6   4  -7  419.46  142.99
  -6   4  -7  440.56  121.29
  -6   4  -7  552.44  116.79
   6  -4   7  557.04   67.09
   6  -4   7  522.65   53.09
   6  -4   7  478.15   65.79
  -7   4  -7  134.39   65.09
  -7   4  -7  219.38   96.69
  -7   4  -7  234.38   82.69
   7  -4   7  119.29   42.10
   7  -4   7  227.28   53.09
   7  -4   7  161.88   34.20
   7   3  -7   64.99   39.50
   7   3  -7   -5.60   53.89
   7   3  -7   10.10   17.90
  -7  -3   7    4.20   21.50
  -7  -3   7   43.80   26.60
  -7  -3   7   58.79   28.40
   6   3  -7  -52.59   50.39
   6   3  -7    9.90   12.30
   6   3  -7  -18.40   22.60
  -6  -3   7   -5.40   17.90
  -6  -3   7   -9.90   14.70
  -6  -3   7   44.40   25.30
   5   3  -7   10.40   51.79
   5   3  -7   18.10   27.70
   5   3  -7   64.89   16.00
  -5  -3   7   46.40   27.00
  -5  -3   7   17.60   17.10
  -5  -3   7  -10.60   12.00
   4   3  -7  -17.40   17.20
   4   3  -7   21.40   43.00
   4   3  -7   17.50    7.00
  -4  -3   7   57.99   14.40
  -4  -3   7    0.50   10.20
  -4  -3   7    8.00   21.90
  -4  -3   7   -1.40   12.80
   3   3  -7   63.89   44.10
   3   3  -7  191.08   23.10
   3   3  -7  150.08   14.60
   3   3  -7  132.79   40.80
  -3  -3   7  112.99   43.70
  -3  -3   7  114.09   32.00
  -3  -3   7   76.49   33.70
   2   3  -7   12.10   22.50
   2   3  -7    5.70   27.30
   2   3  -7   43.60   16.70
   2   3  -7   14.50    4.20
  -2  -3   7    2.00   15.30
  -2  -3   7    5.10   13.00
  -2  -3   7    5.60   13.50
  -2  -3   7   -4.40    5.20
   1   3  -7  198.08   44.50
   1   3  -7  114.09   57.89
   1   3  -7  181.18   14.40
  -1  -3   7  152.48   49.99
  -1  -3   7  174.18   49.70
   0   3  -7  388.46   41.10
   0   3  -7  210.88   67.79
   0   3  -7  348.37   35.10
   0  -3   7  401.56   33.10
   0  -3   7  365.76   29.60
   0  -3   7  359.96   60.39
  -1   3  -7  162.38   14.40
  -1   3  -7  141.99   20.00
  -1   3  -7   62.29   37.90
  -1   3  -7  171.08   22.50
  -1   3  -7  102.49   49.50
   1  -3   7  173.98   21.00
   1  -3   7  167.08   20.50
   1  -3   7  145.99   43.90
   1  -3   7  194.88   44.20
  -2   3  -7   70.19   50.49
  -2   3  -7  216.48   79.39
  -2   3  -7  207.68   19.50
   2  -3   7  243.98   28.20
   2  -3   7  198.78   26.10
   2  -3   7  192.68   56.19
   2  -3   7  206.48   42.50
  -3   3  -7  186.88   64.09
   3  -3   7  197.58   25.60
   3  -3   7  205.18   47.30
   3  -3   7  242.48   34.00
  -4   3  -7  142.49   63.19
  -4   3  -7  104.29   64.69
   4  -3   7  204.48   44.80
   4  -3   7  219.88   28.60
   4  -3   7  267.47   38.50
  -5   3  -7  208.18   82.99
  -5   3  -7  177.78   78.79
   5  -3   7  198.18   34.00
   5  -3   7  211.48   56.39
   5  -3   7  230.38   45.60
   5  -3   7  205.38   46.50
  -6   3  -7  281.47   93.79
  -6   3  -7  273.57  103.09
  -6   3  -7  307.57   86.79
  -6   3  -7  419.76   54.49
   6  -3   7  273.37   57.29
   6  -3   7  163.08   70.29
   6  -3   7  336.07   59.69
   6  -3   7  328.17   39.10
  -7   3  -7   53.89   45.80
  -7   3  -7   43.30   31.90
  -7   3  -7   78.89   25.20
  -7   3  -7  -44.10   41.50
   7  -3   7   25.10   20.70
  -8   3  -7  -25.50   45.50
  -8   3  -7   26.00   46.30
  -8   3  -7  -46.80   39.60
   7   2  -7   17.00   33.90
   7   2  -7   32.60   22.30
   7   2  -7   -2.90   60.49
  -7  -2   7   73.19   35.90
  -7  -2   7   39.90   24.90
  -7  -2   7  111.79   37.30
   6   2  -7   29.40   34.70
   6   2  -7   44.30   16.90
   6   2  -7  -21.60   52.19
  -6  -2   7   53.99   30.20
  -6  -2   7   54.59   27.70
  -6  -2   7   54.59   20.90
   5   2  -7  102.49   21.00
   5   2  -7  151.38   45.80
   5   2  -7  119.29   60.69
  -5  -2   7   92.19   37.00
  -5  -2   7   72.99   39.70
  -5  -2   7  103.69   28.90
   4   2  -7   81.49   51.69
   4   2  -7   94.39   13.00
   4   2  -7   85.19   37.90
  -4  -2   7   29.90   19.50
  -4  -2   7   63.49   24.00
  -4  -2   7   70.29   34.40
   3   2  -7 1123.19   51.19
   3   2  -7  814.22  144.89
   3   2  -7 1227.88   63.39
   3   2  -7 1154.08  110.89
   3   2  -7  760.32  136.99
  -3  -2   7 1153.38  111.79
  -3  -2   7 1235.28   60.49
  -3  -2   7 1095.19  103.39
  -3  -2   7 1154.98  103.49
   2   2  -7   70.39    8.50
   2   2  -7    7.70   30.20
   2   2  -7   54.39   45.40
   2   2  -7   26.60   24.50
  -2  -2   7   72.69    9.10
  -2  -2   7   58.99   27.10
  -2  -2   7   33.30   17.60
  -2  -2   7   55.49   27.30
   1   2  -7   22.70   16.30
   1   2  -7    1.80   21.50
   1   2  -7   12.80    3.70
   1   2  -7   23.90   26.40
  -1  -2   7    8.00   10.20
  -1  -2   7    6.80   16.60
  -1  -2   7   -6.00   12.80
   0   2  -7   17.50    8.00
   0   2  -7   23.30   11.50
   0   2  -7  -17.80   12.70
   0  -2   7    5.60   10.90
   0  -2   7   15.60    6.40
   0  -2   7   10.80    5.40
   0  -2   7   -4.00   10.60
  -1   2  -7  -20.50   24.10
  -1   2  -7    1.50   24.50
  -1   2  -7   31.90   10.90
   1  -2   7   -8.60   12.00
   1  -2   7    0.80    6.90
   1  -2   7    5.90    4.90
   1  -2   7   15.40    5.40
  -2   2  -7  502.05   27.80
  -2   2  -7  354.06   93.99
   2  -2   7  481.15   65.59
   2  -2   7  463.05   52.19
   2  -2   7  468.35   34.80
  -3   2  -7 1009.20  125.99
  -3   2  -7 1112.49   54.59
   3  -2   7 1157.28  106.29
   3  -2   7 1123.89   61.29
   3  -2   7 1164.08   69.59
  -4   2  -7  348.77   84.09
  -4   2  -7  219.28   75.29
  -4   2  -7  131.89   69.49
   4  -2   7  270.17   42.30
   4  -2   7  342.97   32.20
   4  -2   7  328.07   37.30
  -5   2  -7  122.89   44.60
  -5   2  -7   40.90   29.70
  -5   2  -7   98.59   62.69
   5  -2   7  120.69   25.20
   5  -2   7   91.89   24.60
   5  -2   7  104.19   32.80
  -6   2  -7   39.50   39.30
  -6   2  -7   67.09   23.40
  -6   2  -7  -36.00   19.90
  -6   2  -7    2.50   34.50
   6  -2   7   20.90   17.20
   6  -2   7  -14.20   14.30
   6  -2   7   16.90    9.20
  -7   2  -7   12.30   20.60
  -7   2  -7   96.69   39.60
  -7   2  -7  -22.00   39.70
  -7   2  -7   49.10   90.49
   7  -2   7   13.30   16.00
   7  -2   7   14.00   24.60
   7  -2   7   31.00   19.40
   7  -2   7    4.80    8.20
  -8   2  -7  -37.10   50.09
  -8   2  -7    0.20   42.10
  -8   2  -7   22.80   44.10
  -8   2  -7   39.50   24.30
   8  -2   7   24.20   27.50
   8  -2   7   65.89   23.30
   8  -2   7   24.60   17.00
   8  -2   7    8.60   24.40
   7   1  -7   32.80   23.50
   7   1  -7  -21.40   49.70
  -7  -1   7  -12.10   21.90
  -7  -1   7   31.90   24.70
   6   1  -7   35.20   15.50
   6   1  -7    9.10   35.00
   6   1  -7  -61.09   27.00
  -6  -1   7  -15.90   23.50
  -6  -1   7   21.80   14.70
  -6  -1   7  -20.30   18.50
   5   1  -7   40.70   11.80
   5   1  -7   36.70   33.10
   5   1  -7   65.49   58.09
  -5  -1   7   41.20   23.40
  -5  -1   7   28.50   24.90
  -5  -1   7   39.80   18.10
   4   1  -7   -5.80   33.00
   4   1  -7   78.39   17.20
   4   1  -7   26.40   24.60
  -4  -1   7   46.60   26.90
  -4  -1   7   14.30   14.80
  -4  -1   7   68.19   19.80
   3   1  -7  188.28   79.89
   3   1  -7   96.39   57.99
   3   1  -7  346.87   82.39
   3   1  -7  244.88   23.70
  -3  -1   7  237.18   59.99
  -3  -1   7  240.98   31.50
  -3  -1   7  310.07   49.90
   2   1  -7  365.66   22.20
   2   1  -7  170.48   69.89
   2   1  -7  403.46   77.89
  -2  -1   7  318.57   53.49
  -2  -1   7  350.66   18.80
  -2  -1   7  340.57   51.99
  -2  -1   7  358.16   39.00
   1   1  -7  304.27   49.50
   1   1  -7  354.86   21.80
   1   1  -7  194.78   98.99
  -1  -1   7  292.47   52.79
  -1  -1   7  272.27   45.40
  -1  -1   7  315.47   20.40
  -1  -1   7  284.17   33.70
   0   1  -7   88.99   30.20
   0   1  -7   55.59   40.20
   0   1  -7   58.69   41.40
   0   1  -7  120.99   13.00
   0  -1   7   85.59   11.60
   0  -1   7  110.99   24.50
   0  -1   7  104.29   25.20
   0  -1   7  104.69   36.40
  -1   1  -7   89.49   48.90
  -1   1  -7  128.39   52.09
   1  -1   7  206.48   21.80
   1  -1   7  188.78   46.10
   1  -1   7  195.48   18.80
   1  -1   7  177.48   28.60
  -2   1  -7 1185.18   56.39
  -2   1  -7 1231.48   50.59
   2  -1   7 1101.89   54.89
   2  -1   7 1106.69   97.29
   2  -1   7 1151.58   79.99
   2  -1   7 1264.97   54.39
   2  -1   7 1158.98   47.30
  -3   1  -7 2206.48  196.68
  -3   1  -7 2831.92  101.29
   3  -1   7 2530.85  100.59
   3  -1   7 2715.23  162.88
   3  -1   7 2687.93  103.69
   3  -1   7 2770.72  136.29
  -4   1  -7 1561.94  157.08
   4  -1   7 1522.65   73.69
   4  -1   7 1690.73  103.59
   4  -1   7 1582.84   80.19
  -5   1  -7   65.89   39.90
  -5   1  -7   31.20   39.40
  -5   1  -7   55.79   47.30
   5  -1   7   60.69   15.40
   5  -1   7   90.39   23.40
   5  -1   7   53.29   29.40
  -6   1  -7   18.50   25.50
  -6   1  -7   34.40   35.30
   6  -1   7    3.10   17.00
   6  -1   7   27.80   12.00
   6  -1   7    2.40   11.00
   6  -1   7   19.80    9.40
   6  -1   7   14.30   14.30
  -7   1  -7  -28.30   37.90
  -7   1  -7    0.10   20.70
  -7   1  -7   15.90   29.60
   7  -1   7   31.70   19.20
   7  -1   7   19.70    9.20
   7  -1   7   -7.20   19.30
   7  -1   7   -2.40   15.90
   7  -1   7   16.30   11.40
  -8   1  -7  -35.70   23.30
  -8   1  -7   25.70   47.40
  -8   1  -7   33.80   39.80
  -8   1  -7  -48.90   39.20
   8  -1   7   41.60   14.30
   8  -1   7   -5.90   15.80
   8  -1   7   -5.80   14.90
   8  -1   7  -46.30   26.40
  -9   1  -7   39.40   30.80
  -9   1  -7   -6.40   47.30
  -9   1  -7   67.29   45.20
  -9   1  -7   66.29   77.09
   9  -1   7   56.39   27.40
   9  -1   7   71.19   45.50
   9  -1   7   81.29   22.40
   6   0  -7   23.70   40.70
   6   0  -7   16.80   58.79
   6   0  -7   16.10   17.80
  -6   0   7   66.69   29.40
  -6   0   7   59.49   20.60
  -6   0   7   49.30   26.10
   5   0  -7   25.70   17.90
   5   0  -7    7.70   52.99
   5   0  -7  -38.50   44.10
  -5   0   7   22.40   21.70
  -5   0   7   21.70   22.50
  -5   0   7   28.30   16.40
   4   0  -7   54.19   15.70
   4   0  -7   23.40   30.20
   4   0  -7  -39.00   39.10
  -4   0   7   36.30   16.70
  -4   0   7   31.60   18.30
  -4   0   7   26.70   19.50
   3   0  -7    4.40   36.60
   3   0  -7   16.60   21.50
   3   0  -7   20.50   10.10
  -3   0   7    9.10   11.90
  -3   0   7    1.70   11.30
  -3   0   7   14.20    9.20
   2   0  -7  457.25   25.30
   2   0  -7  491.45  102.89
   2   0  -7  406.06   30.30
  -2   0   7  345.67   53.79
  -2   0   7  437.36   26.20
  -2   0   7  449.16   56.29
  -2   0   7  460.35   25.20
  -2   0   7  361.16   38.50
  -2   0   7  410.96   19.70
   1   0  -7   48.90   36.70
   1   0  -7   24.00   30.30
   1   0  -7  136.99   39.30
  -1   0   7   67.69   25.70
  -1   0   7   83.29   21.80
  -1   0   7   76.19   28.70
  -1   0   7   90.99    9.80
   0   0  -7  300.67   56.39
   0   0  -7  290.97   21.30
   0   0   7  260.37   18.30
   0   0   7  242.38   30.10
   0   0   7  261.77   43.00
   0   0   7  338.87   54.59
  -1   0  -7  -20.40   18.50
  -1   0  -7   22.10   22.90
  -1   0  -7   15.50   14.00
   1   0   7   22.10    6.40
   1   0   7   15.00   14.00
   1   0   7    0.90    6.90
  -2   0  -7  418.56   28.30
  -2   0  -7  359.66   36.00
   2   0   7  454.55   25.00
   2   0   7  497.35   40.40
   2   0   7  433.66   55.09
   2   0   7  391.26   27.20
   2   0   7  410.46   42.20
  -3   0  -7  713.03  109.99
  -3   0  -7  816.02   58.99
  -3   0  -7  765.22   43.20
   3   0   7  784.12   42.60
   3   0   7  816.52   63.29
   3   0   7  772.42   49.80
   3   0   7  847.82   44.50
   3   0   7  720.93   73.19
  -4   0  -7   -2.60   28.50
  -4   0  -7   -6.60   31.00
  -4   0  -7   16.50   32.40
   4   0   7   11.10    5.20
   4   0   7   -1.70   10.50
   4   0   7   13.50    6.50
   4   0   7   -2.10    4.40
  -5   0  -7  143.49   57.29
  -5   0  -7  302.07  100.69
  -5   0  -7  301.67   80.39
   5   0   7  287.67   32.80
   5   0   7  322.67   29.70
   5   0   7  292.67   31.40
   5   0   7  350.26   43.10
   5   0   7  312.37   25.70
  -6   0  -7    8.60   21.60
  -6   0  -7   53.69   40.70
  -6   0  -7   58.09   43.80
   6   0   7   -2.60   10.10
   6   0   7   33.00   14.70
   6   0   7    6.90    8.10
   6   0   7   19.30   11.60
   6   0   7   14.60   14.30
  -7   0  -7   21.60   22.10
  -7   0  -7  -27.10   34.90
  -7   0  -7   -1.30   39.10
  -7   0  -7   23.40   43.70
   7   0   7   12.00   16.90
   7   0   7   -4.30   10.00
   7   0   7   20.60   14.20
   7   0   7    5.00    9.70
  -8   0  -7  118.89   67.99
  -8   0  -7   91.79   53.39
  -8   0  -7  151.98   48.30
  -8   0  -7   33.20   47.50
   8   0   7  120.29   31.10
   8   0   7  121.29   25.30
   8   0   7  170.98   41.70
   8   0   7  108.59   35.80
  -9   0  -7  143.69   79.29
  -9   0  -7   54.89   52.49
  -9   0  -7  -21.70   67.29
  -9   0  -7   62.19   37.60
   9   0   7   86.39   31.60
   9   0   7   94.19   46.10
   9   0   7  109.29   27.30
   6  -1  -7   15.90   54.69
   6  -1  -7   35.40   24.10
   6  -1  -7   49.20   45.70
  -6   1   7   82.69   33.70
  -6   1   7   52.29   30.80
  -6   1   7   28.70   17.90
   5  -1  -7  127.09   59.69
   5  -1  -7   96.39   49.80
   5  -1  -7  121.49   35.70
  -5   1   7  167.08   48.00
  -5   1   7  124.69   29.50
  -5   1   7  108.69   43.40
   4  -1  -7  271.27   39.10
   4  -1  -7  228.28   66.29
   4  -1  -7  203.28   95.69
  -4   1   7  387.76   40.30
  -4   1   7  366.46   56.29
  -4   1   7  364.36   57.99
   3  -1  -7   19.80   13.60
   3  -1  -7   73.69   36.50
   3  -1  -7   -4.30   24.00
  -3   1   7   12.90   15.90
  -3   1   7   19.90   20.40
  -3   1   7   31.30   12.90
   2  -1  -7  212.18   61.39
   2  -1  -7  120.89   64.59
   2  -1  -7  179.78   17.80
   2  -1  -7   48.60   41.80
   2  -1  -7  149.49   21.20
  -2   1   7  184.38   42.90
  -2   1   7  152.08   12.20
  -2   1   7  232.18   24.80
  -2   1   7  156.48   42.40
  -2   1   7  180.88   25.80
  -2   1   7  152.28   16.70
   1  -1  -7   52.89   12.50
   1  -1  -7   22.40   36.70
   1  -1  -7   99.49   37.60
  -1   1   7   58.19    9.80
  -1   1   7   69.29   26.50
  -1   1   7   45.60   21.10
  -1   1   7   75.29   20.30
  -1   1   7   83.19    9.40
   0  -1  -7 1623.64   69.59
   0  -1  -7 1620.94  116.39
   0   1   7 1643.64   59.79
   0   1   7 1602.14   59.89
   0   1   7 1646.44   82.79
   0   1   7 1606.84  102.89
  -1  -1  -7 1048.60   91.89
   1   1   7 1070.69   83.59
   1   1   7 1103.39   65.19
   1   1   7 1115.69   41.10
   1   1   7 1162.78   48.40
   1   1   7 1160.48   88.89
   1   1   7 1129.59   47.80
  -2  -1  -7 1228.68   80.39
  -2  -1  -7 1317.77   62.49
  -2  -1  -7  932.71  133.19
   2   1   7 1381.86   88.89
   2   1   7 1275.87   53.69
   2   1   7 1265.77   49.30
   2   1   7 1212.98   71.59
   2   1   7 1199.48   88.29
   2   1   7 1255.97   62.19
  -3  -1  -7  278.27   77.69
  -3  -1  -7  298.27   63.19
  -3  -1  -7  157.08   50.89
  -3  -1  -7  170.08   65.99
  -3  -1  -7  303.47   36.90
   3   1   7  226.78   19.60
   3   1   7  236.68   21.10
   3   1   7  233.88   38.90
   3   1   7  216.88   32.40
   3   1   7  214.18   29.70
  -4  -1  -7   10.10   25.50
  -4  -1  -7   31.30   35.10
  -4  -1  -7   -3.30   18.30
   4   1   7    9.70   11.70
   4   1   7   27.90   11.20
   4   1   7   13.70    7.30
   4   1   7    5.60    5.00
  -5  -1  -7   84.99   40.50
  -5  -1  -7  163.28   58.39
  -5  -1  -7  117.19   59.79
   5   1   7  114.39   16.00
   5   1   7  115.19   27.30
   5   1   7   92.39   17.80
   5   1   7  131.59   24.50
   5   1   7  110.59   29.40
  -6  -1  -7   -1.20   35.40
  -6  -1  -7    7.90   28.70
  -6  -1  -7   22.50   33.10
   6   1   7    5.50    7.60
   6   1   7   -1.80   13.80
   6   1   7   -8.50    6.90
   6   1   7  -12.60    8.60
  -7  -1  -7   30.20   35.80
  -7  -1  -7   -4.80   25.80
  -7  -1  -7   71.29   40.60
   7   1   7   22.50   19.50
   7   1   7    4.10    9.30
   7   1   7    8.30   15.00
   7   1   7   27.20    9.10
  -8  -1  -7   17.80   25.10
  -8  -1  -7   69.49   34.40
  -8  -1  -7   12.40   44.40
  -8  -1  -7  -51.19   36.50
   8   1   7   20.50   21.60
   8   1   7    5.00   15.80
   8   1   7   23.10   14.50
   8   1   7   -5.20    7.40
  -9  -1  -7   -8.60   46.50
  -9  -1  -7  -37.00   41.30
  -9  -1  -7   10.20   23.10
  -9  -1  -7  -31.90   40.40
   9   1   7   24.90   27.20
   9   1   7   17.40   17.00
   9   1   7   -3.50    8.20
   6  -2  -7   -3.30   25.30
   6  -2  -7   39.90   78.09
   6  -2  -7  -49.99   33.70
  -6   2   7   61.29   26.50
  -6   2   7   24.50   42.40
  -6   2   7   44.00   24.80
   5  -2  -7   26.30   58.79
   5  -2  -7   87.09   32.20
   5  -2  -7  138.09   54.49
  -5   2   7  111.99   25.80
  -5   2   7   90.99   34.10
  -5   2   7  105.69   38.20
   4  -2  -7  112.59   55.19
   4  -2  -7  100.49   67.19
   4  -2  -7  157.58   36.80
  -4   2   7  147.59   45.20
  -4   2   7  206.58   31.30
  -4   2   7  182.48   47.90
   3  -2  -7  373.06   41.40
   3  -2  -7  346.37   83.89
  -3   2   7  429.86   43.60
  -3   2   7  387.96   22.70
  -3   2   7  462.55   73.59
  -3   2   7  421.06   54.99
  -3   2   7  376.46   25.30
   2  -2  -7  107.69   15.90
   2  -2  -7   68.69   33.10
  -2   2   7   52.39   13.30
  -2   2   7   90.59   21.90
  -2   2   7   59.69   10.70
  -2   2   7   49.50   22.20
  -2   2   7  114.19   36.40
  -2   2   7   68.79   20.60
   1  -2  -7 1000.30   99.79
   1  -2  -7 1059.19   54.29
   1  -2  -7  673.53  154.18
   1  -2  -7 1005.00   60.69
  -1   2   7 1033.70   72.99
  -1   2   7 1037.50   88.39
  -1   2   7 1092.69   45.70
  -1   2   7 1029.20   54.69
  -1   2   7 1019.80   77.79
   0  -2  -7  687.73  120.29
   0  -2  -7  944.91   54.49
   0  -2  -7  972.20   91.29
   0  -2  -7  947.41   51.99
   0   2   7  991.20   44.00
   0   2   7 1006.90   49.40
   0   2   7  888.01   69.99
   0   2   7  941.41   58.69
  -1  -2  -7 2304.27  140.49
  -1  -2  -7 2347.27   97.19
   1   2   7 2590.04   99.69
   1   2   7 2503.95   94.69
   1   2   7 2572.14   88.79
   1   2   7 2523.15  127.49
   1   2   7 2536.45  107.09
  -2  -2  -7 1573.24  133.79
  -2  -2  -7 1878.61   89.09
  -2  -2  -7 1499.25  169.28
   2   2   7 1656.73  102.09
   2   2   7 1707.63   69.19
   2   2   7 1719.83   84.19
   2   2   7 1797.12   84.69
   2   2   7 2021.50  121.39
  -3  -2  -7  101.99   53.49
  -3  -2  -7   94.29   43.70
  -3  -2  -7  135.09   21.30
  -3  -2  -7  140.19   19.40
  -3  -2  -7  148.39   33.30
   3   2   7  121.89   15.40
   3   2   7   86.49   25.40
   3   2   7  132.59   33.60
   3   2   7  160.48   23.20
   3   2   7  126.19   20.10
   3   2   7  104.59   14.30
  -4  -2  -7    0.40   19.40
  -4  -2  -7   -8.60   28.00
  -4  -2  -7   17.70    9.20
  -4  -2  -7  -10.30   19.00
  -4  -2  -7   -1.40    8.90
   4   2   7    3.20    4.40
   4   2   7   -8.70    4.20
   4   2   7   -3.30    7.00
  -5  -2  -7  -18.80   16.50
  -5  -2  -7   42.00   39.60
  -5  -2  -7   35.40   22.30
   5   2   7   -8.70    6.80
   5   2   7   -3.50    7.60
   5   2   7    6.70    5.80
   5   2   7    3.60    4.90
   5   2   7   27.50   16.30
  -6  -2  -7  233.48   87.09
  -6  -2  -7  140.19   55.79
  -6  -2  -7  175.98   59.89
   6   2   7  189.48   23.70
   6   2   7  182.98   25.90
   6   2   7  195.68   28.90
   6   2   7  172.68   21.20
  -7  -2  -7  415.56   91.09
  -7  -2  -7  423.96   78.09
  -7  -2  -7  381.46   93.49
   7   2   7  346.77   40.10
   7   2   7  283.97   38.60
   7   2   7  332.67   30.70
   7   2   7  330.47   40.10
  -8  -2  -7  233.58   66.59
  -8  -2  -7  213.38   59.29
  -8  -2  -7  255.37   88.99
  -8  -2  -7  265.67   75.19
   8   2   7  217.48   72.49
   8   2   7  210.28   26.10
   8   2   7  261.67   33.00
   8   2   7  157.58   34.50
  -9  -2  -7  142.79   53.59
  -9  -2  -7  182.98   48.90
  -9  -2  -7   88.09   64.29
  -9  -2  -7   30.10   51.59
   9   2   7   70.09   27.80
   9   2   7  114.09   24.40
   9   2   7   72.39   35.90
 -10  -2  -7   32.30   52.29
 -10  -2  -7   60.49   46.20
  10   2   7   15.30   15.70
  10   2   7   23.30   13.20
  10   2   7  -14.90   31.50
   6  -3  -7    4.20   28.60
   5  -3  -7   21.70   43.60
   5  -3  -7    9.90   21.70
   5  -3  -7   21.50   49.80
  -5   3   7   26.60   26.20
  -5   3   7    6.20    9.00
  -5   3   7   48.60   24.40
  -5   3   7   17.40   25.90
   4  -3  -7   65.99   24.90
   4  -3  -7   14.60   48.50
  -4   3   7   85.89   33.60
  -4   3   7   51.99   28.50
  -4   3   7   61.39   24.40
  -4   3   7   42.20   13.80
  -4   3   7   42.70   12.90
   3  -3  -7  -12.70   10.60
   3  -3  -7   -7.00   34.00
   3  -3  -7   -8.10   19.30
  -3   3   7  -12.40   14.70
  -3   3   7    4.60   13.20
  -3   3   7    0.20    6.20
  -3   3   7  -11.80   11.40
   2  -3  -7  102.29   24.10
   2  -3  -7  136.29   48.80
   2  -3  -7   21.00   32.60
   2  -3  -7   18.70   41.20
  -2   3   7   82.09   27.70
  -2   3   7   79.79   23.10
  -2   3   7   76.99   28.30
  -2   3   7   81.59   15.80
   1  -3  -7    0.10   14.70
   1  -3  -7  -10.90   21.80
  -1   3   7   -2.20    9.60
  -1   3   7   -5.20    5.20
  -1   3   7    4.60   11.10
  -1   3   7    4.90    8.40
   0  -3  -7    0.50    7.30
   0  -3  -7  -18.10   16.20
   0  -3  -7   22.80   18.70
   0  -3  -7    9.60    9.60
   0   3   7   -2.90    3.70
   0   3   7   16.80    9.20
   0   3   7    7.90    8.10
  -1  -3  -7  116.69   37.50
  -1  -3  -7   57.69   29.60
  -1  -3  -7  127.49   29.90
  -1  -3  -7  132.39   20.40
  -1  -3  -7  103.59   62.29
   1   3   7  114.69   15.40
   1   3   7  103.89   21.90
   1   3   7  117.99   26.80
   1   3   7  164.08   22.50
   1   3   7   89.49   20.70
  -2  -3  -7  182.98   56.59
  -2  -3  -7  323.97   49.60
  -2  -3  -7  225.68   76.79
  -2  -3  -7  361.16   33.50
  -2  -3  -7  289.97   41.60
   2   3   7  317.57   26.30
   2   3   7  403.96   38.20
   2   3   7  282.57   29.30
   2   3   7  306.87   38.60
   2   3   7  344.97   32.80
  -3  -3  -7  149.69   63.49
  -3  -3  -7   53.09   27.50
  -3  -3  -7  180.88   42.50
  -3  -3  -7   58.59   39.20
  -3  -3  -7  125.89   17.60
   3   3   7  132.59   30.00
   3   3   7  131.09   16.80
   3   3   7  180.18   27.50
   3   3   7  111.39   22.50
   3   3   7  123.09   18.10
  -4  -3  -7  -11.10    6.40
  -4  -3  -7   -0.70   16.40
  -4  -3  -7   21.80   23.30
  -4  -3  -7  -20.70   18.90
  -4  -3  -7   14.50   12.70
   4   3   7    5.30    4.40
   4   3   7    0.60    5.90
   4   3   7   -2.90    5.00
  -5  -3  -7    0.60    9.90
  -5  -3  -7    1.30   11.00
  -5  -3  -7    3.40   31.90
  -5  -3  -7   -4.00   25.10
   5   3   7   -0.20    4.50
   5   3   7    1.10    6.40
   5   3   7    9.40    7.50
  -6  -3  -7  257.97   79.39
  -6  -3  -7  202.48   65.39
  -6  -3  -7  231.08   32.50
  -6  -3  -7  250.27   57.39
  -6  -3  -7  147.29   32.70
   6   3   7  161.38   20.60
   6   3   7  205.28   29.30
   6   3   7  153.88   24.20
   6   3   7  197.58   29.70
  -7  -3  -7  485.55   87.79
  -7  -3  -7  390.06  100.59
  -7  -3  -7  436.86   74.59
   7   3   7  421.06   45.00
   7   3   7  452.05   42.90
   7   3   7  426.76   44.80
   7   3   7  415.46   34.10
  -8  -3  -7  502.85   89.19
  -8  -3  -7  426.56  112.69
  -8  -3  -7  477.55   78.09
   8   3   7  484.55   51.59
   8   3   7  528.85   43.90
   8   3   7  427.96   52.19
   8   3   7  424.76   36.50
  -9  -3  -7  291.67   72.89
  -9  -3  -7  270.97   94.19
  -9  -3  -7  229.38   63.89
   9   3   7  161.08   35.00
   9   3   7  182.58   41.90
 -10  -3  -7   49.80   37.90
 -10  -3  -7   28.60   38.00
  10   3   7   54.89   15.20
  10   3   7   23.00   18.00
  10   3   7   31.40   29.30
   5  -4  -7   12.00   25.50
   5  -4  -7   81.89   39.40
   5  -4  -7  -40.10   59.69
  -5   4   7   -8.60   16.40
  -5   4   7  -12.90   18.80
  -5   4   7   -3.70   24.00
  -5   4   7   -8.20   16.00
   4  -4  -7   -8.30   13.50
   4  -4  -7    7.30   31.70
  -4   4   7   23.00   19.70
  -4   4   7    8.40   14.20
  -4   4   7   31.20   22.40
  -4   4   7   20.60   20.10
   3  -4  -7    2.60   46.50
   3  -4  -7   46.90   31.70
   3  -4  -7  -18.10   31.30
   3  -4  -7   41.20   21.40
  -3   4   7   -1.00   16.60
  -3   4   7   10.70   12.00
  -3   4   7   12.40   17.80
  -3   4   7    9.60   16.10
   2  -4  -7  276.77   69.49
   2  -4  -7  219.28   89.79
   2  -4  -7  267.67   38.90
  -2   4   7  363.76   46.50
  -2   4   7  366.96   51.09
  -2   4   7  249.48   28.70
  -2   4   7  312.47   45.60
   1  -4  -7 1219.78   83.29
   1  -4  -7 1084.09  117.19
   1  -4  -7 1024.20   68.69
  -1   4   7 1142.39   83.59
  -1   4   7 1186.58   80.09
  -1   4   7 1096.69   60.29
   0  -4  -7  471.55   50.19
   0  -4  -7  497.45   72.29
   0  -4  -7  272.07   96.89
   0  -4  -7  483.35   41.40
   0   4   7  500.65   37.50
   0   4   7  495.65   48.60
   0   4   7  526.85   49.80
  -1  -4  -7  168.48   26.20
  -1  -4  -7  184.88   35.00
  -1  -4  -7  217.98   56.39
  -1  -4  -7  110.59   54.89
   1   4   7  168.08   49.50
   1   4   7  147.59   20.60
   1   4   7  190.38   29.50
   1   4   7  160.78   24.50
  -2  -4  -7   22.30   31.70
  -2  -4  -7   12.30    9.80
  -2  -4  -7   14.30   11.80
  -2  -4  -7    1.90   11.50
  -2  -4  -7   12.80   16.40
   2   4   7   -3.70    6.10
   2   4   7   -2.30    6.70
   2   4   7    9.50   28.10
   2   4   7    5.60    6.10
   2   4   7   13.50    7.40
  -3  -4  -7    7.30   27.30
  -3  -4  -7   11.60   15.70
  -3  -4  -7    4.80    6.90
  -3  -4  -7   -8.20   22.60
   3   4   7   12.50    7.40
   3   4   7    7.80    6.90
   3   4   7    1.80    8.20
   3   4   7   36.50   36.00
  -4  -4  -7  135.49   55.29
  -4  -4  -7  158.78   57.59
  -4  -4  -7  100.89   30.90
  -4  -4  -7  129.39   16.20
  -4  -4  -7  127.29   35.90
   4   4   7  123.99   19.40
   4   4   7  116.99   25.70
   4   4   7  132.99   17.80
  -5  -4  -7  -37.30   23.40
  -5  -4  -7   31.80   13.60
  -5  -4  -7   46.00   29.70
  -5  -4  -7   -0.50   11.10
   5   4   7   -1.50    7.20
   5   4   7   -1.30    5.90
   5   4   7    1.60    5.10
  -6  -4  -7   22.60   33.80
  -6  -4  -7    6.70   32.00
  -6  -4  -7   43.60   13.60
  -6  -4  -7  -14.70   17.80
  -6  -4  -7   30.40   12.70
   6   4   7   29.30   14.20
   6   4   7   38.30   16.40
   6   4   7   26.10   12.70
   6   4   7   15.60    8.60
  -7  -4  -7   45.00   21.90
  -7  -4  -7  -16.10   15.30
  -7  -4  -7   -9.20   14.50
  -7  -4  -7   28.70   39.60
  -7  -4  -7   24.70   24.40
   7   4   7    3.40   12.90
   7   4   7   39.10   11.30
   7   4   7   13.90    7.40
   7   4   7   30.20   15.90
   7   4   7   54.19   26.00
  -8  -4  -7   40.00   29.00
  -8  -4  -7    9.40   18.90
  -8  -4  -7   49.40   36.50
  -8  -4  -7  123.79   59.69
   8   4   7   28.80   18.50
   8   4   7   83.59   24.50
   8   4   7   45.20   10.90
   8   4   7   87.89   19.10
  -9  -4  -7   67.59   35.20
  -9  -4  -7  -38.50   29.20
   9   4   7   -5.00   11.30
   9   4   7    7.90    9.80
   9   4   7   -1.50   19.10
 -10  -4  -7   -8.30   28.50
 -10  -4  -7  -11.50   35.40
  10   4   7   -9.40    8.70
  10   4   7   31.10   25.00
  10   4   7   -0.50   12.50
   5  -5  -7  147.49   50.39
   5  -5  -7   27.20   69.59
  -5   5   7   74.49   24.50
  -5   5   7    7.00   19.90
  -5   5   7   87.39   33.00
  -5   5   7   55.39   34.00
   4  -5  -7   32.90   24.50
   4  -5  -7  -49.80   58.79
   4  -5  -7   31.80   34.00
  -4   5   7   46.00   24.00
  -4   5   7   25.20   25.20
  -4   5   7   13.10   22.90
  -4   5   7   -6.00   13.90
   3  -5  -7   59.79   31.20
   3  -5  -7   39.50   42.10
   3  -5  -7  -15.30   35.40
   3  -5  -7   40.60   71.79
  -3   5   7   68.69   25.10
  -3   5   7   47.80   26.00
  -3   5   7   18.90   22.50
   2  -5  -7  316.37   99.39
   2  -5  -7  479.55   54.69
   2  -5  -7  521.85   85.99
   2  -5  -7  584.64   65.99
  -2   5   7  639.74   69.09
  -2   5   7  491.15   44.40
  -2   5   7  623.44   64.99
  -2   5   7  553.54   54.99
   1  -5  -7  424.46   95.49
   1  -5  -7  308.87   93.19
   1  -5  -7  450.35   61.49
   1  -5  -7  295.07   52.49
  -1   5   7  442.16   39.70
  -1   5   7  464.95   55.49
  -1   5   7  514.45   56.89
   0  -5  -7  189.18   39.90
   0  -5  -7  170.78   22.90
   0  -5  -7  165.98   53.39
   0  -5  -7  218.28   94.29
   0   5   7  176.08   34.70
   0   5   7  278.17   40.40
   0   5   7  194.48   26.00
  -1  -5  -7   17.70   12.00
  -1  -5  -7   -5.40   10.70
  -1  -5  -7   15.20   40.90
  -1  -5  -7   -7.70   17.70
  -1  -5  -7    8.40    7.70
   1   5   7    5.60   13.30
   1   5   7   18.60   10.00
   1   5   7   -0.60    8.40
  -2  -5  -7   89.89   80.19
  -2  -5  -7    1.20   10.90
  -2  -5  -7    9.10   16.80
  -2  -5  -7    2.40    8.40
  -2  -5  -7   47.30   18.20
  -2  -5  -7  -16.50   13.50
   2   5   7   27.90   21.80
   2   5   7   14.90   21.50
   2   5   7   12.20   10.40
   2   5   7    3.00    9.10
   2   5   7   -1.30    5.50
  -3  -5  -7   50.89   17.70
  -3  -5  -7   32.90   27.40
  -3  -5  -7   27.80   12.90
  -3  -5  -7   52.19   34.20
   3   5   7   26.80   15.90
   3   5   7   27.00   10.50
   3   5   7   48.30   13.40
   3   5   7   44.00   14.90
  -4  -5  -7  553.94   78.09
  -4  -5  -7  551.64   68.79
  -4  -5  -7  707.03  111.99
   4   5   7  545.95   52.69
   4   5   7  642.14   43.50
   4   5   7  605.44   43.60
  -5  -5  -7  704.73   83.19
  -5  -5  -7  902.61  106.09
  -5  -5  -7  868.81  123.09
   5   5   7  754.32   61.79
   5   5   7  727.43   49.20
   5   5   7  762.32   48.70
  -6  -5  -7  751.92   77.79
  -6  -5  -7  750.92  105.09
  -6  -5  -7  763.42  114.49
   6   5   7  666.33   47.10
   6   5   7  667.33   58.59
   6   5   7  648.24   45.50
  -7  -5  -7  510.05   88.39
  -7  -5  -7  256.97   38.30
  -7  -5  -7  372.56   36.80
  -7  -5  -7  400.26   91.19
  -7  -5  -7  386.26   54.19
   7   5   7  326.17   33.20
   7   5   7  304.47   41.60
   7   5   7  368.06   48.60
   7   5   7  388.96   32.90
  -8  -5  -7  153.88   42.00
  -8  -5  -7   89.49   50.09
  -8  -5  -7  145.69   61.19
  -8  -5  -7   47.70   28.00
  -8  -5  -7  154.38   31.50
   8   5   7  108.69   20.90
   8   5   7   92.09   30.70
   8   5   7  152.38   34.10
  -9  -5  -7   67.29   34.80
  -9  -5  -7   65.79   27.40
  -9  -5  -7   47.80   40.80
   9   5   7   91.69   26.10
   9   5   7   56.09   21.90
 -10  -5  -7    7.50   32.60
 -10  -5  -7   67.99   39.00
  10   5   7   52.89   31.60
  10   5   7   62.79   15.70
  10   5   7   57.79   20.90
   4  -6  -7    3.60   44.10
   4  -6  -7  -28.50   47.90
   4  -6  -7  -26.70   27.30
  -4   6   7   29.90   26.90
  -4   6   7   18.80   19.70
  -4   6   7   23.50   29.90
  -4   6   7  -18.30   20.90
   3  -6  -7   42.80   34.60
   3  -6  -7   79.39   33.70
   3  -6  -7   94.79   58.89
   3  -6  -7   63.99   31.00
  -3   6   7   37.80   16.20
  -3   6   7   -5.70   22.00
  -3   6   7   46.10   23.80
   2  -6  -7   -8.90   44.10
   2  -6  -7   -2.00   31.20
   2  -6  -7  -57.09   29.70
   2  -6  -7   13.90   20.40
  -2   6   7    9.30   17.70
  -2   6   7  -10.90   12.30
  -2   6   7  -16.30   15.80
   1  -6  -7   39.50   31.20
   1  -6  -7  -62.99   36.50
   1  -6  -7   33.20   19.80
  -1   6   7   21.60   17.10
  -1   6   7   32.40   17.90
  -1   6   7   33.30   21.50
   0  -6  -7  246.68   50.29
   0  -6  -7  168.18   74.39
   0  -6  -7  171.98   62.69
   0   6   7  237.28   44.80
   0   6   7  259.87   32.90
   0   6   7  269.47   42.20
  -1  -6  -7   26.60   24.60
  -1  -6  -7   23.10   17.70
  -1  -6  -7  -43.30   29.40
   1   6   7   23.70   10.80
   1   6   7   46.70   15.20
   1   6   7   50.79   21.60
  -2  -6  -7   13.50   18.30
  -2  -6  -7   54.29   20.10
  -2  -6  -7   47.50   20.50
  -2  -6  -7    8.60   36.60
  -2  -6  -7   28.50   11.60
  -2  -6  -7   17.20   23.60
   2   6   7   44.20   10.70
   2   6   7   38.10   16.00
   2   6   7   21.40   15.90
   2   6   7   59.99   23.20
  -3  -6  -7   36.50   14.40
  -3  -6  -7   29.30   39.40
  -3  -6  -7   48.00   22.90
  -3  -6  -7   51.89   24.10
   3   6   7   16.00   13.60
   3   6   7   11.30   13.30
  -4  -6  -7  321.07   68.79
  -4  -6  -7  283.87   48.70
  -4  -6  -7  252.57   77.09
   4   6   7  243.58   37.70
   4   6   7  254.87   30.50
   4   6   7  253.97   29.90
  -5  -6  -7  893.31   92.39
  -5  -6  -7  922.31  128.79
  -5  -6  -7  839.42   90.29
   5   6   7  792.42   69.99
   5   6   7  927.01   57.19
   5   6   7  915.11   54.99
  -6  -6  -7 1149.58  115.39
  -6  -6  -7 1252.27  149.88
  -6  -6  -7 1036.30   97.39
   6   6   7 1175.88   84.69
   6   6   7 1094.69   63.99
   6   6   7 1202.98   63.69
  -7  -6  -7  362.66   93.39
  -7  -6  -7  430.26   74.69
  -7  -6  -7  415.56   57.89
   7   6   7  374.36   34.40
   7   6   7  414.06   34.50
   7   6   7  380.46   53.39
   7   6   7  390.66   47.70
  -8  -6  -7   48.90   32.60
  -8  -6  -7   21.70   29.00
  -8  -6  -7   43.70   25.70
   8   6   7   24.70   10.70
   8   6   7   -5.00   15.60
   8   6   7   -8.70   11.90
  -9  -6  -7   -0.60   28.80
  -9  -6  -7   28.20   35.90
   9   6   7    1.20    8.50
   9   6   7   -2.30   12.10
   9   6   7   -4.10   17.80
 -10  -6  -7  -26.30   23.50
 -10  -6  -7  -12.60   31.00
  10   6   7    1.60   24.30
  10   6   7    2.30    8.70
  10   6   7    6.60   12.70
   3  -7  -7   97.09   54.49
   3  -7  -7   43.70   31.00
   3  -7  -7   52.39   65.69
  -3   7   7  118.09   44.20
  -3   7   7  134.19   47.00
  -3   7   7  153.48   35.00
   2  -7  -7  112.49   33.00
   2  -7  -7   57.89   44.70
   2  -7  -7   49.40   66.79
  -2   7   7   65.79   24.30
  -2   7   7   76.79   39.50
  -2   7   7   82.29   34.00
   1  -7  -7   34.00   19.80
   1  -7  -7  -17.40   26.30
   1  -7  -7  -39.30   45.30
  -1   7   7   75.89   35.70
  -1   7   7   22.70   22.30
  -1   7   7   35.50   19.80
   0  -7  -7   13.10   42.00
   0  -7  -7   15.60   20.40
   0  -7  -7   71.29   29.50
   0   7   7   43.30   15.00
   0   7   7   35.90   21.30
   0   7   7   36.20   21.80
  -1  -7  -7  -12.70   34.70
  -1  -7  -7   -8.00   13.10
  -1  -7  -7   41.30   14.60
   1   7   7   14.30   19.10
   1   7   7    9.00   11.30
   1   7   7    9.90   10.10
  -2  -7  -7  -24.20   21.00
  -2  -7  -7   25.10   30.00
  -2  -7  -7   52.79   33.50
  -2  -7  -7   17.10   18.20
   2   7   7   27.50   15.60
   2   7   7   37.20   21.40
   2   7   7   34.10   11.10
   2   7   7   -1.40   10.20
  -3  -7  -7   62.79   31.70
  -3  -7  -7   79.89   52.09
  -3  -7  -7   63.29   27.40
  -3  -7  -7   60.99   18.20
   3   7   7   97.79   29.70
   3   7   7  129.89   31.70
   3   7   7   71.49   27.40
   3   7   7   87.29   22.00
  -4  -7  -7   48.40   34.90
  -4  -7  -7   30.80   21.60
   4   7   7   16.20   14.30
   4   7   7   15.00   14.50
   4   7   7   -9.80   41.40
   4   7   7   23.20   12.50
  -5  -7  -7  175.78   48.40
  -5  -7  -7  129.29   56.99
  -5  -7  -7  110.89   35.70
   5   7   7   93.69   21.60
   5   7   7   85.09   28.30
   5   7   7  135.59   26.00
  -6  -7  -7   96.69   32.50
  -6  -7  -7  104.59   34.60
  -6  -7  -7  176.18   61.29
   6   7   7  130.49   19.00
   6   7   7  102.89   30.60
   6   7   7  125.49   24.40
  -7  -7  -7  -16.50   29.80
  -7  -7  -7   26.40   20.90
  -7  -7  -7   -6.60   21.70
   7   7   7   18.30    9.80
   7   7   7   20.40   11.90
   7   7   7    7.90    7.10
   7   7   7   17.80   16.00
  -8  -7  -7   -4.30   21.20
  -8  -7  -7   19.30   29.50
  -8  -7  -7   37.70   39.00
   8   7   7    7.50    8.70
   8   7   7   11.60   12.80
   8   7   7    1.00   15.40
  -9  -7  -7   32.00   36.80
  -9  -7  -7  119.59   34.40
  -9  -7  -7   65.09   25.60
   9   7   7    3.80   22.60
   9   7   7   53.09   22.30
   9   7   7   36.00   11.20
  10   7   7  -23.10   23.60
   3  -8  -7  -98.69   77.29
   3  -8  -7   91.99   65.19
   3  -8  -7  137.69   43.70
  -3   8   7   17.60   30.00
  -3   8   7   94.69   40.70
   2  -8  -7   80.49   37.70
   2  -8  -7  173.78   59.29
   2  -8  -7  -40.50   64.89
  -2   8   7  187.18   54.09
  -2   8   7  145.19   33.50
   1  -8  -7   52.99   33.80
   1  -8  -7   20.80   23.40
   1  -8  -7  -72.29   38.90
  -1   8   7   38.50   13.70
  -1   8   7    6.60   18.50
  -1   8   7    6.20   22.00
   0  -8  -7  -24.90   19.80
   0  -8  -7    6.80   22.90
   0  -8  -7  -31.60   36.90
   0   8   7    2.40   20.00
   0   8   7   -6.80   15.40
   0   8   7  -18.50    8.70
  -1  -8  -7   15.20   24.20
  -1  -8  -7   27.70   41.40
  -1  -8  -7   -2.20   20.80
   1   8   7   16.10   14.30
   1   8   7   59.19   26.50
   1   8   7   34.90   17.20
  -2  -8  -7  515.05   65.79
  -2  -8  -7  385.66   68.49
  -2  -8  -7  531.45  109.09
  -2  -8  -7  525.85  100.09
   2   8   7  412.26   62.99
   2   8   7  488.05   50.29
   2   8   7  490.15   41.00
   2   8   7  435.66   55.19
  -3  -8  -7  652.83   93.19
  -3  -8  -7  768.52  120.99
  -3  -8  -7  754.52   84.69
   3   8   7  705.93   66.59
   3   8   7  752.92   58.69
   3   8   7  762.72   79.69
  -4  -8  -7  694.83   97.59
  -4  -8  -7  854.51  127.49
  -4  -8  -7  718.43   52.09
  -4  -8  -7  627.04   80.19
   4   8   7  756.32   78.19
   4   8   7  771.92   64.49
   4   8   7  738.13   58.09
  -5  -8  -7  567.24  102.59
  -5  -8  -7  518.55   76.99
  -5  -8  -7  408.46   50.79
   5   8   7  484.35   46.80
   5   8   7  472.15   61.69
   5   8   7  409.16   42.00
  -6  -8  -7   13.80   27.90
  -6  -8  -7   -7.40   29.10
   6   8   7   25.00   12.20
   6   8   7   55.09   13.90
   6   8   7   12.80   19.00
  -7  -8  -7   81.79   44.50
  -7  -8  -7  265.37   93.89
  -7  -8  -7  201.68   53.69
   7   8   7  132.19   40.70
   7   8   7  196.48   23.10
   7   8   7  154.98   39.10
   7   8   7  129.89   25.50
  -8  -8  -7   22.10   23.70
  -8  -8  -7    2.40   30.20
  -8  -8  -7   -3.90   20.30
   8   8   7   14.70   15.20
   8   8   7  -10.50    8.30
   8   8   7   -6.40   15.80
  -9  -8  -7  108.89   38.30
  -9  -8  -7   45.80   39.80
  -9  -8  -7   89.79   45.00
   9   8   7  116.99   23.30
   9   8   7   74.79   27.30
   9   8   7  109.09   37.90
   2  -9  -7   16.80   25.90
   2  -9  -7  -67.79   55.09
   2  -9  -7  -64.79   41.30
  -2   9   7    9.40   25.90
  -2   9   7   29.90   21.80
  -2   9   7    7.20   25.30
   1  -9  -7   26.60   31.60
   1  -9  -7  -13.70   41.50
   1  -9  -7  -26.00   32.10
  -1   9   7   32.90   35.20
  -1   9   7   82.49   25.10
  -1   9   7    4.10   23.40
   0  -9  -7   28.60   35.00
   0  -9  -7   60.69   32.00
   0  -9  -7   23.50   41.10
   0   9   7   -6.50   20.40
   0   9   7   43.80   33.20
   0   9   7   26.70   27.10
  -1  -9  -7   97.49   38.50
  -1  -9  -7  -14.20   41.20
  -1  -9  -7   25.00   28.80
   1   9   7    7.10   15.50
   1   9   7   33.00   42.10
  -2  -9  -7   81.09   40.50
  -2  -9  -7   36.80   30.90
  -2  -9  -7   36.00   38.70
   2   9   7   44.30   25.20
   2   9   7   20.80   23.80
   2   9   7   55.89   22.50
   2   9   7   62.79   19.80
  -3  -9  -7  427.96   79.49
  -3  -9  -7  449.86   99.19
  -3  -9  -7  403.26   96.69
   3   9   7  382.36   60.09
   3   9   7  432.96   46.50
   3   9   7  436.06   55.39
  -4  -9  -7  447.76   93.59
  -4  -9  -7  415.96  100.89
  -4  -9  -7  434.46   81.09
   4   9   7  351.06   49.00
   4   9   7  400.46   61.99
   4   9   7  406.76   45.90
  -5  -9  -7  222.28   64.49
  -5  -9  -7  162.58   59.29
  -5  -9  -7  179.58   31.70
   5   9   7  199.78   35.80
   5   9   7  175.38   36.00
   5   9   7  138.29   39.90
  -6  -9  -7  -26.00   27.90
  -6  -9  -7   47.30   24.40
  -6  -9  -7    8.50   49.90
   6   9   7    4.50   18.50
   6   9   7   11.00   19.20
  -7  -9  -7  159.28   46.90
  -7  -9  -7  119.49   46.80
  -7  -9  -7   95.09   36.60
   7   9   7   88.89   33.20
   7   9   7  143.99   21.00
   7   9   7  121.59   23.20
  -8  -9  -7   34.10   27.40
  -8  -9  -7    5.00   27.10
  -8  -9  -7   38.70   26.40
   8   9   7   18.00   23.50
   8   9   7   11.20   16.80
   8   9   7   -5.30   10.30
   8   9   7   26.50   10.50
  -9  -9  -7   69.69   37.40
  -9  -9  -7   77.69   46.70
  -9  -9  -7   57.69   41.30
   9   9   7   80.29   20.70
   9   9   7   97.79   35.00
   1 -10  -7   85.89   37.90
   1 -10  -7   -2.70   55.89
  -1  10   7   42.20   34.50
  -1  10   7   33.60   25.20
  -1  10   7   -2.40   25.50
   0 -10  -7  -33.30   39.70
   0 -10  -7   22.70   27.20
   0  10   7   21.80   31.50
   0  10   7  -16.70   18.60
   0  10   7  -12.10   17.70
  -1 -10  -7  142.89   58.49
  -1 -10  -7   43.20   52.69
  -1 -10  -7  105.09   43.40
   1  10   7   70.79   30.70
   1  10   7  138.09   34.90
   1  10   7   21.10   29.10
  -2 -10  -7  -17.50   32.10
  -2 -10  -7   73.49   32.00
  -2 -10  -7   51.39   46.40
   2  10   7   40.00   18.30
   2  10   7  -15.10   18.20
   2  10   7   26.60   19.20
   2  10   7   31.80   28.80
  -3 -10  -7  121.49   52.39
  -3 -10  -7  188.78   62.89
  -3 -10  -7   68.99   40.60
   3  10   7  137.29   33.00
   3  10   7  191.18   51.19
  -4 -10  -7   25.50   23.40
  -4 -10  -7   25.00   33.10
  -4 -10  -7   -1.90   33.80
   4  10   7   10.10   13.30
   4  10   7   10.50   28.00
  -5 -10  -7   16.40   16.00
  -5 -10  -7   74.49   31.90
  -5 -10  -7   27.00   45.50
   5  10   7   29.50   26.60
   5  10   7   21.80   20.20
   5  10   7    7.90   15.70
  -6 -10  -7   21.10   34.40
  -6 -10  -7   -4.90   34.80
  -6 -10  -7   63.79   27.60
   6  10   7   46.00   22.10
   6  10   7   80.89   35.70
   6  10   7   71.39   17.10
  -7 -10  -7   28.70   36.80
  -7 -10  -7   35.40   31.50
  -7 -10  -7   -4.70   18.00
   7  10   7    0.60   11.60
   7  10   7   33.30   15.20
   7  10   7   31.00   22.90
  -8 -10  -7   34.90   28.20
  -8 -10  -7   95.29   35.10
   8  10   7    9.90   20.30
   8  10   7   52.59   18.10
   8  10   7    0.50   22.90
   8  10   7   44.60   15.60
  -1 -11  -7  351.06   85.29
  -1 -11  -7  295.87   75.39
  -1 -11  -7  200.18   72.49
   1  11   7  372.36   71.29
   1  11   7  491.35   57.99
   1  11   7  421.16   58.49
  -2 -11  -7  265.67   78.09
  -2 -11  -7  391.96   95.69
  -2 -11  -7  407.06   85.39
   2  11   7  510.55   49.90
   2  11   7  360.26   77.59
   2  11   7  393.56   83.19
   2  11   7  470.15   58.29
  -3 -11  -7  276.07   67.59
  -3 -11  -7  282.57   79.39
  -3 -11  -7  189.58   67.89
   3  11   7  262.37   50.59
   3  11   7  248.78   60.29
   3  11   7  282.27   69.19
  -4 -11  -7   43.70   35.90
  -4 -11  -7  111.19   79.49
  -4 -11  -7   78.29   34.40
   4  11   7   51.49   22.70
   4  11   7   -5.90   21.50
   4  11   7   35.30   31.40
  -5 -11  -7  -32.70   28.40
  -5 -11  -7   53.19   40.70
   5  11   7   16.90   23.80
   5  11   7   -1.10   14.00
   5  11   7    5.50   21.10
  -6 -11  -7  -15.10   25.10
  -6 -11  -7  -13.10   20.60
  -6 -11  -7   11.40   38.60
   6  11   7   -9.00   17.90
   6  11   7    1.90   14.50
   6  11   7    3.80   19.30
  -7 -11  -7    6.40   34.90
  -7 -11  -7   10.00   37.40
  -7 -11  -7   -0.70   22.10
   7  11   7  -10.10   14.70
   7  11   7   55.69   19.50
   7  11   7   -6.90   19.00
  -3 -12  -7  -45.00   34.90
  -3 -12  -7   18.40   38.50
   3  12   7   -1.40   18.40
   3  12   7   24.50   13.00
   3  12   7  -25.10   23.20
  -4 -12  -7  -14.30   32.80
  -4 -12  -7  -14.60   25.80
  -4 -12  -7   64.99   33.30
   4  12   7    7.50   13.00
   4  12   7   35.70   19.90
   4  12   7    4.70   26.70
  -5 -12  -7  -18.60   36.90
  -5 -12  -7   26.20   25.50
   5  12   7  -32.90   24.10
   5  12   7    0.70   16.70
   5  12   7  -34.60   22.20
   3   9  -8  -22.60   13.70
   3   9  -8   -5.90   18.40
   3   9  -8  128.39   55.09
   3   9  -8   90.19   64.49
   3   9  -8  -96.09   50.09
  -3  -9   8    6.10   37.70
  -3  -9   8   -8.30   28.00
   2   9  -8  -68.99   42.10
   2   9  -8   65.69   57.69
   2   9  -8   52.19   21.50
   2   9  -8  -40.70   27.20
   2   9  -8   43.40   24.90
   2   9  -8   27.50   20.30
   2   9  -8  -54.39   46.10
  -2  -9   8   43.00   24.60
  -2  -9   8  -12.80   19.30
  -2  -9   8  -31.70   28.50
   1   9  -8   -6.70   55.99
   1   9  -8  -41.90   50.39
   1   9  -8  112.29   73.59
   1   9  -8   -2.20   33.80
   1   9  -8   48.90   23.20
   1   9  -8   65.49   23.60
  -1  -9   8   24.80   27.00
  -1  -9   8   44.80   39.00
  -1  -9   8   29.80   36.30
  -1  -9   8  -15.80   21.20
   0   9  -8   38.40   45.90
   0   9  -8  138.29   59.59
   0   9  -8   69.79   26.50
   0   9  -8  -13.60   50.99
   0   9  -8   22.40   19.90
   0   9  -8   -1.00   41.70
   0  -9   8   22.10   29.10
   0  -9   8   53.49   24.60
   0  -9   8   26.40   37.70
  -1   9  -8  -50.49   38.70
  -1   9  -8  -78.59   54.69
  -1   9  -8   66.19   58.19
   1  -9   8   -8.50   15.00
   1  -9   8   52.29   30.20
   1  -9   8   53.59   38.30
  -2   9  -8   94.59   47.80
  -2   9  -8  -59.69   41.70
  -2   9  -8   16.10   62.09
   2  -9   8   15.60   36.20
   2  -9   8   55.19   31.60
   2  -9   8   81.09   22.00
   4   8  -8   62.59   19.60
   4   8  -8  -22.50   48.90
   4   8  -8   65.59   60.79
  -4  -8   8   50.39   33.40
  -4  -8   8   65.49   33.30
  -4  -8   8   16.10   33.80
   3   8  -8    2.90   13.90
   3   8  -8   -2.20   21.70
   3   8  -8    7.90   54.49
   3   8  -8   37.80   40.30
   3   8  -8   40.20   47.80
   3   8  -8   30.20   16.70
  -3  -8   8   29.20   25.10
  -3  -8   8   13.90   35.30
  -3  -8   8  -11.40   16.50
  -3  -8   8  -28.00   33.50
   2   8  -8   10.80   19.70
   2   8  -8   84.89   30.80
   2   8  -8   61.59   22.40
   2   8  -8   68.59   64.59
   2   8  -8   65.29   44.30
  -2  -8   8   96.49   43.80
  -2  -8   8   43.90   21.00
  -2  -8   8   72.39   39.80
   1   8  -8   57.89   43.20
   1   8  -8   27.10   50.49
   1   8  -8  166.98   32.10
   1   8  -8  242.68   31.40
   1   8  -8   49.40   57.29
  -1  -8   8  156.58   42.40
  -1  -8   8  197.78   55.09
  -1  -8   8  149.29   36.30
  -1  -8   8  166.38   58.59
   0   8  -8   89.09   65.99
   0   8  -8  130.89   31.90
   0   8  -8   44.20   50.99
   0   8  -8  116.39   55.39
   0   8  -8  215.38   30.40
   0  -8   8  165.88   45.50
   0  -8   8  180.98   66.39
   0  -8   8  157.38   39.30
   0  -8   8  204.38   50.49
  -1   8  -8  -21.70   28.60
  -1   8  -8   80.99   54.79
  -1   8  -8   88.79   63.79
  -1   8  -8   65.09   50.99
   1  -8   8   52.89   20.70
   1  -8   8   68.39   27.90
   1  -8   8  109.99   39.70
  -2   8  -8   65.49   57.89
  -2   8  -8   57.99   33.20
  -2   8  -8  100.49   64.59
   2  -8   8    8.20   20.80
   2  -8   8   48.40   41.10
  -3   8  -8   24.70   30.30
  -3   8  -8   25.10   57.79
   3  -8   8  -21.60   30.80
   3  -8   8   28.30   23.10
   3  -8   8   73.59   34.30
   5   7  -8   22.80   57.19
   5   7  -8   -2.30   26.70
   5   7  -8   64.09   46.50
   5   7  -8   85.99   20.40
  -5  -7   8   66.49   47.10
  -5  -7   8   60.49   24.60
   4   7  -8   40.50   60.29
   4   7  -8   83.89   59.69
   4   7  -8   63.09   15.80
   4   7  -8   80.59   19.30
   4   7  -8   70.39   34.40
  -4  -7   8  128.89   38.70
  -4  -7   8   98.59   49.60
  -4  -7   8   66.19   44.90
   3   7  -8    6.30   12.10
   3   7  -8   27.50   29.80
   3   7  -8  -11.00   38.50
   3   7  -8    2.70    9.90
   3   7  -8   41.50   21.80
  -3  -7   8  -10.80   26.10
  -3  -7   8   -0.90   21.90
  -3  -7   8   10.40   28.20
  -3  -7   8   11.10   13.60
   2   7  -8  159.28   23.90
   2   7  -8  126.79   34.50
   2   7  -8   35.90   53.49
   2   7  -8  124.19   38.20
   2   7  -8   83.79   43.80
  -2  -7   8  114.89   28.60
  -2  -7   8   84.79   64.29
  -2  -7   8   82.39   37.10
   1   7  -8   40.90   47.60
   1   7  -8   81.39   48.70
   1   7  -8   55.79   17.50
  -1  -7   8   15.50   32.20
  -1  -7   8   64.19   20.90
   0   7  -8  202.28   31.20
   0   7  -8  149.88   66.19
   0   7  -8  154.98   37.20
   0   7  -8  102.79   91.09
   0  -7   8   77.99   46.70
   0  -7   8  140.49   42.30
   0  -7   8  147.59   32.50
   0  -7   8  215.88   52.59
  -1   7  -8   70.89   72.59
  -1   7  -8  176.88   76.09
  -1   7  -8  149.59   77.19
   1  -7   8  307.07   85.49
   1  -7   8  269.07   58.39
  -2   7  -8   99.19   49.90
  -2   7  -8   14.80   37.20
  -2   7  -8   60.49   32.30
  -2   7  -8  -22.60   41.90
   2  -7   8   46.90   29.30
   2  -7   8   32.10   27.90
  -3   7  -8   49.20   56.09
  -3   7  -8   92.69   54.89
  -3   7  -8  100.29   57.79
  -3   7  -8   97.09   52.29
   3  -7   8  143.39   43.10
   3  -7   8   83.79   36.60
   3  -7   8   98.99   26.60
  -4   7  -8   23.10   32.00
  -4   7  -8   -5.00   39.00
  -4   7  -8   92.49   44.30
   4  -7   8   46.00   17.80
   4  -7   8  -12.00   24.20
   4  -7   8   11.70   34.20
  -5   7  -8   39.00   44.50
  -5   7  -8  142.19   67.19
  -5   7  -8   65.59   85.09
   5  -7   8   46.50   25.00
   5  -7   8   53.49   21.70
   5  -7   8   47.20   44.50
   5   6  -8   17.90   11.10
   5   6  -8  -72.99   48.20
   5   6  -8    6.20   28.90
  -5  -6   8    1.20   25.40
  -5  -6   8    2.40   23.00
   4   6  -8   78.09   50.39
   4   6  -8  102.49   43.00
   4   6  -8   31.60   28.80
   4   6  -8   54.99   13.50
  -4  -6   8   43.50   38.80
  -4  -6   8   71.79   36.60
  -4  -6   8   67.89   31.50
   3   6  -8  161.18   22.20
   3   6  -8  161.28   63.49
   3   6  -8   21.10   35.90
   3   6  -8  108.89   33.60
  -3  -6   8  122.69   49.90
  -3  -6   8   98.69   22.30
  -3  -6   8  143.09   59.59
  -3  -6   8  106.39   32.90
   2   6  -8   14.70   42.30
   2   6  -8   67.79   29.50
   2   6  -8   37.60   13.00
   2   6  -8   68.89   46.40
  -2  -6   8   14.30   29.60
  -2  -6   8   31.40   14.60
  -2  -6   8   43.40   23.20
  -2  -6   8   29.30   27.60
   1   6  -8   13.30   14.10
   1   6  -8   11.70   43.60
   1   6  -8  -21.90   26.10
   1   6  -8   10.60    9.50
   1   6  -8  -12.50   29.50
  -1  -6   8   -2.90   15.40
  -1  -6   8   -8.50   11.50
  -1  -6   8  -11.60   20.40
   0   6  -8   -1.60   15.60
   0   6  -8  -17.30   14.90
   0   6  -8   12.50   18.10
   0   6  -8  -30.30   26.20
   0   6  -8   -2.10   32.50
   0  -6   8    7.10   11.30
   0  -6   8   13.40   15.80
   0  -6   8   -4.80   16.10
   0  -6   8    8.90   17.40
  -1   6  -8  150.48   59.49
  -1   6  -8  183.48   79.99
  -1   6  -8   62.79   50.69
   1  -6   8  198.28   49.99
   1  -6   8  178.98   60.79
   1  -6   8  258.97   48.30
   1  -6   8  213.58   37.40
  -2   6  -8   23.00   48.40
  -2   6  -8   -2.90   27.80
  -2   6  -8   10.00   36.20
   2  -6   8   -6.60    7.90
   2  -6   8  -23.10   19.90
   2  -6   8   18.60   19.90
  -3   6  -8  -42.90   38.90
  -3   6  -8  -18.60   37.70
  -3   6  -8   14.40   34.00
  -3   6  -8   66.59   42.80
   3  -6   8   28.10   39.80
   3  -6   8  -25.20   21.00
   3  -6   8   10.30   13.20
  -4   6  -8   57.69   42.30
  -4   6  -8 -106.29   55.79
  -4   6  -8  164.38   64.59
  -4   6  -8   92.09   56.49
   4  -6   8   37.60   28.00
   4  -6   8   50.79   28.80
   4  -6   8   32.50   12.60
  -5   6  -8  133.19   61.89
  -5   6  -8   -0.50   47.30
  -5   6  -8   -8.20   62.29
   5  -6   8   24.50   18.90
   5  -6   8  102.29   41.10
   5  -6   8   41.30   31.80
  -6   6  -8  168.08   63.29
  -6   6  -8    3.90   58.29
  -6   6  -8  128.09   63.19
   6  -6   8   76.09   22.00
   6  -6   8   36.20   35.30
   6  -6   8   89.09   32.10
   6   5  -8   76.59   19.40
   6   5  -8   37.20   72.79
   6   5  -8   37.00   49.80
   6   5  -8   39.20   38.80
  -6  -5   8   58.89   32.00
  -6  -5   8   62.49   37.00
  -6  -5   8   56.39   38.70
   5   5  -8   69.09   24.40
   5   5  -8   43.40   15.00
   5   5  -8   42.30   70.49
   5   5  -8    1.20   45.40
  -5  -5   8   25.10   26.70
  -5  -5   8   61.89   28.70
  -5  -5   8   32.90   30.60
   4   5  -8   31.80    9.90
   4   5  -8  -48.90   38.90
   4   5  -8   69.09   38.90
   4   5  -8    5.00   24.40
  -4  -5   8   11.60   22.00
  -4  -5   8   30.80   24.80
  -4  -5   8   34.90   24.10
   3   5  -8   41.40   45.80
   3   5  -8  101.59   47.50
   3   5  -8   75.59    9.90
   3   5  -8   64.09   14.40
   3   5  -8   59.99   33.20
  -3  -5   8   74.59   43.80
  -3  -5   8   56.19   26.40
  -3  -5   8   38.60   13.50
  -3  -5   8   38.20   26.60
   2   5  -8  420.06   59.59
   2   5  -8  231.98   85.49
   2   5  -8  468.35   26.00
   2   5  -8  312.87   93.69
   2   5  -8  481.95   30.90
  -2  -5   8  390.26   90.49
  -2  -5   8  420.46   59.29
  -2  -5   8  443.86   77.79
  -2  -5   8  498.75   40.80
   1   5  -8  309.47   21.80
   1   5  -8  398.66   48.90
   1   5  -8  151.58   76.19
   1   5  -8  315.57   23.20
  -1  -5   8  275.07   32.60
  -1  -5   8  307.77   61.69
  -1  -5   8  241.28   61.39
   0   5  -8   -1.10   18.00
   0   5  -8   29.40   11.00
   0   5  -8   37.60   37.50
   0   5  -8   13.00    7.50
   0   5  -8   28.70   36.50
   0   5  -8  -30.20   27.20
   0   5  -8   54.69   19.00
   0  -5   8  -11.20    8.60
   0  -5   8   21.00   22.20
   0  -5   8   14.80   15.90
  -1   5  -8   -8.60   23.70
  -1   5  -8    4.50    9.10
  -1   5  -8   14.70   41.30
   1  -5   8   17.10   15.60
   1  -5   8   10.10   11.80
   1  -5   8   -0.20   16.20
  -2   5  -8    4.90   34.70
  -2   5  -8   -7.20   23.50
  -2   5  -8   63.89   36.20
   2  -5   8   10.80   10.70
   2  -5   8  -32.30   16.80
   2  -5   8    0.70    9.40
  -3   5  -8   10.80   29.10
  -3   5  -8  119.49   50.09
  -3   5  -8   79.59   42.80
   3  -5   8   45.30   23.70
   3  -5   8   31.00   16.00
   3  -5   8   38.70   24.20
  -4   5  -8  221.08   93.29
  -4   5  -8  185.48   70.09
  -4   5  -8  214.08   87.09
  -4   5  -8  212.58   65.39
   4  -5   8  264.07   61.59
   4  -5   8  268.87   56.79
   4  -5   8  229.58   40.00
  -5   5  -8  221.58   80.49
  -5   5  -8  163.88   89.99
  -5   5  -8  155.58   85.59
   5  -5   8  234.98   41.20
   5  -5   8  244.78   55.59
   5  -5   8  244.08   57.39
  -6   5  -8   24.80   53.29
  -6   5  -8  105.69   74.79
  -6   5  -8   76.79   54.09
   6  -5   8    5.90   15.50
   6  -5   8   32.90   25.40
   6  -5   8   44.70   27.80
   6   4  -8   16.00   59.69
   6   4  -8  -15.70   15.60
   6   4  -8  -36.90   31.40
  -6  -4   8   22.10   20.60
  -6  -4   8  -16.20   19.70
  -6  -4   8    6.30   25.10
   5   4  -8  -17.00   43.60
   5   4  -8   35.70   46.70
   5   4  -8   55.69   27.00
   5   4  -8   48.10   12.60
  -5  -4   8   28.50   20.70
  -5  -4   8  -11.80   16.90
   4   4  -8   -3.00    7.60
   4   4  -8   19.30   24.50
   4   4  -8  172.88  125.39
  -4  -4   8   -5.40   18.90
  -4  -4   8    7.20   18.60
   3   4  -8  216.18   55.49
   3   4  -8  262.47   22.60
   3   4  -8  250.67   18.50
   3   4  -8   98.79   65.39
  -3  -4   8  263.67   54.79
  -3  -4   8  287.67   75.09
  -3  -4   8  277.17   21.50
  -3  -4   8  266.07   66.59
   2   4  -8   21.20   38.30
   2   4  -8   55.99   28.60
   2   4  -8   45.90   48.20
  -2  -4   8   15.40   19.60
  -2  -4   8   40.30   22.20
  -2  -4   8   24.10   14.10
  -2  -4   8   35.90   23.90
   1   4  -8   91.19   61.69
   1   4  -8   83.19   54.19
   1   4  -8  211.78   41.70
  -1  -4   8  233.18   25.90
  -1  -4   8  180.18   45.30
  -1  -4   8  188.28   58.49
   0   4  -8  161.48   37.10
   0   4  -8  189.48   28.70
   0  -4   8  163.48   51.79
   0  -4   8  159.58   27.00
   0  -4   8  242.18   53.59
  -1   4  -8  137.39   82.89
  -1   4  -8  146.59   23.70
  -1   4  -8  196.78   22.50
  -1   4  -8  151.68   15.20
  -1   4  -8   45.60   42.30
  -1   4  -8  141.49   75.29
   1  -4   8  120.89   24.00
   1  -4   8  173.68   57.49
   1  -4   8  123.79   37.10
   1  -4   8  183.78   30.90
  -2   4  -8  429.76   29.30
  -2   4  -8  318.97   92.99
   2  -4   8  346.87   52.19
   2  -4   8  461.45   75.59
   2  -4   8  402.46   39.70
   2  -4   8  425.96   47.10
  -3   4  -8  196.08   70.89
  -3   4  -8  104.39   57.99
  -3   4  -8  196.38   59.09
   3  -4   8  242.68   32.50
   3  -4   8  216.08   43.60
   3  -4   8  262.37   57.59
  -4   4  -8  624.04   90.89
  -4   4  -8  339.17  101.19
   4  -4   8  445.46   46.00
   4  -4   8  561.74   70.49
   4  -4   8  618.04   66.29
  -5   4  -8  399.96   75.59
  -5   4  -8  267.27   93.49
  -5   4  -8  302.27   95.59
  -5   4  -8  369.76  120.09
   5  -4   8  553.04   65.79
   5  -4   8  428.96   61.99
   5  -4   8  416.26   48.50
  -6   4  -8  319.27  109.39
  -6   4  -8  358.66  113.89
  -6   4  -8  213.08   83.99
   6  -4   8  259.57   52.59
   6  -4   8  233.18   68.59
   6  -4   8  250.17   45.30
  -7   4  -8   -0.90   56.69
  -7   4  -8  -41.50   48.80
   7  -4   8   36.20   19.00
   7  -4   8   37.20   24.60
   7  -4   8   94.59   37.20
   6   3  -8  -60.39   49.80
   6   3  -8  151.78   49.70
   6   3  -8   27.30   19.60
  -6  -3   8   24.80   32.10
  -6  -3   8   36.10   26.40
  -6  -3   8  101.89   40.00
   5   3  -8   69.19   16.80
   5   3  -8   30.30   32.60
   5   3  -8    5.60   45.60
   5   3  -8  -32.70   49.50
  -5  -3   8   30.10   20.10
  -5  -3   8   66.59   37.20
  -5  -3   8   50.49   23.80
   4   3  -8    8.40   34.10
   4   3  -8    7.30   45.60
   4   3  -8    5.40   25.70
   4   3  -8   43.00   12.40
  -4  -3   8   54.29   29.70
  -4  -3   8   49.40   24.30
  -4  -3   8   63.29   27.00
   3   3  -8   12.20    5.10
   3   3  -8   54.89   34.70
   3   3  -8  -12.70   22.60
   3   3  -8   57.49   26.50
  -3  -3   8   -6.00   13.70
  -3  -3   8   -9.10   16.50
  -3  -3   8  -10.00   11.90
   2   3  -8  308.87  107.09
   2   3  -8  646.94   74.19
  -2  -3   8  515.95   76.29
  -2  -3   8  412.26   70.49
  -2  -3   8  448.46   54.09
  -2  -3   8  566.94   32.90
   1   3  -8  -22.20   31.70
   1   3  -8   71.09   23.90
   1   3  -8   27.50   42.40
  -1  -3   8   31.40   23.30
  -1  -3   8   18.00    9.30
  -1  -3   8   29.30   29.30
  -1  -3   8   66.19   24.20
   0   3  -8   28.70   36.30
   0   3  -8   63.49   35.80
   0   3  -8   34.90   16.80
   0   3  -8   -2.60   26.70
   0  -3   8   44.40   22.70
   0  -3   8   38.80   28.00
   0  -3   8   37.50   13.00
   0  -3   8   37.20   13.20
  -1   3  -8    7.50   27.70
  -1   3  -8  -11.40    9.10
  -1   3  -8   12.60    4.60
  -1   3  -8   -5.10   23.80
  -1   3  -8   20.80   23.60
  -1   3  -8   33.60   10.20
   1  -3   8  -12.00   15.00
   1  -3   8   16.30    9.50
   1  -3   8    0.30    6.90
   1  -3   8   11.20   14.20
  -2   3  -8   50.19   15.60
  -2   3  -8   23.10   24.10
  -2   3  -8   29.40   44.30
  -2   3  -8   23.40   35.30
   2  -3   8   74.09   16.20
   2  -3   8   46.90   13.80
   2  -3   8   18.30   20.90
   2  -3   8   63.79   29.20
  -3   3  -8  240.28   86.69
  -3   3  -8  240.28   99.09
  -3   3  -8  317.57   86.99
   3  -3   8  458.55   40.90
   3  -3   8  397.06   54.59
   3  -3   8  529.45   50.19
  -4   3  -8   97.79   57.29
  -4   3  -8  114.69   58.29
  -4   3  -8   81.59   54.19
   4  -3   8  203.68   48.80
   4  -3   8  224.08   27.90
   4  -3   8  189.48   35.70
  -5   3  -8   98.29   59.19
  -5   3  -8   96.09   55.09
  -5   3  -8  129.79   42.10
   5  -3   8   67.19   20.00
   5  -3   8   61.49   23.40
   5  -3   8   79.39   32.80
  -6   3  -8   30.90   23.70
  -6   3  -8   20.90   59.59
  -6   3  -8  -55.69   33.70
  -6   3  -8   33.80   30.30
   6  -3   8   17.90   21.40
   6  -3   8   35.30   15.60
   6  -3   8   29.00   15.60
  -7   3  -8  -35.40   36.40
  -7   3  -8  -44.00   42.50
  -7   3  -8    3.00   41.40
   7  -3   8    3.30   13.00
   7  -3   8   24.00   28.20
   7  -3   8  -16.70   18.90
  -8   3  -8    4.40   48.90
  -8   3  -8   20.70   50.79
   8  -3   8  -10.10   19.40
   8  -3   8  -24.50   22.40
   8  -3   8   -6.50   10.30
   6   2  -8  -37.80   44.10
   6   2  -8    4.40   17.20
  -6  -2   8    4.90   21.30
  -6  -2   8  -14.50   24.70
  -6  -2   8   15.60   18.10
   5   2  -8   41.90   35.60
   5   2  -8  142.49   22.30
   5   2  -8  102.99   51.29
  -5  -2   8  102.59   38.60
  -5  -2   8   33.70   24.40
  -5  -2   8   77.89   26.20
   4   2  -8  127.69   69.39
   4   2  -8  147.49   64.19
   4   2  -8  225.08   34.00
   4   2  -8  194.08   68.09
  -4  -2   8  176.98   30.90
  -4  -2   8  145.09   50.59
  -4  -2   8  132.39   43.40
  -4  -2   8  198.18   31.80
   3   2  -8   45.80   38.90
   3   2  -8   89.09   61.49
   3   2  -8  148.79   15.90
   3   2  -8  133.49   43.60
  -3  -2   8  101.59   19.60
  -3  -2   8  131.89   34.30
  -3  -2   8  180.18   50.39
  -3  -2   8  111.79   34.40
   2   2  -8  341.27   70.69
   2   2  -8  379.26   22.80
  -2  -2   8  279.17   68.09
  -2  -2   8  346.07   23.50
  -2  -2   8  361.66   75.39
  -2  -2   8  385.76   45.80
   1   2  -8    4.70   26.10
   1   2  -8   22.50    6.80
   1   2  -8   18.20   35.40
   1   2  -8  -12.40   15.30
  -1  -2   8   28.70   18.80
  -1  -2   8   18.60   15.70
  -1  -2   8   13.50   11.60
   0   2  -8   24.70   26.40
   0   2  -8   91.29   25.90
   0   2  -8  -17.70   27.00
   0  -2   8   53.99   23.90
   0  -2   8   82.59   19.00
   0  -2   8   57.89   30.50
   0  -2   8   40.50   12.70
  -1   2  -8  357.26  106.59
  -1   2  -8  457.25   45.80
   1  -2   8  423.16   32.40
   1  -2   8  439.46   31.10
   1  -2   8  409.36   50.59
   1  -2   8  465.45   69.19
  -2   2  -8 1134.39   47.60
  -2   2  -8  758.12  128.09
   2  -2   8 1190.78   60.79
   2  -2   8 1081.29   86.19
   2  -2   8 1095.49   59.39
   2  -2   8 1114.39  107.89
  -3   2  -8  244.08   23.60
  -3   2  -8  112.59   63.99
  -3   2  -8  205.08   68.59
  -3   2  -8  118.49   61.19
   3  -2   8  295.87   32.30
   3  -2   8  239.08   27.20
   3  -2   8  243.98   64.39
   3  -2   8  274.57   43.00
  -4   2  -8  473.25  137.09
  -4   2  -8  444.66  107.49
  -4   2  -8  824.32  113.49
   4  -2   8  709.43   50.89
   4  -2   8  800.52   59.29
   4  -2   8  645.84   68.09
  -5   2  -8   72.19   49.90
  -5   2  -8   41.70   37.60
  -5   2  -8    2.80   32.70
   5  -2   8   12.70    8.50
   5  -2   8   30.30   20.70
   5  -2   8   27.30   18.50
  -6   2  -8   29.70   41.60
  -6   2  -8  -10.40   28.50
  -6   2  -8  -21.90   31.50
   6  -2   8   13.30   15.90
   6  -2   8   17.10   15.80
   6  -2   8   -5.50    6.80
  -7   2  -8   61.29   41.30
  -7   2  -8  -19.60   35.90
  -7   2  -8   50.89   28.30
  -7   2  -8   26.60   47.30
   7  -2   8  -11.50   16.50
   7  -2   8   18.10   11.60
   7  -2   8   -4.60   17.20
  -8   2  -8    9.20   50.69
  -8   2  -8  -32.50   55.49
  -8   2  -8   -4.50   24.80
  -8   2  -8   29.80   44.70
   8  -2   8   14.30   25.20
   8  -2   8    9.50   20.50
   8  -2   8   24.40   15.70
   6   1  -8   42.50   22.10
   6   1  -8   64.99   41.00
   6   1  -8  -21.80   63.29
  -6  -1   8   90.29   27.20
  -6  -1   8   74.49   26.00
  -6  -1   8   64.39   35.30
   5   1  -8   12.00   60.19
   5   1  -8   17.90   38.30
   5   1  -8   57.89   18.20
  -5  -1   8   95.99   28.50
  -5  -1   8   26.20   23.60
   4   1  -8  124.19   25.20
   4   1  -8   38.60   59.39
   4   1  -8   99.59   68.79
   4   1  -8  158.48   62.19
  -4  -1   8  153.88   50.89
  -4  -1   8  151.38   34.60
  -4  -1   8  159.98   47.70
   3   1  -8  400.06   27.70
   3   1  -8  115.99   70.99
   3   1  -8  319.77   75.39
   3   1  -8  223.88   89.39
  -3  -1   8  274.97   26.50
  -3  -1   8  324.97   60.89
  -3  -1   8  305.17   40.00
  -3  -1   8  270.57   62.69
   2   1  -8  -35.20   31.60
   2   1  -8   88.59   33.00
   2   1  -8  -11.10   31.80
  -2  -1   8   55.49   19.80
  -2  -1   8   15.80   18.70
  -2  -1   8   37.70    7.50
  -2  -1   8   29.70   24.50
   1   1  -8  288.67   58.29
   1   1  -8  293.57   22.80
   1   1  -8  188.88   74.59
  -1  -1   8  297.67   38.30
  -1  -1   8  250.37   59.29
  -1  -1   8  299.57   21.20
  -1  -1   8  317.47   67.49
   0   1  -8  327.27  107.79
   0   1  -8  361.46  108.89
   0   1  -8  566.94   61.79
   0  -1   8  609.94   33.90
   0  -1   8  543.15   70.69
   0  -1   8  593.34   55.49
  -1   1  -8  822.22   64.69
   1  -1   8  732.33   81.49
   1  -1   8  863.41   45.40
   1  -1   8  869.61   69.69
   1  -1   8  886.61   73.69
  -2   1  -8  809.02   39.70
  -2   1  -8  788.72   49.10
  -2   1  -8  607.24  105.59
   2  -1   8  781.32   67.49
   2  -1   8  771.42   40.50
   2  -1   8  805.92   46.00
   2  -1   8  839.22   88.39
   2  -1   8  829.32   42.40
  -3   1  -8  325.57   94.89
  -3   1  -8  225.78   84.19
  -3   1  -8  387.76   28.20
  -3   1  -8  203.38   69.79
   3  -1   8  356.96   60.19
   3  -1   8  345.77   30.50
   3  -1   8  427.96   32.00
   3  -1   8  364.26   47.00
  -4   1  -8  671.23  111.89
  -4   1  -8  493.25  115.99
   4  -1   8  800.32   71.99
   4  -1   8  793.82   52.19
   4  -1   8  749.42   48.90
  -5   1  -8   17.50   43.30
  -5   1  -8    9.80   28.70
  -5   1  -8   44.00   41.80
   5  -1   8   -1.40    5.60
   5  -1   8    3.70    7.30
   5  -1   8  -20.80   11.40
  -6   1  -8   38.50   25.60
  -6   1  -8   -1.60   33.80
  -6   1  -8   92.49   47.40
   6  -1   8   -0.70   12.10
   6  -1   8   -2.90    7.60
   6  -1   8   13.00   18.30
  -7   1  -8  -57.79   41.70
  -7   1  -8   21.90   33.70
  -7   1  -8   10.30   49.99
  -7   1  -8   19.10   36.30
   7  -1   8   26.20   20.60
   7  -1   8    4.70   16.70
   7  -1   8    9.90   10.80
  -8   1  -8  -80.09   39.60
  -8   1  -8   16.10   25.10
  -8   1  -8  -14.50   50.49
   8  -1   8   12.20    9.50
   8  -1   8  -24.00   24.40
   8  -1   8   14.10   20.30
   8  -1   8    6.00   14.00
  -9   1  -8   -8.10   54.89
  -9   1  -8   24.80   35.70
  -9   1  -8  -13.30   73.29
  -9   1  -8  110.09   43.80
   9  -1   8  137.79   39.70
   9  -1   8   41.50   16.00
   9  -1   8  114.99   31.80
   6   0  -8  -12.40   20.80
   6   0  -8   72.59   62.69
   6   0  -8   82.09   51.29
  -6   0   8   17.70   29.70
  -6   0   8   32.90   25.60
  -6   0   8   33.70   21.90
   5   0  -8   11.10   21.90
   5   0  -8    6.90   17.30
   5   0  -8  -61.99   55.89
  -5   0   8   44.70   29.10
  -5   0   8  -17.40   16.00
  -5   0   8   19.20   14.80
   4   0  -8    6.50   40.40
   4   0  -8   13.80   21.30
  -4   0   8    9.70   17.10
  -4   0   8    9.80   18.30
  -4   0   8   23.00   14.70
   3   0  -8  165.88   22.50
   3   0  -8   18.50   47.80
   3   0  -8   53.29   29.70
   3   0  -8   57.69   57.09
  -3   0   8  137.19   41.50
  -3   0   8  111.99   27.20
  -3   0   8  101.89   38.00
   2   0  -8  205.68   20.70
   2   0  -8  274.37   19.00
   2   0  -8  232.28   62.59
   2   0  -8  131.89   76.69
  -2   0   8  158.18   48.60
  -2   0   8  244.28   56.99
  -2   0   8  195.98   17.00
  -2   0   8  231.98   15.30
  -2   0   8  237.58   33.40
  -2   0   8  219.88   19.60
   1   0  -8  -25.10   29.00
   1   0  -8  -27.30   14.30
  -1   0   8   10.80   14.50
  -1   0   8   11.80   17.90
  -1   0   8   -2.40    8.00
   0   0  -8  -10.80   20.60
   0   0  -8  -15.90   14.40
   0   0  -8   10.30   31.60
   0   0   8   16.70   15.90
   0   0   8   15.20   12.30
   0   0   8    5.80    4.80
  -1   0  -8   40.60   37.00
  -1   0  -8   10.30   16.70
  -1   0  -8  -27.60   23.10
   1   0   8   29.50   11.50
  -2   0  -8   60.49   13.80
  -2   0  -8   92.29   25.00
  -2   0  -8   91.99   51.49
   2   0   8   89.69   16.40
   2   0   8   69.59   13.50
   2   0   8   84.99   10.10
   2   0   8   92.09   34.60
   2   0   8  104.09   21.80
   2   0   8   60.99   21.00
  -3   0  -8  101.49   19.00
  -3   0  -8   62.59   15.40
  -3   0  -8   31.80   26.60
  -3   0  -8  104.39   45.90
   3   0   8   39.10   10.70
   3   0   8   44.50   22.40
   3   0   8   64.49   16.40
   3   0   8   71.09   26.50
   3   0   8   56.79   13.40
  -4   0  -8   23.50   29.40
  -4   0  -8  -25.80   23.60
  -4   0  -8  -21.40   25.90
   4   0   8   -0.90    4.80
   4   0   8    2.70    6.80
   4   0   8    4.10   17.50
  -5   0  -8   24.90   28.50
  -5   0  -8   24.00   50.49
   5   0   8   23.90   16.70
   5   0   8   10.20   10.50
   5   0   8   15.80    9.00
  -6   0  -8   43.40   33.40
  -6   0  -8   37.50   35.60
  -6   0  -8   53.89   50.09
   6   0   8   34.40   14.60
   6   0   8   13.20   12.00
   6   0   8   43.10   15.80
   6   0   8   37.90   25.50
   6   0   8   12.10    8.80
  -7   0  -8   83.29   51.69
  -7   0  -8   18.60   30.10
  -7   0  -8  -26.50   37.10
   7   0   8   -7.70   21.80
   7   0   8    3.90   19.60
   7   0   8  -11.20   15.80
   7   0   8   33.70   13.40
   7   0   8    5.30   14.20
  -8   0  -8  127.99   45.10
  -8   0  -8   20.70   47.80
  -8   0  -8   16.90   45.30
  -8   0  -8   20.00   39.70
   8   0   8   79.79   37.90
   8   0   8   70.89   26.40
   8   0   8   86.39   20.80
   8   0   8   69.49   33.00
  -9   0  -8  157.28   82.09
  -9   0  -8  213.78   56.49
  -9   0  -8  316.87   85.39
  -9   0  -8  124.59   82.39
   9   0   8  182.18   47.50
   9   0   8   89.19   32.00
   9   0   8  117.59   28.90
   6  -1  -8   51.09   64.59
   6  -1  -8  103.59   44.70
   6  -1  -8   39.50   30.90
  -6   1   8   37.50   34.40
  -6   1   8   64.59   34.30
  -6   1   8   83.59   36.10
   5  -1  -8   -7.20   60.39
   5  -1  -8   82.69   23.70
   5  -1  -8   -4.20   38.60
  -5   1   8   67.89   34.60
  -5   1   8   56.89   28.00
  -5   1   8   35.30   19.70
   4  -1  -8   14.10   43.80
   4  -1  -8   68.29   29.20
   4  -1  -8   25.00   15.70
  -4   1   8   31.10   24.30
  -4   1   8   25.00   15.70
  -4   1   8   39.10   23.90
   3  -1  -8  -16.50   31.30
   3  -1  -8   35.40   29.20
   3  -1  -8  -35.10   34.40
   3  -1  -8   60.39   16.20
  -3   1   8   30.50   16.20
  -3   1   8   16.40   17.40
  -3   1   8   11.00   15.80
   2  -1  -8  488.25   32.30
   2  -1  -8  525.95  101.89
   2  -1  -8  442.66  122.49
   2  -1  -8  400.36   36.70
  -2   1   8  523.35   47.20
  -2   1   8  437.96   36.60
  -2   1   8  478.75   32.10
  -2   1   8  509.75   24.30
  -2   1   8  489.15   68.79
  -2   1   8  474.15   61.09
   1  -1  -8   88.89   16.60
   1  -1  -8   24.40   42.90
   1  -1  -8   73.09   37.10
  -1   1   8   63.89   27.00
  -1   1   8   87.19   10.20
  -1   1   8  114.79   35.90
  -1   1   8   86.89    9.60
  -1   1   8   94.39   24.40
   0  -1  -8  601.44  145.19
   0  -1  -8  781.52   81.69
   0   1   8  873.11   39.40
   0   1   8  854.91   78.89
   0   1   8  870.71   60.79
  -1  -1  -8  473.65   56.99
   1   1   8  452.75   28.00
   1   1   8  388.76   52.49
  -2  -1  -8  265.37   36.90
  -2  -1  -8  206.28   69.79
   2   1   8  230.78   16.80
   2   1   8  231.78   20.60
   2   1   8  251.97   32.70
   2   1   8  240.48   50.69
   2   1   8  293.07   25.90
   2   1   8  297.67   38.50
  -3  -1  -8   55.69   40.00
  -3  -1  -8   54.99   37.50
  -3  -1  -8   68.69   36.70
  -3  -1  -8  149.09   22.00
   3   1   8  131.09   38.20
   3   1   8  132.39   16.50
   3   1   8  109.59   26.00
   3   1   8  134.09   14.60
   3   1   8  119.79   32.70
  -4  -1  -8   28.50   30.10
  -4  -1  -8    8.60   20.40
  -4  -1  -8   91.59   38.70
  -4  -1  -8    6.80    8.80
   4   1   8   33.80   12.20
   4   1   8   10.00    6.20
  -5  -1  -8   18.10   33.70
  -5  -1  -8   78.69   46.80
  -5  -1  -8   39.60   12.00
  -5  -1  -8  -21.30   35.80
   5   1   8   41.50   16.50
   5   1   8   45.00   13.50
   5   1   8   28.30   10.20
   5   1   8   36.90   13.10
   5   1   8   58.09   23.10
  -6  -1  -8   78.79   49.70
  -6  -1  -8   -0.50   25.20
  -6  -1  -8   85.69   49.30
   6   1   8   55.59   13.30
   6   1   8   80.99   27.40
   6   1   8   32.50   19.80
   6   1   8   33.60   13.30
   6   1   8   37.70   13.50
  -7  -1  -8   -2.00   30.50
  -7  -1  -8   21.60   42.20
  -7  -1  -8  -12.90   37.20
   7   1   8   -2.70   12.10
   7   1   8    2.50   13.30
   7   1   8   25.10   18.90
   7   1   8    8.30    7.90
  -8  -1  -8  -40.40   37.20
  -8  -1  -8   -8.60   42.70
  -8  -1  -8  -15.00   28.10
  -8  -1  -8  -25.30   34.90
   8   1   8    5.40   14.50
   8   1   8    3.40   11.80
   8   1   8   31.80   22.90
   8   1   8   23.30   12.40
  -9  -1  -8  -72.39   46.50
  -9  -1  -8  121.99   63.29
  -9  -1  -8   55.89   38.70
   9   1   8   43.90   16.80
   9   1   8   32.70   23.70
   9   1   8   33.10   42.00
   9   1   8   30.80   21.00
   5  -2  -8   11.50   61.39
   5  -2  -8   89.79   28.30
   5  -2  -8   47.90   43.50
  -5   2   8   65.89   22.70
  -5   2   8   75.39   37.90
  -5   2   8  101.59   34.60
   4  -2  -8   16.90   56.89
   4  -2  -8   99.99   31.30
   4  -2  -8   89.89   48.80
  -4   2   8   68.09   26.30
  -4   2   8  137.09   30.70
  -4   2   8  107.39   40.80
   3  -2  -8   78.29   55.19
   3  -2  -8  143.19   30.10
   3  -2  -8  126.09   52.39
  -3   2   8  102.49   11.40
  -3   2   8  144.59   31.40
  -3   2   8  142.19   16.20
  -3   2   8  128.29   41.30
  -3   2   8  125.59   35.20
   2  -2  -8   93.29   60.79
   2  -2  -8   28.40   45.00
   2  -2  -8   91.39   43.10
   2  -2  -8  110.69   24.60
  -2   2   8  130.59   43.20
  -2   2   8  115.09   35.50
  -2   2   8  111.29   12.50
  -2   2   8  116.29   26.80
  -2   2   8  114.49   19.70
  -2   2   8   95.49   23.70
   1  -2  -8  286.27   27.80
   1  -2  -8  162.58   69.49
   1  -2  -8  160.38   25.50
   1  -2  -8  209.58   56.69
  -1   2   8  243.58   50.09
  -1   2   8  189.38   16.90
  -1   2   8  223.78   30.50
  -1   2   8  175.68   45.00
  -1   2   8  291.57   33.50
  -1   2   8  219.28   27.40
   0  -2  -8  689.03   81.79
   0  -2  -8  597.64   40.60
   0  -2  -8  490.35  127.49
   0   2   8  613.74   49.99
   0   2   8  589.94   41.50
   0   2   8  675.73   36.40
   0   2   8  646.24   64.39
   0   2   8  623.14   34.10
  -1  -2  -8  958.70   89.09
   1   2   8 1003.80   81.59
   1   2   8 1066.59   52.69
   1   2   8  948.81   63.49
   1   2   8 1000.10   48.00
   1   2   8  878.51   45.60
  -2  -2  -8  189.78   43.30
  -2  -2  -8   43.10   44.00
  -2  -2  -8  141.09   84.99
   2   2   8  181.18   24.50
   2   2   8  143.59   35.70
   2   2   8  161.68   17.30
   2   2   8  151.18   23.50
  -3  -2  -8  354.46   35.80
  -3  -2  -8  368.56  147.79
  -3  -2  -8  278.87   42.50
   3   2   8  412.66   49.99
   3   2   8  346.47   27.20
   3   2   8  395.26   39.20
   3   2   8  327.87   26.40
   3   2   8  353.86   45.30
   3   2   8  357.26   37.10
  -4  -2  -8   37.40   17.80
  -4  -2  -8   39.20   39.40
  -4  -2  -8   31.30   33.50
   4   2   8   30.40   13.30
   4   2   8   34.30   20.10
   4   2   8   16.00    7.30
   4   2   8   35.50   10.10
  -5  -2  -8   29.20   21.30
  -5  -2  -8   18.70   29.30
  -5  -2  -8   -6.90   29.30
  -5  -2  -8   -1.90   13.90
   5   2   8   14.60   16.40
   5   2   8   -2.80    5.10
   5   2   8    0.60    9.60
   5   2   8   -2.10    5.70
   5   2   8  -12.00   11.20
  -6  -2  -8  640.04   50.49
  -6  -2  -8  511.35  107.89
  -6  -2  -8  660.03  124.99
  -6  -2  -8  640.14  105.79
   6   2   8  676.03   52.39
   6   2   8  631.24   58.09
   6   2   8  676.83   49.70
   6   2   8  643.54   44.00
  -7  -2  -8  409.96  115.69
  -7  -2  -8  553.74   93.99
  -7  -2  -8  467.05  100.09
   7   2   8  500.45   39.40
   7   2   8  449.56   45.50
   7   2   8  504.55   52.49
   7   2   8  437.96   45.40
  -8  -2  -8  301.37   95.09
  -8  -2  -8  231.68   68.99
  -8  -2  -8  263.17   73.59
   8   2   8  222.78   35.70
   8   2   8  173.28   37.30
   8   2   8  262.37   28.90
   8   2   8  234.88   37.20
  -9  -2  -8  176.78   69.19
  -9  -2  -8  128.89   46.90
  -9  -2  -8  106.49   69.89
  -9  -2  -8  105.09   66.99
   9   2   8  134.29   27.60
   9   2   8  218.68   46.20
   9   2   8  155.58   37.40
   5  -3  -8   -4.70   18.90
   5  -3  -8   22.50   34.90
   5  -3  -8  -45.50   78.39
  -5   3   8   25.20   23.30
  -5   3   8   27.10   24.00
  -5   3   8   11.40   16.30
   4  -3  -8  -46.40   24.30
   4  -3  -8  -57.49   56.39
   4  -3  -8   33.30   16.90
   4  -3  -8   -7.40   45.60
  -4   3   8   -4.80   22.40
  -4   3   8    1.20    7.30
  -4   3   8    5.60   13.00
   3  -3  -8    9.30   54.59
   3  -3  -8  -63.99   42.80
   3  -3  -8   37.40   30.40
  -3   3   8   74.19   29.80
  -3   3   8   40.00   22.40
  -3   3   8   46.40   11.20
  -3   3   8   49.40   17.30
   2  -3  -8    7.50   14.00
   2  -3  -8   26.70   46.60
   2  -3  -8  -37.70   27.80
   2  -3  -8   29.10   21.20
  -2   3   8    9.80    7.20
  -2   3   8   10.20   15.70
  -2   3   8    9.40   12.30
  -2   3   8   27.70   15.50
   1  -3  -8    4.30   30.40
   1  -3  -8   17.40   44.30
   1  -3  -8   40.00   28.70
   1  -3  -8   61.79   18.30
  -1   3   8   60.99   26.30
  -1   3   8   39.10    9.90
  -1   3   8   28.20   15.90
  -1   3   8   59.49   22.60
   0  -3  -8   83.99   19.80
   0  -3  -8   70.59   52.39
   0  -3  -8    8.40   26.30
   0  -3  -8   75.39   28.30
   0   3   8  126.49   17.10
   0   3   8   76.39   21.60
   0   3   8   86.29   26.70
   0   3   8   55.29   12.90
  -1  -3  -8   16.90    7.20
  -1  -3  -8  -33.20   19.70
  -1  -3  -8    2.60   16.80
  -1  -3  -8  -14.60   21.50
   1   3   8    0.70    9.30
   1   3   8   -1.70    5.20
   1   3   8    8.10    8.10
   1   3   8    7.80    6.00
  -2  -3  -8   18.00   31.40
  -2  -3  -8  -12.30   25.80
  -2  -3  -8   71.59   32.40
   2   3   8   40.80   11.50
   2   3   8   54.09   13.30
   2   3   8   52.49   18.00
   2   3   8   52.29   19.10
  -3  -3  -8   83.29   30.10
  -3  -3  -8  105.59   53.79
  -3  -3  -8   72.79   19.70
  -3  -3  -8    9.00   31.20
   3   3   8   66.19   14.70
   3   3   8   59.39   18.40
   3   3   8   44.40   17.50
   3   3   8   47.40   17.40
   3   3   8   41.40   12.30
  -4  -3  -8   18.40   30.20
  -4  -3  -8   20.30   17.10
  -4  -3  -8   53.49   42.60
  -4  -3  -8   17.90   16.60
  -4  -3  -8   59.99   17.50
   4   3   8   39.40   16.30
   4   3   8   35.30   12.80
   4   3   8   42.90   12.00
   4   3   8   22.70   11.40
  -5  -3  -8   21.10   30.50
  -5  -3  -8   39.80   14.90
  -5  -3  -8    7.30   18.90
  -5  -3  -8   45.40   14.30
  -5  -3  -8  -29.40   27.20
   5   3   8    0.70   10.10
   5   3   8    4.50    8.30
   5   3   8    9.40    5.80
  -6  -3  -8  194.88   75.39
  -6  -3  -8  180.28   71.59
  -6  -3  -8  230.48   33.50
  -6  -3  -8  186.48   60.89
   6   3   8  229.68   30.70
   6   3   8  223.08   24.40
   6   3   8  220.88   33.10
   6   3   8  190.78   30.30
  -7  -3  -8  504.85  122.39
  -7  -3  -8  491.25  109.19
  -7  -3  -8  531.15   82.59
   7   3   8  481.65   48.80
   7   3   8  468.85   46.90
   7   3   8  478.05   47.20
   7   3   8  412.36   35.90
  -8  -3  -8  347.37   86.89
  -8  -3  -8  417.16   88.49
  -8  -3  -8  536.05  152.98
   8   3   8  383.76   36.30
   8   3   8  390.06   47.00
   8   3   8  434.36   47.00
   8   3   8  491.15   48.30
  -9  -3  -8  161.58   62.69
  -9  -3  -8   42.50   48.00
  -9  -3  -8  126.29   50.69
  -9  -3  -8   80.19   33.10
   9   3   8   97.49   22.80
   9   3   8   74.29   26.80
   9   3   8   81.39   30.60
 -10  -3  -8   38.60   34.60
  10   3   8   -6.10   10.70
  10   3   8   21.30   12.60
  10   3   8  -14.10   25.40
   5  -4  -8   83.09  112.19
   5  -4  -8  -20.40   37.70
   5  -4  -8  -24.10   27.50
   5  -4  -8    3.00   52.99
  -5   4   8   59.09   25.20
  -5   4   8   62.89   34.50
  -5   4   8   15.20   21.50
   4  -4  -8    3.30   35.50
   4  -4  -8  140.39   40.10
   4  -4  -8   40.70   64.89
   4  -4  -8   46.30   52.99
  -4   4   8   78.69   18.90
  -4   4   8  135.69   42.60
  -4   4   8  150.68   37.90
  -4   4   8  101.79   34.10
   3  -4  -8  192.38   70.49
   3  -4  -8  216.78   83.79
   3  -4  -8  270.57   54.29
  -3   4   8  231.18   62.09
  -3   4   8  231.38   52.69
  -3   4   8  257.87   49.90
  -3   4   8  259.37   28.20
   2  -4  -8  196.88   88.39
   2  -4  -8  237.28   71.09
   2  -4  -8  312.07   46.60
  -2   4   8  273.07   39.90
  -2   4   8  240.08   45.00
  -2   4   8  304.17   29.90
  -2   4   8  264.47   43.70
   1  -4  -8  294.97   70.99
   1  -4  -8  274.07   40.10
   1  -4  -8  166.78   81.09
  -1   4   8  245.98   26.70
  -1   4   8  292.47   42.10
  -1   4   8  299.27   40.20
   0  -4  -8  118.19   45.10
   0  -4  -8   90.69   63.19
   0  -4  -8   52.29   30.80
   0  -4  -8  115.79   27.20
   0   4   8   75.49   25.20
   0   4   8   86.49   18.50
   0   4   8   92.49   25.50
  -1  -4  -8   73.79   19.20
  -1  -4  -8  100.79   22.40
  -1  -4  -8   19.80   29.00
  -1  -4  -8   62.69   28.20
  -1  -4  -8   -6.80   34.80
   1   4   8   67.99   24.50
   1   4   8   52.39   17.60
   1   4   8   62.49   15.00
   1   4   8   75.69   21.60
  -2  -4  -8   23.80   18.70
  -2  -4  -8  -16.90    8.90
  -2  -4  -8   13.20   31.80
  -2  -4  -8   21.30   28.30
  -2  -4  -8    6.40   12.30
   2   4   8   -2.30    6.70
   2   4   8   18.00   10.10
   2   4   8    3.90    6.80
  -3  -4  -8   14.90   10.90
  -3  -4  -8   12.60   13.50
  -3  -4  -8   26.80   33.10
  -3  -4  -8   -8.60   24.50
   3   4   8   11.90   10.70
   3   4   8   18.10   11.50
   3   4   8    4.10   11.10
   3   4   8    9.00    7.50
  -4  -4  -8  150.78   19.90
  -4  -4  -8  151.08   39.80
  -4  -4  -8  123.79   63.29
   4   4   8  110.59   20.20
   4   4   8  145.99   28.60
   4   4   8  149.69   23.40
   4   4   8  152.48   31.20
  -5  -4  -8   35.50   36.60
  -5  -4  -8   -7.50    8.30
  -5  -4  -8   16.50   19.20
  -5  -4  -8    4.00   25.50
  -5  -4  -8   34.50   16.70
   5   4   8   -3.50    9.20
   5   4   8   -0.40    4.30
   5   4   8   -7.10    8.30
  -6  -4  -8   66.89   42.00
  -6  -4  -8   38.00   21.40
  -6  -4  -8   58.69   45.60
  -6  -4  -8   48.70   15.30
   6   4   8   23.80   15.90
   6   4   8   40.30   18.30
   6   4   8   30.60   15.10
   6   4   8   23.50    8.80
  -7  -4  -8  -25.70   28.60
  -7  -4  -8   12.00   14.80
  -7  -4  -8  -15.00   27.50
  -7  -4  -8  -17.00   14.80
  -7  -4  -8  -18.40   30.30
   7   4   8   -5.20    5.20
   7   4   8    3.70   11.80
   7   4   8    7.40   12.10
   7   4   8  -14.80    9.40
  -8  -4  -8   48.60   33.50
  -8  -4  -8   47.20   38.20
  -8  -4  -8   73.49   51.29
   8   4   8   42.40   20.80
   8   4   8   42.20   13.20
   8   4   8   59.89   18.30
   8   4   8   48.50   16.20
  -9  -4  -8   -6.30   29.50
  -9  -4  -8   18.70   44.80
   9   4   8   -1.80   12.60
   9   4   8  -26.70   18.00
   9   4   8  -14.70    8.10
 -10  -4  -8   74.69   41.00
 -10  -4  -8   -5.20   35.70
 -10  -4  -8  -25.20   43.60
  10   4   8   17.40   33.30
  10   4   8   37.30   14.70
  10   4   8   91.39   24.10
   4  -5  -8  -83.09   58.19
   4  -5  -8   -0.50   24.90
   4  -5  -8   12.10   40.10
  -4   5   8   -2.30   21.20
  -4   5   8   -8.70   15.50
  -4   5   8   50.29   28.80
  -4   5   8   21.50   21.60
   3  -5  -8   19.10   26.80
   3  -5  -8  -77.09   44.80
   3  -5  -8  -26.60   48.90
   3  -5  -8   42.80   37.70
  -3   5   8   22.30   15.30
  -3   5   8   41.70   25.40
  -3   5   8   48.60   24.20
  -3   5   8   26.40   23.00
   2  -5  -8   56.59   61.29
   2  -5  -8   58.49   30.20
   2  -5  -8    0.40   38.60
   2  -5  -8    7.70   33.40
  -2   5   8   82.59   28.30
  -2   5   8   54.49   22.40
  -2   5   8   61.09   25.70
  -2   5   8   60.89   18.90
   1  -5  -8   54.59   17.40
   1  -5  -8   91.49   27.60
   1  -5  -8   57.89   28.60
   1  -5  -8   47.90   50.19
  -1   5   8   73.79   25.30
  -1   5   8   53.99   17.10
  -1   5   8   94.39   27.40
   0  -5  -8  878.71   58.29
   0  -5  -8  939.21   77.59
   0  -5  -8  970.30  108.39
   0  -5  -8  627.54  145.99
   0   5   8  940.81   73.29
   0   5   8 1013.10   60.29
  -1  -5  -8    2.10   12.70
  -1  -5  -8   29.50   25.00
  -1  -5  -8  -15.00   44.20
  -1  -5  -8   17.40   24.40
  -1  -5  -8   22.90   12.20
   1   5   8   -3.30    9.30
   1   5   8   13.40   10.20
   1   5   8   34.00   11.40
   1   5   8   26.00   15.80
  -2  -5  -8   44.00   24.10
  -2  -5  -8    1.80   14.70
  -2  -5  -8    4.20   16.90
  -2  -5  -8   -3.10   12.40
  -2  -5  -8   11.50   15.70
  -2  -5  -8   35.00   34.70
   2   5   8    7.70    9.30
   2   5   8   18.90   13.60
   2   5   8   19.30   12.00
   2   5   8    8.70   25.00
   2   5   8   14.90   12.00
  -3  -5  -8  208.98   58.29
  -3  -5  -8  181.48   32.00
  -3  -5  -8  192.08   53.09
  -3  -5  -8  133.09   66.49
   3   5   8  170.68   25.70
   3   5   8  162.48   21.00
   3   5   8  189.08   38.00
   3   5   8  154.98   25.20
  -4  -5  -8  212.08   84.79
  -4  -5  -8  207.38   61.39
  -4  -5  -8  165.58   60.59
   4   5   8  213.98   39.80
   4   5   8  199.48   40.10
   4   5   8  201.38   24.50
  -5  -5  -8 1670.03  157.88
  -5  -5  -8 1495.65  176.08
  -5  -5  -8 1485.75  117.59
   5   5   8 1498.65   90.69
   5   5   8 1417.36   72.89
   5   5   8 1496.95   79.79
  -6  -5  -8  749.82  109.19
  -6  -5  -8  691.63   75.19
  -6  -5  -8  830.42  128.39
   6   5   8  618.44   57.09
   6   5   8  626.44   45.60
   6   5   8  693.03   52.09
  -7  -5  -8  297.67   46.40
  -7  -5  -8  371.76   91.79
  -7  -5  -8  330.17   92.59
   7   5   8  267.27   32.20
   7   5   8  268.97   27.80
   7   5   8  214.58   33.20
   7   5   8  254.97   42.50
  -8  -5  -8   68.29   46.30
  -8  -5  -8   37.10   26.40
  -8  -5  -8   66.39   41.70
  -8  -5  -8   71.59   32.70
   8   5   8   24.10   11.30
   8   5   8  128.79   29.50
   8   5   8   49.50   20.80
   8   5   8  118.39   24.10
  -9  -5  -8  -38.60   22.10
  -9  -5  -8   18.30   47.30
  -9  -5  -8   36.50   39.00
   9   5   8   21.40   20.30
   9   5   8   13.60   12.10
   9   5   8   21.90   17.20
 -10  -5  -8   25.40   40.10
 -10  -5  -8   69.49   43.70
 -10  -5  -8   25.50   49.70
  10   5   8  -18.20   41.90
  10   5   8   57.59   23.50
  10   5   8   42.90   15.00
   3  -6  -8   73.69   73.29
   3  -6  -8  -74.49   49.99
   3  -6  -8  -48.60   35.00
   3  -6  -8  -47.90   20.40
  -3   6   8    8.10   23.60
  -3   6   8   11.70   24.10
  -3   6   8  -13.60   16.10
  -3   6   8   17.20   19.30
   2  -6  -8   18.60   47.70
   2  -6  -8    5.80   34.90
   2  -6  -8  -18.80   48.30
   2  -6  -8  -14.10   15.60
  -2   6   8   20.90   17.70
  -2   6   8   11.70   18.00
   1  -6  -8   42.90   19.40
   1  -6  -8   34.10   37.50
   1  -6  -8    5.60   26.90
   1  -6  -8   10.20   54.79
  -1   6   8   92.69   32.20
  -1   6   8   48.80   23.70
  -1   6   8    3.20   11.90
   0  -6  -8   28.40   46.20
   0  -6  -8   18.70   25.80
   0  -6  -8    4.20   15.10
   0  -6  -8   23.70   22.60
   0   6   8   21.20    9.70
   0   6   8    1.60   10.70
   0   6   8    7.40   11.90
  -1  -6  -8  205.78   22.70
  -1  -6  -8  170.78   41.20
  -1  -6  -8  211.68   54.89
  -1  -6  -8  274.87   54.29
  -1  -6  -8  164.98   79.79
   1   6   8  231.38   37.30
   1   6   8  227.18   32.40
   1   6   8  187.08   31.80
  -2  -6  -8   19.10   38.50
  -2  -6  -8  112.69   43.80
  -2  -6  -8   67.59   33.40
  -2  -6  -8   78.19   26.10
  -2  -6  -8   37.50   26.80
  -2  -6  -8   64.99   17.90
   2   6   8   66.19   18.90
   2   6   8   22.10   18.80
   2   6   8   54.99   18.50
   2   6   8   79.29   26.30
  -3  -6  -8  144.39   46.90
  -3  -6  -8   80.09   27.40
  -3  -6  -8  177.48   67.09
  -3  -6  -8   85.89   26.00
  -3  -6  -8  122.99   48.90
   3   6   8  137.79   29.60
   3   6   8  126.79   24.70
   3   6   8  138.79   30.30
  -4  -6  -8  218.28   53.39
  -4  -6  -8  184.08   55.19
  -4  -6  -8  145.29   71.79
   4   6   8  195.58   28.80
   4   6   8  189.28   39.50
   4   6   8  194.48   26.20
  -5  -6  -8  582.14   76.89
  -5  -6  -8  819.62  130.89
  -5  -6  -8  556.44   82.59
   5   6   8  722.13   65.19
   5   6   8  622.24   46.20
   5   6   8  612.04   57.79
  -6  -6  -8  487.05   65.09
  -6  -6  -8  415.76   90.39
  -6  -6  -8  303.67   90.29
   6   6   8  391.46   36.90
   6   6   8  361.76   45.90
   6   6   8  388.16   36.50
  -7  -6  -8  177.98   41.60
  -7  -6  -8  165.88   61.99
  -7  -6  -8  148.69   58.99
   7   6   8  140.39   34.00
   7   6   8  162.78   25.30
   7   6   8   85.69   34.30
   7   6   8  154.38   26.70
  -8  -6  -8   18.00   26.20
  -8  -6  -8    2.00   16.40
  -8  -6  -8  -19.10   30.00
   8   6   8   11.60   20.30
   8   6   8   46.10   15.40
   8   6   8    6.10    9.90
   8   6   8    2.50   13.40
  -9  -6  -8   41.30   31.60
  -9  -6  -8   18.70   36.80
   9   6   8    5.20    8.30
   9   6   8   17.40   15.60
   9   6   8  -19.30   15.30
  10   6   8  -16.90   18.40
   3  -7  -8   26.80   33.40
   3  -7  -8  -68.49   71.09
   3  -7  -8  109.59   45.60
  -3   7   8   18.80   23.30
  -3   7   8   40.90   27.90
  -3   7   8  -11.70   20.80
   2  -7  -8   10.20   19.30
   2  -7  -8  -22.70   60.59
   2  -7  -8  -12.90   33.00
  -2   7   8   22.10   20.00
  -2   7   8  -25.10   13.60
  -2   7   8    2.90   19.80
   1  -7  -8   65.89   33.80
   1  -7  -8   76.19   27.80
   1  -7  -8  -44.10   48.20
  -1   7   8   37.90   26.50
  -1   7   8    3.70   13.40
  -1   7   8   39.40   24.80
   0  -7  -8   -8.80   15.20
   0  -7  -8  -28.00   39.90
   0   7   8   -8.50   12.80
   0   7   8   -8.30   10.80
   0   7   8    3.20   13.80
  -1  -7  -8   16.90   46.80
  -1  -7  -8   69.29   25.40
  -1  -7  -8   90.49   49.10
   1   7   8  109.39   26.40
   1   7   8  120.69   28.90
   1   7   8   91.59   32.60
  -2  -7  -8  149.59   73.09
  -2  -7  -8  131.49   37.50
  -2  -7  -8   62.39   37.10
   2   7   8  163.48   24.50
   2   7   8  126.49   36.70
   2   7   8  126.49   28.50
   2   7   8  188.78   42.80
  -3  -7  -8  202.08   45.70
  -3  -7  -8  178.58   28.50
  -3  -7  -8  203.58   52.39
  -3  -7  -8  150.08   32.10
  -3  -7  -8  143.29   37.80
  -3  -7  -8  199.28   83.79
   3   7   8  150.68   28.80
   3   7   8   82.29   42.00
   3   7   8  199.38   46.80
   3   7   8  218.58   41.10
  -4  -7  -8  233.38   78.99
  -4  -7  -8  287.07   70.29
  -4  -7  -8  194.98   43.60
   4   7   8  203.08   45.10
   4   7   8  241.88   32.20
   4   7   8  208.98   27.00
  -5  -7  -8   32.50   30.70
  -5  -7  -8   99.99   30.50
  -5  -7  -8   45.70   37.80
   5   7   8    7.20   13.20
   5   7   8   22.80   10.30
   5   7   8   48.50   16.80
  -6  -7  -8   88.19   41.60
  -6  -7  -8  116.09   45.30
  -6  -7  -8   98.69   47.80
   6   7   8  102.69   28.60
   6   7   8   78.69   19.00
   6   7   8   98.79   23.90
  -7  -7  -8   18.90   26.00
  -7  -7  -8   23.20   29.90
  -7  -7  -8  -45.00   31.90
   7   7   8   -3.80   15.20
   7   7   8   55.39   26.30
   7   7   8   34.70   12.60
   7   7   8   53.29   16.90
  -8  -7  -8   78.29   55.99
  -8  -7  -8  178.38   50.89
  -8  -7  -8  129.59   51.59
   8   7   8  159.58   39.90
   8   7   8  105.79   32.40
   8   7   8  122.59   24.90
  -9  -7  -8   34.50   21.80
  -9  -7  -8  -36.30   28.40
  -9  -7  -8  -38.00   27.20
   9   7   8   24.70   17.40
   9   7   8    1.30   11.10
   9   7   8   -9.10   13.60
   2  -8  -8   82.99   39.40
   2  -8  -8  -36.50   73.89
   2  -8  -8   47.20   36.20
  -2   8   8   28.10   25.00
  -2   8   8   50.09   25.70
  -2   8   8   12.30   25.00
   1  -8  -8   38.50   31.10
   1  -8  -8   33.10   48.60
   1  -8  -8  114.99   79.39
  -1   8   8   80.19   31.10
  -1   8   8   31.20   19.60
  -1   8   8   53.29   28.40
   0  -8  -8   12.40   21.20
   0  -8  -8  -54.79   37.40
   0  -8  -8  -27.90   31.80
   0   8   8   -1.00   14.40
   0   8   8   16.20   18.80
   0   8   8  -14.90    9.70
  -1  -8  -8  148.99   66.59
  -1  -8  -8   53.39   51.39
  -1  -8  -8   67.49   34.50
   1   8   8   94.79   25.40
   1   8   8   63.59   28.60
   1   8   8  125.39   31.20
  -2  -8  -8  486.85  117.79
  -2  -8  -8  511.15  105.69
  -2  -8  -8  445.46   65.69
   2   8   8  455.85   67.39
   2   8   8  482.35   42.90
   2   8   8  480.85   57.29
   2   8   8  477.95   48.20
  -3  -8  -8  766.52  132.29
  -3  -8  -8  887.11   88.59
  -3  -8  -8  805.42  103.59
   3   8   8  733.13   60.39
   3   8   8  759.52   69.79
   3   8   8  841.32   84.99
  -4  -8  -8  566.54   49.20
  -4  -8  -8  620.44  114.69
  -4  -8  -8  540.55   73.59
  -4  -8  -8  459.55   93.19
   4   8   8  628.64   53.39
   4   8   8  453.45   78.69
   4   8   8  512.35   66.39
   4   8   8  535.85   53.59
  -5  -8  -8  232.98   47.20
  -5  -8  -8  234.08   81.99
  -5  -8  -8  183.18   55.29
   5   8   8  211.98   46.60
   5   8   8  227.18   31.50
   5   8   8  215.38   36.60
  -6  -8  -8   60.19   42.70
  -6  -8  -8   35.50   29.40
  -6  -8  -8   -0.90   24.60
   6   8   8   39.20   13.40
   6   8   8   47.70   16.70
   6   8   8   50.99   20.70
  -7  -8  -8   34.00   31.70
  -7  -8  -8   18.20   44.50
  -7  -8  -8   89.19   38.70
   7   8   8   40.10   12.90
   7   8   8   62.49   16.30
   7   8   8    9.70   24.00
  -8  -8  -8   42.90   25.10
  -8  -8  -8  -14.00   25.80
  -8  -8  -8  -29.00   30.90
   8   8   8    7.10    9.90
   8   8   8   40.30   20.70
   8   8   8   13.40   18.70
  -9  -8  -8   12.00   34.20
  -9  -8  -8   50.59   31.90
  -9  -8  -8   10.20   45.30
   9   8   8   14.30   23.70
   9   8   8    1.70   13.70
   9   8   8   19.60   15.70
   1  -9  -8   16.10   27.40
   1  -9  -8  -67.99   58.89
   1  -9  -8  -21.00   23.20
  -1   9   8   21.60   21.50
  -1   9   8  -15.40   22.40
  -1   9   8   71.29   35.00
   0  -9  -8  -25.50   22.80
   0  -9  -8  -58.49   43.20
   0   9   8  -15.80   15.00
   0   9   8   13.10   16.80
   0   9   8    3.40   19.50
  -1  -9  -8    7.00   26.90
  -1  -9  -8   -5.50   22.20
  -1  -9  -8   10.70   45.60
   1   9   8   29.10   15.60
   1   9   8  -29.20   15.80
   1   9   8  -28.10   17.50
  -2  -9  -8    5.50   22.50
  -2  -9  -8   22.40   33.10
   2   9   8   19.80   19.60
   2   9   8   24.70   14.00
   2   9   8  -26.30   17.50
  -3  -9  -8  190.18   66.99
  -3  -9  -8  131.29   46.80
   3   9   8  151.18   47.80
   3   9   8  168.88   42.40
   3   9   8  230.38   43.90
  -4  -9  -8   54.49   34.40
  -4  -9  -8  104.89   55.09
  -4  -9  -8   47.10   41.30
   4   9   8   38.80   22.70
   4   9   8   25.30   20.10
  -5  -9  -8    4.30   35.60
  -5  -9  -8    7.50   42.40
  -5  -9  -8   11.70   16.70
   5   9   8   18.00   16.80
   5   9   8   36.50   15.00
   5   9   8   27.20   15.80
  -6  -9  -8  -19.80   15.50
  -6  -9  -8   55.69   34.00
  -6  -9  -8  -10.40   29.40
   6   9   8   -2.80    8.80
   6   9   8   14.80   35.70
   6   9   8   36.00   13.60
  -7  -9  -8   88.39   37.70
  -7  -9  -8   59.69   47.80
  -7  -9  -8  100.29   42.80
   7   9   8   65.99   18.20
   7   9   8  125.69   19.60
   7   9   8   32.80   21.60
  -8  -9  -8   78.29   40.80
  -8  -9  -8   72.59   37.80
  -8  -9  -8  103.49   33.40
   8   9   8   14.90   25.10
   8   9   8   12.60   24.40
   8   9   8   46.70   17.10
   8   9   8   26.60   15.00
  -9  -9  -8   96.59   52.59
  -9  -9  -8  103.49   34.40
   9   9   8   34.60   14.30
   9   9   8   11.80   20.20
   9   9   8   29.50   29.10
   0 -10  -8  -34.90   50.29
   0 -10  -8   85.19   40.50
   0 -10  -8   83.59   42.20
   0  10   8   30.60   22.40
   0  10   8   40.50   34.70
   0  10   8    6.80   23.60
  -1 -10  -8    0.80   52.59
  -1 -10  -8   62.19   34.50
   1  10   8    8.10   28.80
   1  10   8  138.19   32.50
   1  10   8   13.90   15.60
  -2 -10  -8  109.59   41.10
  -2 -10  -8   33.30   56.29
  -2 -10  -8  142.89   60.99
   2  10   8  106.99   26.60
   2  10   8   72.39   28.80
   2  10   8   84.79   38.00
   2  10   8   61.79   30.30
  -3 -10  -8   43.50   55.49
  -3 -10  -8  119.29   36.70
  -3 -10  -8   78.49   41.70
   3  10   8   57.79   37.80
   3  10   8   17.20   23.30
   3  10   8   56.99   23.90
  -4 -10  -8   24.70   46.20
  -4 -10  -8   35.00   35.20
  -4 -10  -8    6.60   26.70
   4  10   8   15.50   25.50
   4  10   8   30.00   24.10
   4  10   8   44.10   15.90
  -5 -10  -8   33.00   25.70
  -5 -10  -8   10.50   14.10
  -5 -10  -8   11.60   48.30
   5  10   8    7.80   18.20
   5  10   8    7.20   15.60
   5  10   8   -1.90   14.70
  -6 -10  -8   88.69   30.60
  -6 -10  -8   31.40   21.80
  -6 -10  -8  -10.30   36.10
   6  10   8   31.50   16.40
   6  10   8   60.89   19.80
   6  10   8  -12.20   18.00
  -7 -10  -8  -10.80   22.00
  -7 -10  -8    3.90   28.60
   7  10   8   22.80   10.30
   7  10   8   -2.40   22.30
   7  10   8    3.80   11.00
  -8 -10  -8    7.70   23.10
  -8 -10  -8  -57.79   30.40
  -8 -10  -8  -37.10   25.40
   8  10   8   23.90   15.70
   8  10   8   15.00   10.70
   8  10   8   55.79   16.40
   8  10   8   24.90   18.00
  -2 -11  -8  106.59   59.69
  -2 -11  -8  207.78   69.29
  -2 -11  -8  165.28   47.40
   2  11   8  124.69   30.30
   2  11   8   96.09   39.90
   2  11   8  108.99   46.30
   2  11   8  225.58   42.60
  -3 -11  -8   43.50   37.30
  -3 -11  -8   82.19   41.90
  -3 -11  -8   38.30   43.30
   3  11   8   17.80   33.80
   3  11   8    8.70   24.40
   3  11   8   31.70   18.10
  -4 -11  -8   57.99   34.90
  -4 -11  -8   14.20   32.40
   4  11   8   55.99   17.00
   4  11   8   24.00   26.70
   4  11   8   36.50   25.70
  -5 -11  -8   24.50   31.80
  -5 -11  -8   20.20   43.20
   5  11   8   14.40   21.60
   5  11   8    9.70   33.30
   5  11   8   27.70   15.40
  -6 -11  -8   37.50   31.10
  -6 -11  -8   -0.40   43.80
   6  11   8   79.69   26.80
   6  11   8   26.80   18.30
   6  11   8  100.99   30.20
  -7 -11  -8   68.59   34.60
  -7 -11  -8  -12.30   47.40
  -7 -11  -8   95.19   41.70
   7  11   8  103.59   19.90
   7  11   8   46.60   15.00
   7  11   8   49.30   22.90
   1   9  -9  141.29   38.20
   0   9  -9  135.49   64.09
   0   9  -9   32.40   26.80
   0  -9   9   35.50   33.10
   3   8  -9   97.09   20.80
   3   8  -9  101.29   70.69
   3   8  -9    8.20   53.39
   3   8  -9  136.49   30.40
   3   8  -9   77.09   39.10
  -3  -8   9   54.99   32.40
  -3  -8   9   94.79   41.00
  -3  -8   9   37.90   25.90
   2   8  -9   84.99   21.30
   2   8  -9   15.50   57.09
   2   8  -9   93.79   35.20
   2   8  -9   11.30   38.90
   2   8  -9   49.70   17.70
   2   8  -9  141.89   57.59
  -2  -8   9   71.09   45.20
  -2  -8   9   34.90   29.10
  -2  -8   9    9.50   17.50
   1   8  -9   80.79   26.10
   1   8  -9   82.39   54.39
   1   8  -9   39.70   52.19
   1   8  -9   86.09   53.99
  -1  -8   9   56.79   45.00
  -1  -8   9   14.50   32.30
  -1  -8   9   93.29   29.80
   0   8  -9    6.00   50.19
   0   8  -9   38.10   46.50
   0   8  -9   52.39   50.09
   0  -8   9   34.60   44.90
   0  -8   9   49.60   34.90
   0  -8   9   23.20   34.00
  -1   8  -9   -5.20   68.99
  -1   8  -9   36.00   51.49
  -1   8  -9  -21.30   59.09
   1  -8   9  -24.50   16.30
   1  -8   9   52.99   24.90
   1  -8   9  -22.80   32.20
  -2   8  -9   56.49   28.20
  -2   8  -9  -25.90   60.29
  -2   8  -9   59.69   69.79
  -2   8  -9  103.69   55.79
   2  -8   9   14.20   36.00
   2  -8   9   50.79   22.00
   3  -8   9   59.89   22.40
   3  -8   9   26.40   24.40
   4   7  -9   22.60   38.90
   4   7  -9    0.70   45.20
  -4  -7   9   -6.30   29.20
  -4  -7   9  -31.20   38.40
  -4  -7   9  -13.00   26.80
   3   7  -9  -23.60   13.40
   3   7  -9  -15.20   44.80
   3   7  -9   -7.10   22.80
  -3  -7   9    0.10   15.90
  -3  -7   9   46.30   34.60
  -3  -7   9    2.50   30.60
  -3  -7   9   10.10   31.50
   2   7  -9  -55.49   40.20
   2   7  -9    9.80   23.70
   2   7  -9   30.60   54.99
   2   7  -9   32.60   46.50
  -2  -7   9  -17.20   26.30
  -2  -7   9  -14.60   14.60
  -2  -7   9   -7.30   20.30
   1   7  -9   38.50   51.39
   1   7  -9   64.99   30.20
   1   7  -9   17.00   52.59
  -1  -7   9  104.19   40.20
  -1  -7   9   71.29   26.10
  -1  -7   9  146.99   62.29
   0   7  -9   80.59   27.00
   0   7  -9    7.60   44.90
   0   7  -9   10.30   48.70
   0   7  -9   78.99   23.30
   0   7  -9   54.39   54.19
   0  -7   9  118.29   35.50
   0  -7   9  105.89   40.90
   0  -7   9  169.48   55.79
  -1   7  -9   36.70   58.19
  -1   7  -9  100.59   67.19
   1  -7   9  130.29   40.40
   1  -7   9  141.59   32.00
   1  -7   9  195.68   50.29
   1  -7   9  142.39   60.19
  -2   7  -9   24.40   42.60
  -2   7  -9  102.29   66.99
   2  -7   9   46.40   33.40
   2  -7   9   92.49   33.20
   2  -7   9   72.89   26.50
  -3   7  -9  141.99   68.89
  -3   7  -9   88.89   75.29
  -3   7  -9  104.29   55.79
  -3   7  -9  186.88   72.79
   3  -7   9  219.58   57.29
   3  -7   9  110.49   32.70
   3  -7   9  148.69   52.69
  -4   7  -9   41.80   46.70
  -4   7  -9   33.30   43.30
  -4   7  -9   85.09   70.59
   4  -7   9   34.40   18.20
   4  -7   9   38.50   24.50
   4  -7   9   44.20   33.20
   5   6  -9   73.19   49.30
   5   6  -9    2.20   71.39
  -5  -6   9   53.59   38.00
   4   6  -9    0.10   49.10
   4   6  -9  120.89   55.09
   4   6  -9  -10.50   34.60
  -4  -6   9   -9.40   23.40
  -4  -6   9  -33.70   20.30
  -4  -6   9   42.10   26.00
   3   6  -9   54.09   35.90
   3   6  -9   59.59   44.40
   3   6  -9   73.69   17.40
   3   6  -9  -11.80   44.70
  -3  -6   9   50.29   32.20
  -3  -6   9   46.80   36.00
  -3  -6   9   57.89   17.30
  -3  -6   9   81.49   31.80
   2   6  -9   12.00   55.89
   2   6  -9   23.10   35.00
   2   6  -9  -20.40   28.00
  -2  -6   9   26.00   15.30
  -2  -6   9   13.60   15.70
  -2  -6   9    8.20   23.40
   1   6  -9   76.29   73.09
   1   6  -9   57.99   26.50
   1   6  -9   14.30   34.60
   1   6  -9  -18.70   38.50
  -1  -6   9  -28.80   11.00
  -1  -6   9    7.60   16.50
  -1  -6   9  -19.20   27.80
   0   6  -9   50.69   47.20
   0   6  -9   80.49   26.40
   0   6  -9   94.39   20.20
   0   6  -9   62.09   48.30
   0  -6   9   32.70   20.90
   0  -6   9   83.19   34.60
   0  -6   9   51.99   22.50
  -1   6  -9    8.10   33.40
  -1   6  -9   57.19   42.00
  -1   6  -9   31.00   52.89
   1  -6   9   49.99   19.10
   1  -6   9   39.30   39.30
   1  -6   9   62.69   27.40
   1  -6   9   93.09   42.60
  -2   6  -9   40.40   44.20
  -2   6  -9   32.90   52.69
   2  -6   9   14.20   16.80
   2  -6   9   57.59   27.40
   2  -6   9   71.29   30.70
  -3   6  -9   31.50   31.90
  -3   6  -9   24.90   52.39
  -3   6  -9   54.19   50.19
   3  -6   9    4.20   28.20
  -4   6  -9   25.50   50.29
  -4   6  -9  -44.30   45.90
  -4   6  -9   30.40   48.10
  -4   6  -9   32.00   29.80
   4  -6   9  -37.60   23.20
   4  -6   9  -19.00   16.30
   4  -6   9  -14.80   12.80
  -5   6  -9   57.69   36.90
  -5   6  -9   35.30   45.70
  -5   6  -9   -3.90   54.29
   5  -6   9   32.60   15.40
   5  -6   9   49.90   26.70
   5  -6   9    3.20   32.10
   5   5  -9  -38.90   62.39
   5   5  -9    8.10   31.40
   5   5  -9    6.60   45.40
  -5  -5   9   59.69   28.30
  -5  -5   9  131.89   38.00
  -5  -5   9   87.19   42.80
   4   5  -9   49.10   46.70
   4   5  -9    3.50   30.20
   4   5  -9   23.60   55.09
  -4  -5   9   21.60   29.60
  -4  -5   9  -19.10   23.80
  -4  -5   9   44.20   25.30
   3   5  -9  157.48   22.00
   3   5  -9   80.39   71.59
   3   5  -9   35.20   46.20
  -3  -5   9  164.08   43.10
  -3  -5   9  185.48   58.49
  -3  -5   9  171.58   61.79
  -3  -5   9  149.39   22.50
   2   5  -9   93.59   32.30
   2   5  -9   21.90   62.59
   2   5  -9   69.29   56.39
  -2  -5   9   54.49   34.40
  -2  -5   9   43.00   19.80
  -2  -5   9   66.89   36.90
  -2  -5   9   54.89   18.30
   1   5  -9  170.78   88.19
   1   5  -9  126.29   74.09
  -1  -5   9  140.79   51.59
  -1  -5   9  168.08   32.50
  -1  -5   9  148.79   44.50
   0   5  -9   82.09   26.10
   0   5  -9   42.60   25.20
   0   5  -9   28.60   37.10
   0   5  -9   -2.80   42.10
   0   5  -9   90.09   19.90
   0  -5   9   30.70   25.50
   0  -5   9   35.10   17.20
   0  -5   9   22.50   22.40
  -1   5  -9   37.20   50.29
  -1   5  -9   30.80   45.20
  -1   5  -9   55.79   10.40
  -1   5  -9   42.50   40.20
   1  -5   9   27.90   29.10
   1  -5   9   42.30   17.40
   1  -5   9   56.49   18.90
   1  -5   9   31.10   18.10
  -2   5  -9   96.89   54.99
  -2   5  -9   39.40   32.90
  -2   5  -9   67.69   44.10
   2  -5   9   88.09   45.10
   2  -5   9  112.99   26.30
   2  -5   9  139.69   33.20
   2  -5   9  164.18   47.00
  -3   5  -9   15.90   41.30
  -3   5  -9   60.69   64.29
  -3   5  -9  132.49   82.99
   3  -5   9  278.57   63.09
  -4   5  -9  409.86  101.79
  -4   5  -9  203.68   83.89
  -4   5  -9  276.37  106.39
   4  -5   9  467.65   67.69
   4  -5   9  468.35   63.49
   4  -5   9  378.06   47.20
  -5   5  -9  217.78   62.39
  -5   5  -9  116.89   73.19
  -5   5  -9  250.07   95.79
  -5   5  -9  199.08   90.09
   5  -5   9  185.28   50.49
   5  -5   9  191.98   39.30
   5  -5   9  179.58   54.69
  -6   5  -9  147.59   50.99
  -6   5  -9   36.80   57.09
  -6   5  -9  -12.00   58.29
   6  -5   9   23.40   24.60
   6  -5   9   57.79   30.40
   6  -5   9   70.39   18.40
   5   4  -9  142.69   64.39
   5   4  -9   -7.60   29.60
  -5  -4   9    5.00   27.70
  -5  -4   9  -35.80   22.40
  -5  -4   9   12.70   28.80
   4   4  -9  -29.90   29.10
   4   4  -9   -9.70   51.19
   4   4  -9  -31.70   36.80
  -4  -4   9   22.70   26.30
  -4  -4   9    4.40   16.30
  -4  -4   9   19.70   20.00
   3   4  -9   53.19   66.19
   3   4  -9   32.40   31.50
  -3  -4   9   44.40   33.20
  -3  -4   9   26.70   21.70
  -3  -4   9   52.89   39.70
   2   4  -9   10.70   23.60
   2   4  -9   50.89   40.40
   2   4  -9   56.39   52.49
  -2  -4   9   59.99   28.90
  -2  -4   9   28.60   25.50
  -2  -4   9   35.10   13.70
  -2  -4   9   49.70   30.20
   1   4  -9  308.77   86.89
   1   4  -9  466.35   59.59
   1   4  -9  213.68   93.99
  -1  -4   9  470.75   39.20
  -1  -4   9  404.96   56.89
  -1  -4   9  501.35   78.29
   0   4  -9  204.78   42.70
   0   4  -9  236.38   56.09
   0  -4   9  208.68   50.39
   0  -4   9  194.48   42.00
   0  -4   9  188.98   61.79
  -1   4  -9  137.69   24.70
  -1   4  -9   55.39   38.80
  -1   4  -9  172.98   13.10
  -1   4  -9  102.99   25.10
  -1   4  -9   50.29   49.40
  -1   4  -9   53.39   47.80
   1  -4   9  122.49   51.79
   1  -4   9   84.59   21.50
   1  -4   9  136.89   21.00
   1  -4   9  146.29   41.10
  -2   4  -9  204.98   89.59
  -2   4  -9  384.56   26.30
   2  -4   9  333.57   77.59
   2  -4   9  288.97   35.30
   2  -4   9  407.66   55.59
   2  -4   9  381.76   42.40
  -3   4  -9   66.79   48.80
  -3   4  -9   31.60   37.30
   3  -4   9   38.30   21.60
   3  -4   9   23.80   20.40
   3  -4   9   20.20   11.30
  -4   4  -9  180.58   91.09
  -4   4  -9  124.19   63.49
  -4   4  -9  112.09   53.59
   4  -4   9  293.37   54.79
   4  -4   9  269.17   56.79
   4  -4   9  251.97   34.60
  -5   4  -9  181.98   68.59
  -5   4  -9   83.49   53.99
   5  -4   9  165.48   45.90
   5  -4   9  179.28   36.30
  -6   4  -9   37.90   63.59
  -6   4  -9  111.69   89.29
  -6   4  -9  177.98   52.19
  -6   4  -9  118.89   67.99
   6  -4   9  107.29   29.00
   6  -4   9   96.19   40.40
   6  -4   9  132.49   47.60
  -7   4  -9  -20.80   43.30
  -7   4  -9   33.20   49.50
  -7   4  -9   22.30   53.39
   7  -4   9    3.70   23.70
   7  -4   9    6.30   15.10
   7  -4   9  -17.10   25.40
   5   3  -9  -49.40   35.10
   5   3  -9  -29.90   49.30
   5   3  -9  -25.40   57.79
   5   3  -9   12.40   14.90
  -5  -3   9   39.20   29.40
  -5  -3   9   30.40   30.00
  -5  -3   9   70.09   27.80
   4   3  -9   -7.90   28.20
   4   3  -9   82.09   62.09
   4   3  -9   -9.90   20.00
  -4  -3   9    9.70   22.60
  -4  -3   9   -9.60   18.60
  -4  -3   9   -7.10   14.70
   3   3  -9  -39.00   31.30
   3   3  -9  -31.90   18.90
  -3  -3   9   23.00   20.50
  -3  -3   9    9.40   24.30
  -3  -3   9   -6.20   10.90
   2   3  -9   55.29   46.40
   2   3  -9   77.49   34.80
   2   3  -9   10.60   40.20
  -2  -3   9  111.39   37.20
  -2  -3   9  114.09   44.70
  -2  -3   9  111.69   36.10
  -2  -3   9  166.68   19.00
   1   3  -9   74.69   38.20
   1   3  -9    1.10   22.60
   1   3  -9   28.80   24.00
  -1  -3   9   14.40    9.20
  -1  -3   9  -10.60   12.10
   0   3  -9  -44.40   27.10
   0   3  -9  -13.40   34.70
   0   3  -9  -11.70   15.20
   0  -3   9    0.80   13.00
   0  -3   9   13.20   17.00
   0  -3   9   -1.20    8.20
  -1   3  -9  -29.80   35.80
  -1   3  -9   13.70   20.90
  -1   3  -9  -18.90   34.50
  -1   3  -9   41.00   14.00
   1  -3   9   12.80   15.90
   1  -3   9   35.80   25.70
   1  -3   9   18.40   10.40
  -2   3  -9   27.70   39.20
  -2   3  -9    7.00   23.50
  -2   3  -9   14.00   43.40
   2  -3   9   22.00   10.70
   2  -3   9   12.90   16.90
   2  -3   9   25.00   20.10
  -3   3  -9    5.10   24.60
  -3   3  -9  -41.00   34.00
  -3   3  -9  -42.70   24.90
   3  -3   9   -4.80   18.50
   3  -3   9   29.10   18.40
   3  -3   9   15.20   10.10
  -4   3  -9   60.79   58.89
  -4   3  -9   74.39   48.20
   4  -3   9   77.59   19.90
   4  -3   9   79.09   28.40
   4  -3   9   79.19   32.90
  -5   3  -9   15.80   55.89
  -5   3  -9  -20.30   34.30
  -5   3  -9    1.50   48.20
   5  -3   9   43.80   27.50
   5  -3   9   58.29   23.00
   5  -3   9   61.99   18.10
  -6   3  -9  -49.70   43.40
  -6   3  -9   28.90   33.30
  -6   3  -9   10.40   38.10
   6  -3   9   14.50   17.80
   6  -3   9   12.70    8.30
   6  -3   9  -14.40   17.70
  -7   3  -9  -20.20   47.90
  -7   3  -9   51.49   35.00
  -7   3  -9  -16.50   29.20
  -7   3  -9  -44.50   66.29
   7  -3   9   17.00   14.10
   7  -3   9   12.10   19.60
   7  -3   9   24.70   32.00
   5   2  -9  -29.60   32.10
   5   2  -9   89.49   65.49
   5   2  -9   76.89   69.29
  -5  -2   9   36.80   35.50
  -5  -2   9   49.00   33.00
  -5  -2   9   37.90   24.60
   4   2  -9   47.10   49.10
   4   2  -9  126.99   49.20
   4   2  -9   72.19   18.40
   4   2  -9   99.89   67.59
  -4  -2   9  125.99   45.70
  -4  -2   9   50.59   30.80
  -4  -2   9   89.89   30.00
   3   2  -9   43.80   38.60
   3   2  -9   14.10   34.10
   3   2  -9   68.19   74.89
  -3  -2   9   60.79   29.60
  -3  -2   9   82.29   34.30
  -3  -2   9   96.59   30.80
   2   2  -9  172.68   75.39
   2   2  -9  324.17   23.00
   2   2  -9  370.16   77.49
   2   2  -9  150.08   76.09
  -2  -2   9  303.37   43.80
  -2  -2   9  327.37   23.20
  -2  -2   9  406.46   67.49
  -2  -2   9  246.68   61.69
   1   2  -9   -3.40   27.40
   1   2  -9    1.70   34.00
   1   2  -9   31.60   17.10
  -1  -2   9   18.10   19.20
  -1  -2   9    6.70    7.10
  -1  -2   9   27.10   11.40
  -1  -2   9   14.00   16.30
   0   2  -9  204.58   49.50
   0   2  -9  108.89   68.99
   0  -2   9  226.58   61.39
   0  -2   9  204.48   22.50
   0  -2   9  223.48   47.70
  -1   2  -9  495.65  124.19
  -1   2  -9  651.53   55.69
   1  -2   9  508.15   75.89
   1  -2   9  633.74   42.40
   1  -2   9  575.14   63.19
   1  -2   9  620.54   44.80
  -2   2  -9  543.35  138.59
   2  -2   9  805.52   77.99
   2  -2   9  786.92   94.09
   2  -2   9  849.81   51.99
  -3   2  -9 1120.99   54.59
   3  -2   9 1090.09   66.59
   3  -2   9  977.60   89.69
   3  -2   9 1036.90   62.49
   3  -2   9 1130.59  116.29
  -4   2  -9    2.20   28.00
  -4   2  -9  -15.70   32.50
   4  -2   9    7.10    7.00
   4  -2   9   -5.10   12.80
   4  -2   9   -2.20   13.90
  -5   2  -9    7.90   31.30
  -5   2  -9  -47.90   37.20
   5  -2   9   14.50    8.60
   5  -2   9  -14.70   13.40
   5  -2   9   -6.00   14.00
  -6   2  -9  -13.60   48.60
  -6   2  -9   91.39   83.09
  -6   2  -9   -4.70   41.90
   6  -2   9  -14.90   16.20
   6  -2   9   16.20   16.20
   6  -2   9   19.90   10.30
  -7   2  -9  -31.90   56.59
  -7   2  -9  -40.20   38.20
  -7   2  -9  -22.20   48.90
   7  -2   9   42.70   22.60
   7  -2   9   13.40    9.70
   7  -2   9   16.80   15.40
  -8   2  -9   -1.90   33.50
  -8   2  -9    2.10   61.29
  -8   2  -9  -38.60   48.00
   8  -2   9    8.40   28.80
   8  -2   9   58.89   46.00
   8  -2   9   -2.40   13.30
   5   1  -9  -23.50   50.79
   5   1  -9   71.89   23.40
   5   1  -9   49.90   55.19
   5   1  -9   35.50   63.79
  -5  -1   9   53.09   27.80
  -5  -1   9   49.80   37.60
  -5  -1   9   53.69   23.80
   4   1  -9   63.59   62.29
   4   1  -9  174.18   73.49
   4   1  -9  137.59   29.40
  -4  -1   9  138.99   50.09
  -4  -1   9   88.49   24.10
  -4  -1   9   67.09   28.40
   3   1  -9   23.40   41.10
   3   1  -9  -20.00   40.20
   3   1  -9   94.19   37.90
  -3  -1   9   65.59   32.70
  -3  -1   9   80.69   26.00
  -3  -1   9   88.89   36.40
   2   1  -9  428.06   26.70
   2   1  -9  438.46   68.09
   2   1  -9  249.28   97.09
  -2  -1   9  439.36   67.69
  -2  -1   9  377.46   46.00
  -2  -1   9  388.96   69.29
   1   1  -9  130.29   75.49
   1   1  -9  401.16   99.59
   1   1  -9  331.57   26.00
   1   1  -9  153.88   75.29
  -1  -1   9  296.17   31.00
  -1  -1   9  315.37   58.19
  -1  -1   9  285.17   63.69
  -1  -1   9  319.17   43.40
   0   1  -9   85.29   28.10
   0   1  -9   27.10   40.80
   0   1  -9   23.90   39.50
   0  -1   9   43.90   27.90
   0  -1   9   18.60   14.70
  -1   1  -9  108.99   63.09
  -1   1  -9  102.79   63.39
   1  -1   9   61.49   33.20
   1  -1   9  154.38   22.50
   1  -1   9  134.49   20.90
   1  -1   9  146.09   36.60
  -2   1  -9  480.85   44.40
   2  -1   9  473.35   39.80
   2  -1   9  490.65   69.79
   2  -1   9  465.25   32.60
   2  -1   9  482.05   56.69
  -3   1  -9  345.57   29.20
  -3   1  -9  150.68   75.39
   3  -1   9  287.77   28.60
   3  -1   9  313.17   29.50
   3  -1   9  276.47   44.00
   3  -1   9  230.78   61.09
  -4   1  -9   72.79   48.20
  -4   1  -9  105.19   68.79
  -4   1  -9  188.88   73.79
   4  -1   9  213.48   26.00
   4  -1   9  188.78   46.30
   4  -1   9  214.18   27.70
  -5   1  -9  110.69   72.99
  -5   1  -9   59.09   38.70
  -5   1  -9   86.69   53.99
   5  -1   9  166.28   25.00
   5  -1   9  108.39   32.40
   5  -1   9   90.99   19.10
  -6   1  -9   56.19   39.60
  -6   1  -9    9.10   32.20
  -6   1  -9  -30.60   37.50
   6  -1   9    6.70    8.60
   6  -1   9   -7.40   13.20
   6  -1   9   -1.00   16.90
  -7   1  -9   48.70   64.29
  -7   1  -9   20.50   52.69
  -7   1  -9   52.59   39.70
   7  -1   9   58.89   17.10
   7  -1   9   81.89   26.80
   7  -1   9   63.39   26.00
  -8   1  -9  219.88   85.99
  -8   1  -9  224.88   59.19
  -8   1  -9  164.28   72.89
  -8   1  -9  208.78   89.19
   8  -1   9  217.08   51.59
   8  -1   9  185.68   42.50
   8  -1   9  187.08   33.90
   5   0  -9  -10.30   56.39
   5   0  -9   19.70   19.20
   5   0  -9  -37.50   55.19
   5   0  -9  -62.39   41.70
  -5   0   9   10.80   23.90
  -5   0   9   24.40   17.60
  -5   0   9  -30.50   27.70
   4   0  -9   47.00   56.89
   4   0  -9   98.09   54.89
   4   0  -9   19.80   16.00
   4   0  -9   93.39   34.70
  -4   0   9   37.60   21.20
  -4   0   9  -14.30   17.40
  -4   0   9   28.30   16.10
   3   0  -9   25.10   34.20
   3   0  -9   46.50   45.90
   3   0  -9  -28.50   39.00
  -3   0   9   18.10   21.70
  -3   0   9   26.10   24.90
  -3   0   9   33.40   14.50
   2   0  -9   -5.60   18.10
   2   0  -9   41.90   24.40
   2   0  -9  -40.20   31.70
  -2   0   9   23.50   19.10
  -2   0   9   22.60   16.40
  -2   0   9  -13.30    8.00
   1   0  -9  234.38   90.99
   1   0  -9  435.86   31.70
   1   0  -9  406.16   82.49
  -1   0   9  384.06   44.60
  -1   0   9  392.46   61.99
  -1   0   9  383.56   81.49
   0   0  -9  275.77  100.79
   0   0  -9  203.88   88.49
   0   0  -9  356.16   55.89
   0   0   9  351.26   42.30
   0   0   9  389.66   57.49
   0   0   9  392.76   26.60
  -1   0  -9    0.00   13.30
  -1   0  -9    0.50   27.20
  -1   0  -9  -38.10   23.40
   1   0   9   -1.80   13.30
   1   0   9   -3.90    6.90
   1   0   9    2.60    4.10
  -2   0  -9  -27.20   26.30
  -2   0  -9   -4.60   32.70
  -2   0  -9    6.20   13.30
   2   0   9    0.30   14.70
   2   0   9   -0.70    3.70
   2   0   9   -2.30    7.50
   2   0   9   15.70   11.30
  -3   0  -9   61.49   14.10
  -3   0  -9   35.90   38.10
  -3   0  -9   69.29   41.40
  -3   0  -9   73.89   20.00
  -3   0  -9   33.50   27.10
   3   0   9   57.99   24.10
   3   0   9   47.70   23.70
   3   0   9   65.99   15.80
   3   0   9   66.29   16.60
   3   0   9   38.90   11.00
   3   0   9   85.19   17.40
  -4   0  -9  263.17   95.49
  -4   0  -9   78.49   55.39
  -4   0  -9   75.89   36.30
   4   0   9  176.08   42.40
   4   0   9  214.38   22.90
   4   0   9  130.09   22.00
  -5   0  -9  166.78   75.59
  -5   0  -9   50.49   43.10
  -5   0  -9   64.09   57.09
   5   0   9   96.99   23.50
   5   0   9  114.49   31.10
   5   0   9   85.99   18.10
  -6   0  -9  -57.69   30.50
  -6   0  -9   33.70   39.50
  -6   0  -9   29.10   35.90
   6   0   9   23.50   15.30
   6   0   9   17.80    8.50
   6   0   9   24.40   20.50
  -7   0  -9   25.50   52.69
  -7   0  -9   18.30   44.20
  -7   0  -9   33.40   38.10
   7   0   9   47.80   27.30
   7   0   9   59.49   25.30
   7   0   9   51.39   18.60
  -8   0  -9   83.49   68.29
  -8   0  -9  121.69   79.09
  -8   0  -9  100.09   51.89
  -8   0  -9   71.49   58.99
   8   0   9  153.68   36.10
   8   0   9  144.09   26.70
   8   0   9   99.19   30.80
  -9   0  -9  111.79   69.69
  -9   0  -9  -17.60   67.59
  -9   0  -9   76.99   54.59
  -9   0  -9  184.78   55.99
   9   0   9   58.69   29.90
   9   0   9  212.18   46.30
   9   0   9   80.29   21.40
   5  -1  -9  133.09   56.79
   5  -1  -9   87.59   31.70
   5  -1  -9  115.49   82.39
  -5   1   9  130.99   44.10
  -5   1   9  186.88   58.49
  -5   1   9  144.59   36.80
   4  -1  -9  144.89   28.80
   4  -1  -9  -32.00   65.69
   4  -1  -9   19.60   54.29
   4  -1  -9   79.59   32.20
  -4   1   9  116.19   38.60
  -4   1   9  144.79   44.40
  -4   1   9  104.69   28.50
   3  -1  -9   51.79   47.60
   3  -1  -9  157.98   28.50
   3  -1  -9   67.89   57.39
   3  -1  -9  114.39   51.39
  -3   1   9  130.29   40.70
  -3   1   9  129.49   41.30
  -3   1   9  160.28   33.90
   2  -1  -9   63.89   16.30
   2  -1  -9   65.39   40.20
   2  -1  -9   11.50   30.50
   2  -1  -9   14.80   40.10
  -2   1   9   40.30   17.10
  -2   1   9   62.19   27.90
  -2   1   9   31.40    7.40
  -2   1   9   52.59   10.30
  -2   1   9   23.30   24.00
  -2   1   9   38.30   15.50
   1  -1  -9  223.88   89.59
   1  -1  -9  141.09   74.89
   1  -1  -9  263.87   59.19
  -1   1   9  280.67   63.89
  -1   1   9  357.66   23.00
  -1   1   9  328.07   38.90
  -1   1   9  347.37   53.59
   0  -1  -9  328.57  107.59
   0  -1  -9  564.14   71.09
   0   1   9  588.44   52.29
   0   1   9  514.75   66.19
   0   1   9  521.35   30.60
  -1  -1  -9  698.63   73.89
   1   1   9  668.63   79.69
   1   1   9  701.03   58.59
   1   1   9  689.43   37.80
  -2  -1  -9   40.20   11.70
  -2  -1  -9   10.80   30.60
  -2  -1  -9  -32.50   36.10
   2   1   9    5.70    8.50
   2   1   9    6.00    9.20
   2   1   9   16.90    5.10
   2   1   9   24.50   12.40
   2   1   9   18.20    7.80
  -3  -1  -9   31.20   14.80
  -3  -1  -9   37.90   14.20
  -3  -1  -9   90.29   60.29
  -3  -1  -9   22.40   32.10
  -3  -1  -9   24.40   39.80
   3   1   9  106.79   26.80
   3   1   9   61.09   11.50
   3   1   9   55.49   12.80
   3   1   9   66.89   17.90
   3   1   9   25.20   21.70
   3   1   9   63.59   23.60
  -4  -1  -9  129.39   51.59
  -4  -1  -9  156.38   70.39
  -4  -1  -9  165.38   25.10
  -4  -1  -9  128.79   66.29
   4   1   9  187.98   29.00
   4   1   9  142.89   35.20
   4   1   9  156.78   44.60
   4   1   9  147.49   19.60
   4   1   9  141.99   17.70
  -5  -1  -9  196.78   22.00
  -5  -1  -9  215.98   80.79
  -5  -1  -9  210.78   66.59
  -5  -1  -9  178.08   79.49
   5   1   9  266.97   27.30
   5   1   9  223.18   27.20
   5   1   9  172.38   22.20
   5   1   9  180.18   32.90
   5   1   9  194.88   46.00
  -6  -1  -9   57.59   49.10
  -6  -1  -9   57.99   36.50
  -6  -1  -9   46.30   45.40
   6   1   9   58.39   14.50
   6   1   9   83.39   20.80
   6   1   9   17.80   28.30
   6   1   9   42.00   13.00
   6   1   9   71.99   26.00
  -7  -1  -9   -0.50   39.10
  -7  -1  -9  -35.60   39.30
  -7  -1  -9   22.00   46.10
   7   1   9   56.69   20.40
   7   1   9   55.99   19.50
   7   1   9  101.49   26.40
   7   1   9   73.59   26.90
   7   1   9   73.59   19.00
  -8  -1  -9  -30.40   40.70
  -8  -1  -9   16.80   34.50
  -8  -1  -9  -52.49   47.90
   8   1   9    5.00   10.60
   8   1   9  -19.80   17.60
   8   1   9  -11.30   14.00
   8   1   9    5.60   18.10
  -9  -1  -9   11.00   26.30
  -9  -1  -9  -90.89   43.10
  -9  -1  -9   79.19   42.60
  -9  -1  -9  -65.59   53.29
   9   1   9  -18.00   16.20
   9   1   9    4.80   18.90
   9   1   9  -22.00   29.30
   9   1   9    2.50   11.40
   5  -2  -9   72.89   31.90
   5  -2  -9   95.59   43.70
   5  -2  -9   66.89   73.09
  -5   2   9   76.79   24.00
  -5   2   9   95.59   40.20
  -5   2   9   93.59   37.20
   4  -2  -9   -8.80   64.19
   4  -2  -9   49.50   20.20
   4  -2  -9  -42.50   39.60
   4  -2  -9   81.59   42.30
  -4   2   9    1.40   25.50
  -4   2   9   -3.70   12.70
   3  -2  -9  -11.70   40.90
   3  -2  -9  -14.70   12.90
   3  -2  -9    7.00   43.50
   3  -2  -9   -1.70   25.40
  -3   2   9   -0.80   13.80
  -3   2   9   -7.70    5.20
  -3   2   9   -4.90   10.30
  -3   2   9    9.60   16.80
  -3   2   9   12.60   11.70
   2  -2  -9   87.89   60.99
   2  -2  -9   53.29   38.00
   2  -2  -9  166.58   22.30
  -2   2   9  182.18   20.00
  -2   2   9  152.88   42.30
  -2   2   9  130.99   43.00
  -2   2   9  118.29   28.30
  -2   2   9  183.48   21.30
   1  -2  -9   81.69   38.60
   1  -2  -9   32.10    9.60
   1  -2  -9  -10.50   17.10
  -1   2   9    3.20   10.80
  -1   2   9   -5.10   12.70
  -1   2   9   20.50    6.60
   0  -2  -9  421.96   31.30
   0  -2  -9  318.47  116.69
   0  -2  -9  384.66   64.49
   0   2   9  451.15   30.20
   0   2   9  434.96   25.60
   0   2   9  391.66   42.70
   0   2   9  390.56   55.19
   0   2   9  418.76   28.30
  -1  -2  -9  185.08   81.89
  -1  -2  -9  205.38   52.49
   1   2   9  237.88   22.00
   1   2   9  237.28   32.90
   1   2   9  294.77   23.40
   1   2   9  252.87   20.50
   1   2   9  274.67   44.80
  -2  -2  -9  142.59   39.20
  -2  -2  -9   84.69   57.99
   2   2   9  181.78   20.20
   2   2   9  190.18   37.30
   2   2   9  160.78   15.40
   2   2   9  135.19   39.20
   2   2   9  156.58   17.20
  -3  -2  -9   18.80   29.60
  -3  -2  -9   12.70   30.80
  -3  -2  -9   38.70   17.80
   3   2   9   41.00   12.80
   3   2   9   23.50   13.40
   3   2   9    8.10   16.00
   3   2   9   28.10    7.40
   3   2   9   10.00    7.20
  -4  -2  -9   -0.10   25.90
  -4  -2  -9   79.09   23.90
  -4  -2  -9   39.10   47.90
  -4  -2  -9   40.20   44.10
   4   2   9   52.99   27.60
   4   2   9   79.99   16.30
   4   2   9   63.59   14.30
   4   2   9   87.99   30.90
   4   2   9  109.99   29.40
  -5  -2  -9  562.84   51.09
  -5  -2  -9  691.43  119.69
  -5  -2  -9  379.56  116.29
   5   2   9  510.95   40.10
   5   2   9  550.64   56.29
   5   2   9  491.15   37.00
   5   2   9  582.94   58.89
  -6  -2  -9  522.05   43.00
  -6  -2  -9  405.06  104.79
  -6  -2  -9  312.07   88.19
  -6  -2  -9  494.75  132.59
   6   2   9  474.85   38.40
   6   2   9  513.95   53.69
   6   2   9  452.15   40.80
   6   2   9  480.85   43.50
  -7  -2  -9  444.86  127.69
  -7  -2  -9  546.75  103.79
  -7  -2  -9  351.96   99.59
   7   2   9  494.65   54.79
   7   2   9  581.64   47.90
   7   2   9  523.35   49.80
   7   2   9  480.65   41.00
  -8  -2  -9  339.47   89.39
  -8  -2  -9  249.88   73.29
  -8  -2  -9  236.88   90.19
   8   2   9  202.48   39.50
   8   2   9  291.67   53.09
   8   2   9  249.58   39.20
   8   2   9  198.98   28.00
  -9  -2  -9   -8.40   48.80
  -9  -2  -9   86.09   50.49
  -9  -2  -9  113.09   54.89
  -9  -2  -9   58.79   36.20
   9   2   9   71.09   26.90
   9   2   9   59.89   30.90
   9   2   9   37.30   21.00
   4  -3  -9   10.80   22.40
   4  -3  -9   52.79   43.80
   4  -3  -9  108.59   50.89
   4  -3  -9  -24.60   52.89
  -4   3   9   58.29   29.80
  -4   3   9   43.60   26.70
  -4   3   9   49.60   18.30
   3  -3  -9   18.90   50.79
   3  -3  -9   89.69   32.50
   3  -3  -9   49.00   38.80
  -3   3   9   54.69   27.70
  -3   3   9   55.79   11.60
  -3   3   9   85.39   24.10
  -3   3   9  114.09   52.89
   2  -3  -9  186.98   64.19
   2  -3  -9  242.68   36.90
   2  -3  -9  102.09   73.29
   2  -3  -9   97.19   63.19
  -2   3   9  172.38   35.90
  -2   3   9  205.78   50.99
  -2   3   9  176.78   18.50
  -2   3   9  271.77   43.20
   1  -3  -9  253.07   71.79
   1  -3  -9  110.39   80.59
   1  -3  -9  101.29   48.90
   1  -3  -9  266.07   30.80
  -1   3   9  210.98   48.20
  -1   3   9  218.98   32.40
  -1   3   9  200.48   20.80
   0  -3  -9  230.98   96.99
   0  -3  -9  335.47   36.70
   0  -3  -9  456.45   71.79
   0   3   9  380.06   38.10
   0   3   9  421.36   32.80
   0   3   9  344.87   52.39
   0   3   9  369.66   28.30
   0   3   9  397.66   42.20
  -1  -3  -9  184.08   56.89
  -1  -3  -9  155.58   27.40
  -1  -3  -9   87.89   53.39
   1   3   9  160.68   23.60
   1   3   9  228.38   26.70
   1   3   9  158.08   39.50
   1   3   9  184.48   28.30
   1   3   9  150.18   18.80
  -2  -3  -9  112.89   59.39
  -2  -3  -9  145.99   45.50
   2   3   9  123.49   22.80
   2   3   9  135.99   36.30
   2   3   9  171.88   20.20
   2   3   9  178.38   26.60
   2   3   9  179.68   35.50
  -3  -3  -9   22.40   30.80
  -3  -3  -9   27.60   21.00
  -3  -3  -9    3.20   38.70
   3   3   9   55.99   16.90
   3   3   9   33.00   10.80
   3   3   9   37.80   10.90
   3   3   9   40.70   17.90
   3   3   9   14.70   17.80
  -4  -3  -9  -10.40   11.20
  -4  -3  -9   15.20   21.50
  -4  -3  -9   55.99   37.70
   4   3   9   -4.00    7.60
   4   3   9   30.40   16.70
   4   3   9    3.50    5.60
   4   3   9    0.90    6.10
  -5  -3  -9   73.49   53.09
  -5  -3  -9   11.50   27.20
  -5  -3  -9   10.10   40.10
  -5  -3  -9   21.70   18.00
   5   3   9   39.00   17.90
   5   3   9   42.80   15.60
   5   3   9   50.39   12.60
  -6  -3  -9  184.48   67.29
  -6  -3  -9  205.58   81.19
  -6  -3  -9  228.08   43.80
  -6  -3  -9  194.78   90.39
   6   3   9  163.88   34.50
   6   3   9  238.78   36.40
   6   3   9  216.48   25.30
   6   3   9  197.88   28.80
  -7  -3  -9  341.97   40.70
  -7  -3  -9  285.77   80.89
  -7  -3  -9  269.57   88.79
  -7  -3  -9  310.07   76.99
   7   3   9  373.96   46.90
   7   3   9  357.96   41.10
   7   3   9  311.37   39.60
   7   3   9  291.77   31.00
  -8  -3  -9  107.99   59.19
  -8  -3  -9   95.49   96.29
  -8  -3  -9  113.69   52.39
   8   3   9  157.78   32.00
   8   3   9  127.89   23.50
   8   3   9  255.77   72.89
   8   3   9  156.88   38.20
  -9  -3  -9  -58.29   33.80
  -9  -3  -9   41.60   28.80
  -9  -3  -9   56.79   55.69
   9   3   9  -10.80   14.10
   9   3   9   11.10    9.40
   9   3   9   23.70   19.00
   4  -4  -9   52.49   45.80
   4  -4  -9    4.30   25.30
   4  -4  -9   50.39   60.29
   4  -4  -9  -51.39   60.69
  -4   4   9   43.80   24.40
  -4   4   9   14.20   16.40
  -4   4   9   64.09   28.20
   3  -4  -9  163.58   38.10
   3  -4  -9   -7.10   58.49
   3  -4  -9  137.69   58.09
  -3   4   9  101.99   31.50
  -3   4   9  110.09   35.70
  -3   4   9   72.39   17.30
  -3   4   9   75.99   35.70
   2  -4  -9   67.39   50.59
   2  -4  -9  256.17   71.49
   2  -4  -9  143.29   82.69
  -2   4   9  246.48   35.30
  -2   4   9  156.28   47.00
  -2   4   9  178.78   44.00
  -2   4   9  193.98   22.80
   1  -4  -9  149.99   82.39
   1  -4  -9  118.19   52.49
   1  -4  -9  205.78   40.70
   1  -4  -9   65.39   55.49
  -1   4   9  248.28   52.19
  -1   4   9  167.38   21.80
  -1   4   9  245.08   36.90
   0  -4  -9   22.60   15.30
   0  -4  -9  -13.00   13.30
   0  -4  -9  -50.39   27.90
   0  -4  -9   -7.90   44.40
   0   4   9    3.80    5.90
   0   4   9   17.20   14.30
   0   4   9    7.70   10.30
  -1  -4  -9  145.09   67.09
  -1  -4  -9  126.19   47.00
  -1  -4  -9   42.50   38.80
  -1  -4  -9  110.19   26.10
   1   4   9  114.39   20.20
   1   4   9  131.29   35.50
   1   4   9   74.89   23.80
   1   4   9   97.69   26.10
  -2  -4  -9   30.40   41.80
  -2  -4  -9   21.40   26.60
  -2  -4  -9   14.50   34.60
   2   4   9   31.00   16.20
   2   4   9   18.40   13.70
   2   4   9   30.90   10.70
   2   4   9   30.30   11.40
  -3  -4  -9  117.19   37.60
  -3  -4  -9  140.99   63.19
   3   4   9  134.49   28.30
   3   4   9  116.99   23.90
   3   4   9  126.09   31.80
   3   4   9  124.29   21.80
  -4  -4  -9  643.14   45.50
  -4  -4  -9  600.74   67.79
  -4  -4  -9  359.96   77.39
  -4  -4  -9  523.55  138.09
  -4  -4  -9  552.14  104.89
   4   4   9  588.24   50.49
   4   4   9  572.84   46.80
   4   4   9  580.74   56.19
   4   4   9  594.04   41.90
  -5  -4  -9  208.78   25.00
  -5  -4  -9  191.38   74.09
  -5  -4  -9  182.68   44.60
  -5  -4  -9  193.78   77.69
  -5  -4  -9  133.59   46.60
   5   4   9  179.08   36.00
   5   4   9  196.08   35.70
   5   4   9  164.28   22.70
  -6  -4  -9  141.29   53.09
  -6  -4  -9  143.79   40.30
  -6  -4  -9   81.09   57.99
  -6  -4  -9  133.29   45.90
  -6  -4  -9  143.59   23.80
   6   4   9  116.09   26.80
   6   4   9  110.49   21.40
   6   4   9  144.39   33.60
  -7  -4  -9   69.19   29.90
  -7  -4  -9   47.30   50.89
  -7  -4  -9   -0.20   32.20
  -7  -4  -9   31.00   45.80
   7   4   9   46.70   20.90
   7   4   9   80.49   23.80
   7   4   9   71.09   17.10
   7   4   9   59.29   22.20
  -8  -4  -9    9.90   69.39
  -8  -4  -9   67.19   42.40
  -8  -4  -9   60.69   45.20
   8   4   9   93.19   24.60
   8   4   9   57.59   24.80
   8   4   9   65.89   13.70
   8   4   9   33.50   19.00
  -9  -4  -9   47.80   42.60
  -9  -4  -9  -55.99   39.00
  -9  -4  -9   24.40   52.79
   9   4   9    5.60    9.80
   9   4   9   23.10   22.40
   9   4   9   -7.90   14.10
   9   4   9   72.59   21.80
   3  -5  -9  -33.30   55.89
   3  -5  -9  -26.20   27.90
   3  -5  -9   30.30   71.79
   3  -5  -9   14.40   19.50
  -3   5   9   57.79   23.40
  -3   5   9   19.50   25.80
  -3   5   9   22.60   17.90
  -3   5   9   85.69   30.60
   2  -5  -9   53.39   52.49
   2  -5  -9  105.79   44.80
   2  -5  -9   93.39   33.80
   2  -5  -9   39.00   49.99
  -2   5   9  133.29   37.80
  -2   5   9  145.69   38.80
  -2   5   9   58.49   19.70
   1  -5  -9  130.79   58.29
   1  -5  -9  187.58   42.90
   1  -5  -9   37.60   46.80
   1  -5  -9  142.79   74.89
  -1   5   9   89.99   21.10
  -1   5   9  185.48   45.60
  -1   5   9  136.79   33.40
   0  -5  -9   20.20   29.70
   0  -5  -9   48.60   56.89
   0  -5  -9  112.39   30.70
   0   5   9  136.39   31.40
   0   5   9  111.79   32.20
   0   5   9   95.09   20.60
  -1  -5  -9   33.20   49.90
  -1  -5  -9   33.80   22.00
  -1  -5  -9    2.40   11.20
  -1  -5  -9  -35.00   25.10
   1   5   9  -10.90   12.30
   1   5   9   16.60    9.90
   1   5   9   -7.50    6.20
   1   5   9    9.00   12.20
  -2  -5  -9  131.19   31.70
  -2  -5  -9  154.38   54.69
  -2  -5  -9   80.99   64.89
  -2  -5  -9  127.19   53.59
   2   5   9  106.99   30.20
   2   5   9   82.49   24.70
   2   5   9  134.19   30.20
   2   5   9  146.59   25.90
  -3  -5  -9  385.96   64.39
  -3  -5  -9  380.26   47.10
  -3  -5  -9  419.86  118.39
  -3  -5  -9  281.27   83.69
   3   5   9  492.65   48.40
   3   5   9  401.26   65.79
   3   5   9  417.56   35.80
   3   5   9  416.36   42.40
  -4  -5  -9 1088.69  140.19
  -4  -5  -9 1092.39  161.98
  -4  -5  -9 1095.29  103.39
   4   5   9 1185.78   64.49
   4   5   9 1150.18   72.39
   4   5   9 1185.78   77.39
   4   5   9 1095.59   73.09
  -5  -5  -9  854.11   88.09
  -5  -5  -9  804.72  121.99
  -5  -5  -9  954.30  143.59
   5   5   9  788.42   63.29
   5   5   9  877.01   62.19
   5   5   9  776.32   51.79
  -6  -5  -9  120.69   61.09
  -6  -5  -9  150.68   40.70
  -6  -5  -9  157.68   76.09
   6   5   9  155.48   26.80
   6   5   9  179.58   35.50
   6   5   9  166.68   26.60
  -7  -5  -9   77.09   47.80
  -7  -5  -9   28.60   22.40
  -7  -5  -9  157.58   61.89
   7   5   9   69.29   22.20
   7   5   9   61.49   23.50
   7   5   9   55.59   15.30
   7   5   9   90.69   28.90
  -8  -5  -9   43.10   46.60
  -8  -5  -9   -9.90   20.30
  -8  -5  -9   12.00   28.20
   8   5   9   30.00   20.50
   8   5   9   18.30   16.80
   8   5   9   19.80    8.00
   8   5   9   -4.50   13.00
  -9  -5  -9   19.00   38.10
  -9  -5  -9   39.20   48.50
   9   5   9   44.60   14.60
   9   5   9   42.00   26.20
   9   5   9   50.19   23.00
   3  -6  -9   84.99   26.80
   3  -6  -9  -57.59   66.09
   3  -6  -9    4.60   36.50
   3  -6  -9  -85.29   75.69
  -3   6   9   15.20   22.10
  -3   6   9   17.10   16.90
  -3   6   9  -27.00   15.90
   2  -6  -9   63.59   30.90
   2  -6  -9  -11.80   22.70
   2  -6  -9  -32.60   71.09
   2  -6  -9  -18.40   51.49
  -2   6   9  -19.50   12.00
  -2   6   9   18.30   19.40
   1  -6  -9   37.50   36.90
   1  -6  -9   97.19   54.19
   1  -6  -9   60.09   77.49
   1  -6  -9  132.39   41.70
  -1   6   9  128.89   33.70
  -1   6   9  147.59   37.00
  -1   6   9   89.99   24.00
   0  -6  -9   18.50   45.90
   0  -6  -9   18.40   35.00
   0  -6  -9   37.60   37.30
   0  -6  -9   42.30   27.90
   0  -6  -9   45.30   25.60
   0   6   9   61.39   23.10
   0   6   9   15.70   14.80
   0   6   9   62.19   23.90
  -1  -6  -9   11.60   19.30
  -1  -6  -9   79.19   61.59
  -1  -6  -9   12.60   31.50
  -1  -6  -9   18.00   32.90
  -1  -6  -9   43.30   15.80
   1   6   9   23.00   18.30
   1   6   9   11.70   16.20
   1   6   9   22.60   13.00
   1   6   9   65.39   24.80
  -2  -6  -9   -3.60   27.60
  -2  -6  -9   49.00   33.20
  -2  -6  -9  -26.40   48.60
  -2  -6  -9   11.50   19.10
  -2  -6  -9   28.50   13.30
   2   6   9    0.00    9.20
   2   6   9   23.10   14.60
   2   6   9   39.50   20.50
   2   6   9   43.40   23.20
  -3  -6  -9  -32.00   25.70
  -3  -6  -9   40.50   28.80
  -3  -6  -9   28.50   40.50
  -3  -6  -9    6.60   16.10
   3   6   9   -7.80    9.90
   3   6   9   13.70   10.80
   3   6   9    1.80   13.50
  -4  -6  -9  139.59   65.99
  -4  -6  -9   88.19   41.90
  -4  -6  -9   61.59   43.40
   4   6   9   64.59   15.30
   4   6   9   63.49   23.80
   4   6   9  103.89   25.10
  -5  -6  -9   98.49   34.50
  -5  -6  -9   97.19   56.79
  -5  -6  -9   99.79   47.10
   5   6   9   65.29   19.40
  -6  -6  -9  250.77   75.89
  -6  -6  -9  236.58   83.59
  -6  -6  -9  242.38   59.39
   6   6   9  188.18   28.60
   6   6   9  163.28   27.50
   6   6   9  184.28   37.60
  -7  -6  -9   41.20   35.80
  -7  -6  -9   28.10   33.00
  -7  -6  -9   46.80   28.90
   7   6   9    4.70   16.10
   7   6   9   17.80   11.10
   7   6   9   12.60   14.50
  -8  -6  -9  -31.90   22.80
  -8  -6  -9   45.80   40.50
  -8  -6  -9   -5.90   23.50
   8   6   9   23.70   11.30
   8   6   9   16.10   17.10
   8   6   9   27.90   20.00
   8   6   9   51.19   19.20
  -9  -6  -9   -4.40   38.10
  -9  -6  -9   56.09   38.50
  -9  -6  -9  -10.70   20.80
   9   6   9   13.60   11.60
   9   6   9  -17.20   22.40
   9   6   9   -0.20   12.90
   2  -7  -9   40.20   35.30
   2  -7  -9   31.10   72.19
   2  -7  -9  -15.20   26.80
  -2   7   9   29.40   23.90
  -2   7   9   40.80   24.00
  -2   7   9   -5.60   17.60
   1  -7  -9   18.50   27.60
  -1   7   9    0.00   16.50
  -1   7   9   29.40   18.20
  -1   7   9  -20.60   12.20
   0  -7  -9    1.60   29.20
   0  -7  -9   37.50   26.20
   0  -7  -9   49.00   58.29
   0   7   9   67.69   25.30
   0   7   9   49.60   22.00
   0   7   9   35.80   18.40
  -1  -7  -9  528.05  138.39
  -1  -7  -9  519.65  109.19
  -1  -7  -9  580.94   69.19
   1   7   9  543.25   57.79
   1   7   9  475.45   56.79
   1   7   9  413.66   60.69
   1   7   9  481.75   48.10
  -2  -7  -9  212.18   68.59
  -2  -7  -9  117.69   70.39
  -2  -7  -9  189.38   44.00
  -2  -7  -9  115.09   20.40
   2   7   9   83.19   21.50
   2   7   9  136.59   34.20
   2   7   9  101.19   28.80
   2   7   9   98.09   32.70
  -3  -7  -9  216.78   86.29
  -3  -7  -9  232.88   47.80
  -3  -7  -9  213.28   62.89
  -3  -7  -9  264.07   34.90
  -3  -7  -9  232.28   49.60
   3   7   9  197.98   34.40
   3   7   9   93.49   57.59
   3   7   9  203.08   43.20
   3   7   9  241.88   35.90
   3   7   9  227.48   31.10
  -4  -7  -9  202.18   81.29
  -4  -7  -9  208.88   53.39
  -4  -7  -9  309.17   68.99
   4   7   9  178.88   31.40
   4   7   9  156.88   41.00
   4   7   9  191.88   36.30
  -5  -7  -9   35.00   42.50
  -5  -7  -9   16.80   29.80
  -5  -7  -9   23.40   32.80
   5   7   9   52.69   15.70
   5   7   9   17.50   16.60
   5   7   9   17.50   11.40
  -6  -7  -9   68.59   44.60
  -6  -7  -9   77.49   31.70
  -6  -7  -9  100.79   50.59
   6   7   9  114.29   25.30
   6   7   9   59.09   16.20
   6   7   9   72.29   27.40
  -7  -7  -9  -34.50   41.30
  -7  -7  -9   89.79   46.20
  -7  -7  -9   73.99   32.20
   7   7   9   43.30   14.10
   7   7   9   51.99   17.60
   7   7   9   74.89   27.10
  -8  -7  -9  -41.00   25.80
  -8  -7  -9  -28.50   20.10
  -8  -7  -9  -27.00   26.20
   8   7   9    9.70   16.30
   8   7   9   25.70   15.40
   8   7   9  -26.10   13.90
  -9  -7  -9   66.59   34.70
  -9  -7  -9   71.89   48.50
  -9  -7  -9  -32.30   45.80
   9   7   9   -3.90   17.40
   9   7   9   10.70   23.50
   9   7   9   24.40   13.60
   1  -8  -9   66.39   61.69
   1  -8  -9   53.59   41.70
   1  -8  -9   70.89   40.50
  -1   8   9   26.70   24.70
  -1   8   9   70.29   30.10
  -1   8   9   25.00   21.30
   0  -8  -9  -58.39   62.39
   0  -8  -9   99.89   40.70
   0  -8  -9   75.79   33.00
   0   8   9   41.10   24.70
   0   8   9   32.50   19.70
   0   8   9   55.49   25.20
  -1  -8  -9  278.37   80.19
  -1  -8  -9  170.98   45.50
  -1  -8  -9  299.47   74.39
   1   8   9  207.08   49.20
   1   8   9  293.47   38.10
   1   8   9  211.18   50.49
   1   8   9  251.67   38.10
  -2  -8  -9  464.15  132.49
  -2  -8  -9  402.66   60.69
  -2  -8  -9  378.26  114.39
   2   8   9  379.06   56.19
   2   8   9  402.86   50.39
   2   8   9  447.56   46.90
   2   8   9  450.15   44.90
  -3  -8  -9  542.45  133.29
  -3  -8  -9  537.45   79.79
  -3  -8  -9  652.23  121.19
  -3  -8  -9  610.04   77.39
   3   8   9  705.23   50.39
   3   8   9  491.15   66.19
   3   8   9  647.24   54.69
   3   8   9  572.34   59.89
  -4  -8  -9  130.09   42.50
  -4  -8  -9  157.78   69.49
  -4  -8  -9  148.49   57.69
  -4  -8  -9   81.29   29.50
   4   8   9  107.49   41.30
   4   8   9  160.28   35.00
   4   8   9   96.79   23.70
   4   8   9  102.59   49.20
  -5  -8  -9  -21.20   34.60
  -5  -8  -9   15.10   23.10
  -5  -8  -9   -6.90   18.10
   5   8   9    3.20    9.40
   5   8   9    6.60   14.20
   5   8   9   23.40   12.80
  -6  -8  -9    3.80   29.60
  -6  -8  -9   29.60   30.40
  -6  -8  -9   32.70   29.20
   6   8   9   32.80   14.00
   6   8   9   20.40   11.10
   6   8   9    8.00   14.80
  -7  -8  -9  -23.50   29.40
  -7  -8  -9  -35.30   23.60
  -7  -8  -9  -49.60   27.20
   7   8   9    1.10    8.90
   7   8   9   23.90   17.80
   7   8   9    6.30   11.30
  -8  -8  -9  218.88   58.19
  -8  -8  -9  150.58   70.59
  -8  -8  -9  101.89   54.89
   8   8   9  133.79   37.70
   8   8   9  173.48   29.60
   8   8   9  136.49   43.10
  -9  -8  -9   70.39   51.49
  -9  -8  -9    5.90   43.20
  -9  -8  -9   25.70   33.40
   9   8   9   17.30   26.00
   9   8   9   21.30   14.60
   9   8   9   40.50   11.50
   0  -9  -9   35.20   22.00
   0  -9  -9  -50.59   49.30
   0  -9  -9  -16.40   35.70
   0   9   9   15.30   14.80
   0   9   9  -10.80   15.50
   0   9   9   18.90   23.60
  -1  -9  -9   46.50   56.49
  -1  -9  -9   73.19   48.40
  -1  -9  -9   59.59   58.39
   1   9   9   -7.90   20.30
   1   9   9   45.30   43.30
   1   9   9   40.00   20.50
   1   9   9   30.90   18.70
  -2  -9  -9   18.10   21.00
  -2  -9  -9   29.90   28.50
   2   9   9  -19.80   16.50
   2   9   9   26.80   23.80
   2   9   9   27.70   14.50
  -3  -9  -9    0.00   35.80
  -3  -9  -9   57.19   23.00
  -3  -9  -9    2.20   34.60
   3   9   9   18.40   21.60
   3   9   9   22.10   13.10
   3   9   9    6.90   10.30
   3   9   9   -8.10   23.30
  -4  -9  -9   90.49   34.10
  -4  -9  -9   89.19   44.00
  -4  -9  -9  -22.80   78.39
   4   9   9   30.90   18.70
   4   9   9   41.00   27.20
   4   9   9   54.99   22.20
  -5  -9  -9   12.20   39.70
  -5  -9  -9   18.70   31.30
  -5  -9  -9    9.80   18.60
   5   9   9   26.00   14.40
   5   9   9    7.70   20.50
   5   9   9   19.80   11.60
  -6  -9  -9   -1.70   23.20
  -6  -9  -9    2.50   29.20
  -6  -9  -9   48.80   45.40
   6   9   9   14.30    9.10
   6   9   9    2.20   13.80
   6   9   9   22.60   13.50
  -7  -9  -9  -35.90   25.10
  -7  -9  -9  -12.40   27.80
  -7  -9  -9   15.80   37.60
   7   9   9   28.50   14.60
   7   9   9  -22.10   17.30
   7   9   9   24.40   13.60
  -8  -9  -9   -2.70   31.20
  -8  -9  -9   51.99   29.10
  -8  -9  -9  -19.30   25.80
   8   9   9   42.20   16.30
   8   9   9    4.40   10.30
   8   9   9  -25.40   17.20
   8   9   9    1.50   26.90
  -1 -10  -9   74.19   38.50
  -1 -10  -9  -46.70   34.30
  -1 -10  -9  -68.19   58.19
   1  10   9   95.79   29.30
   1  10   9   68.89   27.30
   1  10   9   41.10   30.90
   1  10   9   42.50   32.90
  -2 -10  -9   20.90   59.69
  -2 -10  -9   73.89   52.19
  -2 -10  -9  112.19   35.80
   2  10   9  100.19   35.50
   2  10   9  130.19   41.50
   2  10   9   96.19   28.50
  -3 -10  -9    9.40   45.00
  -3 -10  -9   44.40   26.20
  -3 -10  -9  -50.59   26.20
   3  10   9   40.90   13.10
   3  10   9  -11.10   19.60
   3  10   9   32.60   26.50
  -4 -10  -9    7.60   28.20
  -4 -10  -9  -11.80   25.70
  -4 -10  -9  -17.40   37.20
   4  10   9    6.40   18.30
   4  10   9    3.90   15.10
   4  10   9   27.40   20.80
  -5 -10  -9   42.30   26.50
  -5 -10  -9    7.30   45.40
   5  10   9   -4.60   14.10
   5  10   9  -17.40    8.80
   5  10   9  -35.20   18.40
  -6 -10  -9  -43.50   37.10
  -6 -10  -9  -15.20   20.60
  -6 -10  -9   59.59   36.60
   6  10   9  -37.70   17.50
   6  10   9   20.00   12.10
   6  10   9   16.40   15.10
  -7 -10  -9  -19.10   32.90
  -7 -10  -9   74.39   40.80
  -7 -10  -9  -39.60   23.10
   7  10   9    6.30   23.80
   7  10   9   38.60   13.90
   7  10   9   44.30   15.30
  -3 -11  -9   35.30   54.59
  -3 -11  -9  -28.40   27.00
  -3 -11  -9  -30.90   20.50
   3  11   9  -10.40   10.60
   3  11   9   -0.60   20.50
   3  11   9  -16.30   23.80
  -4 -11  -9   -6.90   48.00
  -4 -11  -9   83.89   41.20
   4  11   9   -1.30   15.10
   4  11   9  -12.40   16.80
   4  11   9   27.70   27.20
  -5 -11  -9   -2.00   47.90
  -5 -11  -9  -23.90   26.90
   5  11   9    6.80   13.80
   5  11   9   39.30   19.40
   5  11   9   27.20   18.80
  -6 -11  -9   83.29   52.59
  -6 -11  -9   33.80   41.10
   6  11   9   32.00   27.60
   6  11   9   98.39   31.80
   6  11   9   78.89   22.40
   1   8 -10   68.79   38.50
   1   8 -10  -38.30   72.49
   1   8 -10  147.59   75.79
   1   8 -10  -26.60   45.10
  -1  -8  10   -9.30   29.80
  -1  -8  10   25.80   29.00
  -1  -8  10   -0.60   20.70
   0   8 -10   78.19   58.69
   0   8 -10   62.49   55.59
   0   8 -10  212.38  104.49
   0  -8  10   80.09   32.80
   0  -8  10  131.19   42.30
   0  -8  10   46.90   35.70
  -1   8 -10   23.60   55.49
  -1   8 -10  -23.80   69.69
  -1   8 -10   24.80   24.00
  -1   8 -10   68.59   53.19
   1  -8  10  -20.40   34.10
   1  -8  10   16.90   20.00
   1  -8  10   -9.80   15.70
   3   7 -10   -5.30   35.40
   3   7 -10   26.50   65.19
  -3  -7  10   -3.80   18.80
  -3  -7  10    4.10   36.90
  -3  -7  10   27.50   33.40
   2   7 -10   20.00   49.30
   2   7 -10   88.79   33.00
   2   7 -10   58.19   30.90
   2   7 -10  -28.90   38.70
  -2  -7  10   62.49   37.10
  -2  -7  10  -23.00   18.50
  -2  -7  10    5.10   20.80
   1   7 -10   70.09   64.79
   1   7 -10   -5.40   52.89
  -1  -7  10   34.80   22.90
  -1  -7  10   57.99   40.60
  -1  -7  10   83.29   39.90
   0   7 -10   98.39   28.10
   0   7 -10  -23.70   54.89
   0   7 -10   48.80   46.90
   0   7 -10   61.69   47.30
   0   7 -10   84.49   27.80
   0  -7  10   68.69   40.20
   0  -7  10   13.20   20.90
  -1   7 -10   82.09   60.39
  -1   7 -10  -40.70   52.19
  -1   7 -10   95.49   27.90
   1  -7  10  147.19   43.30
   1  -7  10  109.69   56.79
   1  -7  10   20.60   36.90
   1  -7  10   87.79   29.20
  -2   7 -10  123.29   70.39
  -2   7 -10   71.59   46.50
   2  -7  10  154.28   47.60
   2  -7  10  131.09   32.00
   2  -7  10  106.09   39.20
  -3   7 -10  -34.40   42.10
  -3   7 -10  -45.30   46.10
  -3   7 -10   -3.40   72.39
  -3   7 -10   60.79   46.50
   3  -7  10   32.90   23.40
   3  -7  10   57.39   19.10
   3  -7  10   83.99   37.20
   3   6 -10    9.20   48.80
   3   6 -10  -16.00   30.80
   3   6 -10   31.40   40.80
   3   6 -10   58.79   20.20
  -3  -6  10   38.40   32.60
  -3  -6  10   26.60   21.10
  -3  -6  10   79.29   35.70
  -3  -6  10    7.10   22.10
   2   6 -10    8.90   46.80
   2   6 -10  -65.89   43.10
   2   6 -10   19.70   26.90
  -2  -6  10  -18.80   21.90
  -2  -6  10   -9.60   15.70
  -2  -6  10    5.30   30.20
   1   6 -10   70.69   28.90
   1   6 -10  -21.70   74.79
   1   6 -10    0.60   46.70
   1   6 -10   31.50   49.80
  -1  -6  10   14.60   27.50
  -1  -6  10   42.00   20.00
  -1  -6  10   20.10   22.00
   0   6 -10  -11.50   39.20
   0   6 -10   76.89   28.50
   0   6 -10    2.60   45.10
   0   6 -10  -15.10   24.70
   0  -6  10   18.40   18.40
   0  -6  10   -5.90   30.80
  -1   6 -10   -8.80   46.00
  -1   6 -10    2.90   39.20
  -1   6 -10   -9.40   43.60
   1  -6  10    8.30   30.40
   1  -6  10   35.90   17.80
   1  -6  10   18.70   15.50
   1  -6  10   53.89   34.60
  -2   6 -10  -59.79   36.70
  -2   6 -10  -61.99   43.40
  -2   6 -10  -16.50   36.30
   2  -6  10   -3.10   27.20
   2  -6  10   -8.30   15.20
   2  -6  10  -16.80   12.70
  -3   6 -10  -24.00   44.10
  -3   6 -10   44.00   58.89
  -3   6 -10   20.90   66.69
   3  -6  10   45.30   20.40
   3  -6  10   52.89   25.60
   3  -6  10    5.10   27.70
  -4   6 -10   16.10   51.19
  -4   6 -10   66.29   38.50
  -4   6 -10   -2.80   56.29
   4  -6  10  -25.50   32.10
   4  -6  10   43.90   27.70
   4  -6  10   39.00   17.70
   4   5 -10   19.90   47.10
   4   5 -10   15.30   54.49
  -4  -5  10   58.79   34.40
  -4  -5  10   78.29   45.00
  -4  -5  10   60.69   33.30
   3   5 -10   14.80   29.70
   3   5 -10   44.50   15.00
   3   5 -10  -29.40   46.10
   3   5 -10   51.69   51.99
  -3  -5  10   27.10   17.90
  -3  -5  10   19.40   24.90
  -3  -5  10   85.49   46.70
   2   5 -10   59.89   55.99
   2   5 -10   58.29   36.80
   2   5 -10  180.58   69.59
  -2  -5  10   92.49   42.50
  -2  -5  10  108.39   23.60
  -2  -5  10  102.29   34.60
   1   5 -10   39.90   53.19
   1   5 -10  179.28   43.70
   1   5 -10   39.10   63.69
  -1  -5  10  102.39   24.80
  -1  -5  10   99.79   34.90
  -1  -5  10   93.29   45.60
   0   5 -10   39.40   52.79
   0   5 -10  -43.10   44.90
   0   5 -10   75.99   43.80
   0  -5  10  170.08   59.09
   0  -5  10   77.59   22.30
   0  -5  10   70.69   38.00
  -1   5 -10   36.60   47.80
  -1   5 -10   86.09   33.20
  -1   5 -10   13.00   40.70
   1  -5  10   81.29   41.10
   1  -5  10   21.10   28.90
   1  -5  10   38.70   18.60
  -2   5 -10   89.39   69.39
  -2   5 -10  193.68   85.19
  -2   5 -10   90.49   54.19
   2  -5  10  361.36   56.59
   2  -5  10  250.07   42.60
   2  -5  10  177.18   65.69
   2  -5  10  285.27   48.10
  -3   5 -10  163.48   89.39
  -3   5 -10  134.59   76.69
  -3   5 -10   86.29   61.09
   3  -5  10  320.17   72.69
  -4   5 -10  423.46  121.09
   4  -5  10  460.05   51.79
   4  -5  10  526.25   75.39
   4  -5  10  511.65   70.79
  -5   5 -10   91.29   56.69
  -5   5 -10   36.90   55.79
  -5   5 -10   11.60   47.70
  -5   5 -10   48.70   45.90
   5  -5  10   80.09   38.10
   5  -5  10   70.19   26.20
   5  -5  10   99.99   33.80
   4   4 -10  -59.19   53.39
   4   4 -10  -30.80   35.20
   4   4 -10   31.90   31.10
  -4  -4  10  -25.80   25.70
  -4  -4  10   -4.50   20.40
  -4  -4  10    5.00   17.20
   3   4 -10   -1.80   46.50
   3   4 -10  -32.10   41.20
   3   4 -10   32.90   36.70
  -3  -4  10   47.30   38.10
  -3  -4  10   54.59   29.20
  -3  -4  10   68.09   38.40
   2   4 -10  213.28   65.79
   2   4 -10   85.69   56.89
   2   4 -10  150.08   53.69
  -2  -4  10  168.08   63.29
  -2  -4  10   94.39   34.10
  -2  -4  10  188.58   56.59
  -2  -4  10  177.08   27.00
   1   4 -10   32.70   51.69
   1   4 -10   31.50   47.90
   1   4 -10   26.40   39.00
  -1  -4  10   62.49   45.20
  -1  -4  10   13.80   19.90
  -1  -4  10   28.10   15.20
   0   4 -10   97.79   68.39
   0   4 -10   54.09   30.70
   0   4 -10   72.49   40.30
   0  -4  10  117.59   48.80
   0  -4  10  211.88   53.19
  -1   4 -10   20.90   26.10
  -1   4 -10   34.30   45.30
  -1   4 -10   93.99   20.80
  -1   4 -10   23.80   41.30
   1  -4  10   92.99   51.49
   1  -4  10   70.09   21.00
   1  -4  10   51.89   22.60
  -2   4 -10   40.70   35.40
  -2   4 -10  136.79   72.79
   2  -4  10  106.39   22.90
   2  -4  10  154.38   53.29
   2  -4  10  151.58   30.50
   2  -4  10   64.99   23.30
  -3   4 -10   96.39   67.59
  -3   4 -10   96.09   84.89
   3  -4  10  142.59   41.00
   3  -4  10  260.57   47.60
   3  -4  10  207.98   37.70
  -4   4 -10   -7.40   31.00
  -4   4 -10   -5.90   54.59
  -4   4 -10   63.09   49.00
   4  -4  10   30.90   29.00
   4  -4  10   47.80   25.60
   4  -4  10   52.79   18.00
  -5   4 -10  -26.80   47.70
  -5   4 -10    1.10   42.80
  -5   4 -10   76.69   62.99
   5  -4  10   12.20   19.60
   5  -4  10    3.50   27.40
   5  -4  10    2.80   14.20
  -6   4 -10  -21.60   42.40
  -6   4 -10  -13.30   55.19
  -6   4 -10   19.20   43.30
  -6   4 -10   27.90   42.50
   6  -4  10   22.30   15.50
   6  -4  10   18.50   24.80
   6  -4  10   39.70   26.50
   4   3 -10   17.80   61.89
   4   3 -10   83.79   50.09
   4   3 -10  -46.90   58.49
  -4  -3  10   34.20   25.60
  -4  -3  10   59.39   32.50
  -4  -3  10   72.59   42.20
   3   3 -10   24.60   39.10
   3   3 -10   35.40   32.30
   3   3 -10  -23.70   44.00
  -3  -3  10   24.90   25.10
  -3  -3  10   13.50   31.90
  -3  -3  10   13.00   12.70
   2   3 -10   37.40   31.70
   2   3 -10   20.20   30.20
  -2  -3  10   -8.50   15.90
  -2  -3  10   26.30   32.70
  -2  -3  10    3.20   26.30
  -2  -3  10   11.60    9.90
   1   3 -10   31.90   36.00
   1   3 -10   41.90   45.40
   1   3 -10   57.29   35.20
  -1  -3  10   28.10   30.10
  -1  -3  10   20.30   10.90
  -1  -3  10   48.20   26.40
   0   3 -10  129.79   67.29
   0   3 -10   91.89   60.79
   0   3 -10  185.18   42.40
   0  -3  10  174.58   56.89
   0  -3  10  175.08   31.40
   0  -3  10  111.79   32.40
  -1   3 -10   66.49   56.09
  -1   3 -10  121.09   55.09
  -1   3 -10   77.49   60.99
  -1   3 -10  165.38   42.80
  -1   3 -10  226.38   31.10
   1  -3  10  104.99   50.39
   1  -3  10  186.88   30.10
   1  -3  10  144.19   38.80
  -2   3 -10   67.69   54.29
  -2   3 -10   75.29   45.80
  -2   3 -10   42.60   40.70
   2  -3  10  102.59   47.60
   2  -3  10  113.39   38.40
   2  -3  10   91.99   21.40
  -3   3 -10  -27.40   31.80
  -3   3 -10  -35.30   43.80
  -3   3 -10   21.70    8.50
   3  -3  10   -9.80    7.10
   3  -3  10   -2.10   15.60
   3  -3  10   -5.10    8.30
   3  -3  10   12.40   19.30
  -4   3 -10   29.60   43.90
  -4   3 -10  -27.20   33.60
  -4   3 -10  -38.80   42.00
   4  -3  10    2.30    8.50
   4  -3  10   -3.50   13.10
   4  -3  10    0.10   17.30
  -5   3 -10   33.40   57.09
  -5   3 -10  -51.89   37.00
  -5   3 -10   38.60   51.49
   5  -3  10   11.40   26.90
   5  -3  10    2.90   16.00
   5  -3  10    2.40    9.60
  -6   3 -10   -5.00   49.80
  -6   3 -10   41.10   54.69
  -6   3 -10   12.30   46.90
   6  -3  10   14.50   10.00
   6  -3  10    2.20   20.60
   6  -3  10    4.10   23.20
  -7   3 -10  -11.00   38.40
  -7   3 -10   36.00   37.00
  -7   3 -10  -74.39   44.10
  -7   3 -10   29.80   51.69
   7  -3  10   33.40   23.80
   7  -3  10   27.60   12.90
   7  -3  10   27.50   28.10
   5   2 -10   83.49   60.39
   5   2 -10  -17.50   48.30
   5   2 -10  -33.70   32.90
  -5  -2  10    7.00   24.10
  -5  -2  10   53.99   31.40
   4   2 -10   54.29   69.59
   4   2 -10  105.59   48.70
   4   2 -10   31.70   74.99
  -4  -2  10   65.19   46.60
  -4  -2  10   74.39   26.80
  -4  -2  10   61.29   27.40
   3   2 -10  -24.70   49.50
   3   2 -10   -8.30   35.30
   3   2 -10   78.39   32.60
  -3  -2  10  117.99   47.20
  -3  -2  10   78.69   30.10
  -3  -2  10   40.90   21.20
   2   2 -10   62.79   15.80
   2   2 -10   54.99   54.99
   2   2 -10   77.89   53.39
   2   2 -10   22.20   31.40
  -2  -2  10  123.09   38.80
  -2  -2  10  132.79   46.00
  -2  -2  10   73.69   31.00
  -2  -2  10   69.69   13.60
   1   2 -10   49.99   50.59
   1   2 -10   22.40   32.00
   1   2 -10   -8.70   40.00
  -1  -2  10   75.09   16.20
  -1  -2  10   66.99   35.80
  -1  -2  10   99.99   28.40
   0   2 -10  230.08   96.89
   0   2 -10  375.06   57.99
   0  -2  10  381.86   51.89
   0  -2  10  364.96   79.19
   0  -2  10  385.06   32.70
  -1   2 -10  250.67   89.39
  -1   2 -10  211.48   87.79
   1  -2  10  367.26   33.40
   1  -2  10  360.26   32.80
   1  -2  10  396.96   51.29
   1  -2  10  263.47   69.99
  -2   2 -10  334.07   27.50
  -2   2 -10  160.98   73.69
  -2   2 -10  264.07  104.69
   2  -2  10  341.67   52.49
   2  -2  10  383.86   34.10
   2  -2  10  386.86   84.19
  -3   2 -10   71.49   56.09
  -3   2 -10  134.99   74.29
  -3   2 -10  164.18   88.39
   3  -2  10  146.89   27.50
   3  -2  10  208.48   50.79
   3  -2  10  211.78   27.40
   3  -2  10  164.88   56.19
  -4   2 -10   34.70   45.50
  -4   2 -10   19.90   32.50
  -4   2 -10    1.10   26.60
   4  -2  10   23.70   17.10
   4  -2  10   12.80   16.10
   4  -2  10   -0.80    6.10
  -5   2 -10  -30.70   33.80
  -5   2 -10    8.60   43.60
  -5   2 -10   -4.20   46.00
   5  -2  10   21.60    9.00
   5  -2  10   20.20   25.50
   5  -2  10   28.50   22.50
  -6   2 -10  -48.90   36.00
  -6   2 -10  -14.60   36.50
  -6   2 -10   14.20   42.30
   6  -2  10  -11.00   16.80
   6  -2  10   17.50   11.20
   6  -2  10    0.90   17.30
  -7   2 -10  109.39   45.40
  -7   2 -10   90.89   60.89
  -7   2 -10  -14.30   46.00
   7  -2  10   23.20   20.80
   7  -2  10   44.00   16.40
   7  -2  10   27.80   25.70
   5   1 -10   14.20   53.39
   5   1 -10   81.69   49.00
  -5  -1  10   29.60   20.60
   4   1 -10   16.00   37.20
   4   1 -10   43.70   57.19
   4   1 -10  -50.29   39.80
  -4  -1  10   53.89   24.50
  -4  -1  10    3.60   27.90
  -4  -1  10   44.90   34.20
   3   1 -10   27.80   42.80
   3   1 -10    0.80   43.20
   3   1 -10   79.29   39.10
  -3  -1  10   63.79   35.10
  -3  -1  10   51.39   20.90
  -3  -1  10   78.19   36.30
   2   1 -10   49.80   12.70
   2   1 -10   57.99   48.90
   2   1 -10   -2.50   33.90
   2   1 -10   34.20   30.00
  -2  -1  10   41.30   10.20
  -2  -1  10   52.29   28.00
  -2  -1  10  105.69   42.70
  -2  -1  10   53.69   18.30
   1   1 -10  117.49   44.00
   1   1 -10  -13.10   50.29
   1   1 -10   61.39   45.60
  -1  -1  10  107.79   30.00
  -1  -1  10   98.29   38.90
  -1  -1  10  113.29   17.60
   0   1 -10   94.99   54.49
   0   1 -10  180.38   51.69
   0   1 -10   36.40   52.69
   0  -1  10  123.09   35.00
   0  -1  10  177.58   50.69
   0  -1  10  139.69   21.40
  -1   1 -10   90.39   55.09
  -1   1 -10  122.69   34.20
  -1   1 -10   79.59   57.29
   1  -1  10   66.69   17.20
   1  -1  10   92.79   33.30
   1  -1  10   80.59   34.60
  -2   1 -10   28.20   42.70
  -2   1 -10  136.39   29.80
   2  -1  10  129.79   40.20
   2  -1  10  140.69   23.70
   2  -1  10  129.29   20.60
   2  -1  10  120.09   47.20
  -3   1 -10    4.40   32.10
  -3   1 -10   60.59   41.70
  -3   1 -10   53.29   54.79
   3  -1  10  102.19   37.90
   3  -1  10   86.39   31.80
   3  -1  10   97.59   19.80
  -4   1 -10    7.40   27.60
  -4   1 -10   25.60   35.10
  -4   1 -10    2.40   36.00
   4  -1  10   18.00   13.60
   4  -1  10   -5.30   11.80
   4  -1  10   14.40    6.70
  -5   1 -10   96.69   71.19
  -5   1 -10   68.49   60.09
   5  -1  10  173.98   35.20
   5  -1  10  229.98   27.20
   5  -1  10  177.68   45.80
  -6   1 -10   33.30   48.50
  -6   1 -10   58.09   51.79
  -6   1 -10   66.19   57.59
   6  -1  10   74.99   19.50
   6  -1  10   80.49   26.00
   6  -1  10   21.20   23.60
  -7   1 -10  195.58   66.19
  -7   1 -10  186.68   95.89
  -7   1 -10  146.89   80.89
   7  -1  10  218.68   46.00
   7  -1  10  158.08   31.70
   7  -1  10  260.57   55.29
  -8   1 -10  101.19   82.69
  -8   1 -10  108.59   60.09
  -8   1 -10  225.88   65.29
  -8   1 -10   96.89   79.59
   8  -1  10  232.58   68.89
   8  -1  10  189.78   44.40
   8  -1  10  223.98   29.70
   4   0 -10  -21.80   52.99
   4   0 -10   -9.50   36.90
   4   0 -10   40.90   19.40
   4   0 -10  -38.00   59.79
  -4   0  10   -1.60   18.00
  -4   0  10  -28.10   18.00
  -4   0  10   18.20   20.00
   3   0 -10   29.80   52.19
   3   0 -10   -6.00   31.60
   3   0 -10   42.40   38.70
  -3   0  10   31.40   16.10
  -3   0  10   40.40   26.00
  -3   0  10   51.19   28.10
   2   0 -10  116.19   67.59
   2   0 -10  121.89   45.00
   2   0 -10   22.20   53.19
  -2   0  10  109.39   13.50
  -2   0  10  115.99   41.70
  -2   0  10  105.39   40.00
  -2   0  10  157.68   37.50
   1   0 -10  216.68   62.19
   1   0 -10  133.79   59.19
   1   0 -10   99.39   65.99
  -1   0  10  169.48   48.30
  -1   0  10  237.18   20.50
  -1   0  10  251.97   49.20
   0   0 -10  134.79   42.70
   0   0 -10   25.30   48.00
   0   0  10  105.19   38.20
   0   0  10  110.09   17.80
   0   0  10   77.59   26.10
  -1   0 -10   69.89   24.40
  -1   0 -10   -2.90   33.20
   1   0  10    0.10    5.40
   1   0  10   10.80   10.70
   1   0  10  -12.40   17.70
  -2   0 -10   13.20   17.40
  -2   0 -10   -0.70   35.40
  -2   0 -10   11.90   43.20
   2   0  10   -0.40    8.70
   2   0  10    6.70   16.50
   2   0  10   -6.10    5.70
  -3   0 -10   -5.90   30.60
  -3   0 -10  125.99   19.90
  -3   0 -10   69.99   34.20
   3   0  10   64.79   17.00
   3   0  10   97.09   39.90
   3   0  10   42.20   12.80
   3   0  10   83.59   18.00
   3   0  10   70.99   13.90
   3   0  10   76.09   30.60
  -4   0 -10    9.00   41.40
  -4   0 -10  -14.60   27.70
  -4   0 -10  -22.20   28.30
   4   0  10   -6.90   19.50
   4   0  10   -0.70    5.70
   4   0  10   21.90   17.80
  -5   0 -10   91.19   56.79
  -5   0 -10  121.89   57.29
  -5   0 -10  127.69   65.29
   5   0  10  117.39   24.80
   5   0  10   86.99   33.10
   5   0  10  116.69   22.60
  -6   0 -10  107.69   53.89
  -6   0 -10   78.89   45.60
  -6   0 -10   16.00   39.80
   6   0  10   43.10   25.70
   6   0  10   61.29   18.70
   6   0  10   29.20   11.40
  -7   0 -10   46.40   57.49
  -7   0 -10   40.00   41.70
  -7   0 -10   11.60   43.40
   7   0  10   -4.90    6.70
   7   0  10   12.30   17.30
   7   0  10   -2.40   15.40
  -8   0 -10   93.59   44.10
  -8   0 -10   61.19   77.39
  -8   0 -10  119.69   70.09
   8   0  10   41.10   25.50
   8   0  10   89.39   29.60
   8   0  10   50.49   17.50
   4  -1 -10  112.49   48.90
   4  -1 -10   63.59   54.09
   4  -1 -10   60.89   23.90
   4  -1 -10   56.09   60.49
  -4   1  10   81.69   35.60
  -4   1  10   87.19   25.30
  -4   1  10   83.69   33.80
   3  -1 -10   27.60   54.99
   3  -1 -10  -15.70   52.29
   3  -1 -10   44.50   36.40
  -3   1  10   49.00   29.60
  -3   1  10   26.80   29.30
  -3   1  10   59.29   22.30
   2  -1 -10  109.59   53.59
   2  -1 -10   42.30   59.99
   2  -1 -10   90.49   16.20
   2  -1 -10   52.09   37.70
  -2   1  10   84.29   14.20
  -2   1  10  115.99   36.30
  -2   1  10   59.19   22.10
  -2   1  10   64.89   10.20
  -2   1  10   89.39   38.70
   1  -1 -10  721.83   88.09
  -1   1  10  621.84   58.49
  -1   1  10  583.44   33.10
  -1   1  10  613.44   75.69
   0  -1 -10  255.27   60.89
   0  -1 -10  131.29   61.89
   0   1  10  154.08   43.60
   0   1  10  226.18   20.90
   0   1  10  228.28   34.80
  -1  -1 -10   82.19   63.29
  -1  -1 -10  126.69   43.60
   1   1  10  153.68   17.40
   1   1  10   98.29   36.60
   1   1  10   94.19   26.20
  -2  -1 -10  -21.50   33.90
  -2  -1 -10   28.40   25.20
  -2  -1 -10   14.30   42.70
   2   1  10   11.60   16.90
   2   1  10    8.70   14.60
   2   1  10   10.00    6.50
  -3  -1 -10  -25.20   36.70
  -3  -1 -10    5.50   32.00
  -3  -1 -10  -25.20   22.10
  -3  -1 -10    5.00   18.10
   3   1  10   22.40   15.80
   3   1  10    9.60   15.80
   3   1  10    4.00    5.50
   3   1  10   27.50   11.50
  -4  -1 -10   26.70   43.80
  -4  -1 -10  -51.09   41.40
  -4  -1 -10   20.80   36.30
  -4  -1 -10   40.90   13.30
   4   1  10    0.90   10.80
   4   1  10   25.20    9.50
   4   1  10  -14.50   18.70
   4   1  10   21.50    9.70
   4   1  10    4.40   23.80
  -5  -1 -10    0.80   42.50
  -5  -1 -10   61.79   15.50
  -5  -1 -10  100.19   62.79
  -5  -1 -10   14.40   28.90
   5   1  10   33.20   22.00
   5   1  10   24.80    9.40
   5   1  10   43.10   15.30
   5   1  10   17.90   17.20
  -6  -1 -10  351.36   97.29
  -6  -1 -10  432.86  127.59
  -6  -1 -10  711.43  125.89
   6   1  10  640.44   47.60
   6   1  10  640.24   68.39
   6   1  10  573.44   53.69
   6   1  10  619.14   51.99
  -7  -1 -10   25.40   54.59
  -7  -1 -10   68.49   45.60
  -7  -1 -10   39.50   59.49
   7   1  10   49.70   18.60
   7   1  10   56.89   17.80
   7   1  10   52.79   24.00
   7   1  10   52.39   21.60
  -8  -1 -10  120.29   72.39
  -8  -1 -10   25.80   71.99
  -8  -1 -10  125.99   56.19
   8   1  10   91.59   31.70
   8   1  10   91.29   27.50
   8   1  10   23.70   28.40
   8   1  10   77.49   17.40
  -9  -1 -10    8.40   64.99
  -9  -1 -10   35.60   44.20
  -9  -1 -10  -19.80   40.70
  -9  -1 -10  -40.70   54.09
   9   1  10   20.30   23.20
   9   1  10   96.19   26.80
   9   1  10   40.00   13.90
   4  -2 -10   51.69   46.60
   4  -2 -10   91.39   69.79
   4  -2 -10    5.80   26.00
   4  -2 -10   44.40   60.49
  -4   2  10   15.00   16.90
  -4   2  10   45.00   38.60
  -4   2  10   72.29   24.80
   3  -2 -10   36.30   24.90
   3  -2 -10  -16.60   40.10
   3  -2 -10   28.50   18.10
   3  -2 -10   -9.40   58.29
  -3   2  10    6.20   15.40
  -3   2  10   -8.30   14.50
  -3   2  10  -13.40   25.40
   2  -2 -10  -11.20   15.40
   2  -2 -10  -35.10   42.80
   2  -2 -10  -17.70   26.10
   2  -2 -10  165.98  100.49
  -2   2  10    1.70   16.30
  -2   2  10   52.79   20.50
  -2   2  10   24.30    7.00
  -2   2  10   33.70   13.50
  -2   2  10   29.30   21.70
   1  -2 -10    0.60   45.40
   1  -2 -10    5.60   46.80
   1  -2 -10   25.60   29.80
  -1   2  10   18.40   14.70
  -1   2  10   38.50   23.10
  -1   2  10   36.20    9.40
  -1   2  10    9.80   10.80
  -1   2  10   35.20    9.30
   0  -2 -10    5.40   18.50
   0  -2 -10  -48.70   34.60
   0  -2 -10  -37.20   32.40
   0   2  10   15.10   17.40
   0   2  10   -3.20    4.90
   0   2  10    2.00    8.80
  -1  -2 -10   63.99   27.00
  -1  -2 -10   35.40   53.99
   1   2  10   45.70   26.10
   1   2  10   46.40   18.90
   1   2  10   57.49   12.80
  -2  -2 -10  253.87  101.09
  -2  -2 -10  316.17   51.69
   2   2  10  279.97   19.40
   2   2  10  287.27   26.80
   2   2  10  271.17   24.70
   2   2  10  272.07   38.10
  -3  -2 -10  136.79   38.30
  -3  -2 -10   17.30   40.70
  -3  -2 -10   50.69   48.80
  -3  -2 -10   44.30   37.40
   3   2  10  104.49   23.70
   3   2  10  101.09   13.40
   3   2  10   90.19   33.70
   3   2  10  112.49   30.70
   3   2  10   85.99   17.40
  -4  -2 -10  235.18   88.49
  -4  -2 -10  316.67   43.60
  -4  -2 -10  334.27  107.59
   4   2  10  317.67   28.10
   4   2  10  316.07   64.59
   4   2  10  267.77   39.60
   4   2  10  319.57   29.20
  -5  -2 -10  497.35   47.00
  -5  -2 -10  334.37  112.79
  -5  -2 -10  292.57   85.69
  -5  -2 -10  528.35  133.79
   5   2  10  437.96   37.60
   5   2  10  441.66   35.30
   5   2  10  384.76   52.39
   5   2  10  395.06   89.19
  -6  -2 -10  371.96  104.89
  -6  -2 -10  382.06   37.60
  -6  -2 -10  263.07   98.69
  -6  -2 -10  253.87  136.69
   6   2  10  370.16   35.80
   6   2  10  387.76   37.60
   6   2  10  363.46   32.60
   6   2  10  395.26   50.59
  -7  -2 -10  319.27  103.59
  -7  -2 -10  400.36  110.99
  -7  -2 -10  603.64  241.18
   7   2  10  483.25   42.60
   7   2  10  409.16   38.20
   7   2  10  393.66   38.90
   7   2  10  441.26   55.69
  -8  -2 -10   13.40   54.39
  -8  -2 -10   70.89   57.59
  -8  -2 -10  102.09   53.29
   8   2  10   67.99   24.70
   8   2  10   95.69   21.30
   8   2  10   62.19   22.70
   8   2  10   45.90   22.40
  -9  -2 -10  121.49   68.69
  -9  -2 -10    8.00   40.70
   9   2  10  -12.20   28.80
   9   2  10    2.30    9.20
   9   2  10   -5.90   14.50
   4  -3 -10   71.99   32.20
   4  -3 -10  111.59   52.49
   4  -3 -10  -46.70   66.99
  -4   3  10   28.60   37.20
  -4   3  10   52.99   19.70
  -4   3  10   85.49   33.30
   3  -3 -10   56.69   37.80
   3  -3 -10  -61.79   53.29
   3  -3 -10   71.19   80.29
  -3   3  10   95.79   36.90
  -3   3  10   49.90   12.80
  -3   3  10   46.80   26.20
  -3   3  10   63.29   22.00
   2  -3 -10   96.39   74.89
   2  -3 -10   35.90   20.00
   2  -3 -10  -31.30   43.10
   2  -3 -10    4.60   62.59
  -2   3  10   36.90   30.90
  -2   3  10   32.00   24.90
  -2   3  10   52.49   12.10
  -2   3  10   55.39   23.90
   1  -3 -10   32.30   36.40
   1  -3 -10   79.59   21.00
   1  -3 -10  -12.70   42.90
   1  -3 -10   66.29   49.30
  -1   3  10   33.70   17.70
  -1   3  10   30.70   10.00
  -1   3  10   59.19   27.90
  -1   3  10   53.49   17.00
   0  -3 -10   12.60   39.00
   0  -3 -10   16.10   24.50
   0  -3 -10   25.70   41.80
   0   3  10    5.00    6.50
   0   3  10   13.70    9.10
   0   3  10    2.30    4.40
   0   3  10   -3.70   11.40
   0   3  10    9.50    8.70
  -1  -3 -10   52.39   40.30
  -1  -3 -10  130.49   40.10
  -1  -3 -10   81.69   44.00
   1   3  10   79.79   23.60
   1   3  10   67.59   15.00
   1   3  10   50.09   13.10
   1   3  10   88.49   33.60
  -2  -3 -10   -0.40   38.30
  -2  -3 -10  115.99   37.40
   2   3  10   83.19   12.40
   2   3  10   49.70   18.60
   2   3  10   32.20   24.80
   2   3  10   79.79   16.30
   2   3  10   56.99   18.10
  -3  -3 -10  -23.40   32.20
  -3  -3 -10   72.49   66.49
  -3  -3 -10   -4.10   21.30
   3   3  10   30.80   22.20
   3   3  10   84.49   17.40
   3   3  10   41.10   13.20
   3   3  10   22.30    9.70
   3   3  10   37.90   18.30
  -4  -3 -10    8.40   17.10
  -4  -3 -10  -24.90   32.40
  -4  -3 -10  -18.50   36.70
  -4  -3 -10   -5.60   27.80
   4   3  10   24.40   21.60
   4   3  10   -1.00   10.00
   4   3  10   15.60    9.60
   4   3  10    6.20    7.30
  -5  -3 -10  119.39   30.30
  -5  -3 -10   50.99   45.20
  -5  -3 -10   29.80   48.00
  -5  -3 -10   57.49   43.40
   5   3  10   97.29   17.20
   5   3  10  107.79   21.60
   5   3  10   89.79   26.70
  -6  -3 -10   35.20   45.40
  -6  -3 -10  -13.00   13.70
  -6  -3 -10   -6.30   37.70
   6   3  10  -10.90   11.10
   6   3  10   -3.00    4.40
   6   3  10  -10.10    6.10
   6   3  10    5.20   14.50
  -7  -3 -10   79.69   55.99
  -7  -3 -10   88.89   73.59
  -7  -3 -10   27.50   51.39
   7   3  10   54.99   21.50
   7   3  10  109.79   23.50
   7   3  10   72.09   24.30
   7   3  10   80.79   30.30
  -8  -3 -10   -0.10   52.49
  -8  -3 -10   21.70   46.10
   8   3  10  -14.40    9.80
   8   3  10    8.80   18.30
   8   3  10   27.30   12.80
   8   3  10  -21.20   17.60
  -9  -3 -10  -66.99   53.79
  -9  -3 -10  -20.90   44.40
  -9  -3 -10    7.30   35.00
   9   3  10   16.60    9.30
   9   3  10   23.30   13.60
   3  -4 -10    6.00   57.19
   3  -4 -10   80.79   30.00
   3  -4 -10   88.69   43.50
   3  -4 -10    6.10   67.49
  -3   4  10   93.59   37.60
  -3   4  10   38.20   13.60
  -3   4  10   58.09   33.10
  -3   4  10  101.89   27.40
   2  -4 -10   48.50   55.49
   2  -4 -10  203.98   52.89
   2  -4 -10   57.09   39.60
   2  -4 -10   33.60   55.99
  -2   4  10   79.09   17.10
  -2   4  10  116.79   32.80
   1  -4 -10   18.90   35.20
   1  -4 -10  -38.90   59.99
   1  -4 -10  108.49   31.00
  -1   4  10  167.38   35.40
  -1   4  10   81.99   24.60
  -1   4  10  152.38   41.10
   0  -4 -10   61.29   40.70
   0  -4 -10    9.20   18.40
   0  -4 -10    9.10   44.20
   0  -4 -10   37.90   52.19
   0   4  10   18.40   14.90
   0   4  10   51.49   24.50
   0   4  10   20.30   10.30
   0   4  10   24.90   15.60
  -1  -4 -10   40.50   20.20
  -1  -4 -10   41.20   16.20
  -1  -4 -10  -10.70   44.00
   1   4  10   -4.60   15.00
   1   4  10   -2.60    6.90
   1   4  10    6.40   10.80
   1   4  10   -3.20    7.70
  -2  -4 -10  236.68   95.29
  -2  -4 -10   80.69   56.09
  -2  -4 -10  271.87   67.99
   2   4  10  207.88   48.00
   2   4  10  196.78   30.70
   2   4  10  198.48   23.20
   2   4  10  225.08   29.70
  -3  -4 -10  301.77   67.89
  -3  -4 -10  264.87  101.29
  -3  -4 -10  236.48   84.69
   3   4  10  318.27   34.00
   3   4  10  379.56   50.09
   3   4  10  327.17   39.50
   3   4  10  334.37   30.90
  -4  -4 -10  436.06   98.99
  -4  -4 -10  522.55  134.09
  -4  -4 -10  298.17   99.49
   4   4  10  486.05   48.60
   4   4  10  439.66   41.30
   4   4  10  526.95   57.89
   4   4  10  496.55   38.90
  -5  -4 -10  464.35   90.69
  -5  -4 -10  567.44  129.79
  -5  -4 -10  512.15  132.59
  -5  -4 -10  551.64   71.69
   5   4  10  588.74   42.40
   5   4  10  616.44   55.79
  -6  -4 -10  267.97   66.99
  -6  -4 -10  279.07  103.89
  -6  -4 -10  249.68   91.59
   6   4  10  233.78   26.50
   6   4  10  279.27   34.60
   6   4  10  369.66   43.80
  -7  -4 -10   52.59   39.60
  -7  -4 -10   49.90   39.70
  -7  -4 -10  -31.60   33.10
  -7  -4 -10   28.00   23.00
   7   4  10    2.30    8.50
   7   4  10    0.90    9.30
   7   4  10   27.00   16.10
  -8  -4 -10  -35.60   40.50
  -8  -4 -10   29.90   22.50
  -8  -4 -10  -17.90   41.30
  -8  -4 -10   52.99   50.09
   8   4  10   30.00   19.10
   8   4  10   42.00   15.90
   8   4  10   21.00   10.90
   8   4  10   75.09   26.20
  -9  -4 -10   15.40   53.29
  -9  -4 -10   36.90   35.90
   9   4  10   42.90   13.60
   9   4  10    2.90   26.40
   9   4  10    1.00   16.80
   9   4  10   26.00   20.60
   3  -5 -10   -4.10   73.59
   3  -5 -10   75.59   40.40
   3  -5 -10  -94.39   58.39
   3  -5 -10   32.90   25.70
  -3   5  10   -2.60   18.20
  -3   5  10   -5.90   13.10
   2  -5 -10  146.99   34.80
   2  -5 -10  108.99   48.90
  -2   5  10   55.79   29.00
  -2   5  10   46.30   15.20
  -2   5  10   59.09   23.30
   1  -5 -10  -64.79   41.70
   1  -5 -10   42.40   51.69
   1  -5 -10   49.50   32.70
  -1   5  10   52.39   24.70
  -1   5  10   78.09   26.80
  -1   5  10   28.90   12.40
   0  -5 -10  -37.80   25.60
   0  -5 -10   40.10   61.89
   0  -5 -10    9.70   17.20
   0  -5 -10   15.50   42.90
   0   5  10   44.00   21.40
   0   5  10   30.10   15.30
   0   5  10   18.90   11.80
  -1  -5 -10  528.45  151.28
  -1  -5 -10  656.53   61.89
  -1  -5 -10  597.24   83.99
   1   5  10  747.83   65.59
   1   5  10  659.33   68.59
   1   5  10  619.04   57.69
   1   5  10  672.33   46.40
  -2  -5 -10   88.69   52.89
  -2  -5 -10   90.39   37.90
  -2  -5 -10   43.60   47.30
  -2  -5 -10   25.00   21.80
   2   5  10  118.89   31.40
   2   5  10   68.49   22.70
   2   5  10   60.19   13.90
   2   5  10   48.70   20.80
  -3  -5 -10  203.68   77.49
  -3  -5 -10  345.37  104.39
  -3  -5 -10  422.36   64.29
   3   5  10  393.06   42.40
   3   5  10  407.96   51.79
   3   5  10  308.57   31.60
   3   5  10  384.16   43.00
  -4  -5 -10  485.35   73.29
  -4  -5 -10  340.57   42.00
  -4  -5 -10  360.16  109.69
   4   5  10  474.55   47.40
   4   5  10  463.85   38.80
   4   5  10  518.65   47.60
  -5  -5 -10  310.97   67.69
  -5  -5 -10  204.18   58.89
  -5  -5 -10  314.67  114.99
  -5  -5 -10  300.87   91.49
   5   5  10  330.37   40.10
   5   5  10  323.77   32.40
   5   5  10  328.87   36.80
  -6  -5 -10  127.89   38.20
  -6  -5 -10   44.90   47.90
  -6  -5 -10   78.69   19.80
  -6  -5 -10   62.39   59.69
  -6  -5 -10   81.69   35.60
   6   5  10  115.19   27.30
   6   5  10  124.89   29.50
   6   5  10  125.59   23.30
  -7  -5 -10    8.90   24.40
  -7  -5 -10    8.90   38.10
   7   5  10    7.20   14.60
   7   5  10    7.60   13.40
   7   5  10   25.80   14.60
   7   5  10   -4.30    6.00
  -8  -5 -10   36.20   33.90
  -8  -5 -10   24.70   25.30
  -8  -5 -10  -56.79   37.80
   8   5  10   10.40    8.90
   8   5  10    0.90   13.10
   8   5  10    8.10   19.70
   8   5  10    4.60   18.90
  -9  -5 -10   17.40   45.80
  -9  -5 -10   24.00   52.59
   9   5  10   23.80   13.60
   9   5  10   35.30   23.20
   2  -6 -10  -15.30   57.39
   2  -6 -10   31.20   27.50
   2  -6 -10  -76.29   56.99
   2  -6 -10   -5.20   35.20
  -2   6  10   -3.20   16.20
  -2   6  10  -24.20   12.30
  -2   6  10    5.50   13.90
   1  -6 -10  -38.50   51.89
   1  -6 -10    3.90   31.20
   1  -6 -10  -19.40   58.79
  -1   6  10   18.60   17.10
  -1   6  10   -6.70   13.00
   0  -6 -10   28.40   22.50
   0  -6 -10  -39.10   50.29
   0  -6 -10    4.80   36.60
   0  -6 -10   50.59   34.10
   0   6  10   -4.90   10.10
   0   6  10    4.50   13.80
   0   6  10    8.10   11.90
  -1  -6 -10  -54.49   39.70
  -1  -6 -10   40.30   28.60
  -1  -6 -10  -36.00   23.40
  -1  -6 -10    3.50   17.20
   1   6  10   -2.70   18.30
   1   6  10   -0.90    8.80
   1   6  10   31.30   14.70
   1   6  10    3.40   12.90
  -2  -6 -10   79.09   28.10
  -2  -6 -10   46.50   53.39
  -2  -6 -10  165.98   60.39
  -2  -6 -10  105.59   43.90
   2   6  10   88.49   26.80
   2   6  10   63.79   20.90
   2   6  10   67.49   26.20
   2   6  10   79.99   19.50
  -3  -6 -10   18.20   29.10
  -3  -6 -10  -54.49   29.80
  -3  -6 -10   72.69   41.00
   3   6  10   60.29   22.10
   3   6  10   23.40   12.60
   3   6  10   26.00   18.70
   3   6  10   17.90   12.80
  -4  -6 -10   43.30   38.20
  -4  -6 -10  -36.70   29.80
  -4  -6 -10  -15.40   29.60
  -4  -6 -10   -1.50   18.80
   4   6  10  -10.10   11.50
   4   6  10    0.40    5.70
   4   6  10   15.90   15.40
   4   6  10    3.50   12.00
  -5  -6 -10   19.30   18.00
  -5  -6 -10   -8.60   34.60
  -5  -6 -10    0.20   40.00
   5   6  10  -17.10   12.60
   5   6  10   10.50   10.20
   5   6  10   10.10    6.50
  -6  -6 -10  -19.40   35.90
  -6  -6 -10   16.50   22.90
  -6  -6 -10  -49.60   33.80
   6   6  10    4.40   10.40
   6   6  10   24.60   14.10
   6   6  10    5.10   11.40
  -7  -6 -10   36.90   25.30
  -7  -6 -10  -49.20   30.10
   7   6  10   15.50   10.70
   7   6  10   43.00   17.70
   7   6  10   -4.70    8.30
  -8  -6 -10   61.99   45.20
  -8  -6 -10   38.20   32.60
  -8  -6 -10  -24.40   49.50
   8   6  10   15.90   16.70
   8   6  10   92.39   24.20
   8   6  10   12.90   13.10
   8   6  10   22.30    8.70
  -9  -6 -10   42.90   23.60
  -9  -6 -10   20.20   44.20
   9   6  10    7.80    8.80
   9   6  10   64.49   24.80
   9   6  10  -10.90   17.00
   9   6  10  -10.80   17.40
   1  -7 -10    6.20   25.10
   1  -7 -10  -12.50   39.00
  -1   7  10   42.90   19.80
  -1   7  10   29.20   22.70
  -1   7  10   66.49   22.50
   0  -7 -10   78.49   77.49
   0  -7 -10   23.00   24.00
   0  -7 -10  124.29   57.99
   0   7  10   75.49   30.40
   0   7  10   40.70   20.10
   0   7  10   67.39   27.40
  -1  -7 -10  122.89   67.39
  -1  -7 -10   68.39   31.10
  -1  -7 -10  158.98   44.80
   1   7  10  118.99   33.60
   1   7  10  123.29   40.30
   1   7  10  119.09   26.80
   1   7  10  221.98   37.80
  -2  -7 -10  357.86  115.59
  -2  -7 -10  512.45   85.69
  -2  -7 -10  494.35   65.69
  -2  -7 -10  502.45   61.79
  -2  -7 -10  489.45   66.99
   2   7  10  488.45   45.90
   2   7  10  556.64   57.59
   2   7  10  543.35   59.69
   2   7  10  546.55   63.49
  -3  -7 -10  204.98   48.70
  -3  -7 -10   71.69   66.09
  -3  -7 -10  182.28   45.80
  -3  -7 -10  108.39   45.50
   3   7  10  181.38   39.30
   3   7  10  158.28   29.70
   3   7  10  272.27   38.20
   3   7  10  224.28   34.50
  -4  -7 -10   72.29   44.20
  -4  -7 -10  100.69   47.00
  -4  -7 -10  166.78   82.79
   4   7  10   82.59   23.00
   4   7  10  116.39   25.70
   4   7  10  114.39   31.60
  -5  -7 -10  -26.80   37.70
  -5  -7 -10   41.30   60.19
  -5  -7 -10   77.59   29.70
   5   7  10   25.90   14.70
   5   7  10   18.00   12.50
   5   7  10   16.00   11.20
  -6  -7 -10    9.20   25.90
  -6  -7 -10  -19.00   32.20
  -6  -7 -10  -33.50   36.00
   6   7  10    0.20   10.40
   6   7  10  -10.70    5.80
   6   7  10    9.50   13.80
  -7  -7 -10   -5.50   30.60
  -7  -7 -10    7.60   25.90
  -7  -7 -10   10.50   44.80
   7   7  10    3.30   12.70
   7   7  10  -19.80   15.00
   7   7  10   -7.30    7.80
  -8  -7 -10    2.90   22.90
  -8  -7 -10  -30.40   31.90
   8   7  10  -10.50   10.10
   8   7  10   42.50   17.00
   8   7  10    6.00   22.40
   8   7  10  -31.10   13.90
  -9  -7 -10   14.80   31.90
  -9  -7 -10   12.10   46.80
  -9  -7 -10   -1.30   42.80
   9   7  10  -24.80   22.30
   9   7  10   34.30   11.70
   9   7  10   34.80   19.30
   0  -8 -10    0.50   35.50
   0  -8 -10   15.60   75.89
   0  -8 -10   15.30   29.20
   0   8  10   42.00   21.70
   0   8  10   53.79   28.20
   0   8  10   16.40   18.60
  -1  -8 -10   86.09   35.50
  -1  -8 -10  148.89   55.09
  -1  -8 -10    7.40   67.79
   1   8  10  191.98   47.70
   1   8  10   77.69   36.20
  -2  -8 -10  189.88   59.59
  -2  -8 -10  243.98   53.29
  -2  -8 -10  229.28   74.09
   2   8  10  243.58   35.20
   2   8  10  151.28   48.80
   2   8  10  166.68   40.30
  -3  -8 -10  109.19   99.49
  -3  -8 -10  186.08   44.80
  -3  -8 -10  215.38   64.29
   3   8  10  246.48   34.30
   3   8  10  190.88   56.69
   3   8  10  120.79   31.00
   3   8  10  156.28   41.00
  -4  -8 -10   32.70   50.39
  -4  -8 -10   22.20   36.10
   4   8  10   41.40   12.60
   4   8  10   27.60   19.10
   4   8  10    6.70   13.30
  -5  -8 -10   15.30   28.90
  -5  -8 -10  -37.70   25.30
  -5  -8 -10   -3.20   38.80
   5   8  10    3.90   14.50
   5   8  10    3.50   10.40
   5   8  10   -1.10   10.00
  -6  -8 -10   26.80   43.20
  -6  -8 -10   -3.30   40.10
  -6  -8 -10  -17.80   28.80
   6   8  10   43.90   16.10
   6   8  10   18.20   16.70
   6   8  10    5.30    8.30
  -7  -8 -10   32.60   41.80
  -7  -8 -10   74.79   33.20
  -7  -8 -10  184.48   63.59
   7   8  10   42.30   18.00
   7   8  10   71.09   22.30
   7   8  10   84.79   30.80
  -8  -8 -10  261.47   87.79
  -8  -8 -10  232.78   66.39
  -8  -8 -10  259.47   58.49
   8   8  10  206.08   45.90
   8   8  10  172.38   50.79
   8   8  10  203.88   34.90
  -1  -9 -10   18.50   34.90
  -1  -9 -10  128.89   61.79
  -1  -9 -10   69.19   67.39
   1   9  10   76.69   34.20
   1   9  10   36.10   19.10
   1   9  10   77.59   41.90
  -2  -9 -10   39.30   23.90
  -2  -9 -10  116.89   60.49
  -2  -9 -10   -8.80   31.10
   2   9  10    2.20   15.50
   2   9  10   56.49   21.20
   2   9  10    7.60   16.50
  -3  -9 -10   22.10   31.10
  -3  -9 -10   24.40   46.00
  -3  -9 -10   16.00   19.80
   3   9  10  -14.60   20.30
   3   9  10    3.80   15.20
  -4  -9 -10    7.00   52.89
   4   9  10   47.20   21.10
   4   9  10   -0.50   13.10
   4   9  10   31.50   26.00
  -5  -9 -10  -30.80   21.40
  -5  -9 -10   35.80   34.50
  -5  -9 -10  -19.30   41.80
   5   9  10  -59.29   26.20
   5   9  10    5.40   11.50
  -6  -9 -10  161.38   60.09
  -6  -9 -10  -27.00   26.10
  -6  -9 -10    9.90   42.50
   6   9  10   -4.10   10.10
   6   9  10   30.10   13.60
  -7  -9 -10  -20.40   28.70
  -7  -9 -10   32.10   34.70
  -7  -9 -10   31.20   50.39
   7   9  10   27.20   24.70
   7   9  10   37.70   17.70
   7   9  10    9.50   10.60
  -8  -9 -10   95.99   61.49
  -8  -9 -10    6.90   33.60
  -8  -9 -10  -25.90   37.70
   8   9  10   48.00   16.50
   8   9  10   94.49   23.00
   8   9  10   79.29   25.20
   8   9  10   78.19   32.20
  -2 -10 -10   53.09   44.40
  -2 -10 -10   22.30   68.39
  -2 -10 -10    5.60   37.60
   2  10  10   30.50   19.50
   2  10  10   77.79   24.40
   2  10  10    1.30   18.70
   2  10  10   42.20   27.50
  -3 -10 -10  -76.99   43.00
  -3 -10 -10   63.49   33.30
  -3 -10 -10  -30.10   25.00
   3  10  10   15.20   23.00
   3  10  10   18.10   27.70
  -4 -10 -10   -7.40   53.99
  -4 -10 -10   19.70   32.40
  -4 -10 -10  -22.40   27.50
   4  10  10   -1.30   14.40
   4  10  10   -1.60   10.70
   4  10  10   19.80   27.20
  -5 -10 -10   51.79   31.80
  -5 -10 -10   -0.20   44.90
   5  10  10  -36.30   20.10
   5  10  10  -14.40   12.30
   5  10  10    3.70    7.60
  -6 -10 -10   88.99   48.10
  -6 -10 -10   41.50   44.40
  -6 -10 -10   -0.70   26.10
   6  10  10   40.20   27.10
   6  10  10   57.09   18.50
  -7 -10 -10   97.29   33.70
   7  10  10   56.19   26.30
   0   7 -11   85.69   76.59
   0   7 -11   17.30   51.19
   0   7 -11   36.80   36.20
   0  -7  11   44.60   32.80
   0  -7  11   87.89   42.30
  -1   7 -11   30.60   38.50
  -1   7 -11   64.09   82.39
  -1   7 -11   65.39   59.39
   1  -7  11   61.29   28.70
   1  -7  11   -9.80   20.00
   1  -7  11   10.80   31.50
   2   6 -11   58.89   46.00
   2   6 -11   18.90   40.40
   2   6 -11  -69.39   56.79
  -2  -6  11   45.50   23.20
  -2  -6  11   76.99   45.10
  -2  -6  11  -17.80   18.90
   1   6 -11    0.00   41.00
   1   6 -11   58.59   35.30
   1   6 -11   36.10   32.10
   1   6 -11   82.59   50.59
  -1  -6  11   51.19   24.40
   0   6 -11   38.40   46.20
   0   6 -11   95.09   30.70
   0   6 -11   -8.00   51.59
   0   6 -11   46.30   34.40
   0  -6  11   62.89   24.90
  -1   6 -11  -38.70   55.49
  -1   6 -11    0.30   54.49
  -1   6 -11    0.70   53.89
   1  -6  11   60.29   38.50
   1  -6  11   38.70   26.10
   1  -6  11   49.80   23.30
  -2   6 -11   72.69   46.60
  -2   6 -11   20.30   54.79
  -2   6 -11   74.49   51.69
   2  -6  11   11.00   27.80
   2  -6  11    7.50   15.20
   2  -6  11  -15.20   36.50
  -3   6 -11  186.88   61.89
  -3   6 -11    4.60   66.49
  -3   6 -11  131.69   75.89
   3  -6  11   65.19   44.40
   3  -6  11   47.70   22.70
   3  -6  11   81.49   39.40
   3   5 -11   40.80   44.10
   3   5 -11   36.10   41.50
   3   5 -11   45.90   55.49
  -3  -5  11  100.49   47.00
  -3  -5  11  108.49   43.00
  -3  -5  11   40.00   41.90
   2   5 -11   42.10   34.80
   2   5 -11   64.09   60.99
   2   5 -11   72.09   35.00
  -2  -5  11   38.70   19.80
  -2  -5  11  111.69   35.10
  -2  -5  11   67.29   37.40
   1   5 -11  -30.60   47.20
   1   5 -11  -12.60   43.40
   1   5 -11   42.50   34.60
  -1  -5  11   17.30   25.20
  -1  -5  11   54.79   21.50
  -1  -5  11   12.30   21.70
   0   5 -11  -13.90   35.90
   0   5 -11   20.00   56.29
   0   5 -11   80.89   25.40
   0   5 -11  -27.30   51.19
   0  -5  11   66.39   40.10
   0  -5  11   -9.00   14.40
   0  -5  11   40.50   22.60
  -1   5 -11   89.09   54.69
  -1   5 -11   67.39   49.60
  -1   5 -11   56.69   56.39
   1  -5  11   63.49   29.70
   1  -5  11  111.89   29.20
   1  -5  11   66.09   41.80
  -2   5 -11   65.29   75.39
  -2   5 -11  -29.10   46.00
  -2   5 -11   88.19   62.89
   2  -5  11  180.68   60.99
   2  -5  11  233.98   64.79
   2  -5  11  172.98   37.80
  -3   5 -11  143.89   67.59
  -3   5 -11  151.28   74.69
   3  -5  11  347.87   53.99
   3  -5  11  303.47   41.60
   3  -5  11  299.87   68.79
  -4   5 -11   96.79   77.89
  -4   5 -11  142.29   82.39
  -4   5 -11  121.49   54.09
   4  -5  11   88.39   48.00
   4  -5  11  192.38   38.40
   4  -5  11   67.99   32.30
  -5   5 -11   57.89   72.09
  -5   5 -11   33.20   51.29
  -5   5 -11   24.20   51.79
   5  -5  11   91.39   24.90
   5  -5  11   80.49   38.90
   5  -5  11   12.30   39.90
   3   4 -11   67.29   47.70
   3   4 -11  -33.20   56.29
   3   4 -11   79.99   52.59
  -3  -4  11   90.29   40.00
  -3  -4  11   72.19   21.30
   2   4 -11    5.40   49.60
   2   4 -11   30.20   39.20
   2   4 -11  110.19   54.99
  -2  -4  11  101.99   32.70
  -2  -4  11   75.89   18.90
  -2  -4  11   52.29   43.10
   1   4 -11  -59.39   36.80
   1   4 -11   50.29   27.50
   1   4 -11   -4.60   50.19
  -1  -4  11   -5.00   22.80
  -1  -4  11  -24.20   21.00
  -1  -4  11  -11.20   18.00
   0   4 -11   18.20   43.60
   0   4 -11   28.70   49.80
   0   4 -11   53.99   62.49
   0  -4  11   72.29   40.10
   0  -4  11  127.89   36.40
   0  -4  11   82.39   22.50
  -1   4 -11  -11.80   39.90
  -1   4 -11  -39.70   53.29
  -1   4 -11   54.29   28.40
   1  -4  11    8.40   22.20
   1  -4  11    5.40   17.80
   1  -4  11    0.90   12.00
  -2   4 -11   27.80   64.29
  -2   4 -11   28.90   42.30
  -2   4 -11    8.00   33.80
   2  -4  11   18.00   13.60
   2  -4  11   10.60   30.00
   2  -4  11   14.40   18.20
  -3   4 -11   55.19   59.79
  -3   4 -11   -2.30   33.80
  -3   4 -11  118.49   67.49
   3  -4  11   71.99   32.30
   3  -4  11  113.09   39.40
  -4   4 -11    7.80   53.49
  -4   4 -11  -94.29   48.40
  -4   4 -11   29.10   57.39
   4  -4  11    4.70   13.50
   4  -4  11   38.40   26.80
   4  -4  11   17.50   26.20
  -5   4 -11  -59.69   49.50
  -5   4 -11   31.20   55.69
  -5   4 -11  -55.69   52.79
   5  -4  11   66.59   24.20
   5  -4  11   72.09   35.80
   5  -4  11   11.50   23.60
  -6   4 -11  -75.79   48.80
   6  -4  11   -7.60   20.10
   6  -4  11  -37.00   29.40
   3   3 -11   17.80   60.69
   3   3 -11   63.09   64.99
  -3  -3  11   63.29   33.20
  -3  -3  11   53.19   31.10
  -3  -3  11   25.10   26.30
   2   3 -11  -28.10   36.50
   2   3 -11  -36.50   40.30
   2   3 -11  -42.70   31.50
  -2  -3  11   -2.80   17.30
  -2  -3  11   -7.80   19.10
  -2  -3  11   59.69   35.10
   1   3 -11    3.60   38.60
   1   3 -11   40.20   37.80
   1   3 -11   43.80   45.20
  -1  -3  11   36.60   27.80
  -1  -3  11   39.50   14.50
   0   3 -11  102.69   77.19
   0   3 -11  358.16   53.29
   0  -3  11  234.58   30.60
   0  -3  11  237.38   59.29
  -1   3 -11   25.80   68.49
  -1   3 -11  132.79   29.40
  -1   3 -11    3.80   53.19
  -1   3 -11   50.89   54.59
  -1   3 -11  122.39   41.00
   1  -3  11   73.19   24.70
   1  -3  11  136.99   43.40
   1  -3  11  107.89   48.80
   1  -3  11  128.29   25.60
  -2   3 -11  -12.70   23.60
  -2   3 -11  -14.60   49.60
   2  -3  11   60.99   33.40
   2  -3  11   82.59   31.50
   2  -3  11   39.20   13.80
  -3   3 -11   36.60   34.80
  -3   3 -11   67.09   55.19
  -3   3 -11  -49.90   27.10
   3  -3  11   51.59   18.00
   3  -3  11    9.60   24.80
   3  -3  11    8.10   10.30
  -4   3 -11  -40.20   35.10
  -4   3 -11   57.59   50.49
  -4   3 -11   40.80   49.70
   4  -3  11   12.50   22.40
   4  -3  11   21.70   12.50
   4  -3  11   36.10   25.30
  -5   3 -11  -21.40   45.90
  -5   3 -11  -23.90   51.99
  -5   3 -11   27.40   51.49
   5  -3  11  -13.90   24.50
   5  -3  11   46.30   23.00
   5  -3  11   -3.40    8.40
  -6   3 -11   48.80   49.99
  -6   3 -11   71.19   40.20
   6  -3  11   51.49   24.50
   6  -3  11   40.50   22.60
   4   2 -11   23.00   50.89
   4   2 -11  145.89   55.99
   4   2 -11   62.19   49.90
  -4  -2  11  126.19   44.40
  -4  -2  11  120.89   40.90
  -4  -2  11  111.69   39.50
   3   2 -11  -39.00   29.60
   3   2 -11  -51.79   48.00
   3   2 -11   69.19   63.39
  -3  -2  11  -14.50   25.30
  -3  -2  11    8.00   16.10
  -3  -2  11   42.10   34.60
   2   2 -11    4.90   54.59
   2   2 -11  -43.30   41.30
   2   2 -11   10.20   30.30
  -2  -2  11   30.60   11.50
  -2  -2  11    2.50   27.30
  -2  -2  11   41.80   32.10
   1   2 -11  232.38   97.49
   1   2 -11  177.08   47.10
   1   2 -11   83.49   54.79
  -1  -2  11  136.39   22.80
  -1  -2  11   86.19   55.99
  -1  -2  11  137.69   42.20
   0   2 -11   26.20   54.69
   0   2 -11   40.20   22.50
   0   2 -11   87.99   42.60
   0  -2  11   -1.00   12.90
   0  -2  11   15.70   26.10
  -1   2 -11  404.16   57.89
  -1   2 -11  315.07  112.39
   1  -2  11  451.15   76.89
   1  -2  11  468.65   38.50
   1  -2  11  514.75   65.89
  -2   2 -11  179.58   75.69
  -2   2 -11  167.18   21.80
  -2   2 -11  138.19   75.09
  -2   2 -11   32.30   47.90
  -2   2 -11  123.59   36.80
   2  -2  11  167.78   60.19
   2  -2  11  199.58   48.60
   2  -2  11  204.18   32.40
   2  -2  11  145.49   19.20
  -3   2 -11   23.40   51.49
  -3   2 -11   25.80   55.79
  -3   2 -11  -14.90   38.50
   3  -2  11   77.49   31.00
   3  -2  11   47.90   15.70
   3  -2  11   61.79   35.60
  -4   2 -11  -11.30   51.09
  -4   2 -11  -15.20   46.40
  -4   2 -11   25.10   41.40
   4  -2  11    9.50   16.10
   4  -2  11   29.10   16.80
  -5   2 -11   65.99   47.40
  -5   2 -11   46.40   50.89
   5  -2  11   35.30   16.10
   5  -2  11   47.90   24.00
   5  -2  11   75.39   29.10
  -6   2 -11  -64.29   49.00
  -6   2 -11  -20.70   39.10
  -6   2 -11  -56.09   43.60
   6  -2  11  -18.30   18.30
   6  -2  11   -7.50    9.50
   6  -2  11   10.50   21.60
  -7   2 -11  156.58   68.29
  -7   2 -11   81.49   67.39
  -7   2 -11   50.09   50.19
   7  -2  11  106.69   25.90
   7  -2  11  151.08   47.20
   7  -2  11  134.29   39.50
   4   1 -11  -63.89   55.29
   4   1 -11   88.59   35.70
   4   1 -11   32.20   44.40
  -4  -1  11   63.99   34.90
  -4  -1  11   26.80   17.50
  -4  -1  11   25.80   24.40
   3   1 -11    9.20   50.79
   3   1 -11  -38.10   26.20
   3   1 -11   -7.70   59.29
  -3  -1  11   11.90   15.80
  -3  -1  11  -14.10   30.90
  -3  -1  11   -6.70   17.20
   2   1 -11  -14.30   24.90
   2   1 -11  -61.59   44.00
  -2  -1  11    0.00    8.00
  -2  -1  11    1.20   18.20
  -2  -1  11   24.10   25.70
   1   1 -11  -46.10   73.29
   1   1 -11  -25.10   25.40
   1   1 -11    1.10   47.20
  -1  -1  11   -9.50   24.70
  -1  -1  11   16.20   14.90
  -1  -1  11    9.80    9.00
   0   1 -11  -18.20   36.90
   0   1 -11   43.90   53.49
   0   1 -11   73.09   38.60
   0  -1  11   76.99   27.60
   0  -1  11  120.19   45.30
   0  -1  11   72.29   16.60
  -1   1 -11   54.19   25.30
  -1   1 -11   63.09   44.90
  -1   1 -11  -61.59   37.60
   1  -1  11   19.30   15.40
   1  -1  11   47.50   33.10
   1  -1  11   25.20   11.20
  -2   1 -11  -47.20   37.70
  -2   1 -11   59.19   59.99
  -2   1 -11   69.99   23.30
  -2   1 -11   27.40   32.80
   2  -1  11   29.00   16.20
   2  -1  11   52.49   15.40
   2  -1  11   39.60   13.80
  -3   1 -11   18.70   47.60
  -3   1 -11   16.50   40.10
  -3   1 -11   67.29   59.49
   3  -1  11  124.89   40.40
   3  -1  11  105.39   22.40
   3  -1  11   91.09   47.80
  -4   1 -11   20.30   30.90
  -4   1 -11   17.40   55.59
  -4   1 -11   28.70   52.49
   4  -1  11   63.59   18.50
   4  -1  11   58.49   43.70
   4  -1  11  110.59   41.30
   4  -1  11   69.29   22.30
  -5   1 -11    7.80   31.50
  -5   1 -11   26.70   42.10
  -5   1 -11   27.60   44.30
   5  -1  11   20.70   16.90
   5  -1  11   22.30   24.60
   5  -1  11   23.90   17.00
  -6   1 -11  136.29   87.79
  -6   1 -11   56.79   69.49
  -6   1 -11  173.58   73.49
   6  -1  11  107.99   32.70
   6  -1  11  218.58   36.50
   6  -1  11  200.18   52.19
  -7   1 -11  277.07   75.29
  -7   1 -11  143.39   69.89
  -7   1 -11  147.79   85.29
   7  -1  11  243.68   32.20
   7  -1  11  296.67   61.69
   7  -1  11  227.58   43.60
   4   0 -11   -1.30   34.20
   4   0 -11   31.70   55.19
   4   0 -11   26.50   69.49
  -4   0  11   46.20   39.30
  -4   0  11   25.10   19.60
  -4   0  11   -9.60   24.50
   3   0 -11   77.29   50.09
   3   0 -11   82.49   46.30
   3   0 -11  -24.20   65.79
  -3   0  11   35.50   32.00
  -3   0  11   49.50   19.10
  -3   0  11   32.40   23.70
   2   0 -11  -17.90   39.50
   2   0 -11   46.70   32.20
   2   0 -11   11.90   40.70
  -2   0  11   -2.90   16.60
  -2   0  11   -7.10   19.60
  -2   0  11    7.90    8.10
  -2   0  11   15.10   28.40
   1   0 -11  109.09   80.49
   1   0 -11  185.38   55.39
  -1   0  11  113.09   42.80
  -1   0  11  163.98   36.60
  -1   0  11  161.88   18.60
   0   0 -11   -1.90   45.10
   0   0 -11    0.80   46.70
   0   0 -11   -7.10   24.30
   0   0  11   -4.20   16.10
   0   0  11   42.50   21.60
   0   0  11   27.40   10.60
  -1   0 -11    4.70   32.80
  -1   0 -11   -0.40   48.90
  -1   0 -11  -11.70   20.60
   1   0  11   10.00   18.00
   1   0  11   28.90   13.60
   1   0  11   -8.70    5.50
  -2   0 -11  121.89   34.40
  -2   0 -11  181.08   78.09
   2   0  11  165.48   43.90
   2   0  11  127.19   45.30
   2   0  11  124.49   21.90
  -3   0 -11   20.90   40.90
  -3   0 -11  -19.10   43.80
  -3   0 -11   76.59   22.50
   3   0  11   31.80   27.20
   3   0  11   33.80   10.80
   3   0  11   25.70   19.30
   3   0  11   28.60   14.40
  -4   0 -11   33.00   44.70
  -4   0 -11  -43.30   40.40
  -4   0 -11   47.40   48.40
  -4   0 -11   35.90   12.00
   4   0  11   44.60   19.30
   4   0  11    0.70   19.60
   4   0  11   -7.20   13.00
   4   0  11   -2.20    5.20
   4   0  11   -5.40   11.90
  -5   0 -11    4.30   41.10
  -5   0 -11  -26.40   39.10
   5   0  11   14.10   10.00
   5   0  11   11.00   11.80
   5   0  11   24.10   20.60
  -6   0 -11   77.99   44.70
  -6   0 -11  -11.40   56.39
  -6   0 -11   15.80   47.50
   6   0  11    1.20    8.00
   6   0  11   24.30   18.80
  -7   0 -11    8.00   44.60
  -7   0 -11  -31.60   35.00
  -7   0 -11  -52.29   51.49
   7   0  11  -10.60   19.70
   7   0  11   22.00   11.20
   7   0  11   47.90   27.70
  -8   0 -11   61.79   54.19
  -8   0 -11  -86.39   53.89
  -8   0 -11   37.30   42.40
   8   0  11   60.49   48.40
   8   0  11   13.10   15.90
   8   0  11  -14.80   17.30
   3  -1 -11   87.09   77.19
  -3   1  11   70.59   32.20
  -3   1  11   56.69   40.50
  -3   1  11   80.69   28.40
   2  -1 -11   15.00   56.09
   2  -1 -11   63.89   39.10
  -2   1  11   87.09   38.40
  -2   1  11   94.19   27.90
  -2   1  11   77.79   38.60
  -2   1  11   83.79   17.70
   1  -1 -11  159.68   45.10
   1  -1 -11   65.99   44.20
  -1   1  11  149.88   43.90
  -1   1  11  181.98   42.30
  -1   1  11  122.09   16.70
   0  -1 -11  248.78   68.69
   0   1  11  305.87   68.29
   0   1  11  269.97   24.40
   0   1  11  271.97   39.20
  -1  -1 -11   79.39   55.69
  -1  -1 -11  133.99   45.40
   1   1  11  137.79   18.00
   1   1  11  229.28   56.49
   1   1  11  162.78   37.20
  -2  -1 -11  -19.50   37.10
   2   1  11  -10.80    4.70
   2   1  11   18.80   20.80
   2   1  11   -0.10   10.30
  -3  -1 -11   -4.50   44.90
  -3  -1 -11  -12.60   31.90
  -3  -1 -11   23.80   18.00
  -3  -1 -11   66.39   47.80
   3   1  11   -1.80   20.60
   3   1  11   29.40   12.80
   3   1  11   13.60    6.90
  -4  -1 -11   61.19   52.89
  -4  -1 -11  163.18   79.59
  -4  -1 -11   84.19   65.09
  -4  -1 -11  182.38   29.10
  -4  -1 -11  216.28   31.10
   4   1  11  228.88   32.90
   4   1  11  164.18   49.90
   4   1  11  156.88   26.90
   4   1  11  228.98   39.90
   4   1  11  176.28   45.20
  -5  -1 -11  177.48   74.99
  -5  -1 -11  242.78   94.99
  -5  -1 -11  154.58   75.49
  -5  -1 -11  314.57   30.90
   5   1  11  259.77   43.70
   5   1  11  336.97   47.80
   5   1  11  335.57   32.00
   5   1  11  323.97   31.80
  -6  -1 -11  622.64  139.09
  -6  -1 -11  354.16  121.49
   6   1  11  567.24   45.80
   6   1  11  561.24   49.10
   6   1  11  577.34   67.59
  -7  -1 -11  257.67   80.29
  -7  -1 -11   99.09   70.99
  -7  -1 -11   71.09   71.29
   7   1  11  130.29   30.70
   7   1  11  215.48   27.90
   7   1  11  181.38   46.30
  -8  -1 -11  150.28   55.09
  -8  -1 -11   50.29   65.59
  -8  -1 -11   -1.60   59.29
   8   1  11   91.39   32.20
   8   1  11   79.59   19.60
   8   1  11  139.59   38.10
   3  -2 -11  -56.59   56.99
   3  -2 -11  -48.90   35.10
   3  -2 -11   28.50   60.89
  -3   2  11    0.20   27.90
  -3   2  11   25.20   18.50
  -3   2  11   31.50   15.60
   2  -2 -11  -48.30   56.89
   2  -2 -11   38.10   48.80
   2  -2 -11   62.99   39.60
  -2   2  11   35.60   18.10
  -2   2  11   18.60    8.40
  -2   2  11   28.30   20.60
   1  -2 -11  100.99   35.90
   1  -2 -11    4.30   34.40
   1  -2 -11  -60.59   62.79
  -1   2  11   23.00   19.40
  -1   2  11   38.20   11.40
   0  -2 -11  116.69   78.19
   0  -2 -11  144.59   43.30
   0  -2 -11   95.19   61.09
   0   2  11  106.69   42.20
   0   2  11  115.59   19.50
   0   2  11  134.79   31.90
  -1  -2 -11   48.70   36.10
  -1  -2 -11   67.19   59.09
  -1  -2 -11  -21.50   45.40
   1   2  11   64.29   20.60
   1   2  11   47.00   11.70
   1   2  11   18.30   27.40
  -2  -2 -11   -2.50   34.60
  -2  -2 -11   23.60   26.60
  -2  -2 -11    7.90   48.70
   2   2  11   10.50   17.80
   2   2  11   23.30   10.40
   2   2  11   16.00   14.20
  -3  -2 -11   50.79   29.80
  -3  -2 -11   30.40   42.50
  -3  -2 -11   12.40   34.20
  -3  -2 -11   64.19   65.99
   3   2  11   94.69   22.10
   3   2  11  119.39   20.80
   3   2  11   98.99   29.80
   3   2  11   60.29   32.20
   3   2  11   83.19   11.70
  -4  -2 -11  227.28   89.69
  -4  -2 -11  306.37   43.00
  -4  -2 -11   85.39   64.39
   4   2  11  226.68   26.00
   4   2  11  218.58   52.69
   4   2  11  282.07   40.50
   4   2  11  203.18   22.70
  -5  -2 -11  227.08   99.49
  -5  -2 -11  208.48  102.29
  -5  -2 -11  173.78   38.50
  -5  -2 -11  103.99   68.89
   5   2  11  226.58   27.30
   5   2  11  243.68   26.20
   5   2  11  231.38   49.90
  -6  -2 -11  545.95  134.89
  -6  -2 -11  377.66  106.19
  -6  -2 -11  606.44   49.10
  -6  -2 -11  376.46  129.69
   6   2  11  521.65   46.60
   6   2  11  559.14   45.30
   6   2  11  630.74   66.99
  -7  -2 -11   93.19   63.29
  -7  -2 -11  117.79   63.49
  -7  -2 -11   71.29   67.39
   7   2  11  122.79   23.90
   7   2  11   58.49   28.80
   7   2  11   72.19   23.20
  -8  -2 -11   -7.00   62.79
  -8  -2 -11  -63.49   32.80
  -8  -2 -11   60.69   37.70
   8   2  11  -21.20   13.80
   8   2  11  -18.20   17.10
   8   2  11    1.90   18.90
   8   2  11   -0.30   10.50
   3  -3 -11   58.99   73.89
   3  -3 -11  143.49   32.40
   3  -3 -11  122.79   57.89
   3  -3 -11  168.98   68.99
  -3   3  11   74.79   45.90
  -3   3  11  120.19   42.30
   2  -3 -11  -38.40   54.09
   2  -3 -11  -16.00   20.50
   2  -3 -11   43.30   38.60
   2  -3 -11  -66.89   49.10
  -2   3  11   28.80    9.10
  -2   3  11   50.99   28.00
  -2   3  11   -3.10   14.20
   1  -3 -11  -29.40   49.60
   1  -3 -11  -43.30   49.50
   1  -3 -11   10.50   18.30
   1  -3 -11  -35.60   26.40
  -1   3  11   23.80   12.30
  -1   3  11    3.40    5.80
  -1   3  11   21.30   16.90
  -1   3  11   -0.30   14.00
   0  -3 -11    2.80   47.40
   0  -3 -11   48.10   29.50
   0  -3 -11  -65.69   39.80
   0   3  11  -11.00   10.80
   0   3  11   -7.40    7.50
   0   3  11    5.40   18.70
   0   3  11   19.00    9.10
   0   3  11   13.40   13.00
  -1  -3 -11  -26.70   38.30
  -1  -3 -11   69.59   56.89
  -1  -3 -11   45.60   28.30
   1   3  11   20.40    9.50
   1   3  11   39.40   27.50
   1   3  11   26.00   14.50
  -2  -3 -11   -2.10   39.90
  -2  -3 -11   10.30   51.29
  -2  -3 -11   25.30   23.10
   2   3  11    5.50    6.60
   2   3  11   16.70   10.40
   2   3  11    8.10   14.70
   2   3  11    5.00    6.10
   2   3  11   13.70   18.50
  -3  -3 -11   33.40   45.00
  -3  -3 -11   12.90   48.30
  -3  -3 -11   63.69   31.50
   3   3  11   26.30   24.60
   3   3  11   24.40   14.70
   3   3  11   23.00    9.40
   3   3  11   17.00    8.90
  -4  -3 -11   61.69   47.90
  -4  -3 -11  -60.79   40.60
  -4  -3 -11    0.50   49.70
  -4  -3 -11   60.89   31.00
   4   3  11   63.49   26.20
   4   3  11   27.30   16.90
   4   3  11   49.60   13.30
   4   3  11   14.00    9.30
  -5  -3 -11   24.40   16.50
  -5  -3 -11  -49.50   31.00
  -5  -3 -11  -12.00   43.90
  -5  -3 -11  -31.00   32.10
   5   3  11   11.30    6.70
   5   3  11    2.60    9.60
   5   3  11   10.10   15.60
  -6  -3 -11  101.09   28.60
  -6  -3 -11   65.39   53.89
  -6  -3 -11   31.10   43.80
  -6  -3 -11   56.49   49.20
   6   3  11   33.80   15.30
   6   3  11   54.79   17.50
   6   3  11   55.59   22.40
   6   3  11   37.10   21.30
  -7  -3 -11   31.90   44.10
  -7  -3 -11   19.90   45.80
  -7  -3 -11   29.30   24.10
   7   3  11   37.10   20.70
   7   3  11   19.40   19.80
   7   3  11   56.19   13.90
   7   3  11   44.20   18.10
  -8  -3 -11  -90.39   45.20
  -8  -3 -11  -25.40   32.30
   8   3  11  -13.10    7.10
   8   3  11   -0.10   12.90
   8   3  11   25.00   20.00
   8   3  11    2.10   19.60
  -9  -3 -11  113.29   50.99
   9   3  11   -1.10   21.60
   2  -4 -11   74.69   50.59
   2  -4 -11  -19.60   53.59
   2  -4 -11   -3.60   66.79
  -2   4  11   47.60   21.10
  -2   4  11   47.20   32.30
   1  -4 -11  -21.50   67.69
   1  -4 -11  -43.70   50.19
   1  -4 -11   67.09   24.50
   1  -4 -11   51.79   31.60
  -1   4  11   30.30   12.50
  -1   4  11  103.69   31.40
  -1   4  11   62.79   20.10
   0  -4 -11   79.69   71.89
   0  -4 -11    5.70   52.29
   0  -4 -11   89.99   20.40
   0  -4 -11   52.39   28.90
   0   4  11   52.89   15.10
   0   4  11   24.10   12.40
   0   4  11   35.10   17.10
   0   4  11   50.99   26.70
  -1  -4 -11  -53.09   35.30
  -1  -4 -11   -3.00   24.90
  -1  -4 -11  -80.19   41.10
   1   4  11  -13.40    5.40
   1   4  11   -0.20   10.30
   1   4  11    2.80   10.70
   1   4  11    8.60   16.20
  -2  -4 -11  357.26  120.59
  -2  -4 -11  273.77  100.79
  -2  -4 -11  498.35   72.79
   2   4  11  433.26   49.00
   2   4  11  407.56   35.00
   2   4  11  407.06   59.99
   2   4  11  423.86   38.40
  -3  -4 -11  442.26   70.49
  -3  -4 -11  450.65  139.09
  -3  -4 -11  249.58  101.99
   3   4  11  462.15   39.40
   3   4  11  542.75   66.99
   3   4  11  570.14   54.39
   3   4  11  478.25   38.00
  -4  -4 -11  335.97  122.29
  -4  -4 -11  423.96   67.79
  -4  -4 -11  301.67   89.59
  -4  -4 -11  390.86  116.69
   4   4  11  434.16   39.20
   4   4  11  498.25   38.30
   4   4  11  510.05   63.69
   4   4  11  417.86   47.00
  -5  -4 -11  188.38   85.59
  -5  -4 -11  135.59   75.59
  -5  -4 -11  144.59   64.89
  -5  -4 -11  268.47   61.79
   5   4  11  251.47   27.00
   5   4  11  280.67   39.00
   5   4  11  182.98   39.40
  -6  -4 -11  -83.59   40.90
  -6  -4 -11   35.00   23.90
  -6  -4 -11   33.70   40.70
  -6  -4 -11    9.20   37.70
   6   4  11    0.40   12.00
   6   4  11   19.20   13.00
   6   4  11   -1.80    8.50
  -7  -4 -11  151.88   35.70
  -7  -4 -11   37.20   40.00
  -7  -4 -11   15.30   50.59
  -7  -4 -11   37.90   48.20
   7   4  11   49.90   24.00
   7   4  11   84.79   20.90
   7   4  11   25.70   25.30
   7   4  11   49.70   14.30
  -8  -4 -11   14.90   19.30
  -8  -4 -11  -40.60   53.19
  -8  -4 -11   -0.20   38.70
  -8  -4 -11   30.50   55.39
   8   4  11   -4.50   22.00
   8   4  11   -5.70   15.40
   8   4  11  -12.80    8.60
   8   4  11   13.50   17.40
  -9  -4 -11   40.10   44.70
  -9  -4 -11  -34.40   49.70
  -9  -4 -11  -51.09   52.99
   9   4  11   21.80   27.00
   9   4  11   -6.00    9.30
   9   4  11  -16.10   15.10
   2  -5 -11  -48.00   64.59
   2  -5 -11   21.60   27.70
   2  -5 -11  115.69   36.90
  -2   5  11   18.70   14.50
  -2   5  11   97.39   28.40
  -2   5  11   88.99   29.10
   1  -5 -11   51.69   75.49
   1  -5 -11   77.69   26.50
   1  -5 -11   24.90   32.40
   1  -5 -11  -10.30   65.69
  -1   5  11   51.09   19.90
  -1   5  11   38.70   15.30
  -1   5  11   63.79   54.99
   0  -5 -11  113.29   91.49
   0  -5 -11   50.49   23.90
   0  -5 -11   -3.10   48.80
   0  -5 -11   90.99   45.40
   0   5  11   49.80   18.10
   0   5  11   47.80   16.60
   0   5  11   20.20   19.40
   0   5  11   20.80   28.80
  -1  -5 -11   19.90   27.10
  -1  -5 -11   36.80   60.99
  -1  -5 -11   25.60   15.50
  -1  -5 -11  -16.70   51.39
   1   5  11  -11.50   16.20
   1   5  11   14.70    8.40
   1   5  11   57.39   20.50
   1   5  11   21.10   13.90
  -2  -5 -11  136.09   49.60
  -2  -5 -11    1.20   39.60
  -2  -5 -11   39.20   63.39
   2   5  11   96.79   21.20
   2   5  11   67.49   23.30
   2   5  11   76.29   28.30
   2   5  11   62.39   22.50
  -3  -5 -11  552.44   79.29
  -3  -5 -11  484.75  132.99
  -3  -5 -11  266.77   94.89
   3   5  11  479.05   40.00
   3   5  11  549.25   50.69
   3   5  11  527.95   64.39
   3   5  11  512.85   48.60
  -4  -5 -11  206.58   84.99
  -4  -5 -11  353.96   78.09
  -4  -5 -11  274.27   96.29
   4   5  11  244.78   49.10
   4   5  11  275.57   36.70
   4   5  11  242.38   27.80
   4   5  11  283.27   37.20
  -5  -5 -11   68.59   39.20
  -5  -5 -11   91.49   70.99
  -5  -5 -11   46.60   40.10
  -5  -5 -11   84.19   67.49
  -5  -5 -11   32.10   44.50
   5   5  11  141.29   31.30
   5   5  11  114.29   27.10
   5   5  11   81.09   19.60
  -6  -5 -11  -22.80   40.50
  -6  -5 -11   23.40   23.80
  -6  -5 -11   48.20   38.90
  -6  -5 -11   56.79   58.49
   6   5  11   26.20   16.60
   6   5  11   17.80   14.10
   6   5  11   34.10   11.30
  -7  -5 -11   54.39   48.00
  -7  -5 -11  114.29   38.30
  -7  -5 -11    4.50   44.60
  -7  -5 -11   -9.10   39.80
   7   5  11   69.89   24.50
   7   5  11   68.19   16.70
   7   5  11   57.09   18.00
   7   5  11   54.79   25.10
  -8  -5 -11   32.60   25.00
  -8  -5 -11  -14.70   31.70
  -8  -5 -11   19.00   42.70
   8   5  11   33.90   20.90
   8   5  11   19.90   22.40
   8   5  11   24.00   17.50
  -9  -5 -11   15.30   50.49
   9   5  11    9.40   28.30
   9   5  11   48.50   14.10
   9   5  11   -9.30   20.30
   1  -6 -11    7.90   60.99
   1  -6 -11   58.99   27.70
   1  -6 -11  -45.90   30.60
   1  -6 -11   41.40   68.69
  -1   6  11  -22.60   11.20
  -1   6  11    3.30   11.60
  -1   6  11   21.90   16.90
   0  -6 -11   92.69   22.70
   0  -6 -11   78.79   67.39
   0  -6 -11   28.30   34.30
   0  -6 -11    9.30   46.70
   0   6  11   34.70   22.20
   0   6  11   38.80   19.10
   0   6  11   24.40   15.30
   0   6  11   34.70   27.30
  -1  -6 -11  198.88   72.09
  -1  -6 -11   97.09  107.69
  -1  -6 -11    4.10   53.99
   1   6  11  131.99   25.10
   1   6  11  149.39   39.90
   1   6  11  186.98   39.90
   1   6  11  147.19   40.00
  -2  -6 -11  -45.00   64.79
  -2  -6 -11    2.00   22.10
  -2  -6 -11  -43.70   44.40
  -2  -6 -11   -0.80   16.60
   2   6  11   31.70   22.20
   2   6  11  -15.60   18.00
   2   6  11   30.80   14.10
   2   6  11   -6.00    7.10
  -3  -6 -11  121.79   47.60
  -3  -6 -11   61.39   58.39
  -3  -6 -11  193.98   91.89
   3   6  11  103.19   21.80
   3   6  11  179.68   37.70
   3   6  11  188.38   39.10
   3   6  11  152.98   38.80
  -4  -6 -11   13.90   41.80
  -4  -6 -11   71.79   25.40
  -4  -6 -11  -47.10   31.10
   4   6  11   25.50   18.20
   4   6  11   52.49   18.60
   4   6  11    4.80    8.80
   4   6  11   12.70   11.70
  -5  -6 -11  -15.30   20.10
  -5  -6 -11   12.00   36.80
  -5  -6 -11  -37.70   44.10
   5   6  11   11.70   10.60
   5   6  11    4.80   10.50
   5   6  11  -21.30   12.20
  -6  -6 -11  -47.10   38.50
  -6  -6 -11   -9.10   45.80
  -6  -6 -11   37.80   23.50
   6   6  11    4.00    9.00
   6   6  11   30.50   14.40
   6   6  11   40.10   16.00
  -7  -6 -11   -1.50   24.50
  -7  -6 -11  -43.60   34.70
  -7  -6 -11  -38.80   34.00
   7   6  11   -4.80    8.30
   7   6  11    5.70   14.40
   7   6  11    5.80   16.10
  -8  -6 -11   19.70   43.20
  -8  -6 -11   16.30   29.00
  -8  -6 -11  -17.10   40.10
   8   6  11  -26.30   19.30
   8   6  11   -1.80    8.70
   8   6  11   27.60   22.10
   8   6  11   41.80   18.30
   0  -7 -11  160.08   36.80
   0  -7 -11  144.19   55.39
   0  -7 -11   93.29   76.09
   0   7  11   49.60   30.70
   0   7  11  108.29   30.80
   0   7  11  120.49   34.60
  -1  -7 -11   97.89   55.89
  -1  -7 -11  154.48   74.09
  -1  -7 -11  232.88   69.09
  -1  -7 -11  172.18   43.70
   1   7  11  171.38   31.20
   1   7  11  194.58   42.20
   1   7  11  125.59   46.00
   1   7  11  285.77   46.40
  -2  -7 -11  432.86  132.19
  -2  -7 -11  359.96   85.59
  -2  -7 -11  372.46   64.79
  -2  -7 -11  247.98   67.09
   2   7  11  313.37   49.30
   2   7  11  323.37   58.09
   2   7  11  329.77   37.60
   2   7  11  380.56   45.50
  -3  -7 -11   50.39   31.00
  -3  -7 -11  -39.60   37.50
  -3  -7 -11   77.29   64.59
   3   7  11   55.89   16.00
   3   7  11   30.90   24.70
   3   7  11   25.70   18.90
   3   7  11   53.79   25.40
  -4  -7 -11  -22.40   38.40
  -4  -7 -11  -67.39   41.60
  -4  -7 -11  -45.90   32.50
  -4  -7 -11    6.10   19.70
   4   7  11    8.30   15.40
   4   7  11    1.90    9.50
   4   7  11  -14.90   16.70
  -5  -7 -11   62.59   49.10
  -5  -7 -11   43.20   27.70
   5   7  11   35.10   14.90
  -6  -7 -11    7.50   25.50
  -6  -7 -11   14.90   50.59
  -6  -7 -11  -48.50   34.20
   6   7  11    5.40    8.00
   6   7  11    0.80   11.10
   6   7  11    9.60   16.00
  -7  -7 -11   33.60   47.80
  -7  -7 -11   57.99   32.40
  -7  -7 -11    0.80   37.00
   7   7  11    4.00   10.00
   7   7  11   33.90   21.40
   7   7  11   31.30   19.10
  -8  -7 -11  -60.09   32.80
  -8  -7 -11  -34.70   38.30
  -8  -7 -11  -20.80   25.60
   8   7  11    2.50    8.40
   8   7  11   11.00   20.20
  -1  -8 -11  -17.70   27.70
  -1  -8 -11  -17.30   58.99
  -1  -8 -11   21.10   30.10
   1   8  11   64.59   22.50
   1   8  11   48.00   31.10
   1   8  11   23.50   16.70
  -2  -8 -11  197.18   62.49
  -2  -8 -11  190.28   43.90
  -2  -8 -11   65.49   71.19
   2   8  11  131.09   28.50
   2   8  11  278.07   44.60
   2   8  11  165.78   38.00
   2   8  11   95.09   36.70
  -3  -8 -11   37.20   38.50
  -3  -8 -11   -8.70   22.90
  -3  -8 -11   -4.60   55.49
   3   8  11   13.50   22.90
   3   8  11   -8.10   19.10
   3   8  11   33.50   16.10
   3   8  11   -4.10    8.80
  -4  -8 -11    9.20   46.00
  -4  -8 -11  -32.20   29.80
  -4  -8 -11   16.40   32.90
   4   8  11   -7.60   11.90
   4   8  11    0.00   11.80
   4   8  11    1.80   21.20
  -5  -8 -11    0.30   31.40
  -5  -8 -11   39.90   55.99
  -5  -8 -11   53.39   24.60
   5   8  11  -14.10    8.80
   5   8  11   14.70   13.00
   5   8  11  -21.80   15.40
  -6  -8 -11   18.50   29.40
  -6  -8 -11   21.60   38.20
  -6  -8 -11    1.10   43.80
   6   8  11   31.30   14.40
   6   8  11   25.50   11.40
   6   8  11   29.40   19.10
  -7  -8 -11   96.39   51.09
  -7  -8 -11  161.18   73.29
  -7  -8 -11  159.98   46.60
   7   8  11  109.59   32.30
   7   8  11  118.59   22.10
   7   8  11   98.09   27.10
  -8  -8 -11  108.99   75.59
  -8  -8 -11  154.78   70.99
  -8  -8 -11  236.68   70.49
   8   8  11  165.08   30.60
   8   8  11  201.38   46.00
   8   8  11  154.58   52.79
  -2  -9 -11  -10.20   26.50
  -2  -9 -11   24.30   28.40
  -2  -9 -11    3.90   54.79
   2   9  11   33.50   21.70
   2   9  11   14.90   12.70
   2   9  11  -12.20   13.60
   2   9  11  -22.00   27.70
  -3  -9 -11   52.29   44.10
  -3  -9 -11  -24.20   50.09
  -3  -9 -11  -21.10   26.50
   3   9  11  -11.20   14.50
  -4  -9 -11    8.20   42.10
  -4  -9 -11  -12.00   49.10
   4   9  11   58.59   22.20
   4   9  11   17.10   13.40
   4   9  11    4.20   35.10
  -5  -9 -11    1.10   34.10
  -5  -9 -11  -12.50   47.60
   5   9  11   36.80   14.50
   5   9  11   -5.80    9.90
  -6  -9 -11   56.99   37.20
  -6  -9 -11   -6.10   51.69
  -6  -9 -11  -28.60   31.60
   6   9  11   17.10   10.30
   6   9  11   18.20   15.60
   6   9  11   19.50   12.00
  -7  -9 -11  -42.70   41.40
  -7  -9 -11   84.49   50.29
  -7  -9 -11   50.69   44.80
   7   9  11   52.49   18.40
   7   9  11   49.99   25.00
   7   9  11   41.50   20.90
   1   5 -12   40.40   33.30
   1   5 -12  -75.49   49.00
   1   5 -12   64.69   38.90
   1   5 -12   29.80   32.50
  -1  -5  12   53.89   29.30
  -1  -5  12    5.50   18.50
  -1  -5  12   35.00   36.20
   0   5 -12   85.39   67.99
   0   5 -12   66.99   40.60
   0   5 -12   55.99   53.69
   0   5 -12   73.49   29.50
   0  -5  12   71.99   32.90
   0  -5  12   62.79   39.80
   0  -5  12   41.40   18.80
  -1   5 -12   58.09   47.70
  -1   5 -12   -3.40   34.60
  -1   5 -12   86.99   62.49
   1  -5  12   38.60   23.70
   1  -5  12   48.50   34.80
   1  -5  12   24.20   22.40
  -2   5 -12   61.49   43.00
  -2   5 -12   43.00   43.40
   2  -5  12   56.59   19.70
   2  -5  12   28.20   23.10
   2  -5  12   35.50   34.80
  -3   5 -12   23.10   54.89
  -3   5 -12  183.68   59.79
  -3   5 -12  -20.00   60.29
   3  -5  12   46.40   27.60
   3  -5  12  109.69   27.10
   2   4 -12  120.49   54.09
   2   4 -12  -61.59   42.30
   2   4 -12  143.39   49.20
  -2  -4  12  -33.40   24.00
  -2  -4  12    2.20   21.40
   1   4 -12   79.49   34.00
   1   4 -12    9.70   52.59
   1   4 -12   58.19   70.59
  -1  -4  12   -7.10   21.60
  -1  -4  12   28.20   32.90
  -1  -4  12  -23.60   14.00
   0   4 -12  -37.00   38.60
   0   4 -12  -54.49   38.10
   0   4 -12   58.59   48.00
   0   4 -12    4.30   25.10
   0  -4  12  -34.10   23.90
   0  -4  12   15.20   15.10
   0  -4  12   30.80   19.20
  -1   4 -12   -3.80   23.60
  -1   4 -12   34.20   42.60
  -1   4 -12   43.20   60.59
   1  -4  12   17.80   22.30
   1  -4  12   36.30   14.40
   1  -4  12  -14.80   26.80
  -2   4 -12  149.49   75.79
  -2   4 -12   -2.20   37.50
  -2   4 -12   73.49   64.49
  -3   4 -12  177.98   75.99
  -3   4 -12   65.89   67.69
   3  -4  12  149.29   33.30
   3  -4  12  163.58   50.49
   3  -4  12  159.18   57.99
  -4   4 -12   44.60   56.59
  -4   4 -12  149.69   60.89
  -4   4 -12  100.59   68.49
   4  -4  12    6.10   33.30
   4  -4  12   22.60   26.20
   4  -4  12   -0.50   17.20
  -5   4 -12   31.20   64.19
   5  -4  12    4.90   39.40
   5  -4  12   46.30   16.30
   5  -4  12   44.10   29.20
   2   3 -12   76.29   55.29
   2   3 -12   52.79   50.49
  -2  -3  12   50.99   32.30
  -2  -3  12   51.29   33.50
   1   3 -12   97.79   48.40
   1   3 -12   41.90   45.50
   1   3 -12   92.09   39.90
  -1  -3  12   41.40   15.00
  -1  -3  12   18.20   23.90
  -1  -3  12   55.49   33.00
   0   3 -12  112.49   44.40
   0   3 -12   -2.40   54.89
   0   3 -12   -3.00   56.09
   0  -3  12  140.99   53.29
   0  -3  12  112.49   42.40
   0  -3  12   80.49   23.80
  -1   3 -12  117.59   62.19
  -1   3 -12   85.09   28.20
  -1   3 -12  -25.50   56.09
  -1   3 -12    8.50   33.10
   1  -3  12   48.20   29.20
   1  -3  12    7.10   35.00
   1  -3  12   69.49   20.80
  -2   3 -12  -28.80   63.69
  -2   3 -12   31.20   54.39
  -2   3 -12  -11.60   39.00
   2  -3  12   27.50   31.90
   2  -3  12   73.39   28.60
   2  -3  12   14.30   14.20
  -3   3 -12   44.50   63.89
  -3   3 -12   51.39   50.29
  -3   3 -12   37.60   50.29
   3  -3  12   12.40   31.40
   3  -3  12   57.69   27.60
  -4   3 -12  -45.80   48.60
  -4   3 -12  -26.60   46.40
  -4   3 -12   29.60   43.70
   4  -3  12  -23.60   22.40
   4  -3  12    0.10   12.80
   4  -3  12   12.80   17.20
  -5   3 -12  119.59   57.49
  -5   3 -12  115.89   56.59
  -5   3 -12  -13.20   58.09
   5  -3  12   18.80   29.90
   5  -3  12    6.80   21.90
   5  -3  12   18.50   13.60
   3   2 -12  134.19   60.89
   2   2 -12   18.50   73.69
   2   2 -12   30.20   58.79
   2   2 -12  -28.30   35.10
  -2  -2  12  -15.30   19.20
  -2  -2  12  -15.40   24.80
   1   2 -12    3.00   67.79
   1   2 -12   68.79   66.19
   1   2 -12   36.60   37.60
  -1  -2  12   32.40   25.70
  -1  -2  12   42.90   28.00
  -1  -2  12   27.00   15.10
   0   2 -12   14.10   61.19
   0   2 -12  -59.49   49.70
   0   2 -12   16.50   26.60
   0  -2  12   62.89   16.40
   0  -2  12   33.00   21.30
   0  -2  12   39.80   27.40
  -1   2 -12  103.39   61.59
  -1   2 -12  316.87   45.10
  -1   2 -12   75.09   51.69
   1  -2  12  244.88   69.09
   1  -2  12  199.78   52.79
   1  -2  12  207.38   28.50
  -2   2 -12   16.50   45.50
  -2   2 -12  137.09   72.59
   2  -2  12  109.69   23.40
   2  -2  12  104.39   56.49
   2  -2  12   79.09   28.80
  -3   2 -12   -7.10   51.29
  -3   2 -12   70.29   59.39
  -3   2 -12   27.00   45.10
   3  -2  12   44.70   50.09
   3  -2  12   21.00   12.80
   3  -2  12   49.80   25.80
  -4   2 -12  -37.10   39.80
  -4   2 -12  -53.39   39.30
  -4   2 -12   44.30   48.60
   4  -2  12   -9.70   22.70
   4  -2  12   26.40   16.00
   4  -2  12   36.20   27.90
  -5   2 -12  -38.80   46.50
  -5   2 -12   89.19   64.39
  -5   2 -12   56.19   49.30
   5  -2  12  -31.00   22.90
   5  -2  12   37.80   25.00
  -6   2 -12  164.78   81.69
  -6   2 -12  143.09   67.99
  -6   2 -12  130.79   63.99
   6  -2  12  134.19   31.30
   6  -2  12  177.98   48.30
   6  -2  12  108.29   35.80
   3   1 -12   83.89   66.09
   3   1 -12  -47.40   44.60
   3   1 -12   17.80   48.50
  -3  -1  12   47.20   31.60
  -3  -1  12   23.40   16.10
   2   1 -12   51.89   54.09
   2   1 -12  -44.70   56.29
   2   1 -12  -53.39   43.70
  -2  -1  12   32.60   24.90
  -2  -1  12   55.89   31.50
   1   1 -12  -72.09   48.60
   1   1 -12   30.10   56.39
   1   1 -12   19.00   31.20
  -1  -1  12   -2.30   11.90
  -1  -1  12   16.10   23.20
  -1  -1  12   23.70   11.80
   0   1 -12  -32.00   29.00
   0   1 -12   17.70   62.39
   0   1 -12   33.90   62.49
   0  -1  12   32.90   19.30
   0  -1  12   44.50   24.30
   0  -1  12    9.30   10.90
  -1   1 -12   84.39   61.49
  -1   1 -12  -36.50   40.10
  -1   1 -12   15.80   25.60
   1  -1  12   50.49   25.00
   1  -1  12   26.00   22.10
   1  -1  12   13.10   10.80
  -2   1 -12  129.19   32.20
  -2   1 -12   40.60   50.19
  -2   1 -12   60.59   54.29
   2  -1  12   76.09   34.80
   2  -1  12   79.69   29.40
   2  -1  12   62.99   18.30
  -3   1 -12  -17.10   49.60
  -3   1 -12   19.10   46.10
  -3   1 -12   13.90   53.19
   3  -1  12   63.59   30.30
   3  -1  12  103.89   43.40
   3  -1  12   83.89   19.70
  -4   1 -12   39.20   64.79
  -4   1 -12  -16.60   39.40
   4  -1  12   22.20   11.60
   4  -1  12   52.39   33.50
   4  -1  12   28.10   19.20
   4  -1  12   34.40   17.30
  -5   1 -12  120.29   63.49
  -5   1 -12   87.29   70.89
   5  -1  12  116.89   25.70
   5  -1  12   70.99   31.70
   5  -1  12   59.79   25.40
  -6   1 -12   77.59   61.59
  -6   1 -12   38.80   44.90
  -6   1 -12  126.49   58.59
   6  -1  12  131.69   28.00
   6  -1  12   60.79   28.80
   6  -1  12   73.69   29.90
  -7   1 -12   92.39   56.79
  -7   1 -12   69.19   74.69
  -7   1 -12  -24.40   50.89
   7  -1  12   51.59   16.00
   7  -1  12  159.98   44.40
   7  -1  12   -2.60   24.10
   3   0 -12   47.90   36.10
   3   0 -12   84.69   81.59
   3   0 -12   63.19   77.29
  -3   0  12   79.29   39.30
  -3   0  12   37.50   22.30
  -3   0  12   28.20   20.20
   2   0 -12   35.50   45.00
   2   0 -12    5.70   50.89
   2   0 -12   67.59   47.90
  -2   0  12  -30.20   23.90
  -2   0  12   84.39   31.10
   1   0 -12   78.29   47.90
   1   0 -12   50.29   31.20
   1   0 -12  -47.80   64.09
  -1   0  12   28.80   29.80
  -1   0  12   17.50   11.30
  -1   0  12   24.70   15.30
   0   0 -12  -71.19   47.30
   0   0 -12    0.00   32.90
   0   0 -12   77.79   50.19
   0   0  12   -1.90    8.40
   0   0  12   13.30   26.40
   0   0  12   17.60   17.50
  -1   0 -12   77.89   37.10
  -1   0 -12  108.69   66.59
   1   0  12  120.39   44.90
   1   0  12   67.19   26.70
   1   0  12   63.49   16.40
  -2   0 -12   16.30   29.60
  -2   0 -12   41.70   25.60
  -2   0 -12   -7.40   33.90
   2   0  12   20.80   16.80
   2   0  12    8.70    7.50
   2   0  12   -6.60   20.90
  -3   0 -12   25.30   45.40
  -3   0 -12    3.10   49.60
   3   0  12    0.20   20.60
   3   0  12   -2.40   12.60
   3   0  12  -35.70   17.30
   3   0  12    6.20    9.00
  -4   0 -12  -11.20   41.70
  -4   0 -12  -79.29   41.50
  -4   0 -12   10.50   52.29
   4   0  12   35.40   13.10
   4   0  12   30.20   11.80
   4   0  12   21.20   28.80
   4   0  12   11.70   12.40
  -5   0 -12  140.09   85.59
  -5   0 -12   -9.70   53.49
  -5   0 -12   55.69   43.40
   5   0  12   69.99   19.90
   5   0  12   39.40   19.40
  -6   0 -12  -41.80   47.30
  -6   0 -12  -24.90   41.60
  -6   0 -12  -31.00   48.00
   6   0  12   -9.50    6.70
   6   0  12   13.90   17.00
   6   0  12   -3.00   20.20
  -7   0 -12   20.70   49.90
  -7   0 -12  -98.59   51.09
   7   0  12   79.09   37.50
   7   0  12   20.80   20.60
   7   0  12   28.40   11.20
   2  -1 -12   12.90   51.19
   2  -1 -12  -19.10   38.30
   2  -1 -12   51.29   69.39
  -2   1  12   38.40   29.10
  -2   1  12   40.40   17.50
   1  -1 -12  -24.30   49.90
   1  -1 -12   -9.50   58.89
   1  -1 -12   62.49   49.20
  -1   1  12  126.09   40.00
  -1   1  12   87.39   28.50
  -1   1  12   84.89   16.30
   0  -1 -12  126.39   97.09
   0  -1 -12  231.88   69.09
   0  -1 -12  127.79   80.09
   0   1  12  253.37   41.00
   0   1  12  235.38   24.40
   0   1  12  356.66   81.79
  -1  -1 -12  -27.30   56.19
  -1  -1 -12   15.80   29.70
  -1  -1 -12   90.79   51.79
   1   1  12   47.10   40.20
   1   1  12   97.39   19.50
   1   1  12   79.69   39.00
  -2  -1 -12  108.39   42.30
  -2  -1 -12    5.90   61.89
  -2  -1 -12   45.30   49.80
   2   1  12  144.19   42.60
   2   1  12   96.59   19.30
   2   1  12  137.79   38.60
  -3  -1 -12   51.79   38.10
  -3  -1 -12   11.60   48.20
  -3  -1 -12   31.20   22.80
  -3  -1 -12   65.89   41.60
   3   1  12    2.30   15.70
   3   1  12   27.10   12.30
   3   1  12   19.90   24.40
  -4  -1 -12  294.37  119.69
  -4  -1 -12  433.96   54.39
   4   1  12  389.06   47.90
   4   1  12  349.87   52.29
   4   1  12  363.56   29.20
   4   1  12  330.07   32.40
   4   1  12  309.27   48.60
   4   1  12  394.86   83.29
  -5  -1 -12  334.07  123.09
  -5  -1 -12  192.18   81.39
  -5  -1 -12  161.38  127.49
   5   1  12  345.27   39.40
   5   1  12  384.16   36.40
   5   1  12  370.46   57.19
  -6  -1 -12  111.09   72.89
  -6  -1 -12   90.19   80.59
  -6  -1 -12  159.08   77.89
   6   1  12  189.28   33.40
   6   1  12  165.78   28.80
   6   1  12  208.78   51.49
  -7  -1 -12  188.18   77.39
  -7  -1 -12  135.69   77.99
  -7  -1 -12   69.09   85.09
   7   1  12  124.89   27.00
   7   1  12  160.48   49.50
   7   1  12  163.38   33.90
  -8  -1 -12   90.49   47.90
   8   1  12    1.20    8.50
   8   1  12   30.80   30.20
   2  -2 -12  -88.79   62.29
   2  -2 -12   10.20   36.40
   2  -2 -12 -101.39   51.69
  -2   2  12   22.90   27.90
  -2   2  12   37.60   21.90
   1  -2 -12   26.90   53.19
   1  -2 -12   -6.20   57.19
  -1   2  12  131.89   44.90
  -1   2  12   95.59   27.70
  -1   2  12   77.39   16.00
   0  -2 -12   57.39   62.09
   0  -2 -12   30.10   39.10
   0  -2 -12  -26.40   27.70
   0   2  12   18.30   21.00
   0   2  12   14.70   12.80
  -1  -2 -12   43.00   41.10
  -1  -2 -12  126.69   44.00
  -1  -2 -12   42.40   47.60
   1   2  12   78.29   34.30
   1   2  12   83.09   23.00
   1   2  12   49.30   13.60
  -2  -2 -12  118.59   41.80
  -2  -2 -12   53.39   48.90
  -2  -2 -12   22.70   72.99
   2   2  12   60.49   15.30
   2   2  12  100.59   28.60
   2   2  12   46.00   32.00
  -3  -2 -12   89.59   34.50
  -3  -2 -12   63.09   70.39
  -3  -2 -12   51.69   55.59
  -3  -2 -12    8.40   45.10
   3   2  12   86.59   42.40
   3   2  12  102.79   20.90
   3   2  12  104.59   27.50
  -4  -2 -12  -28.60   44.70
  -4  -2 -12   82.89   49.99
  -4  -2 -12   88.59   60.19
  -4  -2 -12  114.89   30.20
   4   2  12   24.60   20.90
   4   2  12  152.38   41.60
   4   2  12   66.99   17.20
   4   2  12   29.00   27.60
  -5  -2 -12   40.80   64.99
  -5  -2 -12   -3.30   50.19
  -5  -2 -12  -40.20   43.00
   5   2  12  177.78   44.60
  -6  -2 -12   70.99   84.99
  -6  -2 -12   69.49   19.50
  -6  -2 -12    7.30   52.79
  -6  -2 -12   22.40   52.89
   6   2  12    6.60   13.30
   6   2  12    4.90   19.30
   6   2  12   14.70   17.90
   6   2  12   24.40   12.40
  -7  -2 -12   55.49   58.19
  -7  -2 -12   93.59   69.99
  -7  -2 -12   -4.20   51.69
   7   2  12   38.80   20.00
   7   2  12  117.39   39.00
   7   2  12   38.90   21.40
   7   2  12   64.59   18.90
  -8  -2 -12  -93.59   58.69
  -8  -2 -12   39.30   49.20
   8   2  12   13.20   21.90
   8   2  12   -6.90   17.50
   2  -3 -12  -35.50   59.59
   2  -3 -12   84.29   43.00
   2  -3 -12   39.10   64.89
  -2   3  12   39.70   20.50
  -2   3  12   -0.30   19.10
  -2   3  12   46.60   23.40
   1  -3 -12  -16.50   59.49
   1  -3 -12  -17.50   48.50
   1  -3 -12  -44.90   21.70
  -1   3  12   -6.10    9.30
  -1   3  12   -2.80   21.40
  -1   3  12   19.90   15.00
   0  -3 -12  112.99   51.29
   0  -3 -12  -31.20   40.00
   0  -3 -12    0.30   25.90
   0   3  12   13.10   16.70
   0   3  12   34.30   21.70
   0   3  12    1.10    7.60
  -1  -3 -12   87.79   56.09
  -1  -3 -12   17.40   30.30
  -1  -3 -12  -26.70   52.29
   1   3  12   33.30   25.60
   1   3  12   46.70   14.20
   1   3  12   38.50   14.70
  -2  -3 -12  159.88   51.19
  -2  -3 -12  145.69   65.79
  -2  -3 -12  348.57  165.08
   2   3  12  176.48   21.90
   2   3  12  160.68   45.90
  -3  -3 -12  105.39   41.00
  -3  -3 -12   43.60   38.90
  -3  -3 -12  -24.40   47.30
   3   3  12   36.40   11.90
   3   3  12   36.00   21.70
   3   3  12   37.20   24.40
   3   3  12   59.49   11.50
   3   3  12   79.99   38.30
  -4  -3 -12   63.19   36.30
  -4  -3 -12   42.60   54.39
  -4  -3 -12   53.29   65.69
  -4  -3 -12   11.30   48.60
   4   3  12   47.50   22.60
   4   3  12   53.29   14.50
   4   3  12   57.19   15.60
   4   3  12   62.89   27.90
  -5  -3 -12  111.19   58.49
  -5  -3 -12   43.20   22.00
  -5  -3 -12   -4.50   54.09
  -5  -3 -12   36.10   77.79
   5   3  12    1.40   14.20
   5   3  12   15.10   11.50
  -6  -3 -12   31.80   21.50
  -6  -3 -12  -29.00   27.80
  -6  -3 -12  -23.40   58.39
   6   3  12    3.60    8.40
   6   3  12   11.90   15.00
   6   3  12  -20.40   10.70
  -7  -3 -12  -38.00   48.10
  -7  -3 -12  -67.39   42.00
  -7  -3 -12   16.00   18.60
  -7  -3 -12  -12.70   64.29
   7   3  12  -28.60   12.20
   7   3  12    3.00    7.50
   7   3  12   43.20   23.80
  -8  -3 -12  104.39   62.39
  -8  -3 -12  -67.99   34.90
  -8  -3 -12 -111.99   56.49
   8   3  12   23.70   25.30
   8   3  12    5.30   15.30
   8   3  12  -32.90   19.00
   8   3  12   27.30   14.50
   1  -4 -12  129.09   58.29
   1  -4 -12   32.50   23.60
   1  -4 -12  -17.20   71.19
  -1   4  12   25.60   17.60
  -1   4  12   92.79   35.70
  -1   4  12   86.19   26.70
  -1   4  12   33.50   14.70
   0  -4 -12   42.10   67.79
   0  -4 -12   55.59   20.80
   0  -4 -12   77.29   42.00
   0  -4 -12  -25.00   58.19
   0   4  12   86.39   26.40
   0   4  12  112.59   38.60
   0   4  12   22.90   27.30
   0   4  12   62.29   14.90
  -1  -4 -12  140.59   49.10
  -1  -4 -12  -38.60   51.99
  -1  -4 -12   72.29   51.29
   1   4  12   88.79   32.20
   1   4  12  125.59   33.00
   1   4  12   92.49   19.30
   1   4  12  114.79   39.70
  -2  -4 -12  -34.90   49.90
  -2  -4 -12  -22.30   44.10
  -2  -4 -12   42.60   32.30
   2   4  12   62.69   25.30
   2   4  12   97.39   37.80
   2   4  12   36.70   13.60
  -3  -4 -12  213.68   57.79
  -3  -4 -12  147.29   70.69
  -3  -4 -12   49.80   64.39
   3   4  12  291.57   43.40
   3   4  12  170.98   27.00
   3   4  12  247.68   59.79
   3   4  12  209.48   25.20
  -4  -4 -12  291.07   66.79
  -4  -4 -12  294.77  109.19
  -4  -4 -12  187.98   72.79
  -4  -4 -12   58.59  115.39
   4   4  12  256.87   27.40
   4   4  12  233.78   46.50
   4   4  12  257.47   29.00
  -5  -4 -12   56.39   34.20
  -5  -4 -12   27.00   57.69
  -5  -4 -12    9.00   60.59
  -5  -4 -12  -46.40   43.00
   5   4  12   47.70   16.10
   5   4  12   45.30   21.40
  -6  -4 -12  -38.70   31.00
  -6  -4 -12  -81.69   52.29
  -6  -4 -12  -15.10   33.00
   6   4  12   42.70   19.90
   6   4  12   -3.90    5.70
   6   4  12   21.50   14.40
  -7  -4 -12   54.39   23.90
  -7  -4 -12  -18.50   46.70
  -7  -4 -12  -17.60   48.00
  -7  -4 -12   18.60   54.99
   7   4  12  -11.10   17.70
   7   4  12   -7.30   13.30
   7   4  12   21.70    8.70
   7   4  12   47.50   21.10
  -8  -4 -12   26.20   55.99
  -8  -4 -12  -23.00   59.19
  -8  -4 -12   44.10   22.50
   8   4  12  -31.00   21.20
   8   4  12   25.20   24.70
   1  -5 -12 -102.39   67.59
   1  -5 -12   43.50   29.40
   1  -5 -12   88.09   44.60
   1  -5 -12  -65.49   69.89
  -1   5  12   25.50   24.10
  -1   5  12  -32.30   32.40
  -1   5  12    4.00   12.30
  -1   5  12   44.30   21.50
   0  -5 -12   -1.30   64.39
   0  -5 -12   25.60   44.00
   0  -5 -12   45.30   22.40
   0   5  12   50.79   27.30
   0   5  12  -19.60   22.70
  -1  -5 -12   29.00   66.79
  -1  -5 -12   46.90   38.70
   1   5  12   39.10   26.20
   1   5  12   18.10   10.90
   1   5  12   -4.60   19.90
   1   5  12   26.30   12.60
  -2  -5 -12   88.19   69.49
  -2  -5 -12  -25.70   52.79
  -2  -5 -12  108.49   42.90
   2   5  12   -2.60   26.60
   2   5  12   35.70   14.80
   2   5  12   15.90   13.10
   2   5  12   54.49   17.30
  -3  -5 -12  -21.00   28.40
  -3  -5 -12  -23.90   45.70
  -3  -5 -12   50.89   62.89
   3   5  12   33.90   17.50
   3   5  12   67.09   21.70
   3   5  12   73.49   31.00
   3   5  12   36.40   13.80
  -4  -5 -12   10.60   52.19
  -4  -5 -12    8.90   62.39
  -4  -5 -12   17.40   49.99
  -4  -5 -12  109.69   42.90
   4   5  12  100.49   30.90
   4   5  12   69.19   18.80
   4   5  12  108.89   34.30
   4   5  12   43.90   19.40
  -5  -5 -12   10.00   53.39
  -5  -5 -12   75.69   47.30
  -5  -5 -12   27.80   31.60
  -5  -5 -12   42.20   53.69
   5   5  12   39.60   11.60
   5   5  12    5.20   13.70
  -6  -5 -12  -28.40   49.50
  -6  -5 -12   16.70   44.50
  -6  -5 -12   -3.60   42.30
  -6  -5 -12   19.00   27.90
   6   5  12    2.60   10.70
   6   5  12    6.80    9.40
   6   5  12  -16.90   12.10
  -7  -5 -12   27.40   46.80
  -7  -5 -12  -12.70   34.00
  -7  -5 -12   15.90   45.60
  -7  -5 -12   77.19   29.10
   7   5  12   18.10   10.10
   7   5  12   -7.10   15.00
   7   5  12   45.10   24.50
  -8  -5 -12   38.60   47.20
  -8  -5 -12   14.00   24.30
   8   5  12  -15.60   17.00
   8   5  12   -4.10    8.30
   8   5  12    9.10   19.10
   8   5  12  -23.90   15.10
   0  -6 -12   11.70   64.19
   0  -6 -12   68.59   45.70
   0  -6 -12    0.80   27.10
   0  -6 -12   44.00   65.09
   0   6  12   33.90   33.50
   0   6  12   41.70   28.80
   0   6  12   57.59   17.30
   0   6  12   74.49   23.00
  -1  -6 -12   99.69   50.89
  -1  -6 -12  -23.50   63.19
  -1  -6 -12   93.79   31.00
  -1  -6 -12  -14.00   65.39
   1   6  12   99.99   23.40
   1   6  12  115.89   29.30
  -2  -6 -12    2.90   72.59
  -2  -6 -12   36.30   35.80
  -2  -6 -12   31.60   59.89
   2   6  12    8.20   21.50
   2   6  12   96.39   29.10
   2   6  12   24.50   12.90
   2   6  12   30.30   18.40
  -3  -6 -12  -72.89   44.10
  -3  -6 -12   49.10   33.80
  -3  -6 -12    0.90   52.79
   3   6  12    4.60   19.50
   3   6  12    6.10   12.30
  -4  -6 -12  -39.60   48.50
  -4  -6 -12   53.99   44.60
  -4  -6 -12  -42.50   49.10
  -4  -6 -12   16.80   30.70
   4   6  12   -0.40    9.70
   4   6  12   20.10   22.20
   4   6  12    5.40   13.30
  -5  -6 -12  -75.89   42.50
  -5  -6 -12    9.30   58.09
  -5  -6 -12   -0.30   28.20
   5   6  12    3.20   17.70
   5   6  12  -17.40   14.70
   5   6  12   21.00    9.70
  -6  -6 -12   64.09   50.99
  -6  -6 -12   11.10   40.10
  -6  -6 -12  -20.40   28.20
   6   6  12    5.80   10.60
   6   6  12  -15.10   13.30
   6   6  12  -23.60   14.40
  -7  -6 -12   -8.70   44.40
  -7  -6 -12    8.10   52.19
  -7  -6 -12  -17.20   27.50
   7   6  12   21.20   17.90
   7   6  12    8.30    8.60
   7   6  12   46.60   20.40
  -8  -6 -12  -31.00   47.20
  -8  -6 -12   89.99   31.50
   8   6  12   56.79   23.30
   8   6  12    2.60   10.10
   8   6  12  -28.40   15.10
  -1  -7 -12  142.39   40.40
  -1  -7 -12  113.19   49.80
  -1  -7 -12   -2.10   74.79
   1   7  12   99.39   31.90
   1   7  12   77.19   21.30
   1   7  12  140.29   34.50
   1   7  12   72.39   33.10
  -2  -7 -12  -82.99   53.99
  -2  -7 -12   27.20   24.50
  -2  -7 -12  -11.00   61.49
   2   7  12   40.40   18.90
   2   7  12   12.40   25.70
   2   7  12   23.30   12.60
   2   7  12   82.19   29.00
  -3  -7 -12   51.19   53.59
  -3  -7 -12   53.39   35.80
  -3  -7 -12  -12.20   55.79
   3   7  12   70.29   26.90
   3   7  12   37.20   25.00
   3   7  12  113.99   34.10
   3   7  12   47.90   15.40
  -4  -7 -12   62.29   41.50
  -4  -7 -12  -33.60   46.70
  -4  -7 -12  -47.10   40.10
  -4  -7 -12  -44.40   41.50
   4   7  12   -2.10   21.30
   4   7  12   27.30   15.30
   4   7  12    9.90   10.90
   4   7  12   68.29   25.00
  -5  -7 -12  -54.79   36.70
  -5  -7 -12  -35.90   42.00
   5   7  12   19.20   14.70
   5   7  12  -10.20   13.00
  -6  -7 -12  -30.70   55.19
  -6  -7 -12   92.49   49.60
  -6  -7 -12  -43.50   30.10
   6   7  12   41.10   18.60
   6   7  12    6.80    9.20
  -7  -7 -12   -7.10   46.40
  -7  -7 -12    0.00   39.30
  -7  -7 -12   26.10   55.49
   7   7  12   38.50   12.90
   7   7  12   23.50   18.40
   7   7  12   74.69   26.20
  -2  -8 -12  -25.30   58.99
  -2  -8 -12   27.90   22.60
  -2  -8 -12   70.39   49.90
   2   8  12   23.00   14.70
   2   8  12   19.10   20.20
   2   8  12   41.80   27.40
   2   8  12   65.89   31.70
  -3  -8 -12  -34.80   58.09
  -3  -8 -12  129.89   55.89
   3   8  12  108.09   34.60
   3   8  12   88.89   28.40
   3   8  12   85.59   24.70
   3   8  12  164.38   38.20
  -4  -8 -12  -50.29   28.10
   4   8  12  -16.50   11.30
   4   8  12    3.10   15.20
   4   8  12   10.10   22.00
  -5  -8 -12  -32.90   47.50
   5   8  12  -27.30   18.00
   5   8  12   24.00   16.60
   5   8  12   10.30    9.50
  -6  -8 -12  134.99   48.80
  -6  -8 -12   99.29   53.19
  -6  -8 -12    1.40   46.10
   6   8  12   75.49   22.10
   6   8  12   67.39   24.00
   6   8  12   79.19   35.80
  -7  -8 -12   65.19   46.90
  -7  -8 -12   86.89   56.49
   7   8  12   96.19   30.40
  -5  -9 -12  -35.10   35.50
   0   4 -13   70.69   47.00
   0   4 -13   81.29   46.60
   0   4 -13  -69.89   58.79
   0  -4  13   23.50   19.20
   0  -4  13    0.30   38.70
   0  -4  13  106.79   32.10
  -1   4 -13  -70.89   38.10
  -1   4 -13    4.90   45.40
  -1   4 -13  152.88   79.09
   1  -4  13    2.20   16.80
   1  -4  13   20.70   26.40
   1  -4  13   -8.70   34.40
  -2   4 -13  104.59   49.60
  -2   4 -13  -14.30   35.60
  -2   4 -13   35.40   61.19
   2  -4  13    6.50   16.00
   2  -4  13    5.30   18.40
   2  -4  13    8.10   29.10
  -3   4 -13   60.59   56.29
  -3   4 -13   33.20   70.89
  -3   4 -13   18.60   36.10
   3  -4  13    4.30   32.30
   3  -4  13   11.70   20.00
   3  -4  13   21.60   17.40
   1   3 -13  102.49   45.60
   1   3 -13  -26.60   82.39
   1   3 -13   64.59   59.79
  -1  -3  13   90.19   33.50
  -1  -3  13   81.59   23.30
  -1  -3  13   26.20   29.10
   0   3 -13   74.19   36.10
   0   3 -13   51.19   48.80
   0   3 -13   42.80   64.69
   0  -3  13   52.19   27.20
   0  -3  13   27.90   16.40
   0  -3  13   50.29   34.80
  -1   3 -13  -61.39   66.49
  -1   3 -13   -8.80   37.50
  -1   3 -13  125.79   37.30
  -1   3 -13   56.99   59.19
   1  -3  13   30.90   39.30
   1  -3  13   24.00   24.30
   1  -3  13   29.70   18.00
  -2   3 -13   73.39   50.09
  -2   3 -13  -14.60   47.20
  -2   3 -13   72.69   57.19
   2  -3  13   30.30   18.60
   2  -3  13   56.59   26.10
   2  -3  13    4.30   26.40
  -3   3 -13  -20.60   45.20
  -3   3 -13  -16.80   48.90
  -3   3 -13   19.90   50.49
   3  -3  13   71.99   32.60
   3  -3  13   18.50   12.70
   3  -3  13   10.00   37.50
  -4   3 -13   75.69   53.19
  -4   3 -13   66.69   45.40
  -4   3 -13  -42.30   31.70
   4  -3  13   32.30   24.70
   4  -3  13   -3.60   12.70
   1   2 -13   30.00   35.30
   1   2 -13  -54.99   33.50
   1   2 -13  -32.20   42.30
  -1  -2  13   29.00   17.40
  -1  -2  13   34.00   31.90
  -1  -2  13   78.69   26.50
   0   2 -13  144.89   40.40
   0   2 -13  -52.49   45.30
   0   2 -13    5.10   69.69
   0  -2  13  101.39   48.50
   0  -2  13  103.49   32.60
   0  -2  13   41.10   18.40
  -1   2 -13   61.99   33.00
  -1   2 -13  -55.69   41.40
  -1   2 -13   53.29   50.79
  -1   2 -13  -47.70   43.50
   1  -2  13   15.50   23.60
   1  -2  13   15.50   15.20
   1  -2  13   49.80   30.70
  -2   2 -13   79.49   71.39
  -2   2 -13  129.69   67.59
  -2   2 -13   33.30   55.99
   2  -2  13   56.39   47.60
   2  -2  13   89.19   31.90
   2  -2  13  147.19   25.60
  -3   2 -13   11.40   58.89
  -3   2 -13  -38.30   31.40
  -3   2 -13   33.70   68.39
   3  -2  13   57.79   39.50
   3  -2  13   53.39   18.30
   3  -2  13   32.60   23.80
  -4   2 -13    6.30   57.09
  -4   2 -13   67.09   41.30
  -4   2 -13  107.69   77.99
   4  -2  13   43.40   26.10
   4  -2  13   62.49   22.00
  -5   2 -13  232.78   83.19
  -5   2 -13  -67.99   54.19
  -5   2 -13   49.00   40.40
   5  -2  13  114.29   45.10
   5  -2  13   83.49   21.60
   1   1 -13   -8.30   43.10
   1   1 -13   28.10   60.39
   1   1 -13   12.20   62.09
  -1  -1  13   -1.40   17.00
  -1  -1  13  -19.10   14.40
  -1  -1  13  -13.00   27.90
   0   1 -13   -6.20   58.59
   0   1 -13   57.69   39.20
   0   1 -13  -77.19   57.79
   0  -1  13   24.10   21.20
   0  -1  13   40.50   33.60
   0  -1  13    9.10   13.30
  -1   1 -13   29.00   57.99
  -1   1 -13   21.80   70.19
  -1   1 -13   60.89   33.90
   1  -1  13   45.40   21.50
   1  -1  13   63.99   38.20
   1  -1  13   30.30   12.40
  -2   1 -13   51.29   52.99
  -2   1 -13  -19.70   52.79
  -2   1 -13   75.09   79.19
  -2   1 -13   83.69   28.80
   2  -1  13   85.89   42.30
   2  -1  13   29.40   15.20
   2  -1  13   94.69   29.20
  -3   1 -13  -12.70   47.60
  -3   1 -13  -49.20   44.60
  -3   1 -13  -49.90   44.40
   3  -1  13   15.10   12.20
   3  -1  13   -6.70   18.40
   3  -1  13  -14.00   21.40
  -4   1 -13   18.20   61.19
  -4   1 -13   20.60   59.79
  -4   1 -13   35.60   48.50
   4  -1  13   43.00   18.50
   4  -1  13  110.39   47.50
   4  -1  13   68.69   28.90
  -5   1 -13   17.80   40.50
  -5   1 -13  -19.10   63.59
  -5   1 -13    9.90   67.29
   5  -1  13   16.00   25.10
   5  -1  13   50.29   24.40
   5  -1  13   19.60   13.30
  -6   1 -13   71.29   58.39
  -6   1 -13   77.29   55.59
  -6   1 -13   51.29   59.49
   6  -1  13   36.50   16.10
   6  -1  13   57.99   28.50
   6  -1  13   38.90   30.30
   1   0 -13   -8.20   40.20
   1   0 -13  -36.10   41.30
   1   0 -13  -63.09   49.10
  -1   0  13   36.00   21.30
  -1   0  13   23.10   32.80
  -1   0  13  -24.80   11.50
   0   0 -13   20.00   50.79
   0   0 -13  -60.69   50.39
   0   0 -13  -27.60   25.40
   0   0  13   37.50   16.20
   0   0  13   36.50   33.60
  -1   0 -13   55.19   30.60
  -1   0 -13   38.90   57.39
  -1   0 -13  -55.29   48.70
   1   0  13   33.70   25.10
   1   0  13   -2.80   15.10
  -2   0 -13   43.10   25.20
  -2   0 -13    6.70   46.90
  -2   0 -13   54.49   61.59
  -2   0 -13  -27.40   45.00
   2   0  13   -0.50   15.20
   2   0  13   26.50   34.10
  -3   0 -13   -3.00   49.60
  -3   0 -13   96.69   26.80
  -3   0 -13   78.69   63.59
  -3   0 -13   10.40   50.39
   3   0  13   81.89   42.10
   3   0  13   74.59   19.80
   3   0  13  114.49   36.70
  -4   0 -13   27.70   70.89
  -4   0 -13  -31.20   47.80
  -4   0 -13   70.99   74.29
   4   0  13  114.19   29.20
   4   0  13   68.19   19.10
   4   0  13   97.79   44.10
  -5   0 -13   46.60   61.09
  -5   0 -13    4.90   65.49
  -5   0 -13   95.79   80.69
   5   0  13   62.69   27.60
   5   0  13   92.99   20.90
   5   0  13  146.79   46.20
  -6   0 -13   -6.70   42.90
  -6   0 -13    3.60   65.29
   6   0  13  -10.60   20.80
   6   0  13   12.10   24.90
   6   0  13   12.40   12.90
   1  -1 -13  -21.60   62.19
   1  -1 -13   -6.90   40.00
   1  -1 -13  119.79   64.29
  -1   1  13   13.90   12.90
  -1   1  13   62.89   37.70
  -1   1  13    9.10   15.20
   0  -1 -13  114.69   45.00
   0  -1 -13  157.68   74.09
   0  -1 -13   49.99   61.99
   0   1  13  113.89   21.00
   0   1  13  113.39   46.60
   0   1  13   88.59   32.20
  -1  -1 -13   95.49   42.50
  -1  -1 -13   74.89   41.40
   1   1  13   67.59   22.60
   1   1  13   56.69   16.80
  -2  -1 -13   92.69   68.29
  -2  -1 -13   93.79   65.49
  -2  -1 -13  151.38   41.70
   2   1  13  107.99   35.30
   2   1  13   84.29   19.70
   2   1  13  137.19   46.10
  -3  -1 -13   21.10   63.29
  -3  -1 -13   66.89   59.49
  -3  -1 -13   44.00   73.99
  -3  -1 -13  149.29   39.30
   3   1  13  126.69   37.90
   3   1  13  171.88   56.79
   3   1  13   69.39   16.60
  -4  -1 -13  166.48   83.29
  -4  -1 -13  341.67   43.60
  -4  -1 -13  164.08   74.49
  -4  -1 -13   61.59   73.29
   4   1  13  244.78   32.80
   4   1  13  209.18   58.69
   4   1  13  215.78   50.09
  -5  -1 -13  100.99   83.59
  -5  -1 -13  252.67  114.89
   5   1  13  157.88   29.00
   5   1  13  205.58   33.20
   5   1  13  328.57   52.19
  -6  -1 -13   69.49   77.69
  -6  -1 -13  157.88   73.49
  -6  -1 -13   59.49   59.19
   6   1  13   54.99   23.30
   6   1  13   57.19   18.50
   6   1  13   85.59   37.50
  -7  -1 -13   50.39   74.99
  -7  -1 -13  101.79   57.09
  -7  -1 -13   76.49   62.69
   7   1  13   32.00   30.90
   7   1  13  -18.00   20.80
   1  -2 -13  -37.00   64.59
   1  -2 -13   -6.60   49.30
   1  -2 -13  -18.60   41.20
  -1   2  13   22.80   30.70
  -1   2  13  -14.00   12.50
  -1   2  13   14.10   14.20
   0  -2 -13   -4.20   36.40
   0  -2 -13   79.19   54.29
   0  -2 -13   96.29   74.19
   0   2  13   49.70   12.70
   0   2  13   62.29   26.70
   0   2  13   87.09   38.20
  -1  -2 -13   15.90   52.19
  -1  -2 -13   58.09   61.29
  -1  -2 -13   36.10   33.90
   1   2  13   12.30   25.20
   1   2  13   -5.90    9.10
   1   2  13   20.10   17.80
  -2  -2 -13   -8.70   53.29
  -2  -2 -13  -16.00   45.30
   2   2  13   43.10   29.40
   2   2  13    9.10   13.30
   2   2  13    3.20    8.80
  -3  -2 -13   22.30   49.70
  -3  -2 -13  -25.90   21.80
  -3  -2 -13  -34.10   46.70
  -3  -2 -13  -53.49   41.70
   3   2  13    9.80    8.10
   3   2  13   46.10   26.20
   3   2  13   23.00   15.80
  -4  -2 -13   10.10   61.79
  -4  -2 -13  -56.69   48.50
   4   2  13   51.19   28.40
   4   2  13    2.20   11.60
   4   2  13   66.29   35.20
   4   2  13   12.80   15.20
  -5  -2 -13   95.59   69.99
  -5  -2 -13   33.50   19.10
  -5  -2 -13   97.59   64.39
  -5  -2 -13  -23.40   59.39
   5   2  13   39.70   16.50
   5   2  13   -0.90   23.10
   5   2  13   38.90   16.60
  -6  -2 -13    3.70   67.19
  -6  -2 -13  -15.50   62.69
  -6  -2 -13   28.10   18.20
  -6  -2 -13   -7.10   51.99
   6   2  13   10.80    8.10
   6   2  13   39.40   22.40
   6   2  13  -13.50   16.20
  -7  -2 -13   12.30   62.49
  -7  -2 -13   27.10   46.00
  -7  -2 -13   49.00   58.59
   7   2  13   20.50    9.60
   7   2  13    1.10   16.10
   7   2  13   41.90   24.90
   1  -3 -13   67.49   40.90
   1  -3 -13   -5.90   70.89
   1  -3 -13  -17.40   66.49
  -1   3  13   -3.10   10.90
  -1   3  13   20.80   15.70
  -1   3  13   51.59   30.80
   0  -3 -13   61.99   38.30
   0  -3 -13  -14.50   70.89
   0  -3 -13   88.49   68.39
   0   3  13   12.90   20.90
   0   3  13   15.90   17.30
  -1  -3 -13  144.29   61.29
  -1  -3 -13   32.00   60.79
  -1  -3 -13  196.38   87.79
   1   3  13  227.38   34.10
   1   3  13  159.78   25.20
   1   3  13  176.18   53.59
  -2  -3 -13   90.59   52.59
  -2  -3 -13  114.99   92.79
   2   3  13  182.58   58.29
   2   3  13  144.59   24.30
   2   3  13  268.67   41.20
  -3  -3 -13  189.68   60.89
  -3  -3 -13   73.99   68.49
   3   3  13  191.68   55.29
   3   3  13  234.48   49.40
   3   3  13  183.78   23.80
  -4  -3 -13   18.80   49.10
  -4  -3 -13   17.90   57.59
  -4  -3 -13  -19.10   47.50
  -4  -3 -13   59.79   29.30
   4   3  13  -15.60   10.80
   4   3  13   26.70   11.90
   4   3  13   -5.60   10.50
   4   3  13    8.70   26.70
  -5  -3 -13  -51.69   85.49
  -5  -3 -13  -28.40   45.40
  -5  -3 -13  -44.00   57.09
   5   3  13  -16.20   10.50
   5   3  13   13.60   17.00
  -6  -3 -13    2.20   52.49
  -6  -3 -13   72.09   23.00
  -6  -3 -13   49.99   49.80
  -6  -3 -13   21.40   57.59
   6   3  13   27.70    9.60
   6   3  13   19.90   23.40
  -7  -3 -13   36.50   24.00
  -7  -3 -13   37.30   66.99
  -7  -3 -13   31.50   63.19
  -7  -3 -13  -43.50   48.10
   7   3  13   23.30    9.80
   0  -4 -13   14.60   38.70
   0  -4 -13   59.79   66.09
   0  -4 -13   72.49   69.79
   0   4  13   94.89   34.90
   0   4  13  101.29   25.70
  -1  -4 -13  134.99   64.89
  -1  -4 -13  -65.69   64.19
  -1  -4 -13   53.49   42.80
   1   4  13    3.50   28.90
   1   4  13   20.30   12.40
   1   4  13   65.79   20.30
  -2  -4 -13   96.79   60.39
  -2  -4 -13  -40.60   54.19
  -2  -4 -13   59.89   56.59
   2   4  13   77.99   15.20
   2   4  13   51.89   15.90
   2   4  13   70.39   24.10
   2   4  13   91.29   38.70
  -3  -4 -13  188.58  100.19
  -3  -4 -13  300.87   75.69
  -3  -4 -13  198.98   95.59
   3   4  13  320.67   72.49
   3   4  13  182.88   41.10
   3   4  13  219.88   30.50
   3   4  13  242.78   26.30
  -4  -4 -13  -31.80   57.69
  -4  -4 -13  -25.00   67.39
  -4  -4 -13   97.19   61.79
  -4  -4 -13   10.30   32.60
   4   4  13   21.20    9.30
   4   4  13   76.49   30.20
  -5  -4 -13   81.49   30.80
  -5  -4 -13  -45.80   50.79
  -5  -4 -13   60.59   62.09
  -5  -4 -13  -81.19   57.29
   5   4  13   -4.30    8.40
   5   4  13   38.80   28.60
   5   4  13   18.60   14.10
   5   4  13  -17.70   11.90
  -6  -4 -13   13.30   54.99
  -6  -4 -13   34.90   28.50
  -6  -4 -13    2.70   65.09
  -6  -4 -13   53.99   45.20
   6   4  13   72.99   26.50
   6   4  13    7.00   12.50
  -7  -4 -13    3.70   77.89
  -7  -4 -13    2.40   43.60
  -7  -4 -13   97.89   25.70
  -7  -4 -13   -4.80   60.09
   7   4  13    1.40   23.70
   7   4  13    6.30    6.60
   7   4  13   20.10   26.90
   7   4  13   26.70   13.80
   0  -5 -13    3.30   34.20
   0  -5 -13  -29.80   76.89
  -1  -5 -13  -63.99   62.79
  -1  -5 -13  -48.80   69.79
  -1  -5 -13   -5.40   35.90
   1   5  13  -42.10   20.50
   1   5  13  -18.30   19.80
   1   5  13   26.40   15.10
   1   5  13   -3.80   10.20
  -2  -5 -13   26.80   61.49
  -2  -5 -13  114.29   61.59
  -2  -5 -13  -15.10   36.70
   2   5  13   34.10   27.90
   2   5  13   20.20   16.50
   2   5  13   -5.50   19.20
  -3  -5 -13  -26.80   26.10
  -3  -5 -13  -41.80   54.29
  -3  -5 -13   31.60   50.49
   3   5  13   25.80   16.80
   3   5  13   21.80   15.50
  -4  -5 -13  -74.69   48.30
  -4  -5 -13   27.90   35.80
  -4  -5 -13   93.29   73.19
  -4  -5 -13   44.70   62.89
   4   5  13  158.98   46.40
   4   5  13   45.50   24.40
   4   5  13  114.99   24.20
   4   5  13   84.69   17.70
  -5  -5 -13  -35.20   52.49
  -5  -5 -13    3.50   32.90
  -5  -5 -13  -21.10   56.89
  -5  -5 -13  116.29   62.29
   5   5  13   -7.90   13.30
   5   5  13   25.30   16.50
   5   5  13    9.00   11.10
   5   5  13   32.50   25.70
  -6  -5 -13  -51.79   51.69
  -6  -5 -13   85.69   31.80
  -6  -5 -13  -27.10   61.39
   6   5  13   46.80   18.30
   6   5  13   11.50   11.10
   6   5  13  -24.60   14.90
  -7  -5 -13   55.19   33.50
  -7  -5 -13  -35.10   54.29
  -7  -5 -13  122.59   60.69
   7   5  13   60.79   17.30
   7   5  13   57.49   27.20
   7   5  13   85.69   20.80
  -1  -6 -13   47.40   82.69
  -1  -6 -13 -105.69   71.89
  -1  -6 -13   70.99   39.90
   1   6  13   71.29   29.20
   1   6  13   15.40   15.50
   1   6  13   44.00   18.90
   1   6  13  120.79   38.60
  -2  -6 -13  -31.40   35.90
  -2  -6 -13 -109.89   68.89
  -2  -6 -13  -29.80   65.49
   2   6  13    2.40    9.70
   2   6  13   31.80   24.10
   2   6  13   79.29   29.80
   2   6  13    3.40   14.80
  -3  -6 -13   66.29   32.40
  -3  -6 -13  -22.00   71.49
   3   6  13   49.10   24.50
   3   6  13   65.49   24.70
   3   6  13   91.99   33.90
   3   6  13   56.69   17.20
  -4  -6 -13  -56.09   50.39
   4   6  13   17.30   10.20
   4   6  13   22.70   15.90
   4   6  13  -30.70   15.60
   4   6  13    4.20   29.70
  -5  -6 -13  -30.90   29.00
  -5  -6 -13    1.40   46.40
  -5  -6 -13  -59.39   46.90
   5   6  13  -21.90   16.00
   5   6  13   23.90   10.00
   5   6  13  -26.80   13.90
  -6  -6 -13   35.50   35.40
  -6  -6 -13   73.59   66.29
  -6  -6 -13    9.80   53.99
   6   6  13    4.70    8.40
   6   6  13   23.00   18.70
  -7  -6 -13  -60.69   44.70
  -7  -6 -13  -43.70   58.99
  -7  -6 -13  -28.90   29.20
   7   6  13   -2.40   13.70
   7   6  13   18.90    9.50
   7   6  13   63.39   26.20
  -2  -7 -13  135.59   48.80
  -3  -7 -13   10.00   33.30
  -3  -7 -13  -57.59   63.39
  -3  -7 -13  -51.49   51.59
   3   7  13   24.60   25.70
   3   7  13   32.70   18.10
   3   7  13   59.79   33.60
  -4  -7 -13  -67.19   59.69
  -4  -7 -13  -61.59   42.70
  -4  -7 -13  129.39   50.19
  -4  -7 -13 -105.69   75.39
   4   7  13  -10.00   11.00
   4   7  13   71.99   35.50
   4   7  13    0.10   18.10
   4   7  13   -0.30   10.30
  -5  -7 -13  115.89   67.09
  -5  -7 -13  111.19   61.59
  -5  -7 -13   17.20   46.10
   5   7  13   38.20   21.80
   5   7  13   63.09   19.90
   5   7  13   58.89   22.10
  -6  -7 -13   50.49   46.00
  -6  -7 -13   -7.40   71.59
  -6  -7 -13  250.17   91.69
   6   7  13   73.99   19.00
   6   7  13   82.59   32.50
   6   7  13  130.99   33.80
  -1   2 -14   21.10   59.09
   1  -2  14   47.80   24.80
  -2   2 -14   68.79   51.59
  -2   2 -14   59.39   49.80
   2  -2  14  134.79   27.70
   2  -2  14  114.99   35.70
   2  -2  14  105.49   52.19
  -3   2 -14   43.30   55.19
  -3   2 -14    8.10   72.99
  -3   2 -14  -16.60   39.90
   3  -2  14   18.00   11.80
   3  -2  14   37.00   39.60
   3  -2  14   42.40   27.50
  -1   1 -14  103.99   40.70
  -1   1 -14  141.89   54.49
   1  -1  14   64.49   34.80
   1  -1  14   65.79   28.30
  -2   1 -14  -30.60   49.30
  -2   1 -14    8.00   38.10
  -2   1 -14    3.40   65.99
  -2   1 -14   55.29   47.40
   2  -1  14   10.00   10.70
   2  -1  14    9.70   20.80
   2  -1  14   52.89   32.20
  -3   1 -14   30.80   58.19
  -3   1 -14  -28.00   51.39
   3  -1  14   15.10   14.50
   3  -1  14   -1.00   31.00
   3  -1  14   38.60   25.90
  -4   1 -14  -42.90   66.29
  -4   1 -14  103.79   66.29
  -4   1 -14  -18.70   51.29
   4  -1  14   44.70   42.40
   4  -1  14   20.60   26.20
   0   0 -14   11.80   41.70
   0   0  14   32.80   23.90
   0   0  14    1.50   14.20
   0   0  14   47.50   35.20
  -1   0 -14   61.79   32.80
  -1   0 -14  -63.59   45.20
  -1   0 -14   47.80   75.09
   1   0  14    3.60   11.50
   1   0  14   23.90   32.10
   1   0  14   31.10   21.50
  -2   0 -14   11.20   64.49
  -2   0 -14   49.10   36.00
  -2   0 -14  -27.50   49.70
  -2   0 -14  -38.40   48.60
   2   0  14   18.50   27.50
   2   0  14   51.09   38.30
   2   0  14   46.50   12.20
  -3   0 -14  191.08   42.80
  -3   0 -14   -7.70   67.59
  -3   0 -14  240.08  123.89
  -3   0 -14  140.19   61.79
   3   0  14  136.29   55.49
   3   0  14  104.39   35.80
   3   0  14   94.99   22.20
  -4   0 -14  143.99   66.79
  -4   0 -14   48.30   83.99
  -4   0 -14   37.90   84.69
   4   0  14  227.48   64.49
   4   0  14  131.39   27.30
   4   0  14  233.58   58.69
  -5   0 -14   10.20   65.09
  -5   0 -14   26.50   75.39
  -5   0 -14  -17.70   68.59
   5   0  14  101.99   31.90
   5   0  14   37.80   15.10
   0  -1 -14   -9.70   74.89
   0  -1 -14   32.70   51.39
   0   1  14   59.69   35.00
   0   1  14   31.10   15.30
   0   1  14    3.30   13.00
  -1  -1 -14   68.99   50.79
  -1  -1 -14   34.50   62.69
  -1  -1 -14  -26.00   53.89
   1   1  14  106.69   27.40
   1   1  14   87.29   18.30
   1   1  14  129.09   51.69
  -2  -1 -14   43.70   80.99
  -2  -1 -14   80.79   36.70
   2   1  14   41.30   23.60
   2   1  14   63.29   34.40
   2   1  14   35.20   12.20
  -3  -1 -14   -6.30   54.99
  -3  -1 -14   58.49   61.49
  -3  -1 -14  156.28   57.59
  -3  -1 -14   42.90   71.29
   3   1  14   83.39   38.10
   3   1  14   94.29   21.70
   3   1  14   52.19   32.80
  -4  -1 -14   19.10   83.79
  -4  -1 -14  -72.69   55.79
  -4  -1 -14   64.29   34.80
   4   1  14   91.59   23.90
   4   1  14   38.60   25.70
  -5  -1 -14  132.29   97.89
  -5  -1 -14  121.99   71.79
   5   1  14  150.58   29.50
   5   1  14  180.68   53.09
  -1  -2 -14   45.60   78.89
  -1  -2 -14   65.69   62.59
   1   2  14   39.10   16.90
   1   2  14   73.89   33.80
  -2  -2 -14   30.60   28.50
  -2  -2 -14   42.90   58.69
  -2  -2 -14   35.50   76.89
   2   2  14   10.00    9.20
   2   2  14   29.40   20.90
   2   2  14   45.50   30.70
  -3  -2 -14   95.29   76.49
  -3  -2 -14   -6.10   55.09
  -3  -2 -14   96.29   35.20
   3   2  14   33.40   27.80
   3   2  14   17.90   18.80
   3   2  14    8.10   10.00
  -4  -2 -14  -36.80   59.49
  -4  -2 -14    0.70   72.99
  -4  -2 -14  -48.70   63.19
   4   2  14    7.20   25.20
   4   2  14   -5.90   10.30
   4   2  14   19.80   29.90
  -5  -2 -14   -5.10   66.19
  -5  -2 -14   60.49   84.39
  -5  -2 -14   50.19   58.19
  -5  -2 -14   20.70   30.10
   5   2  14    7.60   24.60
   5   2  14   -2.60   10.30
  -6  -2 -14  -78.99   43.60
  -6  -2 -14  -29.80   60.19
  -6  -2 -14  -40.80   56.79
   6   2  14  -12.30   22.50
   6   2  14    0.50    8.90
  -1  -3 -14    6.40   68.89
  -1  -3 -14   98.69   42.20
  -1  -3 -14   70.49   78.69
   1   3  14  101.69   30.40
   1   3  14   85.19   41.00
   1   3  14   47.00   16.30
  -2  -3 -14   17.60  106.89
  -2  -3 -14   87.39   69.69
  -2  -3 -14  126.29   54.59
   2   3  14  136.99   24.30
   2   3  14  125.79   32.20
  -3  -3 -14   63.59   93.39
  -3  -3 -14  -29.70   59.69
  -3  -3 -14   71.79   63.49
  -3  -3 -14  189.28   49.60
   3   3  14  104.19   32.60
   3   3  14   42.20   15.10
   3   3  14   29.00   33.70
  -4  -3 -14  -23.30   62.99
  -4  -3 -14   38.40   31.10
  -4  -3 -14  100.49   75.29
   4   3  14   -4.20   22.40
   4   3  14   -2.50    8.20
   4   3  14   16.30   18.50
  -5  -3 -14   89.09   33.90
  -5  -3 -14  -26.90   65.09
  -5  -3 -14   11.30   76.09
  -5  -3 -14  -37.10   71.89
   5   3  14   17.40   23.80
   5   3  14   21.10   10.60
   5   3  14  -16.50   29.40
  -6  -3 -14   64.29   70.59
  -6  -3 -14   30.30   63.99
  -6  -3 -14   82.59   40.30
  -6  -3 -14 -111.19   59.59
   6   3  14   16.00   10.90
   6   3  14   58.19   27.20
   6   3  14  -15.30   17.10
  -2  -4 -14   10.10   44.90
  -2  -4 -14    9.10   48.10
  -2  -4 -14   26.00   63.19
   2   4  14   27.50   20.00
   2   4  14   67.19   28.20
   2   4  14   13.60   12.30
  -3  -4 -14   68.79   61.39
  -3  -4 -14   89.09   49.99
  -3  -4 -14   59.89   86.29
   3   4  14   79.89   32.20
   3   4  14   97.29   22.70
  -4  -4 -14  -53.49   47.50
  -4  -4 -14   -4.50   58.49
  -4  -4 -14   78.29   31.20
   4   4  14   26.40   31.80
   4   4  14   14.90   12.10
   4   4  14   22.40   20.50
  -5  -4 -14   72.09   62.59
  -5  -4 -14  -22.50   60.19
  -5  -4 -14   51.19   34.90
   5   4  14    4.40   10.40
   5   4  14   14.60   18.50
   5   4  14   39.90   35.20
   5   4  14  -29.00   15.00
  -6  -4 -14  -86.49   82.79
  -6  -4 -14   17.60   58.09
  -6  -4 -14   13.90   50.09
   6   4  14  -11.40    8.70
   6   4  14  -18.30   16.00
   6   4  14  -11.70   17.80
  -2  -5 -14   23.30   44.60
  -2  -5 -14  -25.50   60.59
  -3  -5 -14   58.39   34.70
  -3  -5 -14  -49.70   37.90
  -3  -5 -14  -47.10   67.79
   3   5  14  -11.60   10.80
   3   5  14    9.80   11.20
   3   5  14   25.90   30.60
  -4  -5 -14  -87.79   61.79
  -4  -5 -14  -67.49   72.09
  -4  -5 -14   52.69   30.90
  -4  -5 -14   -1.40   52.09
   4   5  14   50.59   35.70
   4   5  14    8.30    7.70
   4   5  14   33.20   19.60
   4   5  14   -2.30   17.00
  -5  -5 -14   27.40   79.19
  -5  -5 -14   75.49   82.09
  -5  -5 -14  -55.19   74.29
  -5  -5 -14   33.40   35.60
   5   5  14   40.20   11.50
   5   5  14   59.19   33.90
   5   5  14   48.40   19.50
   5   5  14   15.40   18.50
   0   0   0    0.00    0.00

_computing_structure_solution     'SHELXT 2014/5 (Sheldrick, 2014)'
;
loop_
_space_group_symop_operation_xyz
'x, y, z'
'-x, -y, -z'
loop_
_atom_site_label
_atom_site_type_symbol
_atom_site_fract_x
_atom_site_fract_y
_atom_site_fract_z
_atom_site_U_iso_or_equiv
_atom_site_adp_type
_atom_site_occupancy
_atom_site_site_symmetry_order
_atom_site_calc_flag
_atom_site_refinement_flags_posn
_atom_site_refinement_flags_adp
_atom_site_refinement_flags_occupancy
_atom_site_disorder_assembly
_atom_site_disorder_group
Cu01 Cu 0.48684(6) 0.16531(5) 0.52825(4) 0.03005(18) Uani 1 1 d . . . . .
Cl2 Cl 0.65714(14) -0.06234(10) 0.56300(10) 0.0382(3) Uani 1 1 d . . . . .
Cl1 Cl 0.57514(17) 0.25462(11) 0.65681(11) 0.0491(3) Uani 1 1 d . . . . .
N1 N 0.2978(4) 0.3532(3) 0.5183(3) 0.0304(7) Uani 1 1 d . . . . .
O2 O 1.2923(4) 0.0016(4) 0.0157(3) 0.0533(8) Uani 1 1 d . . . . .
N2 N 0.6228(4) 0.2605(3) 0.3475(3) 0.0304(7) Uani 1 1 d . . . . .
O1 O -0.3216(4) 0.5233(4) 0.9159(3) 0.0563(9) Uani 1 1 d . . . . .
C3 C 0.1348(5) 0.4041(4) 0.6167(4) 0.0314(8) Uani 1 1 d . . . . .
C10 C 0.7921(5) 0.2021(4) 0.2565(4) 0.0326(9) Uani 1 1 d . . . . .
C16 C 1.3355(7) 0.0426(6) -0.1105(4) 0.0574(13) Uani 1 1 d . . . . .
H16A H 1.249890 0.029305 -0.145285 0.086 Uiso 1 1 calc R U . . .
H16B H 1.457117 -0.014124 -0.151655 0.086 Uiso 1 1 calc R U . . .
H16C H 1.328595 0.140261 -0.119865 0.086 Uiso 1 1 calc R U . . .
C7 C -0.0812(6) 0.5860(5) 0.7520(4) 0.0456(11) Uani 1 1 d . . . . .
H7 H -0.123748 0.678911 0.775598 0.055 Uiso 1 1 calc R U . . .
C9 C -0.3717(8) 0.6522(6) 0.9728(6) 0.083(2) Uani 1 1 d . . . . .
H9A H -0.269216 0.657869 0.993736 0.124 Uiso 1 1 calc R U . . .
H9B H -0.471935 0.656409 1.045499 0.124 Uiso 1 1 calc R U . . .
H9C H -0.407967 0.729748 0.917643 0.124 Uiso 1 1 calc R U . . .
C6 C -0.1704(5) 0.4912(4) 0.8160(4) 0.0385(9) Uani 1 1 d . . . . .
C1 C 0.3407(5) 0.4346(4) 0.4258(4) 0.0365(9) Uani 1 1 d . . . . .
H1 H 0.261942 0.525419 0.418773 0.044 Uiso 1 1 calc R U . . .
C13 C 1.1254(5) 0.0723(4) 0.0906(4) 0.0383(9) Uani 1 1 d . . . . .
C15 C 0.8250(6) 0.2420(5) 0.1341(4) 0.0417(10) Uani 1 1 d . . . . .
H15 H 0.735019 0.313172 0.107312 0.050 Uiso 1 1 calc R U . . .
C8 C 0.0715(6) 0.5419(5) 0.6527(4) 0.0438(11) Uani 1 1 d . . . . .
H8 H 0.131886 0.605433 0.609920 0.053 Uiso 1 1 calc R U . . .
C4 C 0.0430(6) 0.3098(4) 0.6803(4) 0.0384(9) Uani 1 1 d . . . . .
H4 H 0.084953 0.216933 0.656755 0.046 Uiso 1 1 calc R U . . .
C12 C 1.0931(5) 0.0323(4) 0.2137(4) 0.0400(10) Uani 1 1 d . . . . .
H12 H 1.183917 -0.037590 0.240720 0.048 Uiso 1 1 calc R U . . .
C5 C -0.1099(5) 0.3543(4) 0.7780(4) 0.0387(9) Uani 1 1 d . . . . .
H5 H -0.173120 0.291879 0.818981 0.046 Uiso 1 1 calc R U . . .
C14 C 0.9901(6) 0.1774(5) 0.0508(4) 0.0414(10) Uani 1 1 d . . . . .
H14 H 1.010503 0.204338 -0.031718 0.050 Uiso 1 1 calc R U . . .
C11 C 0.9275(5) 0.0954(4) 0.2960(4) 0.0346(9) Uani 1 1 d . . . . .
H11 H 0.905861 0.066764 0.378155 0.041 Uiso 1 1 calc R U . . .
C2 C 0.5146(6) 0.3832(4) 0.3317(4) 0.0377(9) Uani 1 1 d . . . . .
H2 H 0.545859 0.438539 0.261777 0.045 Uiso 1 1 calc R U . . .
loop_
_atom_site_aniso_label
_atom_site_aniso_U_11
_atom_site_aniso_U_22
_atom_site_aniso_U_33
_atom_site_aniso_U_23
_atom_site_aniso_U_13
_atom_site_aniso_U_12
Cu01 0.0325(3) 0.0225(3) 0.0358(3) 0.00009(19) -0.0121(2) -0.0082(2)
Cl2 0.0432(5) 0.0251(5) 0.0517(6) -0.0015(4) -0.0240(5) -0.0081(4)
Cl1 0.0658(7) 0.0335(6) 0.0628(7) -0.0011(5) -0.0396(6) -0.0148(5)
N1 0.0283(16) 0.0258(16) 0.0369(18) -0.0028(13) -0.0072(14) -0.0096(13)
O2 0.0411(17) 0.060(2) 0.0455(19) -0.0040(16) -0.0021(14) -0.0079(16)
N2 0.0296(16) 0.0280(17) 0.0333(17) 0.0010(13) -0.0098(14) -0.0090(14)
O1 0.0475(19) 0.055(2) 0.059(2) -0.0202(17) 0.0065(16) -0.0198(16)
C3 0.0277(18) 0.030(2) 0.037(2) -0.0021(16) -0.0114(16) -0.0064(16)
C10 0.0318(19) 0.028(2) 0.037(2) -0.0025(16) -0.0063(17) -0.0112(16)
C16 0.058(3) 0.068(3) 0.039(3) -0.010(2) 0.002(2) -0.023(3)
C7 0.043(2) 0.033(2) 0.058(3) -0.014(2) -0.007(2) -0.012(2)
C9 0.075(4) 0.077(4) 0.085(4) -0.052(4) 0.030(3) -0.040(3)
C6 0.035(2) 0.039(2) 0.040(2) -0.0084(18) -0.0077(18) -0.0108(18)
C1 0.036(2) 0.027(2) 0.044(2) 0.0027(17) -0.0145(18) -0.0050(17)
C13 0.035(2) 0.039(2) 0.041(2) -0.0067(18) -0.0047(18) -0.0149(18)
C15 0.039(2) 0.043(2) 0.038(2) 0.0027(19) -0.0116(19) -0.008(2)
C8 0.040(2) 0.035(2) 0.058(3) -0.008(2) -0.007(2) -0.0175(19)
C4 0.044(2) 0.026(2) 0.042(2) -0.0013(17) -0.0098(19) -0.0103(18)
C12 0.033(2) 0.036(2) 0.047(3) 0.0029(19) -0.0124(19) -0.0074(18)
C5 0.038(2) 0.037(2) 0.043(2) 0.0040(18) -0.0129(19) -0.0159(19)
C14 0.045(2) 0.050(3) 0.029(2) 0.0033(19) -0.0112(19) -0.015(2)
C11 0.035(2) 0.032(2) 0.034(2) 0.0039(17) -0.0100(17) -0.0104(17)
C2 0.041(2) 0.032(2) 0.038(2) 0.0026(17) -0.0076(18) -0.0139(18)
loop_
_atom_type_symbol
_atom_type_description
_atom_type_scat_dispersion_real
_atom_type_scat_dispersion_imag
_atom_type_scat_source
C C 0.0033 0.0016 'International Tables Vol C Tables 4.2.6.8 and 6.1.1.4'
H H 0.0000 0.0000 'International Tables Vol C Tables 4.2.6.8 and 6.1.1.4'
N N 0.0061 0.0033 'International Tables Vol C Tables 4.2.6.8 and 6.1.1.4'
O O 0.0106 0.0060 'International Tables Vol C Tables 4.2.6.8 and 6.1.1.4'
Cl Cl 0.1484 0.1585 'International Tables Vol C Tables 4.2.6.8 and 6.1.1.4'
Cu Cu 0.3201 1.2651 'International Tables Vol C Tables 4.2.6.8 and 6.1.1.4'
loop_
_geom_angle_atom_site_label_1
_geom_angle_atom_site_label_2
_geom_angle_atom_site_label_3
_geom_angle
_geom_angle_site_symmetry_1
_geom_angle_site_symmetry_3
N1 Cu01 Cl1 89.15(10) . .
N1 Cu01 N2 77.78(12) . .
Cl1 Cu01 N2 100.00(9) . .
N1 Cu01 Cl2 169.15(9) . .
Cl1 Cu01 Cl2 93.49(4) . .
N2 Cu01 Cl2 112.03(8) . .
N1 Cu01 Cl2 89.73(9) . 2_656
Cl1 Cu01 Cl2 166.28(5) . 2_656
N2 Cu01 Cl2 93.12(8) . 2_656
Cl2 Cu01 Cl2 85.21(4) . 2_656
Cu01 Cl2 Cu01 94.79(4) . 2_656
C1 N1 C3 120.5(3) . .
C1 N1 Cu01 116.4(3) . .
C3 N1 Cu01 122.5(2) . .
C13 O2 C16 118.3(4) . .
C2 N2 C10 121.1(3) . .
C2 N2 Cu01 108.0(2) . .
C10 N2 Cu01 130.8(2) . .
C6 O1 C9 118.6(4) . .
C8 C3 C4 119.6(4) . .
C8 C3 N1 121.8(3) . .
C4 C3 N1 118.5(3) . .
C15 C10 C11 119.4(4) . .
C15 C10 N2 124.0(4) . .
C11 C10 N2 116.6(3) . .
O2 C16 H16A 109.5 . .
O2 C16 H16B 109.5 . .
H16A C16 H16B 109.5 . .
O2 C16 H16C 109.5 . .
H16A C16 H16C 109.5 . .
H16B C16 H16C 109.5 . .
C8 C7 C6 119.7(4) . .
C8 C7 H7 120.1 . .
C6 C7 H7 120.1 . .
O1 C9 H9A 109.5 . .
O1 C9 H9B 109.5 . .
H9A C9 H9B 109.5 . .
O1 C9 H9C 109.5 . .
H9A C9 H9C 109.5 . .
H9B C9 H9C 109.5 . .
O1 C6 C5 115.7(4) . .
O1 C6 C7 124.5(4) . .
C5 C6 C7 119.8(4) . .
N1 C1 C2 119.2(4) . .
N1 C1 H1 120.4 . .
C2 C1 H1 120.4 . .
O2 C13 C12 116.0(4) . .
O2 C13 C14 124.3(4) . .
C12 C13 C14 119.7(4) . .
C10 C15 C14 120.7(4) . .
C10 C15 H15 119.6 . .
C14 C15 H15 119.6 . .
C3 C8 C7 120.4(4) . .
C3 C8 H8 119.8 . .
C7 C8 H8 119.8 . .
C5 C4 C3 119.9(4) . .
C5 C4 H4 120.1 . .
C3 C4 H4 120.1 . .
C11 C12 C13 120.3(4) . .
C11 C12 H12 119.8 . .
C13 C12 H12 119.8 . .
C4 C5 C6 120.5(4) . .
C4 C5 H5 119.7 . .
C6 C5 H5 119.7 . .
C15 C14 C13 119.8(4) . .
C15 C14 H14 120.1 . .
C13 C14 H14 120.1 . .
C12 C11 C10 120.1(4) . .
C12 C11 H11 119.9 . .
C10 C11 H11 119.9 . .
N2 C2 C1 118.5(4) . .
N2 C2 H2 120.8 . .
C1 C2 H2 120.8 . .
loop_
_geom_bond_atom_site_label_1
_geom_bond_atom_site_label_2
_geom_bond_distance
_geom_bond_site_symmetry_2
Cu01 N1 2.004(3) .
Cu01 Cl1 2.2478(11) .
Cu01 N2 2.276(3) .
Cu01 Cl2 2.2929(11) .
Cu01 Cl2 2.3465(10) 2_656
N1 C1 1.282(5) .
N1 C3 1.432(5) .
O2 C13 1.365(5) .
O2 C16 1.421(5) .
N2 C2 1.276(5) .
N2 C10 1.431(5) .
O1 C6 1.371(5) .
O1 C9 1.415(6) .
C3 C8 1.384(6) .
C3 C4 1.391(5) .
C10 C15 1.379(6) .
C10 C11 1.394(5) .
C16 H16A 0.9600 .
C16 H16B 0.9600 .
C16 H16C 0.9600 .
C7 C8 1.384(6) .
C7 C6 1.384(6) .
C7 H7 0.9300 .
C9 H9A 0.9600 .
C9 H9B 0.9600 .
C9 H9C 0.9600 .
C6 C5 1.384(6) .
C1 C2 1.459(5) .
C1 H1 0.9300 .
C13 C12 1.387(6) .
C13 C14 1.388(6) .
C15 C14 1.382(5) .
C15 H15 0.9300 .
C8 H8 0.9300 .
C4 C5 1.375(6) .
C4 H4 0.9300 .
C12 C11 1.376(5) .
C12 H12 0.9300 .
C5 H5 0.9300 .
C14 H14 0.9300 .
C11 H11 0.9300 .
C2 H2 0.9300 .
