#------------------------------------------------------------------------------
#$Date: 2022-01-01 07:13:54 +0200 (Sat, 01 Jan 2022) $
#$Revision: 271676 $
#$URL: file:///home/coder/svn-repositories/cod/cif/1/56/58/1565875.cif $
#------------------------------------------------------------------------------
#
# This file is available in the Crystallography Open Database (COD),
# http://www.crystallography.net/. The original data for this entry
# were provided by IUCr Journals, http://journals.iucr.org/.
#
# The file may be used within the scientific community so long as
# proper attribution is given to the journal article from which the
# data were obtained.
#
data_1565875
loop_
_publ_author_name
'Olejniczak, Anna'
'Katrusiak, Anna'
'Podsiad\/lo, Marcin'
'Katrusiak, Andrzej'
_publ_section_title
;
 Stochastic hydration of a high-nitrogen-content molecular compound
 recrystallized under pressure
;
_journal_issue                   1
_journal_name_full               IUCrJ
_journal_page_first              49
_journal_page_last               54
_journal_paper_doi               10.1107/S2052252521010381
_journal_volume                  9
_journal_year                    2022
_chemical_formula_moiety         'C4 H2 Cl N5'
_chemical_formula_sum            'C4 H2 Cl N5'
_chemical_formula_weight         155.56
_chemical_name_systematic        6-chloro-1,2,3,4-tetrazolo[1,5-b]pyridazine
_space_group_crystal_system      orthorhombic
_space_group_IT_number           19
_space_group_name_Hall           'P 2ac 2ab'
_space_group_name_H-M_alt        'P 21 21 21'
_atom_sites_solution_hydrogens   geom
_atom_sites_solution_primary     direct
_audit_creation_date             2021-05-19
_audit_creation_method
;
Olex2 1.3
(compiled 2020.11.12 svn.r5f609507 for OlexSys, GUI svn.r6272)
;
_cell_angle_alpha                90
_cell_angle_beta                 90
_cell_angle_gamma                90
_cell_formula_units_Z            4
_cell_length_a                   6.9340(5)
_cell_length_b                   8.7568(6)
_cell_length_c                   10.029(7)
_cell_measurement_reflns_used    923
_cell_measurement_temperature    296(2)
_cell_measurement_theta_max      21.9470
_cell_measurement_theta_min      4.2360
_cell_volume                     609.0(4)
_computing_cell_refinement       'CrysAlisPro 1.171.40.67a (Rigaku OD, 2019)'
_computing_data_collection       'CrysAlisPro 1.171.40.67a (Rigaku OD, 2019)'
_computing_data_reduction        'CrysAlisPro 1.171.40.67a (Rigaku OD, 2019)'
_computing_molecular_graphics    'Olex2 1.3 (Dolomanov et al., 2009)'
_computing_publication_material  'Olex2 1.3 (Dolomanov et al., 2009)'
_computing_structure_refinement  'SHELXL 2018/3 (Sheldrick, 2015)'
_computing_structure_solution    'SHELXT 2018/2 (Sheldrick, 2018)'
_diffrn_ambient_environment      'diamond-anvil cell'
_diffrn_ambient_pressure         120000
_diffrn_ambient_temperature      296
_diffrn_detector                 'CCD plate'
_diffrn_detector_area_resol_mean 16.2413
_diffrn_detector_type            Eos
_diffrn_measured_fraction_theta_full 0.430
_diffrn_measured_fraction_theta_max 0.394
_diffrn_measurement_details
;
List of Runs (angles in degrees, time in seconds):

  # Type    Start    End  Width  t~exp~   \w     \q     \k     \f   Frames
--------------------------------------------------------------------------
  1  \f    -35.00  19.75   0.75   35.00   0.00 -30.00   0.00    --    73
  2  \f    140.00 200.00   0.75   35.00   0.00 -30.00   0.00    --    80
  3  \f    160.00 217.00   0.75   35.00   0.00  30.00   0.00    --    76
  4  \f    -20.00  34.75   0.75   35.00   0.00  30.00   0.00    --    73
  5  \w    -24.00  24.00   0.75   35.00    --   30.00  39.46 -12.90   64
  6  \w    -24.00  24.00   0.75   35.00    --   30.00  39.46 167.10   64
  7  \w    -50.00  10.00   0.75   35.00    --  -30.00  39.46 167.10   80
  8  \w    -50.00  10.00   0.75   35.00    --  -30.00  39.46 -12.90   80
  9  \w    -64.00  -8.50   0.75   35.00    --  -30.00  81.40 -28.90   74
 10  \w    -64.00  -8.50   0.75   35.00    --  -30.00  81.40 151.10   74
 11  \w    -19.00   8.00   0.75   35.00    --   30.00  81.40 151.10   36
 12  \w    -19.00   8.00   0.75   35.00    --   30.00  81.40 -28.90   36
 13  \w    -43.00 -21.25   0.75   35.00    --   30.00 134.60 -56.90   29
 14  \w    -43.00 -21.25   0.75   35.00    --   30.00 134.60 123.10   29
 15  \w    -90.00 -36.00   0.75   35.00    --  -30.00 134.60 123.10   72
 16  \w    -90.00 -36.00   0.75   35.00    --  -30.00 134.60 -56.90   72
;
_diffrn_measurement_device       'four-circle diffractometer'
_diffrn_measurement_device_type  'KM-4 CCD'
_diffrn_measurement_method
;
HP omega scans - for more details see:
A. Budzianowski, A. Katrusiak in High-Pressure Crystallography
(Eds.: A. Katrusiak, P. F. McMillan),
Dordrecht: Kluwer Acad. Publ., 2004 pp.157-168       
;
_diffrn_orient_matrix_type
'CrysAlisPro convention (1999,Acta A55,543-557)'
_diffrn_orient_matrix_UB_11      0.0123295000
_diffrn_orient_matrix_UB_12      -0.0116943000
_diffrn_orient_matrix_UB_13      -0.0694596000
_diffrn_orient_matrix_UB_21      0.0967071000
_diffrn_orient_matrix_UB_22      -0.0230454000
_diffrn_orient_matrix_UB_23      0.0111805000
_diffrn_orient_matrix_UB_31      -0.0309748000
_diffrn_orient_matrix_UB_32      -0.0767772000
_diffrn_orient_matrix_UB_33      0.0071532000
_diffrn_radiation_monochromator  graphite
_diffrn_radiation_probe          x-ray
_diffrn_radiation_type           'Mo K\a'
_diffrn_radiation_wavelength     0.71073
_diffrn_reflns_av_R_equivalents  0.0390
_diffrn_reflns_av_unetI/netI     0.0349
_diffrn_reflns_Laue_measured_fraction_full 0.430
_diffrn_reflns_Laue_measured_fraction_max 0.394
_diffrn_reflns_limit_h_max       8
_diffrn_reflns_limit_h_min       -8
_diffrn_reflns_limit_k_max       10
_diffrn_reflns_limit_k_min       -11
_diffrn_reflns_limit_l_max       4
_diffrn_reflns_limit_l_min       -4
_diffrn_reflns_number            3365
_diffrn_reflns_point_group_measured_fraction_full 0.414
_diffrn_reflns_point_group_measured_fraction_max 0.374
_diffrn_reflns_theta_full        25.242
_diffrn_reflns_theta_max         26.790
_diffrn_reflns_theta_min         4.264
_diffrn_source                   'fine-focus sealed X-ray tube'
_diffrn_source_type              'Enhance (Mo) X-ray Source'
_exptl_absorpt_coefficient_mu    0.541
_exptl_absorpt_correction_T_max  1.00000
_exptl_absorpt_correction_T_min  0.34829
_exptl_absorpt_correction_type   multi-scan
_exptl_absorpt_process_details
;
CrysAlisPro 1.171.40.67a (Rigaku Oxford Diffraction, 2019)
Empirical absorption correction using spherical harmonics,
 implemented in SCALE3 ABSPACK scaling algorithm.
;
_exptl_crystal_colour            colorless
_exptl_crystal_density_diffrn    1.697
_exptl_crystal_description       plate
_exptl_crystal_F_000             312
_exptl_crystal_size_max          0.30
_exptl_crystal_size_mid          0.30
_exptl_crystal_size_min          0.11
_refine_diff_density_max         0.095
_refine_diff_density_min         -0.092
_refine_diff_density_rms         0.024
_refine_ls_abs_structure_details
;
 Flack x determined using 117 quotients [(I+)-(I-)]/[(I+)+(I-)]
 (Parsons, Flack and Wagner, Acta Cryst. B69 (2013) 249-259).
;
_refine_ls_abs_structure_Flack   0.49(8)
_refine_ls_extinction_method     none
_refine_ls_goodness_of_fit_ref   1.034
_refine_ls_hydrogen_treatment    constr
_refine_ls_matrix_type           full
_refine_ls_number_parameters     91
_refine_ls_number_reflns         487
_refine_ls_number_restraints     0
_refine_ls_restrained_S_all      1.034
_refine_ls_R_factor_all          0.0572
_refine_ls_R_factor_gt           0.0297
_refine_ls_shift/su_max          0.000
_refine_ls_shift/su_mean         0.000
_refine_ls_structure_factor_coef Fsqd
_refine_ls_weighting_details
'w=1/[\s^2^(Fo^2^)+(0.0294P)^2^] where P=(Fo^2^+2Fc^2^)/3'
_refine_ls_weighting_scheme      calc
_refine_ls_wR_factor_gt          0.0516
_refine_ls_wR_factor_ref         0.0586
_reflns_Friedel_coverage         0.586
_reflns_Friedel_fraction_full    0.391
_reflns_Friedel_fraction_max     0.345
_reflns_number_gt                360
_reflns_number_total             487
_reflns_threshold_expression     'I > 2\s(I)'
_cod_data_source_file            lt5042.cif
_cod_data_source_block           C4H2N5Cl1@0_12GPa_phase_alpha
_cod_database_code               1565875
_shelx_shelxl_version_number     2018/3
_chemical_oxdiff_formula         C4H2N5Cl1
_shelx_space_group_comment
;
The symmetry employed for this shelxl refinement is uniquely defined
by the following loop, which should always be used as a source of
symmetry information in preference to the above space-group names.
They are only intended as comments.
;
_reflns_odcompleteness_completeness 39.50
_reflns_odcompleteness_iscentric 1
_reflns_odcompleteness_theta     26.73
_olex2_refinement_description
;
1. Fixed Uiso
 At 1.2 times of:
  All C(H) groups
2.a Aromatic/amide H refined with riding coordinates:
 C7(H7), C8(H8)
;
_shelx_res_file
;
TITL 1a_a.res in P2(1)2(1)2(1)
    1a.res
    created by SHELXL-2018/3 at 14:35:29 on 19-May-2021
REM Old TITL 1a in P2(1)2(1)2(1)
REM SHELXT solution in P2(1)2(1)2(1): R1 0.154, Rweak 0.069, Alpha 0.023
REM <I/s> 0.361 for 7 systematic absences, Orientation as input
REM Flack x = 0.364 ( 0.096 ) from 120 Parsons' quotients
REM Formula found by SHELXT: C6 N3 Cl
CELL 0.71073 6.934 8.7568 10.0291 90 90 90
ZERR 4 0.0005 0.0006 0.007 0 0 0
LATT -1
SYMM 0.5-X,-Y,0.5+Z
SYMM -X,0.5+Y,0.5-Z
SYMM 0.5+X,0.5-Y,-Z
SFAC C H Cl N
UNIT 16 8 4 20

L.S. 44
PLAN  5
CONF
BOND
list 4
MORE -1
BOND $H
fmap 2 53
acta
REM <olex2.extras>
REM <HklSrc "%.\\1a.hkl">
REM </olex2.extras>

WGHT    0.029400
FVAR       0.88997
CL1   3    0.292925    0.333479    0.322753    11.00000    0.07582    0.03410 =
         0.11387   -0.00227    0.01929   -0.00071
N4    4    0.355479    0.751169    0.413742    11.00000    0.04128    0.03981 =
         0.08296    0.00620   -0.01267   -0.00180
N5    4    0.368525    0.595104    0.423345    11.00000    0.04766    0.04030 =
         0.08326    0.01080    0.00097    0.00188
N3    4    0.425571    0.842770    0.509557    11.00000    0.07010    0.06181 =
         0.06373   -0.00382   -0.00901   -0.01515
N2    4    0.384482    0.981154    0.465480    11.00000    0.07726    0.05252 =
         0.07929   -0.01889    0.00441   -0.01286
N1    4    0.292413    0.980278    0.348102    11.00000    0.06847    0.03922 =
         0.08392   -0.00669    0.01628   -0.00320
C9    1    0.274904    0.833809    0.316879    11.00000    0.04157    0.03692 =
         0.08134   -0.00460   -0.00574    0.00164
C7    1    0.201050    0.602545    0.207260    11.00000    0.05579    0.05660 =
         0.04807   -0.01712    0.00616   -0.00960
AFIX  43
H7    2    0.150037    0.545129    0.137678    11.00000   -1.20000
AFIX   0
C6    1    0.287528    0.530949    0.319205    11.00000    0.04147    0.03377 =
         0.12249    0.00716    0.01858   -0.00003
C8    1    0.195058    0.758534    0.204877    11.00000    0.05619    0.05524 =
         0.02192    0.01561    0.00404    0.00618
AFIX  43
H8    2    0.141638    0.812069    0.133815    11.00000   -1.20000
AFIX   0
HKLF 4




REM  1a_a.res in P2(1)2(1)2(1)
REM wR2 = 0.0586, GooF = S = 1.034, Restrained GooF = 1.034 for all data
REM R1 = 0.0297 for 360 Fo > 4sig(Fo) and 0.0572 for all 487 data
REM 91 parameters refined using 0 restraints

END

WGHT      0.0294      0.0000

REM Highest difference peak  0.095,  deepest hole -0.092,  1-sigma level  0.024
Q1    1   0.4052  1.0637  0.1954  11.00000  0.05    0.09
Q2    1   0.2935  0.6186  0.0004  11.00000  0.05    0.09
Q3    1   0.1919  0.6829  0.4732  11.00000  0.05    0.09
Q4    1   0.3105  0.6796  0.6141  11.00000  0.05    0.08
Q5    1   0.1348  0.3450  0.3501  11.00000  0.05    0.08
;
_shelx_res_checksum              31511
_shelx_hkl_file
;
   0  -2   0  118.00    4.77
   0  -2   0  111.56    4.64
   0   2   0  120.87    4.96
   0   2  -1  798.89   17.50
   0  -2   1  802.66   15.91
   0   2  -1  770.25   17.31
   0  -2   1  792.89   15.70
   0  -2   1  791.57   15.84
   0   3   0    2.24    1.45
   0  -3   0    0.08    1.36
   0   3   0    0.73    1.29
   0  -3   0    0.01    1.40
   0   3   0    2.32    1.53
   0  -3   0   -1.18    1.43
   0  -3   0   -0.06    1.25
   0  -3   0    0.80    1.49
   0  -3   1  213.44    7.13
   0   3   1  181.49    9.09
   0  -3  -1  209.47    8.35
   0   3  -1  212.09    8.00
   0  -3   1  216.69    8.24
   0  -3  -1  193.70    7.95
   0   3  -1  198.89    8.99
   0   3  -1  221.16    9.07
   0  -3   1  222.48    7.45
   0  -3   1  190.28    7.95
   0  -3  -1  209.79    8.50
   0  -3   1  218.20    8.49
   0  -3   2 1353.61   27.35
   0   3  -2 1395.60   36.22
   0   3  -2 1348.15   35.53
   0  -3   2 1384.21   27.63
   0  -3   2 1380.37   27.17
   0  -3   2 1373.46   25.31
   0  -4   0   11.46    2.94
   0   4   0   10.66    2.35
   0  -4   0   11.05    2.40
   0  -4   0    9.79    2.33
   0  -4   0   10.52    3.00
   0   4   0    4.03    2.91
   0  -4   0   11.94    3.06
   0   4   0    9.93    2.58
   0   4  -1 2227.10   37.15
   0  -4   1 2246.04   35.12
   0  -4  -1 2171.17   38.16
   0  -4  -1 2176.46   35.12
   0  -4  -1 2172.05   38.04
   0  -4   1 2153.14   37.71
   0   4   1 2094.52   40.68
   0   4  -1 2137.73   39.54
   0  -4   1 2209.68   37.79
   0  -4   1 2088.43   34.07
   0   4  -1 2220.78   40.37
   0  -4   1 2108.61   37.70
   0  -4  -1 2132.91   38.35
   0  -4   2   34.01    4.57
   0   4  -2   19.43    4.75
   0  -4   2   35.49    3.99
   0  -4   2   33.99    4.52
   0   4  -2   22.88    5.94
   0   4  -2   26.83    5.79
   0   4  -2   31.77    3.37
   0  -4   2   40.48    4.96
   0  -5   0    0.79    2.16
   0   5   0   -1.75    2.64
   0  -5   0   -2.17    2.27
   0  -5   0   -3.70    3.46
   0  -5   0    0.87    3.31
   0   5   0    1.49    2.85
   0   5   0    1.49    3.57
   0  -5   0    0.83    3.02
   0  -5   1  315.44   13.13
   0  -5  -1  331.64   13.72
   0  -5   1  323.28   13.20
   0   5   1  322.30   15.14
   0  -5  -1  312.77   13.47
   0  -5   1  360.28   11.67
   0   5  -1  332.39   14.86
   0  -5   1  331.50   13.39
   0   5  -1  333.71   12.82
   0   5   1  322.36   12.65
   0   5  -1  332.88   14.63
   0   5  -1  368.40   12.32
   0  -5   1  340.27   11.69
   0  -5  -1  347.57   13.73
   0  -5  -1  339.94   11.87
   0  -5   2    1.83    3.45
   0  -5   2    3.45    3.25
   0  -5   2    3.60    3.39
   0   5  -2   -3.96    5.12
   0   5  -2    2.87    4.08
   0  -5   2    1.38    3.45
   0   5  -2    1.04    4.83
   0   5  -3  479.16   28.17
   0  -5   3  470.32   17.54
   0  -5   3  484.76   17.65
   0  -5   3  498.26   15.95
   0  -6   0  624.94   20.33
   0  -6   0  627.04   20.34
   0   6   0  658.68   19.34
   0  -6   0  612.70   20.49
   0  -6   0  583.70   18.04
   0   6   0  589.58   21.29
   0  -6  -1   27.21    5.52
   0  -6  -1   13.89    4.92
   0   6  -1   13.16    5.39
   0  -6   1   15.88    4.99
   0   6  -1   31.40    5.36
   0  -6   1   20.07    4.22
   0  -6   1   29.64    5.69
   0   6   1   32.53    5.58
   0   6   1   19.10    6.37
   0   6  -1   26.46    6.62
   0  -6  -1   23.37    4.13
   0  -6  -1   27.41    5.32
   0  -6   1   28.93    5.71
   0   6  -1   20.92    6.41
   0  -6   2  107.17    9.29
   0  -6   2  101.73    9.30
   0   6  -2   94.05    9.49
   0   6  -2  104.04   11.61
   0   6  -2  115.35   12.35
   0  -6   2  115.29    8.17
   0  -6   2   98.27    8.66
   0  -6   3   15.95    5.61
   0  -6   3   20.60    4.88
   0   6  -3   11.41   10.46
   0   6  -3   16.27   10.94
   0  -6   3   12.05    5.40
   0  -6   3   11.08    4.76
   0   7   0    1.55    5.66
   0  -7   0   -5.66    4.75
   0   7   0    4.25    6.02
   0  -7   0   -1.38    4.33
   0  -7   0    2.97    4.74
   0  -7   1    8.18    5.30
   0  -7   1   14.55    6.34
   0  -7  -1   -1.70    4.25
   0  -7  -1    3.80    4.18
   0  -7   1    9.55    6.33
   0   7  -1    9.99    6.36
   0  -7  -1   11.27    5.73
   0   7  -1    7.89    7.43
   0   7  -1    2.00    6.04
   0  -7   2   -1.78    5.40
   0  -7   2   -4.29    5.61
   0   7  -2  -11.97    8.27
   0   7  -2   14.47    9.08
   0  -7   2   -3.08    5.12
   0  -7   3   26.49    7.53
   0   7  -3    5.46   11.13
   0  -7   3    7.59    5.16
   0  -7   3   21.77    7.08
   0   7  -3   11.03   13.11
   0  -8   0    4.34    6.00
   0  -8   0   -5.50    5.57
   0   8   0   -1.06    6.65
   0   8   0   14.67    7.62
   0  -8   0    0.72    5.68
   0  -8  -1  298.53   16.99
   0  -8   1  280.46   16.54
   0  -8   1  294.35   16.85
   0  -8   1  291.53   16.82
   0   8  -1  322.15   20.23
   0   8  -1  299.76   19.27
   0   8  -1  299.08   19.88
   0  -8   2   18.55    7.17
   0  -8   2   13.37    5.74
   0   8  -2   20.58   10.55
   0  -8   2   33.67    7.23
   0   8  -2   18.89   10.07
   0   8  -2   24.57   10.25
   0  -8   3    1.55    5.62
   0  -8   3    7.27    5.58
   0   8  -3    2.65   12.83
   0   8  -3   -1.02   12.35
   0  -8   3    4.06    6.02
   0  -9   0    5.86    5.95
   0   9   0   -9.48    8.49
   0  -9   0   -2.28    6.06
   0   9   0    1.40    8.74
   0   9   0    1.26    8.20
   0  -9   0    3.83    5.90
   0   9  -1   32.39    9.96
   0   9  -1   31.39   10.69
   0   9  -1   32.42    9.77
   0  -9   1   38.79    8.65
   0  -9   1   31.69    7.64
   0  -9   1   34.11    8.13
   0  -9   2   83.81   10.98
   0  -9   2   77.00   10.71
   0  -9   2   86.69   10.43
   0   9  -2   69.52   14.23
   0   9  -2  102.48   17.04
   0   9  -2  112.61   18.58
   0  -9   3   -4.26    6.29
   0  -9   3   -1.50    6.25
   0   9  -3   -4.11   14.51
   0   9  -3    7.97   15.80
   0   9  -3   18.14   13.90
   0  -9   3   12.82    7.24
   0 -10   0   43.23    9.43
   0  10   0   50.16   14.14
   0 -10   0   46.39    9.51
   0 -10   0   60.78   10.89
   0  10   0   58.31   13.83
   0  10  -1   59.12   14.13
   0  10  -1   88.12   17.21
   0  10  -1   80.39   17.24
   0 -10   1   96.76   12.99
   0 -10   1   57.52   10.68
   0 -10   1   68.19   11.25
   0  10  -2    7.25   12.16
   0 -10   2   13.38    7.32
   0 -10   2   15.55    8.43
   0  10  -2    0.65   13.52
   0  10  -2   14.51   14.38
   0 -10   2   10.83    8.39
   0 -10   3   13.19    8.09
   0 -10   3   13.70    7.11
   0  10  -3   -0.30   16.27
   0  10  -3   -1.37   18.15
   0 -10   3    2.48    7.50
   0 -11   1    8.60    7.94
   1   1   1  493.66   11.64
  -1   1  -1  510.65   12.23
   1  -2   2   22.13    2.91
  -1  -2  -1  644.79   14.13
   1   2  -1  586.35   16.88
   1  -2   1  573.11   13.52
   1   2  -1  633.72   16.43
   1  -2   1  583.99   12.58
   1  -2   1  589.51   13.48
  -1   2   0  546.57   12.92
  -1  -2   0  558.56   12.42
  -1  -2   0  546.19   12.51
   1   2   0  570.67   12.87
  -1  -2   0  556.08   12.55
   1  -2   0  514.48   12.12
   1  -2   0  544.57   11.44
   1  -2   0  524.06   12.30
  -1  -2   1  635.18   14.39
  -1   2  -1  617.79   13.27
  -1   2  -1  574.98   13.10
  -1  -2   1  643.45   14.20
  -1   2  -1  607.91   14.70
   1   2   1  631.28   15.20
   1   2   1  617.93   14.58
  -1  -2   1  599.97   14.25
  -1   2  -1  590.59   14.36
  -1   2  -2   23.98    4.18
   1   3  -2  119.78   10.75
   1  -3   2  121.20    6.63
   1  -3   2  104.48    6.61
   1  -3   2  119.67    6.84
   1  -3   2  119.70    5.95
  -1  -3  -1   89.57    5.75
   1   3  -1   91.76    6.34
  -1  -3  -1   94.38    5.56
   1  -3   1   92.67    5.01
   1  -3   1   90.23    5.80
  -1  -3  -1   95.03    4.66
   1  -3   1   89.36    5.05
   1  -3   1   95.57    4.73
  -1  -3  -1   96.37    5.86
   1   3  -1   96.67    6.69
   1   3  -1   92.03    4.62
   1  -3   1   99.08    5.76
   1  -3   1   94.84    4.72
  -1   3   0 1375.91   23.79
   1  -3   0 1335.69   23.96
   1   3   0 1368.30   25.94
   1  -3   0 1350.31   23.41
  -1   3   0 1309.08   22.47
   1   3   0 1305.71   22.37
  -1  -3   0 1385.75   24.81
  -1   3   0 1383.95   25.91
   1  -3   0 1352.15   25.08
   1  -3   0 1360.62   22.67
   1   3   0 1348.39   25.24
   1  -3   0 1335.70   23.03
  -1  -3   0 1423.15   25.80
  -1   3   0 1352.34   24.39
  -1  -3   0 1409.10   23.82
  -1  -3   0 1383.83   25.64
   1  -3   0 1297.40   25.25
  -1   3  -1   94.61    5.10
  -1  -3   1   96.06    5.82
   1   3   1   97.43    6.07
  -1   3  -1   95.17    6.14
  -1   3  -1   93.67    5.69
   1   3   1   85.85    6.41
   1  -3  -1   84.26    5.59
  -1   3  -1   92.15    4.78
  -1  -3   1   91.53    5.31
  -1  -3   1  102.47    5.62
  -1   3  -1   97.30    6.41
  -1  -3   1  100.61    5.93
  -1   3  -2   98.28    6.32
  -1   3  -2  122.20    8.73
  -1  -3   2  110.65    6.48
  -1  -3   2  115.08    7.10
  -1   3  -2  121.06    9.42
  -1  -3   2  117.28    7.31
   1  -4   3  461.17   15.38
   1  -4   3  501.33   16.48
   1  -4   2   15.95    3.38
   1  -4   2   17.97    3.87
   1  -4   2   15.32    2.70
   1  -4   2   17.61    3.52
   1  -4   2   11.25    3.09
   1   4  -2   11.12    5.33
   1   4  -2   14.61    6.21
   1   4  -1  316.61   12.79
   1  -4   1  294.95   11.33
   1  -4   1  326.44   10.04
   1   4  -1  318.04    9.54
   1  -4   1  321.72   11.50
   1  -4   1  310.82   11.82
   1  -4   1  317.02    9.83
   1   4  -1  301.41   13.62
   1  -4   1  295.45   12.28
   1   4  -1  316.06   13.29
   1  -4   0  217.50    9.60
  -1  -4   0  220.76    6.97
   1   4   0  230.85   10.15
  -1   4   0  213.61    9.81
  -1   4   0  204.34    7.70
  -1  -4   0  218.55    9.95
   1  -4   0  214.15    9.10
  -1   4   0  224.30   10.21
  -1  -4   0  217.13    9.10
   1   4   0  214.52   10.16
  -1  -4   0  212.79    9.99
   1  -4   0  207.91    9.78
   1   4   0  267.65   10.70
  -1  -4   0  234.49    9.30
   1  -4   0  224.72    9.59
   1  -4   0  239.83    8.22
   1   4   0  222.89    7.38
  -1  -4   0  224.81    7.63
  -1   4  -1  289.31    9.61
  -1  -4   1  306.92    8.65
   1   4   1  358.13   14.69
  -1   4  -1  294.22   11.78
   1  -4  -1  324.11   11.68
   1  -4  -1  315.27   12.49
  -1   4  -1  316.27   12.41
  -1  -4   1  327.66   11.46
  -1   4  -1  287.34   12.59
  -1  -4   1  294.74   11.78
  -1   4  -1  298.08    9.90
  -1  -4   1  321.91   11.35
  -1  -4   1  290.16   11.91
  -1   4  -2   17.71    4.77
  -1   4  -2   13.94    3.29
  -1  -4   2   20.42    4.22
  -1   4  -2   13.03    5.06
  -1  -4   2   12.10    2.97
  -1  -4   2   14.93    3.39
  -1  -4   2   15.69    2.70
  -1  -4   2   13.25    3.68
  -1   4  -2    8.03    4.62
  -1   4  -3  486.93   26.04
   1  -5   3   31.53    5.10
   1  -5   3   32.76    5.48
   1  -5   3   34.33    5.17
   1   5  -2  237.52   16.17
   1  -5   2  248.10   11.64
   1  -5   2  246.47   11.57
   1   5  -2  241.59   16.62
   1  -5   2  269.77   12.07
   1  -5   2  247.30   12.59
  -1   5   1 1265.23   30.22
   1   5  -1 1286.50   32.39
   1   5  -1 1265.17   31.35
   1   5  -1 1254.99   28.88
   1  -5   1 1250.92   27.75
  -1  -5  -1 1272.76   29.40
   1  -5   1 1291.98   28.03
  -1  -5  -1 1274.20   29.55
   1  -5   1 1228.60   28.76
  -1  -5  -1 1307.90   28.40
  -1  -5  -1 1260.91   27.55
   1  -5   1 1266.84   27.56
   1   5   0  172.33    9.68
   1  -5   0  177.73    9.75
  -1   5   0  168.86    9.93
   1   5   0  168.43   10.34
   1  -5   0  163.69    9.68
   1  -5   0  193.47   10.03
  -1  -5   0  174.72   10.03
   1  -5   0  176.97    9.20
  -1   5   0  167.57    9.65
  -1  -5   0  180.99    8.92
  -1  -5   0  183.27    9.24
  -1  -5   0  170.17    9.84
  -1  -5   1 1247.85   29.21
  -1  -5   1 1313.66   27.43
   1  -5  -1 1265.91   29.87
   1   5   1 1265.11   30.88
  -1  -5   1 1194.46   28.91
  -1  -5   1 1262.98   27.66
  -1   5  -1 1252.15   29.67
  -1   5  -1 1253.29   28.65
  -1   5  -1 1277.95   31.52
   1  -5  -1 1275.59   24.29
  -1   5  -1 1278.27   29.27
   1   5   1 1241.39   31.30
   1  -5  -1 1277.00   28.21
  -1  -5   2  245.93   11.84
  -1   5  -2  255.13   14.22
  -1  -5   2  273.65   11.85
  -1   5  -2  230.63   14.54
  -1  -5   2  236.75   12.32
  -1   5  -2  235.83   14.85
  -1  -5   2  257.33   12.45
  -1  -5   3   32.39    5.46
  -1  -5   3   32.11    5.24
  -1   5  -3   43.18   11.40
   1  -6   3   72.85    7.69
   1  -6   3   73.41    7.88
   1  -6   3   70.30    8.65
   1   6  -3   64.18   13.79
   1   6  -2  468.22   24.21
   1   6  -2  461.18   23.84
   1  -6   2  474.71   17.80
   1  -6   2  489.55   19.16
   1  -6   2  494.63   18.15
   1  -6   2  475.99   17.81
   1   6  -1   36.75    6.92
  -1  -6  -1   39.74    5.57
   1  -6   1   48.20    6.27
   1  -6   1   47.40    6.13
   1   6  -1   42.71    6.56
  -1  -6  -1   47.91    6.61
   1  -6   1   49.24    6.10
   1   6  -1   46.26    8.10
  -1  -6  -1   47.69    5.91
  -1   6   1   43.30    6.78
  -1  -6  -1   48.97    6.69
   1  -6   1   36.33    6.01
   1   6  -1   47.77    7.87
  -1  -6   0    1.92    4.35
   1   6   0    4.57    4.28
   1  -6   0   14.58    4.20
   1  -6   0    8.01    4.32
  -1   6   0    8.56    4.96
  -1  -6   0    8.18    3.81
  -1   6   0    7.05    4.36
  -1  -6   0    6.96    4.67
   1  -6   0    1.09    3.68
   1   6   0    2.12    4.81
   1   6   0    3.17    4.63
  -1  -6   0    3.85    3.64
   1  -6   0    6.15    4.43
  -1  -6   1   37.37    6.13
  -1   6  -1   52.88    7.52
  -1  -6   1   45.65    6.32
  -1   6  -1   38.81    6.23
  -1   6  -1   41.00    6.23
  -1  -6   1   44.93    5.50
   1   6   1   31.42    6.58
  -1   6  -1   45.14    7.18
   1  -6  -1   38.56    5.85
   1  -6  -1   39.15    6.21
  -1  -6   1   49.11    6.51
  -1   6  -2  456.95   22.02
  -1  -6   2  479.93   18.77
  -1  -6   2  496.35   17.42
  -1   6  -2  450.63   22.00
  -1   6  -2  484.56   21.01
  -1  -6   2  447.00   17.83
  -1  -6   2  448.34   18.94
  -1   6  -3   53.35    9.91
  -1  -6   3   71.96    8.07
  -1  -6   3   72.34    8.54
  -1  -6   3   71.25    8.15
  -1   6  -3   71.65   13.88
   1  -7   3   24.68    6.48
   1   7  -3    6.98   10.67
   1   7  -3   15.04   13.99
   1  -7   3   34.73    7.26
   1  -7   3   22.65    5.95
   1  -7   3   20.88    6.74
   1  -7   2  101.54    9.65
   1   7  -2  107.67   14.32
   1  -7   2   97.46   10.14
   1  -7   2   94.52    8.97
   1   7  -2   96.21   13.98
   1  -7   2   84.57    9.10
  -1  -7  -1  138.87   11.48
   1  -7   1  180.34   11.42
   1   7  -1  185.61   14.14
   1  -7   1  172.84   11.65
   1  -7   1  154.19    9.97
  -1  -7  -1  167.82   12.04
   1   7  -1  163.05   13.70
  -1  -7  -1  167.75   10.81
   1   7  -1  167.15   14.15
   1  -7   1  156.91   12.14
  -1   7   1  165.31   12.63
   1  -7   0   11.46    5.46
  -1  -7   0    2.21    4.39
   1  -7   0    1.18    4.87
   1   7   0   -4.96    5.90
  -1  -7   0    0.72    4.13
   1  -7   0   -6.14    4.10
  -1  -7   0    0.02    5.00
   1   7   0    2.65    5.54
  -1   7   0    2.44    5.44
   1  -7   0    3.57    4.59
   1   7   0    4.99    6.21
  -1   7   0    1.53    5.37
  -1  -7   0    1.70    4.95
  -1   7  -1  176.81   12.57
  -1   7  -1  168.36   14.18
   1  -7  -1  175.66   11.87
  -1   7  -1  185.25   13.38
  -1  -7   1  160.98   11.92
  -1  -7   1  161.76   11.84
  -1   7  -1  158.68   12.92
  -1  -7   1  147.78   10.95
   1  -7  -1  183.17   12.63
   1   7   1  160.08   13.63
  -1  -7   2   93.44   10.49
  -1   7  -2  101.42   13.34
  -1  -7   2   90.27    9.51
  -1   7  -2  101.25   12.71
  -1   7  -2   80.53   10.20
  -1   7  -2   87.11   10.81
  -1  -7   2   88.15    9.12
  -1  -7   3   25.77    6.60
  -1  -7   3   24.96    6.57
  -1   7  -3   12.71    8.04
  -1  -7   3   26.14    7.61
  -1   7  -3   21.06   12.45
   1   8  -3   66.91   15.92
   1  -8   3   99.81   10.18
   1   8  -3  119.64   21.29
   1  -8   3  118.01   11.37
   1  -8   3   94.10   11.11
   1   8  -2   17.77   11.00
   1  -8   2   25.60    7.78
   1  -8   2   23.25    6.65
   1  -8   2   23.81    7.08
   1   8  -2   22.02   11.34
   1   8  -2    5.00    8.63
   1  -8   1  143.57   11.48
   1  -8   1  124.65   11.21
   1   8  -1  126.91   14.34
  -1  -8  -1  117.63   11.58
  -1  -8  -1  116.46   11.47
   1   8  -1  126.83   14.11
   1  -8   1  140.86   12.08
   1   8  -1  150.85   15.33
  -1  -8   0   99.85   10.76
   1  -8   0  115.43   10.67
  -1   8   0   93.62   12.30
  -1  -8   0  105.46   10.86
  -1   8   0  107.35   12.34
   1   8   0   90.63   12.41
  -1  -8   0  113.48   10.56
   1  -8   0  107.80   10.77
   1   8   0  111.66   12.76
   1  -8   0  104.53   10.21
   1   8   0   94.73   11.88
  -1  -8   1  127.37   11.82
   1   8   1  140.28   13.97
  -1   8  -1  138.28   13.17
  -1   8  -1  132.28   14.22
  -1  -8   1  144.00   12.10
  -1  -8   1  136.90   12.45
  -1   8  -1  138.21   13.79
  -1   8  -2   29.92   11.47
  -1  -8   2   14.70    6.50
  -1   8  -2   29.94    9.17
  -1  -8   2   17.13    6.22
  -1   8  -2   26.95   11.59
  -1  -8   2   29.45    7.85
  -1  -8   3  100.91   11.91
  -1   8  -3  102.99   15.91
  -1   8  -3  108.47   19.24
  -1  -8   3   93.06   10.57
  -1   8  -3  109.79   17.95
  -1  -8   3   98.50   10.48
   1   9  -3    8.12   16.58
   1  -9   3    9.12    6.95
   1  -9   3   20.86    7.02
   1   9  -3   -2.39   15.88
   1   9  -3   23.79   16.33
   1  -9   3   10.78    6.73
   1   9  -2   35.19   12.33
   1   9  -2   39.72   13.15
   1  -9   2   46.35    8.66
   1   9  -2   40.55   13.86
   1  -9   2   33.17    8.03
   1  -9   2   39.26    8.73
   1  -9   1   26.45    8.04
   1   9  -1   36.91   11.73
   1   9  -1   19.46    8.94
   1   9  -1   21.51   10.78
   1  -9   1   34.43    8.59
   1  -9   1   33.43    8.61
   1   9   0   64.88   11.78
  -1  -9   0   69.16   10.40
  -1   9   0  119.05   15.73
  -1   9   0  153.74   17.27
  -1  -9   0   87.55   11.37
   1  -9   0  171.49   14.95
  -1  -9   0   76.35    9.76
   1   9   0  103.87   14.07
   1   9   0   81.88   12.99
  -1   9  -1   25.90   10.32
  -1   9  -1   23.06    9.50
  -1   9  -1   55.06   12.67
  -1  -9   1   24.86    8.07
  -1  -9   1   40.08    8.53
  -1  -9   1   39.94    9.10
  -1  -9   2   34.99    8.86
  -1  -9   2   40.68    8.58
  -1   9  -2   25.71    9.89
  -1   9  -2   37.39   12.56
  -1   9  -2   54.70   14.23
  -1  -9   2   42.74    8.67
  -1  -9   3   12.55    7.32
  -1  -9   3   19.25    7.05
  -1   9  -3   19.53   12.42
  -1  -9   3   16.58    7.01
   1  10  -3   39.37   22.17
   1  10  -3   86.11   25.42
   1 -10   3   80.30   11.90
   1 -10   3   80.73   11.49
   1 -10   2   20.35    7.49
   1  10  -2   36.07   16.17
   1  10  -2   55.26   18.43
   1  10  -2   34.51   19.46
   1 -10   2   20.54    8.11
   1  10  -1   -4.14   14.19
   1  10  -1    1.51   11.90
   1  10  -1    8.84   11.92
   1 -10   1   15.74    7.19
   1 -10   1    8.94    7.30
   1  10   0    1.43   11.11
  -1  10   0    1.54   11.19
  -1 -10   0    9.52    7.80
   1  10   0    3.22   11.57
  -1 -10   0    4.57    7.83
   1  10   0    1.58   11.69
   1 -10   0   12.59    7.96
  -1 -10   1    2.50    7.12
  -1  10  -1   18.27   13.08
  -1 -10   1    4.03    7.07
  -1  10  -1    5.80   11.24
  -1 -10   1  -11.57    8.71
  -1 -10   2   14.14    8.44
  -1  10  -2   33.36   17.02
  -1  10  -2   17.72   13.22
  -1 -10   2   25.97    8.85
  -1 -10   2   35.84    9.86
  -1 -10   3   76.32   11.48
  -1 -10   3   69.79   10.96
  -1  10  -3   92.23   21.34
  -1 -10   3   65.81   11.99
  -1 -11   1   54.40   11.18
  -2   0   0 9999.00  122.81
  -2   0   0 9894.28  122.95
   2   0   0 9851.70  123.18
   2   0   0 9853.55  123.40
  -2   0   0 9503.95  120.93
   2   0   0 9908.05  123.67
  -2   0   0 9845.15  120.71
  -2   0   0 9993.08  122.61
   2   0   1 7639.75   98.17
  -2   0  -1 7671.34   95.60
   2   0  -1 7667.28   99.69
   2   0  -1 7668.59   99.64
  -2   0  -1 7643.28   98.91
   2   0   1 7655.68   98.17
  -2   0   1 7673.07   99.78
  -2   0  -1 7727.21   99.28
   2   0   1 7672.53   95.65
   2   0   1 7748.11   97.96
  -2   0  -1 7638.07   98.50
  -2   0   1 7650.55   99.27
  -2   0   1 7674.54   99.21
  -2   0  -1 7608.92   98.68
   2   0   1 7615.03   96.09
   2  -1   2 1634.09   31.26
   2  -1   2 1740.21   31.79
   2  -1   1  258.12    9.10
   2  -1   1  258.93    8.78
  -2  -1  -1  269.53    9.16
  -2  -1  -1  263.72    9.22
  -2   1   1  238.85    9.36
   2   1  -1  252.74    8.51
  -2  -1  -1  257.75    8.75
   2  -1   1  257.91    9.03
  -2   1   1  243.84    9.59
   2  -1   1  265.17    8.39
  -2  -1  -1  265.34    8.53
  -2  -1   0  107.14    5.44
  -2  -1   0  114.40    4.98
  -2  -1   0  127.84    5.95
  -2   1   0  114.55    5.66
   2   1   0  123.95    5.39
  -2   1   0  115.13    5.34
   2  -1   0  106.14    5.39
  -2   1   0  104.39    5.43
   2  -1   0  110.24    5.77
   2  -1   0  122.12    5.96
  -2  -1   0  112.93    5.06
  -2   1   0  120.86    5.80
   2   1   0  117.97    5.93
   2  -1   0  112.80    5.31
   2   1   0  114.54    5.14
   2  -1  -1  250.35    9.58
   2   1   1  255.49    8.73
   2   1   1  267.83    9.16
   2  -1  -1  245.51    9.50
  -2  -1   1  267.30    8.61
  -2   1  -1  254.72    9.26
  -2  -1   1  259.02    9.61
  -2   1  -1  264.37    9.51
  -2   1  -1  258.12    8.44
  -2  -1   1  255.02    9.05
   2   1   1  252.20    8.41
  -2   1  -1  252.61    9.20
   2   1   1  269.41    9.37
  -2   1  -1  251.13    9.10
  -2   1  -2 1549.64   30.23
  -2   1  -2 1440.67   33.37
  -2   1  -2 1384.05   27.13
  -2   1  -2 1414.85   29.10
   2  -2   2   63.63    5.18
   2  -2   2   63.27    5.13
   2  -2   2   54.67    4.90
   2  -2   2   56.87    4.56
  -2  -2  -1  624.45   14.56
   2  -2   1  590.14   15.17
   2  -2   1  607.49   15.33
   2  -2   1  621.94   13.44
  -2  -2  -1  598.19   14.62
   2  -2   1  611.39   14.36
  -2  -2  -1  632.90   15.46
  -2  -2  -1  615.85   15.70
   2   2  -1  617.17   18.89
   2   2  -1  588.69   15.91
   2  -2   1  593.41   15.57
  -2  -2  -1  637.02   13.59
  -2   2   0   43.90    4.27
  -2  -2   0   46.81    3.83
  -2   2   0   42.91    3.40
   2  -2   0   41.21    3.77
  -2   2   0   41.26    3.85
  -2  -2   0   45.43    3.58
   2  -2   0   46.26    4.33
   2  -2   0   42.67    3.26
  -2  -2   0   43.49    3.09
  -2   2   0   43.29    3.85
  -2  -2   0   48.05    3.87
   2  -2   0   41.82    3.91
   2  -2   0   44.79    3.67
   2   2   0   44.40    4.04
   2   2   0   43.03    2.91
  -2  -2   0   40.57    3.86
  -2   2  -1  610.99   15.74
  -2  -2   1  627.19   15.03
  -2   2  -1  587.70   13.30
  -2   2  -1  566.45   15.16
   2   2   1  639.66   13.75
  -2  -2   1  613.68   15.53
   2  -2  -1  591.37   16.08
   2   2   1  630.34   15.54
   2   2   1  620.21   15.66
  -2   2  -1  590.35   16.18
  -2  -2   1  592.38   15.65
  -2  -2   1  628.59   13.01
  -2  -2   1  631.29   15.15
  -2   2  -1  604.78   15.36
   2   2   1  594.71   16.21
  -2   2  -2   54.88    5.44
  -2   2  -2   58.38    4.48
  -2   2  -2   63.71    5.69
  -2   2  -2   61.99    8.01
  -2   2  -2   53.16    6.10
   2  -3   3  171.82    9.42
   2  -3   2  246.51   10.34
   2  -3   2  235.49   10.29
   2  -3   2  219.81   10.40
   2  -3   2  245.01    8.76
   2  -3   2  246.93   10.37
  -2   3   1  317.37   12.11
   2  -3   1  292.99   11.30
   2   3  -1  306.36   11.33
  -2  -3  -1  331.57   10.90
   2  -3   1  309.90    9.14
   2  -3   1  306.35    8.85
   2  -3   1  301.55   11.02
   2  -3   1  320.00   11.21
  -2  -3  -1  301.17   10.98
   2  -3   1  295.06    8.28
  -2  -3  -1  331.32   11.52
   2   3  -1  300.36   13.91
   2   3  -1  292.00   12.99
   2  -3   1  306.05   10.84
  -2  -3  -1  302.12   11.41
  -2   3   0  126.12    6.86
  -2  -3   0  125.99    7.12
  -2   3   0  123.53    7.13
  -2  -3   0  134.91    6.61
   2  -3   0  118.32    5.49
   2  -3   0  140.16    7.29
   2  -3   0  134.13    5.51
  -2  -3   0  135.08    5.64
   2  -3   0  123.94    7.30
  -2   3   0  123.97    7.74
   2  -3   0  127.47    6.92
   2   3   0  126.80    7.38
   2   3   0  127.92    7.57
   2  -3   0  124.24    7.08
   2   3   0  141.12    6.23
  -2  -3   0  131.16    7.06
   2   3   0  131.38    6.87
  -2  -3   0  126.22    7.28
   2  -3   0  134.89    5.46
  -2  -3   1  308.05   11.58
  -2   3  -1  329.24    9.11
   2   3   1  301.06    8.55
  -2  -3   1  314.87   10.27
   2   3   1  309.03   11.96
  -2   3  -1  290.32   10.77
   2  -3  -1  318.49   12.14
  -2  -3   1  320.05    9.45
  -2   3  -1  298.82   12.02
  -2   3  -1  301.25   11.16
  -2   3  -1  306.94   10.26
  -2  -3   1  312.26   11.51
   2  -3  -1  299.47   11.13
  -2   3  -1  294.13    8.59
  -2   3  -1  301.12   11.67
   2   3   1  300.53   11.78
  -2  -3   1  299.69   11.19
   2   3   1  303.11   12.18
  -2  -3   2  262.08   11.48
  -2   3  -2  247.02    8.78
  -2  -3   2  246.30   11.01
  -2   3  -2  219.25   10.63
  -2   3  -2  217.48   13.05
  -2   3  -2  237.75   11.35
  -2  -3   2  230.91   10.83
  -2  -3   2  220.89    8.89
  -2   3  -2  244.94   12.63
   2  -4   3   69.47    6.72
   2  -4   3   73.20    7.01
   2  -4   3   72.56    5.99
   2  -4   3   64.92    6.00
   2  -4   2  322.69   12.19
   2  -4   2  350.43   12.53
   2  -4   2  330.01   11.33
   2  -4   2  318.18   13.27
   2  -4   2  280.32   12.40
   2   4  -2  302.47   18.84
   2   4  -2  283.77   12.75
  -2  -4  -1 1020.42   24.41
   2  -4   1 1043.05   22.74
  -2  -4  -1 1031.88   21.89
   2  -4   1  961.86   21.69
   2   4  -1  985.76   27.13
   2  -4   1  970.71   20.67
  -2   4   1  982.23   24.17
   2  -4   1  980.59   20.67
  -2   4   1  995.15   26.74
  -2  -4  -1 1016.67   24.01
   2   4  -1  968.01   26.20
   2  -4   1  989.83   24.14
   2  -4   1  924.32   23.25
   2   4  -1  983.27   22.97
  -2  -4  -1  976.73   23.88
  -2  -4   0    1.44    2.87
   2   4   0    1.04    2.40
  -2  -4   0    2.33    2.85
  -2   4   0    4.87    3.12
   2  -4   0    4.69    3.03
  -2  -4   0    4.68    2.46
  -2  -4   0    0.14    3.03
   2  -4   0    5.04    2.61
   2  -4   0    3.87    2.57
   2   4   0    0.54    3.09
  -2   4   0    7.48    4.14
  -2   4   0    1.87    2.65
  -2   4   0    1.82    2.31
   2  -4   0    3.70    2.37
   2   4   0    3.59    3.33
   2   4   0    2.47    2.61
   2  -4   0    4.94    3.16
  -2  -4   0    3.72    2.27
   2  -4   0    2.20    2.56
  -2  -4   1  995.21   23.79
   2   4   1  978.86   25.11
  -2   4  -1 1021.81   23.03
   2   4   1  936.58   24.78
   2  -4  -1  981.93   21.29
  -2  -4   1  997.38   21.06
  -2   4  -1  967.44   25.11
  -2  -4   1  960.98   23.93
  -2   4  -1  949.29   22.27
  -2  -4   1 1018.20   24.16
   2  -4  -1  948.56   24.00
  -2   4  -1  990.25   22.57
  -2   4  -1  989.86   25.16
   2  -4  -1 1008.78   22.86
   2   4   1  891.64   28.99
  -2  -4   1  988.72   20.90
   2  -4  -1  971.20   24.92
  -2   4  -1  983.28   21.19
  -2   4  -2  293.43   12.73
  -2   4  -2  331.94   15.30
  -2   4  -2  294.77   15.32
  -2   4  -2  285.36   12.66
  -2  -4   2  324.68   13.53
  -2  -4   2  325.08   11.66
  -2  -4   2  322.02   13.45
  -2  -4   2  311.94   13.20
  -2   4  -3   70.88    8.44
  -2   4  -3   68.23    9.93
  -2   4  -3   58.65   10.55
   2  -5   3  279.06   12.17
   2  -5   3  267.89   11.90
   2  -5   3  265.95   13.64
   2  -5   3  243.58   13.27
   2  -5   2   26.66    4.58
   2  -5   2   18.63    3.91
   2  -5   2   28.12    4.54
   2  -5   2   19.07    4.92
   2   5  -2   23.01    8.86
   2  -5   2   22.17    4.17
   2   5  -2   29.54    9.92
   2  -5   2   19.03    4.72
   2  -5   1  169.69   10.37
   2  -5   1  164.71    8.50
  -2  -5  -1  180.50    8.49
   2   5  -1  162.01   11.39
   2  -5   1  175.27    8.94
  -2   5   1  161.84   11.61
   2  -5   1  153.26    9.95
  -2  -5  -1  156.31    9.94
  -2  -5  -1  155.36   10.11
   2   5  -1  169.75   11.36
   2  -5   1  182.36    9.21
   2   5  -1  173.33   12.47
   2  -5   1  165.67    8.79
  -2  -5  -1  162.34    9.94
  -2   5   1  170.03    9.90
   2  -5   0  312.72   11.78
  -2   5   0  327.89   13.69
   2  -5   0  329.24   12.36
  -2   5   0  315.76   13.60
  -2  -5   0  291.69   13.53
   2  -5   0  312.39   12.56
   2   5   0  291.74   12.70
   2  -5   0  325.81   14.21
   2   5   0  300.00   14.01
   2   5   0  290.80   13.97
  -2   5   0  300.99   14.40
  -2  -5   0  329.83   12.14
  -2   5   0  308.13   12.02
   2  -5   0  305.47   13.78
  -2  -5   0  311.10   13.22
   2  -5   0  291.43   11.81
  -2  -5   0  301.61   13.45
  -2   5  -1  168.05    9.26
  -2   5  -1  170.65   10.02
  -2   5  -1  174.87    9.49
   2  -5  -1  171.40    9.06
   2   5   1  157.49   10.67
  -2  -5   1  165.21   10.36
  -2  -5   1  160.51   10.17
  -2  -5   1  163.78    9.85
   2   5   1  158.64   10.61
  -2   5  -1  166.80   11.03
   2  -5  -1  162.16    8.86
  -2   5  -1  181.32    9.90
  -2   5  -1  169.08   11.28
  -2  -5   1  167.76    8.77
   2  -5  -1  156.59   10.23
  -2   5  -2   24.32    5.47
  -2  -5   2   18.83    5.07
  -2  -5   2   25.48    4.72
  -2   5  -2   22.35    5.80
  -2   5  -2   23.55    4.65
  -2   5  -2   28.76    7.46
  -2   5  -2   21.12    6.70
  -2  -5   2   26.82    5.63
  -2  -5   2   26.28    4.88
  -2   5  -3  248.07   14.81
  -2   5  -3  248.44   20.08
  -2   5  -3  235.66   17.24
   2  -6   3   20.20    5.26
   2  -6   3   14.89    6.00
   2  -6   3   20.67    6.09
   2  -6   2  216.55   12.70
   2   6  -2  183.52   17.45
   2   6  -2  209.71   18.49
   2  -6   2  200.45   12.78
   2  -6   2  210.24   11.23
   2   6  -1    1.80    5.49
   2  -6   1   19.19    5.19
  -2  -6  -1   12.97    5.16
   2   6  -1   22.46    6.65
  -2  -6  -1   10.24    4.75
  -2  -6  -1   14.16    4.83
   2   6  -1    4.66    6.28
   2  -6   1   11.50    4.09
  -2   6   1   12.49    6.22
   2  -6   1   19.24    4.49
   2  -6   1   10.60    4.60
   2   6  -1   14.06    6.23
   2   6   0  263.88   15.18
   2  -6   0  250.66   12.24
   2  -6   0  270.91   12.29
   2  -6   0  263.10   13.76
  -2  -6   0  262.75   13.91
  -2   6   0  261.34   14.10
   2  -6   0  257.10   14.02
  -2   6   0  263.49   14.50
   2   6   0  248.19   14.13
   2   6   0  273.74   13.79
  -2  -6   0  248.36   13.81
  -2  -6   0  295.78   12.90
  -2  -6   0  279.81   13.77
  -2  -6   1   19.49    5.34
   2   6   1   13.00    5.98
  -2   6  -1   17.91    5.59
  -2  -6   1   15.28    5.25
   2   6   1   11.34    5.09
  -2   6  -1   15.09    5.32
  -2  -6   1   11.63    5.07
  -2   6  -1   15.71    5.99
   2  -6  -1   18.52    4.65
  -2   6  -1   23.36    6.72
  -2  -6   1   15.95    4.30
   2  -6  -1   15.88    5.29
  -2   6  -2  229.11   16.87
  -2   6  -2  214.92   14.73
  -2  -6   2  185.21   12.87
  -2   6  -2  230.48   13.38
  -2   6  -2  206.21   15.69
  -2  -6   2  220.05   13.44
  -2  -6   2  226.31   12.80
  -2  -6   2  223.82   12.21
  -2   6  -3   19.55    8.90
  -2  -6   3   16.99    5.05
  -2  -6   3   10.14    5.76
  -2   6  -3    2.55   10.07
  -2  -6   3   16.29    5.12
   2  -7   3   21.64    6.52
   2   7  -3   10.14   13.07
   2  -7   3   22.74    7.17
   2   7  -2    1.41    9.77
   2  -7   2    6.41    5.59
   2   7  -2   15.34    9.53
   2   7  -2   -8.07    9.85
   2  -7   2   -3.90    5.87
  -2  -7  -1    1.70    5.03
   2   7  -1   12.42    8.21
   2  -7   1   -6.66    5.59
   2   7  -1   -1.89    8.27
   2   7  -1    7.62    7.12
  -2  -7  -1   -1.85    5.32
  -2  -7  -1   -0.15    5.48
   2   7  -1   12.13    6.53
   2  -7   1  -12.80    6.08
   2  -7   1   16.40    6.01
   2  -7   0   18.53    5.13
  -2  -7   0   20.97    5.85
  -2  -7   0   14.66    6.34
   2  -7   0    6.34    5.73
  -2  -7   0   22.06    6.52
   2   7   0   16.17    7.88
  -2   7   0   25.32    7.32
   2   7   0   20.58    7.22
   2   7   0   12.99    6.69
   2   7   0    2.12    5.81
   2  -7   0   16.15    6.30
  -2  -7   0   22.29    5.84
  -2  -7   1    7.22    5.83
  -2  -7   1    6.73    6.49
   2   7   1    3.12    5.83
  -2  -7   1    3.07    5.71
   2   7   1    5.19    6.19
  -2   7  -1    7.07    6.04
  -2   7  -1    6.03    7.26
  -2  -7   1    7.23    5.07
  -2   7  -2    5.30    6.74
  -2  -7   2    5.88    5.01
  -2  -7   2    5.25    5.57
  -2  -7   2   11.25    5.81
  -2  -7   2   16.71    7.08
  -2   7  -2   -7.81    7.59
  -2  -7   3   20.89    6.53
  -2   7  -3   28.22   10.95
  -2  -7   3   19.72    6.51
  -2   7  -3   19.26   11.70
  -2  -7   3    7.27    5.08
   2  -8   3    8.51    6.25
   2  -8   3   13.10    6.63
   2   8  -2   96.25   16.00
   2   8  -2   68.02   15.05
   2  -8   2   90.30   10.65
   2   8  -2   92.82   16.70
   2  -8   2   75.27   10.29
  -2  -8  -1  140.57   11.72
   2   8  -1  136.38   15.30
  -2  -8  -1  142.56   12.86
  -2  -8  -1  143.28   12.83
   2  -8   1  169.46   13.48
   2   8  -1  144.08   14.85
   2   8  -1  144.74   14.89
   2   8  -1  120.55   14.04
   2  -8   1  157.78   13.42
  -2  -8   0   11.39    7.15
  -2  -8   0    3.49    5.94
   2   8   0    8.13    8.13
   2   8   0   -1.49    7.68
  -2  -8   0   -2.11    5.86
   2   8   0   -6.84    7.80
   2  -8   0   -0.21    5.67
   2   8   0    2.83    7.46
  -2   8   0    8.77    7.50
  -2   8   0   -5.69    8.51
   2  -8   0   18.18    7.36
  -2  -8   1  151.44   13.67
  -2  -8   1  136.82   13.09
   2   8   1  134.24   15.00
  -2   8  -1  150.90   14.04
  -2   8  -1  174.29   16.00
  -2  -8   2   82.89   10.65
  -2  -8   2   87.80   10.74
  -2  -8   2   88.12   10.14
  -2   8  -2   78.50   12.48
  -2   8  -2   93.85   14.51
  -2  -8   3   14.66    6.20
  -2  -8   3    6.72    6.66
  -2   8  -3   19.34   11.98
  -2   8  -3   23.80   11.75
  -2  -8   3    8.28    6.08
   2   9  -3   22.69   20.51
   2   9  -3    7.82   17.30
   2  -9   3   19.91   11.80
   2   9  -2   36.11   14.61
   2   9  -2   49.69   16.96
   2  -9   2   49.83    9.62
  -2  -9  -1   31.45    8.65
   2   9  -1   34.30   11.89
  -2  -9  -1   18.35    7.93
   2   9  -1   37.65   12.00
   2  -9   1    4.25    7.04
  -2  -9   0   17.24    7.09
   2   9   0   23.30   11.15
  -2  -9   0   25.00    7.80
   2   9   0   23.75    9.71
   2  -9   0   18.59    9.39
  -2  -9   1   22.81    7.88
  -2  -9   1   28.56    8.33
  -2   9  -1   19.83   10.73
  -2  -9   2   56.78   10.98
  -2  -9   2   42.57    9.45
  -2   9  -2   47.11   14.78
  -2  -9   3    9.66    6.40
  -2  -9   3   32.86    9.43
   2 -10   3    1.20    7.98
   2  10  -2    6.96   17.74
   2  10  -2    8.25   15.61
   2 -10   2   22.16    9.57
   2  10  -1   56.56   16.21
   2 -10   1   67.93   11.65
   2  10  -1   32.39   14.48
   2  10   0   34.19   13.57
   2  10   0    2.91   12.30
  -2 -10   0   14.65    7.90
  -2 -10   0    8.87    7.94
  -2 -10   1   70.19   11.86
  -2 -10   1   65.95   12.04
  -2  10  -1   40.91   13.95
  -2 -10   2   36.62   10.65
  -2 -10   2   26.63   10.04
  -2  10  -2   33.49   16.83
  -2 -10   3    9.06    7.34
  -2 -10   3   -0.79    7.98
  -3   0   0    0.51    1.76
  -3   0   0    0.29    2.30
   3   0   0    0.93    2.40
  -3   0   0   -1.87    2.43
   3   0   0   -0.17    1.90
  -3   0   0    0.27    2.13
   3   0   0   -1.63    2.24
   3   0   0   -1.17    2.12
  -3   0   0   -0.32    1.89
   3   0   1  947.37   19.65
  -3   0  -1  928.19   21.43
  -3   0   1  886.25   21.55
   3   0   1  900.32   21.12
   3   0  -1  911.91   22.11
   3   0   1  873.05   20.93
  -3   0  -1  922.55   21.52
   3   0   1  883.66   18.77
   3   0  -1  948.13   22.10
  -3   0  -1  930.25   20.69
  -3   0  -1  872.85   21.10
  -3   0   1  917.00   21.72
  -3   0   1  862.27   21.33
   3   0   1  969.01   21.75
   3   0  -1  873.26   22.55
  -3   0  -1  916.35   19.33
  -3   0  -2  244.01   10.96
   3   0   2  245.84   11.18
   3   0   2  266.88   11.56
  -3   0  -2  252.38   11.32
  -3   0  -2  218.25    9.18
  -3   0  -2  252.30   11.72
   3   0   2  261.97   11.37
   3   0   2  232.86    9.91
   3  -1   2  107.49    7.61
   3  -1   2  116.60    7.97
  -3  -1  -2  115.85    8.40
  -3  -1  -2  106.10    7.26
  -3  -1  -2  102.78    7.32
   3  -1   2  135.84    6.81
   3  -1   2  114.57    7.69
  -3  -1  -2  106.36    7.08
   3  -1   2  101.97    6.79
  -3  -1  -1   54.05    5.31
  -3  -1  -1   54.42    5.13
   3  -1   1   52.27    5.13
  -3  -1  -1   53.76    3.66
   3   1  -1   52.57    5.01
  -3  -1  -1   58.85    5.01
   3  -1   1   53.01    4.65
  -3   1   1   56.63    5.28
   3   1  -1   51.48    5.00
  -3   1   1   59.80    5.60
   3  -1   1   49.81    3.73
   3  -1   1   49.08    5.06
  -3   1   1   54.77    5.36
  -3  -1  -1   51.84    5.11
   3  -1   1   52.33    3.49
   3  -1   1   47.69    4.73
   3   1  -1   54.13    5.72
  -3  -1  -1   50.52    4.71
  -3  -1   0  324.24   11.40
  -3   1   0  317.12   11.37
  -3   1   0  328.17   11.53
   3   1   0  351.60   11.90
   3  -1   0  328.09   12.48
  -3  -1   0  338.20    8.91
   3  -1   0  338.75   11.47
   3   1   0  323.54    9.11
  -3   1   0  330.09   11.99
   3   1   0  342.52   11.28
  -3   1   0  354.44   12.06
  -3  -1   0  327.49   11.05
  -3   1   0  318.56   11.73
  -3  -1   0  336.10    9.12
  -3  -1   0  315.03   11.14
  -3  -1   0  344.67   12.26
   3   1   0  353.33   12.97
   3  -1   0  345.20   12.13
  -3  -1   0  351.46   10.20
   3   1   0  324.09   11.45
   3  -1   0  338.32   12.47
  -3   1  -1   49.29    5.14
  -3  -1   1   53.02    5.01
   3   1   1   45.22    4.90
  -3   1  -1   52.18    4.92
   3   1   1   51.78    4.82
   3   1   1   48.56    4.68
  -3  -1   1   49.84    5.14
   3   1   1   51.29    3.53
  -3  -1   1   54.19    3.91
   3  -1  -1   50.49    5.20
   3  -1  -1   50.27    5.35
  -3   1  -1   55.02    5.06
   3   1   1   50.72    4.73
  -3  -1   1   52.34    4.76
  -3   1  -1   61.18    5.30
  -3  -1   1   52.32    4.89
   3  -1  -1   55.87    5.52
  -3   1  -1   48.57    4.96
  -3   1  -1   52.12    3.74
   3   1   2  120.72    8.21
   3   1   2  123.45    8.18
   3   1   2  128.72    7.41
   3   1   2  117.91    8.36
   3  -2   3  692.82   22.31
   3  -2   3  691.51   20.82
  -3  -2  -2  348.96   11.66
  -3  -2  -2  365.48   14.27
  -3  -2  -2  366.93   13.05
   3  -2   2  356.35   13.67
   3  -2   2  328.27   13.23
   3  -2   2  351.59   13.43
   3  -2   2  396.82   13.82
   3  -2   2  356.76   11.60
  -3  -2  -2  339.15   13.42
  -3  -2  -1   28.75    4.05
   3  -2   1   27.03    3.66
  -3   2   1   34.84    4.64
  -3   2   1   28.59    4.37
   3   2  -1   29.98    4.79
  -3  -2  -1   33.77    4.26
  -3  -2  -1   30.59    3.66
   3  -2   1   25.88    4.43
   3  -2   1   29.64    4.43
   3   2  -1   28.79    3.74
   3   2  -1   30.18    6.83
   3  -2   1   27.62    3.48
  -3   2   1   31.91    4.86
   3  -2   1   34.50    4.52
  -3  -2  -1   31.33    4.29
  -3  -2  -1   31.31    3.82
  -3  -2  -1   32.17    3.78
  -3  -2   0  324.16   12.45
   3  -2   0  326.95   12.50
  -3  -2   0  336.11   12.46
  -3   2   0  306.46   11.50
   3   2   0  332.72   11.48
   3  -2   0  316.06   12.68
  -3  -2   0  320.06   11.00
   3   2   0  319.03   10.79
  -3  -2   0  323.82   10.61
   3   2   0  333.23   12.06
   3   2   0  329.24   12.78
  -3   2   0  306.14   12.14
   3   2   0  322.20   10.76
  -3   2   0  334.53   12.90
  -3  -2   0  337.77   11.08
   3  -2   0  308.60   12.50
  -3   2   0  292.93   11.96
  -3  -2   0  311.08   10.35
   3  -2   0  336.44   10.83
   3   2   0  320.07   12.88
   3  -2   0  330.83   11.60
  -3   2  -1   24.56    4.40
   3   2   1   26.86    4.26
   3  -2  -1   31.23    4.55
  -3  -2   1   34.77    4.76
  -3   2  -1   32.51    4.79
   3  -2  -1   28.24    4.49
  -3  -2   1   34.85    3.84
   3   2   1   32.30    4.57
  -3   2  -1   26.97    3.76
  -3  -2   1   27.55    4.06
   3   2   1   26.56    3.93
  -3  -2   1   35.72    4.47
  -3  -2   1   33.24    3.80
   3   2   1   30.24    3.78
   3  -2  -1   31.35    4.64
   3   2   1   31.30    3.98
  -3   2  -1   30.28    4.56
  -3   2  -1   29.61    3.98
   3   2   2  408.71   15.14
  -3   2  -2  364.29   13.04
  -3   2  -2  347.13   14.46
   3   2   2  355.94   14.59
  -3   2  -2  369.84   15.57
  -3   2  -2  358.73   15.07
  -3   2  -2  332.21   18.04
   3   2   2  427.83   16.81
  -3   2  -3  698.04   23.47
  -3   2  -3  663.20   23.31
   3  -3   3   91.23    7.75
   3  -3   3   82.23    7.74
   3  -3   3   90.16    7.13
  -3  -3  -2   22.56    4.39
   3   3  -2   24.36    5.24
  -3  -3  -2   29.16    4.71
   3  -3   2   25.53    4.54
   3  -3   2   29.47    4.96
   3  -3   2   23.57    4.50
   3  -3   2   32.02    4.75
  -3  -3  -2   21.25    3.70
  -3  -3  -2   21.46    3.50
   3  -3   2   27.16    4.41
  -3  -3  -1  255.78   11.14
   3  -3   1  248.89   11.39
   3   3  -1  257.11    9.77
  -3  -3  -1  239.26   10.46
   3  -3   1  255.15   11.60
  -3  -3  -1  272.35    9.46
  -3   3   1  250.07   13.05
   3  -3   1  240.73   11.44
  -3  -3  -1  242.20   10.44
   3   3  -1  253.63   14.18
  -3   3   1  241.08   12.05
   3  -3   1  248.09   10.46
   3  -3   1  258.12    9.75
   3   3  -1  233.15   12.03
  -3  -3  -1  256.49   11.65
  -3  -3   0  167.22    9.50
   3   3   0  183.75    9.83
   3   3   0  163.67    7.76
  -3  -3   0  179.42    9.28
  -3   3   0  170.53    9.80
   3  -3   0  180.49    9.89
  -3  -3   0  172.58    9.05
   3  -3   0  165.00    9.41
  -3  -3   0  172.00    8.65
   3  -3   0  159.55    9.61
   3  -3   0  156.08    8.58
  -3  -3   0  173.32    7.71
  -3  -3   0  170.47    7.19
   3   3   0  169.10    9.02
  -3   3   0  157.32    9.30
  -3   3   0  185.96   10.71
   3   3   0  173.72   10.05
  -3   3   0  173.73    9.73
   3   3   0  178.21    7.63
   3   3   0  157.69    9.37
   3  -3   0  186.44    8.37
  -3  -3   1  248.75   11.80
  -3  -3   1  266.48   11.54
  -3   3  -1  239.35    9.84
  -3  -3   1  255.81   11.07
   3   3   1  251.29    9.35
  -3  -3   1  252.63   10.68
   3  -3  -1  254.45   12.31
  -3   3  -1  218.29   10.72
   3  -3  -1  239.15   11.63
   3   3   1  223.16   10.74
  -3   3  -1  256.62   12.34
   3   3   1  252.95   12.18
  -3   3  -1  255.79   11.17
   3   3   1  236.35   11.27
  -3  -3   1  263.84    8.99
  -3   3  -1  230.58   11.41
   3   3   2   19.69    4.98
  -3  -3   2   22.98    4.48
  -3   3  -2   23.62    3.98
  -3  -3   2   18.81    3.83
   3   3   2   25.83    4.42
  -3   3  -2   18.83    4.91
  -3   3  -2   29.44    6.21
  -3   3  -2   27.57    5.45
   3   3   2   20.84    6.06
  -3   3  -2   19.76    4.63
  -3   3  -3   94.45    7.66
  -3   3  -3   91.26    9.47
  -3   3  -3   82.68    8.68
  -3   3  -3   72.44   10.15
   3  -4   3  282.50   13.44
   3  -4   3  278.39   14.22
   3  -4   3  282.20   13.23
  -3  -4  -2   50.72    6.59
   3   4  -2   45.90    7.49
   3  -4   2   62.89    6.58
  -3  -4  -2   60.61    6.40
   3  -4   2   51.52    6.40
   3   4  -2   62.59   11.58
   3  -4   2   60.26    6.58
  -3  -4  -2   55.40    6.28
   3  -4   2   50.09    6.06
  -3  -4  -1    1.01    3.65
  -3  -4  -1    7.58    3.48
   3   4  -1    7.95    4.55
  -3   4   1    6.46    4.40
  -3  -4  -1    8.09    3.35
   3  -4   1    8.13    3.80
   3  -4   1    6.87    3.78
   3   4  -1    8.69    4.92
  -3   4   1    5.16    4.71
   3  -4   1    9.50    3.95
  -3  -4  -1    4.68    3.29
   3  -4   1    6.97    3.65
  -3  -4   0  211.17   11.32
   3   4   0  187.56   11.22
  -3  -4   0  189.20    9.71
   3  -4   0  195.20   10.79
  -3  -4   0  192.53   10.56
   3  -4   0  186.93   10.59
  -3  -4   0  190.20   10.20
   3  -4   0  192.18   11.19
   3   4   0  193.71   10.91
  -3   4   0  188.87   11.70
  -3   4   0  182.44   10.85
   3   4   0  206.83   11.91
  -3   4   0  178.07   10.46
   3   4   0  179.59   10.33
   3  -4   0  186.54   10.13
  -3   4  -1    4.69    3.79
  -3  -4   1    5.36    3.98
  -3  -4   1    5.23    2.80
  -3  -4   1   10.69    4.13
   3  -4  -1    6.60    3.63
   3  -4  -1    7.54    3.83
   3   4   1    7.42    3.87
  -3   4  -1    4.56    3.67
   3   4   1    2.58    4.22
  -3   4  -1    7.62    4.87
  -3   4  -1   12.01    4.52
  -3  -4   1    6.32    3.90
   3   4   1    6.94    3.70
  -3   4  -2   51.48    6.91
  -3  -4   2   57.43    6.81
  -3  -4   2   52.20    6.37
  -3  -4   2   64.46    7.05
  -3   4  -2   49.56    7.72
   3   4   2   56.01    7.93
  -3   4  -2   51.20    7.82
  -3   4  -2   59.71    7.43
  -3   4  -3  263.54   16.48
  -3   4  -3  259.92   15.22
  -3   4  -3  265.14   17.79
  -3   4  -3  272.11   21.18
   3  -5   3   67.93    8.40
   3  -5   3   63.64    7.19
   3  -5   3   64.93    8.19
  -3  -5  -2  404.61   16.00
   3  -5   2  400.37   15.95
   3  -5   2  447.95   16.99
  -3  -5  -2  367.65   16.55
   3  -5   2  401.64   17.39
   3   5  -2  426.55   25.95
   3  -5   2  390.85   16.65
  -3  -5  -2  417.67   17.89
   3  -5   1  148.72    9.87
  -3  -5  -1  131.55    8.79
   3  -5   1  141.79    9.26
  -3  -5  -1  138.77   10.01
   3   5  -1  151.40   12.86
  -3   5   1  125.70   11.33
   3   5  -1  160.07   12.36
  -3   5   1  138.45   10.51
   3  -5   1  135.64    9.77
   3   5  -1  141.07   10.54
   3  -5   1  149.57   10.67
  -3  -5  -1  153.82   10.87
   3   5   0   49.30    6.21
  -3  -5   0   61.38    7.37
  -3   5   0   61.64    6.91
  -3  -5   0   64.47    6.11
   3  -5   0   68.94    7.21
   3  -5   0   61.95    6.77
  -3  -5   0   54.72    6.84
   3   5   0   55.17    7.48
   3  -5   0   62.01    7.75
   3   5   0   68.86    7.80
  -3   5   0   61.07    7.38
   3   5   0   63.08    8.14
  -3   5   0   59.53    8.37
  -3  -5   0   60.20    7.18
   3  -5   0   68.30    7.68
  -3  -5   1  141.80   10.44
   3   5   1  223.77   14.13
  -3  -5   1  151.08    8.95
  -3   5  -1  153.02   10.26
   3  -5  -1  139.93    9.71
   3  -5  -1  156.07   11.33
   3   5   1  164.33   12.67
  -3   5  -1  138.24   10.14
  -3   5  -1  135.67   11.15
  -3  -5   1  140.61    9.96
  -3   5  -1  161.50   11.51
  -3  -5   1  146.96   10.52
   3   5   1  153.54   13.42
  -3  -5   2  398.03   17.39
  -3  -5   2  397.24   17.50
  -3  -5   2  381.97   16.98
  -3   5  -2  338.48   16.56
   3   5   2  446.49   20.38
  -3   5  -2  395.38   18.96
  -3   5  -2  422.95   20.44
  -3   5  -2  369.29   17.13
  -3   5  -3   64.89   10.93
  -3   5  -3   56.49    8.31
  -3   5  -3   78.61   13.34
  -3   5  -3   65.14    9.86
   3  -6   3   84.76    9.65
   3  -6   3   81.46    9.44
   3  -6   2  350.56   17.72
   3   6  -2  352.29   25.39
   3  -6   2  337.29   16.62
  -3  -6  -1  240.44   13.88
   3  -6   1  247.01   14.49
   3   6  -1  218.28   15.58
   3   6  -1  256.19   16.91
  -3  -6  -1  236.29   13.75
   3   6  -1  240.08   17.50
   3  -6   1  243.92   13.92
  -3  -6  -1  239.13   13.88
  -3  -6   0   -6.04    5.23
   3   6   0   11.27    6.89
  -3  -6   0    1.84    5.07
   3  -6   0   10.36    5.63
   3  -6   0   -5.20    4.54
   3   6   0  -11.54    6.89
   3   6   0    5.71    5.76
  -3  -6   0   -5.96    5.27
  -3   6   0   -0.51    5.96
   3  -6   0   -1.69    4.73
  -3  -6   1  239.65   14.10
  -3  -6   1  234.56   14.12
  -3   6  -1  241.75   15.30
   3   6   1  246.17   15.70
   3   6   1  230.30   14.93
  -3   6  -1  276.43   16.47
  -3  -6   1  234.34   13.91
  -3  -6   2  342.44   16.77
  -3  -6   2  351.22   17.64
  -3  -6   2  300.45   16.56
  -3   6  -2  328.60   19.55
  -3   6  -2  346.54   20.34
  -3   6  -3   96.72   13.84
  -3   6  -3   97.26   15.08
   3  -7   4    5.94    5.38
   3  -7   4    4.00    5.54
   3  -7   3   40.42    8.22
   3  -7   3   29.48    7.48
   3   7  -2   88.20   15.31
   3  -7   2   94.06   10.51
   3   7  -2   55.89   13.93
   3  -7   2   73.30    9.70
  -3  -7  -1   -1.35    5.41
  -3  -7  -1    8.56    6.25
   3   7  -1   -1.11    8.73
  -3  -7  -1    4.25    5.34
   3  -7   1    2.96    5.83
   3   7  -1    8.29    8.33
   3   7  -1    2.39    7.94
   3  -7   1   18.89    7.01
  -3  -7   0   36.66    7.39
   3   7   0   42.01    8.77
  -3  -7   0   40.67    7.91
  -3  -7   0   43.51    8.06
   3  -7   0   48.48    7.97
   3   7   0   67.43   10.92
   3   7   0   44.02    9.02
  -3   7   0   53.67    9.70
  -3   7   0   50.48    9.81
   3  -7   0   51.69    8.59
  -3  -7   1   13.93    6.63
  -3  -7   1   -0.82    5.52
   3   7   1    5.64    6.69
   3   7   1    1.35    6.63
  -3   7  -1   10.22    7.60
  -3   7  -1    9.93    8.21
  -3  -7   1    9.37    6.29
  -3  -7   2   73.96    9.16
  -3  -7   2   86.89   10.38
  -3   7  -2   78.53   11.70
  -3  -7   2   77.45   10.05
  -3   7  -2   88.25   13.38
  -3  -7   3   34.94    8.64
  -3  -7   3   44.77    8.17
  -3   7  -3   35.47   11.10
  -3   7  -3   37.66   13.96
   3  -8   4   18.83    6.75
   3  -8   4    8.07    6.89
   3  -8   3  116.10   12.19
   3   8  -3   72.51   20.64
   3  -8   3  105.79   11.86
   3  -8   2   25.51    8.11
   3   8  -2   17.66   14.39
   3   8  -2   51.80   15.29
   3   8  -2   35.38   13.59
   3  -8   2   41.56    8.65
  -3  -8  -1   17.08    7.08
   3  -8   1   19.66    7.46
   3   8  -1   11.27    9.96
   3   8  -1   28.33   11.27
   3   8  -1   16.16   10.60
  -3  -8  -1   16.05    7.40
   3  -8   1   12.77    5.91
  -3  -8  -1   18.20    6.52
  -3  -8   0  108.27   11.80
   3   8   0   99.44   14.26
  -3  -8   0   94.15   11.41
   3  -8   0   99.54   11.37
   3   8   0  120.90   14.48
   3   8   0   98.07   12.72
  -3  -8   0   83.72   10.91
  -3   8   0   98.20   12.90
  -3   8   0  111.69   13.91
   3  -8   0  100.59   11.35
  -3  -8   1   17.34    6.80
  -3  -8   1   11.17    6.95
  -3  -8   1   16.77    6.72
   3   8   1   21.20   10.19
   3   8   1   13.66    9.70
  -3   8  -1   13.22    8.39
  -3   8  -1   33.32   11.15
  -3  -8   2   32.10    7.32
  -3  -8   2   32.05    8.37
  -3  -8   2   27.16    8.04
  -3   8  -2   17.52    9.36
  -3   8  -2   50.92   13.49
  -3  -8   3  116.81   12.54
  -3  -8   3   99.14   11.82
  -3   8  -3  134.18   18.59
  -3   8  -3  113.30   18.83
   3  -9   3   26.92    8.88
   3  -9   3   14.89    7.55
   3   9  -2   29.71   17.26
   3   9  -2   19.37   16.44
   3  -9   2   31.43    9.42
   3  -9   2   23.50    7.66
  -3  -9  -1   12.01    7.27
   3   9  -1   14.38   13.72
   3  -9   1    3.85    6.88
   3   9  -1   -0.96   11.71
  -3  -9  -1    5.76    7.29
   3  -9   1   11.27    7.35
  -3  -9   0   54.74    9.83
   3   9   0   64.44   14.79
  -3  -9   0   45.27    9.27
   3   9   0   55.37   13.49
   3   9   0   43.75   13.24
  -3  -9   0   42.56    9.48
  -3   9   0   25.05    9.79
  -3   9   0   52.63   12.69
  -3  -9   1   21.60    8.47
   3   9   1   14.62   10.85
  -3   9  -1    7.79    9.59
  -3  -9   1   27.58    9.17
  -3   9  -1   23.21   11.47
  -3  -9   2   13.54    7.86
  -3  -9   2   28.09    9.33
  -3   9  -2   11.59   10.19
  -3   9  -2   18.94   13.38
  -3   9  -3   44.74   15.65
  -3  -9   3   18.31    7.21
  -3   9  -3   12.55   16.00
  -3 -10   0   15.59    8.17
  -4   0   0    0.66    2.88
  -4   0   0    0.35    3.16
   4   0   0   -3.14    3.68
  -4   0   0   -4.68    3.44
   4   0   0   -0.43    2.59
   4   0   0   -3.41    3.73
   4   0   0    3.22    3.43
  -4   0   0   -1.57    3.20
  -4   0   0   -0.30    2.59
  -4   0  -1  264.32   11.00
  -4   0  -1  247.41   12.08
   4   0   1  275.88   12.49
  -4   0   1  238.59   11.96
   4   0   1  260.00   12.22
   4   0  -1  268.39   12.93
  -4   0  -1  252.36   12.03
   4   0  -1  251.76   12.44
   4   0   1  281.62   10.73
  -4   0  -1  269.59   11.58
  -4   0  -1  261.11   12.35
  -4   0   1  260.47   10.94
  -4   0   1  251.74   12.19
   4   0   1  274.85   11.16
  -4   0   1  275.63   12.89
   4   0   1  270.03   12.59
   4   0  -1  252.53   13.25
   4   0   2  987.28   25.98
  -4   0  -2  964.88   26.17
   4   0   2  987.06   26.22
  -4   0  -2 1032.65   26.93
   4   0   2 1024.01   23.65
  -4   0  -2  887.69   29.29
  -4   0  -2 1045.40   28.02
   4   0   2 1003.00   25.48
   4   0   2 1036.03   26.43
  -4   0  -2  978.72   23.42
  -4   0  -3 1840.56   42.07
   4   0   3 1741.37   44.75
  -4   0  -3 1849.07   42.63
   4  -1   3   -4.18    4.03
   4  -1   3    4.88    4.27
   4  -1   3   -2.84    5.33
  -4  -1  -2   94.24    8.20
   4  -1   2  106.38    8.36
   4  -1   2  113.39    8.79
  -4  -1  -2  104.80    8.21
   4  -1   2   97.34    7.54
  -4  -1  -2  115.44    9.40
   4  -1   2  108.07    8.14
  -4  -1  -2   93.18    7.49
   4   1  -1  185.50   10.44
  -4  -1  -1  179.19   10.42
   4  -1   1  189.79   10.81
  -4   1   1  195.35   10.85
   4   1  -1  183.42   10.57
  -4   1   1  193.58   10.65
   4  -1   1  171.13   10.22
  -4  -1  -1  174.01    9.55
   4  -1   1  181.06    9.51
  -4  -1  -1  175.95    9.99
   4  -1   1  179.26    8.28
  -4   1   1  182.93   10.63
  -4   1   1  206.61   11.58
   4  -1   1  175.50    9.97
   4   1  -1  167.98   11.03
  -4  -1  -1  175.10    9.56
  -4  -1   0  493.09   16.63
  -4   1   0  451.90   16.51
  -4  -1   0  511.29   17.45
  -4   1   0  509.63   16.61
   4   1   0  524.92   17.41
   4  -1   0  503.56   18.06
   4  -1   0  519.05   16.74
   4   1   0  531.71   17.16
  -4  -1   0  500.02   16.42
  -4   1   0  445.16   16.56
  -4   1   0  536.01   16.94
   4   1   0  491.83   16.89
  -4  -1   0  510.64   16.50
   4  -1   0  491.43   17.64
  -4   1   0  496.80   17.32
   4   1   0  504.42   18.18
   4  -1   0  521.19   17.74
  -4   1  -1  183.83    8.61
  -4  -1   1  178.41   10.29
  -4   1  -1  173.41    9.83
   4   1   1  187.12   10.10
  -4  -1   1  188.42   10.45
   4   1   1  196.10   10.19
   4  -1  -1  166.17   10.90
   4  -1  -1  190.97   11.12
   4   1   1  193.02    7.99
  -4   1  -1  187.70   10.44
  -4   1  -1  179.45    9.84
  -4   1  -1  186.94   10.70
   4   1   1  184.57    9.99
  -4  -1   1  175.08    9.77
  -4  -1   1  179.21   10.01
   4   1   1  169.32   10.42
   4  -1  -1  204.39   11.62
   4   1   2  100.46    8.38
  -4   1  -2   89.16    7.75
   4   1   2   95.18    7.89
  -4   1  -2  104.64    8.83
   4   1   2  107.55    6.60
  -4   1  -2  100.34    9.35
  -4   1  -2  107.44    9.04
   4   1   2   99.82    8.13
   4   1   2  104.39    8.56
  -4   1  -2  109.52    6.85
  -4   1  -3   -0.36    3.67
  -4   1  -3    1.23    5.31
  -4   1  -3    2.07    4.49
   4  -2   3   27.08    6.07
   4  -2   3   29.52    5.75
   4  -2   3   19.36    5.72
  -4  -2  -2  101.67    8.51
   4  -2   2   90.71    8.20
   4  -2   2   99.39    8.56
  -4  -2  -2  109.80    8.12
   4  -2   2  118.04    8.80
   4  -2   2  103.40    7.90
  -4  -2  -2   93.82    8.38
  -4  -2  -2   94.51    7.94
  -4  -2  -1  154.79    9.80
   4  -2   1  153.67   10.00
   4   2  -1  169.90    9.96
   4  -2   1  186.29   11.08
  -4  -2  -1  165.73    8.20
  -4  -2  -1  158.07    8.95
   4  -2   1  159.76    9.70
   4   2  -1  175.35    9.98
  -4  -2  -1  148.84    9.56
  -4   2   1  178.85   11.15
  -4   2   1  155.50   10.94
  -4   2   1  149.22   10.42
   4  -2   1  163.53    9.37
   4   2  -1  150.20   10.76
  -4  -2  -1  159.88    9.62
  -4  -2   0    9.25    3.44
  -4  -2   0    5.76    3.80
  -4   2   0    6.34    4.54
   4   2   0    8.28    4.50
   4  -2   0    3.32    3.69
  -4  -2   0    3.11    3.39
  -4   2   0    1.59    2.94
  -4  -2   0    6.08    3.35
  -4  -2   0    7.24    2.86
   4   2   0    1.88    3.23
   4  -2   0    2.48    3.50
   4  -2   0    2.81    4.13
   4   2   0    6.85    2.91
   4   2   0    5.22    4.12
   4   2   0    0.44    3.91
   4   2   0    5.07    3.44
   4  -2   0    0.67    3.46
  -4   2   0    4.11    3.53
  -4  -2   0    8.90    3.23
  -4   2   0    1.00    3.58
  -4  -2   1  186.21   10.89
   4   2   1  153.10    9.41
  -4   2  -1  160.13    9.41
  -4  -2   1  167.93   10.27
   4   2   1  166.41    9.25
   4  -2  -1  142.51   10.39
  -4  -2   1  175.82    8.37
   4  -2  -1  169.87   10.99
  -4   2  -1  168.74   10.40
   4   2   1  169.37    9.13
  -4   2  -1  165.51   10.30
   4   2   1  161.08   10.21
  -4   2  -1  159.46   10.43
  -4  -2   1  160.33    8.81
  -4  -2   1  150.28    9.09
   4   2   1  157.18   10.32
   4  -2  -1  172.79   10.71
  -4   2  -2  118.49    8.85
   4   2   2  108.62    8.27
  -4   2  -2   92.78    8.83
  -4   2  -2  107.85    9.74
  -4   2  -2  104.58    9.32
   4   2   2   85.98    8.32
   4   2   2  103.43    9.23
  -4   2  -3   37.16    6.39
  -4   2  -3   17.72    7.29
  -4   2  -3   18.80    6.38
  -4   2  -3   25.53    6.51
   4  -3   3   15.38    5.04
   4  -3   3   17.28    5.36
   4  -3   3   19.05    5.40
   4  -3   3   30.48    5.10
  -4  -3  -2   22.14    5.28
   4   3  -2   19.66    6.22
  -4  -3  -2   23.70    5.04
  -4  -3  -2   23.56    4.69
   4  -3   2   19.75    4.93
   4  -3   2   21.19    5.10
   4  -3   2   33.50    6.09
  -4  -3  -2   26.12    4.76
   4  -3   2   23.93    4.52
   4  -3   2   28.56    5.24
  -4  -3  -1   92.79    8.04
   4  -3   1   95.58    8.41
   4  -3   1  104.36    8.99
  -4  -3  -1  105.49    7.53
  -4  -3  -1  112.81    7.19
   4  -3   1   92.14    8.24
  -4  -3  -1  106.45    7.47
   4   3  -1  107.16   12.00
  -4  -3  -1  104.46    8.03
  -4   3   1  101.22    9.43
  -4   3   1  103.57    9.20
  -4   3   1   91.27    8.71
   4  -3   1  117.62    7.90
   4  -3   1  108.86    7.14
   4   3  -1  106.37    9.98
  -4  -3  -1   97.65    8.29
   4  -3   0   -1.90    4.38
  -4  -3   0    1.13    4.03
   4   3   0    2.09    4.58
  -4   3   0   -1.13    4.35
   4  -3   0    2.17    3.55
  -4  -3   0   -0.94    3.58
  -4  -3   0   -0.81    3.43
  -4   3   0    1.94    3.79
  -4   3   0    3.42    4.02
  -4  -3   0    3.12    3.55
   4  -3   0    5.82    4.06
   4   3   0    6.83    4.76
   4   3   0   -0.44    3.18
   4   3   0    3.06    4.39
  -4   3   0    1.92    4.44
   4   3   0    0.81    2.85
   4  -3   0    2.76    3.54
  -4  -3   0   -0.26    2.92
   4  -3   0    4.55    2.77
  -4  -3   1  106.29    8.98
  -4   3  -1  104.78    8.01
  -4  -3   1  113.59    8.67
   4   3   1  119.83    7.89
   4  -3  -1   90.60    8.52
  -4  -3   1  109.46    7.66
   4  -3  -1  111.56    9.23
   4  -3  -1  112.90    9.56
  -4   3  -1   98.68    8.80
   4   3   1  110.85    8.34
  -4   3  -1  104.91    9.29
   4   3   1   97.93    8.91
  -4   3  -1   98.49    8.76
  -4   3  -1  111.47    8.45
  -4  -3   1  111.00    8.40
   4   3   1  101.55    8.94
   4  -3  -1  124.72    8.94
  -4   3  -2   24.66    6.13
  -4  -3   2   19.72    5.22
  -4   3  -2   25.56    5.30
  -4  -3   2   23.84    4.97
   4   3   2   30.10    4.94
   4   3   2   22.45    5.82
  -4   3  -2   10.10    5.36
  -4   3  -2   29.46    6.85
  -4   3  -2   20.36    7.56
   4   3   2   17.72    5.99
  -4   3  -3   18.21    5.45
  -4   3  -3   19.63    7.66
  -4   3  -3   22.30    6.38
  -4   3  -3   23.30    7.13
   4  -4   3   61.68    8.45
   4  -4   3   60.88    8.17
   4  -4   3   61.12    8.17
   4  -4   3   67.38    7.63
  -4  -4  -2  167.75   11.04
   4  -4   2  167.96   11.31
   4  -4   2  200.42   12.53
   4  -4   2  170.51   11.70
  -4  -4  -2  185.31   11.09
   4  -4   2  190.23   10.65
   4   4  -2  150.71   12.78
  -4  -4  -2  176.12   11.95
   4   4  -1  101.92   10.44
  -4  -4  -1  105.85    9.04
   4  -4   1   95.34    8.85
  -4  -4  -1  102.89    8.38
   4  -4   1  109.05    9.46
   4  -4   1  100.44    9.20
  -4  -4  -1  110.73    8.49
   4   4  -1  108.61   12.26
  -4   4   1  124.86   11.54
  -4   4   1  104.67    9.77
   4  -4   1  112.51    8.43
  -4  -4  -1   88.68    8.43
   4   4   0   27.99    6.30
  -4  -4   0   30.06    5.93
  -4   4   0   29.77    6.07
  -4  -4   0   38.38    5.87
  -4  -4   0   30.93    5.71
  -4  -4   0   31.44    5.59
   4  -4   0   30.70    6.27
   4  -4   0   27.64    6.12
   4   4   0   39.35    6.91
   4   4   0   42.56    6.19
   4   4   0   30.87    6.89
  -4   4   0   26.43    5.86
  -4   4   0   33.60    7.07
   4  -4   0   37.14    6.65
   4  -4   0   33.70    5.50
  -4  -4   1  104.24    9.54
  -4  -4   1  102.66    8.59
   4  -4  -1   92.73    8.96
  -4  -4   1  111.31    9.24
  -4  -4   1  106.25    8.34
   4  -4  -1  100.33    9.62
  -4   4  -1  103.16    9.43
   4   4   1  106.85    9.27
  -4   4  -1  108.84   10.27
  -4   4  -1  110.56    9.64
   4   4   1  115.28   10.21
  -4   4  -1  115.18    9.52
   4   4   1   97.36    9.35
  -4  -4   2  194.32   12.64
  -4  -4   2  193.10   11.74
  -4   4  -2  180.84   12.83
  -4   4  -2  176.79   13.42
  -4   4  -2  191.74   12.91
   4   4   2  179.12   13.07
  -4   4  -2  200.99   14.84
   4   4   2  213.72   15.85
  -4   4  -3   59.05   10.34
  -4   4  -3   58.81    8.79
  -4   4  -3   53.75   10.00
   4  -5   3   45.56    7.80
   4  -5   3   34.92    7.32
   4  -5   3   34.40    6.66
   4  -5   3   36.93    6.58
  -4  -5  -2   29.18    6.91
   4   5  -2   30.99    9.30
  -4  -5  -2   25.62    6.00
   4  -5   2   34.69    7.03
  -4  -5  -2   32.82    6.68
   4  -5   2   25.73    5.82
   4   5  -2   29.11   12.24
   4  -5   2   43.66    7.40
   4  -5   2   36.36    6.30
  -4  -5  -1   57.59    7.57
   4   5  -1   67.23   10.00
  -4  -5  -1   57.07    7.15
  -4  -5  -1   50.81    6.99
   4  -5   1   55.06    7.44
   4  -5   1   63.69    8.50
   4   5  -1   52.98   10.10
   4   5  -1   58.19    8.64
   4   5  -1   59.67   10.52
   4  -5   1   58.79    7.54
  -4  -5  -1   58.95    7.19
   4  -5   1   63.06    7.52
  -4  -5   0  220.54   13.73
  -4  -5   0  236.22   12.85
   4  -5   0  273.81   14.82
  -4  -5   0  238.42   13.37
  -4  -5   0  248.24   13.33
   4  -5   0  241.32   14.39
   4  -5   0  245.41   14.72
   4   5   0  224.08   14.57
   4   5   0  242.65   14.90
  -4   5   0  250.33   15.98
   4   5   0  255.21   16.32
  -4   5   0  258.97   14.70
  -4   5   0  244.12   14.99
   4   5   0  233.12   14.59
   4  -5   0  239.22   13.34
  -4  -5   1   56.39    7.91
  -4   5  -1   62.22    8.52
  -4  -5   1   57.88    7.45
  -4  -5   1   58.42    6.89
  -4  -5   1   67.79    7.95
   4   5   1   68.97    8.99
   4   5   1   68.16    9.39
  -4   5  -1   59.03    8.78
  -4   5  -1   67.45    9.03
   4   5   1   69.63    9.25
  -4   5  -1   56.66    8.11
  -4  -5   2   37.03    7.14
  -4  -5   2   38.51    6.80
  -4   5  -2   24.90    7.07
  -4  -5   2   30.84    6.65
   4   5   2   26.16    7.40
  -4   5  -2   34.98    8.52
  -4   5  -2   33.60    8.77
  -4   5  -2   37.55    7.35
  -4   5  -3   44.43    9.97
  -4   5  -3   32.40    9.94
  -4   5  -3   42.01   12.00
  -4   5  -3   51.24    9.28
   4  -6   4   20.11    7.00
   4  -6   4   22.25    7.07
   4  -6   3  167.18   13.62
   4  -6   3  160.64   12.81
  -4  -6  -2   16.04    6.71
   4  -6   2   21.00    6.35
   4  -6   2   24.04    7.52
   4   6  -2   33.43   14.74
  -4  -6  -2   29.42    7.47
   4   6  -2   17.96   10.69
   4  -6   2   36.47    7.27
  -4  -6  -1    3.80    5.40
   4  -6   1   -0.06    5.81
   4  -6   1    1.44    4.77
   4   6  -1   -8.90    9.41
   4   6  -1    9.21    7.54
   4   6  -1   12.79    8.22
  -4  -6  -1    4.02    4.86
  -4  -6  -1   -5.59    5.16
   4  -6   1    1.82    4.91
  -4  -6   0  169.53   12.84
   4  -6   0  195.59   13.12
  -4  -6   0  180.27   12.99
  -4  -6   0  180.13   12.58
   4  -6   0  177.17   14.08
   4   6   0  175.66   14.64
   4   6   0  194.32   14.57
  -4   6   0  183.73   15.18
   4   6   0  177.63   14.83
  -4   6   0  179.42   13.21
  -4   6   0  193.92   14.96
   4  -6   0  180.55   12.78
  -4  -6   1    7.39    5.75
  -4  -6   1    4.20    5.21
  -4  -6   1    0.63    5.33
   4   6   1   -1.38    6.66
   4   6   1    0.61    6.65
  -4   6  -1    7.51    6.46
  -4   6  -1    9.26    7.20
  -4   6  -1    1.79    6.59
  -4   6  -1    3.34    5.33
  -4  -6   2   24.36    6.83
  -4  -6   2   27.93    7.08
  -4  -6   2   26.42    7.28
   4   6   2   26.46    8.20
  -4   6  -2   26.39    8.48
  -4   6  -2   26.78    9.62
  -4   6  -2   23.22    7.09
  -4   6  -3  158.23   15.81
  -4   6  -3  170.42   17.45
  -4   6  -3  186.43   21.61
  -4   6  -4   16.79   10.65
   4  -7   4   -4.06    6.07
   4  -7   4   -6.31    5.64
   4  -7   3    7.92    6.85
   4  -7   3    4.26    6.38
   4  -7   2   23.52    8.07
   4   7  -2   14.46   14.41
   4   7  -2   29.46   11.06
   4   7  -2   18.17   12.21
   4  -7   2   35.58    8.31
  -4  -7  -1   28.71    8.00
   4  -7   1   26.58    8.49
  -4  -7  -1   18.77    6.63
  -4  -7  -1   11.55    5.76
   4   7  -1   23.07   10.28
   4   7  -1   12.72    9.13
   4   7  -1   -2.41   10.07
   4  -7   1    8.11    6.61
  -4  -7   0    9.12    6.21
  -4  -7   0    0.24    5.91
  -4  -7   0    6.60    5.69
   4   7   0    5.63    7.83
   4  -7   0   13.37    6.87
   4   7   0   13.31    8.50
   4   7   0   12.79    8.24
  -4   7   0   11.99    9.22
  -4   7   0   30.12    9.77
   4  -7   0    9.28    6.46
  -4  -7   1   10.05    6.45
  -4  -7   1    5.94    6.83
  -4  -7   1   12.89    6.49
   4   7   1   11.71    7.61
   4   7   1   29.11    9.63
   4   7   1   12.80    7.37
  -4   7  -1   31.74    9.61
  -4   7  -1   28.42    9.48
  -4  -7   2   27.34    8.07
  -4  -7   2   32.89    8.38
  -4  -7   2   19.16    7.12
  -4   7  -2   36.57   10.78
  -4   7  -2   31.03   11.39
  -4   7  -3    9.84   10.78
  -4   7  -3   11.75   13.33
  -4   7  -4   -2.83   12.04
   4  -8   4   23.96    7.61
   4  -8   4   21.10    7.43
   4  -8   3   12.90    7.91
   4  -8   3   26.48    8.41
   4   8  -2   42.31   16.49
   4  -8   2   33.06    9.22
   4   8  -2   10.35   11.63
   4   8  -2   38.70   16.85
   4  -8   2   41.19    8.35
  -4  -8  -1   23.00    8.40
  -4  -8  -1   18.49    7.84
  -4  -8  -1   19.24    7.29
   4   8  -1   18.02   12.67
   4  -8   1   14.50    7.97
   4   8  -1    9.14   10.52
   4   8  -1   -8.26   12.46
   4  -8   1   10.94    7.19
  -4  -8   0   31.25    8.41
  -4  -8   0   35.98    9.24
  -4  -8   0   34.35    8.41
   4   8   0   21.99   11.08
   4   8   0   38.69   11.93
   4   8   0   40.87   11.70
  -4   8   0   29.58   10.62
  -4  -8   1    7.87    7.03
  -4  -8   1   12.36    7.50
  -4  -8   1   14.01    8.19
   4   8   1   31.48   11.89
   4   8   1    7.55    9.88
   4   8   1    2.19    8.78
  -4   8  -1   15.29    9.59
  -4   8  -1    3.71    9.41
  -4  -8   2   42.05    8.29
  -4  -8   2   30.90    8.37
  -4  -8   2   34.04    8.97
  -4   8  -2   70.11   14.32
  -4   8  -2   63.37   15.37
  -4   8  -3   35.33   13.26
  -4   8  -3   29.48   16.27
   4  -9   3   28.55    9.87
   4  -9   3   11.79    7.81
   4   9  -2   -7.71   19.17
   4  -9   2    1.92    8.51
   4   9  -2    6.52   13.93
   4   9  -2  -12.78   20.15
   4  -9   2   -1.22    7.42
   4   9  -1   52.29   17.31
  -4  -9  -1   33.31    9.81
   4  -9   1   18.53    8.33
   4   9  -1   68.33   15.73
   4   9  -1   51.84   16.65
   4  -9   1   26.91    8.53
  -4  -9   0   -5.55    7.63
  -4  -9   0    8.20    7.66
  -4  -9   0    4.76    7.51
   4   9   0   -9.97   12.98
   4   9   0    5.26   11.58
   4   9   0    4.48   11.77
   4   9   1   50.98   14.09
  -4  -9   1   39.29    9.15
  -4  -9   1   30.21    8.44
  -4  -9   1   26.78    9.24
  -4   9  -1   27.72   11.62
  -4   9  -1   60.81   16.15
  -4  -9   2    6.52    8.01
  -4  -9   2   -8.10    8.25
  -4  -9   2    0.54    7.91
  -4   9  -2   21.21   12.97
  -4   9  -2    5.24   13.51
  -4   9  -3    3.15   14.18
  -4   9  -3   15.50   18.80
  -5   0   0    7.12    4.15
  -5   0   0   -2.91    4.50
   5   0   0    2.46    4.74
  -5   0   0    6.22    4.44
  -5   0   0    1.05    4.14
   5   0   0    0.50    4.99
   5   0   0   -4.15    4.29
   5   0   0    2.82    4.65
  -5   0  -1  153.54   10.07
  -5   0  -1  158.06   11.15
   5   0   1  143.57   10.83
  -5   0   1  157.54   11.15
   5   0  -1  162.11   12.29
   5   0   1  171.18   11.37
   5   0  -1  159.58   11.61
  -5   0  -1  160.99   10.80
  -5   0  -1  141.27   10.90
   5   0   1  154.57    9.71
  -5   0   1  146.99   11.01
  -5   0   1  146.26   10.51
   5   0   1  156.81   11.62
   5   0  -1  151.69   12.10
  -5   0  -2    5.85    4.97
  -5   0  -2    8.53    4.31
  -5   0  -2    8.28    5.28
   5   0   2    2.54    4.80
   5   0   2    2.07    4.40
  -5   0  -2    8.60    5.01
   5   0   2   16.37    5.80
  -5   0  -3    5.10    4.58
   5   0   3    1.22    6.27
  -5   0  -3    1.51    6.60
  -5   0  -3    9.61    6.04
   5   0   3   -5.04    6.63
  -5  -1  -3   44.47    7.54
  -5  -1  -3   31.65    7.33
   5  -1   3   42.62    7.44
   5  -1   3   34.36    6.52
   5  -1   3   35.93    7.96
  -5  -1  -3   39.69    7.54
   5  -1   3   51.65    9.08
  -5  -1  -2   37.58    6.24
  -5  -1  -2   30.49    6.58
   5  -1   2   35.21    7.04
   5  -1   2   34.07    5.78
   5  -1   2   30.68    6.74
  -5  -1  -2   33.74    6.55
   5  -1   2   25.93    5.62
  -5  -1  -2   26.61    5.64
   5   1  -1   61.81    7.69
   5  -1   1   56.81    7.43
  -5  -1  -1   54.91    7.06
  -5   1   1   50.61    7.96
   5   1  -1   56.92    8.31
  -5  -1  -1   47.29    7.22
  -5  -1  -1   56.26    6.88
  -5   1   1   49.71    7.11
   5  -1   1   57.20    8.08
   5  -1   1   52.96    6.28
   5   1  -1   58.05    7.90
   5  -1   1   62.52    8.04
  -5   1   1   56.53    7.75
  -5   1   1   61.34    7.36
  -5  -1  -1   48.98    7.17
  -5  -1   0    3.61    4.45
  -5   1   0   22.18    6.42
   5   1   0    9.67    5.78
  -5  -1   0    6.19    4.27
   5  -1   0   11.88    5.37
  -5  -1   0    8.62    4.13
  -5   1   0    3.80    3.86
  -5  -1   0    8.37    4.79
  -5   1   0    7.89    4.45
   5   1   0   -1.99    5.43
   5  -1   0    8.94    5.79
   5  -1   0   15.72    4.77
   5   1   0   11.13    5.11
  -5   1   0    6.65    4.50
   5   1   0    5.86    3.98
   5  -1   0   20.41    6.09
   5  -1  -1   59.92    7.88
  -5  -1   1   51.93    6.92
   5   1   1   62.70    8.46
  -5  -1   1   49.99    6.82
   5  -1  -1   60.45    8.62
  -5  -1   1   46.27    6.82
  -5   1  -1   45.02    6.64
  -5  -1   1   54.42    6.95
  -5   1  -1   51.81    7.30
   5   1   1   52.50    7.22
   5  -1  -1   55.52    8.54
   5   1   1   55.30    7.12
   5   1   1   56.57    6.82
  -5   1  -1   54.90    7.17
  -5   1  -1   44.07    6.93
  -5   1  -2   24.62    6.58
  -5   1  -2   31.84    6.58
   5   1   2   34.60    6.47
   5   1   2   35.75    5.99
   5   1   2   43.64    6.59
  -5   1  -2   31.82    7.10
  -5   1  -2   47.31    8.22
   5   1   2   31.55    6.67
  -5   1  -3   39.03    7.58
   5   1   3   40.56    8.36
  -5   1  -3   41.19    8.91
  -5   1  -3   35.01    7.60
   5   1   3   33.10    8.34
  -5  -2  -3    3.38    5.42
  -5  -2  -3    4.64    5.78
   5  -2   3    3.83    5.71
   5  -2   3    0.67    5.56
   5  -2   3   -0.48    4.83
  -5  -2  -3    4.12    5.47
   5  -2   3    7.16    6.06
  -5  -2  -2  139.11   11.26
   5  -2   2  130.56   10.79
   5  -2   2  151.70   11.44
  -5  -2  -2  161.64   10.62
   5  -2   2  140.45   10.20
  -5  -2  -2  142.45   12.05
   5  -2   2  141.39   10.16
  -5  -2  -2  133.66   10.31
   5  -2   1   61.35    7.44
  -5  -2  -1   58.37    7.68
  -5   2   1   61.15    8.55
   5   2  -1   49.10    6.51
   5   2  -1   49.57    8.37
  -5  -2  -1   55.18    7.45
  -5   2   1   54.78    8.05
  -5  -2  -1   55.88    6.55
   5  -2   1   43.43    6.99
   5  -2   1   62.02    7.39
   5   2  -1   63.91    7.92
   5  -2   1   53.74    7.80
  -5   2   1   64.38    8.04
  -5  -2  -1   64.31    7.61
  -5  -2   0  246.13   13.90
  -5  -2   0  241.70   13.93
   5   2   0  238.00   13.38
  -5   2   0  253.09   13.72
   5  -2   0  246.13   14.63
   5   2   0  269.54   13.69
   5  -2   0  244.46   14.57
   5  -2   0  263.31   13.93
  -5  -2   0  244.27   12.72
  -5   2   0  259.06   14.86
  -5   2   0  278.58   14.43
  -5  -2   0  232.29   12.77
   5   2   0  255.66   14.54
  -5   2   0  243.19   14.61
   5   2   0  246.89   15.16
   5  -2   0  276.95   14.50
   5   2   1   53.17    8.14
   5  -2  -1   63.23    8.50
  -5  -2   1   64.93    7.09
  -5  -2   1   59.56    7.59
   5  -2  -1   59.38    8.06
  -5   2  -1   55.94    7.31
  -5  -2   1   51.45    7.01
   5   2   1   57.85    7.43
  -5   2  -1   48.98    7.47
   5  -2  -1   60.64    8.83
   5   2   1   58.11    7.17
   5   2   1   62.59    7.89
  -5   2  -1   52.19    7.32
  -5  -2   1   58.40    7.05
  -5   2  -1   61.13    8.09
   5   2   2  153.52   12.35
  -5   2  -2  144.87   11.17
   5   2   2  146.34   10.63
  -5   2  -2  139.16   11.93
  -5   2  -2  155.36   12.58
  -5   2  -2  142.81   12.12
   5   2   2  138.41   11.24
   5   2   2  142.91   11.75
  -5   2  -3    4.02    5.40
   5   2   3    6.65    6.53
  -5   2  -3    4.00    7.49
  -5   2  -3   10.39    6.43
   5   2   3    4.39    7.38
  -5   2  -3    4.01    6.36
   5  -3   3   83.62   10.19
   5  -3   3   63.33    8.62
   5  -3   3   83.71   10.23
  -5  -3  -2   21.20    6.33
   5   3  -2   31.10    8.19
  -5  -3  -2   13.86    5.93
   5  -3   2   14.56    5.38
   5  -3   2   22.34    6.45
   5  -3   2   23.63    6.34
   5  -3   2   17.10    5.22
   5  -3   1   19.21    5.06
  -5  -3  -1   21.73    6.01
  -5   3   1   25.41    6.73
   5   3  -1   24.64    7.76
  -5   3   1   33.34    7.04
  -5  -3  -1   16.70    5.46
   5  -3   1   24.25    6.01
   5  -3   1   24.18    6.22
   5  -3   1   27.21    6.48
  -5   3   1   21.29    6.81
  -5   3   0   41.33    7.83
   5   3   0   27.74    6.87
  -5  -3   0   22.61    6.09
   5  -3   0   32.81    6.36
  -5  -3   0   27.41    5.95
  -5   3   0   27.63    6.33
   5  -3   0   28.93    7.48
   5  -3   0   24.52    6.26
  -5   3   0   28.85    6.24
   5   3   0   33.22    7.66
  -5   3   0   29.91    7.03
   5  -3   0   21.91    6.29
   5   3   1   17.16    6.15
  -5  -3   1   26.46    6.52
   5  -3  -1   27.38    6.16
   5  -3  -1   28.30    6.45
  -5   3  -1   23.87    5.74
  -5  -3   1   13.86    4.77
   5  -3  -1   25.14    6.91
  -5   3  -1   29.73    6.83
   5   3   1   20.83    6.59
  -5   3  -1   26.06    6.68
  -5   3  -1   25.17    6.47
  -5   3  -2    9.35    5.46
  -5   3  -2   21.94    6.05
   5   3   2   19.82    5.40
   5   3   2   19.16    7.09
  -5   3  -2   29.77    7.78
  -5   3  -2    9.89    6.13
   5   3   2   17.80    6.88
  -5   3  -3   63.09   10.20
  -5   3  -3   84.37   12.48
  -5   3  -3   66.50   10.51
   5  -4   3    5.61    6.23
   5  -4   3    8.00    6.23
   5  -4   3    2.47    6.03
  -5  -4  -2   34.75    7.32
   5   4  -2   28.74    8.73
  -5  -4  -2   46.59    7.87
   5  -4   2   49.37    8.35
   5  -4   2   31.03    7.00
   5  -4   2   46.30    8.22
  -5  -4  -1   10.90    5.99
   5   4  -1    3.40    6.85
  -5  -4  -1    7.71    5.04
   5  -4   1   13.78    6.65
   5   4  -1    0.92    7.10
   5   4   0   92.23   11.33
  -5   4   0   87.03   10.46
  -5  -4   0   86.30    9.72
  -5  -4   0   90.89    9.48
   5  -4   0  101.77   10.91
   5  -4   0   99.96   10.77
   5  -4   0   79.36    9.70
  -5   4   0   87.95   10.21
   5   4   0   70.56   10.35
  -5   4   0   87.37   10.68
  -5  -4   1    3.54    5.74
  -5  -4   1   10.97    5.01
   5   4   1   10.11    6.63
  -5   4  -1    3.42    5.42
   5   4   1   10.03    6.31
  -5  -4   2   44.31    7.69
  -5   4  -2   38.10    7.79
   5   4   2   38.34    7.87
  -5   4  -2   47.24    9.49
  -5   4  -2   44.46    8.53
   5   4   2   45.22    9.79
  -5   4  -3   -2.94    7.60
  -5   4  -3   15.43    9.36
  -5   4  -3   -8.45    7.64
   5  -5   4   86.13   11.12
   5  -5   4   83.09   10.56
   5  -5   3   24.43    7.88
   5  -5   3   21.79    7.02
   5  -5   3   25.49    7.60
  -5  -5  -2   54.74    9.15
   5   5  -2   63.44   11.65
  -5  -5  -2   62.30    8.78
   5  -5   2   65.20    9.02
   5  -5   2   59.96    9.27
   5  -5   2   74.40    9.52
  -5  -5  -1   11.14    6.44
   5   5  -1    8.97    8.52
  -5  -5  -1   14.47    5.80
   5  -5   1   13.23    6.91
   5  -5   1   17.65    7.22
   5   5  -1   15.64    7.37
   5   5  -1   -1.83    8.35
   5  -5   1   19.50    7.44
   5   5   0   -2.99    7.53
   5  -5   0   15.61    6.82
  -5   5   0   11.45    7.75
  -5  -5   0   16.56    6.91
  -5  -5   0   12.50    5.51
  -5  -5   0   19.33    6.33
   5  -5   0    8.97    6.48
   5  -5   0   13.84    6.60
   5   5   0   18.22    8.24
  -5   5   0   10.85    7.66
  -5   5   0    8.48    5.57
  -5  -5   1    8.30    5.81
  -5  -5   1   12.14    5.57
  -5  -5   1   16.22    6.79
  -5   5  -1   22.46    7.48
   5   5   1   14.84    7.57
  -5   5  -1   31.97    8.25
   5   5   1    8.39    7.45
  -5   5  -1   25.23    8.38
  -5  -5   2   65.46    9.29
  -5   5  -2   48.47    9.45
   5   5   2   67.72   11.20
  -5   5  -2   64.82   11.06
  -5   5  -2   60.66    9.31
  -5   5  -3   22.34    9.06
  -5   5  -3   27.94   10.87
  -5   5  -3   25.65    8.92
  -5   5  -4   43.60   12.51
  -5   5  -4   60.11   14.53
   5  -6   4   -1.86    6.37
   5  -6   3    7.88    6.67
   5  -6   3   13.97    6.98
   5  -6   3   14.66    6.97
  -5  -6  -2   31.05    7.76
  -5  -6  -2   45.57    8.19
   5  -6   2   40.95    7.93
   5  -6   2   50.27    9.54
   5   6  -2   47.33   10.76
   5   6  -2   18.75   11.38
   5  -6   2   53.90    9.39
  -5  -6  -1  233.72   16.33
   5  -6   1  233.77   15.71
   5  -6   1  265.50   17.26
   5  -6   1  265.80   17.77
   5   6  -1  251.58   23.22
   5   6  -1  266.92   18.29
   5   6  -1  248.60   20.43
  -5  -6  -1  244.64   15.57
  -5   6   0    5.58    7.23
  -5  -6   0    6.09    6.27
  -5  -6   0   22.79    6.64
   5  -6   0   22.33    7.95
   5   6   0   19.01    8.77
   5  -6   0   15.14    6.84
   5   6   0    2.52    6.58
   5   6   0    7.05    8.31
  -5  -6   1  255.91   17.31
  -5  -6   1  269.53   16.88
  -5  -6   1  265.67   15.95
   5   6   1  279.92   19.14
  -5   6  -1  278.91   19.20
  -5   6  -1  259.66   17.55
   5   6   1  263.40   18.68
  -5   6  -1  261.43   18.97
  -5  -6   2   54.85   12.51
  -5   6  -2   47.68   10.56
  -5  -6   2   57.75    9.30
   5   6   2   43.68   10.55
  -5   6  -2   60.15   11.59
  -5   6  -2   37.26    8.83
  -5   6  -3  -48.89   14.00
  -5   6  -3  -36.65   11.96
  -5   6  -4    6.38   11.03
   5  -7   4   15.00    8.63
   5  -7   3   16.14    7.87
   5  -7   2   12.74    8.81
   5   7  -2    4.57    9.76
   5   7  -2   13.53   12.60
  -5  -7  -1   13.20    7.05
  -5  -7  -1   10.91    6.60
  -5  -7  -1   18.97    6.46
   5   7  -1   25.24   13.21
   5  -7   1   27.17    8.97
   5   7  -1   14.68    9.51
   5   7  -1   26.12   11.51
   5  -7   1   19.61    6.98
  -5  -7   0  -12.85    7.41
  -5  -7   0    5.44    6.34
  -5  -7   0    4.95    6.65
   5   7   0    4.12   10.07
   5  -7   0    6.89    7.54
   5   7   0  -11.19    9.81
   5   7   0   17.65   11.12
  -5   7   0   -0.82    9.46
  -5  -7   1   24.72    8.88
  -5  -7   1   16.85    7.06
  -5  -7   1   18.20    8.30
   5   7   1   19.90   10.05
   5   7   1    6.36    9.55
  -5   7  -1   18.94   10.07
  -5   7  -1   33.82   12.18
  -5  -7   2    5.28    6.85
  -5  -7   2   -2.33    6.04
  -5  -7   2    1.23    7.35
  -5   7  -2    2.68   10.38
  -5   7  -3    3.83   10.49
  -5   7  -4   26.04   13.31
   5  -8   3    1.41    7.76
   5  -8   3    1.73    8.35
   5  -8   2   14.58    8.75
   5   8  -2   -9.69   12.96
   5   8  -2   19.79   15.88
   5  -8   2   33.76    9.28
  -5  -8  -1   13.68    8.04
  -5  -8  -1   18.79    8.37
   5   8  -1    7.27   15.35
   5  -8   1   26.56    9.45
   5   8  -1  -10.37   11.49
   5  -8   1   20.38    7.46
  -5  -8   0   -4.41    8.29
  -5  -8   0   12.03    7.52
  -5  -8   0    4.60    6.86
   5   8   0   35.24   14.64
   5   8   0  -17.03   11.63
   5   8   0   11.38   12.01
  -5  -8   1   27.12    9.06
  -5  -8   1   16.22    7.79
  -5  -8   1   24.23    9.02
   5   8   1   19.38   11.63
   5   8   1   30.99   11.84
  -5   8  -1   11.74   10.15
  -5   8  -1   24.28   11.97
  -5  -8   2   33.92    9.56
  -5  -8   2   28.47    8.40
  -5  -8   2   26.27    9.20
  -5   8  -2   14.58   10.85
  -5   8  -2   26.68   16.33
  -5   8  -3    6.96   12.60
  -5   8  -3    0.30   18.44
  -5  -9   0    9.42    8.19
  -5  -9   1   -2.80    8.41
  -5   9  -1   47.32   16.77
  -6   0   0   -0.34    5.91
   6   0   0    5.94    7.11
  -6   0   0    0.53    5.22
   6   0   0   -0.57    6.28
  -6   0   0    2.82    5.13
   6   0   0    6.90    5.47
   6   0   1   -0.32    6.00
  -6   0   1    1.90    6.27
   6   0  -1   21.04    6.85
   6   0  -1    8.63    7.33
  -6   0  -1   -2.15    5.39
  -6   0   1   -1.70    5.39
   6   0   1    5.36    5.22
   6   0  -1   15.49    7.42
  -6   0  -1   10.69    5.83
   6   0   1    9.44    6.13
  -6   0   1   -1.45    5.26
  -6   0  -1    1.59    5.91
  -6   0  -2   -0.98    5.50
  -6   0  -2    1.98    5.40
   6   0   2    3.82    5.24
   6   0   2    1.71    5.88
  -6   0  -2   -1.51    6.22
   6   0   2    5.36    6.23
  -6   0  -3  359.90   20.64
   6   0   3  394.76   22.36
  -6   0  -3  335.41   19.80
  -6   0  -3  369.66   21.58
  -6  -1  -3   -2.94    6.22
  -6  -1  -3   21.96    8.57
   6  -1   3   -0.65    6.74
   6  -1   3    7.65    7.62
   6  -1   3    3.19    7.24
  -6  -1  -2   26.00    6.68
  -6  -1  -2   18.17    7.01
   6  -1   2   28.90    7.47
   6  -1   2   24.91    7.31
  -6  -1  -2   19.58    6.31
   6  -1   2   28.71    7.30
   6  -1   1    4.26    6.05
  -6   1   1   -3.42    6.68
  -6  -1  -1    0.35    5.06
   6   1  -1    0.46    6.94
  -6   1   1   -1.65    5.19
   6   1  -1   -0.09    5.28
  -6  -1  -1    1.39    5.45
   6  -1   1    5.71    5.81
   6   1  -1    5.70    6.05
  -6  -1  -1    0.84    4.63
   6  -1   1   -6.72    6.27
  -6  -1  -1    9.84    6.21
  -6  -1   0  192.85   13.79
  -6  -1   0  171.86   13.12
   6   1   0  171.95   13.37
  -6   1   0  163.82   12.82
   6  -1   0  176.64   14.11
   6   1   0  181.60   13.25
   6  -1   0  169.83   13.64
  -6  -1   0  164.42   12.77
  -6  -1   0  167.07   12.82
  -6   1   0  179.61   13.93
   6   1   0  180.36   13.26
  -6   1   0  162.06   12.84
   6   1   0  169.10   14.16
   6  -1   0  200.25   14.64
   6   1   1   -2.90    6.83
  -6  -1   1    0.72    5.42
   6  -1  -1    4.24    5.75
   6  -1  -1    0.33    7.28
  -6   1  -1   -0.60    5.18
  -6  -1   1   23.26    8.16
   6   1   1    4.12    5.55
   6  -1  -1    7.93    7.91
   6   1   1    1.97    5.26
   6   1   1    0.21    5.27
  -6   1  -1   -8.30    6.54
  -6   1  -1    1.36    6.17
  -6   1  -2   14.30    6.80
  -6   1  -2    7.22    5.95
   6   1   2    5.85    6.15
   6   1   2   22.87    6.49
  -6   1  -2   25.50    8.16
   6   1   2   19.19    7.45
  -6   1  -3    3.31    6.49
  -6   1  -3    5.17    5.86
   6   1   3    3.33    7.38
  -6   1  -3   23.73    9.09
   6   1   3    5.76    7.77
  -6  -2  -3   -0.29    6.04
  -6  -2  -3  -11.13    7.90
  -6  -2  -3    8.62    6.31
   6  -2   3    0.20    6.78
   6  -2   3    6.03    6.53
   6  -2   3   -9.55    7.44
   6  -2   3    0.27    6.96
  -6  -2  -2   72.18    9.78
  -6  -2  -2   67.69    9.66
  -6  -2  -2   70.39    8.63
   6  -2   2   63.05    9.61
   6  -2   2   70.31    8.93
   6  -2   2   65.79    9.69
  -6  -2  -2   84.46   10.86
   6  -2   2   56.69    8.66
   6  -2   1    8.12    6.32
  -6  -2  -1    4.88    5.62
  -6   2   1    7.64    5.97
   6   2  -1   -2.90    7.38
  -6  -2  -1    4.53    5.48
   6  -2   1    2.11    5.60
   6  -2   1    0.96    4.99
  -6   2   1    4.77    5.43
   6   2  -1    5.57    6.77
   6  -2   1    1.18    6.19
  -6  -2  -1   -0.10    5.06
  -6   2   1    1.50    6.17
  -6  -2  -1    2.99    5.87
  -6   2   0    2.50    6.48
   6   2   0   10.04    7.24
   6  -2   0   11.38    6.52
  -6  -2   0    7.15    5.64
  -6  -2   0   14.27    6.17
  -6   2   0   13.72    6.43
   6   2   0   14.85    6.81
   6  -2   0   13.65    7.42
   6  -2   0    6.45    5.20
  -6   2   0   12.52    6.36
  -6  -2   0    7.02    5.15
   6   2   0    2.62    6.46
  -6   2   0    7.28    5.73
   6  -2   0    8.62    6.26
   6   2   0    6.27    5.53
  -6  -2   0   11.82    6.06
   6   2   1    8.33    6.85
  -6  -2   1    0.72    5.47
   6  -2  -1    6.66    7.33
   6  -2  -1   21.13    7.15
  -6  -2   1    8.66    5.88
  -6   2  -1   10.44    6.04
  -6  -2   1    7.12    5.57
   6   2   1    6.22    6.52
   6  -2  -1   -9.92    7.31
   6   2   1   -5.23    6.02
   6   2   1    3.73    5.15
  -6   2  -1    4.60    6.38
  -6   2  -1   -1.95    6.07
  -6   2  -1   -3.71    6.62
  -6   2  -2   70.93    9.66
   6   2   2   69.68   10.09
  -6   2  -2   69.14   10.30
   6   2   2   78.29    9.49
   6   2   2   72.72    9.79
  -6   2  -2   54.82   10.29
  -6   2  -2   54.71   10.09
   6   2   2   56.79    9.56
  -6   2  -3   -1.98    6.66
  -6   2  -3    2.48    6.52
   6   2   3    3.33    7.82
  -6   2  -3    4.57    8.50
  -6   2  -3    2.70    6.56
   6   2   3   -7.73    9.15
   6  -3   3   -5.01    7.27
   6  -3   3    9.83    7.86
   6  -3   3   -1.51    7.56
  -6  -3  -2   10.60    6.81
  -6  -3  -2   23.30    7.34
   6  -3   2    9.00    6.61
   6  -3   2   11.38    6.24
   6  -3   2   12.45    6.88
   6  -3   1   20.71    6.55
  -6  -3  -1   14.33    6.35
   6   3  -1   15.61    8.30
  -6  -3  -1    7.36    5.12
   6  -3   1   17.01    7.27
   6  -3   1   18.75    6.30
   6   3  -1   12.17    7.22
   6  -3   1    3.57    6.22
  -6   3   0  -13.30    7.93
   6   3   0  -11.43    8.46
   6  -3   0    3.03    6.13
  -6  -3   0   29.65    9.02
  -6   3   0   -0.73    5.81
  -6  -3   0   -6.05    6.01
  -6   3   0   -4.22    6.47
   6  -3   0  -15.50    8.15
   6  -3   0    3.38    5.05
   6   3   0  -15.77    9.27
  -6   3   0    9.12    6.61
   6  -3   0    6.00    6.52
   6   3   1   10.60    6.83
  -6   3  -1   29.08    7.90
  -6  -3   1   17.48    6.81
  -6   3  -1    5.02    5.88
  -6  -3   1   12.50    6.08
   6   3   1   21.58    7.48
  -6   3  -1    7.10    6.66
  -6   3  -1   19.11    7.94
  -6   3  -2    0.29    6.59
   6   3   2    5.80    6.50
  -6   3  -2   14.02    7.17
  -6   3  -2    4.08    6.41
   6   3   2   16.97    8.20
  -6   3  -3   13.25    8.35
  -6   3  -3    8.77    8.35
   6  -4   3   11.74    6.70
   6  -4   3    5.39    6.53
   6  -4   3   12.56    7.73
  -6  -4  -2   25.87    7.72
  -6  -4  -2   37.06    8.55
   6  -4   2   38.63    8.68
   6  -4   2   40.53    8.22
   6  -4   2   43.81    9.35
  -6  -4  -1    4.72    6.19
   6   4  -1   -3.36    8.62
  -6  -4  -1   -5.89    5.49
   6  -4   1   12.90    7.52
   6  -4   1    7.55    7.21
   6   4  -1    7.61    7.98
   6  -4   1    0.88    6.52
   6  -4   0   20.08    7.95
   6   4   0    6.46    7.95
  -6   4   0   13.20    8.39
  -6  -4   0    5.74    6.08
  -6  -4   0    6.13    5.57
   6  -4   0   17.61    8.32
   6  -4   0   13.11    6.69
  -6   4   0   21.80    7.74
   6   4   0   17.23    8.75
  -6   4   0    5.22    7.14
  -6  -4   1    7.54    6.77
  -6  -4   1   -1.95    5.07
  -6   4  -1    1.86    6.39
   6   4   1   12.37    8.10
  -6   4  -1   -1.80    6.92
  -6   4  -1    5.67    7.55
   6   4   1    6.60    7.89
   6   4   2   36.40    8.93
  -6   4  -2   41.72    9.45
  -6   4  -2   28.03    9.76
  -6   4  -2   31.43    9.37
   6   4   2   47.17   11.00
  -6   4  -3    1.20    8.05
  -6   4  -3   10.84    9.88
  -6   4  -3   10.93    8.50
   6  -5   4   16.76    8.86
   6  -5   3  -10.97    8.12
   6  -5   3    2.66    6.88
   6  -5   3    8.61    7.56
  -6  -5  -2    9.77    7.31
  -6  -5  -2   14.13    6.76
   6  -5   2   11.65    7.70
   6  -5   2   33.19    8.81
   6   5  -2   22.46   10.21
   6  -5   2   39.75    8.77
   6   5  -1   36.79   10.95
  -6  -5  -1   38.66    8.53
  -6  -5  -1   53.29    8.98
   6  -5   1   28.05    8.50
   6  -5   1   47.71    9.12
   6   5  -1   60.97   12.26
   6  -5   1   60.40   10.08
   6   5   0   -0.50    8.36
  -6   5   0    6.21    7.52
   6  -5   0   15.52    8.28
  -6  -5   0    0.52    6.25
  -6  -5   0    7.63    5.93
  -6   5   0    3.31    6.20
   6  -5   0   12.01    6.91
   6  -5   0    3.73    6.30
   6   5   0   16.36    9.42
  -6   5   0    4.24    8.32
  -6  -5   1   48.26    9.54
  -6  -5   1   47.28    8.92
   6   5   1   38.04    9.51
  -6   5  -1   52.68   11.63
  -6   5  -1   23.61    9.14
  -6   5  -1   46.75   10.43
   6   5   1   52.00   11.37
   6   5   2   29.72   10.23
  -6   5  -2   29.80   10.67
  -6   5  -2   20.59    9.65
   6   5   2   26.27   14.07
  -6   5  -2   11.43    9.34
  -6   5  -3   -5.99    9.56
  -6   5  -3    7.29   10.22
  -6   5  -3    1.85    8.27
   6  -6   4   15.59    9.04
   6  -6   3   54.55   11.59
   6  -6   3   58.13   10.85
   6  -6   3   36.68    9.21
  -6  -6  -2    2.99    7.42
  -6  -6  -2  -11.23    8.22
   6  -6   2    4.09    7.78
   6  -6   2    6.12    7.14
   6   6  -2    3.24   10.70
   6  -6   2   -3.38    7.81
   6  -6   1   42.19    9.76
  -6  -6  -1   49.00   10.62
   6  -6   1   44.76    9.69
   6  -6   1   39.84    9.78
   6   6  -1   40.58   12.43
  -6  -6   0   35.39    9.15
   6  -6   0   21.51    8.56
   6  -6   0   24.62    8.41
   6   6   0    8.49    9.99
  -6   6   0   26.72    9.55
  -6  -6   1   43.96   10.05
  -6   6  -1   39.50   11.80
   6   6   1   35.28   11.26
  -6   6  -1   61.15   12.54
  -6   6  -1   37.63   11.02
   6   6   1   58.37   16.46
  -6  -6   2  -11.22    7.38
  -6   6  -2   -1.97    9.55
   6   6   2   -7.71   10.06
  -6   6  -2   13.74   11.25
  -6   6  -2    4.96    9.01
  -6   6  -3   48.64   15.30
  -6   6  -3   56.52   12.53
  -6   6  -3   37.22   14.02
   6  -7   3    3.57    8.92
   6  -7   2    9.76    8.09
   6  -7   2  -13.27    7.67
   6   7  -2  -22.13   14.83
  -6  -7  -1    1.66    7.48
   6  -7   1    7.24    7.62
   6  -7   1   18.30    8.42
   6   7  -1    8.14   13.40
  -6  -7   0    7.10    7.38
   6   7   0   26.91   11.93
  -6  -7   1    1.82    7.52
   6   7   1   -0.79   10.74
  -6   7  -1   -1.68   10.87
  -6   7  -2   -8.84   11.24
  -6   7  -2   -0.13   11.99
   7   0   0   -3.06    8.35
  -7   0   0    3.23    5.99
  -7   0   0  -11.03    6.83
   7   0   0   -5.27    6.38
   7   0   0    5.42    6.49
  -7   0   0   -3.40    6.47
   7   0   1   16.32    7.60
  -7   0   1   33.23    9.33
   7   0  -1   30.70    9.46
  -7   0  -1   25.54    7.76
  -7   0  -1   40.60    8.65
   7   0   1   33.72    8.80
   7   0  -1   35.34   10.22
   7   0   1   32.11    8.56
  -7   0  -1   28.00    8.41
  -7   0  -2    4.14    7.06
   7   0   2   -3.50    6.40
  -7   0  -2   -4.21    6.32
   7   0   2   -7.86    6.96
  -7   0  -2    8.12    8.26
   7   0   2  -15.01    7.73
  -7   0  -3   36.07    9.83
  -7   0  -3   26.93    9.34
   7   0   3   41.23   11.23
  -7   0  -3   34.30   10.72
   7   0   3   40.01   10.99
  -7  -1  -3   19.36    8.70
  -7  -1  -3   14.07    8.12
   7  -1   3   34.61   10.07
   7  -1   3   23.64   10.14
   7  -1   3   20.79    9.46
  -7  -1  -2   20.13    7.90
   7  -1   2   28.46    8.66
  -7  -1  -2   22.48    7.82
   7  -1   2   15.80    7.38
  -7  -1  -2   21.16    8.26
   7  -1   2   13.33    6.49
   7  -1   1    5.85    6.45
   7   1  -1   -2.10    9.07
  -7  -1  -1    0.81    5.98
  -7  -1  -1    4.26    6.17
   7  -1   1    4.43    7.00
   7   1  -1   -1.84    7.28
   7  -1   1   -8.45    7.55
  -7  -1  -1   -7.30    6.97
  -7   1   0   16.34    9.29
   7   1   0    7.42    8.27
   7  -1   0    8.83    8.22
  -7  -1   0    9.37    6.38
  -7   1   0   12.18    7.00
  -7   1   0    3.07    6.43
  -7  -1   0    8.48    5.91
   7   1   0    7.27    7.22
   7  -1   0    5.87    7.86
  -7  -1   0    2.48    7.33
   7  -1   0    7.03    7.05
   7   1   0   12.28    6.87
   7   1   1   -7.22    7.68
  -7  -1   1   -0.82    7.27
  -7   1  -1    4.81    5.70
  -7   1  -1    7.99    7.17
  -7  -1   1   -1.25    7.06
   7   1   1   -6.10    7.17
   7   1   1    2.00    5.78
  -7   1  -1    1.50    6.70
  -7   1  -2   14.96    7.37
   7   1   2   14.65    7.71
  -7   1  -2   35.46    9.35
   7   1   2   20.05    8.05
  -7   1  -2   11.96    8.43
   7   1   2   18.80    7.40
  -7   1  -3   16.92    9.13
  -7   1  -3   13.59    8.19
   7   1   3   15.10    9.85
  -7   1  -3   13.02    9.26
   7   1   3   35.46   11.54
  -7  -2  -3   13.10    9.37
   7  -2   3    2.32    7.99
   7  -2   3    8.97    8.11
  -7  -2  -2    2.01    6.58
   7  -2   2   10.39    7.67
   7  -2   2    6.28    7.59
  -7  -2  -2   22.73    9.17
   7  -2   2   -0.18    6.81
   7  -2   1    2.66    6.69
   7   2  -1    8.06    9.50
  -7  -2  -1   -8.38    6.59
  -7  -2  -1    2.81    6.45
   7  -2   1   -2.05    6.70
   7   2  -1   13.63    9.05
  -7  -2  -1   -3.04    6.95
   7  -2   1    5.26    6.77
  -7   2   0  137.82   15.00
   7   2   0  107.74   12.03
  -7  -2   0  121.79   13.10
   7   2   0   94.35   13.37
   7  -2   0  123.58   13.74
  -7  -2   0   98.44   11.87
  -7   2   0  106.18   12.52
   7  -2   0  107.03   13.59
  -7   2   0  119.48   13.27
   7   2   0  121.05   13.27
  -7  -2   0  106.58   11.86
   7  -2   0  106.47   13.14
   7   2   1    3.95    7.78
  -7   2  -1   -0.02    6.86
  -7  -2   1    0.99    5.49
  -7   2  -1   10.55    7.22
   7   2   1   15.25    7.97
   7   2   1    1.70    6.37
  -7   2  -1  -15.61    7.43
  -7   2  -2    1.84    7.66
   7   2   2   -6.44    7.79
  -7   2  -2   12.35    8.23
  -7   2  -2    1.14    8.24
   7   2   2   -2.93    7.68
  -7   2  -3    6.24    8.22
  -7   2  -3   14.97    8.43
  -7   2  -3   -3.70    7.95
   7   2   3   15.30   10.50
   7  -3   3   17.89    9.10
   7  -3   3   33.92   10.85
   7  -3   3   18.28    9.58
  -7  -3  -2   15.37    7.86
  -7  -3  -2   -8.16    6.98
   7  -3   2   18.96    9.20
   7  -3   2   15.33    8.21
   7  -3   2    6.25    7.89
   7   3  -1   -2.06    8.19
  -7  -3  -1    0.09    6.62
  -7  -3  -1   -7.31    7.32
   7  -3   1    6.86    7.11
   7  -3   1    7.67    6.30
   7   3  -1   -3.44    8.72
   7  -3   1   14.56    8.31
  -7   3   0    7.69    9.11
   7  -3   0   -0.59    6.66
   7   3   0    1.38    7.77
  -7  -3   0   -9.59    7.36
  -7  -3   0   -2.04    6.86
   7  -3   0    4.87    8.48
   7   3   0    8.03    8.87
  -7   3   0    7.49    7.70
  -7   3   0    7.75    7.45
   7   3   1   -1.50    7.74
  -7  -3   1   -0.84    6.42
  -7  -3   1    2.89    6.42
  -7   3  -1   -3.31    7.38
   7   3   1    5.96    7.85
  -7   3  -1    7.41    8.69
  -7   3  -1    1.61    7.80
   7   3   2   12.48    8.11
  -7   3  -2   20.72    9.85
  -7   3  -2    3.59    8.39
  -7   3  -2   14.58    9.23
   7   3   2   12.83    9.77
  -7   3  -3   27.86    9.37
  -7   3  -3    4.50   10.40
  -7   3  -3   16.41   10.37
   7  -4   3  -20.05    9.50
   7  -4   3   -1.33    8.26
  -7  -4  -2   16.70    8.89
  -7  -4  -2    2.47    7.11
   7  -4   2   15.62    8.90
   7  -4   2    1.58    7.15
   7  -4   2    8.71    8.00
   7   4  -1   16.33   10.45
  -7  -4  -1   -5.09    7.91
  -7  -4  -1    8.56    6.23
   7  -4   1   13.76    9.24
   7  -4   1    1.60    6.23
   7   4  -1   -2.88    9.83
   7  -4   1  -10.63    8.65
  -7   4   0   28.20   10.83
   7   4   0   24.87    9.91
   7  -4   0   13.88    8.04
  -7  -4   0   30.18    8.79
  -7  -4   0   23.28    7.00
   7  -4   0   23.93   10.51
   7   4   0   38.84   11.26
  -7   4   0   24.05    9.02
  -7   4   0   20.72    8.29
  -7  -4   1   -2.41    7.51
  -7  -4   1    0.78    6.48
   7   4   1   22.37    9.48
  -7   4  -1    8.80    8.19
  -7   4  -1   -9.64   10.21
   7   4   1    6.96    8.44
  -7   4  -1    6.90    7.98
  -7   4  -2   -1.62    9.44
   7   4   2   -1.76    9.38
  -7   4  -2   36.34   11.89
  -7   4  -2   11.94    9.73
   7   4   2   14.86   10.51
  -7   4  -3    6.22    8.71
  -7   4  -3   -0.45   11.97
  -7   4  -3    3.27    9.30
   7  -5   3  -16.66   10.85
   7  -5   3   -2.80    9.17
   7  -5   3   -2.19    8.42
  -7  -5  -2    3.11    8.44
  -7  -5  -2   14.64    8.34
   7  -5   2   13.09    8.66
   7  -5   2   -0.98    7.47
   7  -5   2    2.83    8.04
   7  -5   1   -1.99    8.33
   7   5  -1    4.50   10.38
  -7  -5  -1   12.72    8.15
  -7  -5  -1   19.52    7.92
   7  -5   1    3.32    8.86
   7  -5   1   13.89    7.88
   7   5  -1   -6.55   10.60
   7   5   0   -2.35   11.04
  -7  -5   0   18.49    8.87
  -7  -5   0    7.55    6.64
   7   5   0  -12.11   10.33
  -7  -5   1   16.10    8.12
  -7  -5   1   -4.81    7.74
  -7   5  -1   18.11    9.94
   7   5   1   18.31    9.80
  -7   5  -1   22.25   10.39
  -7   5  -1   -9.20   11.23
   7   5   1  -14.76   12.66
  -7   5  -2   -3.70    8.87
   7   5   2   -0.46   10.04
  -7   5  -2    8.68   11.62
  -7   5  -2   25.18   11.92
   7   5   2    3.93   13.51
  -7   5  -3    0.84   12.80
  -7   5  -3   -2.01   10.37
  -7   5  -3    7.40   10.39
   7  -6   3   -8.44    9.25
   7  -6   2  -18.62   10.34
   7  -6   2  -20.70    9.50
   7  -6   1   77.67   13.99
  -7  -6  -1   47.52   10.95
  -7  -6  -1   70.40   11.88
   7  -6   1   48.41   11.32
   7  -6   1   70.33   11.97
  -7  -6   0  -13.04    9.07
   7   6   0   -9.97   13.90
  -7   6  -1   75.20   14.53
  -7   6  -1   94.89   16.35
   7   6   1  124.06   24.14
  -7   6  -2    5.08   11.20
  -7   6  -2   28.27   13.04
  -7   6  -3    0.05   10.10
   8   0   0    2.39    9.05
   8   0   0  -10.28    7.33
  -8   0   0   -9.29    9.13
  -8   0   0   19.91    8.18
   8   0   0   -0.05    8.82
  -8   0   0   -9.46    9.92
   8   0   1    0.25    8.34
  -8   0  -1   23.07    8.19
   8   0   1    0.29    8.73
  -8   0  -1   -1.09    7.63
  -8   0  -1   -5.72    9.65
   8   0   1   -2.55    7.20
  -8   0  -2   -4.44    8.28
  -8   0  -2    9.85    8.17
   8   0   2   10.99    9.82
   8   0   2   14.74    9.44
  -8   0  -2    1.58    9.63
   8   0   2    5.20    9.04
  -8   0  -3   30.82   10.39
  -8   0  -3   22.85   10.45
   8   0   3   30.75   13.58
  -8   0  -3   21.26   10.25
   8   0   3   22.16   11.74
  -8  -1  -3    6.35    8.44
   8  -1   3   19.04   11.38
   8  -1   3   22.96   11.99
  -8  -1  -2   13.00    8.66
  -8  -1  -2   -4.37    8.86
   8  -1   2   -5.33    9.96
  -8  -1  -2   -7.83    8.61
   8  -1   2   -0.78    8.03
   8  -1   2   -4.43    8.60
   8  -1   1    0.54    8.18
  -8  -1  -1    7.88    7.83
   8  -1   1    0.10    8.07
  -8  -1  -1   -4.51    7.97
  -8  -1  -1   -9.09    7.26
   8  -1   1   16.95    8.65
   8   1   0   11.36    9.90
   8  -1   0   12.29    9.58
   8  -1   0   11.33    7.92
   8   1   0  -15.03    8.76
  -8  -1   0   18.82    8.42
  -8   1   0   13.06    8.14
   8   1   0   21.38    9.66
   8  -1   0   15.72    8.83
  -8   1   0    6.52    7.15
  -8  -1   0    9.11    8.39
  -8   1   0   20.02    9.66
   8   1   1   -1.63    8.58
  -8   1  -1    8.81    8.45
   8   1   1   16.00    9.54
  -8   1  -1   15.85    7.78
  -8   1  -1   -2.93   10.02
   8   1   1   13.29    8.78
  -8   1  -2    1.13    8.19
  -8   1  -2   -0.35    7.97
   8   1   2    1.12    9.51
   8   1   2   -6.13    8.45
  -8   1  -2    8.65   10.10
   8   1   2   -4.81    8.78
  -8   1  -3   29.12   11.30
  -8   1  -3   -0.97    8.34
  -8   1  -3   16.11   11.54
   8   1   3   -0.38   10.89
   8  -2   3    0.68   10.04
   8  -2   3   13.38   11.82
  -8  -2  -2   10.76    7.77
   8  -2   2    5.68    9.36
   8  -2   2    8.30    8.31
   8  -2   2   13.74    9.61
   8  -2   1   -2.59    8.02
  -8  -2  -1   -2.01    7.09
   8  -2   1   -2.11    8.61
   8  -2   1   13.51    9.15
   8   2   0    2.43   10.17
   8  -2   0    8.17    9.18
   8  -2   0   -2.41    7.86
  -8  -2   0   11.69    7.32
   8  -2   0  -15.56   10.35
  -8   2   0   16.22    9.08
  -8   2   0    3.96    8.12
  -8   2  -1   -1.48    7.93
  -8   2  -1   -2.59    8.44
  -8   2  -1  -16.57   10.64
   8   2   1   -6.33    8.88
  -8   2  -2   -1.60    9.95
  -8   2  -2   -3.10    8.66
  -8   2  -2    9.57   10.39
   8   2   2   -7.70   10.63
  -8   2  -3   15.54   10.42
  -8   2  -3    4.67    9.00
  -8  -3  -2   13.81    8.40
   8  -3   2  -18.57   10.66
  -8  -3  -1    4.54    7.74
   8  -3   1    5.23    9.46
   8  -3   1    5.12    8.58
   8   3   0    8.73   10.60
  -8  -3   0    7.76    6.81
   8   3   0    0.38   10.65
  -8   3  -1   -0.63    8.68
  -8   3  -1  -13.01   11.32
   8   3   1    8.38   10.46
  -8  -4  -2   -9.09   10.41
  -8  -4  -1   -2.34    8.28
  -8  -4   0    6.32    8.04
   8   4   0    4.60   10.59
   8   4   1   14.78   12.17
   0   0   0    0.00    0.00


TITL 1a in P2(1)2(1)2(1)
REM P2(1)2(1)2(1) (#19 in standard setting)
CELL 0.71073   6.933954   8.756795  10.029137  90.0000  90.0000  90.0000
ZERR    4.00   0.000549   0.000585   0.006956   0.0000   0.0000   0.0000
LATT -1
SYMM -x+1/2,-y, z+1/2
SYMM -x, y+1/2,-z+1/2
SYMM  x+1/2,-y+1/2,-z
SFAC C H N Cl
UNIT 16.00 8.00 20.00 4.00
TREF
HKLF 4
END
_computing_structure_solution     'SHELXT 2018/2 (Sheldrick, 2018)'
;
_shelx_hkl_checksum              19711
_olex2_submission_special_instructions 'No special instructions were received'
_oxdiff_exptl_absorpt_empirical_details
;
Empirical correction (ABSPACK) includes:
- Absorption correction using spherical harmonics
- Frame scaling
;
_oxdiff_exptl_absorpt_empirical_full_max 2.533
_oxdiff_exptl_absorpt_empirical_full_min 0.775
loop_
_space_group_symop_operation_xyz
'x, y, z'
'-x+1/2, -y, z+1/2'
'-x, y+1/2, -z+1/2'
'x+1/2, -y+1/2, -z'
loop_
_atom_site_label
_atom_site_type_symbol
_atom_site_fract_x
_atom_site_fract_y
_atom_site_fract_z
_atom_site_U_iso_or_equiv
_atom_site_adp_type
_atom_site_occupancy
_atom_site_site_symmetry_order
_atom_site_calc_flag
_atom_site_refinement_flags_posn
_atom_site_refinement_flags_adp
_atom_site_refinement_flags_occupancy
_atom_site_disorder_assembly
_atom_site_disorder_group
Cl1 Cl 0.2929(2) 0.33348(13) 0.3228(4) 0.0746(19) Uani 1 1 d . . . . .
N4 N 0.3555(7) 0.7512(5) 0.4137(14) 0.055(9) Uani 1 1 d . . . . .
N5 N 0.3685(7) 0.5951(5) 0.4233(13) 0.057(9) Uani 1 1 d . . . . .
N3 N 0.4256(6) 0.8428(6) 0.5096(13) 0.065(7) Uani 1 1 d . . . . .
N2 N 0.3845(9) 0.9812(7) 0.465(2) 0.070(9) Uani 1 1 d . . . . .
N1 N 0.2924(10) 0.9803(6) 0.3481(19) 0.064(10) Uani 1 1 d . . . . .
C9 C 0.2749(8) 0.8338(6) 0.3169(15) 0.053(8) Uani 1 1 d . . . . .
C7 C 0.2011(10) 0.6025(7) 0.2073(17) 0.053(10) Uani 1 1 d . . . . .
H7 H 0.150037 0.545129 0.137678 0.064 Uiso 1 1 calc R U . . .
C6 C 0.2875(9) 0.5309(6) 0.3192(17) 0.066(8) Uani 1 1 d . . . . .
C8 C 0.1951(8) 0.7585(6) 0.2049(16) 0.044(9) Uani 1 1 d . . . . .
H8 H 0.141638 0.812069 0.133815 0.053 Uiso 1 1 calc R U . . .
loop_
_atom_site_aniso_label
_atom_site_aniso_U_11
_atom_site_aniso_U_22
_atom_site_aniso_U_33
_atom_site_aniso_U_23
_atom_site_aniso_U_13
_atom_site_aniso_U_12
Cl1 0.0758(9) 0.0341(7) 0.114(6) -0.0023(14) 0.0193(18) -0.0007(7)
N4 0.041(3) 0.040(2) 0.08(3) 0.006(5) -0.013(5) -0.002(2)
N5 0.048(3) 0.040(2) 0.08(3) 0.011(5) 0.001(6) 0.002(2)
N3 0.070(3) 0.062(3) 0.06(2) -0.004(7) -0.009(6) -0.015(3)
N2 0.077(5) 0.053(4) 0.08(3) -0.019(6) 0.004(9) -0.013(3)
N1 0.068(5) 0.039(3) 0.08(3) -0.007(6) 0.016(8) -0.003(3)
C9 0.042(3) 0.037(3) 0.08(2) -0.005(7) -0.006(6) 0.002(3)
C7 0.056(4) 0.057(3) 0.05(3) -0.017(6) 0.006(8) -0.010(3)
C6 0.041(3) 0.034(3) 0.12(3) 0.007(6) 0.019(9) 0.000(3)
C8 0.056(4) 0.055(3) 0.02(3) 0.016(6) 0.004(7) 0.006(3)
loop_
_atom_type_symbol
_atom_type_description
_atom_type_scat_dispersion_real
_atom_type_scat_dispersion_imag
_atom_type_scat_source
C C 0.0033 0.0016 'International Tables Vol C Tables 4.2.6.8 and 6.1.1.4'
H H 0.0000 0.0000 'International Tables Vol C Tables 4.2.6.8 and 6.1.1.4'
Cl Cl 0.1484 0.1585 'International Tables Vol C Tables 4.2.6.8 and 6.1.1.4'
N N 0.0061 0.0033 'International Tables Vol C Tables 4.2.6.8 and 6.1.1.4'
loop_
_geom_angle_atom_site_label_1
_geom_angle_atom_site_label_2
_geom_angle_atom_site_label_3
_geom_angle
_geom_angle_site_symmetry_1
_geom_angle_site_symmetry_3
_geom_angle_publ_flag
N3 N4 N5 121.4(11) . . ?
C9 N4 N5 128.2(11) . . ?
C9 N4 N3 110.4(6) . . ?
C6 N5 N4 110.0(11) . . ?
N2 N3 N4 103.3(12) . . ?
N3 N2 N1 113.1(10) . . ?
C9 N1 N2 104.9(9) . . ?
N4 C9 C8 119.3(6) . . ?
N1 C9 N4 108.3(10) . . ?
N1 C9 C8 132.4(10) . . ?
C6 C7 H7 121.0 . . ?
C8 C7 H7 121.0 . . ?
C8 C7 C6 117.9(13) . . ?
N5 C6 Cl1 113.7(10) . . ?
N5 C6 C7 128.4(7) . . ?
C7 C6 Cl1 117.8(9) . . ?
C9 C8 H8 122.0 . . ?
C7 C8 C9 116.1(13) . . ?
C7 C8 H8 122.0 . . ?
loop_
_geom_bond_atom_site_label_1
_geom_bond_atom_site_label_2
_geom_bond_distance
_geom_bond_site_symmetry_2
_geom_bond_publ_flag
Cl1 C6 1.730(6) . ?
N4 N5 1.373(6) . ?
N4 N3 1.343(15) . ?
N4 C9 1.334(14) . ?
N5 C6 1.312(19) . ?
N3 N2 1.321(11) . ?
N2 N1 1.34(3) . ?
N1 C9 1.326(8) . ?
C9 C8 1.415(19) . ?
C7 H7 0.9300 . ?
C7 C6 1.419(18) . ?
C7 C8 1.367(7) . ?
C8 H8 0.9300 . ?
loop_
_geom_torsion_atom_site_label_1
_geom_torsion_atom_site_label_2
_geom_torsion_atom_site_label_3
_geom_torsion_atom_site_label_4
_geom_torsion
_geom_torsion_site_symmetry_1
_geom_torsion_site_symmetry_2
_geom_torsion_site_symmetry_3
_geom_torsion_site_symmetry_4
_geom_torsion_publ_flag
N4 N5 C6 Cl1 -179.1(5) . . . . ?
N4 N5 C6 C7 1.7(16) . . . . ?
N4 N3 N2 N1 0.2(15) . . . . ?
N4 C9 C8 C7 2.3(14) . . . . ?
N5 N4 N3 N2 -179.4(8) . . . . ?
N5 N4 C9 N1 179.3(8) . . . . ?
N5 N4 C9 C8 -2.1(15) . . . . ?
N3 N4 N5 C6 179.0(9) . . . . ?
N3 N4 C9 N1 0.3(10) . . . . ?
N3 N4 C9 C8 178.9(9) . . . . ?
N3 N2 N1 C9 0.0(16) . . . . ?
N2 N1 C9 N4 -0.2(12) . . . . ?
N2 N1 C9 C8 -178.5(13) . . . . ?
N1 C9 C8 C7 -179.5(8) . . . . ?
C9 N4 N5 C6 0.1(14) . . . . ?
C9 N4 N3 N2 -0.3(11) . . . . ?
C6 C7 C8 C9 -0.8(14) . . . . ?
C8 C7 C6 Cl1 179.4(6) . . . . ?
C8 C7 C6 N5 -1.4(17) . . . . ?
