#------------------------------------------------------------------------------
#$Date: 2022-01-01 07:13:54 +0200 (Sat, 01 Jan 2022) $
#$Revision: 271676 $
#$URL: file:///home/coder/svn-repositories/cod/cif/1/56/58/1565878.cif $
#------------------------------------------------------------------------------
#
# This file is available in the Crystallography Open Database (COD),
# http://www.crystallography.net/. The original data for this entry
# were provided by IUCr Journals, http://journals.iucr.org/.
#
# The file may be used within the scientific community so long as
# proper attribution is given to the journal article from which the
# data were obtained.
#
data_1565878
loop_
_publ_author_name
'Olejniczak, Anna'
'Katrusiak, Anna'
'Podsiad\/lo, Marcin'
'Katrusiak, Andrzej'
_publ_section_title
;
 Stochastic hydration of a high-nitrogen-content molecular compound
 recrystallized under pressure
;
_journal_issue                   1
_journal_name_full               IUCrJ
_journal_page_first              49
_journal_page_last               54
_journal_paper_doi               10.1107/S2052252521010381
_journal_volume                  9
_journal_year                    2022
_chemical_formula_moiety         'C4 H2 Cl N5'
_chemical_formula_sum            'C4 H2 Cl N5'
_chemical_formula_weight         155.56
_chemical_name_systematic        6-chloro-1,2,3,4-tetrazolo[1,5-b]pyridazine
_space_group_crystal_system      orthorhombic
_space_group_IT_number           19
_space_group_name_Hall           'P 2ac 2ab'
_space_group_name_H-M_alt        'P 21 21 21'
_atom_sites_solution_hydrogens   geom
_atom_sites_solution_primary     direct
_audit_creation_date             2020-07-14
_audit_creation_method
;
Olex2 1.3
(compiled 2020.06.28 svn.raecde09e for OlexSys, GUI svn.r6132)
;
_cell_angle_alpha                90
_cell_angle_beta                 90
_cell_angle_gamma                90
_cell_formula_units_Z            4
_cell_length_a                   7.0542(4)
_cell_length_b                   8.7774(14)
_cell_length_c                   10.1041(5)
_cell_measurement_reflns_used    1187
_cell_measurement_temperature    296(2)
_cell_measurement_theta_max      21.7220
_cell_measurement_theta_min      3.7070
_cell_volume                     625.62(11)
_computing_cell_refinement       'CrysAlisPro 1.171.40.67a (Rigaku OD, 2019)'
_computing_data_collection       'CrysAlisPro 1.171.40.67a (Rigaku OD, 2019)'
_computing_data_reduction        'CrysAlisPro 1.171.40.67a (Rigaku OD, 2019)'
_computing_molecular_graphics    'Olex2 1.3 (Dolomanov et al., 2009)'
_computing_publication_material  'Olex2 1.3 (Dolomanov et al., 2009)'
_computing_structure_refinement  'SHELXL 2018/3 (Sheldrick, 2015)'
_computing_structure_solution    'SHELXT 2018/2 (Sheldrick, 2018)'
_diffrn_ambient_environment      'diamond-anvil cell'
_diffrn_ambient_pressure         90000
_diffrn_ambient_temperature      296
_diffrn_detector                 'CCD plate'
_diffrn_detector_area_resol_mean 16.2413
_diffrn_detector_type            Eos
_diffrn_measured_fraction_theta_full 0.592
_diffrn_measured_fraction_theta_max 0.552
_diffrn_measurement_details
;
List of Runs (angles in degrees, time in seconds):

  # Type    Start    End  Width  t~exp~   \w     \q     \k     \f   Frames
--------------------------------------------------------------------------
  1  \f    -35.00  19.75   0.75   15.00   0.00 -30.00   0.00    --    73
  2  \f    140.00 200.00   0.75   15.00   0.00 -30.00   0.00    --    80
  3  \f    160.00 217.00   0.75   15.00   0.00  30.00   0.00    --    76
  4  \f    -20.00  34.75   0.75   15.00   0.00  30.00   0.00    --    73
  5  \w    -24.00  24.00   0.75   15.00    --   30.00  39.46 -12.90   64
  6  \w    -24.00  24.00   0.75   15.00    --   30.00  39.46 167.10   64
  7  \w    -50.00  10.00   0.75   15.00    --  -30.00  39.46 167.10   80
  8  \w    -50.00  10.00   0.75   15.00    --  -30.00  39.46 -12.90   80
  9  \w    -64.00  -8.50   0.75   15.00    --  -30.00  81.40 -28.90   74
 10  \w    -64.00  -8.50   0.75   15.00    --  -30.00  81.40 151.10   74
 11  \w    -19.00   8.00   0.75   15.00    --   30.00  81.40 151.10   36
 12  \w    -19.00   8.00   0.75   15.00    --   30.00  81.40 -28.90   36
 13  \w    -43.00 -21.25   0.75   15.00    --   30.00 134.60 -56.90   29
 14  \w    -43.00 -21.25   0.75   15.00    --   30.00 134.60 123.10   29
 15  \w    -90.00 -36.00   0.75   15.00    --  -30.00 134.60 123.10   72
 16  \w    -90.00 -36.00   0.75   15.00    --  -30.00 134.60 -56.90   72
;
_diffrn_measurement_device       'four-circle diffractometer'
_diffrn_measurement_device_type  'KM-4 CCD'
_diffrn_measurement_method
;
HP omega scans - for more details see:
A. Budzianowski, A. Katrusiak in High-Pressure Crystallography
(Eds.: A. Katrusiak, P. F. McMillan),
Dordrecht: Kluwer Acad. Publ., 2004 pp.157-168
;
_diffrn_orient_matrix_type
'CrysAlisPro convention (1999,Acta A55,543-557)'
_diffrn_orient_matrix_UB_11      -0.0364202000
_diffrn_orient_matrix_UB_12      -0.0739294000
_diffrn_orient_matrix_UB_13      -0.0122527000
_diffrn_orient_matrix_UB_21      0.0919177000
_diffrn_orient_matrix_UB_22      -0.0312149000
_diffrn_orient_matrix_UB_23      0.0089595000
_diffrn_orient_matrix_UB_31      -0.0185640000
_diffrn_orient_matrix_UB_32      -0.0091723000
_diffrn_orient_matrix_UB_33      0.0685384000
_diffrn_radiation_monochromator  graphite
_diffrn_radiation_probe          x-ray
_diffrn_radiation_type           'Mo K\a'
_diffrn_radiation_wavelength     0.71073
_diffrn_reflns_av_R_equivalents  0.0303
_diffrn_reflns_av_unetI/netI     0.0282
_diffrn_reflns_Laue_measured_fraction_full 0.592
_diffrn_reflns_Laue_measured_fraction_max 0.552
_diffrn_reflns_limit_h_max       8
_diffrn_reflns_limit_h_min       -8
_diffrn_reflns_limit_k_max       6
_diffrn_reflns_limit_k_min       -6
_diffrn_reflns_limit_l_max       12
_diffrn_reflns_limit_l_min       -12
_diffrn_reflns_number            3890
_diffrn_reflns_point_group_measured_fraction_full 0.605
_diffrn_reflns_point_group_measured_fraction_max 0.547
_diffrn_reflns_theta_full        25.242
_diffrn_reflns_theta_max         27.175
_diffrn_reflns_theta_min         4.034
_diffrn_source                   'fine-focus sealed X-ray tube'
_diffrn_source_type              'Enhance (Mo) X-ray Source'
_exptl_absorpt_coefficient_mu    0.526
_exptl_absorpt_correction_T_max  1.00000
_exptl_absorpt_correction_T_min  0.42118
_exptl_absorpt_correction_type   multi-scan
_exptl_absorpt_process_details
;
CrysAlisPro 1.171.39.46 (Rigaku Oxford Diffraction, 2018)
Empirical absorption correction using spherical harmonics,
 implemented in SCALE3 ABSPACK scaling algorithm.
;
_exptl_crystal_colour            colorless
_exptl_crystal_density_diffrn    1.652
_exptl_crystal_description       plate
_exptl_crystal_F_000             312
_exptl_crystal_size_max          0.39
_exptl_crystal_size_mid          0.29
_exptl_crystal_size_min          0.18
_refine_diff_density_max         0.146
_refine_diff_density_min         -0.113
_refine_diff_density_rms         0.031
_refine_ls_abs_structure_details
;
 Flack x determined using 194 quotients [(I+)-(I-)]/[(I+)+(I-)]
 (Parsons, Flack and Wagner, Acta Cryst. B69 (2013) 249-259).
;
_refine_ls_abs_structure_Flack   0.21(4)
_refine_ls_extinction_method     none
_refine_ls_goodness_of_fit_ref   1.058
_refine_ls_hydrogen_treatment    constr
_refine_ls_matrix_type           full
_refine_ls_number_parameters     91
_refine_ls_number_reflns         764
_refine_ls_number_restraints     0
_refine_ls_restrained_S_all      1.058
_refine_ls_R_factor_all          0.0636
_refine_ls_R_factor_gt           0.0359
_refine_ls_shift/su_max          0.000
_refine_ls_shift/su_mean         0.000
_refine_ls_structure_factor_coef Fsqd
_refine_ls_weighting_details
'w=1/[\s^2^(Fo^2^)+(0.0387P)^2^+0.0855P] where P=(Fo^2^+2Fc^2^)/3'
_refine_ls_weighting_scheme      calc
_refine_ls_wR_factor_gt          0.0735
_refine_ls_wR_factor_ref         0.0835
_reflns_Friedel_coverage         0.661
_reflns_Friedel_fraction_full    0.625
_reflns_Friedel_fraction_max     0.540
_reflns_number_gt                561
_reflns_number_total             764
_reflns_threshold_expression     'I > 2\s(I)'
_cod_data_source_file            lt5042.cif
_cod_data_source_block           C4H2N5Cl1@0_09GPa_phase_alpha_xH2O
_cod_database_code               1565878
_shelx_shelxl_version_number     2018/3
_chemical_oxdiff_formula         C4H2N5Cl1
_shelx_space_group_comment
;
The symmetry employed for this shelxl refinement is uniquely defined
by the following loop, which should always be used as a source of
symmetry information in preference to the above space-group names.
They are only intended as comments.
;
_reflns_odcompleteness_completeness 54.76
_reflns_odcompleteness_iscentric 1
_reflns_odcompleteness_theta     27.12
_olex2_refinement_description
;
1. Fixed Uiso
 At 1.2 times of:
  All C(H) groups
2.a Aromatic/amide H refined with riding coordinates:
 C7(H7), C8(H8)
;
_shelx_res_file
;
TITL 1a_a.res in P2(1)2(1)2(1)
    1a.res
    created by SHELXL-2018/3 at 14:07:57 on 14-Jul-2020
REM Old TITL 1a in P2(1)2(1)2(1)
REM SHELXT solution in P2(1)2(1)2(1): R1 0.146, Rweak 0.059, Alpha 0.009
REM <I/s> 0.597 for 7 systematic absences, Orientation as input
REM Flack x = 0.256 ( 0.037 ) from 199 Parsons' quotients
REM Formula found by SHELXT: C7 N2 Cl
CELL 0.71073 7.0542 8.7774 10.1041 90 90 90
ZERR 4 0.0004 0.0014 0.0005 0 0 0
LATT -1
SYMM 0.5-X,-Y,0.5+Z
SYMM -X,0.5+Y,0.5-Z
SYMM 0.5+X,0.5-Y,-Z
SFAC C H Cl N
UNIT 16 8 4 20

L.S. 44
PLAN  5
CONF
BOND
list 4
fmap 2 53
MORE -1
BOND $H
ACTA
REM <olex2.extras>
REM <HklSrc "%.\\1a.hkl">
REM </olex2.extras>

WGHT    0.038700    0.085500
FVAR       0.98871
CL1   3    0.290940    0.334663    0.322117    11.00000    0.07814    0.04254 =
         0.09738   -0.00161    0.02414   -0.00169
N4    4    0.354927    0.749541    0.413290    11.00000    0.04971    0.05164 =
         0.03818   -0.00713    0.00158   -0.00335
N5    4    0.365643    0.597431    0.418684    11.00000    0.05535    0.03098 =
         0.05022    0.00103    0.00235    0.00078
N3    4    0.425949    0.838704    0.505771    11.00000    0.08063    0.03843 =
         0.05628   -0.01587   -0.00831   -0.01188
N2    4    0.388279    0.978757    0.466522    11.00000    0.09041    0.03794 =
         0.08777   -0.02085    0.01120   -0.01534
N1    4    0.296114    0.982882    0.347095    11.00000    0.07230    0.03310 =
         0.07064   -0.01035    0.00809   -0.00605
C9    1    0.275711    0.836765    0.316551    11.00000    0.05032    0.01594 =
         0.04386    0.00952    0.00427   -0.00095
C7    1    0.200971    0.604467    0.208826    11.00000    0.05879    0.05920 =
         0.04027   -0.00952   -0.00297   -0.00720
AFIX  43
H7    2    0.148234    0.547882    0.140270    11.00000   -1.20000
AFIX   0
C6    1    0.287004    0.532230    0.317496    11.00000    0.05388    0.01155 =
         0.05475    0.00525    0.01177   -0.00294
C8    1    0.196994    0.757959    0.206691    11.00000    0.05671    0.05863 =
         0.03826    0.00498   -0.00186    0.00131
AFIX  43
H8    2    0.144484    0.810539    0.135687    11.00000   -1.20000
AFIX   0
HKLF 4




REM  1a_a.res in P2(1)2(1)2(1)
REM wR2 = 0.0835, GooF = S = 1.058, Restrained GooF = 1.058 for all data
REM R1 = 0.0359 for 561 Fo > 4sig(Fo) and 0.0636 for all 764 data
REM 91 parameters refined using 0 restraints

END

WGHT      0.0387      0.0855

REM Highest difference peak  0.146,  deepest hole -0.113,  1-sigma level  0.031
Q1    1   0.4033  0.4639  0.5006  11.00000  0.05    0.15
Q2    1   0.4407  0.5306  0.4997  11.00000  0.05    0.14
Q3    1   0.2236  0.9213  0.3155  11.00000  0.05    0.12
Q4    1   0.3580  0.4136  0.3404  11.00000  0.05    0.11
Q5    1   0.2732  0.3394  0.2558  11.00000  0.05    0.10
;
_shelx_res_checksum              44480
_shelx_hkl_file
;
   0   0  -2 1310.35   19.28
   0   0   3    1.19    0.66
   0   0   3    0.94    0.74
   0   0   3    0.94    0.66
   0   0  -3    1.74    0.85
   0   0  -3    1.18    0.70
   0   0   4   31.91    2.31
   0   0   4   34.54    2.59
   0   0   4   31.46    2.09
   0   0  -4   26.63    2.38
   0   0   4   32.86    2.53
   0   0  -4   30.31    2.54
   0   0  -5   -1.63    1.77
   0   0   5    0.44    1.21
   0   0  -5   -0.03    1.65
   0   0   5    1.47    1.19
   0   0   5    0.51    1.00
   0   0   5   -0.71    1.02
   0   0   5    0.73    1.20
   0   0   6  870.23   19.24
   0   0  -6  916.38   19.11
   0   0   6  883.32   18.32
   0   0   6  866.00   18.71
   0   0   6  892.84   17.37
   0   0   6  904.69   16.17
   0   0  -6  880.90   18.95
   0   0  -7   -2.77    2.61
   0   0   7   -1.19    1.86
   0   0   7   -0.26    2.16
   0   0   7    0.91    1.50
   0   0   7    2.12    1.98
   0   0  -7   -2.16    2.69
   0   0   8  387.42   12.40
   0   0   8  414.24   13.93
   0   0   8  460.51   15.23
   0   0  -8  496.97   15.48
   0   0  -8  492.61   14.95
   0   0   8  432.29   13.62
   0   0   9   -1.15    2.67
   0   0  -9   -2.42    3.30
   0   0   9   -1.53    3.58
   0   0   9   -1.92    2.58
   0   0  -9   -0.32    3.71
   0   0 -10  130.72    9.33
   0   0  10  137.89    8.84
   0   0 -10  127.74    9.39
   0   0  10  151.75   10.58
   0   0  10  148.98    9.51
   0   0  11   -3.78    4.26
   0   0  11    9.18    5.04
   0   0 -11   -4.76    4.44
   0   0  11   -0.13    3.45
   0   0 -12   16.48    6.22
   0   0  12   20.58    6.59
   0   1  -2   33.99    1.93
   0   1  -3 3219.18   43.11
   0   1  -3 3204.98   44.00
   0  -1   3 3172.84   44.56
   0  -1   3 3250.85   44.55
   0  -1   3 3184.03   45.27
   0   1  -3 3198.06   44.62
   0   1  -4    8.43    1.59
   0  -1   4    6.62    1.37
   0   1   4    8.05    1.61
   0   1   4    6.83    1.46
   0  -1   4    7.49    1.50
   0  -1   4   10.08    1.26
   0   1  -4    7.05    1.30
   0   1  -4    8.54    1.43
   0  -1   4    8.54    1.21
   0   1  -5  897.85   16.00
   0   1   5  878.75   18.91
   0  -1   5  884.52   18.05
   0   1  -5  897.52   17.62
   0  -1   5  870.80   17.05
   0  -1   5  891.09   15.27
   0  -1   5  888.40   15.86
   0   1   5  852.35   18.33
   0   1   5  875.47   18.30
   0   1  -5  862.66   17.14
   0  -1   5  864.51   17.15
   0   1  -5  855.46   16.62
   0  -1  -5  880.60   18.76
   0  -1   6    1.41    1.53
   0   1   6   -2.41    1.81
   0   1  -6   -2.54    1.89
   0  -1   6    1.71    1.65
   0   1  -6   -2.42    2.03
   0   1   6   -0.56    1.62
   0   1  -6    0.97    1.69
   0  -1   6   -1.50    1.89
   0   1   6   -0.97    1.47
   0   1  -6    2.71    1.90
   0   1  -6    0.07    2.31
   0   1   6   -1.90    1.58
   0  -1  -6   -1.31    2.08
   0  -1   6   -0.45    1.09
   0  -1   6    2.55    1.32
   0   1   7   10.15    2.62
   0   1   7   11.02    2.75
   0   1  -7   11.07    2.71
   0   1   7   17.12    3.54
   0  -1   7    7.97    2.19
   0   1  -7    8.43    2.89
   0   1  -7    8.64    2.31
   0   1  -7   10.77    2.91
   0  -1   7   12.53    2.18
   0  -1   7   10.01    2.80
   0  -1   7   13.40    2.71
   0   1   8   18.74    4.15
   0   1   8   13.50    3.12
   0   1  -8   15.92    3.67
   0   1  -8   15.73    3.41
   0  -1   8   17.79    3.84
   0   1  -8   13.35    3.29
   0   1   8   22.50    3.65
   0  -1   8   17.44    3.10
   0  -1   8   19.85    3.52
   0  -1   9   13.61    3.70
   0   1  -9    3.57    3.39
   0  -1   9    7.18    3.27
   0   1  -9    7.85    3.61
   0   1  -9    5.45    3.62
   0  -1   9    6.36    3.16
   0   1   9    6.02    3.67
   0   1   9    4.96    3.59
   0   1  10   52.61    6.75
   0  -1  10   58.29    6.28
   0   1 -10   58.85    6.68
   0   1  10   36.62    4.76
   0  -1  10   44.95    6.26
   0   1 -10   62.02    6.80
   0   1 -10   48.47    5.87
   0  -1  10   49.87    5.64
   0   1 -11   43.63    6.83
   0   1 -11   35.21    6.08
   0   1 -11   32.41    6.31
   0  -1  11   43.22    6.15
   0  -1  11   31.60    6.49
   0  -1  11   36.22    5.45
   0   1 -12   -6.18    5.15
   0   1 -12    0.16    5.11
   0  -1  12   -3.71    4.11
   0  -1  12    7.46    5.43
   0   1 -12   -3.59    4.99
   0  -1  12    6.32    4.18
   0  -2   3  231.58    7.97
   0  -2   3  222.75    7.17
   0  -2   3  248.95    7.50
   0   2  -4    5.67    1.40
   0   2  -4    3.78    1.56
   0  -2   4    4.03    1.38
   0  -2   4    5.11    1.22
   0  -2   4    4.42    1.40
   0  -2   4    6.34    1.35
   0  -2   4    4.53    1.69
   0  -2   5  662.39   15.12
   0   2  -5  660.86   14.88
   0  -2   5  663.58   13.56
   0   2  -5  631.17   13.19
   0  -2   5  627.75   14.59
   0  -2   5  650.20   15.91
   0  -2   5  645.10   13.46
   0   2  -6   20.64    3.12
   0  -2   6   15.86    3.03
   0  -2   6   13.52    2.44
   0  -2   6   20.13    2.93
   0   2  -6   18.89    3.11
   0  -2   6   16.38    2.23
   0   2  -6   16.90    2.37
   0  -2   6   15.82    1.94
   0   2  -7  261.64    9.87
   0  -2   7  234.68    9.53
   0   2  -7  234.72    9.29
   0  -2   7  240.66   10.32
   0  -2   7  233.62    9.37
   0  -2   8   18.16    3.58
   0  -2   8   16.26    3.49
   0   2  -8   12.19    3.80
   0   2  -8   18.18    3.94
   0  -2   8   17.05    3.79
   0   2  -8   14.93    3.64
   0  -2   9   -1.97    2.87
   0   2  -9    3.23    3.23
   0  -2   9    8.34    3.26
   0  -2   9   -2.08    3.52
   0   2  -9    4.55    3.64
   0   2  -9    2.20    3.37
   0  -2  10   55.82    6.90
   0   2 -10   58.28    6.29
   0   2 -10   61.58    6.79
   0  -2  10   51.96    5.93
   0   2 -10   49.57    6.07
   0  -2  10   54.73    5.96
   0  -2  11    5.17    3.66
   0   2 -11    2.20    4.47
   0   2 -11   10.39    4.52
   0  -2  11    2.36    4.00
   0  -2  11    9.30    4.28
   0   2 -11    0.16    4.03
   0   2 -12    5.54    4.73
   0  -2  12    9.93    5.37
   0   2 -12    1.79    4.91
   0  -2  12    6.12    5.30
   0  -2  12   -4.40    4.85
   0  -3   5   64.94    4.67
   0  -3   5   65.57    5.08
   0  -3   5   66.16    5.02
   0  -3   6    5.88    2.66
   0   3  -6    5.90    2.02
   0  -3   6    3.44    2.17
   0  -3   6    7.21    2.76
   0  -3   7    6.11    3.03
   0  -3   7    4.81    2.53
   0  -3   7    7.51    2.84
   0   3  -7    5.19    3.00
   0   3  -8  108.23    7.57
   0  -3   8   96.73    8.06
   0  -3   8  108.74    7.57
   0  -3   8  111.05    7.51
   0   3  -9    9.55    4.03
   0  -3   9    4.41    3.31
   0   3  -9   14.43    4.58
   0  -3   9    3.39    3.37
   0  -3   9    5.94    3.46
   0   3 -10   -7.10    4.40
   0   3 -10   -5.56    4.55
   0  -3  10    2.74    3.16
   0   3 -10    0.90    4.65
   0  -3  10    3.02    3.51
   0  -3  10   -1.27    4.22
   0   3 -11   -3.40    4.38
   0  -3  11    3.07    3.77
   0   3 -11    1.97    4.25
   0  -3  11   -1.52    4.43
   0   3 -11   -1.04    4.26
   0  -3  11    2.03    3.94
   0  -3  12    0.21    4.46
   0  -3  12   -7.74    6.53
   0  -3  12   -4.30    4.77
   0  -4   8   -4.68    4.32
   0  -4   9  152.66   11.03
   0   4 -10    2.96    4.00
   0  -4  10   -2.46    4.65
   0   4 -11   -5.12    5.16
   0   4 -11    8.48    4.72
   0  -4  11    6.43    5.14
   0  -4  12   -0.16    5.80
   1   0   3 1299.05   20.69
  -1   0   3 1285.53   20.42
  -1   0   3 1187.76   20.15
  -1   0  -3 1260.09   20.45
   1   0  -3 1275.73   19.54
   1   0  -3 1299.25   19.19
  -1   0  -3 1255.77   20.97
   1   0   3 1324.38   21.40
   1   0   3 1274.43   21.15
  -1   0   3 1278.16   20.64
   1   0   3 1277.09   20.42
  -1   0  -3 1180.44   21.43
  -1   0   4  298.32    6.76
  -1   0  -4  314.50    9.13
  -1   0   4  291.88    7.04
  -1   0  -4  297.38    8.15
   1   0  -4  287.00    7.34
   1   0  -4  290.79    6.94
  -1   0  -4  301.17    8.47
   1   0   4  282.79    7.95
   1   0   4  244.85    7.86
   1   0   4  287.12    8.46
  -1   0   4  304.15    7.87
  -1   0   4  298.16    8.21
   1   0   4  307.88    8.40
  -1   0   4  298.35    8.03
  -1   0  -5    4.16    1.88
  -1   0   5    1.56    0.88
   1   0   5    3.34    1.65
  -1   0   5   -0.87    1.44
   1   0   5    1.82    1.41
  -1   0  -5    3.95    2.03
   1   0  -5    0.95    1.07
   1   0   5    4.17    1.37
  -1   0  -5    1.12    1.03
   1   0  -5    2.89    1.95
  -1   0   5    2.31    1.42
   1   0   5    2.26    1.29
  -1   0   5    1.60    1.13
   1   0  -5    1.77    1.39
  -1   0  -5    0.97    1.53
  -1   0   5    4.07    1.36
  -1   0  -6    3.80    2.05
  -1   0   6    4.25    1.47
   1   0  -6    0.05    2.22
  -1   0  -6    6.09    2.52
   1   0   6    2.88    1.67
   1   0  -6    2.23    2.05
  -1   0   6    1.15    1.59
  -1   0   6    4.40    2.02
   1   0   6    3.06    1.66
  -1   0   6    2.21    1.27
   1   0   6    2.11    1.72
   1   0   6   -0.18    1.93
  -1   0  -7    2.05    2.78
   1   0   7    7.85    2.30
  -1   0  -7   10.15    3.06
   1   0   7    8.89    2.86
   1   0   7   10.22    2.99
   1   0   7   10.96    2.52
  -1   0   7    9.68    2.66
   1   0  -7   14.32    3.09
  -1   0   7    8.63    2.03
   1   0  -7   10.94    2.92
  -1   0   7    8.05    2.23
   1   0  -7    4.60    2.59
  -1   0   7    7.03    2.19
  -1   0   8  115.55    7.11
   1   0   8  129.52    8.06
  -1   0   8  119.22    6.38
  -1   0   8  116.89    7.51
  -1   0  -8  123.82    8.12
   1   0   8  118.25    7.87
   1   0  -8  127.41    7.11
  -1   0  -8  115.07    7.52
   1   0   8  111.47    6.97
   1   0  -8  139.77    7.83
  -1   0   8  117.30    6.50
   1   0  -8  105.20    7.21
   1   0   9    9.82    3.82
   1   0  -9   12.99    3.93
  -1   0   9   14.73    4.11
  -1   0   9   15.42    3.50
  -1   0  -9   16.14    4.74
   1   0  -9   15.12    4.17
   1   0  -9   14.52    4.01
  -1   0   9   10.97    3.13
  -1   0   9   13.12    3.08
   1   0   9    4.33    3.42
   1   0  -9    9.17    3.38
   1   0   9   11.09    3.15
  -1   0  10  265.61   12.89
   1   0  10  240.50   12.70
   1   0 -10  247.05   12.04
   1   0  10  253.51   13.98
  -1   0  10  246.80   13.13
   1   0 -10  248.51   12.35
   1   0  11   18.94    6.26
  -1   0  11   13.77    4.80
   1   0 -11    8.33    4.35
   1   0  11   14.65    4.55
   1   0 -11    7.87    5.12
  -1   0  11   19.17    4.76
  -1   0  12   16.03    4.97
  -1   0  12   12.35    5.63
   1  -1  12   -2.41    4.26
   1  -1  12    6.06    4.70
   1  -1  11   10.71    5.31
  -1   1  11    7.96    4.64
   1  -1  11   15.97    4.51
   1  -1  11   10.65    4.21
   1   1 -11    7.66    4.18
   1   1 -11   11.39    4.96
   1  -1  10   28.96    5.22
   1   1 -10   30.57    5.68
  -1   1  10   22.37    4.59
   1   1 -10   25.39    4.72
   1  -1  10   34.64    5.95
   1  -1  10   23.31    4.35
  -1   1  10   26.37    5.09
   1   1 -10   19.70    4.74
   1  -1   9   88.77    6.66
   1  -1   9   86.53    6.84
   1   1  -9   89.52    6.98
  -1   1   9   86.29    7.31
  -1   1   9   76.18    6.61
   1  -1   9   82.58    7.35
   1   1  -9   85.53    6.74
   1   1  -9   91.27    7.33
  -1   1   9   82.04    6.27
   1   1  -9   85.09    6.64
   1  -1   8  161.30    8.93
  -1   1   8  177.72    8.41
  -1   1   8  170.87    8.07
   1   1  -8  169.63    8.18
   1   1  -8  180.71    8.86
   1   1  -8  161.95    8.61
   1  -1   8  162.36    8.47
   1   1  -8  168.24    8.28
  -1   1   8  182.97    9.51
  -1   1   8  184.61    9.55
   1  -1   8  172.59    8.47
   1   1  -7  137.08    7.21
  -1   1   7  125.41    6.33
   1  -1   7  126.93    5.84
   1  -1   7  128.44    6.49
   1   1  -7  129.52    6.67
   1  -1   7  122.95    6.88
   1   1  -7  121.63    6.40
  -1   1   7  119.38    7.12
  -1   1   7  127.63    7.19
  -1   1   7  130.81    6.64
   1  -1   7  123.20    6.68
   1   1  -6   14.52    2.68
  -1   1   6   18.25    2.84
  -1   1   6   16.07    2.25
   1   1  -6   15.53    2.94
   1   1  -6   16.22    2.63
   1  -1   6   14.92    2.58
  -1   1   6   14.18    2.26
   1  -1   6   16.57    2.36
  -1   1   6   14.93    2.56
   1  -1   6   17.87    2.38
   1  -1   6   15.40    2.60
   1  -1   5  316.89    9.23
   1   1  -5  310.77    9.30
  -1   1   5  309.68    9.59
   1  -1   5  302.48    8.34
  -1   1   5  306.56    9.60
   1  -1   5  290.68    8.42
  -1   1   5  315.86    9.02
  -1   1   5  321.34    8.49
   1  -1   5  305.56    9.19
   1  -1   5  309.40    7.24
   1   1  -5  312.80    6.88
   1   1  -5  326.87    9.36
  -1   1   4  110.48    4.35
  -1   1   4  107.78    4.09
   1  -1   4  107.25    4.23
  -1   1   4  108.23    4.61
  -1   1   4  110.53    4.88
  -1   1   4  110.72    4.90
   1  -1   4  117.32    4.47
   1   1  -4  107.39    4.89
   1  -1   4  100.15    4.57
   1  -1   4  107.12    4.70
   1   1  -4  114.74    4.95
   1  -1   4  110.20    4.30
   1  -1   3  627.19   12.09
  -1   1   3  601.61   11.99
   1  -1   3  630.03   11.82
   1  -1   3  638.56   11.56
   1   1  -3  607.92   12.65
   1  -1   3  607.23   11.07
   1   1  -3  591.85   12.26
  -1   1   3  605.99   12.21
  -1   1   3  613.06   11.64
   1  -1   3  628.07   11.77
  -1   1   3  628.44   12.25
   1  -1   2 1328.65   20.66
  -1   1   2 1394.96   21.04
   1  -1   2 1424.39   20.95
   1  -1   2 1391.37   20.87
   1   1  -2 1359.19   22.68
  -1   1   2 1365.55   20.84
   1  -1   1  629.67   10.87
  -1   1  -1  646.47   10.68
  -1   1  -1  654.34   10.79
  -1  -1   2 1354.04   22.81
  -1   1  -2 1382.18   20.82
  -1   1  -2 1365.34   20.06
   1  -1  -2 1380.74   21.01
  -1  -1   3  594.01   12.65
  -1   1  -3  608.92   11.76
  -1  -1   3  595.04   12.31
  -1  -1   3  627.50   11.95
  -1  -1   3  625.38   12.97
  -1   1  -3  611.34   10.85
  -1  -1   4  109.63    4.44
  -1   1  -4  107.31    4.69
  -1   1  -4  115.20    4.06
  -1   1  -4  110.79    3.57
   1  -1  -4  103.50    4.89
  -1  -1   4  111.10    5.13
  -1  -1   4  116.92    4.98
  -1  -1   4  107.10    3.98
  -1   1  -4  126.89    4.81
   1  -1  -4  108.79    4.15
  -1  -1   4  111.72    4.85
  -1   1  -4  108.94    4.62
   1  -1  -5  300.15    9.49
  -1   1  -5  293.68    8.85
  -1  -1   5  322.16    9.12
   1  -1  -5  293.86    7.87
  -1  -1   5  315.62    8.74
  -1   1  -5  293.80    8.95
  -1  -1   5  300.80    9.62
  -1  -1   5  311.70    9.31
  -1   1  -5  292.92    6.65
  -1   1  -5  317.82    7.47
  -1   1  -5  267.15    7.56
  -1  -1   5  304.56    7.26
  -1   1  -5  304.73    8.89
  -1  -1   6   16.02    2.31
  -1   1  -6   15.43    2.81
  -1   1  -6   14.67    2.55
   1  -1  -6   19.08    3.24
  -1  -1   6   17.26    2.76
  -1   1  -6   15.79    2.58
  -1  -1   6   16.29    2.60
  -1  -1   6   18.10    2.45
   1  -1  -6   18.14    2.15
   1  -1  -7  134.46    7.55
  -1   1  -7  148.35    7.41
  -1   1  -7  136.02    6.92
  -1   1  -7  137.77    7.30
  -1  -1   7  128.07    7.30
  -1  -1   7  142.14    7.14
  -1  -1   7  129.43    6.36
  -1   1  -8  175.37    8.60
  -1  -1   8  180.42    8.94
  -1  -1   8  172.28    7.99
  -1   1  -8  173.63    8.89
  -1  -1   8  172.70    7.91
  -1  -1   8  175.94    9.29
   1  -1  -8  179.98    9.59
   1  -1  -9   96.44    8.05
  -1  -1   9   78.57    6.68
  -1  -1   9   90.70    6.29
  -1   1  -9   82.29    7.25
  -1  -1   9   87.42    5.92
  -1   1  -9   90.42    6.96
  -1  -1   9   87.62    7.26
  -1   1  -9   79.56    6.51
  -1  -1  10   18.86    4.21
  -1  -1  10   25.53    4.63
  -1   1 -10   14.52    4.84
  -1   1 -10   21.46    5.12
  -1  -1  10   23.77    4.45
  -1   1 -10   11.45    4.03
   1  -1 -10   26.28    5.25
  -1   1 -11   20.72    5.79
  -1   1 -11   12.16    4.73
  -1  -1  11    9.25    4.59
  -1  -1  11   11.17    4.57
  -1   1 -11    5.49    4.40
  -1   1 -12    4.62    5.53
  -1  -1  12   -4.27    5.84
  -1   1 -12    5.76    5.28
  -1  -1  12    1.40    4.23
   1  -2  12   -4.52    4.54
   1  -2  12    2.62    5.17
   1  -2  12   -3.89    5.50
   1  -2  11   10.79    4.40
   1  -2  11    4.80    4.67
   1   2 -11    9.70    4.04
   1   2 -11    4.88    4.37
   1  -2  11    5.49    3.72
   1   2 -10   14.93    4.76
   1  -2  10   13.37    4.52
   1  -2  10   18.32    4.01
   1   2 -10   14.41    4.12
   1  -2  10   17.54    4.44
   1   2 -10   10.93    3.96
   1   2  -9   13.75    4.28
   1  -2   9   18.53    3.78
   1  -2   9   14.84    4.25
   1   2  -9   14.83    3.79
   1   2  -9   17.56    4.40
   1  -2   9   19.14    3.73
   1  -2   8   27.12    4.08
   1  -2   8   32.18    4.76
   1  -2   8   32.70    3.79
   1   2  -8   34.41    4.58
   1   2  -8   39.31    4.60
   1   2  -8   34.27    4.48
   1   2  -7   38.76    4.57
   1  -2   7   40.69    4.55
   1  -2   7   45.31    4.10
   1   2  -7   42.59    4.62
   1  -2   7   48.37    3.84
   1  -2   7   42.58    4.32
   1  -2   6  292.43   10.41
   1  -2   6  304.32    9.00
   1   2  -6  285.67   10.17
   1   2  -6  282.96   10.36
   1  -2   6  283.04    9.86
  -1   2   6  276.95   10.33
   1  -2   6  288.66    9.21
   1  -2   5 1382.19   25.54
   1   2  -5 1355.19   21.73
   1   2  -5 1331.56   25.16
   1  -2   5 1361.64   22.42
   1  -2   5 1338.11   23.46
   1  -2   5 1325.75   24.87
   1  -2   5 1377.96   20.75
   1  -2   5 1347.77   21.60
   1  -2   5 1355.16   23.50
   1  -2   4  186.85    5.73
   1  -2   4  175.21    5.83
   1  -2   4  180.18    7.00
   1  -2   4  196.58    6.34
   1  -2   4  168.86    6.43
   1  -2   4  185.89    5.43
   1  -2   3 1554.08   25.02
   1  -2   3 1553.58   24.14
   1  -2   3 1550.52   25.66
   1  -2   3 1606.26   24.55
   1  -2   3 1586.96   24.21
   1  -2   3 1586.08   26.08
   1  -2   2   42.34    2.53
   1  -2   2   38.16    2.47
   1  -2   2   37.75    2.47
   1  -2   2   43.42    2.43
   1  -2   1  681.60   12.55
  -1   2  -2   40.50    2.31
  -1   2  -2   42.03    2.51
  -1   2  -3 1611.34   25.28
  -1   2  -3 1560.85   24.58
  -1   2  -3 1574.47   24.98
  -1   2  -3 1581.09   23.75
  -1   2  -4  186.81    5.34
  -1   2  -4  184.66    6.33
  -1   2  -4  193.52    5.79
  -1  -2   4  197.34    7.78
  -1  -2   4  198.93    7.71
  -1   2  -4  184.58    6.47
  -1  -2   4  191.71    8.07
  -1  -2   5 1351.37   25.31
  -1   2  -5 1337.02   24.17
  -1  -2   5 1347.90   26.80
  -1  -2   5 1367.54   25.81
  -1   2  -5 1347.59   23.58
  -1  -2   5 1375.36   23.41
  -1  -2   5 1306.40   25.10
  -1   2  -6  278.49    9.63
  -1   2  -6  287.61    9.04
  -1  -2   6  288.16   10.35
  -1  -2   6  286.15   10.01
  -1   2  -6  299.67    9.78
  -1  -2   6  283.66    9.71
  -1  -2   6  262.30   10.60
  -1  -2   7   50.63    4.55
  -1   2  -7   44.46    4.37
  -1   2  -7   45.07    4.39
  -1  -2   7   42.11    4.44
  -1   2  -7   39.19    4.19
  -1  -2   7   43.49    4.23
  -1   2  -7   49.21    4.07
  -1  -2   7   50.30    5.19
  -1   2  -8   31.40    4.55
  -1  -2   8   26.49    3.78
  -1   2  -8   33.90    4.39
  -1   2  -8   34.82    4.42
  -1  -2   8   35.69    5.18
  -1  -2   8   26.68    3.76
  -1  -2   8   31.26    4.38
  -1   2  -9   15.32    3.81
  -1   2  -9   18.98    4.46
  -1  -2   9   15.53    3.46
  -1  -2   9    9.88    3.61
  -1   2  -9   13.07    3.71
  -1  -2   9   21.95    4.28
  -1   2 -10   12.33    3.65
  -1   2 -10   18.47    4.59
  -1  -2  10   14.56    3.89
  -1   2 -10   20.24    4.76
  -1  -2  10   15.61    4.23
  -1  -2  10   11.61    3.95
  -1   2 -11    1.64    4.34
  -1  -2  11    9.22    4.71
  -1  -2  11    5.23    4.41
  -1   2 -11    6.06    4.20
  -1   2 -11    8.70    4.37
  -1  -2  12   -0.42    5.18
  -1   2 -12   -0.23    4.56
  -1  -2  12   -9.45    5.48
   1  -3  12   -4.12    4.12
   1  -3  12    5.76    6.54
   1  -3  12   -2.22    4.40
   1  -3  11    8.56    3.80
   1   3 -11    9.58    5.01
   1  -3  11   -3.62    5.40
   1  -3  11   15.19    5.18
   1   3 -11    1.41    4.98
   1  -3  10   10.81    4.05
   1   3 -10   16.66    4.74
   1  -3  10   11.66    4.08
   1   3 -10   24.59    5.63
   1  -3  10   12.47    4.76
   1  -3   9   14.28    3.85
   1   3  -9   19.36    5.12
   1  -3   9   28.38    4.25
   1  -3   9   19.66    4.82
   1  -3   8   16.96    4.21
   1  -3   8   17.71    3.62
   1  -3   8   22.78    3.72
   1  -3   7   31.52    4.98
   1  -3   7   35.75    3.75
   1  -3   7   33.92    4.39
   1  -3   7   33.09    3.90
   1  -3   6   51.05    5.00
   1  -3   6   50.25    4.68
   1  -3   6   52.15    4.26
   1  -3   6   50.71    3.99
   1  -3   5   23.71    3.16
   1  -3   5   25.57    2.72
   1  -3   5   26.75    3.77
   1  -3   5   23.84    2.85
   1  -3   4  129.33    5.72
   1  -3   4  132.22    5.43
   1  -3   4  135.01    6.44
   1  -3   4  129.73    5.76
   1  -3   3  137.46    6.37
  -1   3  -4  128.59    5.47
  -1   3  -4  126.51    4.83
  -1   3  -5   28.84    3.23
  -1   3  -6   50.49    4.59
  -1   3  -6   56.34    4.47
  -1  -3   6   54.49    5.64
  -1  -3   6   52.30    5.37
  -1  -3   7   29.62    4.84
  -1  -3   7   34.47    5.08
  -1   3  -7   28.73    4.11
  -1   3  -7   31.84    3.95
  -1  -3   7   31.01    4.32
  -1  -3   8   20.05    4.35
  -1   3  -8   21.93    4.01
  -1   3  -8   21.80    4.07
  -1  -3   8   22.80    4.82
  -1  -3   8   19.52    3.91
  -1  -3   9   13.27    4.32
  -1   3  -9   24.86    4.82
  -1   3  -9   21.16    4.75
  -1   3  -9   33.74    5.07
  -1  -3   9   19.79    4.64
  -1  -3   9   26.22    4.80
  -1  -3  10   15.78    5.70
  -1  -3  10    8.92    3.99
  -1  -3  10   12.65    4.77
  -1   3 -10   17.13    5.13
  -1   3 -10   23.45    4.91
  -1   3 -10    5.51    3.74
  -1   3 -11    7.83    4.84
  -1   3 -11   11.38    4.95
  -1  -3  11    2.53    4.66
  -1  -3  11   -0.36    4.85
  -1  -3  11    5.55    4.05
  -1   3 -11    6.14    4.11
  -1  -3  12  -11.98    6.32
  -1   3 -12   -2.53    5.30
   1  -4  11   40.76    6.31
   1  -4  11   41.12    7.01
   1  -4  10    7.88    3.91
   1  -4  10    9.39    4.86
   1  -4   9   39.06    5.15
   1  -4   9   47.74    6.19
   1  -4   8    5.66    3.28
   1  -4   8    6.13    3.76
   1  -4   7    1.60    2.53
   1  -4   7   10.27    3.54
   1  -4   6   28.26    4.03
   1  -4   6   30.61    4.39
  -1   4  -6   23.42    3.00
  -1   4  -7    4.38    2.73
  -1   4  -8    1.83    2.86
  -1   4  -9   36.05    5.33
  -1   4 -10    6.63    3.96
  -1   4 -10    4.03    4.20
  -1   4 -11   51.14    7.06
  -1   4 -11   33.87    5.75
   2   0   1 9805.46  125.56
   2   0  -1 9610.79  123.90
  -2   0   1 9999.00  124.34
  -2   0   2 5967.22   78.17
   2   0  -2 5960.37   78.03
  -2   0  -2 5904.34   81.47
  -2   0  -2 6049.74   82.04
   2   0  -2 5942.39   79.44
  -2   0   2 5954.28   78.68
   2   0  -2 5960.56   80.17
  -2   0   2 5907.67   79.50
   2   0  -2 5911.27   79.58
  -2   0   2 5854.87   79.94
   2   0   2 5899.69   81.60
   2   0  -2 5842.54   78.52
  -2   0   2 5947.18   80.13
   2   0  -3  644.01   13.60
   2   0   3  645.39   14.93
  -2   0  -3  612.35   14.67
  -2   0   3  664.83   13.76
   2   0  -3  653.64   13.37
   2   0  -3  634.72   12.42
   2   0  -3  654.05   12.62
  -2   0   3  636.33   13.00
   2   0   3  607.04   13.90
   2   0   3  644.37   14.61
   2   0  -3  637.64   11.32
  -2   0  -3  621.73   13.73
  -2   0   3  674.85   13.44
  -2   0   3  624.13   12.66
  -2   0   3  643.60   12.77
   2   0   4  313.01   10.23
  -2   0   4  327.15    9.12
  -2   0  -4  325.94    9.92
  -2   0   4  296.49    8.09
   2   0   4  303.33    9.14
  -2   0  -4  326.47   10.52
   2   0  -4  311.38    9.38
  -2   0  -4  331.74    9.72
   2   0  -4  318.80    8.85
  -2   0   4  308.31    8.72
   2   0   4  313.89    9.93
  -2   0   4  316.66    7.46
   2   0  -4  310.25    8.64
   2   0  -4  324.12    7.37
  -2   0   4  322.89    9.38
   2   0   4  311.93    9.77
  -2   0   4  313.24    8.61
   2   0   5  202.25    8.38
   2   0  -5  193.78    6.21
   2   0  -5  203.67    7.75
  -2   0  -5  178.77    8.24
  -2   0   5  196.49    6.10
  -2   0  -5  189.77    7.88
  -2   0   5  189.58    7.22
   2   0  -5  187.78    7.15
   2   0   5  190.30    7.60
  -2   0  -5  190.08    7.21
   2   0   5  172.74    7.97
   2   0   5  194.28    7.84
   2   0  -5  188.57    6.80
  -2   0   5  193.11    7.47
  -2   0   5  187.57    6.58
  -2   0   5  188.56    7.41
  -2   0   6  348.48   11.25
   2   0  -6  346.21   10.02
   2   0   6  374.42   12.56
   2   0  -6  359.07   11.07
   2   0  -6  385.85   11.50
  -2   0   6  366.24   11.30
   2   0   6  366.32   12.63
  -2   0   6  356.73    9.59
  -2   0   6  361.56   11.13
   2   0  -6  360.78   10.34
  -2   0   6  373.69    9.95
  -2   0  -6  360.31   12.07
   2   0   6  321.18   11.54
   2   0  -6  380.69   11.85
  -2   0   7   38.29    4.19
   2   0  -7   46.10    4.41
   2   0   7   41.61    4.62
   2   0  -7   49.84    4.78
   2   0  -7   42.28    4.67
   2   0   7   37.77    4.66
  -2   0   7   43.25    4.40
  -2   0   7   43.12    4.14
   2   0   7   37.40    4.50
  -2   0  -7   40.91    4.81
  -2   0   8  410.32   14.42
   2   0  -8  410.45   14.22
   2   0  -8  416.78   14.03
   2   0   8  430.44   16.05
   2   0  -8  427.64   13.82
  -2   0   8  408.13   13.44
   2   0   8  434.37   14.94
  -2   0   8  425.56   14.36
   2   0   8  421.81   15.72
  -2   0   9    5.00    3.22
   2   0  -9   -4.32    3.76
  -2   0   9   -1.38    3.15
   2   0  -9   -5.82    4.26
  -2   0   9   -0.17    2.24
   2   0  -9    3.06    3.06
   2   0   9    2.39    3.97
   2   0   9    3.04    3.62
   2   0  10   29.88    6.23
   2   0 -10   24.33    4.68
   2   0 -10   25.57    5.13
  -2   0  10   31.77    5.37
   2   0 -10   28.59    5.37
   2   0  10   34.11    6.47
  -2   0  10   27.42    4.26
  -2   0  10   28.46    5.44
   2   0 -11   38.36    6.54
  -2   0  11   38.90    6.43
   2   0 -11   40.26    6.06
  -2   0  11   43.79    6.57
   2   0 -11   33.38    5.55
  -2   0  11   45.02    5.95
  -2   0  12   -3.06    5.23
  -2   0  12    3.33    5.07
   2  -1  12   22.98    7.10
  -2   1  12   20.11    6.06
   2  -1  12   21.27    6.62
  -2   1  11    7.67    3.98
   2  -1  11    0.35    4.42
   2   1 -11    5.77    3.83
  -2   1  11    4.68    3.74
  -2   1  11   -0.29    4.56
   2   1 -11   10.34    4.88
   2  -1  11    3.30    4.65
   2   1 -10   22.57    5.30
  -2   1  10   23.04    5.04
   2  -1  10   12.91    4.73
   2   1 -10   13.57    4.21
   2  -1  10   11.92    4.72
   2   1 -10   14.52    3.90
  -2   1  10   12.88    4.14
  -2   1  10   12.98    4.47
  -2   1   9   26.38    4.07
   2  -1   9   35.91    5.24
   2   1  -9   35.73    5.09
   2   1  -9   34.99    5.01
   2  -1   9   26.03    3.93
  -2   1   9   36.52    5.26
   2  -1   9   30.85    5.09
   2   1  -9   25.80    5.07
  -2   1   9   34.59    5.37
  -2   1   8   10.69    3.08
   2   1  -8    6.71    3.46
   2  -1   8    0.72    4.97
   2  -1   8   -1.21    4.06
  -2   1   8    8.33    3.09
   2   1  -8    8.46    3.57
   2  -1   8   -0.81    2.66
   2   1  -8   10.07    3.06
  -2   1   8    4.74    2.39
   2  -1   7    6.99    2.33
   2   1  -7    3.32    2.60
  -2   1   7    5.65    2.14
   2  -1   7    5.90    2.85
   2   1  -7    6.07    2.59
  -2   1   7    9.14    2.64
  -2   1   7    7.05    2.43
   2   1  -7   11.20    2.81
   2  -1   7   10.14    3.34
   2  -1   7    7.41    2.50
   2  -1   6  175.36    7.71
  -2   1   6  182.84    6.95
  -2   1   6  167.61    7.38
   2  -1   6  157.84    7.71
   2  -1   6  177.37    7.31
   2   1  -6  166.19    7.43
  -2   1   6  185.21    7.98
   2  -1   6  167.52    7.43
   2   1  -6  174.47    7.99
  -2   1   6  184.01    7.62
  -2   1   5  566.60   13.55
   2   1  -5  579.78   14.41
   2  -1   5  566.83   13.97
  -2   1   5  565.43   12.87
  -2   1   5  559.69   13.92
   2   1  -5  573.01   13.78
   2   1  -5  582.39   14.53
   2  -1   5  575.51   13.68
   2  -1   5  573.11   13.09
   2  -1   5  577.78   14.44
  -2   1   5  582.29   11.15
  -2   1   5  577.11   13.92
   2  -1   5  555.35   12.30
   2  -1   4    9.37    2.03
   2  -1   4    8.70    1.54
  -2   1   4    8.27    1.70
  -2   1   4    7.11    1.53
   2   1  -4    2.06    1.58
   2  -1   4    7.27    1.60
  -2   1   4    9.08    1.30
   2   1  -4    7.07    2.19
  -2   1   4    8.74    1.51
   2  -1   4    8.71    1.50
  -2   1   4   10.30    1.80
   2  -1   4    8.51    1.92
   2  -1   4    8.71    2.01
  -2   1   4    9.10    1.39
   2   1  -3  265.94    8.61
   2  -1   3  259.40    7.65
   2  -1   3  285.49    6.86
   2  -1   3  260.61    7.37
  -2   1   3  291.21    7.02
   2  -1   3  272.57    8.09
  -2   1   3  252.82    6.97
   2  -1   3  295.93    8.65
  -2   1   3  277.10    7.82
  -2   1   3  271.48    7.21
   2  -1   3  261.30    6.46
  -2   1   3  264.00    6.54
  -2   1   3  276.68    7.62
   2  -1   2 1902.41   29.57
   2  -1   2 1886.50   28.49
  -2   1   2 1920.60   28.02
   2  -1   2 1927.37   29.18
  -2   1   2 1913.57   27.39
   2  -1   2 1858.35   28.00
  -2   1   2 1976.11   28.47
  -2   1   2 1878.69   28.76
   2  -1   2 1796.07   30.09
  -2   1   2 1932.79   29.25
   2  -1   1  335.36    7.77
  -2   1   1  334.98    7.91
   2  -1   1  324.50    7.43
  -2   1   1  329.15    6.47
  -2   1   1  318.19    7.59
   2  -1   1  345.99    8.10
  -2   1   1  322.91    7.26
  -2   1   1  311.07    7.73
   2  -1   1  326.01    8.47
   2  -1   0  190.94    5.11
   2  -1   0  189.44    4.62
  -2   1   0  206.26    6.06
  -2   1   0  193.83    5.10
   2  -1   0  187.70    5.51
  -2   1   0  196.54    5.60
   2  -1   0  202.78    5.68
  -2   1   0  200.67    5.59
   2  -1   0  188.52    6.07
  -2   1  -1  323.98    8.14
  -2   1  -1  319.71    7.58
   2  -1  -1  318.90    8.03
  -2   1  -1  327.02    7.22
  -2   1  -1  327.91    7.89
   2  -1  -1  322.96    7.39
   2  -1  -1  318.84    7.77
  -2   1  -1  307.96    6.51
   2  -1  -2 1883.16   28.83
  -2   1  -2 1896.80   29.32
  -2   1  -2 1902.56   29.38
   2  -1  -2 1969.68   27.96
  -2   1  -2 1920.72   28.32
   2  -1  -2 1918.50   29.37
   2  -1  -2 1915.58   27.71
  -2   1  -2 1885.30   29.59
   2  -1  -3  268.88    7.02
   2  -1  -3  292.36    6.72
  -2  -1   3  258.48    8.69
  -2   1  -3  262.79    7.42
  -2   1  -3  276.27    8.05
  -2  -1   3  263.79    8.79
   2  -1  -3  277.59    7.31
  -2   1  -3  264.74    7.54
  -2  -1   3  254.48    7.97
   2  -1  -3  264.26    7.54
  -2  -1   3  274.97    9.09
  -2   1  -3  266.13    7.69
  -2   1  -3  250.66    6.42
  -2  -1   4   11.09    2.16
   2  -1  -4    7.98    1.40
  -2  -1   4    9.58    2.00
  -2  -1   4    6.12    1.79
  -2   1  -4    7.40    1.46
   2  -1  -4    3.92    1.61
  -2   1  -4    4.29    1.82
  -2   1  -4    5.89    1.79
  -2   1  -4    8.02    1.68
   2  -1  -4    8.11    1.24
  -2  -1   4    7.27    1.91
   2  -1  -4    5.01    1.65
  -2   1  -4    9.05    2.21
  -2  -1   5  583.48   14.77
  -2   1  -5  572.65   13.13
  -2  -1   5  593.59   13.76
   2  -1  -5  565.37   14.03
  -2   1  -5  575.36   14.47
  -2   1  -5  556.43   13.97
  -2  -1   5  582.20   14.36
  -2   1  -5  574.97   12.60
  -2  -1   5  593.27   15.07
   2  -1  -5  566.70   13.07
  -2   1  -5  527.67   13.59
  -2  -1   5  560.21   13.21
  -2  -1   6  174.21    7.93
  -2   1  -6  176.40    7.96
  -2   1  -6  174.24    7.34
  -2   1  -6  197.76    8.53
   2  -1  -6  172.06    7.89
  -2  -1   6  167.99    8.13
  -2  -1   6  186.41    7.43
  -2  -1   6  189.82    8.23
   2  -1  -6  181.04    6.96
  -2  -1   7    7.49    2.86
   2  -1  -7    3.44    2.89
  -2   1  -7    9.53    2.83
  -2   1  -7    7.72    3.34
  -2  -1   7   10.00    2.41
  -2  -1   7    9.93    2.85
  -2  -1   7    5.09    2.54
  -2   1  -7    7.48    3.19
  -2  -1   8    7.55    3.15
   2  -1  -8    5.85    3.44
   2  -1  -8    9.04    3.23
  -2   1  -8   19.27    5.81
  -2   1  -8    9.99    3.55
  -2  -1   8    4.89    2.92
  -2  -1   8    9.82    3.22
   2  -1  -9   32.09    5.55
  -2  -1   9   27.97    4.49
   2  -1  -9   29.48    4.76
  -2  -1   9   29.41    4.70
  -2  -1   9   28.73    4.27
  -2   1  -9   30.28    5.07
  -2  -1  10   12.14    4.05
  -2  -1  10    6.14    3.33
   2  -1 -10   27.22    5.49
  -2   1 -10   18.03    4.96
   2  -1 -10   10.94    4.86
  -2   1 -10   20.88    4.80
   2  -1 -10   14.35    4.64
  -2  -1  10   20.11    4.05
  -2  -1  11    1.79    3.73
  -2   1 -11    5.97    4.22
  -2   1 -11    7.71    4.94
  -2  -1  11   -2.52    4.39
   2  -1 -11    3.82    4.57
   2  -1 -11    4.01    3.76
  -2   1 -12   27.49    5.97
  -2  -1  12   29.13    6.67
  -2  -1  12   22.30    6.40
   2  -2  12    6.95    5.25
   2  -2  12    2.07    5.91
   2  -2  11   18.65    6.09
   2   2 -11   12.97    5.21
   2  -2  11   12.51    4.97
   2   2 -11   10.17    4.99
   2   2 -10    6.33    4.18
   2  -2  10    4.11    2.97
   2  -2  10   12.25    4.67
   2   2 -10    5.94    4.23
   2  -2  10   11.45    4.55
   2   2  -9   13.52    4.22
   2  -2   9   10.04    2.95
   2   2  -9   11.25    3.70
  -2   2   9    3.02    5.69
   2  -2   9   11.64    3.95
   2  -2   9    9.72    3.72
  -2   2   8   99.64    7.23
   2  -2   8   92.00    6.24
  -2   2   8   95.00    6.82
   2   2  -8   83.55    6.74
   2   2  -8   87.43    6.87
   2  -2   8   98.26    7.14
   2  -2   8   83.33    7.07
   2  -2   8   93.88    6.12
  -2   2   7  135.49    7.84
   2  -2   7  131.56    6.86
   2  -2   7  134.11    7.83
   2   2  -7  123.25    7.84
   2   2  -7  147.55    8.08
   2  -2   7  126.15    7.51
   2  -2   7  131.72    6.51
  -2   2   7  139.65    7.61
  -2   2   7  133.80    7.72
  -2   2   6   11.38    2.70
  -2   2   6   11.42    2.59
   2  -2   6   13.22    2.80
   2  -2   6    9.77    2.22
   2   2  -6   10.63    3.51
   2   2  -6   10.31    3.03
   2  -2   6   13.35    2.33
   2  -2   6   12.44    2.72
  -2   2   6   11.14    2.49
  -2   2   5  187.59    7.27
   2  -2   5  187.51    6.28
  -2   2   5  194.06    7.71
   2  -2   5  193.32    7.53
   2  -2   5  184.52    6.28
  -2   2   5  172.91    7.64
  -2   2   5  198.46    7.94
   2  -2   5  178.45    7.57
   2  -2   5  197.15    7.60
   2  -2   5  172.62    6.95
   2  -2   4  319.88    8.36
   2  -2   4  314.11    7.73
   2  -2   4  311.96    9.05
  -2   2   4  311.69    9.05
  -2   2   4  308.14    9.51
   2  -2   4  300.04    8.97
  -2   2   4  320.68    8.07
   2  -2   4  322.84    9.58
   2  -2   4  318.76    9.29
  -2   2   4  314.36    9.28
   2  -2   3   76.98    4.29
   2  -2   3   82.29    3.87
   2  -2   3   78.88    4.09
   2  -2   3   77.44    3.02
  -2   2   3   74.81    3.65
   2  -2   3   79.95    3.83
   2  -2   3   78.15    4.10
  -2   2   3   71.86    3.69
   2  -2   3   76.17    2.97
  -2   2   3   81.94    4.25
  -2   2   3   86.04    4.28
   2  -2   2   77.12    3.70
   2  -2   2   69.57    3.97
   2  -2   2   78.79    3.19
  -2   2   2   81.08    3.97
  -2   2   2   76.04    3.70
  -2   2   2   75.27    3.20
   2  -2   2   79.70    3.73
  -2   2   2   79.11    3.82
   2  -2   2   75.49    3.77
  -2   2   2   82.98    4.04
   2  -2   1  729.23   14.12
  -2   2   1  725.21   14.00
  -2   2   1  743.89   14.49
  -2   2   1  746.56   14.33
   2  -2   1  748.13   13.52
   2  -2   1  741.74   13.50
   2  -2   1  722.47   14.88
  -2   2   1  758.17   13.78
   2  -2   1  747.71   13.96
   2  -2   0   64.60    3.34
   2  -2   0   55.41    3.49
   2  -2   0   56.45    3.11
   2  -2   0   56.13    2.89
  -2   2   0   58.08    3.30
  -2   2   0   57.72    2.83
  -2   2   0   59.84    3.20
  -2   2   0   57.21    3.01
   2  -2  -1  771.52   14.27
  -2   2  -1  718.55   14.38
  -2   2  -1  716.10   13.68
  -2   2  -1  730.99   14.02
   2  -2  -1  735.58   14.52
   2  -2  -1  737.55   14.81
  -2   2  -1  738.37   13.32
  -2   2  -2   77.48    3.88
   2  -2  -2   85.50    3.87
  -2   2  -2   81.43    3.98
  -2   2  -2   74.55    3.67
   2  -2  -2   79.26    4.10
   2  -2  -2   82.86    4.13
  -2   2  -2   84.03    3.25
  -2   2  -3   74.85    4.12
  -2   2  -3   79.80    3.49
   2  -2  -3   73.45    4.12
   2  -2  -3   78.04    4.02
  -2   2  -3   76.38    3.94
  -2   2  -3   74.16    3.82
   2  -2  -4  333.42    8.83
  -2   2  -4  320.49    8.75
  -2   2  -4  302.98    8.40
   2  -2  -4  320.74    9.41
  -2   2  -4  305.15    9.20
  -2   2  -4  316.86    8.39
  -2  -2   5  186.44    8.54
  -2  -2   5  187.81    9.14
  -2   2  -5  208.21    7.20
  -2   2  -5  197.82    6.92
  -2   2  -5  190.77    7.57
  -2   2  -5  194.38    7.49
   2  -2  -5  192.57    7.43
  -2   2  -5  188.69    6.71
  -2   2  -5  179.78    6.49
  -2  -2   5  186.36    9.00
  -2  -2   5  190.04    8.40
  -2  -2   6   10.66    2.67
  -2   2  -6   10.56    2.75
  -2   2  -6   12.52    2.43
  -2  -2   6    8.68    2.84
  -2   2  -6    7.39    2.74
  -2   2  -6    7.91    2.21
  -2  -2   6   14.55    2.98
   2  -2  -6   14.53    2.74
  -2  -2   7  125.33    7.86
  -2  -2   7  115.72    7.99
  -2   2  -7  129.04    6.79
  -2   2  -7  136.23    7.03
  -2   2  -7  135.14    7.45
   2  -2  -7  121.10    6.65
  -2   2  -7  126.59    7.35
  -2  -2   7  122.53    7.61
  -2  -2   8   93.18    7.33
  -2   2  -8   85.05    6.16
  -2   2  -8   95.70    6.53
  -2   2  -8   95.08    6.84
  -2  -2   8   78.82    6.44
  -2  -2   8   78.21    7.02
  -2   2  -8  100.53    7.15
  -2  -2   9    9.50    4.08
  -2  -2   9   17.28    4.75
  -2   2  -9   11.11    3.82
  -2   2  -9   16.12    4.06
  -2   2  -9   14.25    4.25
  -2  -2   9    9.39    3.39
  -2   2 -10    6.97    3.86
  -2   2 -10    7.72    3.73
  -2  -2  10   10.73    4.60
  -2   2 -10    1.89    3.80
  -2  -2  10   10.86    4.32
  -2  -2  11    4.64    4.20
  -2  -2  11    9.40    5.05
  -2   2 -11   14.01    4.75
  -2   2 -11   19.61    5.63
   2   3 -11   -3.97    5.18
   2  -3  11    1.96    4.17
   2  -3  10    4.87    4.48
   2  -3  10    3.83    3.71
   2  -3   9   15.99    4.79
   2  -3   9   15.86    3.99
   2  -3   8   12.90    2.92
   2  -3   8   14.23    4.36
   2  -3   8   10.65    3.69
   2  -3   7   42.34    4.04
   2  -3   7   41.96    4.16
   2  -3   7   42.53    5.24
   2  -3   7   40.75    4.90
   2  -3   6   31.12    3.20
   2  -3   6   30.38    4.20
   2  -3   6   31.81    3.91
   2  -3   6   31.08    3.51
   2  -3   5    7.29    2.24
   2  -3   5    8.21    2.66
   2  -3   5    8.54    2.16
   2  -3   5    7.92    1.82
   2  -3   5    9.03    2.71
   2  -3   5    9.96    1.80
   2  -3   4  139.71    6.28
   2  -3   4  146.02    5.86
   2  -3   4  131.59    4.99
   2  -3   4  136.08    6.70
   2  -3   4  139.42    6.30
   2  -3   3  250.31    8.47
   2  -3   3  247.49    6.57
   2  -3   3  259.05    8.09
   2  -3   3  253.53    8.26
   2  -3   3  251.49    8.68
   2  -3   3  236.50    6.49
   2  -3   2  296.93    9.26
   2  -3   2  315.34    8.92
   2  -3   2  297.71    8.72
   2  -3   2  286.42    9.19
   2  -3   1  359.89    9.50
   2  -3   1  383.34    9.83
  -2   3  -1  375.77    9.89
  -2   3  -1  360.40   10.09
  -2   3  -2  312.69    8.85
  -2   3  -2  295.51    8.98
  -2   3  -2  290.76    8.56
  -2   3  -3  255.89    8.33
  -2   3  -3  253.17    8.27
  -2   3  -3  235.40    7.63
  -2   3  -4  131.98    5.61
  -2   3  -4  132.48    6.28
  -2   3  -4  134.19    5.86
  -2   3  -5    9.50    2.02
  -2   3  -5    7.27    2.45
  -2   3  -5   10.04    2.06
  -2   3  -6   36.68    3.84
  -2   3  -6   30.78    3.85
  -2   3  -7   45.88    4.77
  -2   3  -7   45.41    4.59
  -2   3  -7   44.07    4.51
  -2   3  -7   34.57    4.58
  -2  -3   8    6.56    4.14
  -2   3  -8    7.75    2.86
  -2   3  -8   12.63    3.73
  -2   3  -8   12.69    4.02
  -2   3  -8   14.22    3.82
  -2  -3   8    8.13    4.41
  -2   3  -9   20.23    4.41
  -2   3  -9   24.78    5.18
  -2  -3   9   18.59    5.32
  -2  -3   9   20.82    5.35
  -2   3 -10   -1.92    4.41
  -2   3 -10    6.38    4.22
  -2  -3  10   -7.23    5.18
  -2   3 -11    5.16    5.05
  -2  -3  11    7.49    6.29
   2  -4  11    1.83    4.78
   2  -4  10   20.74    5.46
   2  -4   9   34.24    5.54
   2  -4   8   19.44    3.63
   2  -4   8   17.06    4.04
   2  -4   7  155.53    8.10
   2  -4   7  154.73    9.37
   2  -4   6    3.96    2.32
   2  -4   6    2.72    2.65
   2  -4   5   64.22    4.89
   2  -4   5   58.11    4.80
   2  -4   5   51.24    5.15
   2  -4   4  144.75    7.08
   2  -4   4  131.06    5.75
   2  -4   4  143.77    6.97
  -2   4  -4  140.03    6.26
  -2   4  -4  127.37    6.37
  -2   4  -5   60.31    4.88
  -2   4  -5   56.56    4.13
  -2   4  -6    0.77    2.48
  -2   4  -7  158.21    8.70
  -2   4  -8   22.93    4.59
  -2   4  -8   10.03    3.66
  -2   4  -9   43.60    6.11
  -2   4  -9   29.27    4.78
  -2   4 -10   11.94    4.61
   2  -5  10    8.46    5.28
   2  -5   9    2.03    3.95
  -2   5  -9    6.01    3.31
  -2   5 -10    0.23    3.51
  -3   0   0    2.01    1.47
   3   0   0   -0.55    1.15
   3   0   0   -1.33    1.64
  -3   0   0   -0.89    1.44
  -3   0   0    1.23    1.54
   3   0   0   -0.72    1.27
  -3   0  -1 1203.01   23.11
   3   0  -1 1168.74   22.60
  -3   0   1 1188.85   22.67
  -3   0  -1 1155.90   23.15
   3   0  -1 1200.01   21.83
   3   0  -1 1213.26   22.47
  -3   0   1 1216.35   21.74
   3   0  -1 1124.69   19.85
   3   0   1 1161.29   23.22
  -3   0  -1 1246.47   24.52
   3   0  -1 1206.90   22.44
  -3   0   1 1143.11   22.74
  -3   0   1 1151.56   22.65
   3   0   1 1185.33   22.41
  -3   0   2  300.58    7.68
   3   0   2  292.64    9.84
  -3   0   2  296.35    9.56
  -3   0   2  300.02    9.36
  -3   0  -2  348.74   10.39
   3   0  -2  275.87    8.65
   3   0  -2  303.26    9.47
  -3   0   2  297.50    9.18
   3   0   2  274.02    9.91
  -3   0  -2  316.91   11.14
   3   0  -2  296.66    8.84
  -3   0   2  302.41    9.31
  -3   0  -2  267.99    9.56
   3   0  -2  309.78    9.35
   3   0   3  919.93   21.03
  -3   0  -3  913.82   20.20
   3   0  -3  915.64   19.14
  -3   0   3  880.99   18.90
  -3   0   3  946.11   18.31
   3   0  -3  948.40   18.94
   3   0   3  930.53   19.60
  -3   0   3  953.33   19.46
  -3   0   3  933.76   18.66
  -3   0   3  948.67   17.55
   3   0   3  944.38   21.24
  -3   0  -3  961.25   21.82
   3   0  -3  881.48   17.22
   3   0  -3  923.38   17.49
   3   0  -3  959.16   19.05
  -3   0   3  917.81   19.40
   3   0   4 1373.92   27.07
  -3   0   4 1345.48   23.46
  -3   0   4 1386.06   24.65
   3   0   4 1406.73   28.60
  -3   0   4 1307.48   24.76
   3   0  -4 1363.62   23.82
   3   0  -4 1391.18   25.77
   3   0  -4 1399.66   25.92
  -3   0   4 1326.13   26.06
   3   0   4 1425.42   28.69
  -3   0  -4 1381.54   28.09
   3   0  -4 1384.95   22.48
  -3   0   4 1371.17   25.78
  -3   0   5  144.94    6.59
   3   0   5  134.07    7.96
   3   0   5  137.51    6.72
  -3   0   5  122.40    6.36
   3   0  -5  139.06    6.20
   3   0  -5  142.32    7.22
   3   0   5  124.86    7.33
   3   0  -5  134.22    6.66
  -3   0   5  129.68    6.84
   3   0   5  155.43    8.12
  -3   0  -5  123.78    6.89
  -3   0   5  135.24    6.68
  -3   0   6    3.00    2.07
  -3   0   6    1.68    2.11
   3   0   6    4.94    2.50
   3   0   6    2.70    2.92
  -3   0   6    2.92    2.22
   3   0  -6    3.23    2.32
   3   0  -6    3.22    2.89
   3   0   6    1.32    2.53
  -3   0  -6    2.44    1.82
   3   0  -6    0.26    2.19
  -3   0   6    2.25    2.45
  -3   0   7   52.04    4.87
  -3   0   7   56.17    5.15
   3   0   7   47.64    5.74
   3   0  -7   56.03    5.42
   3   0  -7   52.77    4.72
   3   0  -7   51.35    5.22
   3   0   7   57.32    6.22
   3   0   7   51.84    5.26
  -3   0   7   53.61    5.08
  -3   0   8   89.44    7.02
   3   0  -8   92.81    7.38
   3   0  -8   93.15    6.71
  -3   0   8   97.11    7.09
  -3   0   8   90.08    6.79
   3   0  -8   91.24    7.05
   3   0  -9   18.21    5.07
  -3   0   9   15.03    4.21
   3   0  -9    9.34    3.71
  -3   0   9   14.44    4.14
  -3   0   9   18.53    4.22
   3   0  -9   13.78    4.41
   3   0 -10   24.80    5.32
  -3   0  10   30.55    5.98
  -3   0  10   28.56    5.53
   3   0 -10   21.72    5.30
   3   0 -10   22.75    4.75
  -3   0  10   14.60    3.94
   3   0 -11   47.53    7.25
   3   0 -11   43.59    7.13
   3   0 -11   41.10    6.13
  -3   0  11   43.76    6.65
  -3   0  11   54.76    7.63
  -3   0  11   51.78    6.85
  -3   0  12    3.32    4.14
  -3   1  12    3.03    4.37
  -3   1  12    1.47    5.01
  -3   1  11   14.53    5.47
   3   1 -11   12.60    5.25
   3   1 -11    8.36    4.08
   3   1 -11   10.75    5.04
   3  -1  11   20.54    5.87
  -3   1  11   16.86    4.81
  -3   1  11   15.53    5.75
  -3   1  10   11.90    4.46
  -3   1  10    9.44    3.95
  -3   1  10    6.02    4.11
   3   1 -10    8.91    4.94
   3   1 -10   -0.93    3.93
   3  -1  10    1.77    4.29
   3   1 -10    4.42    4.02
   3   1  -9    4.92    3.83
  -3   1   9   11.88    4.22
  -3   1   9    4.88    3.74
   3  -1   9    0.45    3.44
   3   1  -9   -1.56    3.24
   3   1  -9   -0.64    3.68
   3  -1   9   -2.22    3.98
  -3   1   9    2.16    3.12
   3   1  -8  142.66    8.43
   3   1  -8  141.17    8.43
   3  -1   8  138.56    8.66
  -3   1   8  132.56    8.13
  -3   1   8  140.94    8.75
   3  -1   8  137.49    9.25
  -3   1   8  143.01    8.34
  -3   1   7   33.71    4.32
  -3   1   7   33.91    3.59
   3  -1   7   38.89    4.82
   3   1  -7   41.14    4.69
   3   1  -7   37.57    4.89
   3  -1   7   34.66    4.32
   3  -1   7   30.62    4.67
  -3   1   7   37.20    4.24
  -3   1   7   33.54    4.12
  -3   1   6   93.21    5.70
   3  -1   6   90.07    5.78
   3  -1   6   91.33    6.39
  -3   1   6   86.60    5.32
   3  -1   6   93.34    6.57
  -3   1   6   91.47    5.98
  -3   1   6   95.78    5.96
  -3   1   5   19.19    2.83
   3  -1   5   17.65    2.89
   3  -1   5   17.94    2.63
  -3   1   5   17.75    2.65
   3  -1   5   18.21    3.47
   3   1  -5   15.37    2.62
  -3   1   5   15.16    2.46
   3  -1   5   14.99    2.91
   3   1  -5   25.35    3.72
  -3   1   5   16.25    2.63
  -3   1   4  324.87    9.45
   3  -1   4  336.67    9.13
   3  -1   4  356.07   11.57
  -3   1   4  337.67    9.55
   3   1  -4  329.02   11.11
   3  -1   4  346.28   10.86
  -3   1   4  347.87    9.29
  -3   1   4  348.33    9.27
  -3   1   4  349.19   10.53
   3   1  -4  336.34    9.48
   3  -1   4  349.85   10.80
   3  -1   4  343.65   11.46
  -3   1   4  344.74   10.39
   3  -1   3  235.49    6.23
   3  -1   3  237.83    8.72
  -3   1   3  227.88    7.81
  -3   1   3  214.01    7.17
  -3   1   3  226.88    6.79
  -3   1   3  211.77    7.01
   3   1  -3  222.55    8.93
   3  -1   3  241.07    7.96
   3  -1   3  234.72    8.46
   3  -1   3  237.83    9.10
  -3   1   3  232.53    8.11
  -3   1   3  234.26    6.84
  -3   1   2  185.51    5.29
   3  -1   2  181.85    7.01
  -3   1   2  174.21    5.40
  -3   1   2  170.90    6.50
  -3   1   2  184.16    6.45
  -3   1   2  196.21    5.56
   3  -1   2  169.52    6.56
   3  -1   2  185.03    6.17
  -3   1   2  181.96    6.48
   3  -1   2  185.69    7.27
   3  -1   2  192.45    7.80
  -3   1   2  185.39    7.03
  -3   1   1   71.92    4.27
   3  -1   1   66.43    3.89
  -3   1   1   67.72    3.87
  -3   1   1   71.42    3.41
   3  -1   1   70.53    3.18
   3  -1   1   68.11    3.99
  -3   1   1   70.28    3.60
   3  -1   1   70.44    4.27
  -3   1   1   69.36    4.07
   3  -1   1   73.81    4.74
  -3   1   0  459.96   11.94
   3  -1   0  447.30   10.33
  -3   1   0  430.49   11.07
  -3   1   0  453.75   10.34
   3  -1   0  434.12    9.66
   3  -1   0  454.40   11.22
  -3   1   0  453.43    9.64
   3  -1   0  458.32   11.43
  -3   1   0  442.04   11.10
   3  -1   0  476.69   12.16
   3  -1  -1   67.71    3.10
  -3   1  -1   65.84    4.30
  -3   1  -1   61.74    3.77
  -3   1  -1   69.39    4.27
  -3   1  -1   68.51    3.28
   3  -1  -1   67.40    3.51
   3  -1  -1   69.14    4.12
  -3   1  -1   66.39    3.74
   3  -1  -1   66.21    3.80
   3  -1  -1   72.62    4.38
   3  -1  -2  170.99    4.98
   3  -1  -2  176.23    4.66
   3  -1  -2  176.85    5.19
  -3   1  -2  173.46    6.99
  -3   1  -2  200.07    7.18
  -3   1  -2  174.40    5.89
   3  -1  -2  173.70    6.88
   3  -1  -2  178.67    6.37
  -3   1  -2  174.82    6.10
  -3   1  -2  179.88    7.33
   3  -1  -2  165.67    5.99
   3  -1  -2  181.63    6.89
  -3  -1   3  220.20    8.21
  -3   1  -3  240.70    8.49
   3  -1  -3  211.94    6.73
  -3   1  -3  227.42    8.37
   3  -1  -3  214.85    6.36
   3  -1  -3  221.17    7.69
  -3   1  -3  228.92    7.52
   3  -1  -3  229.36    8.07
  -3  -1   3  220.23    9.33
  -3  -1   3  200.40    8.85
  -3   1  -3  234.99    6.84
  -3   1  -3  233.26    8.49
   3  -1  -3  227.37    7.67
   3  -1  -3  210.24    6.51
   3  -1  -4  345.18    8.61
   3  -1  -4  325.27    9.66
  -3   1  -4  333.32   10.85
  -3   1  -4  365.31   11.54
   3  -1  -4  333.50   10.44
  -3   1  -4  342.55   10.34
   3  -1  -4  341.97   10.40
   3  -1  -4  341.34    9.17
  -3  -1   4  327.94   11.85
  -3  -1   4  321.06    9.86
  -3  -1   4  312.35   11.20
  -3   1  -4  330.20   10.56
   3  -1  -4  377.41    9.97
  -3  -1   5   18.63    3.23
   3  -1  -5   13.59    2.99
   3  -1  -5   15.34    2.57
  -3  -1   5   20.49    3.33
  -3   1  -5   18.20    2.90
   3  -1  -5   14.52    2.88
  -3  -1   5   15.96    2.89
  -3   1  -5   20.97    3.73
  -3   1  -5   15.62    2.97
  -3   1  -5   13.51    2.47
  -3  -1   5   19.24    3.35
   3  -1  -5   15.09    2.85
  -3   1  -6  105.93    6.07
   3  -1  -6   95.97    5.68
  -3   1  -6  101.23    7.10
   3  -1  -6   82.45    5.96
   3  -1  -6   88.72    6.02
  -3   1  -6   99.40    6.61
   3  -1  -6   89.86    5.84
  -3  -1   6  162.90    9.12
  -3  -1   7   33.13    4.59
  -3  -1   7   41.88    4.90
   3  -1  -7   35.75    4.81
   3  -1  -7   35.84    4.29
  -3   1  -7   42.61    5.40
   3  -1  -7   37.86    4.68
  -3   1  -7   32.46    4.43
  -3  -1   7   33.22    4.63
   3  -1  -7   35.04    4.25
  -3  -1   8  133.22    8.52
   3  -1  -8  139.91    7.96
  -3   1  -8  135.36    9.07
   3  -1  -8  137.57    8.32
   3  -1  -8  136.13    8.83
  -3   1  -8  155.48    9.39
  -3  -1   8  143.04    8.89
  -3  -1   8  120.76    8.53
  -3  -1   9    2.64    3.52
   3  -1  -9   -3.91    4.28
   3  -1  -9    3.81    2.98
   3  -1  -9    3.35    3.91
  -3   1  -9    3.01    3.88
  -3  -1   9    2.90    3.42
  -3  -1   9    4.00    3.21
  -3  -1  10    4.33    3.80
  -3  -1  10    4.77    3.83
   3  -1 -10   13.55    5.33
   3  -1 -10   -3.81    3.64
   3  -1 -10    6.50    4.18
  -3  -1  10    2.53    3.34
  -3  -1  11   14.84    4.93
   3  -1 -11   22.17    5.57
   3  -1 -11   24.71    5.84
  -3  -1  11   25.26    5.98
   3  -1 -11   34.07    7.03
  -3  -1  11   11.29    4.31
   3   2 -11   20.57    7.05
   3  -2  11    3.87    4.86
  -3   2  10    4.53    4.80
   3   2 -10   -4.99    4.97
   3  -2  10    3.85    4.33
  -3   2  10    7.87    3.89
  -3   2   9   26.62    4.73
   3  -2   9   21.36    4.17
   3  -2   9   22.47    4.79
  -3   2   9   22.30    4.82
  -3   2   9   28.63    4.86
  -3   2   8   21.29    4.09
  -3   2   8   17.41    3.90
   3  -2   8   22.20    3.91
   3  -2   8   18.75    4.54
  -3   2   8   26.33    4.28
  -3   2   7  104.52    7.44
   3  -2   7   94.84    6.67
  -3   2   7  107.99    6.76
   3  -2   7   94.00    7.07
  -3   2   7   97.11    6.81
  -3   2   7  102.73    6.41
  -3   2   6  200.46    9.34
   3  -2   6  198.37    9.01
  -3   2   6  205.15    8.55
   3  -2   6  193.33    9.22
  -3   2   6  213.85    9.27
  -3   2   6  213.00    8.81
  -3   2   5   27.24    3.21
   3  -2   5   25.85    3.67
  -3   2   5   25.89    3.30
   3  -2   5   23.85    3.29
   3  -2   5   24.81    2.95
   3  -2   5   25.86    3.53
  -3   2   5   26.53    3.05
  -3   2   5   28.45    3.31
  -3   2   4   14.78    2.44
  -3   2   4   15.58    2.43
   3  -2   4   19.11    2.95
  -3   2   4   15.00    2.06
   3  -2   4   12.28    2.40
  -3   2   4   18.69    2.44
   3  -2   4   18.41    2.40
   3  -2   4   15.16    2.43
  -3   2   4   13.24    2.09
  -3   2   4   14.54    2.39
  -3   2   3 1042.38   19.47
   3  -2   3 1014.96   20.44
  -3   2   3 1028.78   20.02
  -3   2   3 1060.41   19.23
   3  -2   3 1035.55   19.93
   3  -2   3 1012.57   18.81
  -3   2   3 1005.71   17.79
  -3   2   3 1037.45   20.58
  -3   2   3 1034.02   20.01
   3  -2   3 1056.49   21.54
   3  -2   3 1013.65   19.87
   3  -2   2  429.23   11.25
  -3   2   2  451.63   11.47
  -3   2   2  446.79    9.11
  -3   2   2  432.56   10.85
   3  -2   2  456.95   10.59
   3  -2   2  444.78   10.51
  -3   2   2  453.41    8.92
  -3   2   2  427.00   10.67
  -3   2   2  439.74   11.54
   3  -2   2  461.39   11.47
   3  -2   2  456.48   12.23
   3  -2   1   38.09    3.01
  -3   2   1   36.93    3.28
   3  -2   1   40.33    2.16
  -3   2   1   36.33    3.08
   3  -2   1   38.58    2.59
   3  -2   1   35.83    2.85
  -3   2   1   44.53    2.90
  -3   2   1   41.22    2.65
  -3   2   1   39.23    3.24
   3  -2   1   45.27    3.36
   3  -2   1   40.87    3.62
   3  -2   0  365.71    9.75
   3  -2   0  373.83   10.71
   3  -2   0  380.26    9.13
  -3   2   0  330.47    9.94
  -3   2   0  373.37   10.03
  -3   2   0  375.00    9.25
  -3   2   0  354.86    7.07
   3  -2   0  361.73    9.71
  -3   2   0  346.70    8.08
  -3   2   0  366.34    9.67
   3  -2  -1   43.97    3.26
   3  -2  -1   41.90    3.53
  -3   2  -1   34.28    3.19
   3  -2  -1   43.99    2.80
  -3   2  -1   42.24    3.45
  -3   2  -1   40.74    3.12
  -3   2  -1   44.87    2.53
   3  -2  -1   42.06    3.34
  -3   2  -1   44.47    3.12
   3  -2  -2  475.56   11.98
   3  -2  -2  438.69   10.89
  -3   2  -2  468.36   12.12
   3  -2  -2  454.51    9.90
  -3   2  -2  447.14   11.53
  -3   2  -2  438.61   11.38
  -3   2  -2  441.28   10.06
   3  -2  -2  448.01   11.71
  -3   2  -2  438.28   10.16
   3  -2  -3 1070.83   20.14
   3  -2  -3  958.12   18.80
  -3   2  -3 1032.58   19.27
  -3   2  -3 1006.73   20.34
  -3   2  -3 1043.60   20.18
  -3   2  -3 1003.46   20.30
   3  -2  -3 1007.00   20.27
  -3   2  -3 1015.60   17.56
  -3   2  -4   14.67    2.46
   3  -2  -4   14.75    2.41
  -3   2  -4   13.81    2.48
  -3   2  -4   15.13    2.90
  -3   2  -4   16.85    2.70
   3  -2  -4   16.26    2.13
   3  -2  -4   18.34    2.79
  -3   2  -5   24.02    2.96
   3  -2  -5   27.09    3.76
  -3   2  -5   27.10    3.57
  -3   2  -5   23.12    3.29
  -3   2  -5   28.75    3.41
   3  -2  -5   22.76    3.39
  -3  -2   6  199.56   10.00
   3  -2  -6  226.05    9.87
  -3   2  -6  202.50    9.32
  -3   2  -6  202.26    8.90
   3  -2  -6  199.02    8.72
  -3  -2   6  198.92   10.63
  -3  -2   6  212.35   10.00
  -3  -2   7  103.43    7.85
  -3   2  -7  100.48    7.15
  -3   2  -7  100.41    7.08
   3  -2  -7  102.80    6.66
  -3  -2   7   99.32    7.79
  -3   2  -8   20.94    4.44
  -3   2  -8   18.59    4.49
  -3  -2   8   15.53    4.09
  -3  -2   8   26.68    5.71
  -3  -2   8   20.51    4.37
  -3  -2   9   24.80    5.19
   3  -2  -9   17.98    4.94
  -3   2  -9   25.34    5.29
  -3  -2   9   25.94    5.40
  -3   2  -9   27.00    5.33
  -3  -2   9   25.50    5.47
  -3  -2  10    1.90    3.93
   3  -2 -10   -0.41    4.41
   3  -2 -10    4.33    4.55
  -3   2 -10   -8.37    5.12
  -3  -2  10    5.58    4.52
  -3  -2  10    0.48    4.06
  -3  -2  11   -1.65    4.98
  -3  -2  11    0.48    4.83
  -3   2 -11    2.55    4.99
  -3  -2  11    2.68    4.54
   3  -3  11    4.60    5.08
   3  -3  10    0.77    4.17
   3  -3   9   10.44    3.66
   3  -3   9   10.37    4.30
   3  -3   8    7.89    3.08
   3  -3   8    9.40    3.63
  -3   3   7    9.64    3.39
   3  -3   7   10.17    2.95
   3  -3   7   10.51    3.52
  -3   3   6   75.26    5.62
   3  -3   6   82.15    5.86
   3  -3   6   78.92    6.23
  -3   3   6   91.46    6.58
  -3   3   5   46.43    4.17
   3  -3   5   39.49    3.79
  -3   3   5   51.13    4.12
   3  -3   5   44.13    4.33
   3  -3   5   48.33    4.65
   3  -3   5   44.99    4.45
  -3   3   5   49.41    4.71
  -3   3   4    7.06    1.89
  -3   3   4    5.81    1.85
   3  -3   4    4.09    2.38
   3  -3   4    6.71    2.07
   3  -3   4    3.43    1.88
   3  -3   4    6.11    2.17
  -3   3   4    7.14    2.07
  -3   3   4    3.47    1.87
   3  -3   3  104.11    6.06
   3  -3   3  108.88    5.65
  -3   3   3  102.19    4.55
   3  -3   3   95.12    5.33
  -3   3   3  103.89    5.36
   3  -3   3  105.96    5.68
  -3   3   3  105.59    5.71
  -3   3   3  103.79    5.65
   3  -3   2   40.35    3.50
   3  -3   2   31.28    3.02
   3  -3   2   33.66    3.61
  -3   3   2   34.78    2.65
  -3   3   2   37.04    3.38
  -3   3   2   32.50    3.28
   3  -3   2   34.00    3.14
  -3   3   2   34.91    3.10
   3  -3   2   29.66    2.67
  -3   3   2   34.09    3.26
   3  -3   1  304.17   10.26
   3  -3   1  307.84    9.64
  -3   3   1  316.62    8.45
  -3   3   1  297.91    9.49
   3  -3   1  310.88    9.26
   3  -3   1  284.53    8.82
  -3   3   1  307.78    9.89
  -3   3   1  311.00    9.61
   3  -3   0  234.35    8.82
   3  -3   0  212.17    7.84
   3  -3   0  225.33    7.43
  -3   3   0  224.67    8.32
  -3   3   0  237.71    8.26
   3  -3   0  228.10    8.00
  -3   3   0  209.67    7.18
  -3   3   0  226.35    7.79
   3  -3  -1  316.99   10.41
   3  -3  -1  326.50    9.81
  -3   3  -1  303.71    9.10
  -3   3  -1  297.17    9.89
  -3   3  -1  302.77    9.45
   3  -3  -1  302.86    9.76
  -3   3  -1  307.85    9.01
   3  -3  -2   38.97    3.85
  -3   3  -2   35.77    3.43
  -3   3  -2   43.10    3.66
  -3   3  -2   32.90    3.16
   3  -3  -2   34.14    3.06
   3  -3  -2   34.87    3.49
  -3   3  -2   34.50    2.82
  -3   3  -3  105.53    4.56
   3  -3  -3  103.75    5.84
  -3   3  -3  106.96    5.84
  -3   3  -3  109.24    5.71
  -3   3  -3   99.61    5.61
   3  -3  -3   97.94    5.81
  -3   3  -4    4.49    2.00
   3  -3  -4    4.71    2.18
  -3   3  -4    2.29    2.36
  -3   3  -4    5.55    2.36
   3  -3  -4    5.98    2.50
  -3   3  -5   40.32    3.78
  -3   3  -5   43.70    4.19
  -3   3  -5   44.09    4.44
   3  -3  -5   47.81    5.01
  -3   3  -5   42.29    4.00
  -3   3  -6   71.56    5.68
  -3   3  -6   74.12    5.67
  -3   3  -7    9.66    3.91
  -3   3  -7    3.00    2.99
  -3   3  -8   13.55    4.43
  -3   3  -8   18.60    4.36
  -3   3  -9   16.16    5.13
  -3   3  -9    4.47    4.12
  -3   3 -10   -2.69    4.94
   3  -4  10   -9.78    5.80
   3  -4   9   21.77    4.46
   3  -4   9   32.19    6.07
   3  -4   8   40.13    6.01
   3  -4   8   37.09    4.96
   3  -4   7    5.58    3.04
   3  -4   7    9.61    3.86
   3  -4   6   51.65    5.07
   3  -4   6   39.11    5.38
   3  -4   5  106.36    6.07
   3  -4   5  116.44    7.04
   3  -4   5  122.90    7.77
   3  -4   5  118.79    7.42
   3  -4   4   57.65    5.30
   3  -4   4   62.46    4.57
   3  -4   4   57.42    4.76
   3  -4   4   53.54    5.16
   3  -4   3  382.69   12.69
   3  -4   3  386.51   11.82
   3  -4   3  351.32   11.67
   3  -4   2   74.85    5.47
   3  -4   2   80.89    5.19
   3  -4   2   67.79    4.68
   3  -4   2   70.27    4.37
   3  -4   1    7.52    2.31
   3  -4   1   10.94    2.26
   3  -4   1    8.55    1.88
  -3   4  -1    7.95    2.14
  -3   4  -1   10.70    2.38
  -3   4  -1   10.88    2.54
  -3   4  -2   76.42    5.22
  -3   4  -2   80.50    5.36
  -3   4  -2   80.43    5.41
  -3   4  -3  368.23   12.11
  -3   4  -3  389.41   11.94
  -3   4  -3  360.89   11.82
  -3   4  -4   66.02    4.90
  -3   4  -4   64.80    5.33
  -3   4  -4   65.47    4.99
  -3   4  -5  112.35    6.47
  -3   4  -5  124.58    7.49
  -3   4  -5  122.44    6.89
  -3   4  -6   51.10    5.53
  -3   4  -7   14.21    4.19
  -3   4  -7    6.20    3.57
  -3   4  -8   38.27    5.73
  -3   4  -8   40.99    5.87
  -3   4  -9   30.05    5.92
  -3   4  -9   28.18    5.71
  -3   4 -10    8.20    4.90
   3  -5  10    2.23    5.04
   3  -5   9    5.88    4.56
   3  -5   8    8.40    3.21
   3  -5   8    9.62    4.57
   3  -5   7   29.52    4.47
   3  -5   7   32.40    5.99
   3  -5   6    4.66    2.76
   3  -5   5   49.61    5.53
  -3   5  -5   46.14    4.39
  -3   5  -5   41.02    4.46
  -3   5  -6   10.00    3.44
  -3   5  -7   24.40    4.30
  -3   5  -8   10.81    3.90
  -3   5  -8   -3.32    3.14
  -3   5  -9    5.95    3.61
  -3   5  -9    1.43    3.86
  -3   5 -10   -1.10    4.22
  -4   0   0    2.06    1.97
   4   0   0    4.80    2.02
   4   0   0    0.64    1.65
  -4   0   0    2.14    2.55
  -4   0   0    3.72    1.64
   4   0   1  322.16   11.07
   4   0  -1  310.45    9.33
  -4   0   1  323.44   11.19
   4   0  -1  323.10   11.01
  -4   0   1  320.51   10.32
   4   0   1  337.51   12.48
   4   0  -1  321.67   11.21
  -4   0  -1  315.73   12.59
  -4   0   1  312.27   11.39
  -4   0  -1  290.94   11.17
  -4   0   1  302.07   11.04
  -4   0   2 1323.76   22.56
   4   0   2 1352.04   28.17
  -4   0   2 1353.46   27.01
   4   0  -2 1220.61   22.06
   4   0  -2 1316.83   25.52
   4   0  -2 1361.51   26.53
  -4   0   2 1337.39   25.91
   4   0   2 1335.75   29.54
   4   0  -2 1281.08   25.44
  -4   0  -2 1168.25   28.68
  -4   0   2 1308.43   26.60
  -4   0   2 1305.58   26.90
  -4   0   3 2296.60   36.91
   4   0   3 2239.03   43.45
   4   0  -3 2399.90   39.64
   4   0  -3 2421.03   41.04
  -4   0   3 2413.10   40.72
   4   0   3 2328.03   45.03
   4   0  -3 2430.29   39.11
  -4   0   3 2326.58   39.86
  -4   0   3 2291.96   41.21
  -4   0   4   13.66    3.07
   4   0  -4   10.27    2.23
   4   0  -4    7.11    2.65
  -4   0   4   13.81    2.58
   4   0  -4   12.10    3.07
  -4   0   4   15.63    3.25
   4   0  -5  173.63    7.55
  -4   0   5  159.49    8.20
   4   0  -5  151.22    8.18
   4   0  -5  150.94    8.18
  -4   0   5  152.54    7.38
  -4   0   5  169.02    8.90
  -4   0   5  166.45    8.55
  -4   0   6  259.14   11.33
   4   0  -6  270.82   10.19
   4   0  -6  290.53   11.77
   4   0  -6  279.59   11.16
  -4   0   6  286.26   11.90
  -4   0   6  286.17   11.09
  -4   0   6  290.24   11.59
  -4   0   7   62.36    5.81
  -4   0   7   62.73    5.98
   4   0  -7   59.00    6.02
   4   0  -7   66.01    5.49
   4   0  -7   68.99    6.41
   4   0  -7   67.15    6.02
  -4   0   7   64.37    6.35
  -4   0   7   64.04    5.70
  -4   0   8   44.19    5.53
   4   0  -8   44.39    5.78
   4   0  -8   44.60    5.46
   4   0  -8   44.36    5.77
  -4   0   8   32.44    5.02
  -4   0   8   51.39    6.24
  -4   0   9   29.17    5.41
  -4   0   9   27.61    5.63
   4   0  -9   16.25    4.55
   4   0  -9   31.95    4.94
   4   0  -9   34.16    5.88
  -4   0   9   25.28    4.93
  -4   0  10   -0.04    4.21
  -4   0  10   -1.51    3.97
   4   0 -10    3.66    4.46
   4   0 -10    3.26    3.58
   4   0 -10   -2.31    4.37
  -4   0  10    4.85    3.79
  -4   0  11    9.75    5.12
   4   0 -11   10.78    6.05
  -4   0  11   -0.49    4.61
  -4   0  11    3.63    4.26
  -4   1  11    2.66    5.00
  -4   1  11   13.81    5.81
  -4   1  11    2.93    4.21
  -4   1  10    6.58    4.53
  -4   1  10    1.20    4.03
   4   1 -10    4.53    4.69
   4   1 -10   16.70    5.03
   4   1 -10   12.28    5.02
  -4   1  10    9.33    4.38
  -4   1   9    2.34    3.63
  -4   1   9   -0.35    3.19
   4  -1   9    5.79    4.35
   4   1  -9    2.45    4.12
   4   1  -9    0.39    3.70
   4   1  -9    2.42    4.63
   4  -1   9    0.48    4.39
  -4   1   9    0.80    3.23
  -4   1   8    9.82    3.87
  -4   1   8    9.03    3.65
   4  -1   8   -0.86    3.55
   4   1  -8   11.75    4.72
   4  -1   8    6.41    4.27
  -4   1   8    9.84    3.42
  -4   1   7   63.32    5.56
   4  -1   7   60.80    6.65
   4   1  -7   68.36    6.68
   4  -1   7   50.37    6.20
  -4   1   7   52.15    5.61
  -4   1   7   61.20    5.85
  -4   1   7   63.94    5.65
  -4   1   6  158.44    8.03
   4  -1   6  163.75    9.67
   4   1  -6  146.44    8.71
  -4   1   6  154.79    8.02
   4  -1   6  147.91    8.92
  -4   1   6  149.35    8.39
  -4   1   6  144.61    8.05
  -4   1   5    1.85    2.14
  -4   1   5    3.07    1.93
   4  -1   5   -0.18    2.67
   4  -1   5    1.40    2.43
  -4   1   5    6.12    2.29
   4   1  -5   -0.89    2.86
   4  -1   5    5.40    2.85
  -4   1   5    6.18    2.61
  -4   1   4   84.95    4.77
   4  -1   4   79.90    6.21
  -4   1   4   80.18    5.06
  -4   1   4   69.91    4.89
   4  -1   4   83.13    5.68
  -4   1   4   82.21    5.59
   4   1  -4   78.65    5.08
   4  -1   4   82.17    5.98
   4  -1   4   91.08    6.75
  -4   1   4   87.27    5.94
  -4   1   3    3.65    2.18
   4  -1   3    6.44    2.57
   4  -1   3    6.58    2.52
   4  -1   3    6.73    2.52
  -4   1   3   10.10    2.45
   4  -1   3   10.76    2.32
  -4   1   3    7.48    2.27
  -4   1   3    6.81    2.16
  -4   1   2  119.44    6.50
   4  -1   2  105.71    6.24
  -4   1   2  131.06    6.40
   4  -1   2  121.89    5.38
   4  -1   2  118.08    6.37
  -4   1   2  120.15    5.93
   4  -1   2  128.64    6.98
   4  -1   2  119.03    7.18
  -4   1   2  123.89    6.66
  -4   1   1  234.61    9.41
   4  -1   1  238.55    8.76
  -4   1   1  277.57    9.53
  -4   1   1  252.81    8.30
   4  -1   1  253.46    7.03
   4  -1   1  239.18    8.91
  -4   1   1  244.88    8.15
   4  -1   1  244.39    9.42
   4  -1   1  263.37   10.23
  -4   1   1  226.21    8.97
   4  -1   0  563.63   13.69
  -4   1   0  603.18   15.36
  -4   1   0  610.30   14.32
   4  -1   0  568.17   14.65
  -4   1   0  616.22   13.15
   4  -1   0  538.46   14.78
  -4   1   0  593.89   15.14
   4  -1   0  609.98   16.13
  -4   1   0  564.55   15.64
   4  -1  -1  250.86    7.67
  -4   1  -1  247.46    9.48
  -4   1  -1  249.21    8.95
   4  -1  -1  239.85    8.00
   4  -1  -1  248.04    9.23
  -4   1  -1  255.79    7.11
   4  -1  -1  246.61    9.08
  -4   1  -1  245.24    8.99
   4  -1  -1  259.11    9.86
  -4   1  -1  246.41   10.02
  -4   1  -2  115.32    6.71
  -4   1  -2  132.97    6.88
   4  -1  -2  121.41    5.76
   4  -1  -2  115.16    6.45
  -4   1  -2  122.16    6.15
  -4   1  -2  123.72    7.18
   4  -1  -2  125.86    6.70
   4  -1  -2  126.85    6.20
  -4  -1   3    4.40    2.71
  -4   1  -3    5.53    1.89
   4  -1  -3    4.68    2.25
   4  -1  -3    5.87    1.73
   4  -1  -3    4.93    2.22
  -4   1  -3    7.33    2.80
  -4   1  -3    6.53    2.58
  -4   1  -3    5.99    2.63
  -4  -1   3    0.85    2.32
   4  -1  -3    5.30    2.36
  -4  -1   4   76.89    5.54
  -4   1  -4   94.30    6.43
  -4   1  -4   84.39    6.26
   4  -1  -4   82.48    5.67
   4  -1  -4   76.27    5.59
  -4  -1   4   71.32    6.32
  -4  -1   4   77.39    6.28
   4  -1  -4   81.68    5.38
  -4   1  -4   82.80    6.10
   4  -1  -4   80.17    4.57
  -4  -1   5    2.54    3.10
  -4  -1   5    3.09    2.61
   4  -1  -5    2.76    1.93
   4  -1  -5    2.64    2.72
  -4   1  -5    7.58    3.50
  -4   1  -5   -6.10    2.94
  -4   1  -5    2.08    2.35
  -4  -1   5    3.72    2.93
   4  -1  -5   -2.04    2.56
  -4   1  -6  160.35    8.50
  -4  -1   6  152.33    8.82
   4  -1  -6  156.54    8.08
   4  -1  -6  157.43    7.50
  -4   1  -6  167.88    9.49
   4  -1  -6  151.84    8.45
  -4   1  -6  147.01    8.35
   4  -1  -6  162.60    8.52
  -4  -1   6  159.36    9.62
  -4  -1   6  159.68    9.13
  -4  -1   7   65.14    6.29
   4  -1  -7   55.13    5.68
   4  -1  -7   67.87    5.60
   4  -1  -7   75.31    6.60
  -4   1  -7   60.40    6.81
   4  -1  -7   65.94    6.11
  -4  -1   7   57.45    6.48
  -4  -1   8    0.66    3.34
   4  -1  -8   12.01    4.23
   4  -1  -8    8.89    3.36
   4  -1  -8    3.22    3.99
  -4  -1   8   11.55    4.46
  -4  -1   8    8.86    3.83
  -4  -1   9    4.49    3.91
  -4  -1   9    4.80    3.92
   4  -1  -9    5.08    4.82
   4  -1  -9    3.15    3.13
   4  -1  -9    2.59    3.76
  -4  -1   9    7.01    4.07
   4  -1 -10    8.64    5.10
   4  -1 -10    5.99    4.15
  -4  -1  10    2.87    3.99
   4  -1 -10    8.10    4.43
  -4  -1  10    5.56    4.79
  -4  -1  10    0.33    4.27
  -4  -1  11   14.20    5.64
   4  -1 -11   16.70    6.81
   4  -1 -11    8.40    5.00
  -4  -1  11    2.56    4.50
  -4  -1  11    7.10    4.99
  -4   2  11   -5.41    5.03
   4   2 -10    8.17    5.94
   4  -2  10    9.23    4.67
   4  -2  10    9.88    5.25
  -4   2  10    3.74    4.01
  -4   2   9   17.68    4.27
   4  -2   9   22.53    5.14
   4  -2   9   16.14    4.91
  -4   2   9   16.98    4.56
  -4   2   8   34.99    5.49
   4  -2   8   33.30    5.22
   4  -2   8   28.08    5.28
  -4   2   8   40.66    5.29
  -4   2   7   46.16    5.08
  -4   2   7   49.55    5.36
   4  -2   7   51.27    5.86
   4  -2   7   42.05    5.64
  -4   2   7   50.20    5.62
   4  -2   6   15.48    4.04
  -4   2   6   10.20    2.79
   4  -2   6   16.86    3.80
   4  -2   6   14.10    3.47
  -4   2   6   10.70    2.91
  -4   2   5    2.25    2.18
   4  -2   5    2.37    2.65
   4  -2   5    4.98    2.31
   4  -2   5    8.04    3.36
   4  -2   5    5.80    2.58
  -4   2   5    6.81    2.79
   4  -2   4  135.25    7.66
  -4   2   4  141.25    7.04
  -4   2   4  139.08    6.54
   4  -2   4  142.71    7.07
  -4   2   4  143.98    7.17
   4  -2   4  142.17    8.04
   4  -2   4  134.14    7.37
  -4   2   4  146.94    7.60
  -4   2   3   18.15    2.92
   4  -2   3   24.49    3.96
   4  -2   3   17.88    2.91
   4  -2   3   19.95    3.12
   4  -2   3   22.60    2.84
  -4   2   3   20.97    3.09
  -4   2   3   20.20    2.92
   4  -2   3   22.36    2.86
  -4   2   3   18.31    2.75
   4  -2   2  109.72    6.03
  -4   2   2  111.72    6.20
  -4   2   2  119.97    6.12
   4  -2   2  119.80    5.40
   4  -2   2  118.33    6.07
  -4   2   2  116.51    5.62
   4  -2   2  116.36    6.36
   4  -2   2  123.76    7.13
  -4   2   2  112.12    6.34
  -4   2   1  213.65    8.72
   4  -2   1  210.81    7.93
  -4   2   1  219.73    8.42
  -4   2   1  218.55    7.12
   4  -2   1  200.88    7.89
  -4   2   1  212.57    7.24
  -4   2   1  218.30    8.51
   4  -2   1  219.80    8.51
   4  -2   1  225.12    9.33
  -4   2   0    8.62    2.15
  -4   2   0    7.13    2.35
   4  -2   0    9.18    2.60
   4  -2   0   10.07    2.01
   4  -2   0    9.52    2.24
   4  -2   0    9.34    1.83
  -4   2   0    6.47    1.88
  -4   2   0    8.90    2.46
   4  -2   0    4.41    1.92
  -4   2   0    6.52    1.55
  -4   2  -1  203.05    8.74
   4  -2  -1  220.65    7.10
  -4   2  -1  218.26    8.73
  -4   2  -1  207.13    7.96
   4  -2  -1  222.23    7.34
   4  -2  -1  203.54    8.32
  -4   2  -1  216.06    8.04
   4  -2  -1  240.30    9.44
   4  -2  -1  205.39    8.01
   4  -2  -2  109.91    5.79
  -4   2  -2  126.25    6.79
  -4   2  -2  118.84    6.26
   4  -2  -2  111.49    5.62
  -4   2  -2  119.94    5.14
   4  -2  -2  104.72    6.18
  -4   2  -2  107.27    6.44
  -4   2  -2  117.88    5.65
   4  -2  -2  113.93    6.58
  -4   2  -3   21.43    2.58
   4  -2  -3   18.91    3.07
   4  -2  -3   18.70    2.76
   4  -2  -3   22.78    2.77
  -4   2  -3   25.56    2.91
  -4   2  -3   23.44    3.34
  -4   2  -3   26.16    3.66
   4  -2  -3   20.51    3.32
  -4   2  -3   20.67    3.35
   4  -2  -4  156.56    6.75
  -4   2  -4  146.45    7.70
  -4   2  -4  144.25    7.58
  -4   2  -4  149.89    7.95
   4  -2  -4  148.44    7.39
  -4   2  -4  147.10    6.97
   4  -2  -4  135.94    7.37
   4  -2  -4  147.06    7.18
  -4   2  -5    3.17    2.28
   4  -2  -5    3.95    2.68
  -4   2  -5    8.04    3.36
  -4   2  -5    4.78    2.60
  -4   2  -5    5.95    3.09
   4  -2  -5    2.85    2.81
  -4   2  -6   14.03    3.15
   4  -2  -6   10.84    3.54
  -4   2  -6   10.62    3.76
  -4   2  -6   11.63    3.25
   4  -2  -6   16.19    3.71
   4  -2  -7   45.53    5.60
  -4   2  -7   39.16    5.89
  -4   2  -7   50.92    5.55
   4  -2  -7   45.22    5.30
  -4  -2   8   33.78    6.15
   4  -2  -8   32.21    4.84
   4  -2  -8   29.47    4.96
  -4   2  -8   42.27    6.09
  -4   2  -8   29.96    5.57
  -4  -2   8   29.00    6.35
  -4  -2   9   28.76    6.07
   4  -2  -9   23.25    4.63
  -4   2  -9   18.56    5.33
   4  -2  -9   21.40    5.37
  -4   2  -9   23.47    5.44
  -4  -2   9   22.49    6.30
  -4  -2  10   10.75    5.97
   4  -2 -10   10.19    4.76
   4  -2 -10    0.37    4.87
  -4   2 -10   -0.91    4.74
  -4  -2  10    3.08    5.05
  -4  -2  11    0.95    5.11
   4  -3  10   -0.95    4.08
   4  -3  10   -3.20    4.88
   4  -3   9   -1.19    3.78
   4  -3   9   -3.07    4.42
   4  -3   8    4.39    3.49
   4  -3   8    3.08    3.79
  -4   3   8    1.87    3.19
  -4   3   7    8.87    3.14
   4  -3   7    3.07    3.21
   4  -3   7    1.81    3.27
  -4   3   7    3.16    3.09
  -4   3   6   15.84    3.34
   4  -3   6   10.62    3.79
   4  -3   6   10.30    3.11
   4  -3   6   11.51    3.48
  -4   3   6   12.38    3.13
   4  -3   5   80.73    5.79
   4  -3   5   81.65    6.11
   4  -3   5   81.73    6.12
  -4   3   5   83.22    6.26
   4  -3   5   79.03    6.62
  -4   3   5   75.06    5.93
   4  -3   4   59.96    4.99
   4  -3   4   55.26    5.02
  -4   3   4   51.99    4.37
  -4   3   4   60.69    5.24
   4  -3   4   63.57    5.22
  -4   3   4   61.43    5.12
   4  -3   4   60.85    5.88
  -4   3   4   58.56    5.10
  -4   3   3   22.00    3.33
   4  -3   3   18.10    3.69
   4  -3   3   24.24    3.51
  -4   3   3   19.18    3.18
   4  -3   3   21.95    3.28
   4  -3   3   23.28    3.12
  -4   3   3   20.74    2.94
  -4   3   3   21.45    3.00
  -4   3   2   23.16    3.19
   4  -3   2   24.98    3.95
   4  -3   2   25.19    3.26
   4  -3   2   21.33    3.23
  -4   3   2   21.74    3.15
  -4   3   2   29.56    3.54
   4  -3   2   20.73    2.92
  -4   3   2   24.67    2.99
   4  -3   1  126.60    6.63
   4  -3   1  131.72    6.37
  -4   3   1  130.19    6.98
  -4   3   1  129.46    6.78
  -4   3   1  136.28    5.87
   4  -3   1  118.81    6.23
  -4   3   1  126.82    5.97
  -4   3   1  126.38    6.58
   4  -3   1  131.65    7.57
  -4   3   0    2.02    1.80
   4  -3   0    2.91    2.35
   4  -3   0    2.61    1.67
   4  -3   0   -0.61    1.92
  -4   3   0    0.96    1.80
  -4   3   0    3.51    2.30
  -4   3   0    1.40    2.13
   4  -3   0    1.88    1.99
   4  -3  -1  130.04    7.34
   4  -3  -1  146.36    7.05
   4  -3  -1  132.37    5.88
  -4   3  -1  128.83    7.05
  -4   3  -1  125.50    6.70
  -4   3  -1  135.43    6.45
   4  -3  -1  127.46    6.84
  -4   3  -1  121.19    5.97
  -4   3  -2   19.64    2.59
   4  -3  -2   27.56    3.88
  -4   3  -2   25.02    3.35
   4  -3  -2   25.93    3.28
  -4   3  -2   22.29    3.42
  -4   3  -2   27.38    3.89
   4  -3  -2   19.88    3.44
   4  -3  -3   25.11    3.65
  -4   3  -3   19.23    2.68
  -4   3  -3   23.62    3.61
  -4   3  -3   22.94    3.43
   4  -3  -3   27.60    3.36
  -4   3  -3   22.89    3.56
   4  -3  -3   24.75    3.74
   4  -3  -4   54.73    5.12
   4  -3  -4   57.23    4.41
  -4   3  -4   57.74    4.95
  -4   3  -4   59.37    5.32
  -4   3  -4   52.79    4.40
   4  -3  -4   63.97    5.51
  -4   3  -4   52.72    4.93
  -4   3  -5   81.50    6.23
  -4   3  -5   78.41    5.78
  -4   3  -5   74.42    5.94
  -4   3  -5   87.54    5.85
   4  -3  -5   84.50    6.62
  -4   3  -6    7.85    3.59
  -4   3  -6   15.56    3.80
  -4   3  -6   10.30    2.63
   4  -3  -6   15.26    3.82
  -4   3  -7    9.57    4.49
  -4   3  -7   -1.38    3.21
   4  -3  -7    3.49    3.74
  -4   3  -8   -1.92    4.89
  -4   3  -8    4.28    3.79
   4  -3  -8    4.28    4.28
  -4   3  -9    0.08    4.53
  -4   3  -9    5.32    4.05
  -4   3 -10   -0.18    5.06
  -4   3 -10   -2.32    4.97
   4  -4  10    7.86    4.84
   4  -4  10    6.01    5.12
   4  -4   9    9.35    4.14
   4  -4   9    0.37    4.69
   4  -4   8    9.43    4.15
   4  -4   8    3.60    4.25
   4  -4   7   63.13    6.47
   4  -4   7   63.02    7.07
   4  -4   6   51.25    6.29
   4  -4   6   41.23    5.16
   4  -4   6   49.27    5.87
   4  -4   5    2.68    3.15
   4  -4   5    6.28    2.83
   4  -4   5    3.15    2.31
   4  -4   5    7.35    3.10
   4  -4   4  150.39    8.12
   4  -4   4  167.77    8.73
  -4   4   4  150.50    7.70
   4  -4   4  174.16    9.32
   4  -4   4  154.30    9.07
  -4   4   3   81.32    5.95
   4  -4   3   80.25    5.84
   4  -4   3   81.06    5.96
  -4   4   3   76.62    5.70
   4  -4   3   81.51    6.20
   4  -4   3   75.37    6.38
   4  -4   2  231.41   10.67
   4  -4   2  238.17    9.96
   4  -4   2  231.95    9.79
  -4   4   2  265.88   10.34
  -4   4   2  235.81   10.23
   4  -4   2  251.85    9.32
  -4   4   2  242.13   10.04
   4  -4   1  143.33    8.25
   4  -4   1  171.71    8.26
   4  -4   1  143.89    7.22
  -4   4   1  150.15    7.85
  -4   4   1  149.30    6.80
  -4   4   1  151.17    8.12
   4  -4   1  146.92    7.29
  -4   4   1  141.90    7.48
   4  -4   0   47.30    4.31
   4  -4   0   42.80    4.91
  -4   4   0   46.72    4.70
  -4   4   0   44.05    4.03
   4  -4   0   46.36    4.53
  -4   4   0   45.42    4.47
  -4   4   0   42.37    4.06
   4  -4  -1  134.09    7.92
   4  -4  -1  143.23    7.50
  -4   4  -1  162.67    8.37
  -4   4  -1  156.66    8.00
  -4   4  -1  156.07    7.51
   4  -4  -1  137.20    7.42
  -4   4  -1  150.57    7.20
  -4   4  -2  240.98    8.85
   4  -4  -2  213.24    9.92
   4  -4  -2  232.94    9.46
  -4   4  -2  238.89   10.31
  -4   4  -2  236.41   10.03
  -4   4  -2  237.23    9.65
   4  -4  -2  234.84   10.18
   4  -4  -3   82.18    6.20
  -4   4  -3   75.64    5.94
  -4   4  -3   74.04    5.82
  -4   4  -3   69.22    5.60
   4  -4  -3   79.00    6.31
   4  -4  -4  147.82    8.46
  -4   4  -4  154.09    8.28
  -4   4  -4  139.89    8.05
  -4   4  -4  161.12    8.59
  -4   4  -4  157.38    7.59
   4  -4  -4  147.37    8.88
  -4   4  -5   12.97    3.38
  -4   4  -5    5.58    3.66
  -4   4  -5    5.58    2.84
  -4   4  -5    6.37    2.79
  -4   4  -6   47.06    5.11
  -4   4  -6   47.95    5.32
  -4   4  -6   45.05    5.77
  -4   4  -7   62.03    7.10
  -4   4  -7   59.98    6.18
  -4   4  -8    0.61    4.37
  -4   4  -8   12.64    4.66
  -4   4  -9   15.99    5.45
  -4   4  -9    3.29    4.06
  -4   4 -10    0.25    6.06
   4  -5  10    7.29    4.58
   4  -5   9    1.20    3.56
   4  -5   9    7.46    5.80
   4  -5   8    7.04    3.69
   4  -5   8    1.58    4.81
   4  -5   7    4.85    3.44
   4  -5   7   12.73    4.80
   4  -5   6   66.57    6.43
   4  -5   6   52.15    6.76
   4  -5   5   51.97    5.64
   4  -5   5   49.09    6.13
   4  -5   4   30.35    5.34
   4  -5   4   28.34    4.24
   4  -5   3   55.74    5.32
   4  -5   3   53.35    5.86
   4  -5   2   39.37    5.13
   4  -5   2   40.82    4.35
  -4   5  -2   45.56    5.09
  -4   5  -2   44.54    5.14
  -4   5  -3   61.73    6.01
  -4   5  -3   54.22    5.85
  -4   5  -4   28.07    4.50
  -4   5  -4   30.89    4.51
  -4   5  -5   47.92    5.82
  -4   5  -5   39.12    4.95
  -4   5  -6   67.64    6.54
  -4   5  -6   59.32    6.56
  -4   5  -7   13.62    4.60
  -4   5  -7    8.01    4.17
  -4   5  -8    5.22    4.28
  -4   5  -8    0.15    4.00
  -4   5  -9    1.91    4.65
  -4   5  -9   -0.04    4.27
  -5   0   0   -0.06    2.65
   5   0   0   -1.06    3.05
   5   0   0    0.46    2.28
  -5   0   0   -1.47    3.41
  -5   0   0   -1.87    2.08
   5   0  -1  180.76    8.22
  -5   0   1  175.11    8.32
   5   0  -1  186.83    9.72
  -5   0   1  171.65    9.59
  -5   0   1  184.17    9.68
  -5   0   2   11.10    3.29
   5   0  -2   16.13    3.61
  -5   0   2    9.42    3.17
   5   0  -2   15.37    3.78
  -5   0   2   12.55    2.95
  -5   0   3    6.22    3.38
   5   0  -3    6.12    2.74
  -5   0   3    8.21    3.06
   5   0  -3    7.72    3.67
  -5   0   3    3.27    2.74
   5   0  -4  329.48   12.48
   5   0  -4  324.14   12.84
  -5   0   4  327.07   13.13
   5   0  -4  304.95   10.97
  -5   0   4  328.87   13.51
   5   0  -5  301.14   12.30
   5   0  -5  293.83   12.67
  -5   0   5  297.93   13.09
  -5   0   5  282.31   12.93
  -5   0   6   31.28    5.26
   5   0  -6   41.27    5.50
   5   0  -6   34.89    5.10
  -5   0   6   26.03    5.01
   5   0  -7   99.12    8.06
   5   0  -7   95.27    7.78
  -5   0   7   96.06    8.49
  -5   0   7   89.73    7.79
   5   0  -8    5.93    4.42
  -5   0   8   -1.18    4.16
   5   0  -9    2.40    4.42
  -5   0   9    5.05    4.53
  -5   0  10   14.15    5.25
  -5   1  10    2.10    4.31
  -5   1   9    9.92    3.88
  -5   1   8    7.69    4.53
  -5   1   7    8.59    3.47
   5  -1   7   11.82    5.00
   5  -1   7   10.46    4.62
  -5   1   7   16.62    4.42
  -5   1   6   16.66    4.23
   5  -1   6   15.73    4.53
   5  -1   6   23.54    5.33
   5  -1   6   16.50    4.47
  -5   1   6   17.19    4.11
   5  -1   5  133.03    9.45
   5  -1   5  133.26    8.46
  -5   1   5  136.73    8.38
   5  -1   5  118.05    8.55
  -5   1   5  115.32    7.94
  -5   1   4    1.40    2.93
   5  -1   4    9.02    3.48
   5  -1   4    7.84    3.44
  -5   1   4    4.36    2.65
   5  -1   4    4.84    2.70
  -5   1   4    8.12    3.01
  -5   1   3   44.17    5.09
   5  -1   3   40.56    5.05
   5  -1   3   45.03    5.06
  -5   1   3   44.59    4.71
  -5   1   3   46.30    4.69
  -5   1   3   34.64    4.18
  -5   1   2   44.85    4.97
   5  -1   2   47.34    5.63
   5  -1   2   44.37    5.08
   5  -1   2   39.43    4.42
  -5   1   2   44.75    4.72
  -5   1   2   41.39    4.29
  -5   1   2   38.84    4.49
  -5   1   1   66.63    5.92
   5  -1   1   68.28    6.16
   5  -1   1   58.52    5.07
  -5   1   1   75.45    6.00
   5  -1   1   64.32    5.44
  -5   1   1   74.19    5.09
   5  -1   1   74.52    6.03
  -5   1   1   68.73    5.70
  -5   1   0   13.24    3.31
   5  -1   0    8.30    2.96
   5  -1   0    8.15    2.74
   5  -1   0    9.22    2.49
  -5   1   0    7.17    2.87
  -5   1   0   11.22    2.97
   5  -1   0    7.34    2.81
  -5   1  -1   75.15    6.14
  -5   1  -1   71.36    5.74
   5  -1  -1   71.62    5.92
   5  -1  -1   63.14    5.44
   5  -1  -1   80.62    6.42
  -5   1  -1   69.52    5.60
  -5   1  -1   75.93    6.63
   5  -1  -2   44.73    5.02
   5  -1  -2   34.95    3.98
   5  -1  -2   41.01    4.15
  -5   1  -2   39.41    4.67
  -5   1  -2   45.56    4.99
  -5   1  -2   31.86    4.47
   5  -1  -2   44.40    5.07
  -5   1  -2   41.40    4.59
  -5   1  -3   44.58    4.63
   5  -1  -3   44.40    5.00
   5  -1  -3   40.90    4.26
   5  -1  -3   48.33    4.74
  -5   1  -3   51.42    5.60
  -5   1  -3   55.29    5.76
  -5   1  -3   48.10    5.51
   5  -1  -3   49.78    5.43
   5  -1  -4    6.40    2.48
   5  -1  -4    4.17    2.69
  -5   1  -4    5.61    3.56
  -5   1  -4    5.57    3.54
   5  -1  -4   13.29    3.90
  -5   1  -5  137.85    8.98
   5  -1  -5  137.24    8.26
   5  -1  -5  124.11    8.16
  -5  -1   5  116.22    8.86
  -5  -1   5  104.42    8.39
  -5   1  -5  107.61    8.03
  -5  -1   6   12.07    4.37
  -5  -1   6   13.88    3.94
   5  -1  -6   15.99    4.11
   5  -1  -6   10.29    3.60
  -5   1  -6   11.29    3.70
  -5  -1   6   13.48    4.49
  -5  -1   7   12.23    4.16
  -5  -1   7   13.83    4.52
   5  -1  -7    9.66    3.91
   5  -1  -7   10.76    4.26
  -5  -1   7   15.34    4.73
  -5  -1   8   14.18    4.35
  -5  -1   8   15.65    5.49
   5  -1  -9   14.94    5.21
  -5  -1   9    9.84    4.88
  -5  -1   9   16.20    5.31
  -5  -1  10    4.19    4.90
  -5  -1  10   12.59    6.09
   5  -2  10   -3.00    5.43
   5  -2  10    4.14    5.49
  -5   2  10    1.44    4.04
   5  -2   9   12.14    4.86
   5  -2   9   -1.09    4.60
  -5   2   9    0.84    3.64
  -5   2   8   37.14    5.74
   5  -2   8   45.15    6.88
   5  -2   8   29.76    5.99
  -5   2   8   35.74    5.62
  -5   2   7   21.19    4.65
   5  -2   7   14.20    4.20
   5  -2   7   14.23    4.63
  -5   2   7   10.22    3.78
  -5   2   6   27.52    4.74
   5  -2   6   24.49    5.08
   5  -2   6   18.67    4.25
   5  -2   6   16.61    4.06
  -5   2   6   13.67    3.53
  -5   2   5   22.49    3.17
   5  -2   5   20.08    4.80
   5  -2   5   22.75    4.30
   5  -2   5   26.41    4.67
   5  -2   5   14.35    3.65
  -5   2   5   16.86    2.98
  -5   2   4   38.81    4.87
   5  -2   4   48.29    5.84
   5  -2   4   31.21    4.58
   5  -2   4   35.28    4.88
  -5   2   4   42.30    4.72
  -5   2   4   44.30    4.89
  -5   2   3   11.02    3.31
   5  -2   3    8.89    3.53
   5  -2   3    9.99    3.03
   5  -2   3    6.60    2.90
  -5   2   3    8.80    3.03
  -5   2   3   10.79    3.15
  -5   2   3   11.40    2.89
   5  -2   2  180.17    8.76
  -5   2   2  165.38    8.62
  -5   2   2  186.74    8.81
   5  -2   2  171.25    8.45
  -5   2   2  189.12    8.21
   5  -2   2  188.88    9.96
   5  -2   2  161.60    8.88
  -5   2   2  178.17    9.04
  -5   2   1   79.26    6.27
   5  -2   1   75.36    5.40
  -5   2   1   75.19    5.88
   5  -2   1   74.78    5.59
   5  -2   1   78.07    6.53
   5  -2   1   80.66    6.17
  -5   2   1   78.16    5.97
  -5   2   0  312.38   12.39
   5  -2   0  304.68   10.22
  -5   2   0  328.27   12.24
  -5   2   0  325.52   10.97
   5  -2   0  317.16   11.52
   5  -2   0  334.35   13.12
  -5   2   0  295.42   11.39
   5  -2   0  306.80   11.59
  -5   2  -1   74.33    6.34
  -5   2  -1   83.82    6.53
  -5   2  -1   87.42    5.84
   5  -2  -1   79.33    6.04
   5  -2  -1   89.88    6.96
  -5   2  -1   80.13    5.79
   5  -2  -1   75.53    5.62
  -5   2  -2  158.11    9.08
  -5   2  -2  192.89    9.58
  -5   2  -2  196.99    9.24
   5  -2  -2  182.82    7.99
   5  -2  -2  183.34    9.12
  -5   2  -2  187.73    8.52
   5  -2  -2  198.70    9.91
   5  -2  -2  186.24    8.61
   5  -2  -3   12.42    3.64
   5  -2  -3    9.03    2.47
   5  -2  -3    8.12    2.79
  -5   2  -3   15.12    3.89
  -5   2  -3    8.88    3.36
   5  -2  -3    9.05    3.40
  -5   2  -3    6.84    3.25
   5  -2  -4   41.50    4.73
   5  -2  -4   46.46    5.10
  -5   2  -4   48.22    5.60
   5  -2  -4   44.92    4.27
  -5   2  -4   40.17    5.04
   5  -2  -4   42.43    5.22
  -5   2  -4   37.08    5.14
   5  -2  -5    9.92    5.11
  -5   2  -5   21.40    4.73
  -5   2  -5   18.89    3.41
  -5   2  -5   16.79    4.22
   5  -2  -5    9.78    6.25
  -5   2  -5   23.45    4.57
  -5   2  -6   18.75    4.33
   5  -2  -6    9.65    3.53
  -5   2  -6   20.26    4.68
  -5   2  -6   16.05    3.98
  -5   2  -6   24.97    4.54
   5  -2  -6   22.89    4.89
   5  -2  -7    5.18    3.90
  -5   2  -7   15.67    5.21
  -5   2  -7   18.09    4.18
   5  -2  -7   16.12    4.66
   5  -2  -8   40.09    6.30
  -5   2  -8   35.72    6.45
   5  -2  -8   36.30    5.71
   5  -2  -9    0.41    4.22
   5  -3  10   -0.32    4.63
   5  -3   9    0.15    4.12
   5  -3   9   -0.78    4.86
  -5   3   9    0.96    3.92
  -5   3   8    0.71    3.13
   5  -3   8    0.76    3.85
   5  -3   8    1.12    4.21
  -5   3   8   -5.53    4.47
  -5   3   7   11.99    3.62
   5  -3   7   16.64    4.91
   5  -3   7   16.07    4.58
  -5   3   7   15.72    4.48
   5  -3   6    8.51    4.42
  -5   3   6    3.93    3.41
   5  -3   6    4.67    3.40
   5  -3   6    4.65    3.72
  -5   3   6    0.30    3.13
  -5   3   5   18.50    3.79
   5  -3   5   10.18    4.20
   5  -3   5   22.72    4.26
   5  -3   5   17.54    3.68
  -5   3   5   17.44    3.62
  -5   3   4   18.70    3.79
   5  -3   4   17.69    4.55
  -5   3   4   18.15    4.03
   5  -3   4   13.75    3.76
   5  -3   4   16.43    3.65
  -5   3   4   10.92    3.08
  -5   3   4   13.34    3.16
   5  -3   3   78.64    6.31
   5  -3   3   91.99    6.63
  -5   3   3   80.88    6.39
  -5   3   3   87.13    6.22
  -5   3   3   80.10    6.00
   5  -3   3   93.43    7.60
  -5   3   3   86.19    6.61
  -5   3   2   28.65    4.37
  -5   3   2   29.41    4.03
   5  -3   2   32.91    4.81
   5  -3   2   27.43    3.87
   5  -3   2   23.14    3.68
  -5   3   2   27.16    3.92
   5  -3   2   30.13    3.82
  -5   3   2   30.35    3.59
  -5   3   1   26.71    3.86
   5  -3   1   27.16    4.89
   5  -3   1   24.91    3.50
   5  -3   1   22.77    3.82
  -5   3   1   22.39    4.16
  -5   3   1   19.86    3.79
   5  -3   1   20.75    3.54
  -5   3   0   26.78    3.69
   5  -3   0   30.10    5.11
   5  -3   0   27.67    3.47
   5  -3   0   24.43    3.82
  -5   3   0   26.12    3.48
  -5   3   0   23.99    3.99
  -5   3   0   25.67    4.35
   5  -3   0   26.37    4.22
  -5   3  -1   21.44    3.51
   5  -3  -1   29.74    5.07
  -5   3  -1   28.08    4.31
   5  -3  -1   25.99    3.88
  -5   3  -1   24.50    3.63
  -5   3  -1   22.70    4.04
   5  -3  -1   29.67    4.45
  -5   3  -2   27.55    3.54
   5  -3  -2   31.66    4.72
  -5   3  -2   31.27    4.56
   5  -3  -2   30.99    3.79
  -5   3  -2   31.31    4.33
   5  -3  -2   28.14    3.88
  -5   3  -2   34.10    4.68
   5  -3  -2   33.92    5.05
   5  -3  -3   86.38    6.17
  -5   3  -3   82.13    6.72
  -5   3  -3   85.23    7.05
  -5   3  -3   92.05    6.96
   5  -3  -3   88.69    6.23
   5  -3  -3   94.43    7.09
   5  -3  -3   89.85    6.96
   5  -3  -4   17.37    4.01
  -5   3  -4   19.99    3.93
   5  -3  -4   13.52    3.66
  -5   3  -4   16.22    4.13
  -5   3  -4   11.56    3.76
   5  -3  -4   12.63    2.76
   5  -3  -4   13.83    3.80
   5  -3  -5   16.75    3.91
  -5   3  -5   20.72    4.07
  -5   3  -5   17.61    4.50
  -5   3  -5   25.25    4.87
   5  -3  -5   29.55    5.28
   5  -3  -6   -1.26    3.33
  -5   3  -6    3.95    4.61
  -5   3  -6    1.93    3.27
  -5   3  -6    8.96    3.88
   5  -3  -6    2.38    3.78
   5  -3  -7   11.88    4.48
  -5   3  -7   14.30    5.46
  -5   3  -7   18.15    4.93
   5  -3  -7   14.55    4.92
   5  -3  -8    5.96    4.91
  -5   3  -8    4.94    4.75
  -5   3  -8   -2.44    4.32
   5  -3  -8   -3.19    4.69
   5  -3  -9    0.57    5.35
  -5   3  -9   -4.93    4.93
  -5   3  -9   -1.28    4.91
   5  -4   9   -1.33    4.79
   5  -4   9    4.05    5.78
   5  -4   8   19.63    5.48
   5  -4   8   21.98    6.08
   5  -4   7  -19.90    7.04
   5  -4   6   65.60    7.95
   5  -4   6   66.92    7.25
   5  -4   6   66.41    7.61
  -5   4   5   56.14    6.02
   5  -4   5   67.65    6.46
   5  -4   5   69.07    7.52
   5  -4   5   60.86    6.39
  -5   4   4    2.06    2.41
   5  -4   4    8.64    4.33
   5  -4   4    6.67    3.15
   5  -4   4    4.95    3.07
  -5   4   4    7.64    3.18
  -5   4   3    7.95    2.89
   5  -4   3    6.97    4.20
   5  -4   3   10.27    3.21
  -5   4   3    9.23    2.94
   5  -4   3   11.64    3.10
  -5   4   3   10.47    3.48
   5  -4   2   58.78    5.43
   5  -4   2   56.34    6.45
  -5   4   2   62.40    5.89
   5  -4   2   56.07    5.66
   5  -4   2   56.91    5.27
  -5   4   2   58.11    5.62
  -5   4   2   49.72    5.33
  -5   4   1    9.44    2.95
   5  -4   1   13.55    4.31
   5  -4   1   16.80    3.40
   5  -4   1   18.60    3.98
  -5   4   1   11.86    3.80
  -5   4   1   12.88    3.62
   5  -4   1   15.16    4.04
   5  -4   0  120.11    7.77
   5  -4   0  119.42    6.81
  -5   4   0  124.81    8.13
  -5   4   0  113.08    7.94
  -5   4   0  123.38    7.08
   5  -4   0  110.43    7.36
  -5   4   0  112.60    7.11
   5  -4   0  118.16    8.57
  -5   4  -1   11.61    2.91
   5  -4  -1   13.07    4.23
  -5   4  -1    9.08    2.86
  -5   4  -1   10.27    3.45
   5  -4  -1   11.93    3.29
  -5   4  -1   10.45    3.82
   5  -4  -1   14.24    3.76
   5  -4  -2   63.08    5.78
   5  -4  -2   58.49    6.28
  -5   4  -2   59.76    5.96
  -5   4  -2   60.57    5.71
  -5   4  -2   51.31    5.73
   5  -4  -2   51.64    5.65
  -5   4  -2   54.64    4.89
   5  -4  -3   10.61    4.32
  -5   4  -3   14.24    3.73
  -5   4  -3   11.92    3.67
  -5   4  -3   10.47    3.84
   5  -4  -3    5.66    2.58
   5  -4  -3   12.14    3.70
   5  -4  -4    4.40    3.96
  -5   4  -4    5.64    3.15
  -5   4  -4    9.00    3.82
  -5   4  -4    5.00    3.46
   5  -4  -4   -2.39    3.81
  -5   4  -5   56.97    5.96
  -5   4  -5   57.59    6.58
  -5   4  -5   66.64    6.60
   5  -4  -5   49.92    6.45
  -5   4  -6   57.54    6.81
  -5   4  -6   63.30    6.25
  -5   4  -6   60.76    6.39
   5  -4  -6   73.49    8.17
  -5   4  -7    8.56    5.83
  -5   4  -8   21.49    5.95
  -5   4  -8   27.86    6.24
  -5   4  -9   -1.38    4.90
   5  -5   9   15.39    7.65
   5  -5   8    5.59    4.58
   5  -5   8   -3.44    5.34
   5  -5   7    0.83    3.74
   5  -5   7    6.21    4.66
   5  -5   6    7.56    5.15
   5  -5   6   15.30    4.46
   5  -5   5    6.32    5.19
   5  -5   5   11.54    4.59
   5  -5   5    2.22    3.33
   5  -5   4  116.59    8.21
   5  -5   4  117.72    8.61
   5  -5   4  102.13    8.89
   5  -5   3   32.89    5.78
   5  -5   3   33.29    4.88
   5  -5   3   34.78    4.76
   5  -5   2   67.81    6.24
   5  -5   2   70.82    6.45
   5  -5   2   70.85    7.21
   5  -5   1   11.72    4.30
   5  -5   1   15.26    3.69
  -5   5   1   15.38    4.10
   5  -5   1    9.29    3.26
   5  -5   0   15.21    4.48
  -5   5   0   22.78    4.04
  -5   5   0   15.22    3.95
  -5   5   0   11.03    3.87
   5  -5   0   11.17    3.12
   5  -5   0    7.33    3.19
   5  -5  -1   15.29    4.05
  -5   5  -1    9.91    3.58
  -5   5  -1   17.76    4.03
  -5   5  -1   19.91    4.47
   5  -5  -1   13.71    3.65
  -5   5  -2   72.22    7.00
  -5   5  -2   76.13    6.75
  -5   5  -2   74.21    6.93
  -5   5  -3   32.93    5.00
  -5   5  -3   39.34    5.43
  -5   5  -3   29.42    4.80
  -5   5  -4  113.39    8.46
  -5   5  -4  122.57    8.83
  -5   5  -4  111.59    8.40
  -5   5  -5    0.19    3.10
  -5   5  -5    1.33    4.15
  -5   5  -5    4.16    3.91
  -5   5  -6   17.74    5.33
  -5   5  -6    6.38    3.29
  -5   5  -7    5.27    5.35
  -5   5  -7    9.08    4.23
  -5   5  -8    8.59    5.38
  -6   0   2   -2.39    3.50
   6   0  -2    4.80    3.51
  -6   0   2   -1.59    3.40
  -6   0   2   -0.42    2.73
  -6   0   3  362.00   15.33
   6   0  -3  376.70   14.31
  -6   0   3  385.81   16.10
  -6   0   4   41.37    6.53
  -6   0   4   38.52    5.41
  -6   0   5  298.65   14.05
  -6   0   5  322.71   15.35
  -6   0   6   21.34    5.28
   6   0  -6   23.90    5.21
  -6   0   6   29.93    5.98
  -6   0   7    2.87    4.10
   6   0  -7   13.73    5.22
  -6   0   7    9.57    4.99
   6   0  -8   -3.00    5.07
  -6   0   8   -3.69    4.74
  -6   0   9    4.76    5.09
  -6   1   9   15.17    5.60
  -6   1   8   19.92    5.66
  -6   1   8   24.76    5.89
  -6   1   7   29.75    6.38
  -6   1   7   17.23    4.90
  -6   1   6   -0.65    4.08
  -6   1   6    2.62    3.76
  -6   1   5   25.00    5.29
  -6   1   5   23.78    4.57
  -6   1   4    8.81    4.03
   6  -1   4   -2.61    4.52
   6  -1   4    7.43    4.52
  -6   1   4    5.22    3.27
  -6   1   3    6.44    3.92
   6  -1   3    1.56    4.69
  -6   1   3    1.86    3.03
  -6   1   3    7.39    3.13
  -6   1   3    7.09    3.40
  -6   1   2   28.88    4.95
   6  -1   2   24.76    5.07
   6  -1   2   31.89    4.79
  -6   1   2   28.51    4.51
  -6   1   2   25.03    4.01
  -6   1   2   25.40    4.84
  -6   1   1    2.49    3.35
   6  -1   1    3.70    3.21
   6  -1   1    6.18    3.11
  -6   1   1    4.20    3.67
  -6   1   1   -0.76    3.66
  -6   1   0  199.88   11.56
  -6   1   0  225.19   11.30
   6  -1   0  205.54   10.64
   6  -1   0  194.02   10.77
  -6   1   0  190.35   10.34
  -6   1  -1   -0.53    3.21
   6  -1  -1    1.59    4.09
   6  -1  -1   -4.26    3.43
  -6   1  -1    5.83    3.63
   6  -1  -1   -1.51    3.23
  -6   1  -1    0.04    3.59
  -6   1  -2   29.85    4.72
   6  -1  -2   25.98    5.05
   6  -1  -2   25.40    4.43
  -6   1  -2   32.17    5.52
  -6   1  -2   32.01    5.55
   6  -1  -2   28.02    4.96
   6  -1  -3    9.88    3.44
   6  -1  -3    2.79    3.40
  -6   1  -3    6.96    4.03
   6  -1  -3    3.49    3.64
   6  -1  -4    6.33    2.93
   6  -1  -4    1.82    3.25
  -6   1  -4   11.66    5.23
   6  -1  -4    3.82    4.14
   6  -1  -5   34.61    5.14
   6  -1  -5   23.24    5.12
   6  -1  -6    0.63    3.63
   6  -1  -6    4.05    4.29
   6  -1  -7   26.31    5.59
   6  -1  -7   17.62    5.16
   6  -1  -8   17.85    5.46
   6  -1  -8   25.49    5.80
  -6   2   8   -1.12    3.99
   6  -2   8   -8.81    5.50
   6  -2   8   -6.76    6.23
  -6   2   8    2.45    4.16
  -6   2   7   -2.51    3.95
   6  -2   7    1.47    4.80
  -6   2   7    0.35    3.50
  -6   2   6   -4.36    3.87
   6  -2   6   -2.34    3.92
   6  -2   6    1.97    4.14
  -6   2   6    2.85    3.44
  -6   2   5   22.74    4.71
   6  -2   5   27.44    5.39
   6  -2   5   20.24    4.65
  -6   2   5   28.15    4.83
  -6   2   4   12.01    3.88
   6  -2   4    7.71    3.74
   6  -2   4    7.81    3.85
   6  -2   4   14.08    4.08
  -6   2   4   10.10    3.88
  -6   2   4   12.03    3.48
  -6   2   3    4.02    3.14
   6  -2   3    5.55    3.80
   6  -2   3    3.40    3.12
   6  -2   3    0.76    3.26
  -6   2   3    4.59    3.37
  -6   2   3   -2.46    3.17
  -6   2   3    1.17    2.66
   6  -2   2   80.03    6.49
  -6   2   2   83.22    7.32
  -6   2   2   80.24    6.83
   6  -2   2   81.35    7.11
   6  -2   2   96.47    8.18
   6  -2   2   72.81    6.83
  -6   2   2   82.08    7.08
  -6   2   1   13.03    3.80
   6  -2   1    9.75    3.89
  -6   2   1    7.61    3.92
   6  -2   1   11.45    3.36
   6  -2   1   12.67    3.73
  -6   2   1    8.76    3.59
   6  -2   1    5.66    3.08
  -6   2   0    2.89    3.16
  -6   2   0    9.11    4.11
   6  -2   0    5.16    3.74
   6  -2   0    3.77    3.01
  -6   2   0    6.40    3.88
   6  -2   0    6.74    3.44
  -6   2  -1   11.64    3.31
   6  -2  -1   10.17    3.88
   6  -2  -1    8.10    3.11
  -6   2  -1    6.40    2.96
  -6   2  -1   16.19    4.33
   6  -2  -1   16.71    4.04
  -6   2  -1   10.83    3.85
  -6   2  -2   83.23    7.78
  -6   2  -2   86.50    7.47
  -6   2  -2   87.75    7.20
   6  -2  -2   78.31    7.13
   6  -2  -2   79.23    7.37
  -6   2  -2   76.34    6.59
   6  -2  -2   79.13    6.60
   6  -2  -3    1.22    3.39
   6  -2  -3   -0.63    2.87
   6  -2  -3    2.86    2.93
  -6   2  -3   -5.19    4.05
  -6   2  -3   -0.56    3.92
   6  -2  -3    4.39    3.88
  -6   2  -3   -1.18    3.37
   6  -2  -4   18.04    4.31
  -6   2  -4   16.96    4.98
   6  -2  -4    9.40    3.15
  -6   2  -4   15.43    4.62
   6  -2  -4    9.97    4.35
  -6   2  -4   11.61    4.74
   6  -2  -5   21.86    4.45
  -6   2  -5   26.41    5.30
  -6   2  -5   23.50    5.29
   6  -2  -5   32.95    5.59
  -6   2  -5   32.62    5.91
  -6   2  -6   -0.35    3.64
   6  -2  -6    3.10    3.73
  -6   2  -6    7.40    4.75
   6  -2  -6    9.83    4.79
   6  -2  -7    3.71    4.17
   6  -2  -7    0.25    4.16
   6  -2  -8   -4.04    4.56
   6  -2  -8   -2.32    4.75
   6  -3   9   -9.68    6.59
  -6   3   8   -2.18    4.16
   6  -3   8    0.38    4.64
  -6   3   8    2.26    4.09
  -6   3   7   -3.26    4.04
   6  -3   7    2.21    4.59
  -6   3   7   -1.71    3.75
   6  -3   6   17.52    6.10
  -6   3   6    9.58    3.78
   6  -3   6   14.36    4.93
   6  -3   6    3.93    4.04
  -6   3   6   16.93    4.87
  -6   3   5   16.26    4.42
   6  -3   5   27.60    5.78
   6  -3   5   22.39    4.86
   6  -3   5   21.83    4.95
  -6   3   5   21.16    4.35
  -6   3   4    0.48    3.40
   6  -3   4    3.54    4.09
   6  -3   4    4.37    3.43
   6  -3   4    7.00    3.78
  -6   3   4    6.00    3.37
  -6   3   4    5.57    3.15
  -6   3   3    2.42    3.31
   6  -3   3    1.99    4.46
  -6   3   3    2.84    3.40
   6  -3   3    6.76    3.47
   6  -3   3    3.09    3.52
  -6   3   3    2.40    3.55
  -6   3   2    3.83    3.30
   6  -3   2    6.39    3.87
   6  -3   2    7.40    3.24
   6  -3   2    9.02    3.60
  -6   3   2    2.45    3.45
  -6   3   2    9.58    3.55
  -6   3   1   24.98    4.52
   6  -3   1   20.28    4.70
   6  -3   1   18.61    3.90
   6  -3   1   17.20    4.16
  -6   3   1   26.45    4.89
  -6   3   1   24.78    4.66
   6  -3   1   18.72    4.02
  -6   3   0    1.48    2.92
   6  -3   0    9.85    4.77
   6  -3   0    6.13    3.01
  -6   3   0   -0.66    3.45
  -6   3   0    1.08    3.74
   6  -3   0    2.23    3.38
  -6   3  -1   21.37    3.97
   6  -3  -1   21.50    5.07
  -6   3  -1   18.78    4.78
   6  -3  -1   21.17    4.26
  -6   3  -1   19.53    4.04
  -6   3  -1   20.05    4.59
   6  -3  -1   13.57    4.16
  -6   3  -2    8.63    3.20
   6  -3  -2   11.76    4.51
  -6   3  -2   11.23    4.12
  -6   3  -2   10.39    3.95
   6  -3  -2    3.01    2.69
  -6   3  -2   12.11    4.67
   6  -3  -2    7.52    4.12
   6  -3  -3    4.60    3.70
  -6   3  -3    2.72    3.61
  -6   3  -3   11.87    4.54
   6  -3  -3    8.73    3.32
  -6   3  -3    2.95    4.00
   6  -3  -3    4.66    4.10
  -6   3  -4    3.89    3.95
   6  -3  -4    6.99    3.75
  -6   3  -4    6.12    3.95
  -6   3  -4    3.87    3.76
   6  -3  -4    5.54    3.09
   6  -3  -4   14.05    4.61
  -6   3  -5   16.67    4.71
   6  -3  -5   16.93    4.29
  -6   3  -5   24.26    5.83
  -6   3  -5   18.00    5.02
   6  -3  -5   23.39    5.39
   6  -3  -6    8.92    4.35
  -6   3  -6   10.08    5.03
  -6   3  -6   10.45    4.57
  -6   3  -6    5.74    4.12
   6  -3  -6    7.04    4.51
   6  -3  -7    5.65    4.79
  -6   3  -7   -9.48    5.58
   6  -3  -7    6.04    4.97
   6  -3  -8    6.45    5.75
   6  -4   7    0.40    4.74
   6  -4   6   19.10    5.34
  -6   4   6   20.72    5.04
   6  -4   6   24.23    5.89
  -6   4   6   21.23    5.16
  -6   4   5    5.91    3.70
   6  -4   5    2.74    4.28
   6  -4   5    1.14    4.23
   6  -4   5   -0.35    3.73
  -6   4   5    4.81    3.09
   6  -4   4  114.71    9.26
   6  -4   4  100.85    8.28
  -6   4   4  118.63    8.55
   6  -4   4  123.34   10.05
  -6   4   4  115.52    9.01
  -6   4   3    8.38    4.00
   6  -4   3    5.82    4.80
   6  -4   3   15.01    4.34
   6  -4   3   15.14    4.53
  -6   4   3    7.89    3.68
  -6   4   3    8.55    3.82
  -6   4   2   48.60    5.89
   6  -4   2   51.54    6.80
   6  -4   2   49.45    5.60
   6  -4   2   52.65    6.51
  -6   4   2   60.13    6.58
  -6   4   2   37.43    5.52
  -6   4   1    3.58    2.87
   6  -4   1    6.22    4.00
   6  -4   1    3.21    2.92
   6  -4   1    3.19    3.38
  -6   4   1    6.85    3.55
  -6   4   1   -4.80    4.00
   6  -4   1    6.06    3.82
  -6   4   0   15.04    3.75
   6  -4   0   16.48    5.32
  -6   4   0   15.88    4.68
   6  -4   0   13.95    3.95
  -6   4   0   17.51    4.89
   6  -4   0    7.32    3.68
  -6   4  -1    1.04    2.77
   6  -4  -1    5.71    4.64
  -6   4  -1   -2.32    3.79
  -6   4  -1    9.41    4.13
   6  -4  -1    0.05    3.05
  -6   4  -1    7.57    4.24
   6  -4  -1    6.37    4.03
  -6   4  -2   45.62    5.99
   6  -4  -2   49.52    6.60
  -6   4  -2   47.51    5.89
   6  -4  -2   49.69    6.02
  -6   4  -2   38.39    6.06
   6  -4  -2   51.43    6.34
   6  -4  -3   10.65    4.82
  -6   4  -3   13.58    4.78
  -6   4  -3    1.95    3.98
   6  -4  -3   11.86    3.79
   6  -4  -3   13.69    4.58
  -6   4  -3   12.86    4.01
   6  -4  -4   95.64    7.25
  -6   4  -4  107.36    8.88
  -6   4  -4  108.99    9.03
  -6   4  -4  107.07    8.66
   6  -4  -4  103.82    9.03
  -6   4  -5   -1.68    3.78
   6  -4  -5    2.09    3.91
  -6   4  -5    1.35    4.31
  -6   4  -5    5.22    4.49
   6  -4  -5    0.24    4.27
  -6   4  -6   20.55    4.70
   6  -4  -6   30.57    6.08
  -6   4  -6   27.20    6.15
   6  -4  -6   25.81    6.55
   6  -4  -7    0.31    4.83
  -6   4  -7   -6.30    5.26
   6  -4  -7   -0.50    5.89
   6  -5   7   17.73    6.17
   6  -5   6   32.26    7.46
   6  -5   6   21.35    6.14
   6  -5   5    7.54    5.10
   6  -5   5    0.22    3.86
   6  -5   5    2.25    3.61
   6  -5   4    5.60    5.08
   6  -5   4    8.72    3.88
   6  -5   4    6.78    4.25
  -6   5   3   -2.85    3.09
   6  -5   3    6.71    4.93
   6  -5   3    3.97    3.82
   6  -5   3   -7.92    4.39
  -6   5   3    0.61    3.74
  -6   5   2   21.58    4.23
   6  -5   2   21.70    5.65
   6  -5   2   22.05    4.58
   6  -5   2   32.40    5.90
  -6   5   2   19.59    4.87
  -6   5   1   41.30    5.54
   6  -5   1   45.93    6.92
   6  -5   1   48.56    5.83
   6  -5   1   47.81    6.01
  -6   5   1   52.46    6.50
  -6   5   1   48.19    6.18
   6  -5   1   51.78    6.09
  -6   5   0    4.57    2.60
   6  -5   0    4.39    4.25
   6  -5   0    7.42    3.42
  -6   5   0    9.97    4.52
   6  -5   0    4.54    3.84
  -6   5   0    9.20    3.86
  -6   5  -1   46.53    5.37
   6  -5  -1   43.81    6.31
  -6   5  -1   62.44    6.75
  -6   5  -1   48.85    6.49
  -6   5  -1   49.66    6.50
   6  -5  -1   51.18    6.15
   6  -5  -1   41.97    5.54
   6  -5  -2   16.97    4.98
  -6   5  -2   26.24    4.91
  -6   5  -2   20.76    4.52
  -6   5  -2   24.64    5.33
   6  -5  -2   28.25    4.73
   6  -5  -2   23.00    5.13
  -6   5  -3   -2.40    3.65
   6  -5  -3   -2.26    4.45
  -6   5  -3   -7.12    4.79
  -6   5  -3    0.86    4.25
   6  -5  -3    5.34    4.37
  -6   5  -4    5.25    3.37
  -6   5  -4    9.69    4.91
  -6   5  -4   13.59    5.27
  -6   5  -5    3.40    4.97
  -6   5  -5    0.59    3.72
  -6   5  -5    9.58    5.12
  -6   5  -6   27.93    7.15
  -6   5  -6   16.31    4.73
   6  -6   6    0.37    6.12
   6  -6   5   -2.33    5.95
   6  -6   5   -4.26    4.29
   6  -6   4   12.88    5.76
  -6   6  -4    4.43    4.68
  -6   6  -4   -0.10    4.49
  -6   6  -5    7.05    5.35
  -6   6  -5    3.09    4.57
  -7   0   7   28.90    6.43
  -7   1   8   -8.37    5.80
  -7   1   7    0.94    4.80
  -7   1   7   -0.50    4.37
  -7   1   6    0.50    5.06
  -7   1   6    3.01    3.95
  -7   1   5   19.54    5.87
  -7   1   5   26.97    5.72
  -7   1   4   15.66    5.36
  -7   1   4    5.48    3.39
  -7   1   3   22.26    5.21
  -7   1   3   13.47    4.86
  -7   1   2   17.91    4.76
  -7   1   2   21.53    5.53
  -7   1   1    3.41    4.26
   7  -1   1   -1.79    4.15
  -7   1   1    0.59    4.12
  -7   1   0    5.31    4.57
   7  -1   0    7.59    4.67
  -7   1   0    2.94    4.37
  -7   1  -1    1.94    4.16
   7  -1  -1   -0.90    3.67
  -7   1  -1   -8.63    6.05
   7  -1  -2   21.53    4.79
   7  -1  -2   18.52    5.18
   7  -1  -3   18.54    4.48
   7  -1  -3   27.95    6.02
   7  -1  -4   -1.65    4.61
   7  -1  -5   18.06    5.10
   7  -1  -6    5.58    4.66
   7  -1  -6    1.22    4.84
   7  -1  -7   -1.62    5.08
  -7   2   7   -3.79    4.98
  -7   2   7   -1.05    4.52
  -7   2   6   14.17    5.43
  -7   2   6   13.58    4.91
  -7   2   5    2.54    4.40
   7  -2   5    2.61    4.43
   7  -2   5    8.27    5.50
  -7   2   5   -4.28    4.09
  -7   2   4    6.67    4.29
   7  -2   4   -5.62    4.63
   7  -2   4    2.14    4.26
  -7   2   3    5.59    4.04
   7  -2   3    6.17    3.80
   7  -2   3    2.11    3.77
  -7   2   3    7.86    4.84
  -7   2   3    7.69    4.12
  -7   2   2   14.89    4.84
  -7   2   2    6.93    3.97
   7  -2   2    2.47    3.36
   7  -2   2   15.64    5.04
  -7   2   2   11.03    4.43
  -7   2   1    2.96    3.48
   7  -2   1    1.66    4.43
  -7   2   1    1.69    3.83
   7  -2   1   -0.71    3.46
  -7   2   1    4.25    3.99
  -7   2   0  129.99   10.46
  -7   2   0  150.68   10.39
   7  -2   0  124.45    9.01
   7  -2   0  139.46   10.54
  -7   2   0  139.69    9.98
   7  -2   0  130.48    9.44
  -7   2  -1    1.03    3.72
  -7   2  -1    7.03    4.49
   7  -2  -1   -3.49    4.39
   7  -2  -1    1.09    3.31
  -7   2  -1   -3.90    4.80
   7  -2  -1    0.66    3.60
  -7   2  -2    4.26    4.27
   7  -2  -2    9.87    4.43
   7  -2  -2    7.28    3.83
  -7   2  -2    6.61    4.52
   7  -2  -2    4.50    4.11
   7  -2  -3    6.48    3.88
   7  -2  -3    7.51    3.65
  -7   2  -3    3.28    4.14
   7  -2  -3    7.60    3.92
  -7   2  -3   -3.38    5.02
  -7   2  -4   -1.16    4.29
   7  -2  -4   11.07    4.82
  -7   2  -5   -1.92    4.24
   7  -2  -5    3.68    3.95
   7  -2  -5    2.62    4.69
   7  -2  -6    9.01    4.40
   7  -2  -6   10.00    4.75
  -7   3   7   -0.63    4.62
  -7   3   7    2.04    4.52
  -7   3   6    5.48    4.15
   7  -3   6   -6.20    5.48
   7  -3   6   11.08    5.62
  -7   3   6    6.92    4.06
  -7   3   5   -0.92    4.03
   7  -3   5   -1.93    4.00
   7  -3   5   -3.08    4.46
  -7   3   4    6.40    3.85
   7  -3   4    6.98    4.74
   7  -3   4   -5.08    4.41
   7  -3   4    7.70    4.36
  -7   3   3   16.32    4.75
   7  -3   3   23.39    6.50
  -7   3   3   21.68    5.63
   7  -3   3    8.86    4.62
   7  -3   3   16.94    5.08
  -7   3   3   16.06    4.85
  -7   3   2    9.11    4.19
   7  -3   2    6.40    4.11
   7  -3   2    2.60    3.26
   7  -3   2    6.59    3.93
  -7   3   2    1.14    4.24
  -7   3   2    4.33    4.26
  -7   3   1    2.26    3.56
   7  -3   1    3.40    5.33
   7  -3   1    3.48    3.51
  -7   3   1   -3.45    4.18
  -7   3   1    5.23    4.05
   7  -3   1    1.68    3.78
  -7   3   0   -0.59    3.67
   7  -3   0   12.13    5.63
   7  -3   0   -4.23    3.55
  -7   3   0    2.58    3.83
  -7   3   0    1.09    4.50
   7  -3   0    5.14    3.90
  -7   3  -1   -6.66    4.10
  -7   3  -1   -0.59    4.31
   7  -3  -1    0.12    3.51
  -7   3  -1   -6.86    4.82
   7  -3  -1   -1.05    4.14
   7  -3  -2   10.65    4.84
  -7   3  -2    3.57    4.43
  -7   3  -2    9.00    4.35
   7  -3  -2    1.34    3.45
  -7   3  -2    8.26    4.84
   7  -3  -2    9.66    4.35
   7  -3  -3   17.52    5.67
  -7   3  -3   11.14    5.05
  -7   3  -3   26.98    6.27
  -7   3  -3   20.02    7.11
   7  -3  -3   14.16    4.24
   7  -3  -3   25.15    5.81
  -7   3  -4    9.64    4.98
  -7   3  -4    2.32    4.29
  -7   3  -4    0.87    5.12
   7  -3  -4    3.05    4.55
  -7   3  -5    1.52    4.28
  -7   3  -5    0.17    4.82
  -7   3  -5   -2.33    4.71
   7  -3  -5    2.17    4.72
   7  -3  -6   16.45    5.58
  -7   3  -6    2.06    4.54
  -7   4   6   28.04    6.09
   7  -4   6   35.01    6.78
  -7   4   6   38.87    7.21
   7  -4   5   -1.28    5.27
  -7   4   5    0.67    3.83
   7  -4   5   -1.17    4.26
   7  -4   5   -2.71    4.67
  -7   4   4   -4.02    3.98
   7  -4   4   -3.64    5.87
   7  -4   4    3.95    4.46
   7  -4   4   -4.03    4.93
  -7   4   4    1.30    4.38
  -7   4   3   -4.77    4.09
   7  -4   3    6.37    5.32
  -7   4   3    5.50    4.27
   7  -4   3   -5.93    4.00
   7  -4   3    8.10    4.52
  -7   4   3   -8.53    4.94
  -7   4   2    9.89    4.01
   7  -4   2   21.27    5.95
   7  -4   2    9.25    3.78
   7  -4   2   12.57    4.86
  -7   4   2    6.61    4.52
  -7   4   2   10.96    4.84
  -7   4   1    6.17    4.06
   7  -4   1    3.65    5.11
  -7   4   1    6.53    4.53
   7  -4   1    7.26    4.64
  -7   4   1    4.97    4.84
   7  -4   1    3.10    4.40
  -7   4   0   34.38    5.54
   7  -4   0   42.87    7.16
  -7   4   0   27.13    5.80
   7  -4   0   39.58    6.19
  -7   4   0   46.80    7.11
   7  -4   0   34.89    6.03
  -7   4  -1   -6.58    3.80
  -7   4  -1    0.72    3.74
   7  -4  -1    8.42    5.54
  -7   4  -1   11.22    5.39
   7  -4  -1    1.88    3.46
   7  -4  -1   12.32    4.97
   7  -4  -2   13.20    5.48
  -7   4  -2   14.21    4.72
  -7   4  -2    9.05    5.15
   7  -4  -2   11.53    4.62
   7  -4  -2   17.45    5.58
  -7   4  -2   10.31    4.62
   7  -4  -3    3.85    5.03
  -7   4  -3   -2.26    4.95
  -7   4  -3    8.23    4.95
   7  -4  -3    3.31    3.79
   7  -4  -3   -0.63    4.57
  -7   4  -3    3.57    4.16
  -7   4  -4   -4.58    5.06
  -7   4  -4    2.36    4.80
   7  -4  -4   -0.58    3.56
   7  -4  -4    4.06    5.06
  -7   4  -4   -4.49    4.99
  -7   4  -5   -6.48    5.32
  -7   4  -5    4.79    5.46
  -7   4  -5   -8.50    5.93
  -7   4  -6   23.28    6.05
   7  -4  -6   23.34    6.15
  -7   4  -6   25.02    6.97
   7  -5   5   -4.61    4.82
   7  -5   5    0.70    5.00
  -7   5   4   32.81    6.43
   7  -5   4   30.26    6.37
   7  -5   4   42.25    7.26
  -7   5   3    1.53    3.86
   7  -5   3   -0.38    5.62
   7  -5   3    0.62    3.66
   7  -5   3   -0.65    4.32
  -7   5   3   -4.06    4.97
  -7   5   2    6.80    4.24
  -7   5   2   10.84    4.72
   7  -5   2    8.60    6.46
   7  -5   2    5.48    3.94
   7  -5   2   11.38    4.51
  -7   5   1    7.65    4.27
  -7   5   1    1.79    3.51
   7  -5   1    9.32    5.08
  -7   5   1    5.63    5.71
   7  -5   1    3.59    4.06
  -7   5   0    1.87    3.55
   7  -5   0    0.36    5.22
  -7   5   0   -3.19    4.56
  -7   5   0   -1.00    4.86
   7  -5   0    4.66    4.63
   7  -5   0    8.32    5.08
  -7   5  -1   -0.59    4.33
   7  -5  -1   16.99    6.19
  -7   5  -1    0.46    5.40
   7  -5  -1    7.80    4.25
   7  -5  -1    0.32    4.48
  -7   5  -2    1.07    4.21
   7  -5  -2    4.75    5.48
  -7   5  -2    4.94    4.58
  -7   5  -2   17.73    6.38
   7  -5  -2   12.37    4.48
   7  -5  -2    7.56    5.24
   7  -5  -3    2.89    5.62
  -7   5  -3   -0.30    4.56
  -7   5  -3    2.31    5.05
   7  -5  -3   -4.94    5.31
  -7   5  -3    0.84    4.68
  -7   5  -4   36.38    7.14
  -7   5  -4   34.34    7.31
  -7   5  -4   20.09    5.74
  -7   5  -5   11.79    5.20
   7  -6   4   -5.65    4.31
   7  -6   3   -5.51    4.18
   7  -6   2    1.19    3.87
  -7   6  -2    3.14    4.09
  -7   6  -3    2.02    4.47
  -8   1   6   -3.02    4.79
  -8   1   5    6.89    5.69
  -8   1   4   -2.15    4.69
  -8   2   4   -0.72    4.46
  -8   2   3    7.59    4.18
  -8   2   2    2.68    4.27
  -8   2   2    0.82    4.72
   8  -2   2   -6.71    5.59
  -8   2   1   -0.03    4.31
  -8   2   1    0.41    5.68
   8  -2   1    2.55    4.49
  -8   2   0    1.47    4.48
  -8   2   0    4.25    5.41
   8  -2   0    6.02    4.63
  -8   2  -1   -4.21    4.96
  -8   2  -1   -1.84    5.58
   8  -2  -1    4.95    4.37
  -8   2  -2   -1.57    5.35
   8  -2  -2    0.38    4.42
   8  -2  -2    6.51    4.51
   8  -2  -3    9.12    5.03
   8  -3   4    1.97    4.98
   8  -3   4    7.57    6.20
  -8   3   3    7.87    4.91
   8  -3   3    5.13    4.41
   8  -3   3    1.32    4.40
  -8   3   3   -3.33    4.76
  -8   3   2    2.19    4.22
   8  -3   2    1.87    4.79
  -8   3   2    1.97    4.81
  -8   3   2   -2.28    5.06
  -8   3   1   -3.41    4.53
   8  -3   1    1.90    5.16
   8  -3   1   -2.31    4.40
  -8   3   1    0.42    4.82
   8  -3   1    0.66    4.40
  -8   3   1    1.44    4.60
  -8   3   0    5.97    4.54
   8  -3   0   -2.58    5.73
   8  -3   0    7.07    4.73
  -8   3   0    6.04    5.05
  -8   3   0    7.37    4.84
   8  -3   0   -3.88    4.46
  -8   3  -1   -0.70    4.13
   8  -3  -1    4.31    5.01
   8  -3  -1   -5.05    4.34
  -8   3  -1  -11.97    6.45
  -8   3  -1    3.64    5.25
   8  -3  -1    5.21    5.12
   8  -3  -2   -8.20    5.30
  -8   3  -2   -4.54    5.04
   8  -3  -2    1.69    4.38
   8  -3  -2    7.00    5.38
   8  -3  -3   16.38    6.11
  -8   3  -3    5.25    5.82
   8  -3  -3    3.61    4.65
   8  -4   3    0.92    4.79
  -8   4   2    0.74    4.81
   8  -4   2   -1.30    5.07
  -8   4   2   14.28    5.86
  -8   4   1   -4.53    4.58
   8  -4   1    4.26    4.22
  -8   4   0   -4.04    4.63
  -8   4   0    7.82    5.59
   8  -4   0   -1.59    4.34
   8  -4   0   -0.54    5.05
  -8   4  -1   -2.14    5.17
   8  -4  -1    2.41    4.26
  -8   4  -2    9.02    5.50
   8  -4  -2   12.42    4.81
   8  -4  -3    4.60    4.58
  -8   5   0    0.92    4.23
   0   0   0    0.00    0.00


TITL 1a in P2(1)2(1)2(1)
REM P2(1)2(1)2(1) (#19 in standard setting)
CELL 0.71073   7.054152   8.777431  10.104132  90.0000  90.0000  90.0000
ZERR    4.00   0.000406   0.001435   0.000467   0.0000   0.0000   0.0000
LATT -1
SYMM -x+1/2,-y, z+1/2
SYMM -x, y+1/2,-z+1/2
SYMM  x+1/2,-y+1/2,-z
SFAC C H N Cl
UNIT 16.00 8.00 20.00 4.00
TREF
HKLF 4
END
_computing_structure_solution     'SHELXT 2018/2 (Sheldrick, 2018)'
;
_shelx_hkl_checksum              72749
_olex2_submission_special_instructions 'No special instructions were received'
_oxdiff_exptl_absorpt_empirical_details
;
Empirical correction (ABSPACK) includes:
- Absorption correction using spherical harmonics
- Frame scaling
;
_oxdiff_exptl_absorpt_empirical_full_max 1.612
_oxdiff_exptl_absorpt_empirical_full_min 0.660
loop_
_space_group_symop_operation_xyz
'x, y, z'
'-x+1/2, -y, z+1/2'
'-x, y+1/2, -z+1/2'
'x+1/2, -y+1/2, -z'
loop_
_atom_site_label
_atom_site_type_symbol
_atom_site_fract_x
_atom_site_fract_y
_atom_site_fract_z
_atom_site_U_iso_or_equiv
_atom_site_adp_type
_atom_site_occupancy
_atom_site_site_symmetry_order
_atom_site_calc_flag
_atom_site_refinement_flags_posn
_atom_site_refinement_flags_adp
_atom_site_refinement_flags_occupancy
_atom_site_disorder_assembly
_atom_site_disorder_group
Cl1 Cl 0.29094(18) 0.3347(3) 0.32212(14) 0.0727(10) Uani 1 1 d . . . . .
N4 N 0.3549(5) 0.7495(10) 0.4133(4) 0.047(3) Uani 1 1 d . . . . .
N5 N 0.3656(5) 0.5974(11) 0.4187(4) 0.046(2) Uani 1 1 d . . . . .
N3 N 0.4259(6) 0.8387(12) 0.5058(4) 0.058(3) Uani 1 1 d . . . . .
N2 N 0.3883(8) 0.9788(11) 0.4665(6) 0.072(4) Uani 1 1 d . . . . .
N1 N 0.2961(7) 0.9829(10) 0.3471(5) 0.059(4) Uani 1 1 d . . . . .
C9 C 0.2757(6) 0.8368(11) 0.3166(4) 0.037(3) Uani 1 1 d . . . . .
C7 C 0.2010(7) 0.6045(12) 0.2088(5) 0.053(3) Uani 1 1 d . . . . .
H7 H 0.148234 0.547882 0.140270 0.063 Uiso 1 1 calc R U . . .
C6 C 0.2870(6) 0.5322(11) 0.3175(4) 0.040(2) Uani 1 1 d . . . . .
C8 C 0.1970(7) 0.7580(11) 0.2067(5) 0.051(3) Uani 1 1 d . . . . .
H8 H 0.144484 0.810539 0.135687 0.061 Uiso 1 1 calc R U . . .
loop_
_atom_site_aniso_label
_atom_site_aniso_U_11
_atom_site_aniso_U_22
_atom_site_aniso_U_33
_atom_site_aniso_U_23
_atom_site_aniso_U_13
_atom_site_aniso_U_12
Cl1 0.0781(9) 0.043(3) 0.0974(10) -0.0016(13) 0.0241(7) -0.0017(10)
N4 0.050(2) 0.052(10) 0.038(2) -0.007(3) 0.0016(16) -0.003(2)
N5 0.055(2) 0.031(9) 0.050(2) 0.001(3) 0.0024(18) 0.001(3)
N3 0.081(3) 0.038(10) 0.056(2) -0.016(4) -0.008(2) -0.012(3)
N2 0.090(4) 0.038(14) 0.088(4) -0.021(4) 0.011(3) -0.015(3)
N1 0.072(3) 0.033(12) 0.071(3) -0.010(4) 0.008(2) -0.006(3)
C9 0.050(2) 0.016(11) 0.044(2) 0.010(4) 0.0043(18) -0.001(3)
C7 0.059(3) 0.059(11) 0.040(2) -0.010(4) -0.003(2) -0.007(4)
C6 0.054(3) 0.012(8) 0.055(2) 0.005(4) 0.012(2) -0.003(3)
C8 0.057(3) 0.059(11) 0.038(2) 0.005(4) -0.002(2) 0.001(3)
loop_
_atom_type_symbol
_atom_type_description
_atom_type_scat_dispersion_real
_atom_type_scat_dispersion_imag
_atom_type_scat_source
C C 0.0033 0.0016 'International Tables Vol C Tables 4.2.6.8 and 6.1.1.4'
H H 0.0000 0.0000 'International Tables Vol C Tables 4.2.6.8 and 6.1.1.4'
Cl Cl 0.1484 0.1585 'International Tables Vol C Tables 4.2.6.8 and 6.1.1.4'
N N 0.0061 0.0033 'International Tables Vol C Tables 4.2.6.8 and 6.1.1.4'
loop_
_geom_angle_atom_site_label_1
_geom_angle_atom_site_label_2
_geom_angle_atom_site_label_3
_geom_angle
_geom_angle_site_symmetry_1
_geom_angle_site_symmetry_3
_geom_angle_publ_flag
N5 N4 C9 127.8(6) . . ?
N3 N4 N5 122.8(6) . . ?
N3 N4 C9 109.3(8) . . ?
C6 N5 N4 112.6(6) . . ?
N4 N3 N2 105.3(6) . . ?
N3 N2 N1 112.6(8) . . ?
C9 N1 N2 103.3(7) . . ?
N4 C9 C8 116.6(8) . . ?
N1 C9 N4 109.4(5) . . ?
N1 C9 C8 134.0(7) . . ?
C6 C7 H7 120.9 . . ?
C8 C7 H7 120.9 . . ?
C8 C7 C6 118.2(6) . . ?
N5 C6 Cl1 114.4(6) . . ?
N5 C6 C7 127.0(10) . . ?
C7 C6 Cl1 118.6(6) . . ?
C9 C8 H8 121.1 . . ?
C7 C8 C9 117.8(6) . . ?
C7 C8 H8 121.1 . . ?
loop_
_geom_bond_atom_site_label_1
_geom_bond_atom_site_label_2
_geom_bond_distance
_geom_bond_site_symmetry_2
_geom_bond_publ_flag
Cl1 C6 1.735(9) . ?
N4 N5 1.338(6) . ?
N4 N3 1.318(10) . ?
N4 C9 1.362(9) . ?
N5 C6 1.296(8) . ?
N3 N2 1.319(10) . ?
N2 N1 1.371(8) . ?
N1 C9 1.327(11) . ?
C9 C8 1.421(8) . ?
C7 H7 0.9300 . ?
C7 C6 1.406(9) . ?
C7 C8 1.348(8) . ?
C8 H8 0.9300 . ?
loop_
_geom_torsion_atom_site_label_1
_geom_torsion_atom_site_label_2
_geom_torsion_atom_site_label_3
_geom_torsion_atom_site_label_4
_geom_torsion
_geom_torsion_site_symmetry_1
_geom_torsion_site_symmetry_2
_geom_torsion_site_symmetry_3
_geom_torsion_site_symmetry_4
_geom_torsion_publ_flag
N4 N5 C6 Cl1 -178.2(3) . . . . ?
N4 N5 C6 C7 1.4(7) . . . . ?
N4 N3 N2 N1 -1.3(5) . . . . ?
N4 C9 C8 C7 2.2(8) . . . . ?
N5 N4 N3 N2 -180.0(4) . . . . ?
N5 N4 C9 N1 -179.2(4) . . . . ?
N5 N4 C9 C8 -1.0(7) . . . . ?
N3 N4 N5 C6 -179.9(4) . . . . ?
N3 N4 C9 N1 0.0(5) . . . . ?
N3 N4 C9 C8 178.2(4) . . . . ?
N3 N2 N1 C9 1.3(5) . . . . ?
N2 N1 C9 N4 -0.8(5) . . . . ?
N2 N1 C9 C8 -178.5(5) . . . . ?
N1 C9 C8 C7 179.8(5) . . . . ?
C9 N4 N5 C6 -0.7(7) . . . . ?
C9 N4 N3 N2 0.7(5) . . . . ?
C6 C7 C8 C9 -1.7(8) . . . . ?
C8 C7 C6 Cl1 179.4(4) . . . . ?
C8 C7 C6 N5 -0.2(8) . . . . ?
