#------------------------------------------------------------------------------
#$Date: 2022-01-01 07:13:54 +0200 (Sat, 01 Jan 2022) $
#$Revision: 271676 $
#$URL: file:///home/coder/svn-repositories/cod/cif/1/56/58/1565889.cif $
#------------------------------------------------------------------------------
#
# This file is available in the Crystallography Open Database (COD),
# http://www.crystallography.net/. The original data for this entry
# were provided by IUCr Journals, http://journals.iucr.org/.
#
# The file may be used within the scientific community so long as
# proper attribution is given to the journal article from which the
# data were obtained.
#
data_1565889
loop_
_publ_author_name
'Olejniczak, Anna'
'Katrusiak, Anna'
'Podsiad\/lo, Marcin'
'Katrusiak, Andrzej'
_publ_section_title
;
 Stochastic hydration of a high-nitrogen-content molecular compound
 recrystallized under pressure
;
_journal_issue                   1
_journal_name_full               IUCrJ
_journal_page_first              49
_journal_page_last               54
_journal_paper_doi               10.1107/S2052252521010381
_journal_volume                  9
_journal_year                    2022
_chemical_formula_moiety         'C4 H2 Cl N5'
_chemical_formula_sum            'C4 H2 Cl N5'
_chemical_formula_weight         155.56
_chemical_name_systematic        6-chloro-1,2,3,4-tetrazolo[1,5-b]pyridazine
_space_group_crystal_system      monoclinic
_space_group_IT_number           14
_space_group_name_Hall           '-P 2ybc'
_space_group_name_H-M_alt        'P 1 21/c 1'
_atom_sites_solution_hydrogens   geom
_atom_sites_solution_primary     direct
_audit_creation_date             2020-07-14
_audit_creation_method
;
Olex2 1.3
(compiled 2020.06.28 svn.raecde09e for OlexSys, GUI svn.r6132)
;
_cell_angle_alpha                90
_cell_angle_beta                 100.793(19)
_cell_angle_gamma                90
_cell_formula_units_Z            4
_cell_length_a                   7.824(4)
_cell_length_b                   13.0789(6)
_cell_length_c                   5.6290(4)
_cell_measurement_reflns_used    1140
_cell_measurement_temperature    296(2)
_cell_measurement_theta_max      26.6830
_cell_measurement_theta_min      3.9930
_cell_volume                     565.8(3)
_computing_cell_refinement       'CrysAlisPro 1.171.40.67a (Rigaku OD, 2019)'
_computing_data_collection       'CrysAlisPro 1.171.40.67a (Rigaku OD, 2019)'
_computing_data_reduction        'CrysAlisPro 1.171.40.67a (Rigaku OD, 2019)'
_computing_molecular_graphics    'Olex2 1.3 (Dolomanov et al., 2009)'
_computing_publication_material  'Olex2 1.3 (Dolomanov et al., 2009)'
_computing_structure_refinement  'SHELXL 2018/3 (Sheldrick, 2015)'
_computing_structure_solution    'SHELXT 2018/2 (Sheldrick, 2018)'
_diffrn_ambient_environment      'diamond-anvil cell'
_diffrn_ambient_pressure         400000
_diffrn_ambient_temperature      296
_diffrn_detector                 'CCD plate'
_diffrn_detector_area_resol_mean 16.2413
_diffrn_detector_type            Eos
_diffrn_measured_fraction_theta_full 0.376
_diffrn_measured_fraction_theta_max 0.339
_diffrn_measurement_details
;
List of Runs (angles in degrees, time in seconds):

  # Type    Start    End  Width  t~exp~   \w     \q     \k     \f   Frames
--------------------------------------------------------------------------
  1  \f    -35.00  19.75   0.75   20.00   0.00 -30.00   0.00    --    73
  2  \f    140.00 200.00   0.75   20.00   0.00 -30.00   0.00    --    80
  3  \f    160.00 217.00   0.75   20.00   0.00  30.00   0.00    --    76
  4  \f    -20.00  34.75   0.75   20.00   0.00  30.00   0.00    --    73
  5  \w    -24.00  24.00   0.75   20.00    --   30.00  39.46 -12.90   64
  6  \w    -24.00  24.00   0.75   20.00    --   30.00  39.46 167.10   64
  7  \w    -50.00  10.00   0.75   20.00    --  -30.00  39.46 167.10   80
  8  \w    -50.00  10.00   0.75   20.00    --  -30.00  39.46 -12.90   80
  9  \w    -64.00  -8.50   0.75   20.00    --  -30.00  81.40 -28.90   74
 10  \w    -64.00  -8.50   0.75   20.00    --  -30.00  81.40 151.10   74
 11  \w    -19.00   8.00   0.75   20.00    --   30.00  81.40 151.10   36
 12  \w    -19.00   8.00   0.75   20.00    --   30.00  81.40 -28.90   36
 13  \w    -43.00 -21.25   0.75   20.00    --   30.00 134.60 -56.90   29
 14  \w    -43.00 -21.25   0.75   20.00    --   30.00 134.60 123.10   29
 15  \w    -90.00 -36.00   0.75   20.00    --  -30.00 134.60 123.10   72
 16  \w    -90.00 -36.00   0.75   20.00    --  -30.00 134.60 -56.90   72
;
_diffrn_measurement_device       'four-circle diffractometer'
_diffrn_measurement_device_type  'KM-4 CCD'
_diffrn_measurement_method
;
HP omega scans - for more details see:
A. Budzianowski, A. Katrusiak in High-Pressure Crystallography
(Eds.: A. Katrusiak, P. F. McMillan),
Dordrecht: Kluwer Acad. Publ., 2004 pp.157-168
;
_diffrn_orient_matrix_type
'CrysAlisPro convention (1999,Acta A55,543-557)'
_diffrn_orient_matrix_UB_11      0.0911674000
_diffrn_orient_matrix_UB_12      0.0080315000
_diffrn_orient_matrix_UB_13      0.0265641000
_diffrn_orient_matrix_UB_21      0.0137854000
_diffrn_orient_matrix_UB_22      -0.0536297000
_diffrn_orient_matrix_UB_23      -0.0002176000
_diffrn_orient_matrix_UB_31      0.0016979000
_diffrn_orient_matrix_UB_32      0.0017873000
_diffrn_orient_matrix_UB_33      -0.1255204000
_diffrn_radiation_monochromator  graphite
_diffrn_radiation_probe          x-ray
_diffrn_radiation_type           'Mo K\a'
_diffrn_radiation_wavelength     0.71073
_diffrn_reflns_av_R_equivalents  0.0259
_diffrn_reflns_av_unetI/netI     0.0196
_diffrn_reflns_Laue_measured_fraction_full 0.376
_diffrn_reflns_Laue_measured_fraction_max 0.339
_diffrn_reflns_limit_h_max       4
_diffrn_reflns_limit_h_min       -4
_diffrn_reflns_limit_k_max       16
_diffrn_reflns_limit_k_min       -16
_diffrn_reflns_limit_l_max       7
_diffrn_reflns_limit_l_min       -7
_diffrn_reflns_number            3186
_diffrn_reflns_point_group_measured_fraction_full 0.376
_diffrn_reflns_point_group_measured_fraction_max 0.339
_diffrn_reflns_theta_full        25.242
_diffrn_reflns_theta_max         27.280
_diffrn_reflns_theta_min         4.001
_diffrn_source                   'fine-focus sealed X-ray tube'
_diffrn_source_type              'Enhance (Mo) X-ray Source'
_exptl_absorpt_coefficient_mu    0.582
_exptl_absorpt_correction_T_max  1.00000
_exptl_absorpt_correction_T_min  0.43365
_exptl_absorpt_correction_type   multi-scan
_exptl_absorpt_process_details
;
CrysAlisPro 1.171.39.46 (Rigaku Oxford Diffraction, 2018)
Empirical absorption correction using spherical harmonics,
 implemented in SCALE3 ABSPACK scaling algorithm.
;
_exptl_crystal_colour            colourless
_exptl_crystal_density_diffrn    1.826
_exptl_crystal_description       plate
_exptl_crystal_F_000             312
_exptl_crystal_size_max          0.38
_exptl_crystal_size_mid          0.28
_exptl_crystal_size_min          0.27
_refine_diff_density_max         0.389
_refine_diff_density_min         -0.447
_refine_diff_density_rms         0.054
_refine_ls_extinction_method     none
_refine_ls_goodness_of_fit_ref   1.080
_refine_ls_hydrogen_treatment    constr
_refine_ls_matrix_type           full
_refine_ls_number_parameters     41
_refine_ls_number_reflns         433
_refine_ls_number_restraints     0
_refine_ls_restrained_S_all      1.080
_refine_ls_R_factor_all          0.0760
_refine_ls_R_factor_gt           0.0619
_refine_ls_shift/su_max          0.000
_refine_ls_shift/su_mean         0.000
_refine_ls_structure_factor_coef Fsqd
_refine_ls_weighting_details
'w=1/[\s^2^(Fo^2^)+(0.0594P)^2^+1.5841P] where P=(Fo^2^+2Fc^2^)/3'
_refine_ls_weighting_scheme      calc
_refine_ls_wR_factor_gt          0.1476
_refine_ls_wR_factor_ref         0.1578
_reflns_Friedel_coverage         0.000
_reflns_number_gt                345
_reflns_number_total             433
_reflns_threshold_expression     'I > 2\s(I)'
_cod_data_source_file            lt5042.cif
_cod_data_source_block           C4H2N5Cl1@0_40GPa_phase_beta
_cod_database_code               1565889
_shelx_shelxl_version_number     2018/3
_chemical_oxdiff_formula         C4H2N5Cl1
_shelx_space_group_comment
;
The symmetry employed for this shelxl refinement is uniquely defined
by the following loop, which should always be used as a source of
symmetry information in preference to the above space-group names.
They are only intended as comments.
;
_reflns_odcompleteness_completeness 33.36
_reflns_odcompleteness_iscentric 1
_reflns_odcompleteness_theta     27.22
_olex2_refinement_description
;
1. Fixed Uiso
 At 1.2 times of:
  All C(H) groups
2. Rigid bond restraints
 C9, N4, N1, N2, N3, N5, C6, C7, C8
 with sigma for 1-2 distances of 0.01 and sigma for 1-3 distances of 0.02
3.a Aromatic/amide H refined with riding coordinates:
 C8(H8), C7(H7)
;
_shelx_res_file
;
TITL 1a_a.res in P2(1)/c
    1a.res
    created by SHELXL-2018/3 at 13:54:00 on 14-Jul-2020
REM Old TITL 1a in P2(1)/c
REM SHELXT solution in P2(1)/c
REM R1 0.134, Rweak 0.045, Alpha 0.046, Orientation as input
REM Formula found by SHELXT: C7 N2 Cl
CELL 0.71073 7.8237 13.0789 5.629 90 100.793 90
ZERR 4 0.0036 0.0006 0.0004 0 0.019 0
LATT 1
SYMM -X,0.5+Y,0.5-Z
SFAC C H Cl N
UNIT 16 8 4 20
DELU 0.01 0.02 C9 N4 N1 N2 N3 N5 C6 C7 C8

L.S. 44
PLAN  5
CONF
BOND $H
list 4
fmap 2 53
acta
MORE -1
OMIT -1 8 5
REM <olex2.extras>
REM <HklSrc "%.\\1a.hkl">
REM </olex2.extras>

WGHT    0.059400    1.584100
FVAR       0.96172
CL1   3    1.029684    0.339862    0.846865    11.00000    0.04982
N4    4    0.552701    0.353047    0.538670    11.00000    0.02986
N5    4    0.697077    0.331215    0.705107    11.00000    0.03123
N1    4    0.385325    0.414841    0.229695    11.00000    0.04237
N3    4    0.393776    0.335645    0.577080    11.00000    0.04249
N2    4    0.292772    0.373303    0.387109    11.00000    0.04566
C8    1    0.707857    0.425591    0.256717    11.00000    0.03033
AFIX  43
H8    2    0.711452    0.457264    0.109814    11.00000   -1.20000
AFIX   0
C6    1    0.840885    0.357745    0.635734    11.00000    0.02818
C9    1    0.546353    0.401083    0.323367    11.00000    0.02867
C7    1    0.855311    0.401926    0.410953    11.00000    0.03217
AFIX  43
H7    2    0.963592    0.414222    0.371132    11.00000   -1.20000
AFIX   0
HKLF 4




REM  1a_a.res in P2(1)/c
REM wR2 = 0.1578, GooF = S = 1.080, Restrained GooF = 1.080 for all data
REM R1 = 0.0619 for 345 Fo > 4sig(Fo) and 0.0760 for all 433 data
REM 41 parameters refined using 0 restraints

END

WGHT      0.0594      1.5840

REM Highest difference peak  0.389,  deepest hole -0.447,  1-sigma level  0.054
Q1    1   1.0238  0.3799  0.8761  11.00000  0.05    0.39
Q2    1   1.0191  0.3033  0.8146  11.00000  0.05    0.34
Q3    1   0.2790  0.3997  0.2845  11.00000  0.05    0.20
Q4    1   0.8446  0.3358  0.8480  11.00000  0.05    0.16
Q5    1   0.2303  0.4017  0.0764  11.00000  0.05    0.16
;
_shelx_res_checksum              26478
_shelx_hkl_file
;
   0  -3   0    0.41    0.62
   0   3   0    0.43    0.99
   0   3   0    0.91    0.83
   0  -3   0    0.74    0.51
  -1   3   0  218.59    6.00
  -1   3   0  225.35    6.50
   1  -3   0  222.06    5.99
   1  -3   0  216.29    6.12
  -1   3   0  208.64    5.92
   1  -4   0   22.14    2.26
  -1   4   0   25.63    2.41
   1  -4   0   26.92    2.42
  -1   4   0   26.11    2.52
   1  -4   0   25.75    2.43
   1  -4   0   24.52    2.26
  -1   4   0   26.64    2.38
  -1   4   0   27.12    2.75
   0  -5   0    0.80    1.06
   0   5   0   -0.08    1.08
   0  -5   0    0.33    1.00
   0   5   0    0.68    1.70
   0  -5   0    0.47    0.90
   0   5   0    0.75    0.86
   0   5   0    0.80    1.13
   0  -5   0    2.78    1.06
   0  -5   0   -0.68    0.84
   0   5   0   -1.35    1.21
  -1   5   0   24.77    2.53
  -1   5   0   20.86    2.72
  -1   5   0   26.71    2.79
   1  -5   0   21.80    2.39
   1  -5   0   24.63    2.48
   1  -5   0   20.13    2.50
   1  -5   0   20.41    2.37
  -1   5   0   24.91    2.75
   2  -5   0   15.07    2.49
  -2   5   0   11.97    2.06
   2  -5   0    9.40    2.09
  -2   5   0   13.87    2.45
   0   6   0 1195.25   15.98
   0  -6   0 1169.31   18.05
   0   6   0 1214.31   21.38
   0  -6   0 1157.07   19.44
   0  -6   0 1146.42   16.24
   0  -6   0 1169.05   17.86
   0  -6   0 1159.49   18.17
   0   6   0 1197.54   21.01
   0   6   0 1157.17   19.69
   0   6   0 1148.81   22.35
   1  -6   0  616.53   12.97
   1   6   0  606.16   20.09
  -1   6   0  632.22   13.70
  -1  -6   0  644.62   16.43
  -1   6   0  632.34   14.22
   1  -6   0  640.45   13.68
   1  -6   0  627.43   14.15
   1   6   0  614.62   19.32
  -1   6   0  632.10   14.22
  -1  -6   0  637.77   14.96
  -1   6   0  639.40   15.53
  -1   6   0  624.88   11.85
   1  -6   0  654.05   13.16
   1  -6   0  642.95   11.15
   2  -6   0  640.89   14.44
  -2   6   0  639.06   14.69
  -2   6   0  624.71   15.20
   2  -6   0  624.83   14.99
   2  -6   0  606.57   14.59
   2  -6   0  623.39   15.04
  -2   6   0  623.41   15.81
  -2   6   0  611.16   14.47
   0  -7   0   -4.51    1.88
   0  -7   0    0.08    1.42
   0   7   0    0.23    1.32
   0  -7   0   -0.91    1.39
   0  -7   0   -0.34    0.94
   0   7   0    0.46    1.85
   0   7   0   -0.17    2.10
   0   7   0   -0.69    1.60
   0   7   0   -0.40    2.65
   0  -7   0   -0.19    1.59
   1   7   0   10.78    3.94
  -1  -7   0    9.93    2.20
   1  -7   0   13.17    2.57
   1  -7   0   10.72    2.22
  -1   7   0   12.88    2.50
  -1   7   0   10.90    2.76
   1  -7   0   12.66    1.86
   1   7   0   10.59    3.35
   1   7   0   14.41    3.73
  -1   7   0   13.17    3.03
  -1  -7   0   13.07    2.77
   1  -7   0   12.87    1.98
  -1   7   0   15.93    2.40
   1  -7   0   13.44    2.33
   1  -7   0   12.88    2.59
  -1   7   0   12.31    2.44
   2  -7   0  317.22   11.22
   2  -7   0  311.84   11.10
  -2   7   0  311.01   11.04
  -2   7   0  303.54   11.06
   2  -7   0  300.67   10.52
  -2   7   0  316.48   12.29
  -2   7   0  289.49   11.02
   2  -7   0  313.36   11.38
   0   8   0   11.89    3.22
   0  -8   0    6.21    2.07
   0   8   0    8.91    2.82
   0  -8   0    7.48    2.56
   0  -8   0    9.36    2.38
   0  -8   0   14.10    3.01
   0   8   0   10.45    2.83
   0   8   0    5.34    3.33
   1   8   0   -5.34    3.59
   1   8   0    2.10    3.11
  -1   8   0    1.39    1.75
   1  -8   0    4.10    2.07
  -1   8   0   -1.07    1.89
  -1   8   0    2.42    2.67
   1  -8   0   -1.93    1.86
  -1  -8   0    1.30    1.77
   1  -8   0    1.95    1.95
   1   8   0   -0.29    3.87
   1   8   0   -0.98    2.81
   1  -8   0    0.81    1.69
  -1  -8   0   -2.11    1.83
  -1   8   0    2.42    2.01
  -2   8   0   -0.20    1.67
  -2   8   0   -5.37    3.16
  -2   8   0   -3.91    2.41
   2  -8   0    2.26    2.18
   2  -8   0   -1.01    1.53
   2  -8   0    2.75    2.83
  -2   8   0    2.18    1.77
   2  -8   0   -0.13    1.71
   0   9   0    1.74    2.26
   0   9   0   -0.66    2.85
   0  -9   0    1.88    2.51
   0   9   0   -0.99    2.54
   0  -9   0    1.11    2.03
   0  -9   0   -0.46    2.24
   0  -9   0   -0.69    1.80
   0   9   0    5.40    4.11
   1   9   0   26.24    5.87
  -1   9   0   27.46    3.95
   1  -9   0   27.52    3.68
  -1   9   0   28.57    4.99
  -1  -9   0   31.30    4.16
   1   9   0   35.13    7.71
  -1   9   0   26.81    4.30
   1  -9   0   26.99    3.90
   1  -9   0   30.57    4.10
   1   9   0   27.20    5.84
   1  -9   0   26.31    3.98
  -1   9   0   32.70    4.90
  -1  -9   0   30.52    4.57
  -2   9   0   12.02    3.40
   2  -9   0   16.21    3.29
   2  -9   0   13.65    3.42
  -2   9   0   13.22    3.15
  -2   9   0   14.00    4.39
   2  -9   0   14.26    3.28
  -2   9   0   15.16    3.87
   2  -9   0   16.28    3.53
   0  10   0  304.19   15.70
   0 -10   0  279.37   12.34
   0 -10   0  303.72   12.33
   0  10   0  310.20   14.66
   0  10   0  284.53   16.31
   0  10   0  300.07   14.98
   0 -10   0  296.35   11.99
   0 -10   0  312.54   13.50
  -1  10   0  113.09    8.58
  -1  10   0  110.48    8.22
   1 -10   0  107.17    7.33
   1  10   0   92.63   10.17
   1 -10   0  106.85    7.30
   1  10   0  108.83   10.32
  -1 -10   0  101.24    7.31
  -1  10   0  117.23    8.80
   1 -10   0  106.47    7.92
  -1  10   0  117.84   10.27
  -1 -10   0   99.43    8.05
   1 -10   0  102.58    7.60
   2 -10   0   85.51    7.85
  -2  10   0  137.25    9.43
   2 -10   0   74.03    6.56
   2 -10   0   83.72    6.97
   2 -10   0   73.55    6.91
  -2  10   0  156.27   10.32
   0 -11   0   -1.45    2.43
   0  11   0    0.38    3.22
   0 -11   0    1.99    3.07
   0  11   0   -7.36    4.78
   0  11   0   -3.50    3.60
   0 -11   0   -2.23    3.06
   0 -11   0   -5.11    2.92
   1  11   0   31.00    7.06
   1 -11   0   24.26    4.66
  -1 -11   0   25.83    5.05
   1 -11   0   23.71    3.99
   1 -11   0   28.29    4.66
  -1  11   0   33.45    6.81
  -1 -11   0   23.66    4.37
   1  11   0   17.42    5.29
  -1  11   0   22.93    4.91
   1 -11   0   25.13    4.54
  -1  11   0   22.02    4.60
  -1  11   0   17.71    4.19
   2 -11   0   38.62    5.24
  -2  11   0   41.78    5.73
   2 -11   0   39.87    5.32
  -2  11   0   35.75    6.15
   2 -11   0   38.45    5.33
  -2  11   0   44.31    6.10
   2 -11   0   34.28    5.48
  -2  11   0   34.55    5.38
  -3  11   0  302.63   16.60
  -3  11   0  324.93   15.70
   3 -11   0  319.34   15.59
   3 -11   0  326.18   15.92
  -3  11   0  310.08   15.21
   3 -11   0  304.75   14.36
   0 -12   0  646.55   21.64
   0  12   0  710.84   27.68
   0  12   0  614.85   24.98
   0 -12   0  670.85   20.34
   0 -12   0  682.98   21.03
   0  12   0  668.31   24.85
   0  12   0  640.38   27.26
   0 -12   0  679.46   20.33
   1 -12   0    1.60    2.89
   1 -12   0    3.60    3.53
  -1  12   0    6.28    4.55
  -1 -12   0    8.86    3.55
  -1  12   0    2.27    4.03
  -1 -12   0    3.75    2.82
   1 -12   0    3.58    3.56
   1  12   0   -0.97    4.80
   1 -12   0    4.17    2.87
   1  12   0   -1.62    6.22
  -1  12   0    2.78    4.93
  -1  12   0    2.64    3.22
  -2  12   0   96.67    9.05
  -2  12   0  100.07    9.42
  -2  12   0   98.63    9.47
   2 -12   0   98.80    8.59
   2 -12   0   86.71    7.74
   2 -12   0   94.62    8.78
   2 -12   0   98.92    8.51
  -2  12   0   94.45   10.22
   3 -12   0  133.23   10.14
  -3  12   0  134.42   10.58
   3 -12   0  147.08   11.45
  -3  12   0  143.81   11.19
  -3  12   0  149.32   12.37
   3 -12   0  152.58   11.71
   0  13   0   -2.37    5.18
   0  13   0    0.34    6.11
   0 -13   0   -5.33    3.64
   0  13   0    9.15    5.74
   0  13   0   -4.66    5.03
   0 -13   0    0.23    2.88
   0 -13   0   -1.90    3.30
   0 -13   0   -4.00    2.99
  -1  13   0    0.14    4.32
  -1  13   0   -3.60    5.27
  -1  13   0    4.25    4.07
   1 -13   0    2.66    3.51
   1 -13   0    5.88    3.13
   1 -13   0    4.53    3.29
  -1  13   0   12.22    4.81
   1 -13   0    4.38    3.49
  -2  13   0   -2.00    3.45
  -2  13   0    1.73    3.28
   2 -13   0   -4.38    3.63
  -2  13   0    6.54    5.51
   2 -13   0    4.55    3.87
   2 -13   0   -0.94    3.31
  -3  13   0   46.37    7.15
   3 -13   0   56.97    7.70
   3 -13   0   37.36    5.54
   3 -13   0   50.78    7.10
  -3  13   0   64.16    9.33
   0  14   0    6.45    4.81
   0 -14   0    5.88    3.84
   0  14   0    5.04    6.19
   0 -14   0   14.43    5.05
   0  14   0   10.22    5.64
   1 -14   0   -3.69    4.07
  -1  14   0    0.81    4.32
  -1  14   0   -0.88    3.88
  -1  14   0    9.49    7.26
   1 -14   0   -0.91    3.37
   1 -14   0   -4.75    4.05
  -2  14   0    8.38    7.18
   2 -14   0    6.12    3.82
   2 -14   0   -3.98    4.27
   2 -14   0   13.97    4.82
  -2  14   0    7.54    4.19
  -2  14   0    0.03    4.24
  -3  14   0   -2.55    4.35
   3 -14   0   -6.21    4.05
   3 -14   0    6.15    5.80
  -3  14   0   12.43    5.09
   0  15   0  -10.07    8.96
   0 -15   0   -1.94    4.49
   0  15   0  -10.08    7.26
   1 -15   0    9.08    4.21
  -1  15   0   -0.02    6.12
   1 -15   0   15.34    5.82
  -1  15   0    4.15    6.48
   2 -15   0   -0.16    3.62
   2 -15   0   -3.00    4.61
  -2  15   0    2.93    5.73
  -2  15   0   -3.15    5.03
   3 -15   0    7.18    4.19
  -3  15   0    5.47    4.00
   0 -16   0  123.98   11.64
   0  16   0  138.19   16.63
   1 -16   0    3.28    4.20
  -1  16   0    2.75    5.85
  -1   0   1    0.70    0.51
  -1  -1   1 1325.42   16.26
  -1   1   1 1303.90   14.36
   0   1   1 2087.03   18.05
  -1  -2   1 5079.37   33.07
  -1   2   1 5093.37   29.00
   1  -2  -1 4742.82   26.95
   1  -2  -1 4949.10   28.65
   1  -2  -1 4823.04   23.08
   0  -2   1  136.48    4.35
   0   2   1  129.09    4.46
   0   2   1  119.02    4.81
   0   2   1  130.68    5.12
  -1  -3   1 6583.59   39.74
  -1   3   1 6569.08   37.67
   1   3  -1 6585.14   46.23
   1  -3  -1 6578.20   32.47
   1  -3  -1 6562.84   31.28
   1  -3  -1 6607.72   35.50
   1  -3  -1 6579.34   35.03
  -1  -3   1 6554.66   40.18
  -1   3   1 6537.64   35.05
   0   3  -1 1708.16   17.34
   0   3   1 1610.98   20.50
   0   3   1 1654.73   19.46
   0  -3  -1 1649.88   17.64
   0   3   1 1664.74   17.86
   0  -3  -1 1602.04   18.37
   0  -3   1 1674.76   15.16
   0   3  -1 1675.39   18.07
   0  -3  -1 1674.00   17.30
   0   3   1 1646.21   20.78
   0   3  -1 1669.46   18.04
   0  -3   1 1619.36   16.99
  -1   3  -1  850.01   14.27
   1  -3   1  846.85   12.64
  -1   3  -1  860.05   13.95
  -1   3  -1  868.92   13.36
   2  -4  -1  309.61    9.82
   2  -4  -1  315.56    9.07
  -2   4   1  317.97    9.51
   1  -4  -1    9.51    1.67
   1  -4  -1   10.45    1.23
  -1  -4   1   12.21    2.13
   1  -4  -1   10.56    1.76
  -1   4   1    9.02    1.52
   1  -4  -1   11.49    1.66
  -1   4   1   10.25    1.91
  -1  -4   1    7.50    1.70
   1  -4  -1   10.89    1.69
   1   4  -1   12.19    2.45
  -1  -4   1   10.49    1.92
   1   4  -1   10.79    2.33
  -1   4   1   10.63    1.87
   0  -4   1 9936.38   44.46
   0   4   1 9905.98   52.35
   0  -4  -1 9982.34   50.28
   0  -4   1 9922.13   44.83
   0   4  -1 9876.76   49.75
   0  -4  -1 9894.02   46.34
   0  -4  -1 9931.43   46.77
   0   4   1 9928.25   57.06
   0  -4   1 9971.09   46.75
   0  -4  -1 9999.00   47.60
  -1   4  -1    3.93    1.21
   1  -4   1    7.09    1.68
  -1   4  -1    3.78    1.23
   1  -4   1    4.42    1.12
   1  -4   1    4.67    1.41
  -1   4  -1    3.41    1.21
  -1   4  -1    3.98    1.39
  -2   5   1   44.26    4.24
  -2   5   1   47.79    4.17
   2  -5  -1   53.79    4.71
   2  -5  -1   45.75    4.09
   2  -5  -1   48.47    4.02
   2  -5  -1   53.93    4.26
  -2   5   1   54.75    4.11
   1  -5  -1  261.11    6.73
  -1   5   1  252.19    9.30
  -1  -5   1  243.55    8.72
  -1  -5   1  259.26    9.15
   1  -5  -1  264.11    8.00
   1   5  -1  254.13   10.86
   1  -5  -1  258.73    8.20
   1   5  -1  263.47   11.68
  -1   5   1  248.58    8.85
   1  -5  -1  246.47    8.42
   1  -5  -1  263.85    7.99
  -1  -5   1  263.72    9.25
  -1  -5   1  248.67    7.53
   1   5  -1  254.24   10.22
  -1   5   1  262.57    8.30
  -1   5   1  263.18    7.05
   1   5  -1  263.32   10.45
   0   5  -1  621.68   11.65
   0   5  -1  629.76   13.19
   0   5   1  606.47   14.11
   0   5  -1  593.75   13.64
   0   5  -1  616.65   14.12
   0   5   1  590.38   15.52
   0  -5  -1  590.93   13.51
   0  -5   1  602.28   11.85
   0  -5   1  599.59    9.50
   0  -5  -1  612.58   12.83
   0  -5  -1  579.05   13.11
   0  -5   1  573.46   12.44
   0  -5   1  587.97   11.67
   0  -5   1  599.03    9.45
   0   5  -1  633.83   12.93
   0   5   1  550.93   15.28
   0   5   1  597.45   11.75
   0  -5  -1  601.32   12.40
   0   5   1  591.96   13.98
   0  -5   1  603.60   12.35
  -1   5  -1   59.30    4.40
   1  -5   1   63.89    4.50
  -1   5  -1   64.87    4.46
   1  -5   1   69.13    4.34
  -1   5  -1   66.51    4.24
  -1   5  -1   70.16    4.84
  -1   5  -1   71.83    3.84
   1  -5   1   65.18    4.31
   2  -6  -1  170.68    7.85
  -2   6   1  179.99    7.90
  -2   6   1  182.58    8.55
  -2   6   1  175.08    8.58
   2  -6  -1  166.21    6.59
   2  -6  -1  185.80    8.10
   2  -6  -1  179.37    7.90
   2  -6  -1  181.87    8.38
  -1   6   1  241.51    7.68
   1   6  -1  221.13   10.18
  -1   6   1  239.82    9.75
  -1  -6   1  235.49    9.41
   1   6  -1  249.46   11.20
  -1  -6   1  234.52    8.99
   1  -6  -1  231.06    8.32
   1   6  -1  232.49   11.51
   1   6  -1  231.00   11.13
   1  -6  -1  235.80    8.24
  -1   6   1  238.44    8.27
  -1   6   1  211.32    9.31
   1  -6  -1  242.80    9.03
  -1   6   1  248.53    9.06
  -1  -6   1  248.62    8.21
   1  -6  -1  236.73    7.27
  -1  -6   1  238.26    9.36
   1  -6  -1  236.35    8.78
   0   6  -1    1.87    1.56
   0   6  -1    1.55    1.38
   0  -6   1    1.32    1.60
   0   6   1    1.91    1.69
   0   6   1    4.45    2.12
   0  -6   1    3.71    1.52
   0  -6  -1    1.45    1.37
   0   6  -1    3.42    1.73
   0  -6   1    0.32    1.52
   0  -6  -1    3.57    1.97
   0   6   1    1.68    2.34
   0   6   1    2.04    2.04
   0  -6  -1    9.22    2.19
   0  -6   1    3.32    1.45
   0  -6   1    5.45    2.19
   0   6  -1    2.39    2.06
   0  -6  -1    2.68    1.97
   0   6   1    5.65    3.36
   0  -6  -1    1.22    1.77
   0   6  -1    3.24    1.76
  -1   6  -1   61.90    4.52
   1  -6   1   64.62    4.05
   1  -6   1   64.43    4.74
  -1   6  -1   60.72    4.92
  -1   6  -1   67.61    4.22
  -1   6  -1   60.01    4.94
   1  -6   1   67.04    4.98
  -1   6  -1   60.64    4.47
   1  -6   1   59.65    4.39
   2  -6   1   10.45    2.47
  -2   6  -1   12.78    2.64
  -2   6  -1   11.84    2.70
   2  -6   1   10.71    2.89
  -2   7   1   95.87    7.12
  -2   7   1  101.17    6.14
   2  -7  -1   90.02    6.23
  -2   7   1   94.61    6.92
   2  -7  -1   89.72    5.91
  -2   7   1   95.20    6.27
   2  -7  -1   92.27    6.15
   2  -7  -1   87.77    6.18
   2  -7  -1   91.79    5.31
   1   7  -1 1687.98   31.51
   1   7  -1 1671.16   34.00
   1  -7  -1 1674.78   24.72
  -1  -7   1 1741.22   23.15
  -1  -7   1 1724.92   26.40
  -1   7   1 1707.99   28.60
   1  -7  -1 1693.54   22.30
  -1   7   1 1707.85   22.62
  -1   7   1 1690.68   25.53
   1  -7  -1 1706.19   23.88
   1  -7  -1 1713.81   24.89
  -1   7   1 1701.99   27.71
  -1   7   1 1696.55   23.55
  -1  -7   1 1714.57   25.86
   1   7  -1 1738.29   32.68
  -1  -7   1 1649.59   26.41
   1  -7  -1 1682.93   21.34
   1   7  -1 1732.80   30.32
   0   7   1  155.39   10.05
   0   7   1  177.38    9.40
   0  -7  -1  167.63    8.37
   0   7   1  169.93    7.96
   0  -7   1  165.61    7.82
   0  -7  -1  171.61    8.02
   0  -7  -1  163.44    7.47
   0   7  -1  163.92    7.88
   0   7  -1  181.40    8.40
   0   7  -1  164.66    8.42
   0  -7   1  169.49    7.67
   0   7  -1  169.04    9.31
   0   7   1  153.21    8.16
   0  -7  -1  179.41    8.59
   0   7   1  174.05   10.19
   0  -7   1  169.20    6.46
   0   7  -1  154.93    8.65
   0  -7  -1  161.21    7.15
   0  -7   1  164.63    7.80
   0  -7   1  143.17    6.86
  -1   7  -1   96.83    6.11
  -1   7  -1   98.64    6.29
  -1   7  -1   98.68    6.68
   1  -7   1  101.07    5.49
  -1   7  -1   99.21    5.74
   1  -7   1   96.50    6.25
   1  -7   1  106.27    6.52
  -1   7  -1   97.98    6.85
   1  -7   1   95.47    6.00
  -2   7  -1   85.74    6.06
   2  -7   1   86.76    6.42
  -2   7  -1   87.07    6.51
  -2   7  -1   88.06    6.87
  -2   7  -1   87.69    5.62
   2  -7   1   81.02    6.17
   2  -7   1   80.99    6.26
  -3   8   1  263.30   12.28
  -3   8   1  258.67   12.48
   3  -8  -1  246.77   11.58
   3  -8  -1  244.88   10.26
  -2   8   1  394.44   14.50
  -2   8   1  371.69   13.21
   2  -8  -1  367.27   12.26
   2  -8  -1  393.38   13.14
  -2   8   1  371.64   14.41
  -2   8   1  397.20   12.83
   2  -8  -1  367.81   13.13
   2  -8  -1  375.97   13.39
   2  -8  -1  385.12   11.54
   1   8  -1    1.94    2.49
  -1  -8   1    2.60    2.59
   1  -8  -1    2.94    1.82
   1  -8  -1    2.25    1.55
   1  -8  -1    3.36    2.02
   1  -8  -1    0.49    1.80
  -1   8   1    4.93    2.10
   1  -8  -1    1.60    2.00
  -1  -8   1    3.43    1.94
  -1  -8   1    1.54    1.60
  -1   8   1    0.87    2.47
   1   8  -1    4.79    2.62
  -1  -8   1    4.92    2.50
  -1   8   1    3.26    1.81
  -1   8   1    3.74    1.90
  -1   8   1    2.87    2.38
   1   8  -1    3.52    3.38
   1   8  -1    1.45    2.66
   0   8   1 3470.13   49.54
   0   8  -1 3510.93   45.81
   0  -8   1 3518.05   36.80
   0   8   1 3255.78   43.63
   0  -8   1 3359.08   33.51
   0   8  -1 3276.06   41.71
   0   8  -1 3368.03   37.98
   0   8  -1 3369.08   40.87
   0  -8  -1 3265.39   39.32
   0  -8  -1 3421.42   33.46
   0  -8   1 3405.40   31.55
   0  -8  -1 3340.54   37.51
   0   8  -1 3521.76   41.04
   0   8   1 3328.41   47.66
   0  -8  -1 3355.77   39.71
   0  -8  -1 3381.55   36.16
   0   8   1 3346.13   38.67
   0  -8   1 3432.81   37.20
   0  -8   1 3410.49   38.25
  -1   8  -1   30.46    4.61
  -1   8  -1   28.06    3.76
  -1   8  -1   26.38    3.74
   1  -8   1   30.79    4.04
   1  -8   1   31.26    3.41
   1  -8   1   29.13    3.39
  -1   8  -1   29.70    4.14
   1  -8   1   24.73    3.65
   1  -8   1   28.08    3.89
  -1   8  -1   30.80    4.28
  -2   8  -1   73.29    6.14
  -2   8  -1   73.45    6.74
   2  -8   1   78.44    6.40
   2  -8   1   77.62    6.39
  -2   8  -1   75.98    6.60
  -2   8  -1   86.32    6.18
   2  -8   1   81.87    6.84
   3  -9  -1    4.23    3.24
  -3   9   1   -0.78    3.09
   3  -9  -1    6.34    2.91
   3  -9  -1    3.03    3.35
   3  -9  -1    3.29    2.87
  -3   9   1   -1.80    3.11
  -3   9   1   -1.44    2.26
  -2   9   1   11.08    3.76
   2  -9  -1    8.70    2.34
   2  -9  -1    7.85    3.23
   2  -9  -1    9.67    2.72
  -2   9   1    8.19    2.59
  -2   9   1    7.29    3.87
   2  -9  -1   10.67    3.06
  -2   9   1    9.99    2.94
   1   9  -1  297.80   14.27
   1   9  -1  314.38   17.38
  -1  -9   1  290.62   12.92
   1  -9  -1  286.68   11.91
  -1   9   1  297.64   12.92
  -1   9   1  307.95   11.67
  -1  -9   1  316.87   12.73
  -1  -9   1  310.64   11.36
   1   9  -1  288.12   15.86
  -1   9   1  304.55   13.90
   1  -9  -1  309.01   10.96
   1  -9  -1  295.53   11.61
  -1   9   1  280.05   13.89
   1  -9  -1  279.05   11.71
   1   9  -1  303.65   15.77
   0   9  -1   60.70    5.99
   0  -9  -1   57.14    4.77
   0  -9  -1   51.21    5.72
   0  -9   1   60.38    4.74
   0   9   1   57.16    5.96
   0   9  -1   54.05    6.44
   0  -9  -1   59.38    5.66
   0   9  -1   59.37    6.37
   0  -9   1   59.36    5.59
   0   9   1   57.66    6.90
   0  -9  -1   59.86    5.86
   0   9  -1   50.30    6.71
   0  -9   1   58.64    5.05
   0  -9   1   45.88    5.13
   0   9   1   64.21    7.83
   0   9   1   61.65    8.13
   0  -9   1   53.83    5.49
   1  -9   1  299.62   12.22
  -1   9  -1  289.40   12.84
  -1   9  -1  296.58   13.88
   1  -9   1  288.09   11.70
   1  -9   1  315.04   12.61
  -1   9  -1  309.09   12.90
   1  -9   1  305.85   10.55
  -1   9  -1  311.46   12.30
   1  -9   1  312.69   10.89
  -2   9  -1   58.00    6.79
   2  -9   1   61.34    6.08
  -2   9  -1   64.90    6.20
  -2   9  -1   60.28    6.38
   2  -9   1   64.15    6.29
   2  -9   1   61.44    6.43
  -3  10   1   21.72    4.14
   3 -10  -1   31.20    5.29
   3 -10  -1   18.89    4.06
   3 -10  -1   20.12    4.19
  -3  10   1   23.73    5.59
  -3  10   1   33.69    5.00
   2 -10  -1   33.85    4.95
   2 -10  -1   34.11    4.92
   2 -10  -1   31.56    5.17
  -2  10   1   29.14    5.81
  -2  10   1   29.02    4.63
  -2  10   1   27.80    5.08
   1  10  -1  120.32   11.10
  -1 -10   1  128.87    9.21
  -1  10   1  128.34    8.37
   1 -10  -1  124.71    8.37
   1 -10  -1  122.11    8.42
  -1  10   1  110.40    8.74
   1  10  -1  108.75   11.10
   1  10  -1  121.10   12.15
   1 -10  -1  118.91    8.19
  -1 -10   1  116.67    8.63
  -1  10   1  121.66    9.63
  -1  10   1  114.70   10.16
   0 -10   1   45.70    5.62
   0  10  -1   52.60    6.57
   0  10   1   49.92    6.91
   0  10   1   52.07    6.46
   0  10   1   51.72    7.99
   0 -10   1   43.29    5.36
   0 -10  -1   56.15    5.94
   0 -10   1   54.14    5.90
   0 -10  -1   48.75    5.82
   0  10   1   49.35    7.51
   0 -10  -1   51.81    5.95
   0  10  -1   40.05    6.61
   0  10  -1   49.34    6.43
  -1  10  -1   13.58    3.69
   1 -10   1   16.50    3.70
   1 -10   1   11.12    4.57
  -1  10  -1   21.74    4.65
   1 -10   1   15.98    4.37
  -1  10  -1    7.64    7.24
  -2  10  -1    7.80    3.95
   2 -10   1   13.67    4.01
   2 -10   1   11.66    3.54
  -2  10  -1   10.02    3.22
   2 -10   1   11.71    4.14
  -2  10  -1   11.51    3.14
  -3  11   1    4.90    4.03
   3 -11  -1    3.74    3.24
  -3  11   1    3.14    3.18
  -3  11   1    3.29    2.78
   3 -11  -1    2.90    3.08
   3 -11  -1    1.19    2.82
   2 -11  -1   47.47    5.70
  -2  11   1   42.87    6.32
  -2  11   1   43.05    7.04
   2 -11  -1   48.40    6.16
  -2  11   1   46.89    6.57
   2 -11  -1   36.15    5.37
  -1 -11   1   39.39    5.89
   1  11  -1   35.78    7.25
  -1  11   1   35.92    6.19
   1 -11  -1   33.88    5.04
   1  11  -1   42.08    7.61
  -1 -11   1   38.04    5.37
  -1  11   1   31.77    6.10
   1  11  -1   47.13    9.37
  -1  11   1   38.66    7.13
   1 -11  -1   36.25    5.32
   1 -11  -1   29.96    5.34
   0  11   1   12.17    5.03
   0 -11   1    4.69    2.75
   0  11  -1    3.79    3.48
   0  11  -1   10.06    4.16
   0  11   1    4.90    5.39
   0 -11  -1    5.43    2.89
   0 -11  -1    7.63    3.29
   0 -11   1    4.28    3.20
   0  11   1   12.28    5.92
   0 -11   1   10.51    3.69
   0  11  -1    8.06    4.76
   0 -11  -1    8.52    3.78
   1 -11   1    0.46    2.94
   1 -11   1    5.15    2.92
   1 -11   1   12.04    3.96
  -1  11  -1    4.87    2.84
  -1  11  -1   -0.06    2.70
  -1  11  -1    0.44    3.94
  -2  11  -1   36.33    6.66
   2 -11   1   26.95    4.91
   2 -11   1   30.86    5.21
   2 -11   1   32.54    5.35
  -2  11  -1   27.84    5.14
  -2  11  -1   29.69    5.20
  -3  12   1    4.97    4.97
  -3  12   1   12.67    4.44
   3 -12  -1    4.07    2.81
   3 -12  -1    0.71    3.99
  -3  12   1    5.14    3.72
   3 -12  -1   11.73    4.51
  -2  12   1   78.57    8.38
  -2  12   1   72.31    8.57
  -2  12   1   63.92    8.37
   2 -12  -1   70.35    7.66
   2 -12  -1   65.39    7.24
   2 -12  -1   73.22    7.58
  -1  12   1    0.23    3.31
   1  12  -1   20.78    7.16
   1 -12  -1    9.57    3.76
  -1  12   1   14.80    5.53
   1 -12  -1   12.88    4.09
   1 -12  -1   10.19    3.45
  -1 -12   1    6.25    3.29
  -1  12   1    7.40    5.24
   1  12  -1   24.14    7.38
   0 -12  -1  126.00    9.62
   0  12   1  133.97   12.52
   0 -12  -1  128.97   10.46
   0 -12  -1  111.01    8.98
   0  12   1  113.96   12.93
   0 -12   1  120.91    9.67
   0  12   1  124.40   13.42
   0  12  -1  125.00   11.49
   0 -12   1  131.01    9.51
   0 -12   1  125.12    9.15
   0  12  -1  125.90   11.55
   0  12  -1  125.67   12.57
  -1  12  -1   12.10    5.87
   1 -12   1    7.90    3.67
   1 -12   1    4.45    3.20
  -1  12  -1    8.68    4.77
   1 -12   1   10.36    4.04
  -1  12  -1    2.81    3.16
  -2  12  -1   67.22    7.57
   2 -12   1   93.39    8.82
  -2  12  -1   74.61    8.18
  -2  12  -1   68.50    8.82
  -3  13   1   61.23    9.28
   3 -13  -1   50.30    7.20
  -3  13   1   39.02    6.17
   3 -13  -1   45.02    6.96
  -3  13   1   49.71    7.29
   3 -13  -1   55.14    7.52
  -2  13   1    0.35    3.84
  -2  13   1   -5.25    5.04
   2 -13  -1    0.96    3.41
  -2  13   1   -5.40    4.69
   2 -13  -1   -1.71    2.87
   2 -13  -1   -2.20    3.60
   1  13  -1   51.43    9.76
   1 -13  -1   37.34    6.12
  -1 -13   1   41.67    6.67
  -1  13   1   39.30    8.71
  -1  13   1   40.30    7.51
   1 -13  -1   42.42    6.44
   1 -13  -1   42.12    6.18
  -1  13   1   39.50    7.29
   1  13  -1   36.44    8.50
   0  13   1  -11.22    7.23
   0  13  -1    2.08    8.58
   0  13  -1    9.69    6.89
   0 -13  -1    0.69    3.06
   0 -13   1   -4.74    5.23
   0 -13   1  -21.29    6.01
   0 -13  -1   -3.04    3.85
   0  13   1    1.93    5.56
   0  13   1   -1.78    5.81
  -1  13  -1   82.39   10.06
   1 -13   1   78.89    8.20
  -1  13  -1   81.19    9.63
   1 -13   1   84.08    8.32
  -1  13  -1   89.90   10.84
   1 -13   1   88.89    8.39
   2 -13   1   14.88    5.31
  -2  13  -1   11.25    4.49
  -2  13  -1    4.12    3.79
   2 -13   1   10.66    4.46
   2 -13   1    9.99    4.21
  -2  13  -1    7.48    5.30
   3 -14  -1   90.26   10.22
  -3  14   1   88.10   10.34
   3 -14  -1   82.45    9.69
   3 -14  -1   82.77    9.43
  -3  14   1   90.12   11.24
  -3  14   1   93.35   11.52
   2 -14  -1   22.37    5.31
  -2  14   1   18.41    5.83
  -2  14   1   19.80    5.67
   2 -14  -1   17.13    4.83
  -2  14   1   10.02    5.39
   2 -14  -1   23.98    5.85
   1 -14  -1  130.49   10.86
  -1 -14   1  110.58   10.86
  -1  14   1  119.47   13.44
   1 -14  -1  115.90   10.84
  -1  14   1  111.12   12.17
   1 -14  -1  128.57   10.66
  -1  14   1  113.74   13.79
   0 -14   1   34.39    6.06
   0 -14   1   19.69    4.24
   0  14   1   24.69    7.55
   0  14   1   30.45    9.12
   0  14  -1   24.13    6.97
   0 -14   1   24.74    5.66
   0  14  -1   28.02    7.21
   0 -14  -1   33.85    6.27
   0  14  -1   27.94    8.87
   0 -14  -1   19.81    4.47
   1 -14   1    3.21    3.40
  -1  14  -1    1.10    5.76
   1 -14   1    3.47    4.37
   1 -14   1    9.46    5.17
  -1  14  -1   17.42    6.09
  -1  14  -1   13.60    5.90
   2 -14   1    3.00    4.82
  -2  14  -1    6.09    4.31
   2 -14   1   -5.56    4.13
   2 -14   1   -1.19    3.22
  -2  14  -1    0.28    3.84
  -2  14  -1   -3.70    6.27
  -3  15   1   32.60    7.28
   3 -15  -1   24.42    6.11
  -3  15   1   21.02    7.12
   2 -15  -1    7.89    4.81
   2 -15  -1    0.34    4.24
  -2  15   1    2.97    4.44
   2 -15  -1    5.06    4.08
  -2  15   1    8.77    6.88
  -2  15   1    5.82    5.63
   1 -15  -1    3.04    3.29
   1 -15  -1    5.69    4.46
  -1  15   1   16.15    7.53
   1 -15  -1   17.26    5.30
  -1  15   1    1.33    5.53
  -1  15   1   17.37    8.61
   0 -15   1   -5.34    3.41
   0 -15  -1    4.15    3.82
   0  15  -1    6.63    7.03
   0 -15  -1    0.95    3.85
   0 -15   1    2.18    4.04
   0 -15   1   -0.85    3.69
   0  15  -1    4.09    7.89
   0  15   1   -3.05    5.76
   0  15  -1   -8.23    6.89
   1 -15   1   30.26    6.30
   1 -15   1   30.38    6.23
  -1  15  -1   31.16    7.84
  -1  15  -1   13.98    6.51
   1 -15   1   28.66    6.04
  -1  15  -1   25.93    7.58
   2 -15   1   23.59    5.96
   2 -15   1   14.64    5.25
  -2  15  -1   19.09    6.68
  -2  15  -1   18.98    6.51
  -2  15  -1   15.92    7.32
   2 -15   1   21.18    5.69
   2 -16  -1   -4.55    4.45
   1 -16  -1   -2.30    4.47
   1 -16  -1   11.32    5.59
  -1  16   1    1.76    7.89
   0  16  -1   25.00    9.67
   0  16  -1   16.27    7.54
   0 -16   1   34.10    7.86
  -1  16  -1   -9.65    7.02
  -1  16  -1    7.19    6.86
   1 -16   1   -2.45    4.11
  -2  16  -1   14.46    5.86
   1   0  -2  795.22   12.97
  -1   0   2  762.86   13.80
   1   0  -2  801.03   14.47
  -1   0   2  784.16   10.54
   1   0  -2  773.06   13.46
   1   0  -2  779.65   12.78
  -1   0   2  768.72   12.93
   0   0  -2 1470.05   17.35
   0   0   2 1499.92   20.07
   0   0   2 1466.36   19.44
   0   0  -2 1450.68   19.35
   0   0  -2 1421.18   18.04
   0   0  -2 1478.58   17.58
   2  -1  -2  186.24    8.42
   2  -1  -2  190.51    7.92
   2  -1  -2  182.54    7.82
   1  -1  -2 3289.59   23.91
   1   1  -2 3251.48   28.72
  -1  -1   2 3230.19   28.54
   1  -1  -2 3202.79   27.22
   1  -1  -2 3258.47   28.77
  -1   1   2 3252.96   25.08
   1   1  -2 3224.91   27.92
  -1  -1   2 3157.10   27.74
   1  -1  -2 3260.02   22.80
  -1   1   2 3199.43   24.83
   1  -1  -2 3179.10   27.37
   1   1  -2 3274.32   25.08
  -1  -1   2 3260.56   25.38
  -1   1   2 3267.28   28.51
   1   1  -2 3225.88   30.15
   0  -1   2  461.11    8.47
   0   1  -2  468.04   10.47
   0  -1  -2  461.50   10.45
   0   1  -2  466.03    8.57
   0   1  -2  468.08   10.38
   0  -1   2  473.56   11.27
   0   1   2  454.38   11.38
   0   1  -2  485.59   11.38
   0  -1  -2  481.67   11.19
   0  -1   2  463.17   10.42
   0   1  -2  488.56    9.28
   0  -1  -2  472.32    9.27
   0  -1  -2  464.35   10.60
   0   1   2  474.53   11.83
   0   1   2  433.31   11.59
   0  -1  -2  480.83    9.67
   2  -2  -2   72.67    4.71
   2  -2  -2   85.30    5.33
   2  -2  -2   74.02    5.16
   2  -2  -2   76.20    5.11
   1   2  -2 1137.19   18.42
   1   2  -2 1141.50   18.41
   1  -2  -2 1106.68   15.01
  -1  -2   2 1190.35   17.91
   1   2  -2 1169.51   16.08
   1  -2  -2 1140.67   11.09
  -1  -2   2 1121.00   15.96
   1  -2  -2 1160.85   16.36
   1   2  -2 1167.02   17.00
   1  -2  -2 1162.03   16.86
  -1   2   2 1131.65   17.07
  -1   2   2 1149.88   16.68
  -1  -2   2 1141.92   17.09
   1  -2  -2 1159.35   17.21
   1   2  -2 1155.48   14.61
  -1   2   2 1156.63   14.09
   0   2  -2   71.89    3.87
   0  -2  -2   69.43    4.17
   0   2  -2   73.79    4.14
   0  -2   2   78.27    4.60
   0   2   2   72.29    4.98
   0   2   2   78.02    5.41
   0  -2  -2   77.63    4.23
   0  -2  -2   77.61    4.59
   0   2  -2   79.30    4.74
   0   2   2   74.22    4.82
   0  -2  -2   76.34    4.66
   0  -2   2   77.13    4.09
   0   2  -2   78.91    4.67
   0  -2   2   72.82    3.85
  -1   2  -2   87.43    5.55
  -1   2  -2   99.41    5.35
  -2   3   2    9.35    2.08
  -2   3   2   13.68    2.06
   2  -3  -2   16.05    2.84
   2  -3  -2   12.23    2.14
   2  -3  -2   19.38    3.49
   2  -3  -2    4.07    3.86
   1   3  -2   16.05    2.48
  -1  -3   2   15.39    2.28
   1  -3  -2   13.61    1.99
   1   3  -2   17.99    2.43
   1   3  -2   16.65    2.57
  -1   3   2   17.73    1.82
   1  -3  -2   13.72    2.03
   1   3  -2   16.20    2.09
   1  -3  -2   16.73    1.74
  -1   3   2   15.18    2.52
  -1   3   2   13.37    2.17
   1  -3  -2   18.45    2.58
  -1  -3   2   17.25    2.33
  -1   3   2   17.92    2.20
   1  -3  -2   18.41    2.30
  -1  -3   2   15.14    2.44
   0   3   2  560.35   11.09
   0   3  -2  549.72   12.96
   0   3  -2  583.74   12.94
   0  -3  -2  555.08   12.47
   0  -3  -2  548.32   10.54
   0   3  -2  566.22   11.87
   0  -3   2  555.46    8.82
   0   3   2  589.21   15.67
   0  -3  -2  574.50   11.82
   0  -3  -2  574.91   12.72
   0   3   2  564.45   13.41
   0  -3   2  550.09   12.11
   0   3  -2  567.00   10.00
   0  -3   2  567.65    9.12
   0  -3   2  579.08   10.66
   0   3  -2  575.33   11.42
   0   3   2  528.99   14.38
   0  -3  -2  562.53   13.09
   0  -3   2  576.66   11.73
  -1   3  -2   17.93    2.04
   1  -3   2   19.55    2.08
  -1   3  -2   14.37    2.38
  -1   3  -2   12.95    2.32
  -1   3  -2   17.62    2.44
   2  -4  -2   35.34    3.45
   2  -4  -2   30.56    3.35
   2  -4  -2   27.34    2.94
   2  -4  -2   28.09    2.78
  -2   4   2   33.30    3.14
   2  -4  -2   30.62    3.68
  -2   4   2   30.21    3.56
   1   4  -2  423.37   13.06
   1   4  -2  466.81   10.81
  -1  -4   2  443.49    9.76
   1  -4  -2  466.87   10.71
   1  -4  -2  415.28   10.04
  -1   4   2  438.56    9.66
   1  -4  -2  532.65   11.15
   1   4  -2  480.35   12.00
   1  -4  -2  502.23   10.94
  -1   4   2  459.84   11.06
   1  -4  -2  503.85   11.99
  -1  -4   2  442.22   11.26
   1  -4  -2  486.33   12.53
  -1  -4   2  440.78   12.12
  -1   4   2  461.07   11.38
  -1   4   2  447.94   12.68
   1   4  -2  450.40   12.29
  -1   4   2  459.88   10.79
  -1   4   2  449.17   12.44
  -1  -4   2  451.87   11.81
   1   4  -2  454.58   12.90
   0   4  -2   89.02    5.64
   0  -4  -2   93.27    5.53
   0   4   2   77.00    5.09
   0   4  -2   82.53    5.16
   0  -4   2   86.33    4.07
   0  -4   2   94.55    4.21
   0   4  -2   91.66    5.34
   0  -4  -2   91.20    4.79
   0  -4  -2   90.80    5.93
   0  -4  -2   86.96    5.08
   0  -4   2   91.42    4.95
   0   4   2   60.13    5.85
   0   4  -2   88.62    4.54
   0   4  -2   94.69    4.82
   0   4  -2   88.63    4.34
   0  -4  -2   62.66    4.09
   0  -4   2   90.94    5.23
   1  -4   2   65.36    4.72
  -1   4  -2   68.13    5.16
   1  -4   2   70.83    4.03
  -1   4  -2   69.41    4.83
  -1   4  -2   69.39    4.28
  -1   4  -2   73.84    4.36
  -2   5   2   91.73    6.44
  -2   5   2   98.10    5.49
   2  -5  -2   96.03    5.56
   2  -5  -2  101.15    6.21
  -2   5   2   94.92    5.82
   2  -5  -2   88.77    5.22
   2  -5  -2  100.91    6.42
   2  -5  -2   94.46    5.10
   1   5  -2 1366.07   25.15
   1   5  -2 1372.59   21.01
  -1  -5   2 1317.02   19.12
   1   5  -2 1407.07   24.92
   1  -5  -2 1340.48   18.54
   1  -5  -2 1337.28   18.44
  -1   5   2 1355.55   18.95
   1   5  -2 1385.14   27.14
   1  -5  -2 1385.26   21.22
  -1   5   2 1362.00   21.95
  -1  -5   2 1355.05   19.63
   1  -5  -2 1334.32   20.95
  -1   5   2 1317.28   18.49
   1  -5  -2 1314.98   17.43
  -1   5   2 1352.28   19.22
  -1   5   2 1371.84   23.77
   1   5  -2 1396.24   22.47
  -1  -5   2 1372.94   21.94
  -1   5   2 1359.02   22.41
   1   5  -2 1328.49   20.83
  -1  -5   2 1347.47   21.87
   1  -5  -2 1291.25   17.56
   0  -5  -2   69.47    4.58
   0   5  -2   66.52    5.30
   0   5  -2   70.54    4.95
   0   5   2   62.78    4.92
   0   5  -2   61.43    3.86
   0   5  -2   64.52    4.94
   0  -5   2   65.67    3.93
   0  -5   2   64.55    4.00
   0   5   2   60.45    5.88
   0   5   2   61.07    6.22
   0  -5  -2   62.09    5.13
   0  -5  -2   63.08    4.14
   0   5  -2   64.47    4.16
   0  -5   2   66.11    4.23
   0   5   2   67.17    6.60
   0  -5   2   65.49    4.08
   0  -5   2   68.68    4.91
   0  -5  -2   62.71    4.90
   0  -5   2   62.91    4.77
   0   5  -2   61.17    4.54
   1  -5   2  620.96   14.88
  -1   5  -2  620.10   15.79
   1  -5   2  627.22   14.07
  -1   5  -2  623.06   12.53
   1  -5   2  634.73   13.14
  -1   5  -2  606.38   15.17
  -1   5  -2  616.43   13.48
  -1   5  -2  630.53   14.63
   3  -6  -2  243.80   11.47
   3  -6  -2  266.46   10.67
  -3   6   2  261.06   12.11
  -3   6   2  246.31   11.20
   2  -6  -2  118.58    6.43
   2  -6  -2  122.90    7.33
   2  -6  -2  118.48    6.69
  -2   6   2  120.86    6.60
   2  -6  -2  119.66    7.43
  -2   6   2  111.07    7.74
  -2   6   2  123.73    7.38
   1   6  -2 2763.22   38.21
   1   6  -2 2789.23   33.85
   1   6  -2 2770.31   32.78
   1  -6  -2 2791.31   25.42
  -1  -6   2 2810.88   30.31
   1   6  -2 2779.96   38.17
  -1  -6   2 2740.80   30.99
   1  -6  -2 2836.08   29.64
  -1   6   2 2823.25   30.53
   1  -6  -2 2694.43   28.90
  -1   6   2 2805.13   28.24
   1  -6  -2 2780.52   32.12
   1  -6  -2 2797.10   26.32
  -1   6   2 2782.71   36.65
   1   6  -2 2818.32   40.61
  -1   6   2 2748.32   34.89
  -1  -6   2 2806.31   32.67
  -1   6   2 2739.50   33.81
   1  -6  -2 2760.22   31.23
  -1  -6   2 2798.37   33.17
  -1   6   2 2788.83   28.11
   0   6  -2  140.47    7.99
   0   6   2  150.88    8.22
   0   6  -2  135.31    7.72
   0  -6   2  128.66    6.09
   0  -6   2  143.74    6.56
   0   6  -2  131.29    6.78
   0   6  -2  135.43    6.64
   0   6  -2  141.93    6.00
   0   6   2  141.59    9.93
   0  -6   2  143.01    6.38
   0  -6   2  138.02    5.98
   0  -6  -2  139.44    6.12
   0   6   2  146.45    9.93
   0   6  -2  144.86    7.71
   0  -6   2  137.17    7.12
   0   6   2  139.43    8.67
   0  -6  -2  143.89    7.37
   0  -6  -2  140.59    8.04
   0  -6   2  141.76    7.38
   0  -6  -2  134.11    7.52
  -1   6  -2  139.29    7.96
  -1   6  -2  131.91    5.80
   1  -6   2  136.56    6.60
  -1   6  -2  144.09    7.99
   1  -6   2  141.10    7.05
   1  -6   2  137.33    7.57
  -1   6  -2  133.49    6.86
  -1   6  -2  137.14    7.42
   3  -7  -2   65.86    6.26
   3  -7  -2   54.68    5.26
  -3   7   2   63.36    6.40
  -3   7   2   66.33    6.55
   2  -7  -2   64.45    5.23
   2  -7  -2   64.57    5.35
   2  -7  -2   61.89    5.54
  -2   7   2   74.35    6.56
  -2   7   2   69.12    6.47
   2  -7  -2   63.73    5.87
  -2   7   2   64.15    5.36
   1   7  -2 1013.99   22.73
  -1  -7   2  989.94   19.77
   1   7  -2  943.25   24.32
  -1  -7   2 1036.56   20.39
   1  -7  -2 1043.73   19.76
  -1   7   2 1062.37   20.86
   1  -7  -2 1075.23   19.76
  -1  -7   2 1052.59   21.65
   1  -7  -2 1037.65   21.29
   1   7  -2  968.36   26.21
  -1  -7   2 1042.91   20.92
  -1   7   2 1020.13   24.13
  -1   7   2 1051.88   22.26
  -1   7   2 1010.24   23.54
   1  -7  -2 1061.74   20.29
   0   7  -2  146.43    8.87
   0   7   2  153.86    9.34
   0   7  -2  142.61    8.76
   0  -7  -2  149.54    8.48
   0   7  -2  153.33    8.81
   0  -7   2  130.39    6.87
   0  -7   2  139.07    7.10
   0  -7  -2  170.94    9.34
   0   7   2  134.81    9.05
   0   7  -2  155.56    7.84
   0   7   2  138.09   10.56
   0   7   2  157.45   11.03
   0  -7   2  155.60    7.94
   0  -7  -2  156.72    8.41
   0  -7   2  153.06    8.19
  -1   7  -2  175.55    9.41
  -1   7  -2  173.21    9.54
   1  -7   2  158.88    7.78
   1  -7   2  184.86    8.59
  -1   7  -2  173.13    8.39
  -1   7  -2  166.25    8.99
   1  -7   2  183.15    9.11
   2  -7   2  498.58   16.83
  -2   7  -2  508.03   17.02
  -2   7  -2  493.17   16.47
   2  -7   2  487.24   15.40
   3  -8  -2   78.92    7.41
   3  -8  -2   80.86    6.86
  -3   8   2   72.26    7.31
  -3   8   2   74.75    7.10
  -2   8   2   -1.94    2.90
  -2   8   2   -7.03    3.58
  -2   8   2    3.65    2.01
   2  -8  -2   -0.86    2.16
   2  -8  -2   -0.30    2.10
   2  -8  -2    3.13    2.15
  -2   8   2   -1.49    2.38
   2  -8  -2    2.91    2.32
   1   8  -2  132.43    9.87
  -1   8   2  131.09    9.77
   1   8  -2  137.98    9.45
  -1  -8   2  129.85    7.82
   1   8  -2  130.42   10.23
  -1  -8   2  138.26    8.15
   1  -8  -2  135.72    7.87
   1  -8  -2  124.80    7.44
  -1   8   2  128.64    8.17
   1  -8  -2  135.12    8.21
   1   8  -2  137.05   10.54
  -1  -8   2  135.40    8.31
  -1   8   2  127.42    9.77
  -1   8   2  134.71    8.70
  -1  -8   2  125.69    7.84
   1  -8  -2  124.75    7.64
   0   8  -2  238.94   11.57
   0   8  -2  259.53   11.04
   0   8   2  255.07   13.00
   0  -8  -2  267.17   11.94
   0   8  -2  252.84   12.32
   0  -8   2  251.32   10.10
   0  -8   2  245.26   10.10
   0   8  -2  254.36   12.60
   0  -8  -2  270.53   12.69
   0   8   2  236.80   14.53
   0   8   2  232.57   14.72
   0  -8   2  258.74   10.70
   0   8   2  204.64   11.65
   0  -8  -2  252.57   11.35
   0  -8   2  255.61   11.01
  -1   8  -2   21.86    4.29
  -1   8  -2   22.46    3.97
   1  -8   2   22.93    3.83
  -1   8  -2   22.07    4.01
   1  -8   2   20.84    3.72
  -1   8  -2   19.03    3.38
   1  -8   2   22.87    3.34
  -2   8  -2   47.92    6.00
  -2   8  -2   54.60    6.14
   2  -8   2   48.94    5.47
   2  -8   2   53.45    6.21
   3  -9  -2  359.95   14.86
  -3   9   2  334.47   15.75
   3  -9  -2  347.54   14.40
  -3   9   2  362.14   14.38
   3  -9  -2  346.87   15.18
  -3   9   2  347.87   15.35
  -2   9   2    9.95    4.17
   2  -9  -2    3.43    2.46
   2  -9  -2    4.77    2.45
   2  -9  -2   11.00    3.30
  -2   9   2    7.55    2.83
  -2   9   2    3.00    3.14
   2  -9  -2    3.09    2.27
  -2   9   2    6.69    2.73
  -1  -9   2    9.46    3.62
   1   9  -2    3.27    3.30
  -1  -9   2    9.75    2.59
   1  -9  -2   13.39    3.17
  -1   9   2   11.53    3.43
   1   9  -2   10.20    4.78
   1  -9  -2    9.94    3.14
  -1  -9   2    9.65    3.16
   1  -9  -2    8.81    3.19
  -1   9   2    2.23    2.51
   1   9  -2   16.70    5.62
  -1   9   2    4.87    3.40
  -1   9   2    4.72    4.25
   1   9  -2   10.83    4.09
   1  -9  -2   10.34    2.98
   0  -9   2   12.91    3.26
   0   9  -2   17.81    3.99
   0  -9   2    8.41    3.07
   0  -9   2   11.98    3.35
   0   9  -2   15.25    4.11
   0   9  -2   16.41    3.74
   0  -9   2   12.26    3.11
   0  -9  -2   12.65    3.55
   0  -9  -2   13.69    3.89
   0   9   2    9.87    4.77
   0   9   2   22.44    6.48
   0   9   2   15.64    4.69
   0   9  -2   19.25    5.18
   0  -9  -2   13.92    3.33
  -1   9  -2   21.78    4.43
  -1   9  -2   23.81    4.24
   1  -9   2   31.58    4.83
  -1   9  -2   25.93    4.68
   1  -9   2   29.22    4.44
  -1   9  -2   28.12    4.22
   1  -9   2   26.25    4.08
   1  -9   2   34.41    4.65
  -2   9  -2    1.39    3.00
   2  -9   2   -1.89    3.15
   2  -9   2    5.66    3.38
  -2   9  -2    3.63    2.49
  -3  10   2  161.92   10.52
   3 -10  -2  171.63   10.70
  -3  10   2  190.05   12.50
   3 -10  -2  171.69   10.97
   3 -10  -2  186.34   11.98
  -3  10   2  177.43   12.31
   2 -10  -2   11.26    3.81
   2 -10  -2    7.95    3.31
  -2  10   2    8.55    3.24
   2 -10  -2    7.30    2.61
  -2  10   2    3.71    2.84
  -2  10   2    8.95    4.26
   2 -10  -2   11.51    3.45
  -2  10   2    4.53    3.83
   1 -10  -2  743.41   21.76
  -1  10   2  687.49   25.12
   1  10  -2  761.32   25.45
   1  10  -2  748.27   27.09
  -1 -10   2  775.36   21.23
   1 -10  -2  756.99   20.61
   1 -10  -2  787.07   21.24
  -1  10   2  732.60   22.43
   1  10  -2  732.41   28.39
  -1  10   2  772.31   26.39
   1 -10  -2  758.56   19.90
  -1 -10   2  774.29   21.83
  -1  10   2  792.28   23.54
   0 -10   2   28.36    5.23
   0  10  -2   22.34    5.33
   0 -10   2   23.99    4.11
   0  10  -2   26.65    5.91
   0 -10   2   21.33    3.97
   0  10  -2   15.61    3.58
   0 -10  -2   13.38    3.26
   0 -10  -2   18.35    4.61
   0  10   2   32.75    8.04
   0 -10   2   27.44    4.56
   0  10   2   21.41    6.68
   0  10  -2   30.08    6.40
   0 -10  -2   27.60    4.64
   0  10   2   25.26    5.48
  -1  10  -2    8.28    3.74
   1 -10   2   20.66    4.17
  -1  10  -2   16.05    4.56
   1 -10   2    9.68    3.12
  -1  10  -2   15.72    4.35
   1 -10   2   11.25    3.45
   1 -10   2   15.06    3.56
  -1  10  -2   16.44    4.90
  -2  10  -2  162.80   11.77
   2 -10   2  182.70   10.75
  -2  10  -2  175.86   11.84
  -2  10  -2  174.50   10.82
   2 -10   2  186.81   11.68
   3 -11  -2   -2.76    2.71
  -3  11   2    2.05    4.26
   3 -11  -2    1.03    3.08
  -3  11   2    1.02    2.60
  -3  11   2    2.67    4.35
   3 -11  -2    0.46    2.82
   2 -11  -2   81.64    7.71
  -2  11   2   73.96    7.70
   2 -11  -2   78.47    7.54
  -2  11   2   77.59    8.90
  -2  11   2   79.01    9.09
   2 -11  -2   77.52    7.84
   1  11  -2  480.79   23.29
   1  11  -2  449.95   20.81
  -1 -11   2  504.86   18.14
   1 -11  -2  520.91   18.10
   1 -11  -2  478.58   18.17
  -1  11   2  487.04   20.11
   1 -11  -2  494.73   18.44
   1  11  -2  516.76   25.87
  -1 -11   2  494.93   18.12
  -1  11   2  476.91   22.92
  -1  11   2  495.45   22.47
   0 -11   2   10.53    4.62
   0  11  -2   -0.51    3.33
   0  11  -2   12.84    5.02
   0 -11  -2    6.65    3.48
   0  11  -2    5.64    4.34
   0 -11   2    5.89    3.13
   0  11   2    3.84    6.01
   0 -11  -2    7.83    3.77
   0  11   2   11.79    7.77
   0  11  -2    6.82    5.60
   0 -11   2    7.53    3.76
   0  11   2    2.16    4.73
  -1  11  -2  141.50   11.25
   1 -11   2  134.72    9.23
   1 -11   2  130.17    9.24
  -1  11  -2  136.39   10.47
  -1  11  -2  144.86   11.65
   1 -11   2  144.73   10.18
  -2  11  -2  156.86   11.93
   2 -11   2  157.66   10.68
  -2  11  -2  145.82   10.67
  -2  11  -2  147.24   11.74
   2 -11   2  156.44   11.00
   2 -11   2  174.77   11.72
   3 -12  -2   72.09    8.37
  -3  12   2   85.49    9.60
   3 -12  -2   78.00    8.32
  -3  12   2   74.01    8.36
  -3  12   2   70.89    9.23
   3 -12  -2   72.10    8.13
  -2  12   2   22.43    5.83
   2 -12  -2    6.12    3.98
   2 -12  -2   16.60    4.08
   2 -12  -2   11.01    4.00
  -2  12   2    7.30    4.51
  -2  12   2   17.39    5.81
  -1 -12   2   17.44    4.46
   1  12  -2   21.13    6.35
  -1  12   2   18.52    5.27
   1 -12  -2   21.95    4.94
   1  12  -2   15.32    6.85
   1 -12  -2   21.54    5.11
  -1  12   2   43.19    8.58
   1 -12  -2   25.71    5.18
  -1 -12   2   24.12    4.96
  -1  12   2   28.40    8.30
   0  12   2  124.26   12.63
   0 -12  -2  136.35   10.51
   0  12  -2  130.07   12.27
   0 -12   2  139.10   10.12
   0 -12   2  126.87    9.66
   0 -12  -2  135.50   10.43
   0  12  -2  132.18   11.46
   0  12  -2  153.21   13.94
   0  12   2  134.96   15.00
   0 -12   2  141.10   10.43
   1 -12   2    7.96    4.04
   1 -12   2   17.89    4.76
  -1  12  -2   18.26    4.91
  -1  12  -2   10.70    3.65
   1 -12   2   14.73    4.51
  -1  12  -2   10.02    4.94
  -2  12  -2   46.74    7.91
   2 -12   2   40.97    6.16
   2 -12   2   39.80    6.43
  -2  12  -2   37.06    6.74
  -2  12  -2   41.39    6.43
   2 -12   2   40.56    6.17
   3 -13  -2   43.77    6.87
  -3  13   2   53.74    7.56
   3 -13  -2   42.71    7.16
  -3  13   2   48.43    8.78
   3 -13  -2   46.03    7.09
  -3  13   2   46.22    8.40
  -2  13   2    4.29    4.25
   2 -13  -2   -1.90    3.72
   2 -13  -2    8.79    3.44
  -2  13   2   11.77    6.25
   2 -13  -2    8.90    3.87
  -2  13   2   -0.95    5.59
  -1 -13   2   40.58    6.36
   1  13  -2   45.12    9.18
   1  13  -2   45.98    9.75
  -1  13   2   48.40    7.98
   1 -13  -2   45.70    6.78
   1 -13  -2   46.96    6.98
   1 -13  -2   52.67    7.50
  -1  13   2   49.76    9.22
  -1  13   2   42.31    8.80
  -1 -13   2   35.82    5.74
   0 -13   2   38.42    6.27
   0  13   2   46.87   10.00
   0  13  -2   57.26    9.21
   0 -13  -2   37.82    6.24
   0  13  -2   51.75    9.08
   0 -13   2   38.97    6.74
   0 -13   2   48.69    6.88
   0 -13  -2   36.28    6.46
   0  13  -2   44.72    8.80
   1 -13   2   46.39    7.05
  -1  13  -2   38.57    7.92
   1 -13   2   39.68    6.41
  -1  13  -2   33.39    6.37
  -1  13  -2   28.53    6.72
   1 -13   2   44.63    6.63
  -2  13  -2  147.67   13.24
   2 -13   2  164.96   11.94
   2 -13   2  166.32   12.54
  -2  13  -2  144.84   13.57
  -2  13  -2  131.18   11.56
   2 -13   2  146.52   11.58
   3 -14  -2   38.01    7.01
   3 -14  -2   33.19    6.36
  -3  14   2   33.64    7.61
   3 -14  -2   38.52    7.20
  -3  14   2   43.93    9.33
  -3  14   2   31.52    6.79
  -2  14   2    0.81    4.79
   2 -14  -2    9.08    4.67
   2 -14  -2    0.62    3.39
  -2  14   2    4.55    5.34
   2 -14  -2    5.59    3.58
  -2  14   2   -8.68    7.36
   1  14  -2   43.04   10.19
   1  14  -2   44.96   10.78
   1 -14  -2   54.16    7.90
  -1 -14   2   56.68    8.16
  -1  14   2   49.62    8.93
   1 -14  -2   48.12    7.64
   1 -14  -2   54.92    8.08
  -1  14   2   59.80   11.52
  -1  14   2   48.66   11.07
   0 -14   2    2.21    3.65
   0  14   2    0.83    6.16
   0  14  -2   -0.68    5.73
   0 -14  -2    1.11    3.11
   0 -14   2   -5.85    3.88
   0  14  -2   16.98    6.46
   0 -14   2    0.16    3.82
   0  14  -2    0.62    7.49
   0 -14  -2   -4.48    4.01
   1 -14   2    3.95    3.95
   1 -14   2    3.66    3.82
  -1  14  -2    1.50    4.24
   1 -14   2   -2.86    3.77
  -1  14  -2   -6.88    6.80
  -2  14  -2   41.00    7.58
   2 -14   2   49.32    8.38
  -2  14  -2   45.27    7.52
   2 -14   2   46.18    7.56
  -2  14  -2   48.23    9.74
   2 -14   2   46.31    7.18
   3 -15  -2    6.15    4.39
  -3  15   2    3.87    5.40
   3 -15  -2   10.50    5.17
   2 -15  -2   36.51    7.42
  -2  15   2   38.76    8.14
   2 -15  -2   27.99    6.39
  -2  15   2   18.21    8.38
   1 -15  -2    3.95    4.63
  -1  15   2    3.75    5.66
   1 -15  -2   15.21    5.57
  -1  15   2   11.05    7.55
  -1  15   2    1.17    8.26
   0  15  -2  -15.35    8.97
   0  15  -2   -2.22    7.08
   0 -15   2    2.75    3.54
   0  15  -2   -6.59    6.97
   1 -15   2   25.97    6.39
  -1  15  -2   27.02    8.32
   1 -15   2   22.29    5.96
  -1  15  -2   32.45    9.58
  -1  15  -2   36.59    8.78
   2 -15   2    2.73    4.63
  -2  15  -2   -1.78    5.03
  -2  15  -2   -4.03    4.24
   1 -16  -2   -5.09    5.10
   0  16  -2    4.15    8.83
  -1  16  -2   11.57    7.19
   2   0  -3   -1.15    1.74
   2   0  -3   -0.68    1.04
   2   0  -3   -2.55    2.30
  -2   0   3    2.69    2.09
  -2   0   3    1.28    1.70
   2   0  -3    3.03    1.91
  -2   0   3    0.94    1.05
   2   0  -3   -2.04    1.61
  -1   0   3   -0.81    1.28
   1   0  -3    1.94    1.50
   1   0  -3   -0.75    1.65
   1   0  -3   -0.33    1.36
   1   0  -3    0.01    0.82
  -1   0   3   -0.86    1.85
  -1   0   3    0.79    1.46
  -1   0   3    0.04    1.17
  -1   0   3    0.52    1.58
   1   0  -3   -0.22    1.34
   0   0  -3    0.82    1.30
   0   0   3   -0.84    1.00
   0   0  -3    0.42    1.48
   0   0  -3   -1.20    1.06
   0   0   3   -1.29    1.86
   0   0  -3    1.59    1.57
   0   0   3    0.09    2.19
   0   0  -3    0.66    1.29
   2   1  -3  450.56   14.55
   2  -1  -3  444.70   12.29
  -2  -1   3  449.95   13.62
   2  -1  -3  491.34   14.51
   2   1  -3  465.31   11.82
   2   1  -3  443.48   15.32
   2  -1  -3  440.72   14.45
   2   1  -3  438.15   14.12
  -2  -1   3  488.83   14.43
  -2   1   3  479.65   14.29
  -2   1   3  470.03   13.99
  -2   1   3  479.62   11.77
  -2  -1   3  461.68    9.26
   2  -1  -3  451.61   13.29
   2   1  -3  440.91   12.94
   1   1  -3  220.12    8.88
   1  -1  -3  224.35    7.93
   1   1  -3  230.41    6.92
   1   1  -3  236.52   10.02
   1  -1  -3  233.63    9.54
   1  -1  -3  220.52    8.87
   1   1  -3  232.96    9.12
  -1  -1   3  219.71    9.24
  -1   1   3  246.84    8.48
  -1  -1   3  222.34    8.84
  -1   1   3  228.77    8.34
   1  -1  -3  230.33    6.99
  -1   1   3  220.34    9.43
  -1  -1   3  228.53    8.67
   1  -1  -3  232.97    8.88
   1   1  -3  223.81    8.19
  -1  -1   3  222.48    7.49
   0   1  -3   11.99    2.35
   0  -1  -3   12.00    2.30
   0  -1   3   13.16    2.19
   0   1  -3    7.26    2.15
   0  -1  -3   12.77    2.69
   0  -1  -3    9.58    2.33
   0  -1  -3   12.26    1.96
   0   1   3   13.32    3.19
   0  -1   3   11.16    2.74
   0   1  -3   10.01    2.13
   0  -1   3   12.19    2.92
   0   1   3   10.08    2.78
   0  -1  -3   10.06    2.20
   0   1  -3   10.74    2.04
  -1   1  -3  114.07    7.01
   2  -2  -3  112.06    5.84
   2   2  -3  105.14    6.45
   2  -2  -3  113.13    7.18
   2  -2  -3  104.40    5.92
  -2   2   3  108.53    6.96
   2  -2  -3  116.74    7.10
  -2  -2   3  111.59    7.06
  -2   2   3  122.83    6.63
   2   2  -3  110.79    7.21
  -2  -2   3  118.50    7.23
   2  -2  -3  114.12    7.00
   2   2  -3  105.72    7.93
   2   2  -3  125.13    8.13
   1   2  -3 1019.28   20.16
   1  -2  -3 1031.77   15.73
  -1   2   3 1061.02   20.42
   1   2  -3 1062.47   16.74
   1  -2  -3 1041.27   19.02
   1   2  -3 1043.95   19.41
   1  -2  -3  991.73   16.04
   1  -2  -3 1052.21   19.74
   1   2  -3 1017.91   20.91
  -1  -2   3 1034.79   19.82
  -1   2   3 1050.66   17.23
  -1   2   3 1075.36   19.50
  -1  -2   3 1077.70   19.93
  -1   2   3 1038.55   20.74
  -1  -2   3 1038.07   17.70
   1  -2  -3 1067.65   19.49
   1   2  -3  993.14   16.64
  -1  -2   3  995.68   17.05
   0   2  -3  412.14   12.56
   0   2  -3  403.14   13.25
   0   2  -3  409.43   10.55
   0   2  -3  404.84   11.94
   0  -2  -3  409.41   12.43
   0  -2  -3  392.46   10.96
   0  -2   3  417.91   12.62
   0   2   3  396.06   13.77
   0  -2   3  413.36   13.48
   0  -2  -3  391.07   12.74
   0   2   3  416.93   14.94
   0  -2  -3  416.71   12.76
   0   2  -3  398.70   10.22
   0  -2   3  409.27   10.67
  -1   2  -3    5.16    1.88
   1  -2   3    4.94    2.01
  -1   2  -3    5.70    2.21
  -1   2  -3    7.88    2.41
  -1   2  -3    4.07    1.46
   3  -3  -3  405.45   14.94
  -3   3   3  430.65   13.62
   3  -3  -3  459.88   16.09
   2   3  -3 1051.25   25.23
   2   3  -3 1118.95   22.57
   2   3  -3 1080.58   25.58
   2  -3  -3 1079.66   20.99
   2  -3  -3 1114.55   21.56
   2   3  -3 1158.18   23.78
  -2  -3   3 1088.20   21.26
  -2   3   3 1069.15   21.80
   2  -3  -3 1115.67   19.60
  -2  -3   3 1103.02   22.38
  -2   3   3 1078.53   21.07
   2  -3  -3 1088.14   21.82
   1   3  -3  592.29   16.27
   1  -3  -3  670.19   12.11
   1  -3  -3  642.20   13.97
   1   3  -3  686.20   14.83
   1  -3  -3  643.27   15.06
   1   3  -3  634.41   17.03
   1  -3  -3  659.96   15.85
   1   3  -3  692.07   15.93
  -1   3   3  644.16   16.19
  -1  -3   3  675.18   16.11
  -1   3   3  653.52   16.45
  -1   3   3  680.99   13.32
  -1  -3   3  655.39   16.13
  -1   3   3  695.90   17.78
  -1  -3   3  660.64   13.43
   1  -3  -3  675.12   16.08
   1   3  -3  665.05   13.23
  -1  -3   3  654.09   14.66
   0   3  -3  228.77    7.24
   0   3  -3  232.72    9.95
   0   3  -3  236.87    8.74
   0   3  -3  239.23   10.36
   0  -3  -3  235.19    9.56
   0   3  -3  231.06    9.16
   0  -3  -3  232.40   10.05
   0  -3  -3  212.63    8.64
   0   3   3  237.82   10.94
   0  -3   3  244.56   10.29
   0   3   3  252.22   12.99
   0  -3   3  236.47    9.21
   0   3   3  243.65   11.85
   0  -3  -3  230.14    9.96
   0  -3   3  234.05    8.63
   1  -3   3  243.00    9.63
  -1   3  -3  246.78   10.89
  -1   3  -3  240.11   10.12
  -1   3  -3  242.20   11.35
  -1   3  -3  256.38    8.77
   3  -4  -3   98.21    7.56
  -3   4   3   96.56    7.09
   3  -4  -3   95.28    7.66
   2   4  -3   12.05    3.19
   2  -4  -3   11.39    2.42
   2   4  -3   16.40    3.62
   2   4  -3   12.15    3.35
   2  -4  -3   12.62    2.91
   2   4  -3   15.05    2.78
   2  -4  -3   14.65    2.82
  -2   4   3   17.29    3.27
  -2  -4   3   13.93    3.07
  -2   4   3   19.55    3.80
   2  -4  -3   14.19    3.13
   1   4  -3    8.30    2.76
   1   4  -3    7.60    2.17
   1   4  -3    2.28    1.82
   1  -4  -3    7.57    2.08
   1  -4  -3    7.32    2.19
   1   4  -3    9.16    2.44
   1  -4  -3    8.35    2.16
  -1   4   3    6.15    2.14
  -1  -4   3   11.11    4.58
  -1   4   3    6.54    3.04
  -1   4   3    7.32    2.81
   1  -4  -3    7.96    2.29
   0   4  -3    1.37    2.05
   0  -4   3    5.10    2.34
   0   4  -3    2.40    1.72
   0   4  -3    1.38    1.85
   0  -4  -3    2.38    1.87
   0  -4  -3    2.12    1.66
   0   4  -3    3.93    1.88
   0   4   3    0.86    2.06
   0  -4   3    2.38    1.95
   0   4   3    1.44    3.34
   0   4   3    2.39    2.66
   0  -4  -3    2.29    1.95
   0  -4  -3    3.40    2.02
   1  -4   3  244.10   10.13
  -1   4  -3  236.47   11.26
  -1   4  -3  227.07   10.06
  -1   4  -3  231.44   11.54
  -1   4  -3  249.17   10.12
   3  -5  -3  120.35    7.75
   3  -5  -3  111.30    7.75
  -3   5   3  121.05    8.42
   3  -5  -3  114.18    8.68
   2   5  -3    3.70    3.23
   2   5  -3    1.03    2.33
   2   5  -3   -2.16    2.72
   2  -5  -3    1.90    1.79
   2  -5  -3    0.57    1.99
   2  -5  -3    2.44    2.00
  -2   5   3    1.59    2.42
  -2  -5   3    6.72    2.85
  -2   5   3    0.95    2.18
   2  -5  -3    0.52    2.18
   1   5  -3  104.81    7.86
   1   5  -3  109.10    7.41
   1   5  -3  107.05    7.68
   1  -5  -3  109.95    6.64
   1  -5  -3  108.70    6.42
   1  -5  -3   99.63    6.69
  -1   5   3  110.55    7.00
  -1  -5   3  116.88    6.93
  -1   5   3  107.63    8.14
  -1  -5   3  118.47    7.60
  -1   5   3  109.44    7.86
   1  -5  -3  105.62    7.17
  -1  -5   3  113.42    7.11
   1   5  -3  117.76    7.10
   0   5  -3  191.31    9.97
   0   5  -3  192.75    9.30
   0  -5  -3  196.23    9.01
   0  -5  -3  198.73    9.68
   0   5   3  176.47   12.06
   0  -5   3  202.09    9.50
   0  -5   3  194.13    9.73
   0   5   3  185.12   11.23
   0   5  -3  187.72    9.74
   0  -5  -3  201.16   10.16
   0  -5   3  196.00    8.98
   0   5  -3  199.34    8.41
  -1   5  -3    4.47    2.56
   1  -5   3   -1.13    2.10
  -1   5  -3    0.49    1.87
  -1   5  -3   -0.60    1.90
  -3   6   3   67.49    6.95
   3  -6  -3   62.05    6.45
   3  -6  -3   70.48    7.03
   2   6  -3   10.88    4.25
  -2   6   3    3.80    1.52
   2   6  -3   14.82    4.40
   2   6  -3    4.45    3.32
   2  -6  -3    8.66    2.81
   2  -6  -3    6.73    2.16
   2  -6  -3    5.38    2.28
  -2   6   3    6.96    2.57
  -2  -6   3    7.34    2.97
  -2   6   3    7.78    2.65
  -2   6   3    1.75    2.52
  -2   6   3    4.69    3.03
   2  -6  -3    5.12    2.11
  -1  -6   3   -2.30    2.32
   1   6  -3    7.17    3.44
  -1   6   3    3.64    1.97
   1   6  -3    3.35    2.51
   1   6  -3    6.33    3.13
   1  -6  -3    3.44    1.66
   1   6  -3    2.55    1.88
   1  -6  -3    0.57    1.74
  -1   6   3    3.47    2.58
  -1  -6   3    4.18    2.09
   1  -6  -3    4.74    2.04
  -1   6   3    2.06    1.94
  -1  -6   3    2.73    2.22
  -1   6   3    0.01    2.98
  -1   6   3    6.15    3.41
   1  -6  -3    5.49    2.44
   0   6  -3   -0.39    2.72
   0  -6   3    1.76    2.62
   0   6  -3   -0.91    2.14
   0   6   3    5.58    4.78
   0  -6  -3    1.80    1.93
   0   6  -3   -2.35    1.86
   0  -6  -3   -3.33    2.69
   0  -6   3    0.55    2.02
   0  -6   3   -0.68    1.62
   0  -6   3   -6.70    3.01
   0   6   3    1.29    3.16
   0   6  -3    0.50    2.13
   0   6   3    2.05    1.95
   0  -6  -3    0.45    2.26
  -1   6  -3    0.21    1.85
  -1   6  -3   -2.00    2.44
   3  -7  -3    0.51    2.35
  -3   7   3    3.25    2.84
   3  -7  -3   -0.01    2.59
   2   7  -3  358.92   17.86
   2   7  -3  356.53   17.29
   2   7  -3  403.58   17.34
   2  -7  -3  393.03   14.46
  -2   7   3  386.61   12.98
  -2  -7   3  400.41   15.48
  -2   7   3  395.89   16.18
  -2   7   3  372.72   15.26
   2  -7  -3  380.80   14.69
  -1  -7   3    6.63    2.96
   1   7  -3   11.10    3.91
  -1   7   3    9.71    2.76
   1   7  -3   12.59    3.58
   1   7  -3   13.95    3.74
   1  -7  -3   15.79    3.42
  -1  -7   3    7.60    2.27
  -1  -7   3   13.28    3.42
  -1   7   3   16.43    4.65
  -1   7   3   13.53    3.95
   1  -7  -3   15.58    3.75
   0   7  -3  111.59    8.82
   0   7   3  123.23    8.34
   0   7  -3  123.94    8.56
   0  -7  -3  114.53    8.76
   0   7   3  118.54   11.64
   0  -7   3  119.56    8.11
   0   7   3  114.96    9.62
   0  -7  -3  110.28    8.42
   0  -7   3  116.88    7.88
  -1   7  -3   63.08    7.22
  -1   7  -3   70.88    6.58
   1  -7   3   75.03    6.71
   3  -8  -3   56.38    6.77
   3  -8  -3   42.07    5.16
  -3   8   3   47.59    6.74
   3  -8  -3   55.22    6.75
   2   8  -3    3.35    3.86
   2   8  -3   -0.71    3.59
  -2   8   3    5.21    2.39
   2  -8  -3    4.53    2.47
   2  -8  -3    1.82    2.33
  -2   8   3    5.86    2.90
  -2   8   3    7.21    3.80
   2  -8  -3    1.12    2.28
  -1  -8   3    8.47    3.18
   1   8  -3    2.64    3.36
  -1   8   3   12.59    3.19
   1   8  -3   13.87    3.69
   1  -8  -3    5.82    2.72
   1  -8  -3   10.19    3.19
  -1  -8   3   14.33    3.81
  -1   8   3   11.04    4.22
  -1   8   3   10.14    4.11
   1  -8  -3    7.47    3.13
   0   8  -3   35.34    6.23
   0   8  -3   58.28    6.46
   0  -8  -3   56.38    6.11
   0  -8   3   55.97    5.99
   0   8   3   54.70    9.11
   0   8   3   43.44    6.53
   0   8   3   56.39    6.35
   0  -8  -3   49.45    5.80
   0  -8   3   63.34    6.48
  -1   8  -3  140.83    9.78
   1  -8   3  136.50    9.35
   3  -9  -3   38.11    5.28
   3  -9  -3   42.26    6.05
  -3   9   3   30.81    5.25
  -3   9   3   43.11    6.62
   3  -9  -3   25.45    5.25
   2  -9  -3  110.25    8.10
   2   9  -3   92.07    9.83
   2  -9  -3  103.86    8.53
  -2   9   3  104.89    8.09
  -2   9   3   92.57    9.60
  -2   9   3  108.96    9.20
   2  -9  -3  101.87    8.29
   1   9  -3  136.97   11.59
   1  -9  -3  122.06    8.42
  -1   9   3  124.53    8.95
   1  -9  -3  116.94    9.01
  -1   9   3  128.35   11.73
  -1  -9   3  121.90    8.90
  -1   9   3  121.64   10.19
   1  -9  -3  125.04    9.01
  -1  -9   3  117.56    8.93
   0   9   3  254.69   14.28
   0   9  -3  323.58   15.97
   0  -9  -3  272.01   13.74
   0   9   3  272.74   18.84
   0  -9   3  206.79   10.76
   0  -9  -3  261.86   13.20
   0  -9   3  373.11   16.77
  -1   9  -3   25.84    4.79
  -1   9  -3   19.65    5.40
   1  -9   3   25.12    4.82
   1  -9   3   30.89    5.32
   3 -10  -3   30.33    5.57
   3 -10  -3   22.64    5.17
  -3  10   3   21.88    4.72
  -3  10   3   23.38    5.96
   3 -10  -3   28.50    5.87
  -3  10   3   28.04    4.59
  -2  10   3    6.07    3.74
   2 -10  -3   -2.33    3.01
   2 -10  -3    0.15    2.72
  -2  10   3    3.73    3.61
  -2  10   3    6.77    5.30
   2 -10  -3    2.39    3.07
   1  10  -3  111.28   12.38
   1  10  -3  140.48   12.41
   1 -10  -3  145.92    9.75
  -1  10   3  134.92    9.89
   1 -10  -3  139.88   10.47
  -1  10   3  142.67   13.59
  -1 -10   3  126.90    9.36
  -1  10   3  146.49   12.06
   1 -10  -3  147.87   10.18
  -1 -10   3  142.55   10.20
   0  10  -3   61.99    9.37
   0 -10   3   76.24    7.37
   0  10  -3   61.73    8.26
   0 -10  -3   75.42    7.78
   0 -10   3   81.14    7.36
   0  10   3   79.75   10.39
   0 -10  -3   67.51    7.37
   0  10   3   73.51    8.35
   1 -10   3    7.77    3.91
  -1  10  -3    6.07    4.13
  -1  10  -3    2.78    2.87
   1 -10   3    3.37    3.35
   2 -10   3   21.23    5.49
  -2  10  -3   19.95    5.14
   3 -11  -3   28.68    5.48
   3 -11  -3   24.68    5.76
  -3  11   3   29.77    5.27
  -3  11   3   27.63    5.33
  -3  11   3   22.78    6.05
   3 -11  -3   22.89    5.18
  -2  11   3   32.70    5.44
   2 -11  -3   33.57    5.38
   2 -11  -3   31.10    5.60
  -2  11   3   33.41    6.52
  -2  11   3   25.83    6.72
   2 -11  -3   27.40    5.41
   1  11  -3  232.05   17.01
   1 -11  -3  274.38   15.09
  -1  11   3  281.51   19.07
  -1 -11   3  243.77   13.61
  -1  11   3  225.73   15.19
  -1  11   3  237.97   14.49
   1 -11  -3  254.13   13.92
  -1 -11   3  257.52   14.14
   0  11   3    1.03    4.32
   0 -11   3   -5.22    4.65
   0  11  -3   -1.03    3.93
   0  11  -3    6.57    3.91
   0 -11  -3    5.12    3.91
   0 -11   3    1.53    2.81
   0 -11  -3   -0.06    3.02
   1 -11   3   -0.86    3.42
  -1  11  -3   -1.18    4.53
  -1  11  -3    2.34    3.79
   2 -11   3    0.95    4.29
  -2  11  -3   -1.05    3.86
   2 -11   3    8.45    4.98
  -3  12   3    1.86    3.77
   3 -12  -3   -0.76    3.35
  -3  12   3   -8.96    5.99
   3 -12  -3    5.81    4.40
  -2  12   3   36.12    6.67
   2 -12  -3   50.04    7.16
   2 -12  -3   47.47    7.28
  -2  12   3   49.41    8.74
  -1 -12   3    6.70    4.71
   1  12  -3    1.29    5.96
   1  12  -3    7.92    5.92
  -1  12   3   11.15    5.57
   1 -12  -3   -4.71    4.07
  -1  12   3   -9.11    7.29
   0  12  -3   89.68   11.77
   0  12  -3  108.59   12.44
   0 -12  -3   95.61    9.62
   0 -12   3   96.23    9.07
   0 -12   3  121.58   10.25
   1 -12   3    2.68    3.95
  -1  12  -3    2.81    4.40
  -1  12  -3    9.27    5.73
   1 -12   3    8.72    4.15
   2 -12   3   62.61    8.78
  -2  12  -3   65.74    9.75
  -3  13   3   48.27    7.25
   3 -13  -3   45.01    7.21
   3 -13  -3   54.65    8.34
  -3  13   3   50.13    9.16
   2 -13  -3   38.21    6.69
  -2  13   3   35.77    6.52
   2 -13  -3   28.97    6.53
  -2  13   3   29.87    8.75
  -1 -13   3    3.10    4.18
   1 -13  -3    1.82    3.84
  -1  13   3   -1.19    4.28
  -1  13   3    8.90    7.60
   0 -13   3   67.79    8.50
   0  13  -3   58.53   10.85
   1 -13   3    2.01    4.58
  -1  13  -3    2.08    4.06
   2 -13   3   92.51   11.26
  -2  13  -3   75.58   11.84
   3 -14  -3   -0.81    5.19
  -3  14   3   -3.14    4.20
   3 -14  -3   11.49    5.59
  -2  14   3    8.36    4.32
   2 -14  -3   11.69    5.81
   2 -14  -3    9.45    4.83
   1  14  -3   34.36    9.89
   1 -14  -3   45.61    7.11
  -1  14   3   65.13   10.02
   0  14  -3   17.86    7.92
  -1  14  -3    0.51    4.79
  -2  15   3   -5.24    5.53
  -1  15   3  177.42   17.06
   3   0  -4    1.08    2.35
   3   0  -4    1.46    2.85
   3   0  -4   -1.06    2.88
   2   0  -4    0.30    1.92
   2   0  -4   -0.22    2.85
   2   0  -4    2.85    2.49
  -2   0   4    1.12    2.44
  -2   0   4   -2.84    2.67
   2   0  -4   -0.08    2.21
   1   0  -4  376.87   13.25
   1   0  -4  378.30   14.85
   1   0  -4  382.85   13.80
  -1   0   4  380.69   14.77
  -1   0   4  379.28   14.44
  -1   0   4  386.98   13.54
  -1   0   4  395.22   14.71
   1   0  -4  391.28   12.92
   0   0  -4  348.42   12.67
   0   0  -4  335.39   14.14
   0   0  -4  331.45   13.11
   0   0   4  342.25   15.13
   0   0   4  323.00   14.40
   0   0  -4  344.88   12.58
   3   1  -4   21.80    4.51
   3  -1  -4   21.26    3.89
   3   1  -4   13.25    3.98
   3  -1  -4   26.10    5.06
   3  -1  -4   25.21    4.59
   3   1  -4   22.44    4.47
   3  -1  -4   19.55    4.00
   2   1  -4  298.22   12.76
   2  -1  -4  310.06   11.62
   2   1  -4  291.47   14.13
   2  -1  -4  312.46   13.89
   2  -1  -4  322.76   13.30
   2   1  -4  330.47   13.89
  -2  -1   4  329.22   13.70
  -2   1   4  318.29   13.57
  -2   1   4  317.26   12.61
  -2  -1   4  303.25   12.80
   2  -1  -4  319.39   12.84
   2   1  -4  281.14   11.62
   1   1  -4   44.77    4.87
   1  -1  -4   53.98    4.81
   1   1  -4   57.24    6.18
   1  -1  -4   47.68    5.22
   1  -1  -4   54.43    5.43
   1   1  -4   47.22    5.24
  -1   1   4   50.86    5.85
  -1  -1   4   50.34    5.62
  -1  -1   4   52.22    5.78
  -1   1   4   52.26    5.11
  -1  -1   4   48.78    5.10
  -1  -1   4   50.90    5.30
  -1   1   4   51.95    5.81
   1  -1  -4   51.24    5.15
   1   1  -4   50.61    4.70
   0   1  -4  167.65    9.17
   0  -1  -4  173.69    9.03
   0   1  -4  171.37   10.34
   0  -1  -4  180.04   10.43
   0  -1  -4  168.19    9.66
   0   1  -4  170.71    9.67
   0   1   4  160.84   10.77
   0  -1   4  171.85   10.78
   0  -1   4  166.18   10.17
   0   1   4  168.18   11.11
   0  -1  -4  178.89    9.28
   0   1  -4  177.87    8.47
   3   2  -4    9.62    3.59
   3   2  -4   14.03    3.82
   3  -2  -4   19.16    4.35
   3  -2  -4   16.98    4.42
   3  -2  -4   15.51    3.64
   2   2  -4   74.50    7.28
   2   2  -4   73.71    7.50
   2  -2  -4   68.92    6.55
   2   2  -4   78.73    7.25
  -2  -2   4   76.64    6.97
  -2   2   4   79.48    7.41
  -2  -2   4   74.35    6.44
   2  -2  -4   65.79    6.28
  -2   2   4   62.58    6.38
   2  -2  -4   78.15    6.71
   2   2  -4   76.91    6.36
   1   2  -4    2.71    2.23
   1  -2  -4    6.07    2.54
   1   2  -4    8.71    2.91
  -1   2   4    3.30    2.79
  -1  -2   4   10.73    3.77
  -1  -2   4    3.52    2.64
  -1  -2   4    7.47    3.23
   1  -2  -4    3.70    2.04
  -1  -2   4    3.97    2.32
  -1   2   4    5.76    3.87
   1  -2  -4    4.66    2.44
   1   2  -4    6.43    2.11
   1   2  -4    4.61    2.56
   0   2  -4   93.97    7.13
   0   2  -4   98.61    8.07
   0  -2  -4  104.02    7.91
   0  -2  -4  105.00    7.69
   0   2  -4   97.61    7.27
   0   2   4  102.85    8.78
   0  -2   4   97.73    8.33
   0   2   4   92.68    8.55
   0  -2  -4  101.33    7.53
   0   2  -4  100.05    6.25
  -1   2  -4  125.99    8.57
   3  -3  -4   92.34    8.44
   3  -3  -4  100.69    8.95
  -3   3   4  102.49    7.40
   3  -3  -4  105.87    8.71
   2   3  -4   10.25    3.58
   2  -3  -4    8.87    2.95
   2   3  -4   12.31    3.78
   2   3  -4    5.88    2.69
   2  -3  -4    6.33    2.30
   2  -3  -4    5.56    2.72
  -2  -3   4   10.69    3.22
  -2   3   4   12.67    3.78
  -2  -3   4   17.06    4.02
  -2   3   4    6.08    2.80
  -2   3   4    5.86    2.52
   2  -3  -4    7.68    2.89
   1   3  -4   40.31    5.09
   1  -3  -4   43.37    5.02
   1   3  -4   38.54    5.23
   1  -3  -4   40.24    4.88
   1   3  -4   37.97    4.66
   1  -3  -4   33.61    3.83
  -1   3   4   43.20    5.41
  -1  -3   4   40.31    5.30
  -1  -3   4   39.75    5.07
  -1  -3   4   46.99    5.38
  -1   3   4   38.37    5.25
  -1   3   4   36.63    5.95
   1  -3  -4   40.61    5.09
   0   3  -4    2.07    1.95
   0   3  -4    3.10    2.95
   0  -3  -4    1.17    2.24
   0  -3  -4    1.04    2.34
   0   3  -4    0.54    1.92
   0   3   4    1.71    2.92
   0  -3   4   -1.58    3.90
   0   3   4    1.26    3.30
   0  -3  -4   -1.17    2.86
  -1   3  -4   55.43    6.14
  -1   3  -4   56.36    6.01
   3  -4  -4    7.39    3.10
   3  -4  -4    5.21    2.86
  -3   4   4    8.84    3.54
   3  -4  -4    5.02    2.67
   2   4  -4   39.68    5.81
   2   4  -4   35.62    5.74
   2  -4  -4   42.24    4.65
   2  -4  -4   37.93    5.37
   2   4  -4   48.60    5.76
  -2   4   4   40.57    5.31
  -2  -4   4   50.87    5.69
  -2   4   4   46.18    6.08
   2  -4  -4   44.19    5.22
  -2  -4   4   46.05    5.66
  -2   4   4   48.74    6.09
  -2   4   4   49.04    5.94
   2  -4  -4   40.42    5.43
   1   4  -4  166.61   10.52
   1   4  -4  151.15    8.44
   1   4  -4  155.80   10.41
   1  -4  -4  167.50    9.62
   1  -4  -4  152.65    8.93
   1  -4  -4  148.84    8.25
   1   4  -4  163.11    9.31
  -1   4   4  154.91    9.87
  -1  -4   4  167.20    9.94
  -1  -4   4  166.00    9.67
  -1   4   4  176.67   11.38
  -1  -4   4  157.52    9.44
  -1   4   4  163.76   10.89
   1  -4  -4  161.39    9.51
  -1  -4   4  171.51    9.07
   0   4  -4  249.82   12.40
   0   4  -4  234.55   10.72
   0   4  -4  244.95   12.83
   0  -4  -4  234.13   11.88
   0  -4  -4  268.75   11.43
   0  -4  -4  247.75   11.86
   0   4  -4  246.44   11.20
   0  -4   4  263.70   13.34
   0  -4   4  250.23   12.29
   0   4   4  224.72   14.06
   0  -4  -4  260.80   12.42
   0  -4   4  242.04   10.84
  -1   4  -4  369.16   15.97
  -1   4  -4  412.38   15.26
   1  -4   4  395.11   15.17
   3  -5  -4  206.42   11.51
   3  -5  -4  205.77   11.98
   3  -5  -4  197.82   10.99
  -3   5   4  208.52   11.93
   3  -5  -4  169.51   11.47
   2   5  -4  197.32   13.05
   2   5  -4  197.56   11.51
   2   5  -4  178.51   12.31
   2  -5  -4  196.29   10.58
   2  -5  -4  192.38   10.44
   2  -5  -4  181.72    9.97
  -2   5   4  184.25   10.41
   2   5  -4  206.46   11.75
  -2  -5   4  186.69   10.38
  -2   5   4  217.32   12.05
  -2  -5   4  206.44   11.60
  -2   5   4  196.43   11.63
  -2   5   4  191.68   12.10
   2  -5  -4  172.11   10.65
  -1  -5   4   50.12    5.25
   1   5  -4   46.43    5.98
   1   5  -4   50.18    5.37
   1   5  -4   48.84    6.12
   1  -5  -4   51.66    5.60
   1  -5  -4   51.48    5.56
   1   5  -4   56.02    5.94
   1  -5  -4   48.04    5.45
  -1   5   4   46.58    5.81
  -1  -5   4   52.28    6.06
  -1  -5   4   55.98    5.86
  -1   5   4   54.62    6.46
  -1  -5   4   47.15    5.89
  -1   5   4   54.05    7.22
  -1   5   4   51.46    7.03
   1  -5  -4   55.92    6.17
   0   5  -4  177.02   10.92
   0   5  -4  185.84   10.04
   0   5  -4  170.57   11.19
   0  -5  -4  174.99    9.87
   0  -5  -4  165.13    9.66
   0   5  -4  188.36    9.78
   0  -5   4  191.65   11.31
   0  -5   4  183.21   10.20
   0  -5   4  183.71   11.04
   0   5   4  169.82   12.28
   0  -5  -4  172.88   10.63
   0  -5   4  156.67    9.29
  -1   5  -4    3.47    3.01
   1  -5   4    7.61    4.14
  -1   5  -4    2.73    2.79
   3  -6  -4   47.04    6.08
  -3   6   4   43.29    6.02
   3  -6  -4   47.19    6.26
   2   6  -4  203.87   14.09
   2   6  -4  188.74   11.99
   2   6  -4  182.72   13.08
   2  -6  -4  186.96   10.32
   2  -6  -4  188.09   10.77
   2  -6  -4  175.46    9.96
  -2   6   4  182.21   10.52
  -2   6   4  196.56   11.74
  -2  -6   4  170.99   11.05
  -2   6   4  178.48   11.95
  -2   6   4  195.71   12.15
   2  -6  -4  186.66   11.20
  -1  -6   4    3.54    3.13
   1   6  -4   -5.14    3.83
   1   6  -4    2.96    2.86
   1   6  -4   -0.52    3.39
   1  -6  -4    1.43    2.31
   1  -6  -4   -0.39    2.24
   1   6  -4    1.56    2.64
   1  -6  -4    3.58    2.58
  -1   6   4   -1.34    2.74
  -1  -6   4   -4.48    2.97
  -1  -6   4   -1.11    2.49
  -1   6   4    2.18    3.27
  -1  -6   4    7.55    4.07
  -1   6   4   -3.46    4.27
  -1   6   4   -5.60    4.39
   1  -6  -4    1.36    2.54
   0   6  -4  261.79   13.75
   0   6  -4  271.59   12.96
   0   6  -4  282.67   14.76
   0  -6  -4  270.81   13.05
   0  -6  -4  289.47   12.77
   0   6  -4  284.54   12.08
   0  -6   4  279.59   13.80
   0  -6   4  267.95   12.21
   0  -6   4  283.51   13.69
   0   6   4  257.17   15.51
   0  -6  -4  282.24   13.81
   0  -6   4  261.89   12.47
  -1   6  -4  353.23   16.60
  -1   6  -4  389.49   14.57
   1  -6   4  352.89   15.53
   3  -7  -4  175.36   11.16
  -3   7   4  159.46   11.63
  -3   7   4  194.53   12.36
   3  -7  -4  144.89   10.83
   2   7  -4   57.18    8.28
   2   7  -4   70.42    8.38
   2   7  -4   60.76    8.19
   2  -7  -4   59.65    6.22
  -2  -7   4   59.61    6.63
  -2   7   4   72.20    8.47
  -2   7   4   60.25    7.81
   2  -7  -4   55.00    6.97
   1   7  -4  211.17   13.85
   1   7  -4  211.25   12.46
   1   7  -4  225.95   13.98
   1  -7  -4  224.28   11.73
  -1  -7   4  235.37   11.91
  -1   7   4  219.34   15.04
  -1  -7   4  220.68   12.27
  -1   7   4  229.82   14.68
   1  -7  -4  222.18   12.39
  -1  -7   4  209.97   11.72
   0   7  -4   53.12    6.88
   0  -7   4   52.64    6.00
   0   7  -4   60.89    6.86
   0  -7  -4   57.47    6.43
   0  -7   4   57.19    6.82
   0  -7  -4   67.85    7.21
  -1   7  -4   22.93    5.24
   1  -7   4   25.66    5.66
  -1   7  -4   21.95    4.61
   3  -8  -4   16.07    4.22
  -3   8   4   21.54    5.44
  -3   8   4   20.01    5.26
   3  -8  -4   12.64    3.83
   2   8  -4  132.79   12.86
   2   8  -4  147.19   12.39
   2  -8  -4  196.85   12.39
  -2   8   4  200.04   14.15
  -2   8   4  169.37   12.17
   2  -8  -4  211.47   13.37
  -1  -8   4   -4.26    3.43
   1   8  -4    2.71    4.71
   1   8  -4    7.34    3.84
   1  -8  -4    1.93    2.74
  -1  -8   4   -0.35    3.66
  -1   8   4    1.08    3.88
   1  -8  -4    9.49    4.16
   0   8  -4   69.00    9.17
   0   8  -4   84.57    8.50
   0  -8  -4   76.23    7.71
   0  -8   4   95.05    8.61
   0  -8  -4   77.41    7.73
   0  -8   4   92.42    8.37
  -1   8  -4   14.09    5.37
   1  -8   4   21.13    4.88
  -1   8  -4   28.54    5.70
   1  -8   4    6.77    4.88
   3  -9  -4   58.38    7.83
  -3   9   4   65.49    8.16
  -3   9   4   74.60    9.41
   3  -9  -4   54.04    7.38
   2   9  -4    0.94    5.28
   2   9  -4    2.87    4.17
   2  -9  -4    4.96    3.71
  -2  -9   4   -0.17    3.33
  -2   9   4   12.88    5.92
  -2   9   4   -3.60    3.95
   2  -9  -4    6.49    3.83
  -1  -9   4    5.06    3.51
   1   9  -4    0.35    4.35
   1   9  -4   -2.85    4.32
   1  -9  -4    7.56    3.23
  -1  -9   4    1.75    3.26
  -1   9   4    0.00    5.56
  -1   9   4   -0.35    4.21
   1  -9  -4   -0.92    3.22
   0  -9   4   19.34    4.71
   0   9  -4    9.03    5.27
   0   9  -4   11.95    5.17
   0  -9  -4   18.75    4.41
   0  -9   4   15.64    4.46
   0  -9  -4   25.82    5.11
   1  -9   4   -4.42    4.42
  -1   9  -4   -2.29    3.48
  -1   9  -4   -0.81    3.08
   1  -9   4   -2.49    3.61
   3 -10  -4   13.02    4.69
  -3  10   4   16.20    5.86
  -3  10   4   -0.87    4.91
   3 -10  -4    3.35    3.76
   2  10  -4   23.24    7.76
   2  10  -4   23.05    7.44
   2 -10  -4   29.41    5.57
  -2  10   4   34.02    7.89
  -2  10   4   35.50    6.92
   2 -10  -4   24.16    5.55
  -1 -10   4   31.56    5.55
   1  10  -4   21.19    8.46
   1  10  -4   38.75    7.82
   1 -10  -4   41.61    6.67
  -1 -10   4   39.92    6.19
  -1  10   4   28.27    7.19
  -1  10   4   38.39    7.14
   1 -10  -4   53.84    7.32
   0 -10   4   42.09    6.64
   0  10  -4   20.76    6.90
   0  10  -4   33.53    7.25
   0 -10   4   33.66    6.45
  -1  10  -4   66.35   11.00
   1 -10   4   94.90    9.26
  -1  10  -4   84.96   10.09
   1 -10   4   92.83    9.29
   3 -11  -4   29.32    6.14
  -3  11   4   38.35    7.16
  -3  11   4   41.90    8.31
   3 -11  -4   35.37    7.12
   2  11  -4   13.36    9.05
   2  11  -4   15.61    6.94
   2 -11  -4   27.75    6.11
  -2  11   4   40.61    8.53
  -2  11   4   34.42    7.44
   2 -11  -4   45.12    7.82
  -1 -11   4   77.32    8.73
   1  11  -4   32.71    9.67
   1  11  -4   68.26   11.25
   1 -11  -4   69.06    8.53
  -1 -11   4   79.57    8.99
  -1  11   4   64.41   11.88
  -1  11   4   54.31    9.23
   1 -11  -4   71.38    8.96
   0 -11   4   33.44    6.13
   0  11  -4   27.69    8.92
   0  11  -4   28.44    7.19
   0 -11   4   54.26    7.68
   1 -11   4   -5.55    4.42
  -1  11  -4   -5.16    5.06
  -1  11  -4   -4.01    3.85
   1 -11   4    1.34    4.22
   3 -12  -4    6.32    4.80
  -3  12   4   10.41    7.28
  -3  12   4   11.01    5.96
   3 -12  -4    9.26    5.25
   2 -12  -4   58.93    8.49
  -2  12   4   64.52   11.68
  -2  12   4   78.75   10.78
   2 -12  -4   68.32    9.29
  -1 -12   4    5.22    4.78
   1  12  -4    9.97    6.82
   1  12  -4    0.34    4.95
   1 -12  -4   -2.90    4.22
  -1 -12   4   -1.54    4.14
  -1  12   4   12.50    8.27
   1 -12  -4    6.16    4.28
   0 -12   4    4.90    4.04
   0  12  -4    2.18    5.46
   0  12  -4    1.74    5.16
   0 -12   4    0.26    3.81
  -1  12  -4  116.81   13.22
   1 -12   4  118.44   11.72
   1 -12   4  125.61   11.60
   2 -13  -4   46.82    7.94
   1  13  -4    4.68    6.90
   1  13  -4    5.19    6.82
   1 -13  -4    1.41    4.29
   0  13  -4    0.63    6.38
   0  13  -4    4.75    5.83
   0 -13   4    8.97    4.94
  -1  13  -4    3.83    7.85
   1 -13   4   -3.58    5.38
   3   0  -5    0.54    4.34
   3   0  -5    2.23    3.64
  -3   0   5   -2.02    3.52
   3   0  -5   -1.17    2.77
   2   0  -5    2.21    3.25
   2   0  -5    0.52    4.12
   2   0  -5   -1.31    3.44
  -2   0   5   -3.70    3.97
  -2   0   5    1.30    3.33
  -2   0   5   -1.99    3.40
  -2   0   5    3.67    2.94
   2   0  -5   -2.22    2.56
   1   0  -5    5.06    3.14
   1   0  -5    4.25    3.20
   1   0  -5   -3.85    3.22
  -1   0   5    5.23    4.20
  -1   0   5    2.06    3.76
  -1   0   5    3.45    3.63
  -1   0   5   -5.65    3.66
   1   0  -5   -1.07    2.76
   0   0  -5    1.00    3.16
   0   0  -5    1.27    2.85
   0   0   5   -4.70    3.68
   0   0  -5   -0.87    2.54
   3   1  -5   86.22    8.71
   3   1  -5  100.84   10.74
   3  -1  -5  106.64   10.34
   3  -1  -5  109.58   10.17
   3   1  -5  104.86   10.20
  -3  -1   5  111.77    9.39
  -3   1   5  120.71   10.00
   3  -1  -5  105.20    9.31
   2   1  -5   24.83    4.89
   2   1  -5   26.77    5.72
   2  -1  -5   18.36    4.97
   2  -1  -5   19.70    4.76
   2   1  -5   26.87    5.34
  -2   1   5   23.67    4.95
  -2  -1   5   29.41    5.51
  -2  -1   5   22.63    4.73
  -2   1   5   19.59    4.83
  -2  -1   5   20.92    4.21
  -2   1   5   25.01    5.31
  -2  -1   5   23.47    4.61
   2  -1  -5   22.86    4.51
   2   1  -5   22.25    3.99
   1   1  -5    7.45    3.60
   1   1  -5    7.92    4.08
   1  -1  -5    5.69    3.48
   1  -1  -5    1.87    2.76
   1   1  -5   -1.82    2.75
  -1   1   5   -0.55    3.61
  -1  -1   5    5.86    3.73
  -1  -1   5    0.50    3.51
  -1   1   5    2.75    3.96
  -1  -1   5    5.25    3.69
  -1   1   5   -1.27    4.24
   1  -1  -5   -1.31    2.77
   0   1  -5   16.10    3.91
   0   1  -5   17.86    4.92
   0  -1  -5   25.50    5.57
   0  -1  -5   13.55    4.10
   0   1  -5   16.08    3.98
   0   1   5   19.95    5.89
   0  -1   5   22.54    6.07
   0  -1  -5   14.69    3.57
   3   2  -5   68.80    8.19
   3   2  -5   97.58   10.93
   3  -2  -5   78.13    8.60
   3   2  -5   84.20    8.92
   3  -2  -5   77.77    8.59
  -3   2   5  100.88    9.37
  -3   2   5   76.50    8.22
   3  -2  -5   83.95    8.32
   2   2  -5  368.60   16.92
   2   2  -5  354.34   17.87
   2  -2  -5  366.37   17.08
   2  -2  -5  387.86   16.78
   2   2  -5  404.84   17.48
  -2   2   5  377.62   17.43
  -2  -2   5  384.68   17.10
  -2  -2   5  356.15   16.24
  -2   2   5  382.33   17.40
  -2  -2   5  392.01   16.53
  -2   2   5  380.67   17.46
   2  -2  -5  383.48   16.26
   1   2  -5  206.68   12.01
   1   2  -5  205.94   12.95
   1  -2  -5  205.82   12.71
   1  -2  -5  218.54   12.22
   1   2  -5  219.46   12.08
  -1   2   5  223.95   13.67
  -1  -2   5  216.73   13.23
  -1  -2   5  227.93   12.97
  -1   2   5  217.65   13.64
  -1  -2   5  230.33   12.98
  -1   2   5  224.20   14.60
   1  -2  -5  232.45   12.28
   0   2  -5  196.79   11.76
   0   2  -5  198.10   13.26
   0  -2  -5  166.82   11.64
   0  -2  -5  200.66   12.32
   0   2  -5  185.34   11.54
   0  -2   5  205.18   14.03
   0  -2   5  193.22   12.54
   0  -2  -5  199.64   11.64
   3   3  -5   43.60    7.32
   3   3  -5   37.33    7.93
   3  -3  -5   46.46    7.26
   3  -3  -5   53.03    7.75
   3   3  -5   52.07    7.06
  -3   3   5   44.68    6.72
  -3   3   5   48.32    7.18
   3  -3  -5   47.45    6.64
   2   3  -5   -1.49    3.47
   2   3  -5   -3.32    4.20
   2  -3  -5    5.01    3.32
   2  -3  -5   -1.00    2.73
   2   3  -5    5.51    3.74
  -2   3   5   -4.37    3.98
  -2  -3   5   -1.02    3.78
  -2  -3   5   -4.03    3.66
  -2   3   5    2.79    4.14
  -2  -3   5   -2.51    3.83
  -2   3   5    0.61    3.61
   2  -3  -5    4.10    3.39
   1  -3  -5   24.58    5.27
   1  -3  -5   13.54    4.26
  -1   3   5   21.89    6.11
  -1   3   5    9.69    4.35
  -1   3   5   12.19    5.21
   1  -3  -5   13.21    3.82
   0   3  -5    2.79    2.89
   0   3  -5    2.17    3.83
   0  -3  -5    4.14    2.78
   0  -3  -5    5.61    2.94
   0   3  -5    7.97    3.55
   0  -3   5    7.72    4.42
   0  -3   5    4.36    3.95
   0  -3  -5   -0.30    2.84
   3   4  -5    5.99    4.51
   3   4  -5    1.16    4.68
   3  -4  -5    9.73    4.44
   3  -4  -5    0.58    3.23
  -3   4   5    8.53    4.01
  -3   4   5    6.26    3.92
  -3   4   5    3.82    3.48
   3  -4  -5    7.80    4.23
   2   4  -5  117.97   10.80
   2   4  -5  117.92   11.28
   2  -4  -5  118.18   10.00
   2  -4  -5  124.45    9.53
   2   4  -5  133.96   10.64
  -2   4   5  123.29   10.36
  -2  -4   5  130.77   10.34
  -2  -4   5  135.24   10.20
  -2   4   5  137.53   11.48
  -2  -4   5  130.04   10.27
  -2   4   5  122.95   11.00
   2  -4  -5  113.40    9.68
   1   4  -5  129.76   10.27
   1   4  -5  118.74   10.67
   1  -4  -5  148.43   10.66
   1  -4  -5  121.80    9.53
   1   4  -5  133.02    9.67
  -1   4   5  125.56   10.69
  -1  -4   5  132.63   10.53
  -1  -4   5  129.53   10.00
  -1   4   5  125.84   10.88
  -1  -4   5  133.71   10.43
  -1   4   5  131.98   11.68
   1  -4  -5  119.61    9.67
   0   4  -5    1.96    2.99
   0   4  -5   11.60    4.49
   0  -4  -5    6.24    3.57
   0   4  -5    8.63    3.62
   0  -4   5   11.23    5.36
   0  -4   5    4.06    3.45
   0  -4   5   10.11    4.41
   0  -4  -5    4.45    3.07
   3   5  -5   27.02    6.60
   3   5  -5   25.20    7.70
   3  -5  -5   29.67    6.06
   3  -5  -5   36.92    6.78
  -3   5   5   36.54    5.92
  -3   5   5   27.44    5.66
  -3   5   5   27.14    5.52
   3  -5  -5   30.65    5.77
   2   5  -5  183.56   14.13
   2   5  -5  178.98   14.11
   2  -5  -5  174.27   11.66
   2  -5  -5  184.00   12.03
   2   5  -5  210.59   13.31
  -2   5   5  187.00   12.38
  -2  -5   5  195.44   12.60
  -2  -5   5  193.42   12.33
  -2   5   5  206.31   13.73
  -2  -5   5  191.91   12.70
  -2   5   5  205.28   13.95
   2  -5  -5  181.52   12.14
   1   5  -5    0.38    3.70
   1   5  -5    5.34    3.45
   1  -5  -5   -0.37    3.02
   1  -5  -5    1.11    2.81
   1   5  -5    1.33    3.31
  -1   5   5   -3.94    3.80
  -1  -5   5    4.32    4.35
  -1  -5   5   -0.71    3.57
  -1   5   5   -0.70    4.73
  -1  -5   5   -0.10    3.64
  -1   5   5   -1.10    4.45
   1  -5  -5    3.50    3.53
   0   5  -5   22.19    5.07
   0   5  -5   17.87    5.12
   0  -5  -5   14.38    4.70
   0   5  -5   23.56    4.63
   0  -5   5   20.37    5.58
   0  -5   5   26.34    5.37
   0  -5   5    2.24    5.11
   0  -5  -5   19.07    4.72
   3  -6  -5   -1.72    4.11
  -3   6   5    7.20    4.32
  -3   6   5   -0.90    4.11
   3  -6  -5   -1.84    3.44
   2   6  -5   24.47    7.00
   2   6  -5   10.37    5.12
   2  -6  -5   30.50    5.87
   2   6  -5   28.52    5.59
  -2   6   5   37.44    6.64
  -2  -6   5   15.93    4.06
  -2  -6   5   36.34    5.98
  -2  -6   5   15.14    5.40
  -2   6   5   31.34    6.67
   2  -6  -5   26.96    5.50
   1   6  -5   84.53    9.11
   1   6  -5   95.63   10.56
   1  -6  -5   72.55    7.74
   1  -6  -5   78.91    8.06
   1   6  -5   81.61    8.22
  -1  -6   5   95.42    9.31
  -1   6   5   61.23    7.76
  -1  -6   5   85.47    8.61
  -1   6   5   71.68    9.04
  -1  -6   5   52.49    8.68
  -1   6   5   85.14   10.87
   1  -6  -5   80.14    8.71
   0   6  -5   -5.33    3.69
   0   6  -5    3.77    4.39
   0  -6  -5    1.61    3.46
   0   6  -5    2.72    3.62
   0  -6   5   -7.29    4.49
   0  -6   5   -4.84    4.41
   0  -6   5   -0.02    4.25
   0  -6  -5   -1.14    3.20
  -1   6  -5   94.41   10.24
  -4   7   5   75.14    9.08
   4  -7  -5   57.96    8.75
   3  -7  -5    2.54    3.03
  -3   7   5   -1.75    4.59
  -3   7   5   -2.58    3.93
   3  -7  -5   -2.82    3.79
   2   7  -5    5.87    5.34
   2   7  -5    8.72    6.05
  -2  -7   5    8.99    5.08
  -2  -7   5    1.28    5.02
  -2   7   5    4.27    4.83
  -2   7   5   -4.20    5.29
   2  -7  -5    3.23    3.77
   1   7  -5    7.34    4.14
   1   7  -5   -5.61    5.32
  -1  -7   5    9.24    4.39
  -1  -7   5    3.14    3.89
  -1   7   5    2.75    5.69
  -1   7   5   -9.25    5.59
   1  -7  -5    3.19    4.03
   0   7  -5   -0.89    3.69
   0  -7   5   -2.64    4.56
  -1   7  -5    0.79    3.34
   1  -7   5   -0.27    5.48
  -4   8   5   18.58    5.99
   4  -8  -5   19.88    6.24
   3  -8  -5   11.33    4.25
  -3   8   5   15.39    6.32
  -3   8   5   13.48    5.77
   3  -8  -5   11.73    4.80
   2   8  -5   65.72   10.42
   2  -8  -5   56.13    7.34
  -2  -8   5   31.27    7.34
  -2   8   5   61.70   10.09
  -2   8   5   67.78   10.06
   2  -8  -5   56.24    7.75
  -1   8   5  254.52   22.52
  -1   8   5  260.07   18.66
   0   8  -5   23.72    7.34
   0  -8   5    3.08    5.91
   1  -8   5  330.48   19.08
  -4   9   5   24.09    6.32
   3  -9  -5   12.25    5.03
  -3   9   5    8.76    5.88
  -3   9   5   -7.52    5.11
   3  -9  -5    7.97    4.83
   2   9  -5   45.54   12.64
   2  -9  -5  113.78   10.22
  -2  -9   5   66.97   10.60
  -2   9   5  127.61   14.43
  -2   9   5  129.85   12.70
   2  -9  -5  126.67   11.77
  -1  -9   5   -9.33    5.22
   1   9  -5    1.97    5.04
   1  -9  -5    5.63    3.69
  -1  -9   5    0.04    4.16
  -1   9   5    2.97    5.25
   1  -9  -5    4.87    4.99
   0  -9   5    0.56    4.65
   0   9  -5   -4.87    4.39
   0   9  -5   10.05    4.84
   0  -9   5    0.82    5.11
   1  -9   5   -0.11    5.41
  -1   9  -5    3.64    3.87
   1  -9   5   -1.34    4.66
   3 -10  -5   20.10    5.64
  -3  10   5   17.20    8.28
  -3  10   5   15.04    6.63
   3 -10  -5    8.72    5.57
   2  10  -5   12.53    7.65
   2  10  -5   23.57    7.64
   2 -10  -5   28.13    6.39
  -2 -10   5    7.34    5.90
  -2  10   5   23.90    7.56
  -2  10   5   24.49    7.94
   2 -10  -5   21.17    5.77
  -1 -10   5   -1.47    4.17
   1  10  -5    0.72    6.26
   1  10  -5    4.57    5.03
   1 -10  -5    1.42    4.39
  -1 -10   5    0.34    3.88
  -1  10   5   -7.76    6.13
   1 -10  -5   -2.53    4.45
   0 -10   5   48.75    7.88
   0  10  -5   23.89    8.83
   0  10  -5   33.53    7.52
   1 -10   5   33.70    8.10
  -1  10  -5    8.53    5.92
   3 -11  -5   -2.29    3.84
   3 -11  -5   -7.67    5.11
   2  11  -5    6.75    8.27
   2  11  -5   -3.40    5.70
   2 -11  -5   14.17    5.55
   2 -11  -5    6.55    5.02
  -1 -11   5   30.76    7.80
   1  11  -5    7.66    8.00
   1  11  -5    2.93    5.59
   1 -11  -5   16.28    5.24
   1 -11  -5   19.58    5.89
   0 -11   5    5.68    4.79
   0  11  -5    4.97    5.90
   0  11  -5    1.54    4.57
   1  12  -5    8.10    5.83
   3   0  -6   12.64    6.04
   3   0  -6   12.47    4.97
  -3   0   6   13.30    4.99
  -3   0   6   22.68    6.32
   2   0  -6  302.78   18.15
   2   0  -6  316.75   17.21
  -2   0   6  318.90   18.17
  -2   0   6  337.24   18.41
   1   0  -6  147.01   12.89
   1   0  -6  159.17   12.33
  -1   0   6  146.56   13.19
  -1   0   6  129.36   12.79
   0   0  -6    5.83    4.51
   0   0  -6   10.30    4.50
   3   1  -6   68.99   10.28
   3  -1  -6   67.73    9.91
   3  -1  -6   73.87    9.60
   3   1  -6   74.18    9.51
  -3   1   6   76.59    9.49
  -3  -1   6   67.82    9.02
  -3  -1   6   75.42    8.94
  -3   1   6   72.12    9.47
  -3   1   6   56.67    8.39
   3  -1  -6   71.48    8.88
   2   1  -6   16.56    6.22
   2  -1  -6   19.28    5.72
   2  -1  -6    9.68    4.68
   2   1  -6   16.67    5.00
  -2   1   6   15.07    5.00
  -2  -1   6   13.95    5.58
  -2  -1   6    7.65    4.95
  -2   1   6   17.19    6.40
  -2   1   6   14.91    5.69
   2  -1  -6   15.11    3.96
   1   1  -6    2.60    4.26
   1  -1  -6    0.68    3.93
   1  -1  -6   -1.47    3.50
   1   1  -6    1.73    3.59
  -1   1   6    6.13    5.11
  -1  -1   6   -0.51    5.03
  -1  -1   6   -3.92    4.41
  -1   1   6    7.42    4.91
  -1   1   6   -8.79    6.05
   1  -1  -6   -2.75    3.59
   0   1  -6  119.43   11.74
   0  -1  -6  116.87   10.77
   0   1  -6  112.13   10.36
   0  -1   6   90.84    9.43
   3   2  -6   21.62    6.06
   3   2  -6   18.52    6.72
   3  -2  -6   24.81    6.83
   3  -2  -6   23.75    5.71
   3   2  -6   29.98    7.40
  -3   2   6   21.49    5.64
  -3  -2   6   22.40    5.74
  -3  -2   6   24.32    6.02
  -3   2   6   14.38    5.41
  -3   2   6   18.02    5.31
   3  -2  -6   22.18    5.66
   2   2  -6   22.19    4.85
   2   2  -6   20.37    5.92
   2  -2  -6   26.49    6.24
   2  -2  -6   29.50    6.37
   2   2  -6   30.17    6.55
  -2   2   6   29.82    7.23
  -2  -2   6   19.64    5.65
  -2  -2   6   18.74    5.80
  -2   2   6   19.56    5.71
  -2  -2   6   21.37    6.15
  -2   2   6   19.39    6.36
   2  -2  -6   32.44    6.37
   1   2  -6    5.52    3.29
   1   2  -6   12.90    5.34
   1  -2  -6   18.30    5.92
   1  -2  -6    9.36    4.74
   1   2  -6   11.20    4.20
  -1   2   6   13.97    5.60
  -1  -2   6   13.82    5.88
  -1  -2   6   16.94    5.36
  -1   2   6   13.72    6.04
  -1  -2   6   14.98    4.77
  -1   2   6    2.11    5.62
   1  -2  -6   12.81    4.39
   0   2  -6   39.18    7.56
   0  -2  -6   47.90    7.35
   0   2  -6   46.45    7.06
   0  -2   6   47.15    8.21
   0  -2   6   38.64    6.82
   3   3  -6   38.65    7.12
   3   3  -6   45.92    9.26
   3  -3  -6   40.79    7.49
   3  -3  -6   55.77    8.89
   3   3  -6   25.38    5.97
  -3   3   6   40.34    7.11
  -3  -3   6   51.92    8.11
  -3   3   6   41.48    7.70
  -3   3   6   34.07    6.86
   3  -3  -6   32.45    6.46
   2   3  -6    6.70    4.00
   2   3  -6    6.17    6.54
   2  -3  -6   14.02    5.36
   2  -3  -6   14.43    5.44
   2   3  -6   18.91    5.43
  -2   3   6    9.52    4.92
  -2  -3   6   29.34    6.90
  -2  -3   6   11.86    5.21
  -2   3   6    5.84    6.05
  -2  -3   6    6.21    4.96
  -2   3   6    7.63    5.12
   2  -3  -6    8.27    3.52
   1   3  -6    8.60    4.45
   1   3  -6   13.45    5.25
   1  -3  -6   18.74    5.63
   1  -3  -6    9.47    4.58
   1   3  -6   11.81    4.26
  -1   3   6   13.84    4.87
  -1  -3   6    4.73    4.35
  -1  -3   6    3.51    4.79
  -1   3   6   12.94    6.07
  -1  -3   6   12.31    5.69
  -1   3   6   18.38    7.92
   1  -3  -6   12.76    4.71
   0   3  -6   12.14    4.17
   0   3  -6   12.37    5.22
   0   3  -6   22.61    6.14
   0  -3   6   10.91    5.95
   0  -3   6   14.64    5.87
   3   4  -6    1.41    4.90
   3   4  -6    4.08    5.43
   3  -4  -6    3.00    4.40
   3  -4  -6    4.44    5.32
  -3   4   6   -1.93    4.36
  -3  -4   6    3.30    4.61
  -3   4   6   -4.18    5.27
  -3   4   6   -0.28    4.85
   3  -4  -6    2.75    3.52
   2   4  -6   99.58   11.33
   2  -4  -6  106.01   10.61
   2   4  -6   94.85   11.77
   2  -4  -6  108.15   10.80
   2   4  -6  114.61   10.93
  -2   4   6  108.35   11.10
  -2  -4   6  100.46   10.50
  -2  -4   6  108.12   10.53
  -2   4   6  112.23   12.07
  -2  -4   6  129.51   11.49
  -2   4   6  118.47   13.00
   2  -4  -6  107.03   10.74
   1   4  -6   46.52    7.68
   1   4  -6   48.39    8.37
   1  -4  -6   52.00    7.82
   1  -4  -6   56.52    8.13
   1   4  -6   48.57    7.30
  -1   4   6   45.77    8.54
  -1  -4   6   48.71    8.35
  -1  -4   6   56.70    8.44
  -1   4   6   35.01    8.06
  -1  -4   6   57.96    8.50
  -1   4   6   38.70    8.34
   1  -4  -6   52.11    7.73
   0   4  -6    4.91    4.29
   0   4  -6    7.53    5.48
   0   4  -6    9.71    4.57
   0  -4   6   11.90    5.03
   0  -4   6   13.29    5.98
   3   5  -6    9.07    6.29
   3   5  -6    3.38    6.59
   3  -5  -6   17.16    6.49
   3  -5  -6   12.89    5.14
  -3   5   6    6.13    4.08
  -3  -5   6    5.31    4.67
  -3   5   6    9.75    4.98
  -3   5   6    8.30    6.12
   3  -5  -6    9.46    4.20
   2   5  -6    0.26    4.21
   2   5  -6   -2.99    4.82
   2  -5  -6   -1.02    3.52
   2  -5  -6    1.19    3.80
   2   5  -6    2.52    3.59
  -2   5   6    3.52    4.21
  -2  -5   6   -1.18    4.16
  -2  -5   6   -1.66    4.19
  -2   5   6    3.88    5.36
  -2  -5   6    0.06    3.91
  -2   5   6    6.05    5.55
   2  -5  -6   -0.47    4.28
   1   5  -6   10.85    5.31
   1   5  -6   12.59    5.76
   1  -5  -6   -0.63    3.51
   1  -5  -6    3.29    4.01
   1   5  -6    3.37    3.83
  -1  -5   6    7.14    5.86
  -1  -5   6    2.50    4.06
  -1   5   6   -3.62    5.71
  -1  -5   6    4.16    4.76
  -1   5   6   11.83    6.72
   1  -5  -6    4.18    3.88
   0   5  -6   81.44    9.73
   0   5  -6   99.89   11.73
   0   5  -6  105.98   10.54
   0  -5   6   71.30    9.40
  -3   6   6   47.41    8.23
  -3   6   6   30.97    7.22
   3  -6  -6   39.52    7.48
   2   6  -6   90.77   12.29
   2   6  -6   89.91   11.97
   2  -6  -6   94.47   10.58
   2   6  -6   95.79   10.54
  -2   6   6   89.24   10.90
  -2  -6   6   77.39    9.80
  -2  -6   6   79.57    9.23
  -2   6   6  120.16   13.67
   2  -6  -6   97.30   10.28
   1   6  -6   60.27    9.27
   1   6  -6   66.16   10.59
   1  -6  -6   69.62    8.69
   1   6  -6   78.60    9.11
  -1  -6   6   61.85    8.97
  -1  -6   6   82.64    9.86
  -1   6   6   57.94    9.77
  -1  -6   6   87.53   10.48
  -1   6   6   50.77    9.85
   1  -6  -6   74.00    9.28
   0   6  -6  116.40   12.47
   0   6  -6  119.09   13.87
   0   6  -6  124.29   11.12
   0  -6   6  106.72   11.18
   0  -6   6  117.91   12.72
   4  -7  -6    8.67    5.25
   3  -7  -6   -2.41    3.83
   2   7  -6    0.86    5.58
   2   7  -6    2.41    6.20
  -2  -7   6   -0.22    5.13
   2  -7  -6    6.46    4.59
   1   7  -6   -0.39    4.63
   1   7  -6   -4.34    6.29
  -1  -7   6    6.73    4.35
  -1  -7   6   -0.31    4.65
   1  -7  -6    8.62    5.77
   0   7  -6   11.02    5.65
   2   8  -6    2.89    5.89
   2  -8  -6    3.03    4.39
   1   8  -6    6.40    5.91
   1  -8  -6    2.54    4.11
   3  -2  -7   71.32   10.36
  -2   2   7   12.56    7.31
   3  -3  -7   85.73   11.01
   2  -3  -7    7.04    4.66
   1  -3  -7    3.10    4.29
   3   4  -7   14.94    5.65
   2   4  -7   58.23    9.29
   1   4  -7   -3.40    4.86
   0   0   0    0.00    0.00


TITL 1a in P2(1)/c
REM P2(1)/c (#14 in standard setting)
CELL 0.71073   7.823719  13.078862   5.628979  90.0000 100.7931  90.0000
ZERR    4.00   0.003598   0.000592   0.000379   0.0000   0.0191   0.0000
LATT  1
SYMM -x, y+1/2,-z+1/2
SFAC C H N Cl
UNIT 16.00 8.00 20.00 4.00
TREF
HKLF 4
END
_computing_structure_solution     'SHELXT 2014/5 (Sheldrick, 2014)'
;
_shelx_hkl_checksum              52926
_olex2_submission_special_instructions 'No special instructions were received'
_oxdiff_exptl_absorpt_empirical_details
;
Empirical correction (ABSPACK) includes:
- Absorption correction using spherical harmonics
- Frame scaling
;
_oxdiff_exptl_absorpt_empirical_full_max 1.828
_oxdiff_exptl_absorpt_empirical_full_min 0.743
loop_
_space_group_symop_operation_xyz
'x, y, z'
'-x, y+1/2, -z+1/2'
'-x, -y, -z'
'x, -y-1/2, z-1/2'
loop_
_atom_site_label
_atom_site_type_symbol
_atom_site_fract_x
_atom_site_fract_y
_atom_site_fract_z
_atom_site_U_iso_or_equiv
_atom_site_adp_type
_atom_site_occupancy
_atom_site_site_symmetry_order
_atom_site_calc_flag
_atom_site_refinement_flags_posn
_atom_site_refinement_flags_adp
_atom_site_refinement_flags_occupancy
_atom_site_disorder_assembly
_atom_site_disorder_group
Cl1 Cl 1.0297(6) 0.33986(11) 0.8469(3) 0.0498(6) Uiso 1 1 d . . . . .
N4 N 0.553(2) 0.3530(3) 0.5387(10) 0.0299(12) Uiso 1 1 d . . . . .
N5 N 0.6971(17) 0.3312(3) 0.7051(10) 0.0312(11) Uiso 1 1 d . . . . .
N1 N 0.3853(19) 0.4148(4) 0.2297(12) 0.0424(16) Uiso 1 1 d . . . . .
N3 N 0.394(2) 0.3356(4) 0.5771(11) 0.0425(14) Uiso 1 1 d . . . . .
N2 N 0.2928(17) 0.3733(4) 0.3871(11) 0.0457(14) Uiso 1 1 d . . . . .
C8 C 0.7079(18) 0.4256(4) 0.2567(11) 0.0303(13) Uiso 1 1 d . . . . .
H8 H 0.711452 0.457264 0.109814 0.036 Uiso 1 1 calc R U . . .
C6 C 0.841(2) 0.3577(3) 0.6357(11) 0.0282(13) Uiso 1 1 d . . . . .
C9 C 0.546(3) 0.4011(4) 0.3234(13) 0.0287(14) Uiso 1 1 d . . . . .
C7 C 0.855(2) 0.4019(3) 0.4110(11) 0.0322(14) Uiso 1 1 d . . . . .
H7 H 0.963592 0.414222 0.371132 0.039 Uiso 1 1 calc R U . . .
loop_
_atom_type_symbol
_atom_type_description
_atom_type_scat_dispersion_real
_atom_type_scat_dispersion_imag
_atom_type_scat_source
C C 0.0033 0.0016 'International Tables Vol C Tables 4.2.6.8 and 6.1.1.4'
H H 0.0000 0.0000 'International Tables Vol C Tables 4.2.6.8 and 6.1.1.4'
Cl Cl 0.1484 0.1585 'International Tables Vol C Tables 4.2.6.8 and 6.1.1.4'
N N 0.0061 0.0033 'International Tables Vol C Tables 4.2.6.8 and 6.1.1.4'
loop_
_geom_angle_atom_site_label_1
_geom_angle_atom_site_label_2
_geom_angle_atom_site_label_3
_geom_angle
_geom_angle_site_symmetry_1
_geom_angle_site_symmetry_3
_geom_angle_publ_flag
N5 N4 C9 126.9(14) . . ?
N3 N4 N5 122.6(6) . . ?
N3 N4 C9 110.3(15) . . ?
C6 N5 N4 113.0(5) . . ?
C9 N1 N2 106.1(8) . . ?
N2 N3 N4 104.2(7) . . ?
N3 N2 N1 111.8(12) . . ?
C9 C8 H8 120.8 . . ?
C7 C8 H8 120.8 . . ?
C7 C8 C9 118.4(6) . . ?
N5 C6 Cl1 115.6(5) . . ?
N5 C6 C7 126.4(14) . . ?
C7 C6 Cl1 118.0(12) . . ?
N4 C9 C8 117.0(15) . . ?
N1 C9 N4 107.5(15) . . ?
N1 C9 C8 135.5(7) . . ?
C8 C7 C6 118.0(14) . . ?
C8 C7 H7 121.0 . . ?
C6 C7 H7 121.0 . . ?
loop_
_geom_bond_atom_site_label_1
_geom_bond_atom_site_label_2
_geom_bond_distance
_geom_bond_site_symmetry_2
_geom_bond_publ_flag
Cl1 C6 1.730(15) . ?
N4 N5 1.356(17) . ?
N4 N3 1.321(19) . ?
N4 C9 1.358(8) . ?
N5 C6 1.305(18) . ?
N1 N2 1.358(12) . ?
N1 C9 1.28(2) . ?
N3 N2 1.302(14) . ?
C8 H8 0.9300 . ?
C8 C9 1.42(2) . ?
C8 C7 1.344(19) . ?
C6 C7 1.415(8) . ?
C7 H7 0.9300 . ?
loop_
_geom_torsion_atom_site_label_1
_geom_torsion_atom_site_label_2
_geom_torsion_atom_site_label_3
_geom_torsion_atom_site_label_4
_geom_torsion
_geom_torsion_site_symmetry_1
_geom_torsion_site_symmetry_2
_geom_torsion_site_symmetry_3
_geom_torsion_site_symmetry_4
_geom_torsion_publ_flag
Cl1 C6 C7 C8 -173.2(4) . . . . ?
N4 N5 C6 Cl1 176.0(3) . . . . ?
N4 N5 C6 C7 -1.9(7) . . . . ?
N4 N3 N2 N1 -0.4(6) . . . . ?
N5 N4 N3 N2 175.3(4) . . . . ?
N5 N4 C9 N1 -174.5(5) . . . . ?
N5 N4 C9 C8 4.3(7) . . . . ?
N5 C6 C7 C8 4.6(8) . . . . ?
N3 N4 N5 C6 -177.5(4) . . . . ?
N3 N4 C9 N1 0.9(6) . . . . ?
N3 N4 C9 C8 179.7(4) . . . . ?
N2 N1 C9 N4 -1.0(6) . . . . ?
N2 N1 C9 C8 -179.5(5) . . . . ?
C9 N4 N5 C6 -2.7(7) . . . . ?
C9 N4 N3 N2 -0.3(6) . . . . ?
C9 N1 N2 N3 0.9(6) . . . . ?
C9 C8 C7 C6 -2.6(7) . . . . ?
C7 C8 C9 N4 -1.3(7) . . . . ?
C7 C8 C9 N1 177.1(6) . . . . ?
